0:0
     RDKit          3D

 25 26  0  0  0  0  0  0  0  0999 V2000
   -4.1950   25.5230  -30.6880 N   0  0  0  0  0  0  0  0  0  0  0  0
   -5.5180   25.0650  -30.4050 C   0  0  0  0  0  0  0  0  0  0  0  0
   -6.2360   25.7160  -29.6000 O   0  0  0  0  0  0  0  0  0  0  0  0
   -6.0330   23.8080  -30.9830 C   0  0  0  0  0  0  0  0  0  0  0  0
   -7.3890   23.5130  -31.0850 C   0  0  0  0  0  0  0  0  0  0  0  0
   -7.4460   22.2440  -31.6100 C   0  0  0  0  0  0  0  0  0  0  0  0
   -8.5500   21.4570  -31.9280 C   0  0  0  0  0  0  0  0  0  0  0  0
   -8.3170   20.1930  -32.4930 C   0  0  0  0  0  0  0  0  0  0  0  0
   -6.9950   19.7490  -32.7470 C   0  0  0  0  0  0  0  0  0  0  0  0
   -6.7600   18.3870  -33.3320 C   0  0  0  0  0  0  0  0  0  0  0  0
   -6.1170   17.1860  -31.9550 Br  0  0  0  0  0  0  0  0  0  0  0  0
   -5.9000   20.5690  -32.4010 C   0  0  0  0  0  0  0  0  0  0  0  0
   -6.1590   21.8160  -31.8190 C   0  0  0  0  0  0  0  0  0  0  0  0
   -5.2770   22.7700  -31.4400 N   0  0  0  0  0  0  0  0  0  0  0  0
   -3.8490   22.7340  -31.6040 C   0  0  0  0  0  0  0  0  0  0  0  0
   -3.0980   23.2890  -30.7600 O   0  0  0  0  0  0  0  0  0  0  0  0
   -3.2810   22.0890  -32.6960 O   0  0  0  0  0  0  0  0  0  0  0  0
   -3.8610   26.4330  -30.3020 H   0  0  0  0  0  0  0  0  0  0  0  0
   -3.5180   24.9240  -31.2110 H   0  0  0  0  0  0  0  0  0  0  0  0
   -8.2350   24.1579  -30.8051 H   0  0  0  0  0  0  0  0  0  0  0  0
   -9.5735   21.8148  -31.7422 H   0  0  0  0  0  0  0  0  0  0  0  0
   -9.1679   19.5414  -32.7408 H   0  0  0  0  0  0  0  0  0  0  0  0
   -7.7029   17.9987  -33.7445 H   0  0  0  0  0  0  0  0  0  0  0  0
   -6.0084   18.4592  -34.1319 H   0  0  0  0  0  0  0  0  0  0  0  0
   -4.8675   20.2366  -32.5841 H   0  0  0  0  0  0  0  0  0  0  0  0
  1  2  1  0
  2  3  2  0
  2  4  1  0
  4  5  2  0
  5  6  1  0
  6  7  2  0
  7  8  1  0
  8  9  2  0
  9 10  1  0
 10 11  1  0
  9 12  1  0
 12 13  2  0
 13 14  1  0
 14 15  1  0
 15 16  2  0
 15 17  1  0
 14  4  1  0
 13  6  1  0
  1 18  1  0
  1 19  1  0
  5 20  1  0
  7 21  1  0
  8 22  1  0
 10 23  1  0
 10 24  1  0
 12 25  1  0
M  CHG  1  17  -1
M  END
>  <UniqueID>  (1) 
1

>  <SMILES>  (1) 
NC(=O)c1cc2ccc(CBr)cc2n1C(=O)[O-]

>  <Energy>  (1) 
64.5774012544328

>  <Genealogy>  (1) 
NC(=O)c1cc2ccc(CBr)cc2n1C(=O)[O-] (protonated)
NC(=O)c1cc2ccc(CBr)cc2n1C(=O)[O-] (3D coordinates assigned)
NC(=O)c1cc2ccc(CBr)cc2n1C(=O)[O-] (optimized conformer: 64.5774012544328 kcal/mol)

>  <smiles>  (1) 
NC(=O)c1cc2ccc(CBr)cc2n1C(=O)O

>  <score_type>  (1) 
oracle

>  <origin>  (1) 
adg

>  <m_score__min__energy>  (1) 
-8.3499999999999996

>  <m_primary>  (1) 
energy

$$$$
1:0
     RDKit          3D

 45 46  0  0  0  0  0  0  0  0999 V2000
   -1.1830   20.4010  -32.1960 C   0  0  0  0  0  0  0  0  0  0  0  0
   -2.4020   19.9390  -32.8820 N   0  0  0  0  0  0  0  0  0  0  0  0
   -3.0970   21.0950  -33.4720 C   0  0  0  0  0  0  0  0  0  0  0  0
   -2.0800   18.9450  -33.9300 C   0  0  0  0  0  0  0  0  0  0  0  0
   -3.2870   18.0440  -34.2120 C   0  0  0  0  0  0  0  0  0  0  0  0
   -4.3090   18.2200  -33.1820 N   0  0  0  0  0  0  0  0  0  0  0  0
   -5.7130   18.1120  -33.4590 C   0  0  0  0  0  0  0  0  0  0  0  0
   -6.1160   17.8880  -34.6320 O   0  0  0  0  0  0  0  0  0  0  0  0
   -6.7130   18.3230  -32.3640 C   0  0  0  0  0  0  0  0  0  0  0  0
   -6.8960   19.7930  -32.1080 C   0  0  0  0  0  0  0  0  0  0  0  0
   -8.1770   20.3860  -32.2420 C   0  0  0  0  0  0  0  0  0  0  0  0
   -8.3660   21.7510  -31.9670 C   0  0  0  0  0  0  0  0  0  0  0  0
   -7.2620   22.4920  -31.5570 C   0  0  0  0  0  0  0  0  0  0  0  0
   -7.1610   23.8220  -31.2110 C   0  0  0  0  0  0  0  0  0  0  0  0
   -5.8230   24.0160  -30.8730 C   0  0  0  0  0  0  0  0  0  0  0  0
   -5.2530   25.3260  -30.4900 C   0  0  0  0  0  0  0  0  0  0  0  0
   -3.9160   25.6740  -30.8400 N   0  0  0  0  0  0  0  0  0  0  0  0
   -5.9650   26.1590  -29.8690 O   0  0  0  0  0  0  0  0  0  0  0  0
   -5.1290   22.8500  -30.9970 N   0  0  0  0  0  0  0  0  0  0  0  0
   -3.7480   22.6040  -30.7000 C   0  0  0  0  0  0  0  0  0  0  0  0
   -2.8570   23.0810  -31.4530 O   0  0  0  0  0  0  0  0  0  0  0  0
   -3.3520   21.7000  -29.5730 C   0  0  0  0  0  0  0  0  0  0  0  0
   -2.0150   21.8970  -29.2790 F   0  0  0  0  0  0  0  0  0  0  0  0
   -3.5440   20.3730  -29.9160 F   0  0  0  0  0  0  0  0  0  0  0  0
   -4.1090   21.9900  -28.4530 F   0  0  0  0  0  0  0  0  0  0  0  0
   -6.0200   21.9320  -31.4210 C   0  0  0  0  0  0  0  0  0  0  0  0
   -5.8010   20.5760  -31.6810 C   0  0  0  0  0  0  0  0  0  0  0  0
   -1.3312   20.3448  -31.1075 H   0  0  0  0  0  0  0  0  0  0  0  0
   -0.3355   19.7617  -32.4841 H   0  0  0  0  0  0  0  0  0  0  0  0
   -0.9721   21.4414  -32.4841 H   0  0  0  0  0  0  0  0  0  0  0  0
   -3.4842   21.7391  -32.6688 H   0  0  0  0  0  0  0  0  0  0  0  0
   -2.3933   21.6676  -34.0940 H   0  0  0  0  0  0  0  0  0  0  0  0
   -3.9328   20.7420  -34.0940 H   0  0  0  0  0  0  0  0  0  0  0  0
   -1.7995   19.4723  -34.8537 H   0  0  0  0  0  0  0  0  0  0  0  0
   -1.2461   18.3192  -33.5792 H   0  0  0  0  0  0  0  0  0  0  0  0
   -3.7123   18.3050  -35.1923 H   0  0  0  0  0  0  0  0  0  0  0  0
   -2.9562   16.9949  -34.2093 H   0  0  0  0  0  0  0  0  0  0  0  0
   -4.0040   18.4920  -32.2210 H   0  0  0  0  0  0  0  0  0  0  0  0
   -7.6763   17.8827  -32.6611 H   0  0  0  0  0  0  0  0  0  0  0  0
   -6.3484   17.8401  -31.4454 H   0  0  0  0  0  0  0  0  0  0  0  0
   -9.0308   19.7718  -32.5642 H   0  0  0  0  0  0  0  0  0  0  0  0
   -9.3558   22.2191  -32.0726 H   0  0  0  0  0  0  0  0  0  0  0  0
   -7.9659   24.5717  -31.2032 H   0  0  0  0  0  0  0  0  0  0  0  0
   -3.1150   25.0590  -30.5750 H   0  0  0  0  0  0  0  0  0  0  0  0
   -4.8028   20.1309  -31.5564 H   0  0  0  0  0  0  0  0  0  0  0  0
  1  2  1  0
  2  3  1  0
  2  4  1  0
  4  5  1  0
  5  6  1  0
  6  7  1  0
  7  8  2  0
  7  9  1  0
  9 10  1  0
 10 11  2  0
 11 12  1  0
 12 13  2  0
 13 14  1  0
 14 15  2  0
 15 16  1  0
 16 17  1  0
 16 18  2  0
 15 19  1  0
 19 20  1  0
 20 21  2  0
 20 22  1  0
 22 23  1  0
 22 24  1  0
 22 25  1  0
 19 26  1  0
 26 27  2  0
 27 10  1  0
 26 13  1  0
  1 28  1  0
  1 29  1  0
  1 30  1  0
  3 31  1  0
  3 32  1  0
  3 33  1  0
  4 34  1  0
  4 35  1  0
  5 36  1  0
  5 37  1  0
  6 38  1  0
  9 39  1  0
  9 40  1  0
 11 41  1  0
 12 42  1  0
 14 43  1  0
 17 44  1  0
 27 45  1  0
M  CHG  1  17  -1
M  END
>  <UniqueID>  (2) 
2

>  <SMILES>  (2) 
CN(C)CCNC(=O)Cc1ccc2cc(C([NH-])=O)n(C(=O)C(F)(F)F)c2c1

>  <Energy>  (2) 
79.2037238617027

>  <Genealogy>  (2) 
CN(C)CCNC(=O)Cc1ccc2cc(C([NH-])=O)n(C(=O)C(F)(F)F)c2c1 (protonated)
CN(C)CCNC(=O)Cc1ccc2cc(C([NH-])=O)n(C(=O)C(F)(F)F)c2c1 (3D coordinates assigned)
CN(C)CCNC(=O)Cc1ccc2cc(C([NH-])=O)n(C(=O)C(F)(F)F)c2c1 (optimized conformer: 79.2037238617027 kcal/mol)

>  <smiles>  (2) 
CN(C)CCNC(=O)Cc1ccc2cc(C(N)=O)n(C(=O)C(F)(F)F)c2c1

>  <score_type>  (2) 
oracle

>  <origin>  (2) 
adg

>  <m_score__min__energy>  (2) 
-10.09

>  <m_primary>  (2) 
energy

$$$$
2:0
     RDKit          3D

 36 38  0  0  0  0  0  0  0  0999 V2000
   -5.4730   18.2980  -34.9410 N   0  0  0  0  0  0  0  0  0  0  0  0
   -6.1170   18.2970  -33.9790 C   0  0  0  0  0  0  0  0  0  0  0  0
   -6.9300   18.2960  -32.7590 C   0  0  0  0  0  0  0  0  0  0  0  0
   -7.1410   19.7060  -32.2820 C   0  0  0  0  0  0  0  0  0  0  0  0
   -8.4300   20.2920  -32.3440 C   0  0  0  0  0  0  0  0  0  0  0  0
   -8.6290   21.6260  -31.9510 C   0  0  0  0  0  0  0  0  0  0  0  0
   -7.5270   22.3420  -31.4920 C   0  0  0  0  0  0  0  0  0  0  0  0
   -7.4270   23.6610  -31.1170 C   0  0  0  0  0  0  0  0  0  0  0  0
   -6.0840   23.8550  -30.8030 C   0  0  0  0  0  0  0  0  0  0  0  0
   -5.5290   25.1530  -30.3680 C   0  0  0  0  0  0  0  0  0  0  0  0
   -4.2230   25.5760  -30.7590 N   0  0  0  0  0  0  0  0  0  0  0  0
   -6.2060   25.8870  -29.5990 O   0  0  0  0  0  0  0  0  0  0  0  0
   -5.3800   22.7010  -30.9740 N   0  0  0  0  0  0  0  0  0  0  0  0
   -3.9570   22.5270  -30.8750 C   0  0  0  0  0  0  0  0  0  0  0  0
   -3.2200   22.8610  -31.8420 O   0  0  0  0  0  0  0  0  0  0  0  0
   -3.3290   21.9740  -29.6270 C   0  0  0  0  0  0  0  0  0  0  0  0
   -2.9250   23.0820  -28.7050 C   0  0  0  0  0  0  0  0  0  0  0  0
   -1.7660   23.8400  -28.8000 C   0  0  0  0  0  0  0  0  0  0  0  0
   -1.6860   24.8460  -27.8280 C   0  0  0  0  0  0  0  0  0  0  0  0
   -2.7810   24.8850  -26.9760 C   0  0  0  0  0  0  0  0  0  0  0  0
   -3.8520   23.6710  -27.4300 S   0  0  0  0  0  0  0  0  0  0  0  0
   -6.2760   21.7850  -31.4080 C   0  0  0  0  0  0  0  0  0  0  0  0
   -6.0440   20.4700  -31.8280 C   0  0  0  0  0  0  0  0  0  0  0  0
   -7.9051   17.8332  -32.9712 H   0  0  0  0  0  0  0  0  0  0  0  0
   -6.4085   17.7241  -31.9774 H   0  0  0  0  0  0  0  0  0  0  0  0
   -9.2825   19.6968  -32.7032 H   0  0  0  0  0  0  0  0  0  0  0  0
   -9.6248   22.0903  -32.0043 H   0  0  0  0  0  0  0  0  0  0  0  0
   -8.2360   24.4051  -31.0741 H   0  0  0  0  0  0  0  0  0  0  0  0
   -3.8750   26.5220  -30.4890 H   0  0  0  0  0  0  0  0  0  0  0  0
   -3.5600   24.9190  -31.2230 H   0  0  0  0  0  0  0  0  0  0  0  0
   -4.0538   21.3239  -29.1151 H   0  0  0  0  0  0  0  0  0  0  0  0
   -2.4330   21.3998  -29.9053 H   0  0  0  0  0  0  0  0  0  0  0  0
   -0.9899   23.6685  -29.5604 H   0  0  0  0  0  0  0  0  0  0  0  0
   -0.8358   25.5393  -27.7477 H   0  0  0  0  0  0  0  0  0  0  0  0
   -2.9239   25.5907  -26.1444 H   0  0  0  0  0  0  0  0  0  0  0  0
   -5.0309   20.0420  -31.8049 H   0  0  0  0  0  0  0  0  0  0  0  0
  1  2  3  0
  2  3  1  0
  3  4  1  0
  4  5  2  0
  5  6  1  0
  6  7  2  0
  7  8  1  0
  8  9  2  0
  9 10  1  0
 10 11  1  0
 10 12  2  0
  9 13  1  0
 13 14  1  0
 14 15  2  0
 14 16  1  0
 16 17  1  0
 17 18  2  0
 18 19  1  0
 19 20  2  0
 20 21  1  0
 13 22  1  0
 22 23  2  0
 23  4  1  0
 22  7  1  0
 21 17  1  0
  3 24  1  0
  3 25  1  0
  5 26  1  0
  6 27  1  0
  8 28  1  0
 11 29  1  0
 11 30  1  0
 16 31  1  0
 16 32  1  0
 18 33  1  0
 19 34  1  0
 20 35  1  0
 23 36  1  0
M  END
>  <UniqueID>  (3) 
3

>  <SMILES>  (3) 
N#CCc1ccc2cc(C(N)=O)n(C(=O)Cc3cccs3)c2c1

>  <Energy>  (3) 
100.31056004456036

>  <Genealogy>  (3) 
N#CCc1ccc2cc(C(N)=O)n(C(=O)Cc3cccs3)c2c1 (3D coordinates assigned)
N#CCc1ccc2cc(C(N)=O)n(C(=O)Cc3cccs3)c2c1 (optimized conformer: 100.31056004456036 kcal/mol)

>  <smiles>  (3) 
N#CCc1ccc2cc(C(N)=O)n(C(=O)Cc3cccs3)c2c1

>  <score_type>  (3) 
oracle

>  <origin>  (3) 
adg

>  <m_score__min__energy>  (3) 
-9.4800000000000004

>  <m_primary>  (3) 
energy

$$$$
3:0
     RDKit          3D

 32 33  0  0  0  0  0  0  0  0999 V2000
   -9.4930   20.7510  -32.2990 C   0  0  0  0  0  0  0  0  0  0  0  0
   -9.4820   21.9100  -31.3100 C   0  0  0  0  0  0  0  0  0  0  0  0
   -8.3080   22.7000  -31.4760 O   0  0  0  0  0  0  0  0  0  0  0  0
   -7.2250   22.6690  -30.5900 C   0  0  0  0  0  0  0  0  0  0  0  0
   -7.3960   22.9240  -29.3670 O   0  0  0  0  0  0  0  0  0  0  0  0
   -5.9140   22.3420  -31.0780 N   0  0  0  0  0  0  0  0  0  0  0  0
   -4.7970   23.1230  -31.0470 C   0  0  0  0  0  0  0  0  0  0  0  0
   -4.6670   24.4200  -30.3520 C   0  0  0  0  0  0  0  0  0  0  0  0
   -5.3550   24.6760  -29.1280 N   0  0  0  0  0  0  0  0  0  0  0  0
   -3.8930   25.2980  -30.8200 O   0  0  0  0  0  0  0  0  0  0  0  0
   -3.7510   22.5120  -31.7310 C   0  0  0  0  0  0  0  0  0  0  0  0
   -4.2590   21.3130  -32.1760 C   0  0  0  0  0  0  0  0  0  0  0  0
   -3.6580   20.3170  -32.9390 C   0  0  0  0  0  0  0  0  0  0  0  0
   -4.4360   19.2050  -33.3010 C   0  0  0  0  0  0  0  0  0  0  0  0
   -5.7910   19.1010  -32.8910 C   0  0  0  0  0  0  0  0  0  0  0  0
   -6.6350   17.9370  -33.3410 C   0  0  0  0  0  0  0  0  0  0  0  0
   -6.4780   17.7170  -34.6980 F   0  0  0  0  0  0  0  0  0  0  0  0
   -7.9750   18.1790  -33.0940 F   0  0  0  0  0  0  0  0  0  0  0  0
   -6.2480   16.8030  -32.6530 F   0  0  0  0  0  0  0  0  0  0  0  0
   -6.3720   20.1490  -32.1360 C   0  0  0  0  0  0  0  0  0  0  0  0
   -5.5660   21.2350  -31.7710 C   0  0  0  0  0  0  0  0  0  0  0  0
   -9.5020   19.7989  -31.7481 H   0  0  0  0  0  0  0  0  0  0  0  0
  -10.3906   20.8172  -32.9315 H   0  0  0  0  0  0  0  0  0  0  0  0
   -8.5943   20.8001  -32.9315 H   0  0  0  0  0  0  0  0  0  0  0  0
  -10.3681   22.5391  -31.4805 H   0  0  0  0  0  0  0  0  0  0  0  0
   -9.4945   21.5039  -30.2878 H   0  0  0  0  0  0  0  0  0  0  0  0
   -5.8620   23.9160  -28.6240 H   0  0  0  0  0  0  0  0  0  0  0  0
   -5.2850   25.6140  -28.6730 H   0  0  0  0  0  0  0  0  0  0  0  0
   -2.7345   22.9038  -31.8836 H   0  0  0  0  0  0  0  0  0  0  0  0
   -2.6058   20.3978  -33.2493 H   0  0  0  0  0  0  0  0  0  0  0  0
   -3.9897   18.4048  -33.9098 H   0  0  0  0  0  0  0  0  0  0  0  0
   -7.4316   20.1110  -31.8430 H   0  0  0  0  0  0  0  0  0  0  0  0
  1  2  1  0
  2  3  1  0
  3  4  1  0
  4  5  2  0
  4  6  1  0
  6  7  1  0
  7  8  1  0
  8  9  1  0
  8 10  2  0
  7 11  2  0
 11 12  1  0
 12 13  2  0
 13 14  1  0
 14 15  2  0
 15 16  1  0
 16 17  1  0
 16 18  1  0
 16 19  1  0
 15 20  1  0
 20 21  2  0
 21  6  1  0
 21 12  1  0
  1 22  1  0
  1 23  1  0
  1 24  1  0
  2 25  1  0
  2 26  1  0
  9 27  1  0
  9 28  1  0
 11 29  1  0
 13 30  1  0
 14 31  1  0
 20 32  1  0
M  END
>  <UniqueID>  (4) 
4

>  <SMILES>  (4) 
CCOC(=O)n1c(C(N)=O)cc2ccc(C(F)(F)F)cc21

>  <Energy>  (4) 
68.14284610358132

>  <Genealogy>  (4) 
CCOC(=O)n1c(C(N)=O)cc2ccc(C(F)(F)F)cc21 (3D coordinates assigned)
CCOC(=O)n1c(C(N)=O)cc2ccc(C(F)(F)F)cc21 (optimized conformer: 68.14284610358132 kcal/mol)

>  <smiles>  (4) 
CCOC(=O)n1c(C(N)=O)cc2ccc(C(F)(F)F)cc21

>  <score_type>  (4) 
oracle

>  <origin>  (4) 
adg

>  <m_score__min__energy>  (4) 
-7.6100000000000003

>  <m_primary>  (4) 
energy

$$$$
4:0
     RDKit          3D

 36 37  0  0  0  0  0  0  0  0999 V2000
   -7.3090   23.5290  -31.2810 C   0  0  0  0  0  0  0  0  0  0  0  0
   -7.9200   22.1420  -31.1220 C   0  0  0  0  0  0  0  0  0  0  0  0
   -7.7090   21.3640  -32.2980 O   0  0  0  0  0  0  0  0  0  0  0  0
   -6.8330   20.2740  -32.3540 C   0  0  0  0  0  0  0  0  0  0  0  0
   -6.9960   19.2810  -31.5930 O   0  0  0  0  0  0  0  0  0  0  0  0
   -5.6590   20.3340  -33.2930 C   0  0  2  0  0  0  0  0  0  0  0  0
   -5.4250   19.0000  -34.0140 C   0  0  0  0  0  0  0  0  0  0  0  0
   -4.4150   20.7820  -32.5540 C   0  0  0  0  0  0  0  0  0  0  0  0
   -3.2440   19.9750  -32.5460 C   0  0  0  0  0  0  0  0  0  0  0  0
   -2.0960   20.3830  -31.8490 C   0  0  0  0  0  0  0  0  0  0  0  0
   -2.1380   21.6010  -31.1770 C   0  0  0  0  0  0  0  0  0  0  0  0
   -1.1790   22.2180  -30.4070 C   0  0  0  0  0  0  0  0  0  0  0  0
   -1.7630   23.4060  -29.9740 C   0  0  0  0  0  0  0  0  0  0  0  0
   -1.0430   24.4230  -29.1790 C   0  0  0  0  0  0  0  0  0  0  0  0
   -1.6220   25.7110  -28.9830 N   0  0  0  0  0  0  0  0  0  0  0  0
    0.0630   24.1550  -28.6370 O   0  0  0  0  0  0  0  0  0  0  0  0
   -3.0370   23.5150  -30.4510 N   0  0  0  0  0  0  0  0  0  0  0  0
   -3.9930   24.5540  -30.1850 C   0  0  0  0  0  0  0  0  0  0  0  0
   -3.8980   25.6710  -30.7600 O   0  0  0  0  0  0  0  0  0  0  0  0
   -5.0190   24.3460  -29.2720 O   0  0  0  0  0  0  0  0  0  0  0  0
   -3.2490   22.4020  -31.1890 C   0  0  0  0  0  0  0  0  0  0  0  0
   -4.4150   22.0140  -31.8590 C   0  0  0  0  0  0  0  0  0  0  0  0
   -7.1184   23.9617  -30.2878 H   0  0  0  0  0  0  0  0  0  0  0  0
   -6.3619   23.4511  -31.8350 H   0  0  0  0  0  0  0  0  0  0  0  0
   -8.0057   24.1753  -31.8350 H   0  0  0  0  0  0  0  0  0  0  0  0
   -7.4513   21.6364  -30.2649 H   0  0  0  0  0  0  0  0  0  0  0  0
   -9.0022   22.2477  -30.9556 H   0  0  0  0  0  0  0  0  0  0  0  0
   -5.8931   21.0765  -34.0701 H   0  0  0  0  0  0  0  0  0  0  0  0
   -5.2849   18.2012  -33.2708 H   0  0  0  0  0  0  0  0  0  0  0  0
   -6.2958   18.7660  -34.6440 H   0  0  0  0  0  0  0  0  0  0  0  0
   -4.5265   19.0764  -34.6440 H   0  0  0  0  0  0  0  0  0  0  0  0
   -3.2379   19.0202  -33.0922 H   0  0  0  0  0  0  0  0  0  0  0  0
   -1.1904   19.7588  -31.8344 H   0  0  0  0  0  0  0  0  0  0  0  0
   -0.1668   21.8512  -30.1815 H   0  0  0  0  0  0  0  0  0  0  0  0
   -2.6580   25.8380  -28.9760 H   0  0  0  0  0  0  0  0  0  0  0  0
   -5.3107   22.6524  -31.8454 H   0  0  0  0  0  0  0  0  0  0  0  0
  1  2  1  0
  2  3  1  0
  3  4  1  0
  4  5  2  0
  4  6  1  0
  6  7  1  0
  6  8  1  0
  8  9  2  0
  9 10  1  0
 10 11  2  0
 11 12  1  0
 12 13  2  0
 13 14  1  0
 14 15  1  0
 14 16  2  0
 13 17  1  0
 17 18  1  0
 18 19  2  0
 18 20  1  0
 17 21  1  0
 21 22  2  0
 22  8  1  0
 21 11  1  0
  1 23  1  0
  1 24  1  0
  1 25  1  0
  2 26  1  0
  2 27  1  0
  6 28  1  6
  7 29  1  0
  7 30  1  0
  7 31  1  0
  9 32  1  0
 10 33  1  0
 12 34  1  0
 15 35  1  0
 22 36  1  0
M  CHG  2  15  -1  20  -1
M  END
>  <UniqueID>  (5) 
5

>  <SMILES>  (5) 
CCOC(=O)[C@H](C)c1ccc2cc(C([NH-])=O)n(C(=O)[O-])c2c1

>  <Energy>  (5) 
69.63827491552625

>  <Genealogy>  (5) 
CCOC(=O)C(C)c1ccc2cc(C([NH-])=O)n(C(=O)[O-])c2c1 (protonated)
CCOC(=O)[C@H](C)c1ccc2cc(C([NH-])=O)n(C(=O)[O-])c2c1 (chirality)
CCOC(=O)[C@H](C)c1ccc2cc(C([NH-])=O)n(C(=O)[O-])c2c1 (3D coordinates assigned)
CCOC(=O)[C@H](C)c1ccc2cc(C([NH-])=O)n(C(=O)[O-])c2c1 (optimized conformer: 69.63827491552625 kcal/mol)

>  <smiles>  (5) 
CCOC(=O)C(C)c1ccc2cc(C(N)=O)n(C(=O)O)c2c1

>  <score_type>  (5) 
oracle

>  <origin>  (5) 
adg

>  <m_score__min__energy>  (5) 
-10.83

>  <m_primary>  (5) 
energy

$$$$
5:0
     RDKit          3D

 37 38  0  0  0  0  0  0  0  0999 V2000
   -2.9340   17.4360  -34.4200 C   0  0  0  0  0  0  0  0  0  0  0  0
   -3.3680   18.5560  -33.8410 C   0  0  0  0  0  0  0  0  0  0  0  0
   -4.6020   19.1520  -34.1420 O   0  0  0  0  0  0  0  0  0  0  0  0
   -5.8280   18.4810  -34.2430 C   0  0  0  0  0  0  0  0  0  0  0  0
   -6.1040   17.7870  -35.2610 O   0  0  0  0  0  0  0  0  0  0  0  0
   -6.7640   18.4990  -33.0720 C   0  0  1  0  0  0  0  0  0  0  0  0
   -6.1400   17.3190  -31.6560 Br  0  0  0  0  0  0  0  0  0  0  0  0
   -6.9480   19.9090  -32.5640 C   0  0  0  0  0  0  0  0  0  0  0  0
   -8.2480   20.4610  -32.4150 C   0  0  0  0  0  0  0  0  0  0  0  0
   -8.4220   21.7700  -31.9340 C   0  0  0  0  0  0  0  0  0  0  0  0
   -7.2850   22.4970  -31.5960 C   0  0  0  0  0  0  0  0  0  0  0  0
   -7.1620   23.7870  -31.1330 C   0  0  0  0  0  0  0  0  0  0  0  0
   -5.7930   23.9960  -30.9780 C   0  0  0  0  0  0  0  0  0  0  0  0
   -5.2100   25.2530  -30.4580 C   0  0  0  0  0  0  0  0  0  0  0  0
   -3.9040   25.6740  -30.8420 N   0  0  0  0  0  0  0  0  0  0  0  0
   -5.8680   25.9550  -29.6450 O   0  0  0  0  0  0  0  0  0  0  0  0
   -5.0990   22.8770  -31.3280 N   0  0  0  0  0  0  0  0  0  0  0  0
   -3.6760   22.6970  -31.3580 C   0  0  0  0  0  0  0  0  0  0  0  0
   -2.9670   23.1550  -30.4210 O   0  0  0  0  0  0  0  0  0  0  0  0
   -3.0260   21.9320  -32.4730 C   0  0  0  0  0  0  0  0  0  0  0  0
   -1.8230   21.1500  -31.9580 C   0  0  0  0  0  0  0  0  0  0  0  0
   -6.0250   21.9710  -31.7090 C   0  0  0  0  0  0  0  0  0  0  0  0
   -5.8180   20.6790  -32.2040 C   0  0  0  0  0  0  0  0  0  0  0  0
   -1.9560   17.0164  -34.1418 H   0  0  0  0  0  0  0  0  0  0  0  0
   -3.5540   16.9317  -35.1759 H   0  0  0  0  0  0  0  0  0  0  0  0
   -2.7257   19.0373  -33.0888 H   0  0  0  0  0  0  0  0  0  0  0  0
   -7.7420   18.1242  -33.4083 H   0  0  0  0  0  0  0  0  0  0  0  0
   -9.1287   19.8572  -32.6791 H   0  0  0  0  0  0  0  0  0  0  0  0
   -9.4262   22.2063  -31.8280 H   0  0  0  0  0  0  0  0  0  0  0  0
   -7.9727   24.5018  -30.9285 H   0  0  0  0  0  0  0  0  0  0  0  0
   -3.0560   25.2970  -30.3620 H   0  0  0  0  0  0  0  0  0  0  0  0
   -3.7558   21.2304  -32.9034 H   0  0  0  0  0  0  0  0  0  0  0  0
   -2.6845   22.6437  -33.2390 H   0  0  0  0  0  0  0  0  0  0  0  0
   -1.8274   21.1529  -30.8580 H   0  0  0  0  0  0  0  0  0  0  0  0
   -1.8763   20.1134  -32.3222 H   0  0  0  0  0  0  0  0  0  0  0  0
   -0.8973   21.6195  -32.3222 H   0  0  0  0  0  0  0  0  0  0  0  0
   -4.8015   20.2723  -32.3105 H   0  0  0  0  0  0  0  0  0  0  0  0
  1  2  2  0
  2  3  1  0
  3  4  1  0
  4  5  2  0
  4  6  1  0
  6  7  1  0
  6  8  1  0
  8  9  2  0
  9 10  1  0
 10 11  2  0
 11 12  1  0
 12 13  2  0
 13 14  1  0
 14 15  1  0
 14 16  2  0
 13 17  1  0
 17 18  1  0
 18 19  2  0
 18 20  1  0
 20 21  1  0
 17 22  1  0
 22 23  2  0
 23  8  1  0
 22 11  1  0
  1 24  1  0
  1 25  1  0
  2 26  1  0
  6 27  1  6
  9 28  1  0
 10 29  1  0
 12 30  1  0
 15 31  1  0
 20 32  1  0
 20 33  1  0
 21 34  1  0
 21 35  1  0
 21 36  1  0
 23 37  1  0
M  CHG  1  15  -1
M  END
>  <UniqueID>  (6) 
6

>  <SMILES>  (6) 
C=COC(=O)[C@@H](Br)c1ccc2cc(C([NH-])=O)n(C(=O)CC)c2c1

>  <Energy>  (6) 
76.09238340271276

>  <Genealogy>  (6) 
C=COC(=O)C(Br)c1ccc2cc(C([NH-])=O)n(C(=O)CC)c2c1 (protonated)
C=COC(=O)[C@@H](Br)c1ccc2cc(C([NH-])=O)n(C(=O)CC)c2c1 (chirality)
C=COC(=O)[C@@H](Br)c1ccc2cc(C([NH-])=O)n(C(=O)CC)c2c1 (3D coordinates assigned)
C=COC(=O)[C@@H](Br)c1ccc2cc(C([NH-])=O)n(C(=O)CC)c2c1 (optimized conformer: 76.09238340271276 kcal/mol)

>  <smiles>  (6) 
C=COC(=O)C(Br)c1ccc2cc(C(N)=O)n(C(=O)CC)c2c1

>  <score_type>  (6) 
oracle

>  <origin>  (6) 
adg

>  <m_score__min__energy>  (6) 
-10.56

>  <m_primary>  (6) 
energy

$$$$
6:0
     RDKit          3D

 29 31  0  0  0  0  0  0  0  0999 V2000
   -5.6190   26.4690  -30.3030 N   0  0  0  0  0  0  0  0  0  0  0  0
   -6.4680   25.3730  -29.9620 C   0  0  0  0  0  0  0  0  0  0  0  0
   -7.2410   25.4740  -28.9720 O   0  0  0  0  0  0  0  0  0  0  0  0
   -6.4100   24.1000  -30.7090 C   0  0  0  0  0  0  0  0  0  0  0  0
   -7.5410   23.4290  -31.1640 C   0  0  0  0  0  0  0  0  0  0  0  0
   -7.0680   22.2730  -31.7400 C   0  0  0  0  0  0  0  0  0  0  0  0
   -7.7580   21.2420  -32.3660 C   0  0  0  0  0  0  0  0  0  0  0  0
   -7.0140   20.1830  -32.9070 C   0  0  0  0  0  0  0  0  0  0  0  0
   -5.5990   20.1680  -32.8290 C   0  0  0  0  0  0  0  0  0  0  0  0
   -4.8760   18.9870  -33.4550 C   0  0  0  0  0  0  0  0  0  0  0  0
   -5.5700   18.2730  -34.6070 C   0  0  0  0  0  0  0  0  0  0  0  0
   -5.4810   17.6060  -33.2390 C   0  0  0  0  0  0  0  0  0  0  0  0
   -4.9310   21.2440  -32.1830 C   0  0  0  0  0  0  0  0  0  0  0  0
   -5.7020   22.2760  -31.6320 C   0  0  0  0  0  0  0  0  0  0  0  0
   -5.2800   23.3970  -31.0010 N   0  0  0  0  0  0  0  0  0  0  0  0
   -3.9200   23.8160  -30.8010 C   0  0  0  0  0  0  0  0  0  0  0  0
   -3.0080   22.9660  -30.6240 O   0  0  0  0  0  0  0  0  0  0  0  0
   -3.5940   25.1670  -30.8050 O   0  0  0  0  0  0  0  0  0  0  0  0
   -5.7000   27.3740  -29.7870 H   0  0  0  0  0  0  0  0  0  0  0  0
   -4.8570   26.3630  -31.0070 H   0  0  0  0  0  0  0  0  0  0  0  0
   -8.5887   23.7535  -31.0808 H   0  0  0  0  0  0  0  0  0  0  0  0
   -8.8557   21.2559  -32.4353 H   0  0  0  0  0  0  0  0  0  0  0  0
   -7.5375   19.3505  -33.3999 H   0  0  0  0  0  0  0  0  0  0  0  0
   -3.8826   19.4344  -33.3034 H   0  0  0  0  0  0  0  0  0  0  0  0
   -6.5383   18.6399  -34.9781 H   0  0  0  0  0  0  0  0  0  0  0  0
   -5.2852   17.9892  -35.6309 H   0  0  0  0  0  0  0  0  0  0  0  0
   -6.3850   17.4917  -32.6228 H   0  0  0  0  0  0  0  0  0  0  0  0
   -5.1054   16.6415  -32.8665 H   0  0  0  0  0  0  0  0  0  0  0  0
   -3.8332   21.2658  -32.1172 H   0  0  0  0  0  0  0  0  0  0  0  0
  1  2  1  0
  2  3  2  0
  2  4  1  0
  4  5  2  0
  5  6  1  0
  6  7  2  0
  7  8  1  0
  8  9  2  0
  9 10  1  0
 10 11  1  0
 11 12  1  0
  9 13  1  0
 13 14  2  0
 14 15  1  0
 15 16  1  0
 16 17  2  0
 16 18  1  0
 15  4  1  0
 14  6  1  0
 12 10  1  0
  1 19  1  0
  1 20  1  0
  5 21  1  0
  7 22  1  0
  8 23  1  0
 10 24  1  0
 11 25  1  0
 11 26  1  0
 12 27  1  0
 12 28  1  0
 13 29  1  0
M  CHG  1  18  -1
M  END
>  <UniqueID>  (7) 
7

>  <SMILES>  (7) 
NC(=O)c1cc2ccc(C3CC3)cc2n1C(=O)[O-]

>  <Energy>  (7) 
338.20239829975895

>  <Genealogy>  (7) 
NC(=O)c1cc2ccc(C3CC3)cc2n1C(=O)[O-] (protonated)
NC(=O)c1cc2ccc(C3CC3)cc2n1C(=O)[O-] (3D coordinates assigned)
NC(=O)c1cc2ccc(C3CC3)cc2n1C(=O)[O-] (nonaromatic ring conformer: 338.20239829975895 kcal/mol)

>  <smiles>  (7) 
NC(=O)c1cc2ccc(C3CC3)cc2n1C(=O)O

>  <score_type>  (7) 
oracle

>  <origin>  (7) 
adg

>  <m_score__min__energy>  (7) 
-8.8300000000000001

>  <m_primary>  (7) 
energy

$$$$
7:0
     RDKit          3D

 43 45  0  0  0  0  0  0  0  0999 V2000
   -5.2480   23.9370  -29.3450 C   0  0  0  0  0  0  0  0  0  0  0  0
   -4.0760   24.2340  -30.2260 C   0  0  0  0  0  0  0  0  0  0  0  0
   -4.0290   25.3360  -30.8380 O   0  0  0  0  0  0  0  0  0  0  0  0
   -3.0460   23.2560  -30.4380 N   0  0  0  0  0  0  0  0  0  0  0  0
   -1.7700   23.2600  -29.9630 C   0  0  0  0  0  0  0  0  0  0  0  0
   -1.1270   24.3660  -29.2230 C   0  0  0  0  0  0  0  0  0  0  0  0
   -1.8520   25.5670  -28.9690 N   0  0  0  0  0  0  0  0  0  0  0  0
    0.0470   24.2490  -28.7820 O   0  0  0  0  0  0  0  0  0  0  0  0
   -1.1050   22.0960  -30.3430 C   0  0  0  0  0  0  0  0  0  0  0  0
   -2.0190   21.3780  -31.0810 C   0  0  0  0  0  0  0  0  0  0  0  0
   -1.8980   20.1390  -31.7000 C   0  0  0  0  0  0  0  0  0  0  0  0
   -3.0170   19.6300  -32.3810 C   0  0  0  0  0  0  0  0  0  0  0  0
   -4.2330   20.3610  -32.4320 C   0  0  0  0  0  0  0  0  0  0  0  0
   -5.4340   19.7820  -33.1580 C   0  0  1  0  0  0  0  0  0  0  0  0
   -5.8140   18.4060  -32.5750 C   0  0  0  0  0  0  0  0  0  0  0  0
   -7.2000   17.9830  -33.0820 C   0  0  0  0  0  0  0  0  0  0  0  0
   -8.2800   18.9380  -32.6940 N   0  0  1  0  0  0  0  0  0  0  0  0
   -9.1190   18.3740  -31.6200 C   0  0  0  0  0  0  0  0  0  0  0  0
   -7.7940   20.2830  -32.2960 C   0  0  0  0  0  0  0  0  0  0  0  0
   -6.6360   20.7620  -33.1840 C   0  0  0  0  0  0  0  0  0  0  0  0
   -4.3150   21.6170  -31.7830 C   0  0  0  0  0  0  0  0  0  0  0  0
   -3.1810   22.1020  -31.1240 C   0  0  0  0  0  0  0  0  0  0  0  0
   -4.9432   24.0142  -28.2909 H   0  0  0  0  0  0  0  0  0  0  0  0
   -6.0519   24.6598  -29.5482 H   0  0  0  0  0  0  0  0  0  0  0  0
   -5.6107   22.9186  -29.5482 H   0  0  0  0  0  0  0  0  0  0  0  0
   -2.8340   25.6820  -29.3060 H   0  0  0  0  0  0  0  0  0  0  0  0
   -0.0697   21.8112  -30.1041 H   0  0  0  0  0  0  0  0  0  0  0  0
   -0.9550   19.5742  -31.6580 H   0  0  0  0  0  0  0  0  0  0  0  0
   -2.9498   18.6525  -32.8810 H   0  0  0  0  0  0  0  0  0  0  0  0
   -5.1458   19.6308  -34.2087 H   0  0  0  0  0  0  0  0  0  0  0  0
   -5.8317   18.4684  -31.4769 H   0  0  0  0  0  0  0  0  0  0  0  0
   -5.0706   17.6613  -32.8956 H   0  0  0  0  0  0  0  0  0  0  0  0
   -7.4395   16.9943  -32.6636 H   0  0  0  0  0  0  0  0  0  0  0  0
   -7.1566   17.9645  -34.1810 H   0  0  0  0  0  0  0  0  0  0  0  0
   -8.9040   19.0650  -33.5270 H   0  0  0  0  0  0  0  0  0  0  0  0
   -8.7008   18.6551  -30.6422 H   0  0  0  0  0  0  0  0  0  0  0  0
  -10.1420   18.7685  -31.7084 H   0  0  0  0  0  0  0  0  0  0  0  0
   -9.1399   17.2778  -31.7084 H   0  0  0  0  0  0  0  0  0  0  0  0
   -7.4478   20.2412  -31.2527 H   0  0  0  0  0  0  0  0  0  0  0  0
   -8.6264   20.9929  -32.4107 H   0  0  0  0  0  0  0  0  0  0  0  0
   -6.2987   21.7460  -32.8262 H   0  0  0  0  0  0  0  0  0  0  0  0
   -7.0045   20.8173  -34.2190 H   0  0  0  0  0  0  0  0  0  0  0  0
   -5.2491   22.1977  -31.7970 H   0  0  0  0  0  0  0  0  0  0  0  0
  1  2  1  0
  2  3  2  0
  2  4  1  0
  4  5  1  0
  5  6  1  0
  6  7  1  0
  6  8  2  0
  5  9  2  0
  9 10  1  0
 10 11  2  0
 11 12  1  0
 12 13  2  0
 13 14  1  0
 14 15  1  0
 15 16  1  0
 16 17  1  0
 17 18  1  0
 17 19  1  0
 19 20  1  0
 13 21  1  0
 21 22  2  0
 22  4  1  0
 22 10  1  0
 20 14  1  0
  1 23  1  0
  1 24  1  0
  1 25  1  0
  7 26  1  0
  9 27  1  0
 11 28  1  0
 12 29  1  0
 14 30  1  6
 15 31  1  0
 15 32  1  0
 16 33  1  0
 16 34  1  0
 17 35  1  6
 18 36  1  0
 18 37  1  0
 18 38  1  0
 19 39  1  0
 19 40  1  0
 20 41  1  0
 20 42  1  0
 21 43  1  0
M  CHG  2   7  -1  17   1
M  END
>  <UniqueID>  (8) 
8

>  <SMILES>  (8) 
CC(=O)n1c(C([NH-])=O)cc2ccc(C3CC[NH+](C)CC3)cc21

>  <Energy>  (8) 
91.37138467195135

>  <Genealogy>  (8) 
CC(=O)n1c(C([NH-])=O)cc2ccc(C3CC[NH+](C)CC3)cc21 (protonated)
CC(=O)n1c(C([NH-])=O)cc2ccc(C3CC[NH+](C)CC3)cc21 (3D coordinates assigned)
CC(=O)n1c(C([NH-])=O)cc2ccc(C3CC[NH+](C)CC3)cc21 (nonaromatic ring conformer: 91.37138467195135 kcal/mol)

>  <smiles>  (8) 
CC(=O)n1c(C(N)=O)cc2ccc(C3CCN(C)CC3)cc21

>  <score_type>  (8) 
oracle

>  <origin>  (8) 
adg

>  <m_score__min__energy>  (8) 
-11.09

>  <m_primary>  (8) 
energy

$$$$
8:0
     RDKit          3D

 45 47  0  0  0  0  0  0  0  0999 V2000
   -6.5300   25.6750  -29.5670 C   0  0  0  0  0  0  0  0  0  0  0  0
   -5.6830   25.6510  -30.8340 C   0  0  0  0  0  0  0  0  0  0  0  0
   -4.3590   25.2050  -30.5460 O   0  0  0  0  0  0  0  0  0  0  0  0
   -4.0800   24.0480  -29.8110 C   0  0  0  0  0  0  0  0  0  0  0  0
   -4.7190   23.7930  -28.7540 O   0  0  0  0  0  0  0  0  0  0  0  0
   -3.0720   23.1360  -30.2720 N   0  0  0  0  0  0  0  0  0  0  0  0
   -1.7210   23.2370  -30.1210 C   0  0  0  0  0  0  0  0  0  0  0  0
   -1.0120   24.2630  -29.3280 C   0  0  0  0  0  0  0  0  0  0  0  0
   -1.6600   25.4960  -29.0230 N   0  0  0  0  0  0  0  0  0  0  0  0
    0.1710   24.0760  -28.9420 O   0  0  0  0  0  0  0  0  0  0  0  0
   -1.0800   22.1780  -30.7620 C   0  0  0  0  0  0  0  0  0  0  0  0
   -2.0890   21.4210  -31.3120 C   0  0  0  0  0  0  0  0  0  0  0  0
   -2.0220   20.2560  -32.0660 C   0  0  0  0  0  0  0  0  0  0  0  0
   -3.2260   19.7010  -32.5300 C   0  0  0  0  0  0  0  0  0  0  0  0
   -4.4810   20.3200  -32.2540 C   0  0  0  0  0  0  0  0  0  0  0  0
   -5.7870   19.7080  -32.7820 C   0  0  0  0  0  0  0  0  0  0  0  0
   -7.0220   20.5650  -32.6070 C   0  0  0  0  0  0  0  0  0  0  0  0
   -8.1440   20.0200  -32.4190 O   0  0  0  0  0  0  0  0  0  0  0  0
   -6.9230   21.9550  -32.7430 O   0  0  0  0  0  0  0  0  0  0  0  0
   -7.6210   22.8780  -31.9100 C   0  0  0  0  0  0  0  0  0  0  0  0
   -7.6210   22.3990  -30.4620 C   0  0  0  0  0  0  0  0  0  0  0  0
   -6.0070   18.2610  -32.3620 C   0  0  0  0  0  0  0  0  0  0  0  0
   -5.8730   17.7820  -33.6800 O   0  0  0  0  0  0  0  0  0  0  0  0
   -5.6890   19.0890  -34.1710 C   0  0  0  0  0  0  0  0  0  0  0  0
   -4.4930   21.5040  -31.4700 C   0  0  0  0  0  0  0  0  0  0  0  0
   -3.2790   22.0190  -31.0040 C   0  0  0  0  0  0  0  0  0  0  0  0
   -5.8720   25.6564  -28.6857 H   0  0  0  0  0  0  0  0  0  0  0  0
   -7.1392   26.5908  -29.5505 H   0  0  0  0  0  0  0  0  0  0  0  0
   -7.1901   24.7952  -29.5505 H   0  0  0  0  0  0  0  0  0  0  0  0
   -6.1435   24.9685  -31.5635 H   0  0  0  0  0  0  0  0  0  0  0  0
   -5.6318   26.6701  -31.2450 H   0  0  0  0  0  0  0  0  0  0  0  0
   -2.6460   25.6710  -29.3180 H   0  0  0  0  0  0  0  0  0  0  0  0
    0.0021   21.9879  -30.8165 H   0  0  0  0  0  0  0  0  0  0  0  0
   -1.0553   19.7826  -32.2927 H   0  0  0  0  0  0  0  0  0  0  0  0
   -3.2005   18.7713  -33.1174 H   0  0  0  0  0  0  0  0  0  0  0  0
   -7.1284   23.8599  -31.9661 H   0  0  0  0  0  0  0  0  0  0  0  0
   -8.6615   22.9543  -32.2587 H   0  0  0  0  0  0  0  0  0  0  0  0
   -6.5839   22.2838  -30.1139 H   0  0  0  0  0  0  0  0  0  0  0  0
   -8.1395   23.1365  -29.8318 H   0  0  0  0  0  0  0  0  0  0  0  0
   -8.1395   21.4311  -30.3960 H   0  0  0  0  0  0  0  0  0  0  0  0
   -5.2335   17.8817  -31.6780 H   0  0  0  0  0  0  0  0  0  0  0  0
   -6.9141   18.0056  -31.7947 H   0  0  0  0  0  0  0  0  0  0  0  0
   -4.7110   19.2426  -34.6504 H   0  0  0  0  0  0  0  0  0  0  0  0
   -6.3568   19.4567  -34.9640 H   0  0  0  0  0  0  0  0  0  0  0  0
   -5.4417   22.0079  -31.2331 H   0  0  0  0  0  0  0  0  0  0  0  0
  1  2  1  0
  2  3  1  0
  3  4  1  0
  4  5  2  0
  4  6  1  0
  6  7  1  0
  7  8  1  0
  8  9  1  0
  8 10  2  0
  7 11  2  0
 11 12  1  0
 12 13  2  0
 13 14  1  0
 14 15  2  0
 15 16  1  0
 16 17  1  0
 17 18  2  0
 17 19  1  0
 19 20  1  0
 20 21  1  0
 16 22  1  0
 22 23  1  0
 23 24  1  0
 15 25  1  0
 25 26  2  0
 26  6  1  0
 26 12  1  0
 24 16  1  0
  1 27  1  0
  1 28  1  0
  1 29  1  0
  2 30  1  0
  2 31  1  0
  9 32  1  0
 11 33  1  0
 13 34  1  0
 14 35  1  0
 20 36  1  0
 20 37  1  0
 21 38  1  0
 21 39  1  0
 21 40  1  0
 22 41  1  0
 22 42  1  0
 24 43  1  0
 24 44  1  0
 25 45  1  0
M  CHG  1   9  -1
M  END
>  <UniqueID>  (9) 
9

>  <SMILES>  (9) 
CCOC(=O)n1c(C([NH-])=O)cc2ccc(C3(C(=O)OCC)COC3)cc21

>  <Energy>  (9) 
145.550973857336

>  <Genealogy>  (9) 
CCOC(=O)n1c(C([NH-])=O)cc2ccc(C3(C(=O)OCC)COC3)cc21 (protonated)
CCOC(=O)n1c(C([NH-])=O)cc2ccc(C3(C(=O)OCC)COC3)cc21 (3D coordinates assigned)
CCOC(=O)n1c(C([NH-])=O)cc2ccc(C3(C(=O)OCC)COC3)cc21 (nonaromatic ring conformer: 145.550973857336 kcal/mol)

>  <smiles>  (9) 
CCOC(=O)n1c(C(N)=O)cc2ccc(C3(C(=O)OCC)COC3)cc21

>  <score_type>  (9) 
oracle

>  <origin>  (9) 
adg

>  <m_score__min__energy>  (9) 
-9.9399999999999995

>  <m_primary>  (9) 
energy

$$$$
9:0
     RDKit          3D

 44 46  0  0  0  0  0  0  0  0999 V2000
   -4.3860   15.7060  -34.6330 C   0  0  0  0  0  0  0  0  0  0  0  0
   -5.3700   16.5300  -33.9470 N   0  0  0  0  0  0  0  0  0  0  0  0
   -5.2150   17.8220  -33.6060 C   0  0  0  0  0  0  0  0  0  0  0  0
   -6.3990   18.2630  -33.0440 C   0  0  0  0  0  0  0  0  0  0  0  0
   -6.7000   19.6150  -32.5140 C   0  0  0  0  0  0  0  0  0  0  0  0
   -8.0380   20.0870  -32.4740 C   0  0  0  0  0  0  0  0  0  0  0  0
   -8.3350   21.3640  -31.9760 C   0  0  0  0  0  0  0  0  0  0  0  0
   -7.2820   22.1520  -31.5270 C   0  0  0  0  0  0  0  0  0  0  0  0
   -7.2970   23.4160  -30.9840 C   0  0  0  0  0  0  0  0  0  0  0  0
   -5.9640   23.7150  -30.7090 C   0  0  0  0  0  0  0  0  0  0  0  0
   -5.5070   25.0280  -30.2060 C   0  0  0  0  0  0  0  0  0  0  0  0
   -6.1850   25.6700  -29.1240 N   0  0  0  0  0  0  0  0  0  0  0  0
   -4.5340   25.6110  -30.7520 O   0  0  0  0  0  0  0  0  0  0  0  0
   -5.1560   22.6720  -31.0610 N   0  0  0  0  0  0  0  0  0  0  0  0
   -3.7330   22.5680  -30.8710 C   0  0  0  0  0  0  0  0  0  0  0  0
   -2.9520   22.7880  -31.8360 O   0  0  0  0  0  0  0  0  0  0  0  0
   -3.2170   22.2340  -29.6160 O   0  0  0  0  0  0  0  0  0  0  0  0
   -3.8850   22.5560  -28.3990 C   0  0  0  0  0  0  0  0  0  0  0  0
   -2.9610   23.3680  -27.4930 C   0  0  0  0  0  0  0  0  0  0  0  0
   -1.8950   24.1150  -28.3000 C   0  0  0  0  0  0  0  0  0  0  0  0
   -2.5260   24.9330  -29.3310 N   0  0  0  0  0  0  0  0  0  0  0  0
   -5.9810   21.7250  -31.5650 C   0  0  0  0  0  0  0  0  0  0  0  0
   -5.6570   20.4480  -32.0420 C   0  0  0  0  0  0  0  0  0  0  0  0
   -7.2430   17.1630  -33.0880 C   0  0  0  0  0  0  0  0  0  0  0  0
   -6.5950   16.1230  -33.6500 N   0  0  0  0  0  0  0  0  0  0  0  0
   -3.7633   15.1845  -33.8912 H   0  0  0  0  0  0  0  0  0  0  0  0
   -4.9021   14.9667  -35.2632 H   0  0  0  0  0  0  0  0  0  0  0  0
   -3.7489   16.3439  -35.2632 H   0  0  0  0  0  0  0  0  0  0  0  0
   -4.3049   18.4230  -33.7493 H   0  0  0  0  0  0  0  0  0  0  0  0
   -8.8522   19.4432  -32.8381 H   0  0  0  0  0  0  0  0  0  0  0  0
   -9.3713   21.7312  -31.9418 H   0  0  0  0  0  0  0  0  0  0  0  0
   -8.1745   24.0547  -30.8050 H   0  0  0  0  0  0  0  0  0  0  0  0
   -5.8800   26.6150  -28.8010 H   0  0  0  0  0  0  0  0  0  0  0  0
   -6.9630   25.1960  -28.6150 H   0  0  0  0  0  0  0  0  0  0  0  0
   -4.7857   23.1463  -28.6233 H   0  0  0  0  0  0  0  0  0  0  0  0
   -4.1666   21.6250  -27.8852 H   0  0  0  0  0  0  0  0  0  0  0  0
   -3.5624   24.0992  -26.9329 H   0  0  0  0  0  0  0  0  0  0  0  0
   -2.4512   22.6731  -26.8095 H   0  0  0  0  0  0  0  0  0  0  0  0
   -1.3162   24.7630  -27.6255 H   0  0  0  0  0  0  0  0  0  0  0  0
   -1.2289   23.3828  -28.7798 H   0  0  0  0  0  0  0  0  0  0  0  0
   -2.7790   24.3000  -30.1260 H   0  0  0  0  0  0  0  0  0  0  0  0
   -3.4270   25.3020  -28.9500 H   0  0  0  0  0  0  0  0  0  0  0  0
   -4.6136   20.0998  -32.0496 H   0  0  0  0  0  0  0  0  0  0  0  0
   -8.2799   17.1425  -32.7213 H   0  0  0  0  0  0  0  0  0  0  0  0
  1  2  1  0
  2  3  1  0
  3  4  2  0
  4  5  1  0
  5  6  2  0
  6  7  1  0
  7  8  2  0
  8  9  1  0
  9 10  2  0
 10 11  1  0
 11 12  1  0
 11 13  2  0
 10 14  1  0
 14 15  1  0
 15 16  2  0
 15 17  1  0
 17 18  1  0
 18 19  1  0
 19 20  1  0
 20 21  1  0
 14 22  1  0
 22 23  2  0
  4 24  1  0
 24 25  2  0
 25  2  1  0
 23  5  1  0
 22  8  1  0
  1 26  1  0
  1 27  1  0
  1 28  1  0
  3 29  1  0
  6 30  1  0
  7 31  1  0
  9 32  1  0
 12 33  1  0
 12 34  1  0
 18 35  1  0
 18 36  1  0
 19 37  1  0
 19 38  1  0
 20 39  1  0
 20 40  1  0
 21 41  1  0
 21 42  1  0
 23 43  1  0
 24 44  1  0
M  END
>  <UniqueID>  (10) 
10

>  <SMILES>  (10) 
Cn1cc(-c2ccc3cc(C(N)=O)n(C(=O)OCCCN)c3c2)cn1

>  <Energy>  (10) 
107.23473723858552

>  <Genealogy>  (10) 
Cn1cc(-c2ccc3cc(C(N)=O)n(C(=O)OCCCN)c3c2)cn1 (3D coordinates assigned)
Cn1cc(-c2ccc3cc(C(N)=O)n(C(=O)OCCCN)c3c2)cn1 (optimized conformer: 107.23473723858552 kcal/mol)

>  <smiles>  (10) 
Cn1cc(-c2ccc3cc(C(N)=O)n(C(=O)OCCCN)c3c2)cn1

>  <score_type>  (10) 
oracle

>  <origin>  (10) 
adg

>  <m_score__min__energy>  (10) 
-9.3300000000000001

>  <m_primary>  (10) 
energy

$$$$
10:0
     RDKit          3D

 33 34  0  0  0  0  0  0  0  0999 V2000
   -8.7280   18.9330  -31.8190 C   0  0  0  0  0  0  0  0  0  0  0  0
   -7.7880   19.7600  -32.6970 C   0  0  0  0  0  0  0  0  0  0  0  0
   -6.3180   19.3050  -32.5870 C   0  0  0  0  0  0  0  0  0  0  0  0
   -5.3430   20.1640  -33.4090 C   0  0  0  0  0  0  0  0  0  0  0  0
   -4.1690   20.6430  -32.5970 C   0  0  0  0  0  0  0  0  0  0  0  0
   -2.9800   19.8730  -32.5400 C   0  0  0  0  0  0  0  0  0  0  0  0
   -1.8740   20.3190  -31.7990 C   0  0  0  0  0  0  0  0  0  0  0  0
   -1.9830   21.5370  -31.1340 C   0  0  0  0  0  0  0  0  0  0  0  0
   -1.0760   22.1900  -30.3320 C   0  0  0  0  0  0  0  0  0  0  0  0
   -1.7140   23.3620  -29.9310 C   0  0  0  0  0  0  0  0  0  0  0  0
   -1.0560   24.4090  -29.1230 C   0  0  0  0  0  0  0  0  0  0  0  0
   -1.6430   25.6980  -28.9720 N   0  0  0  0  0  0  0  0  0  0  0  0
    0.0670   24.1780  -28.5980 O   0  0  0  0  0  0  0  0  0  0  0  0
   -2.9700   23.4270  -30.4560 N   0  0  0  0  0  0  0  0  0  0  0  0
   -3.9760   24.4220  -30.2070 C   0  0  0  0  0  0  0  0  0  0  0  0
   -4.9330   24.1790  -29.4260 O   0  0  0  0  0  0  0  0  0  0  0  0
   -3.8870   25.6730  -30.8050 O   0  0  0  0  0  0  0  0  0  0  0  0
   -3.1180   22.3030  -31.1930 C   0  0  0  0  0  0  0  0  0  0  0  0
   -4.2430   21.8730  -31.9070 C   0  0  0  0  0  0  0  0  0  0  0  0
   -8.5063   19.1280  -30.7594 H   0  0  0  0  0  0  0  0  0  0  0  0
   -9.7702   19.2124  -32.0330 H   0  0  0  0  0  0  0  0  0  0  0  0
   -8.5837   17.8637  -32.0330 H   0  0  0  0  0  0  0  0  0  0  0  0
   -8.1090   19.6636  -33.7447 H   0  0  0  0  0  0  0  0  0  0  0  0
   -7.8403   20.8026  -32.3504 H   0  0  0  0  0  0  0  0  0  0  0  0
   -6.0175   19.3534  -31.5300 H   0  0  0  0  0  0  0  0  0  0  0  0
   -6.2662   18.2832  -32.9911 H   0  0  0  0  0  0  0  0  0  0  0  0
   -4.9678   19.5636  -34.2509 H   0  0  0  0  0  0  0  0  0  0  0  0
   -5.8921   21.0513  -33.7572 H   0  0  0  0  0  0  0  0  0  0  0  0
   -2.9234   18.9171  -33.0814 H   0  0  0  0  0  0  0  0  0  0  0  0
   -0.9501   19.7244  -31.7456 H   0  0  0  0  0  0  0  0  0  0  0  0
   -0.0622   21.8575  -30.0641 H   0  0  0  0  0  0  0  0  0  0  0  0
   -2.6800   25.8220  -28.9940 H   0  0  0  0  0  0  0  0  0  0  0  0
   -5.1614   22.4780  -31.9299 H   0  0  0  0  0  0  0  0  0  0  0  0
  1  2  1  0
  2  3  1  0
  3  4  1  0
  4  5  1  0
  5  6  2  0
  6  7  1  0
  7  8  2  0
  8  9  1  0
  9 10  2  0
 10 11  1  0
 11 12  1  0
 11 13  2  0
 10 14  1  0
 14 15  1  0
 15 16  2  0
 15 17  1  0
 14 18  1  0
 18 19  2  0
 19  5  1  0
 18  8  1  0
  1 20  1  0
  1 21  1  0
  1 22  1  0
  2 23  1  0
  2 24  1  0
  3 25  1  0
  3 26  1  0
  4 27  1  0
  4 28  1  0
  6 29  1  0
  7 30  1  0
  9 31  1  0
 12 32  1  0
 19 33  1  0
M  CHG  2  12  -1  17  -1
M  END
>  <UniqueID>  (11) 
11

>  <SMILES>  (11) 
CCCCc1ccc2cc(C([NH-])=O)n(C(=O)[O-])c2c1

>  <Energy>  (11) 
67.89972217224165

>  <Genealogy>  (11) 
CCCCc1ccc2cc(C([NH-])=O)n(C(=O)[O-])c2c1 (protonated)
CCCCc1ccc2cc(C([NH-])=O)n(C(=O)[O-])c2c1 (3D coordinates assigned)
CCCCc1ccc2cc(C([NH-])=O)n(C(=O)[O-])c2c1 (optimized conformer: 67.89972217224165 kcal/mol)

>  <smiles>  (11) 
CCCCc1ccc2cc(C(N)=O)n(C(=O)O)c2c1

>  <score_type>  (11) 
oracle

>  <origin>  (11) 
adg

>  <m_score__min__energy>  (11) 
-10.85

>  <m_primary>  (11) 
energy

$$$$
11:0
     RDKit          3D

 41 43  0  0  0  0  0  0  0  0999 V2000
   -4.0130   15.0510  -35.3130 C   0  0  0  0  0  0  0  0  0  0  0  0
   -5.0040   15.7560  -34.0110 S   0  0  0  0  0  0  0  0  0  0  0  0
   -5.3970   14.6720  -33.0450 O   0  0  0  0  0  0  0  0  0  0  0  0
   -6.2440   16.3450  -34.6220 O   0  0  0  0  0  0  0  0  0  0  0  0
   -4.1120   17.0080  -33.1820 N   0  0  0  0  0  0  0  0  0  0  0  0
   -4.9680   18.1950  -32.9770 C   0  0  0  0  0  0  0  0  0  0  0  0
   -4.1720   19.5020  -32.7610 C   0  0  0  0  0  0  0  0  0  0  0  0
   -2.7770   19.2480  -32.3700 N   0  0  0  0  0  0  0  0  0  0  0  0
   -2.0870   20.1890  -31.5220 C   0  0  0  0  0  0  0  0  0  0  0  0
   -0.7600   19.9260  -31.0940 C   0  0  0  0  0  0  0  0  0  0  0  0
   -0.0710   20.8420  -30.2810 C   0  0  0  0  0  0  0  0  0  0  0  0
   -0.7330   22.0070  -29.9050 C   0  0  0  0  0  0  0  0  0  0  0  0
   -0.2920   23.0690  -29.1500 C   0  0  0  0  0  0  0  0  0  0  0  0
   -1.3640   23.9590  -29.1040 C   0  0  0  0  0  0  0  0  0  0  0  0
   -1.3460   25.2090  -28.3160 C   0  0  0  0  0  0  0  0  0  0  0  0
   -1.2230   26.4770  -28.9540 N   0  0  0  0  0  0  0  0  0  0  0  0
   -1.4930   25.1590  -27.0660 O   0  0  0  0  0  0  0  0  0  0  0  0
   -2.4230   23.4700  -29.8110 N   0  0  0  0  0  0  0  0  0  0  0  0
   -3.6790   24.1130  -30.0770 C   0  0  0  0  0  0  0  0  0  0  0  0
   -3.7090   25.2860  -30.5340 O   0  0  0  0  0  0  0  0  0  0  0  0
   -4.8740   23.4380  -29.8580 O   0  0  0  0  0  0  0  0  0  0  0  0
   -2.0210   22.2720  -30.2920 C   0  0  0  0  0  0  0  0  0  0  0  0
   -2.7240   21.3860  -31.1170 C   0  0  0  0  0  0  0  0  0  0  0  0
   -2.0020   18.2040  -33.0570 C   0  0  0  0  0  0  0  0  0  0  0  0
   -2.9010   17.3430  -33.9400 C   0  0  0  0  0  0  0  0  0  0  0  0
   -3.1915   14.4666  -34.8730 H   0  0  0  0  0  0  0  0  0  0  0  0
   -4.6385   14.3937  -35.9349 H   0  0  0  0  0  0  0  0  0  0  0  0
   -3.5972   15.8574  -35.9349 H   0  0  0  0  0  0  0  0  0  0  0  0
   -5.6076   18.3198  -33.8632 H   0  0  0  0  0  0  0  0  0  0  0  0
   -5.5515   18.0177  -32.0616 H   0  0  0  0  0  0  0  0  0  0  0  0
   -4.1774   20.0784  -33.6979 H   0  0  0  0  0  0  0  0  0  0  0  0
   -4.6544   20.0586  -31.9440 H   0  0  0  0  0  0  0  0  0  0  0  0
   -0.2645   18.9936  -31.4024 H   0  0  0  0  0  0  0  0  0  0  0  0
    0.9598   20.6443  -29.9519 H   0  0  0  0  0  0  0  0  0  0  0  0
    0.6962   23.1902  -28.6822 H   0  0  0  0  0  0  0  0  0  0  0  0
   -0.8620   26.5540  -29.9310 H   0  0  0  0  0  0  0  0  0  0  0  0
   -3.7492   21.6153  -31.4433 H   0  0  0  0  0  0  0  0  0  0  0  0
   -1.2336   18.6807  -33.6834 H   0  0  0  0  0  0  0  0  0  0  0  0
   -1.5365   17.5583  -32.2979 H   0  0  0  0  0  0  0  0  0  0  0  0
   -3.1737   17.9007  -34.8481 H   0  0  0  0  0  0  0  0  0  0  0  0
   -2.3731   16.4238  -34.2340 H   0  0  0  0  0  0  0  0  0  0  0  0
  1  2  1  0
  2  3  2  0
  2  4  2  0
  2  5  1  0
  5  6  1  0
  6  7  1  0
  7  8  1  0
  8  9  1  0
  9 10  2  0
 10 11  1  0
 11 12  2  0
 12 13  1  0
 13 14  2  0
 14 15  1  0
 15 16  1  0
 15 17  2  0
 14 18  1  0
 18 19  1  0
 19 20  2  0
 19 21  1  0
 18 22  1  0
 22 23  2  0
  8 24  1  0
 24 25  1  0
 25  5  1  0
 23  9  1  0
 22 12  1  0
  1 26  1  0
  1 27  1  0
  1 28  1  0
  6 29  1  0
  6 30  1  0
  7 31  1  0
  7 32  1  0
 10 33  1  0
 11 34  1  0
 13 35  1  0
 16 36  1  0
 23 37  1  0
 24 38  1  0
 24 39  1  0
 25 40  1  0
 25 41  1  0
M  CHG  2  16  -1  21  -1
M  END
>  <UniqueID>  (12) 
12

>  <SMILES>  (12) 
CS(=O)(=O)N1CCN(c2ccc3cc(C([NH-])=O)n(C(=O)[O-])c3c2)CC1

>  <Energy>  (12) 
85.36972703247598

>  <Genealogy>  (12) 
CS(=O)(=O)N1CCN(c2ccc3cc(C([NH-])=O)n(C(=O)[O-])c3c2)CC1 (protonated)
CS(=O)(=O)N1CCN(c2ccc3cc(C([NH-])=O)n(C(=O)[O-])c3c2)CC1 (3D coordinates assigned)
CS(=O)(=O)N1CCN(c2ccc3cc(C([NH-])=O)n(C(=O)[O-])c3c2)CC1 (nonaromatic ring conformer: 85.36972703247598 kcal/mol)

>  <smiles>  (12) 
CS(=O)(=O)N1CCN(c2ccc3cc(C(N)=O)n(C(=O)O)c3c2)CC1

>  <score_type>  (12) 
oracle

>  <origin>  (12) 
adg

>  <m_score__min__energy>  (12) 
-10.6

>  <m_primary>  (12) 
energy

$$$$
12:0
     RDKit          3D

 35 36  0  0  0  0  0  0  0  0999 V2000
   -2.0090   20.4780  -33.5000 C   0  0  0  0  0  0  0  0  0  0  0  0
   -3.3700   21.1480  -33.3460 C   0  0  0  0  0  0  0  0  0  0  0  0
   -3.2750   22.2910  -32.4990 O   0  0  0  0  0  0  0  0  0  0  0  0
   -3.9480   22.4030  -31.2770 C   0  0  0  0  0  0  0  0  0  0  0  0
   -3.3240   22.2700  -30.1900 O   0  0  0  0  0  0  0  0  0  0  0  0
   -5.3540   22.6980  -31.2640 N   0  0  0  0  0  0  0  0  0  0  0  0
   -5.9570   23.8900  -30.9900 C   0  0  0  0  0  0  0  0  0  0  0  0
   -5.2870   25.1070  -30.4880 C   0  0  0  0  0  0  0  0  0  0  0  0
   -3.8790   25.2820  -30.6270 N   0  0  0  0  0  0  0  0  0  0  0  0
   -5.9590   25.9860  -29.8850 O   0  0  0  0  0  0  0  0  0  0  0  0
   -7.3350   23.7900  -31.1670 C   0  0  0  0  0  0  0  0  0  0  0  0
   -7.5620   22.4890  -31.5500 C   0  0  0  0  0  0  0  0  0  0  0  0
   -8.7540   21.8400  -31.8590 C   0  0  0  0  0  0  0  0  0  0  0  0
   -8.6890   20.4920  -32.2480 C   0  0  0  0  0  0  0  0  0  0  0  0
   -7.4420   19.8250  -32.3340 C   0  0  0  0  0  0  0  0  0  0  0  0
   -7.3840   18.3740  -32.7330 C   0  0  0  0  0  0  0  0  0  0  0  0
   -6.3140   18.1300  -33.8020 C   0  0  0  0  0  0  0  0  0  0  0  0
   -6.1550   19.2640  -34.6120 O   0  0  0  0  0  0  0  0  0  0  0  0
   -6.2530   20.5130  -32.0050 C   0  0  0  0  0  0  0  0  0  0  0  0
   -6.3500   21.8500  -31.6020 C   0  0  0  0  0  0  0  0  0  0  0  0
   -1.5877   20.2706  -32.5052 H   0  0  0  0  0  0  0  0  0  0  0  0
   -2.1254   19.5342  -34.0529 H   0  0  0  0  0  0  0  0  0  0  0  0
   -1.3320   21.1458  -34.0529 H   0  0  0  0  0  0  0  0  0  0  0  0
   -3.7326   21.4612  -34.3362 H   0  0  0  0  0  0  0  0  0  0  0  0
   -4.0693   20.4293  -32.8938 H   0  0  0  0  0  0  0  0  0  0  0  0
   -3.4880   26.0130  -31.2620 H   0  0  0  0  0  0  0  0  0  0  0  0
   -8.0836   24.5841  -31.0294 H   0  0  0  0  0  0  0  0  0  0  0  0
   -9.7178   22.3670  -31.8003 H   0  0  0  0  0  0  0  0  0  0  0  0
   -9.6150   19.9490  -32.4882 H   0  0  0  0  0  0  0  0  0  0  0  0
   -7.1480   17.7681  -31.8458 H   0  0  0  0  0  0  0  0  0  0  0  0
   -8.3614   18.0907  -33.1508 H   0  0  0  0  0  0  0  0  0  0  0  0
   -5.3574   17.9008  -33.3097 H   0  0  0  0  0  0  0  0  0  0  0  0
   -6.6302   17.2862  -34.4329 H   0  0  0  0  0  0  0  0  0  0  0  0
   -7.0280   19.4250  -35.0560 H   0  0  0  0  0  0  0  0  0  0  0  0
   -5.2760   20.0110  -32.0640 H   0  0  0  0  0  0  0  0  0  0  0  0
  1  2  1  0
  2  3  1  0
  3  4  1  0
  4  5  2  0
  4  6  1  0
  6  7  1  0
  7  8  1  0
  8  9  1  0
  8 10  2  0
  7 11  2  0
 11 12  1  0
 12 13  2  0
 13 14  1  0
 14 15  2  0
 15 16  1  0
 16 17  1  0
 17 18  1  0
 15 19  1  0
 19 20  2  0
 20  6  1  0
 20 12  1  0
  1 21  1  0
  1 22  1  0
  1 23  1  0
  2 24  1  0
  2 25  1  0
  9 26  1  0
 11 27  1  0
 13 28  1  0
 14 29  1  0
 16 30  1  0
 16 31  1  0
 17 32  1  0
 17 33  1  0
 18 34  1  0
 19 35  1  0
M  CHG  1   9  -1
M  END
>  <UniqueID>  (13) 
13

>  <SMILES>  (13) 
CCOC(=O)n1c(C([NH-])=O)cc2ccc(CCO)cc21

>  <Energy>  (13) 
67.55108421256259

>  <Genealogy>  (13) 
CCOC(=O)n1c(C([NH-])=O)cc2ccc(CCO)cc21 (protonated)
CCOC(=O)n1c(C([NH-])=O)cc2ccc(CCO)cc21 (3D coordinates assigned)
CCOC(=O)n1c(C([NH-])=O)cc2ccc(CCO)cc21 (optimized conformer: 67.55108421256259 kcal/mol)

>  <smiles>  (13) 
CCOC(=O)n1c(C(N)=O)cc2ccc(CCO)cc21

>  <score_type>  (13) 
oracle

>  <origin>  (13) 
adg

>  <m_score__min__energy>  (13) 
-9.8300000000000001

>  <m_primary>  (13) 
energy

$$$$
13:0
     RDKit          3D

 41 42  0  0  0  0  0  0  0  0999 V2000
   -5.0020   23.9500  -28.9320 C   0  0  0  0  0  0  0  0  0  0  0  0
   -3.9460   24.0990  -29.9830 C   0  0  0  0  0  0  0  0  0  0  0  0
   -3.8340   25.1990  -30.5870 O   0  0  0  0  0  0  0  0  0  0  0  0
   -3.0470   23.0200  -30.2880 N   0  0  0  0  0  0  0  0  0  0  0  0
   -1.7050   22.9570  -30.0640 C   0  0  0  0  0  0  0  0  0  0  0  0
   -0.9110   23.9280  -29.2850 C   0  0  0  0  0  0  0  0  0  0  0  0
   -1.2150   25.3230  -29.3120 N   0  0  0  0  0  0  0  0  0  0  0  0
    0.0180   23.5140  -28.5410 O   0  0  0  0  0  0  0  0  0  0  0  0
   -1.1660   21.8020  -30.6260 C   0  0  0  0  0  0  0  0  0  0  0  0
   -2.2340   21.1430  -31.1940 C   0  0  0  0  0  0  0  0  0  0  0  0
   -2.2740   19.9460  -31.9000 C   0  0  0  0  0  0  0  0  0  0  0  0
   -3.5140   19.5210  -32.4060 C   0  0  0  0  0  0  0  0  0  0  0  0
   -4.6860   20.2950  -32.2040 C   0  0  0  0  0  0  0  0  0  0  0  0
   -6.0100   19.8290  -32.7840 C   0  0  1  0  0  0  0  0  0  0  0  0
   -7.0530   20.9600  -32.7230 C   0  0  0  0  0  0  0  0  0  0  0  0
   -8.7460   20.3330  -32.0070 Br  0  0  0  0  0  0  0  0  0  0  0  0
   -5.8220   19.3020  -34.2180 C   0  0  0  0  0  0  0  0  0  0  0  0
   -6.5010   18.0760  -34.3600 O   0  0  0  0  0  0  0  0  0  0  0  0
   -5.5040   16.8340  -33.7820 S   0  0  0  0  0  0  0  0  0  0  0  0
   -6.2500   15.2740  -34.1940 C   0  0  0  0  0  0  0  0  0  0  0  0
   -5.3670   16.9280  -32.2870 O   0  0  0  0  0  0  0  0  0  0  0  0
   -4.1450   16.9090  -34.4230 O   0  0  0  0  0  0  0  0  0  0  0  0
   -4.6010   21.5100  -31.4800 C   0  0  0  0  0  0  0  0  0  0  0  0
   -3.3560   21.8990  -30.9760 C   0  0  0  0  0  0  0  0  0  0  0  0
   -4.5398   24.0152  -27.9360 H   0  0  0  0  0  0  0  0  0  0  0  0
   -5.7465   24.7520  -29.0440 H   0  0  0  0  0  0  0  0  0  0  0  0
   -5.4955   22.9733  -29.0440 H   0  0  0  0  0  0  0  0  0  0  0  0
   -2.0770   25.6780  -29.7810 H   0  0  0  0  0  0  0  0  0  0  0  0
   -0.6160   26.0000  -28.7900 H   0  0  0  0  0  0  0  0  0  0  0  0
   -0.1129   21.4842  -30.6179 H   0  0  0  0  0  0  0  0  0  0  0  0
   -1.3630   19.3500  -32.0576 H   0  0  0  0  0  0  0  0  0  0  0  0
   -3.5770   18.5762  -32.9659 H   0  0  0  0  0  0  0  0  0  0  0  0
   -6.3879   18.9945  -32.1751 H   0  0  0  0  0  0  0  0  0  0  0  0
   -6.6693   21.7651  -32.0791 H   0  0  0  0  0  0  0  0  0  0  0  0
   -7.2259   21.3243  -33.7464 H   0  0  0  0  0  0  0  0  0  0  0  0
   -6.2292   20.0318  -34.9333 H   0  0  0  0  0  0  0  0  0  0  0  0
   -4.7504   19.1530  -34.4166 H   0  0  0  0  0  0  0  0  0  0  0  0
   -6.5076   14.7354  -33.2701 H   0  0  0  0  0  0  0  0  0  0  0  0
   -7.1623   15.4481  -34.7834 H   0  0  0  0  0  0  0  0  0  0  0  0
   -5.5418   14.6732  -34.7834 H   0  0  0  0  0  0  0  0  0  0  0  0
   -5.4933   22.1326  -31.3182 H   0  0  0  0  0  0  0  0  0  0  0  0
  1  2  1  0
  2  3  2  0
  2  4  1  0
  4  5  1  0
  5  6  1  0
  6  7  1  0
  6  8  2  0
  5  9  2  0
  9 10  1  0
 10 11  2  0
 11 12  1  0
 12 13  2  0
 13 14  1  0
 14 15  1  0
 15 16  1  0
 14 17  1  0
 17 18  1  0
 18 19  1  0
 19 20  1  0
 19 21  2  0
 19 22  2  0
 13 23  1  0
 23 24  2  0
 24  4  1  0
 24 10  1  0
  1 25  1  0
  1 26  1  0
  1 27  1  0
  7 28  1  0
  7 29  1  0
  9 30  1  0
 11 31  1  0
 12 32  1  0
 14 33  1  1
 15 34  1  0
 15 35  1  0
 17 36  1  0
 17 37  1  0
 20 38  1  0
 20 39  1  0
 20 40  1  0
 23 41  1  0
M  END
>  <UniqueID>  (14) 
14

>  <SMILES>  (14) 
CC(=O)n1c(C(N)=O)cc2ccc([C@@H](CBr)COS(C)(=O)=O)cc21

>  <Energy>  (14) 
74.5401649945604

>  <Genealogy>  (14) 
CC(=O)n1c(C(N)=O)cc2ccc([C@@H](CBr)COS(C)(=O)=O)cc21 (chirality)
CC(=O)n1c(C(N)=O)cc2ccc([C@@H](CBr)COS(C)(=O)=O)cc21 (3D coordinates assigned)
CC(=O)n1c(C(N)=O)cc2ccc([C@@H](CBr)COS(C)(=O)=O)cc21 (optimized conformer: 74.5401649945604 kcal/mol)

>  <smiles>  (14) 
CC(=O)n1c(C(N)=O)cc2ccc(C(CBr)COS(C)(=O)=O)cc21

>  <score_type>  (14) 
oracle

>  <origin>  (14) 
adg

>  <m_score__min__energy>  (14) 
-8.5600000000000005

>  <m_primary>  (14) 
energy

$$$$
14:0
     RDKit          3D

 47 48  0  0  0  0  0  0  0  0999 V2000
   -6.8840   25.2630  -29.7200 C   0  0  0  0  0  0  0  0  0  0  0  0
   -6.4560   23.8880  -30.2690 C   0  0  0  0  0  0  0  0  0  0  0  0
   -7.4380   22.7920  -29.8130 C   0  0  0  0  0  0  0  0  0  0  0  0
   -6.4560   23.9430  -31.8040 C   0  0  0  0  0  0  0  0  0  0  0  0
   -5.1180   23.5760  -29.8570 O   0  0  0  0  0  0  0  0  0  0  0  0
   -3.9360   24.0790  -30.4200 C   0  0  0  0  0  0  0  0  0  0  0  0
   -3.8620   25.2750  -30.8120 O   0  0  0  0  0  0  0  0  0  0  0  0
   -2.7890   23.2230  -30.5320 N   0  0  0  0  0  0  0  0  0  0  0  0
   -1.5810   23.3550  -29.9130 C   0  0  0  0  0  0  0  0  0  0  0  0
   -1.1400   24.5080  -29.1020 C   0  0  0  0  0  0  0  0  0  0  0  0
   -1.9660   25.6600  -28.9560 N   0  0  0  0  0  0  0  0  0  0  0  0
    0.0030   24.4970  -28.5710 O   0  0  0  0  0  0  0  0  0  0  0  0
   -0.7560   22.2730  -30.2190 C   0  0  0  0  0  0  0  0  0  0  0  0
   -1.4960   21.4770  -31.0610 C   0  0  0  0  0  0  0  0  0  0  0  0
   -1.1660   20.2690  -31.6700 C   0  0  0  0  0  0  0  0  0  0  0  0
   -2.1370   19.6500  -32.4740 C   0  0  0  0  0  0  0  0  0  0  0  0
   -3.4140   20.2390  -32.6470 C   0  0  0  0  0  0  0  0  0  0  0  0
   -4.4580   19.5430  -33.4830 C   0  0  0  0  0  0  0  0  0  0  0  0
   -5.2210   18.4700  -32.6860 C   0  0  0  0  0  0  0  0  0  0  0  0
   -6.3290   19.0400  -31.7850 C   0  0  0  0  0  0  0  0  0  0  0  0
   -7.2420   19.9700  -32.5320 C   0  0  0  0  0  0  0  0  0  0  0  0
   -8.2810   19.4580  -33.3640 N   0  0  0  0  0  0  0  0  0  0  0  0
   -7.0810   21.2170  -32.4330 O   0  0  0  0  0  0  0  0  0  0  0  0
   -3.7120   21.4670  -32.0150 C   0  0  0  0  0  0  0  0  0  0  0  0
   -2.7190   22.0710  -31.2350 C   0  0  0  0  0  0  0  0  0  0  0  0
   -6.8760   25.2374  -28.6203 H   0  0  0  0  0  0  0  0  0  0  0  0
   -6.1832   26.0334  -30.0739 H   0  0  0  0  0  0  0  0  0  0  0  0
   -7.8983   25.4996  -30.0739 H   0  0  0  0  0  0  0  0  0  0  0  0
   -7.4669   22.7598  -28.7139 H   0  0  0  0  0  0  0  0  0  0  0  0
   -8.4431   23.0162  -30.1998 H   0  0  0  0  0  0  0  0  0  0  0  0
   -7.1052   21.8175  -30.1998 H   0  0  0  0  0  0  0  0  0  0  0  0
   -5.4189   23.9561  -32.1704 H   0  0  0  0  0  0  0  0  0  0  0  0
   -6.9745   23.0586  -32.2026 H   0  0  0  0  0  0  0  0  0  0  0  0
   -6.9745   24.8537  -32.1383 H   0  0  0  0  0  0  0  0  0  0  0  0
   -2.9400   25.6750  -29.3320 H   0  0  0  0  0  0  0  0  0  0  0  0
    0.2691   22.0944  -29.8624 H   0  0  0  0  0  0  0  0  0  0  0  0
   -0.1752   19.8135  -31.5258 H   0  0  0  0  0  0  0  0  0  0  0  0
   -1.9038   18.6985  -32.9743 H   0  0  0  0  0  0  0  0  0  0  0  0
   -5.1769   20.2917  -33.8473 H   0  0  0  0  0  0  0  0  0  0  0  0
   -3.9440   19.0424  -34.3168 H   0  0  0  0  0  0  0  0  0  0  0  0
   -5.6795   17.7687  -33.3987 H   0  0  0  0  0  0  0  0  0  0  0  0
   -4.4903   17.9800  -32.0257 H   0  0  0  0  0  0  0  0  0  0  0  0
   -6.9234   18.2062  -31.3832 H   0  0  0  0  0  0  0  0  0  0  0  0
   -5.8484   19.6127  -30.9781 H   0  0  0  0  0  0  0  0  0  0  0  0
   -8.9150   20.1120  -33.8750 H   0  0  0  0  0  0  0  0  0  0  0  0
   -8.4130   18.4290  -33.4870 H   0  0  0  0  0  0  0  0  0  0  0  0
   -4.6997   21.9367  -32.1330 H   0  0  0  0  0  0  0  0  0  0  0  0
  1  2  1  0
  2  3  1  0
  2  4  1  0
  2  5  1  0
  5  6  1  0
  6  7  2  0
  6  8  1  0
  8  9  1  0
  9 10  1  0
 10 11  1  0
 10 12  2  0
  9 13  2  0
 13 14  1  0
 14 15  2  0
 15 16  1  0
 16 17  2  0
 17 18  1  0
 18 19  1  0
 19 20  1  0
 20 21  1  0
 21 22  1  0
 21 23  2  0
 17 24  1  0
 24 25  2  0
 25  8  1  0
 25 14  1  0
  1 26  1  0
  1 27  1  0
  1 28  1  0
  3 29  1  0
  3 30  1  0
  3 31  1  0
  4 32  1  0
  4 33  1  0
  4 34  1  0
 11 35  1  0
 13 36  1  0
 15 37  1  0
 16 38  1  0
 18 39  1  0
 18 40  1  0
 19 41  1  0
 19 42  1  0
 20 43  1  0
 20 44  1  0
 22 45  1  0
 22 46  1  0
 24 47  1  0
M  CHG  1  11  -1
M  END
>  <UniqueID>  (15) 
15

>  <SMILES>  (15) 
CC(C)(C)OC(=O)n1c(C([NH-])=O)cc2ccc(CCCC(N)=O)cc21

>  <Energy>  (15) 
73.43116862924698

>  <Genealogy>  (15) 
CC(C)(C)OC(=O)n1c(C([NH-])=O)cc2ccc(CCCC(N)=O)cc21 (protonated)
CC(C)(C)OC(=O)n1c(C([NH-])=O)cc2ccc(CCCC(N)=O)cc21 (3D coordinates assigned)
CC(C)(C)OC(=O)n1c(C([NH-])=O)cc2ccc(CCCC(N)=O)cc21 (optimized conformer: 73.43116862924698 kcal/mol)

>  <smiles>  (15) 
CC(C)(C)OC(=O)n1c(C(N)=O)cc2ccc(CCCC(N)=O)cc21

>  <score_type>  (15) 
oracle

>  <origin>  (15) 
adg

>  <m_score__min__energy>  (15) 
-10.84

>  <m_primary>  (15) 
energy

$$$$
15:0
     RDKit          3D

 36 38  0  0  0  0  0  0  0  0999 V2000
   -9.1400   18.5640  -31.8960 C   0  0  0  0  0  0  0  0  0  0  0  0
   -8.2110   19.2770  -32.7880 N   0  0  0  0  0  0  0  0  0  0  0  0
   -7.0240   18.4630  -33.0940 C   0  0  0  0  0  0  0  0  0  0  0  0
   -6.0910   19.3940  -32.3300 C   0  0  0  0  0  0  0  0  0  0  0  0
   -4.9760   20.0960  -33.1460 C   0  0  0  0  0  0  0  0  0  0  0  0
   -3.8240   20.6730  -32.3500 C   0  0  0  0  0  0  0  0  0  0  0  0
   -2.5850   19.9850  -32.2860 C   0  0  0  0  0  0  0  0  0  0  0  0
   -1.5090   20.5110  -31.5520 C   0  0  0  0  0  0  0  0  0  0  0  0
   -1.6910   21.7330  -30.9120 C   0  0  0  0  0  0  0  0  0  0  0  0
   -0.8270   22.4550  -30.1230 C   0  0  0  0  0  0  0  0  0  0  0  0
   -1.5330   23.5970  -29.7500 C   0  0  0  0  0  0  0  0  0  0  0  0
   -0.9410   24.6970  -28.9620 C   0  0  0  0  0  0  0  0  0  0  0  0
   -1.5570   25.9840  -28.9670 N   0  0  0  0  0  0  0  0  0  0  0  0
    0.0820   24.5070  -28.2530 O   0  0  0  0  0  0  0  0  0  0  0  0
   -2.7870   23.5800  -30.2850 N   0  0  0  0  0  0  0  0  0  0  0  0
   -3.8430   24.5310  -30.0770 C   0  0  0  0  0  0  0  0  0  0  0  0
   -3.8740   25.6020  -30.7380 O   0  0  0  0  0  0  0  0  0  0  0  0
   -4.8580   24.2680  -29.1650 O   0  0  0  0  0  0  0  0  0  0  0  0
   -2.8680   22.4320  -30.9950 C   0  0  0  0  0  0  0  0  0  0  0  0
   -3.9600   21.9240  -31.7060 C   0  0  0  0  0  0  0  0  0  0  0  0
   -7.3480   20.2030  -32.0380 C   0  0  0  0  0  0  0  0  0  0  0  0
   -8.8729   18.7690  -30.8488 H   0  0  0  0  0  0  0  0  0  0  0  0
  -10.1675   18.9076  -32.0863 H   0  0  0  0  0  0  0  0  0  0  0  0
   -9.0738   17.4826  -32.0863 H   0  0  0  0  0  0  0  0  0  0  0  0
   -7.0696   17.4477  -32.6731 H   0  0  0  0  0  0  0  0  0  0  0  0
   -6.7971   18.2308  -34.1450 H   0  0  0  0  0  0  0  0  0  0  0  0
   -5.4121   19.0414  -31.5396 H   0  0  0  0  0  0  0  0  0  0  0  0
   -4.5613   19.3592  -33.8497 H   0  0  0  0  0  0  0  0  0  0  0  0
   -5.4622   20.9584  -33.6254 H   0  0  0  0  0  0  0  0  0  0  0  0
   -2.4656   19.0291  -32.8170 H   0  0  0  0  0  0  0  0  0  0  0  0
   -0.5517   19.9732  -31.4852 H   0  0  0  0  0  0  0  0  0  0  0  0
    0.2032   22.1878  -29.8451 H   0  0  0  0  0  0  0  0  0  0  0  0
   -2.5970   26.0800  -28.9670 H   0  0  0  0  0  0  0  0  0  0  0  0
   -4.9041   22.4857  -31.7628 H   0  0  0  0  0  0  0  0  0  0  0  0
   -7.5931   20.2588  -30.9671 H   0  0  0  0  0  0  0  0  0  0  0  0
   -7.3633   21.2713  -32.2999 H   0  0  0  0  0  0  0  0  0  0  0  0
  1  2  1  0
  2  3  1  0
  3  4  1  0
  4  5  1  0
  5  6  1  0
  6  7  2  0
  7  8  1  0
  8  9  2  0
  9 10  1  0
 10 11  2  0
 11 12  1  0
 12 13  1  0
 12 14  2  0
 11 15  1  0
 15 16  1  0
 16 17  2  0
 16 18  1  0
 15 19  1  0
 19 20  2  0
  4 21  1  0
 21  2  1  0
 20  6  1  0
 19  9  1  0
  1 22  1  0
  1 23  1  0
  1 24  1  0
  3 25  1  0
  3 26  1  0
  4 27  1  0
  5 28  1  0
  5 29  1  0
  7 30  1  0
  8 31  1  0
 10 32  1  0
 13 33  1  0
 20 34  1  0
 21 35  1  0
 21 36  1  0
M  CHG  2  13  -1  18  -1
M  END
>  <UniqueID>  (16) 
16

>  <SMILES>  (16) 
CN1CC(Cc2ccc3cc(C([NH-])=O)n(C(=O)[O-])c3c2)C1

>  <Energy>  (16) 
148.16312482355497

>  <Genealogy>  (16) 
CN1CC(Cc2ccc3cc(C([NH-])=O)n(C(=O)[O-])c3c2)C1 (protonated)
CN1CC(Cc2ccc3cc(C([NH-])=O)n(C(=O)[O-])c3c2)C1 (3D coordinates assigned)
CN1CC(Cc2ccc3cc(C([NH-])=O)n(C(=O)[O-])c3c2)C1 (nonaromatic ring conformer: 148.16312482355497 kcal/mol)

>  <smiles>  (16) 
CN1CC(Cc2ccc3cc(C(N)=O)n(C(=O)O)c3c2)C1

>  <score_type>  (16) 
oracle

>  <origin>  (16) 
adg

>  <m_score__min__energy>  (16) 
-11.58

>  <m_primary>  (16) 
energy

$$$$
16:0
     RDKit          3D

 35 37  0  0  0  0  0  0  0  0999 V2000
   -5.7820   25.1240  -28.9590 N   0  0  0  0  0  0  0  0  0  0  0  0
   -5.7200   24.8660  -30.3620 C   0  0  0  0  0  0  0  0  0  0  0  0
   -5.2570   25.7490  -31.1320 O   0  0  0  0  0  0  0  0  0  0  0  0
   -6.1240   23.5590  -30.9180 C   0  0  0  0  0  0  0  0  0  0  0  0
   -7.4410   23.2340  -31.2270 C   0  0  0  0  0  0  0  0  0  0  0  0
   -7.3860   21.9700  -31.7670 C   0  0  0  0  0  0  0  0  0  0  0  0
   -8.4130   21.1510  -32.2230 C   0  0  0  0  0  0  0  0  0  0  0  0
   -8.0760   19.8690  -32.6880 C   0  0  0  0  0  0  0  0  0  0  0  0
   -6.7270   19.4320  -32.6970 C   0  0  0  0  0  0  0  0  0  0  0  0
   -6.3860   18.0300  -33.1370 C   0  0  0  0  0  0  0  0  0  0  0  0
   -6.1050   18.0330  -34.4900 F   0  0  0  0  0  0  0  0  0  0  0  0
   -5.2850   17.5550  -32.4470 F   0  0  0  0  0  0  0  0  0  0  0  0
   -7.4470   17.1730  -32.8990 F   0  0  0  0  0  0  0  0  0  0  0  0
   -5.7140   20.2870  -32.2000 C   0  0  0  0  0  0  0  0  0  0  0  0
   -6.0750   21.5670  -31.7640 C   0  0  0  0  0  0  0  0  0  0  0  0
   -5.2850   22.5340  -31.2410 N   0  0  0  0  0  0  0  0  0  0  0  0
   -3.8780   22.4420  -30.9600 C   0  0  0  0  0  0  0  0  0  0  0  0
   -3.1130   23.4070  -31.2320 O   0  0  0  0  0  0  0  0  0  0  0  0
   -3.3600   21.2770  -30.3880 O   0  0  0  0  0  0  0  0  0  0  0  0
   -3.3000   21.0710  -28.9810 C   0  0  0  0  0  0  0  0  0  0  0  0
   -3.2620   22.3960  -28.2940 C   0  0  0  0  0  0  0  0  0  0  0  0
   -4.3120   23.0150  -27.8110 O   0  0  0  0  0  0  0  0  0  0  0  0
   -3.8660   24.1510  -27.3250 C   0  0  0  0  0  0  0  0  0  0  0  0
   -4.6000   25.0110  -26.7740 O   0  0  0  0  0  0  0  0  0  0  0  0
   -2.5680   24.2910  -27.4810 O   0  0  0  0  0  0  0  0  0  0  0  0
   -2.1590   23.2040  -28.0900 C   0  0  0  0  0  0  0  0  0  0  0  0
   -0.3490   22.8530  -28.5860 Br  0  0  0  0  0  0  0  0  0  0  0  0
   -6.0120   24.3650  -28.2800 H   0  0  0  0  0  0  0  0  0  0  0  0
   -5.5180   26.0640  -28.5880 H   0  0  0  0  0  0  0  0  0  0  0  0
   -8.3355   23.8553  -31.0725 H   0  0  0  0  0  0  0  0  0  0  0  0
   -9.4574   21.4964  -32.2197 H   0  0  0  0  0  0  0  0  0  0  0  0
   -8.8678   19.1963  -33.0493 H   0  0  0  0  0  0  0  0  0  0  0  0
   -4.6668   19.9529  -32.1575 H   0  0  0  0  0  0  0  0  0  0  0  0
   -4.1881   20.5112  -28.6526 H   0  0  0  0  0  0  0  0  0  0  0  0
   -2.3961   20.4970  -28.7289 H   0  0  0  0  0  0  0  0  0  0  0  0
  1  2  1  0
  2  3  2  0
  2  4  1  0
  4  5  2  0
  5  6  1  0
  6  7  2  0
  7  8  1  0
  8  9  2  0
  9 10  1  0
 10 11  1  0
 10 12  1  0
 10 13  1  0
  9 14  1  0
 14 15  2  0
 15 16  1  0
 16 17  1  0
 17 18  2  0
 17 19  1  0
 19 20  1  0
 20 21  1  0
 21 22  1  0
 22 23  1  0
 23 24  2  0
 23 25  1  0
 25 26  1  0
 26 27  1  0
 16  4  1  0
 26 21  2  0
 15  6  1  0
  1 28  1  0
  1 29  1  0
  5 30  1  0
  7 31  1  0
  8 32  1  0
 14 33  1  0
 20 34  1  0
 20 35  1  0
M  END
>  <UniqueID>  (17) 
17

>  <SMILES>  (17) 
NC(=O)c1cc2ccc(C(F)(F)F)cc2n1C(=O)OCc1oc(=O)oc1Br

>  <Energy>  (17) 
107.07887854733264

>  <Genealogy>  (17) 
NC(=O)c1cc2ccc(C(F)(F)F)cc2n1C(=O)OCc1oc(=O)oc1Br (3D coordinates assigned)
NC(=O)c1cc2ccc(C(F)(F)F)cc2n1C(=O)OCc1oc(=O)oc1Br (optimized conformer: 107.07887854733264 kcal/mol)

>  <smiles>  (17) 
NC(=O)c1cc2ccc(C(F)(F)F)cc2n1C(=O)OCc1oc(=O)oc1Br

>  <score_type>  (17) 
oracle

>  <origin>  (17) 
adg

>  <m_score__min__energy>  (17) 
-8.5099999999999998

>  <m_primary>  (17) 
energy

$$$$
17:0
     RDKit          3D

 44 46  0  0  0  0  0  0  0  0999 V2000
   -1.2920   21.2690  -33.4710 C   0  0  0  0  0  0  0  0  0  0  0  0
   -2.6600   20.8400  -32.9060 C   0  0  0  0  0  0  0  0  0  0  0  0
   -3.2640   19.7710  -33.8300 C   0  0  0  0  0  0  0  0  0  0  0  0
   -2.5030   20.2480  -31.4940 C   0  0  0  0  0  0  0  0  0  0  0  0
   -3.5730   21.9480  -32.8900 O   0  0  0  0  0  0  0  0  0  0  0  0
   -3.9530   22.6970  -31.7660 C   0  0  0  0  0  0  0  0  0  0  0  0
   -3.0870   23.1860  -30.9920 O   0  0  0  0  0  0  0  0  0  0  0  0
   -5.3470   22.8870  -31.4840 N   0  0  0  0  0  0  0  0  0  0  0  0
   -5.9410   23.9740  -30.9150 C   0  0  0  0  0  0  0  0  0  0  0  0
   -5.2430   25.1230  -30.3010 C   0  0  0  0  0  0  0  0  0  0  0  0
   -4.0200   25.6120  -30.8440 N   0  0  0  0  0  0  0  0  0  0  0  0
   -5.7070   25.6480  -29.2540 O   0  0  0  0  0  0  0  0  0  0  0  0
   -7.3270   23.8290  -30.9110 C   0  0  0  0  0  0  0  0  0  0  0  0
   -7.5670   22.6060  -31.4940 C   0  0  0  0  0  0  0  0  0  0  0  0
   -8.7720   21.9610  -31.7530 C   0  0  0  0  0  0  0  0  0  0  0  0
   -8.7250   20.7120  -32.3950 C   0  0  0  0  0  0  0  0  0  0  0  0
   -7.4840   20.1370  -32.7750 C   0  0  0  0  0  0  0  0  0  0  0  0
   -7.4450   18.8450  -33.4180 N   0  0  0  0  0  0  0  0  0  0  0  0
   -6.5170   17.9330  -32.7310 C   0  0  0  0  0  0  0  0  0  0  0  0
   -5.4660   17.4070  -33.6620 C   0  0  0  0  0  0  0  0  0  0  0  0
   -5.4010   17.6940  -34.9740 N   0  0  0  0  0  0  0  0  0  0  0  0
   -4.3050   17.0840  -35.3950 N   0  0  0  0  0  0  0  0  0  0  0  0
   -3.7240   16.4590  -34.3840 N   0  0  0  0  0  0  0  0  0  0  0  0
   -4.4250   16.6460  -33.2780 N   0  0  0  0  0  0  0  0  0  0  0  0
   -6.2810   20.8250  -32.4900 C   0  0  0  0  0  0  0  0  0  0  0  0
   -6.3560   22.0580  -31.8320 C   0  0  0  0  0  0  0  0  0  0  0  0
   -0.6037   21.4849  -32.6406 H   0  0  0  0  0  0  0  0  0  0  0  0
   -0.8792   20.4572  -34.0879 H   0  0  0  0  0  0  0  0  0  0  0  0
   -1.4167   22.1712  -34.0879 H   0  0  0  0  0  0  0  0  0  0  0  0
   -3.7149   18.9730  -33.2218 H   0  0  0  0  0  0  0  0  0  0  0  0
   -4.0367   20.2292  -34.4648 H   0  0  0  0  0  0  0  0  0  0  0  0
   -2.4728   19.3456  -34.4648 H   0  0  0  0  0  0  0  0  0  0  0  0
   -2.7095   21.0266  -30.7449 H   0  0  0  0  0  0  0  0  0  0  0  0
   -3.2118   19.4169  -31.3640 H   0  0  0  0  0  0  0  0  0  0  0  0
   -1.4755   19.8774  -31.3640 H   0  0  0  0  0  0  0  0  0  0  0  0
   -3.1000   25.2770  -30.4840 H   0  0  0  0  0  0  0  0  0  0  0  0
   -8.0710   24.5409  -30.5240 H   0  0  0  0  0  0  0  0  0  0  0  0
   -9.7316   22.4146  -31.4642 H   0  0  0  0  0  0  0  0  0  0  0  0
   -9.6608   20.1735  -32.6056 H   0  0  0  0  0  0  0  0  0  0  0  0
   -7.1270   18.9660  -34.4080 H   0  0  0  0  0  0  0  0  0  0  0  0
   -8.4030   18.4220  -33.4530 H   0  0  0  0  0  0  0  0  0  0  0  0
   -6.0264   18.4758  -31.9096 H   0  0  0  0  0  0  0  0  0  0  0  0
   -7.0954   17.0789  -32.3489 H   0  0  0  0  0  0  0  0  0  0  0  0
   -5.3084   20.4003  -32.7791 H   0  0  0  0  0  0  0  0  0  0  0  0
  1  2  1  0
  2  3  1  0
  2  4  1  0
  2  5  1  0
  5  6  1  0
  6  7  2  0
  6  8  1  0
  8  9  1  0
  9 10  1  0
 10 11  1  0
 10 12  2  0
  9 13  2  0
 13 14  1  0
 14 15  2  0
 15 16  1  0
 16 17  2  0
 17 18  1  0
 18 19  1  0
 19 20  1  0
 20 21  1  0
 21 22  2  0
 22 23  1  0
 23 24  1  0
 17 25  1  0
 25 26  2  0
 26  8  1  0
 26 14  1  0
 24 20  2  0
  1 27  1  0
  1 28  1  0
  1 29  1  0
  3 30  1  0
  3 31  1  0
  3 32  1  0
  4 33  1  0
  4 34  1  0
  4 35  1  0
 11 36  1  0
 13 37  1  0
 15 38  1  0
 16 39  1  0
 18 40  1  0
 18 41  1  0
 19 42  1  0
 19 43  1  0
 25 44  1  0
M  CHG  3  11  -1  18   1  23  -1
M  END
>  <UniqueID>  (18) 
18

>  <SMILES>  (18) 
CC(C)(C)OC(=O)n1c(C([NH-])=O)cc2ccc([NH2+]Cc3nn[n-]n3)cc21

>  <Energy>  (18) 
118.16507942172849

>  <Genealogy>  (18) 
CC(C)(C)OC(=O)n1c(C([NH-])=O)cc2ccc([NH2+]Cc3nn[n-]n3)cc21 (protonated)
CC(C)(C)OC(=O)n1c(C([NH-])=O)cc2ccc([NH2+]Cc3nn[n-]n3)cc21 (3D coordinates assigned)
CC(C)(C)OC(=O)n1c(C([NH-])=O)cc2ccc([NH2+]Cc3nn[n-]n3)cc21 (optimized conformer: 118.16507942172849 kcal/mol)

>  <smiles>  (18) 
CC(C)(C)OC(=O)n1c(C(N)=O)cc2ccc(NCc3nn[nH]n3)cc21

>  <score_type>  (18) 
oracle

>  <origin>  (18) 
adg

>  <m_score__min__energy>  (18) 
-10.02

>  <m_primary>  (18) 
energy

$$$$
18:0
     RDKit          3D

 44 45  0  0  0  0  0  0  0  0999 V2000
   -1.5840   26.4600  -25.1700 C   0  0  0  0  0  0  0  0  0  0  0  0
   -1.4440   25.1310  -25.8920 C   0  0  0  0  0  0  0  0  0  0  0  0
   -0.1560   25.0490  -26.4950 O   0  0  0  0  0  0  0  0  0  0  0  0
    0.0310   24.6660  -27.8280 C   0  0  0  0  0  0  0  0  0  0  0  0
    1.1710   24.3070  -28.2260 O   0  0  0  0  0  0  0  0  0  0  0  0
   -1.1240   24.6940  -28.7480 C   0  0  0  0  0  0  0  0  0  0  0  0
   -1.6930   25.7960  -28.9620 O   0  0  0  0  0  0  0  0  0  0  0  0
   -1.6310   23.5270  -29.4110 N   0  0  0  0  0  0  0  0  0  0  0  0
   -0.8610   22.5940  -30.2250 C   0  0  0  0  0  0  0  0  0  0  0  0
   -1.7750   21.9120  -31.2350 C   0  0  0  0  0  0  0  0  0  0  0  0
   -3.1330   22.2180  -30.9350 O   0  0  0  0  0  0  0  0  0  0  0  0
   -4.1330   22.2640  -31.9100 C   0  0  0  0  0  0  0  0  0  0  0  0
   -3.8640   21.9720  -33.1080 O   0  0  0  0  0  0  0  0  0  0  0  0
   -5.4700   22.6400  -31.5450 N   0  0  0  0  0  0  0  0  0  0  0  0
   -5.8990   23.8570  -31.1020 C   0  0  0  0  0  0  0  0  0  0  0  0
   -5.0370   25.0010  -30.7460 C   0  0  0  0  0  0  0  0  0  0  0  0
   -3.6270   24.8420  -30.5870 N   0  0  0  0  0  0  0  0  0  0  0  0
   -5.5600   26.1240  -30.5230 O   0  0  0  0  0  0  0  0  0  0  0  0
   -7.2840   23.8700  -30.9650 C   0  0  0  0  0  0  0  0  0  0  0  0
   -7.6980   22.6080  -31.3250 C   0  0  0  0  0  0  0  0  0  0  0  0
   -8.9810   22.0720  -31.3870 C   0  0  0  0  0  0  0  0  0  0  0  0
   -9.1200   20.7460  -31.8280 C   0  0  0  0  0  0  0  0  0  0  0  0
   -7.9830   19.9850  -32.1930 C   0  0  0  0  0  0  0  0  0  0  0  0
   -8.1490   18.5850  -32.7050 C   0  0  0  0  0  0  0  0  0  0  0  0
   -9.1150   17.9330  -31.9620 F   0  0  0  0  0  0  0  0  0  0  0  0
   -6.6980   20.5680  -32.1380 C   0  0  0  0  0  0  0  0  0  0  0  0
   -6.5850   21.8840  -31.6720 C   0  0  0  0  0  0  0  0  0  0  0  0
   -1.5662   26.2906  -24.0833 H   0  0  0  0  0  0  0  0  0  0  0  0
   -0.7504   27.1200  -25.4519 H   0  0  0  0  0  0  0  0  0  0  0  0
   -2.5368   26.9319  -25.4519 H   0  0  0  0  0  0  0  0  0  0  0  0
   -1.5642   24.3084  -25.1716 H   0  0  0  0  0  0  0  0  0  0  0  0
   -2.2176   25.0544  -26.6702 H   0  0  0  0  0  0  0  0  0  0  0  0
   -0.0711   23.1420  -30.7595 H   0  0  0  0  0  0  0  0  0  0  0  0
   -0.4086   21.8321  -29.5732 H   0  0  0  0  0  0  0  0  0  0  0  0
   -1.5341   22.2703  -32.2467 H   0  0  0  0  0  0  0  0  0  0  0  0
   -1.6266   20.8232  -31.1842 H   0  0  0  0  0  0  0  0  0  0  0  0
   -3.0270   25.6690  -30.3720 H   0  0  0  0  0  0  0  0  0  0  0  0
   -3.1860   23.8960  -30.6000 H   0  0  0  0  0  0  0  0  0  0  0  0
   -7.9139   24.7106  -30.6383 H   0  0  0  0  0  0  0  0  0  0  0  0
   -9.8592   22.6687  -31.0994 H   0  0  0  0  0  0  0  0  0  0  0  0
  -10.1211   20.2945  -31.8905 H   0  0  0  0  0  0  0  0  0  0  0  0
   -8.4569   18.6150  -33.7606 H   0  0  0  0  0  0  0  0  0  0  0  0
   -7.1937   18.0470  -32.6162 H   0  0  0  0  0  0  0  0  0  0  0  0
   -5.8084   20.0030  -32.4531 H   0  0  0  0  0  0  0  0  0  0  0  0
  1  2  1  0
  2  3  1  0
  3  4  1  0
  4  5  2  0
  4  6  1  0
  6  7  2  0
  6  8  1  0
  8  9  1  0
  9 10  1  0
 10 11  1  0
 11 12  1  0
 12 13  2  0
 12 14  1  0
 14 15  1  0
 15 16  1  0
 16 17  1  0
 16 18  2  0
 15 19  2  0
 19 20  1  0
 20 21  2  0
 21 22  1  0
 22 23  2  0
 23 24  1  0
 24 25  1  0
 23 26  1  0
 26 27  2  0
 27 14  1  0
 27 20  1  0
  1 28  1  0
  1 29  1  0
  1 30  1  0
  2 31  1  0
  2 32  1  0
  9 33  1  0
  9 34  1  0
 10 35  1  0
 10 36  1  0
 17 37  1  0
 17 38  1  0
 19 39  1  0
 21 40  1  0
 22 41  1  0
 24 42  1  0
 24 43  1  0
 26 44  1  0
M  CHG  1   8  -1
M  END
>  <UniqueID>  (19) 
19

>  <SMILES>  (19) 
CCOC(=O)C(=O)[N-]CCOC(=O)n1c(C(N)=O)cc2ccc(CF)cc21

>  <Energy>  (19) 
71.93634906929837

>  <Genealogy>  (19) 
CCOC(=O)C(=O)[N-]CCOC(=O)n1c(C(N)=O)cc2ccc(CF)cc21 (protonated)
CCOC(=O)C(=O)[N-]CCOC(=O)n1c(C(N)=O)cc2ccc(CF)cc21 (3D coordinates assigned)
CCOC(=O)C(=O)[N-]CCOC(=O)n1c(C(N)=O)cc2ccc(CF)cc21 (optimized conformer: 71.93634906929837 kcal/mol)

>  <smiles>  (19) 
CCOC(=O)C(=O)NCCOC(=O)n1c(C(N)=O)cc2ccc(CF)cc21

>  <score_type>  (19) 
oracle

>  <origin>  (19) 
adg

>  <m_score__min__energy>  (19) 
-9.1899999999999995

>  <m_primary>  (19) 
energy

$$$$
19:0
     RDKit          3D

 54 56  0  0  0  0  0  0  0  0999 V2000
   -4.5370   14.2890  -32.0980 C   0  0  0  0  0  0  0  0  0  0  0  0
   -4.7930   15.6580  -31.8750 O   0  0  0  0  0  0  0  0  0  0  0  0
   -4.6270   16.4820  -33.0280 C   0  0  1  0  0  0  0  0  0  0  0  0
   -3.1370   16.7660  -33.4200 C   0  0  0  0  0  0  0  0  0  0  0  0
   -2.7100   18.2080  -33.3610 C   0  0  0  0  0  0  0  0  0  0  0  0
   -1.7980   18.5750  -32.5750 O   0  0  0  0  0  0  0  0  0  0  0  0
   -3.2850   19.1370  -34.2180 O   0  0  0  0  0  0  0  0  0  0  0  0
   -5.5090   16.0120  -34.2110 C   0  0  0  0  0  0  0  0  0  0  0  0
   -6.8640   16.6990  -34.0510 C   0  0  0  0  0  0  0  0  0  0  0  0
   -6.5760   18.0360  -33.3660 C   0  0  1  0  0  0  0  0  0  0  0  0
   -7.6800   18.4490  -32.3730 C   0  0  0  0  0  0  0  0  0  0  0  0
   -7.6420   19.9300  -32.1000 C   0  0  0  0  0  0  0  0  0  0  0  0
   -8.8140   20.7110  -32.2620 C   0  0  0  0  0  0  0  0  0  0  0  0
   -8.8060   22.0840  -31.9660 C   0  0  0  0  0  0  0  0  0  0  0  0
   -7.6170   22.6480  -31.5140 C   0  0  0  0  0  0  0  0  0  0  0  0
   -7.3340   23.9400  -31.1310 C   0  0  0  0  0  0  0  0  0  0  0  0
   -5.9930   23.9290  -30.7520 C   0  0  0  0  0  0  0  0  0  0  0  0
   -5.2560   25.1280  -30.2970 C   0  0  0  0  0  0  0  0  0  0  0  0
   -3.8670   25.2870  -30.5700 N   0  0  0  0  0  0  0  0  0  0  0  0
   -5.8660   26.0340  -29.6690 O   0  0  0  0  0  0  0  0  0  0  0  0
   -5.4700   22.6810  -30.8990 N   0  0  0  0  0  0  0  0  0  0  0  0
   -4.1350   22.2520  -30.5920 C   0  0  0  0  0  0  0  0  0  0  0  0
   -3.8290   22.0180  -29.3910 O   0  0  0  0  0  0  0  0  0  0  0  0
   -3.1190   22.0230  -31.6960 C   0  0  1  0  0  0  0  0  0  0  0  0
   -1.6880   22.2500  -31.1830 C   0  0  0  0  0  0  0  0  0  0  0  0
   -3.2430   20.6690  -32.2520 N   0  0  0  0  0  0  0  0  0  0  0  0
   -6.4740   21.9080  -31.3610 C   0  0  0  0  0  0  0  0  0  0  0  0
   -6.4540   20.5370  -31.6340 C   0  0  0  0  0  0  0  0  0  0  0  0
   -5.2750   17.7890  -32.6820 C   0  0  0  0  0  0  0  0  0  0  0  0
   -4.7820   18.5860  -31.8960 O   0  0  0  0  0  0  0  0  0  0  0  0
   -4.4403   13.7719  -31.1319 H   0  0  0  0  0  0  0  0  0  0  0  0
   -5.3684   13.8486  -32.6680 H   0  0  0  0  0  0  0  0  0  0  0  0
   -3.6027   14.1788  -32.6680 H   0  0  0  0  0  0  0  0  0  0  0  0
   -2.4927   16.1945  -32.7357 H   0  0  0  0  0  0  0  0  0  0  0  0
   -3.0425   16.4683  -34.4747 H   0  0  0  0  0  0  0  0  0  0  0  0
   -5.0475   16.3025  -35.1663 H   0  0  0  0  0  0  0  0  0  0  0  0
   -5.6188   14.9175  -34.2112 H   0  0  0  0  0  0  0  0  0  0  0  0
   -7.3278   16.8648  -35.0346 H   0  0  0  0  0  0  0  0  0  0  0  0
   -7.5618   16.0851  -33.4627 H   0  0  0  0  0  0  0  0  0  0  0  0
   -6.5416   18.8741  -34.0776 H   0  0  0  0  0  0  0  0  0  0  0  0
   -8.6605   18.1876  -32.7977 H   0  0  0  0  0  0  0  0  0  0  0  0
   -7.5128   17.9161  -31.4254 H   0  0  0  0  0  0  0  0  0  0  0  0
   -9.7387   20.2371  -32.6230 H   0  0  0  0  0  0  0  0  0  0  0  0
   -9.7125   22.6951  -32.0879 H   0  0  0  0  0  0  0  0  0  0  0  0
   -8.0210   24.7990  -31.1254 H   0  0  0  0  0  0  0  0  0  0  0  0
   -3.5270   26.0380  -31.2100 H   0  0  0  0  0  0  0  0  0  0  0  0
   -3.3261   22.7514  -32.4939 H   0  0  0  0  0  0  0  0  0  0  0  0
   -1.6885   22.2499  -30.0830 H   0  0  0  0  0  0  0  0  0  0  0  0
   -1.0350   21.4442  -31.5494 H   0  0  0  0  0  0  0  0  0  0  0  0
   -1.3164   23.2183  -31.5494 H   0  0  0  0  0  0  0  0  0  0  0  0
   -3.1350   19.9580  -31.4910 H   0  0  0  0  0  0  0  0  0  0  0  0
   -2.4870   20.5000  -32.9550 H   0  0  0  0  0  0  0  0  0  0  0  0
   -4.1760   20.5430  -32.7070 H   0  0  0  0  0  0  0  0  0  0  0  0
   -5.5374   19.9462  -31.4898 H   0  0  0  0  0  0  0  0  0  0  0  0
  1  2  1  0
  3  2  1  1
  3  4  1  0
  4  5  1  0
  5  6  2  0
  5  7  1  0
  3  8  1  0
  8  9  1  0
  9 10  1  0
 10 11  1  0
 11 12  1  0
 12 13  2  0
 13 14  1  0
 14 15  2  0
 15 16  1  0
 16 17  2  0
 17 18  1  0
 18 19  1  0
 18 20  2  0
 17 21  1  0
 21 22  1  0
 22 23  2  0
 22 24  1  0
 24 25  1  0
 24 26  1  0
 21 27  1  0
 27 28  2  0
 10 29  1  0
 29 30  2  0
 29  3  1  0
 28 12  1  0
 27 15  1  0
  1 31  1  0
  1 32  1  0
  1 33  1  0
  4 34  1  0
  4 35  1  0
  8 36  1  0
  8 37  1  0
  9 38  1  0
  9 39  1  0
 10 40  1  6
 11 41  1  0
 11 42  1  0
 13 43  1  0
 14 44  1  0
 16 45  1  0
 19 46  1  0
 24 47  1  6
 25 48  1  0
 25 49  1  0
 25 50  1  0
 26 51  1  0
 26 52  1  0
 26 53  1  0
 28 54  1  0
M  CHG  3   7  -1  19  -1  26   1
M  END
>  <UniqueID>  (20) 
20

>  <SMILES>  (20) 
CO[C@@]1(CC(=O)[O-])CC[C@@H](Cc2ccc3cc(C([NH-])=O)n(C(=O)C(C)[NH3+])c3c2)C1=O

>  <Energy>  (20) 
102.37935128932236

>  <Genealogy>  (20) 
COC1(CC(=O)[O-])CCC(Cc2ccc3cc(C([NH-])=O)n(C(=O)C(C)[NH3+])c3c2)C1=O (protonated)
CO[C@@]1(CC(=O)[O-])CC[C@@H](Cc2ccc3cc(C([NH-])=O)n(C(=O)C(C)[NH3+])c3c2)C1=O (chirality)
CO[C@@]1(CC(=O)[O-])CC[C@@H](Cc2ccc3cc(C([NH-])=O)n(C(=O)C(C)[NH3+])c3c2)C1=O (3D coordinates assigned)
CO[C@@]1(CC(=O)[O-])CC[C@@H](Cc2ccc3cc(C([NH-])=O)n(C(=O)C(C)[NH3+])c3c2)C1=O (nonaromatic ring conformer: 102.37935128932236 kcal/mol)

>  <smiles>  (20) 
COC1(CC(=O)O)CCC(Cc2ccc3cc(C(N)=O)n(C(=O)C(C)N)c3c2)C1=O

>  <score_type>  (20) 
oracle

>  <origin>  (20) 
adg

>  <m_score__min__energy>  (20) 
-10.449999999999999

>  <m_primary>  (20) 
energy

$$$$
20:0
     RDKit          3D

 37 38  0  0  0  0  0  0  0  0999 V2000
   -1.8240   23.1040  -28.8350 C   0  0  0  0  0  0  0  0  0  0  0  0
   -3.0800   22.2360  -28.6220 C   0  0  0  0  0  0  0  0  0  0  0  0
   -2.7100   21.0340  -27.7390 C   0  0  0  0  0  0  0  0  0  0  0  0
   -4.1880   23.0460  -27.9210 C   0  0  0  0  0  0  0  0  0  0  0  0
   -3.5480   21.7120  -29.8730 O   0  0  0  0  0  0  0  0  0  0  0  0
   -3.9580   22.4610  -30.9880 C   0  0  0  0  0  0  0  0  0  0  0  0
   -3.1460   22.7540  -31.9060 O   0  0  0  0  0  0  0  0  0  0  0  0
   -5.3290   22.8760  -31.0910 N   0  0  0  0  0  0  0  0  0  0  0  0
   -5.8480   24.1080  -30.8250 C   0  0  0  0  0  0  0  0  0  0  0  0
   -5.0720   25.3340  -30.5400 C   0  0  0  0  0  0  0  0  0  0  0  0
   -3.6500   25.2990  -30.4640 N   0  0  0  0  0  0  0  0  0  0  0  0
   -5.6710   26.4350  -30.4110 O   0  0  0  0  0  0  0  0  0  0  0  0
   -7.2370   24.0880  -30.9320 C   0  0  0  0  0  0  0  0  0  0  0  0
   -7.5560   22.7960  -31.2820 C   0  0  0  0  0  0  0  0  0  0  0  0
   -8.7990   22.2090  -31.4950 C   0  0  0  0  0  0  0  0  0  0  0  0
   -8.8370   20.8410  -31.8070 C   0  0  0  0  0  0  0  0  0  0  0  0
   -7.6400   20.0860  -31.9100 C   0  0  0  0  0  0  0  0  0  0  0  0
   -7.6980   18.6040  -32.1810 C   0  0  0  0  0  0  0  0  0  0  0  0
   -7.1930   18.3170  -33.4370 F   0  0  0  0  0  0  0  0  0  0  0  0
   -9.0110   18.1800  -32.1160 F   0  0  0  0  0  0  0  0  0  0  0  0
   -6.9520   17.9070  -31.2460 F   0  0  0  0  0  0  0  0  0  0  0  0
   -6.3970   20.7150  -31.6610 C   0  0  0  0  0  0  0  0  0  0  0  0
   -6.3890   22.0840  -31.3730 C   0  0  0  0  0  0  0  0  0  0  0  0
   -1.4074   23.3919  -27.8585 H   0  0  0  0  0  0  0  0  0  0  0  0
   -1.0736   22.5309  -29.3992 H   0  0  0  0  0  0  0  0  0  0  0  0
   -2.0948   24.0086  -29.3992 H   0  0  0  0  0  0  0  0  0  0  0  0
   -2.7970   21.3167  -26.6795 H   0  0  0  0  0  0  0  0  0  0  0  0
   -3.3925   20.1982  -27.9527 H   0  0  0  0  0  0  0  0  0  0  0  0
   -1.6757   20.7266  -27.9527 H   0  0  0  0  0  0  0  0  0  0  0  0
   -4.0708   22.9603  -26.8306 H   0  0  0  0  0  0  0  0  0  0  0  0
   -4.1120   24.1030  -28.2160 H   0  0  0  0  0  0  0  0  0  0  0  0
   -5.1721   22.6529  -28.2160 H   0  0  0  0  0  0  0  0  0  0  0  0
   -3.0840   24.8010  -31.1850 H   0  0  0  0  0  0  0  0  0  0  0  0
   -7.9308   24.9263  -30.7710 H   0  0  0  0  0  0  0  0  0  0  0  0
   -9.7243   22.7991  -31.4212 H   0  0  0  0  0  0  0  0  0  0  0  0
   -9.8063   20.3483  -31.9736 H   0  0  0  0  0  0  0  0  0  0  0  0
   -5.4592   20.1410  -31.6931 H   0  0  0  0  0  0  0  0  0  0  0  0
  1  2  1  0
  2  3  1  0
  2  4  1  0
  2  5  1  0
  5  6  1  0
  6  7  2  0
  6  8  1  0
  8  9  1  0
  9 10  1  0
 10 11  1  0
 10 12  2  0
  9 13  2  0
 13 14  1  0
 14 15  2  0
 15 16  1  0
 16 17  2  0
 17 18  1  0
 18 19  1  0
 18 20  1  0
 18 21  1  0
 17 22  1  0
 22 23  2  0
 23  8  1  0
 23 14  1  0
  1 24  1  0
  1 25  1  0
  1 26  1  0
  3 27  1  0
  3 28  1  0
  3 29  1  0
  4 30  1  0
  4 31  1  0
  4 32  1  0
 11 33  1  0
 13 34  1  0
 15 35  1  0
 16 36  1  0
 22 37  1  0
M  CHG  1  11  -1
M  END
>  <UniqueID>  (21) 
21

>  <SMILES>  (21) 
CC(C)(C)OC(=O)n1c(C([NH-])=O)cc2ccc(C(F)(F)F)cc21

>  <Energy>  (21) 
71.836588404794

>  <Genealogy>  (21) 
CC(C)(C)OC(=O)n1c(C([NH-])=O)cc2ccc(C(F)(F)F)cc21 (protonated)
CC(C)(C)OC(=O)n1c(C([NH-])=O)cc2ccc(C(F)(F)F)cc21 (3D coordinates assigned)
CC(C)(C)OC(=O)n1c(C([NH-])=O)cc2ccc(C(F)(F)F)cc21 (optimized conformer: 71.836588404794 kcal/mol)

>  <smiles>  (21) 
CC(C)(C)OC(=O)n1c(C(N)=O)cc2ccc(C(F)(F)F)cc21

>  <score_type>  (21) 
oracle

>  <origin>  (21) 
adg

>  <m_score__min__energy>  (21) 
-9.6099999999999994

>  <m_primary>  (21) 
energy

$$$$
21:0
     RDKit          3D

 53 56  0  0  0  0  0  0  0  0999 V2000
   -2.8200   19.0800  -26.5570 C   0  0  0  0  0  0  0  0  0  0  0  0
   -2.4100   20.0130  -27.6870 C   0  0  0  0  0  0  0  0  0  0  0  0
   -2.8240   21.3380  -27.3790 O   0  0  0  0  0  0  0  0  0  0  0  0
   -3.1810   22.2710  -28.3570 C   0  0  0  0  0  0  0  0  0  0  0  0
   -3.4900   23.4510  -28.0330 O   0  0  0  0  0  0  0  0  0  0  0  0
   -3.2720   21.8530  -29.7960 C   0  0  0  0  0  0  0  0  0  0  0  0
   -3.8270   22.9450  -30.6640 C   0  0  0  0  0  0  0  0  0  0  0  0
   -3.0620   23.8420  -31.1080 O   0  0  0  0  0  0  0  0  0  0  0  0
   -5.2390   23.0240  -30.9220 N   0  0  0  0  0  0  0  0  0  0  0  0
   -6.0510   24.1070  -30.7700 C   0  0  0  0  0  0  0  0  0  0  0  0
   -5.6570   25.4120  -30.1950 C   0  0  0  0  0  0  0  0  0  0  0  0
   -4.3830   25.9850  -30.4760 N   0  0  0  0  0  0  0  0  0  0  0  0
   -6.4460   26.0140  -29.4190 O   0  0  0  0  0  0  0  0  0  0  0  0
   -7.3430   23.8110  -31.1970 C   0  0  0  0  0  0  0  0  0  0  0  0
   -7.2970   22.5010  -31.6210 C   0  0  0  0  0  0  0  0  0  0  0  0
   -8.2930   21.6970  -32.1670 C   0  0  0  0  0  0  0  0  0  0  0  0
   -7.9490   20.3920  -32.5570 C   0  0  0  0  0  0  0  0  0  0  0  0
   -6.6180   19.9150  -32.4070 C   0  0  0  0  0  0  0  0  0  0  0  0
   -6.2470   18.5450  -32.8520 C   0  0  0  0  0  0  0  0  0  0  0  0
   -6.0900   18.2560  -34.2190 C   0  0  0  0  0  0  0  0  0  0  0  0
   -5.7610   16.9650  -34.6410 C   0  0  0  0  0  0  0  0  0  0  0  0
   -5.5710   15.9320  -33.7070 C   0  0  0  0  0  0  0  0  0  0  0  0
   -5.2010   14.5640  -34.1570 C   0  0  0  0  0  0  0  0  0  0  0  0
   -5.8590   13.3830  -33.8560 C   0  0  0  0  0  0  0  0  0  0  0  0
   -5.2300   12.4000  -34.4560 O   0  0  0  0  0  0  0  0  0  0  0  0
   -4.2200   12.9270  -35.1100 C   0  0  0  0  0  0  0  0  0  0  0  0
   -3.2540   12.1380  -35.9280 C   0  0  0  0  0  0  0  0  0  0  0  0
   -4.1580   14.2640  -34.9580 N   0  0  0  0  0  0  0  0  0  0  0  0
   -5.7260   16.2220  -32.3400 C   0  0  0  0  0  0  0  0  0  0  0  0
   -6.0630   17.5110  -31.9180 C   0  0  0  0  0  0  0  0  0  0  0  0
   -5.6410   20.7650  -31.8420 C   0  0  0  0  0  0  0  0  0  0  0  0
   -6.0160   22.0510  -31.4460 C   0  0  0  0  0  0  0  0  0  0  0  0
   -2.6090   19.5603  -25.5901 H   0  0  0  0  0  0  0  0  0  0  0  0
   -3.8960   18.8640  -26.6320 H   0  0  0  0  0  0  0  0  0  0  0  0
   -2.2515   18.1413  -26.6320 H   0  0  0  0  0  0  0  0  0  0  0  0
   -1.3166   19.9882  -27.8050 H   0  0  0  0  0  0  0  0  0  0  0  0
   -2.8864   19.6875  -28.6235 H   0  0  0  0  0  0  0  0  0  0  0  0
   -2.2654   21.5913  -30.1543 H   0  0  0  0  0  0  0  0  0  0  0  0
   -3.9524   20.9908  -29.8574 H   0  0  0  0  0  0  0  0  0  0  0  0
   -3.5280   25.6710  -29.9660 H   0  0  0  0  0  0  0  0  0  0  0  0
   -8.2153   24.4811  -31.1960 H   0  0  0  0  0  0  0  0  0  0  0  0
   -9.3197   22.0724  -32.2896 H   0  0  0  0  0  0  0  0  0  0  0  0
   -8.7183   19.7315  -32.9834 H   0  0  0  0  0  0  0  0  0  0  0  0
   -6.2275   19.0539  -34.9636 H   0  0  0  0  0  0  0  0  0  0  0  0
   -5.6496   16.7551  -35.7150 H   0  0  0  0  0  0  0  0  0  0  0  0
   -6.7538   13.2859  -33.2236 H   0  0  0  0  0  0  0  0  0  0  0  0
   -2.5760   11.5843  -35.2619 H   0  0  0  0  0  0  0  0  0  0  0  0
   -3.8049   11.4283  -36.5627 H   0  0  0  0  0  0  0  0  0  0  0  0
   -2.6686   12.8195  -36.5627 H   0  0  0  0  0  0  0  0  0  0  0  0
   -3.4410   14.9040  -35.3630 H   0  0  0  0  0  0  0  0  0  0  0  0
   -5.5805   15.4260  -31.5949 H   0  0  0  0  0  0  0  0  0  0  0  0
   -6.1854   17.7183  -30.8447 H   0  0  0  0  0  0  0  0  0  0  0  0
   -4.6040   20.4204  -31.7163 H   0  0  0  0  0  0  0  0  0  0  0  0
  1  2  1  0
  2  3  1  0
  3  4  1  0
  4  5  2  0
  4  6  1  0
  6  7  1  0
  7  8  2  0
  7  9  1  0
  9 10  1  0
 10 11  1  0
 11 12  1  0
 11 13  2  0
 10 14  2  0
 14 15  1  0
 15 16  2  0
 16 17  1  0
 17 18  2  0
 18 19  1  0
 19 20  2  0
 20 21  1  0
 21 22  2  0
 22 23  1  0
 23 24  2  0
 24 25  1  0
 25 26  1  0
 26 27  1  0
 26 28  2  0
 22 29  1  0
 29 30  2  0
 18 31  1  0
 31 32  2  0
 32  9  1  0
 32 15  1  0
 30 19  1  0
 28 23  1  0
  1 33  1  0
  1 34  1  0
  1 35  1  0
  2 36  1  0
  2 37  1  0
  6 38  1  0
  6 39  1  0
 12 40  1  0
 14 41  1  0
 16 42  1  0
 17 43  1  0
 20 44  1  0
 21 45  1  0
 24 46  1  0
 27 47  1  0
 27 48  1  0
 27 49  1  0
 28 50  1  0
 29 51  1  0
 30 52  1  0
 31 53  1  0
M  CHG  2  12  -1  28   1
M  END
>  <UniqueID>  (22) 
22

>  <SMILES>  (22) 
CCOC(=O)CC(=O)n1c(C([NH-])=O)cc2ccc(-c3ccc(-c4coc(C)[nH+]4)cc3)cc21

>  <Energy>  (22) 
126.35638024961295

>  <Genealogy>  (22) 
CCOC(=O)CC(=O)n1c(C([NH-])=O)cc2ccc(-c3ccc(-c4coc(C)[nH+]4)cc3)cc21 (protonated)
CCOC(=O)CC(=O)n1c(C([NH-])=O)cc2ccc(-c3ccc(-c4coc(C)[nH+]4)cc3)cc21 (3D coordinates assigned)
CCOC(=O)CC(=O)n1c(C([NH-])=O)cc2ccc(-c3ccc(-c4coc(C)[nH+]4)cc3)cc21 (optimized conformer: 126.35638024961295 kcal/mol)

>  <smiles>  (22) 
CCOC(=O)CC(=O)n1c(C(N)=O)cc2ccc(-c3ccc(-c4coc(C)n4)cc3)cc21

>  <score_type>  (22) 
oracle

>  <origin>  (22) 
adg

>  <m_score__min__energy>  (22) 
-10.51

>  <m_primary>  (22) 
energy

$$$$
22:0
     RDKit          3D

 31 33  0  0  0  0  0  0  0  0999 V2000
   -1.2490   25.7270  -29.2040 N   0  0  0  0  0  0  0  0  0  0  0  0
   -0.8630   24.3580  -29.2810 C   0  0  0  0  0  0  0  0  0  0  0  0
    0.3050   24.0270  -28.9440 O   0  0  0  0  0  0  0  0  0  0  0  0
   -1.7910   23.3340  -29.8020 C   0  0  0  0  0  0  0  0  0  0  0  0
   -1.3790   22.0720  -30.2260 C   0  0  0  0  0  0  0  0  0  0  0  0
   -2.5100   21.4640  -30.7170 C   0  0  0  0  0  0  0  0  0  0  0  0
   -2.6780   20.1930  -31.2580 C   0  0  0  0  0  0  0  0  0  0  0  0
   -3.9700   19.8140  -31.6590 C   0  0  0  0  0  0  0  0  0  0  0  0
   -5.0690   20.7000  -31.5050 C   0  0  0  0  0  0  0  0  0  0  0  0
   -6.4320   20.2810  -31.9210 C   0  0  0  0  0  0  0  0  0  0  0  0
   -6.6840   18.9520  -32.3120 C   0  0  0  0  0  0  0  0  0  0  0  0
   -7.9680   18.5610  -32.7050 C   0  0  0  0  0  0  0  0  0  0  0  0
   -9.0130   19.4870  -32.7090 C   0  0  0  0  0  0  0  0  0  0  0  0
   -8.7760   20.8090  -32.3210 C   0  0  0  0  0  0  0  0  0  0  0  0
   -9.7930   21.7060  -32.3220 F   0  0  0  0  0  0  0  0  0  0  0  0
   -7.4930   21.2060  -31.9290 C   0  0  0  0  0  0  0  0  0  0  0  0
   -4.8550   21.9830  -30.9490 C   0  0  0  0  0  0  0  0  0  0  0  0
   -3.5530   22.3410  -30.5760 C   0  0  0  0  0  0  0  0  0  0  0  0
   -3.1290   23.4950  -30.0140 N   0  0  0  0  0  0  0  0  0  0  0  0
   -3.9530   24.6110  -29.6390 C   0  0  0  0  0  0  0  0  0  0  0  0
   -3.9460   25.6650  -30.3260 O   0  0  0  0  0  0  0  0  0  0  0  0
   -4.7460   24.5450  -28.5010 O   0  0  0  0  0  0  0  0  0  0  0  0
   -2.2300   25.9960  -28.9650 H   0  0  0  0  0  0  0  0  0  0  0  0
   -0.3637   21.6514  -30.1780 H   0  0  0  0  0  0  0  0  0  0  0  0
   -1.8257   19.5064  -31.3683 H   0  0  0  0  0  0  0  0  0  0  0  0
   -4.1323   18.8184  -32.0978 H   0  0  0  0  0  0  0  0  0  0  0  0
   -5.8659   18.2167  -32.3083 H   0  0  0  0  0  0  0  0  0  0  0  0
   -8.1551   17.5213  -33.0117 H   0  0  0  0  0  0  0  0  0  0  0  0
  -10.0222   19.1765  -33.0173 H   0  0  0  0  0  0  0  0  0  0  0  0
   -7.3122   22.2476  -31.6251 H   0  0  0  0  0  0  0  0  0  0  0  0
   -5.6919   22.6837  -30.8126 H   0  0  0  0  0  0  0  0  0  0  0  0
  1  2  1  0
  2  3  2  0
  2  4  1  0
  4  5  2  0
  5  6  1  0
  6  7  2  0
  7  8  1  0
  8  9  2  0
  9 10  1  0
 10 11  2  0
 11 12  1  0
 12 13  2  0
 13 14  1  0
 14 15  1  0
 14 16  2  0
  9 17  1  0
 17 18  2  0
 18 19  1  0
 19 20  1  0
 20 21  2  0
 20 22  1  0
 19  4  1  0
 18  6  1  0
 16 10  1  0
  1 23  1  0
  5 24  1  0
  7 25  1  0
  8 26  1  0
 11 27  1  0
 12 28  1  0
 13 29  1  0
 16 30  1  0
 17 31  1  0
M  CHG  2   1  -1  22  -1
M  END
>  <UniqueID>  (23) 
23

>  <SMILES>  (23) 
[NH-]C(=O)c1cc2ccc(-c3cccc(F)c3)cc2n1C(=O)[O-]

>  <Energy>  (23) 
79.26433149884411

>  <Genealogy>  (23) 
[NH-]C(=O)c1cc2ccc(-c3cccc(F)c3)cc2n1C(=O)[O-] (protonated)
[NH-]C(=O)c1cc2ccc(-c3cccc(F)c3)cc2n1C(=O)[O-] (3D coordinates assigned)
[NH-]C(=O)c1cc2ccc(-c3cccc(F)c3)cc2n1C(=O)[O-] (optimized conformer: 79.26433149884411 kcal/mol)

>  <smiles>  (23) 
NC(=O)c1cc2ccc(-c3cccc(F)c3)cc2n1C(=O)O

>  <score_type>  (23) 
oracle

>  <origin>  (23) 
adg

>  <m_score__min__energy>  (23) 
-11.31

>  <m_primary>  (23) 
energy

$$$$
23:0
     RDKit          3D

 39 40  0  0  0  0  0  0  0  0999 V2000
   -7.1230   21.1980  -32.7370 C   0  0  0  0  0  0  0  0  0  0  0  0
   -5.9220   20.3720  -32.9000 N   0  0  0  0  0  0  0  0  0  0  0  0
   -6.0040   19.1170  -33.6630 C   0  0  0  0  0  0  0  0  0  0  0  0
   -7.0290   17.8420  -32.7430 Si  0  0  0  0  0  4  0  0  0  0  0  0
   -8.7050   18.5590  -32.3470 C   0  0  0  0  0  0  0  0  0  0  0  0
   -6.1570   17.3720  -31.1600 C   0  0  0  0  0  0  0  0  0  0  0  0
   -4.6880   20.7760  -32.2650 C   0  0  0  0  0  0  0  0  0  0  0  0
   -3.5750   19.8960  -32.2210 C   0  0  0  0  0  0  0  0  0  0  0  0
   -2.3850   20.2700  -31.5760 C   0  0  0  0  0  0  0  0  0  0  0  0
   -2.3260   21.5320  -30.9960 C   0  0  0  0  0  0  0  0  0  0  0  0
   -1.3140   22.1270  -30.2800 C   0  0  0  0  0  0  0  0  0  0  0  0
   -1.8050   23.3800  -29.9220 C   0  0  0  0  0  0  0  0  0  0  0  0
   -1.0110   24.3820  -29.1850 C   0  0  0  0  0  0  0  0  0  0  0  0
   -1.5300   25.6850  -28.9170 N   0  0  0  0  0  0  0  0  0  0  0  0
    0.1660   24.1030  -28.8340 O   0  0  0  0  0  0  0  0  0  0  0  0
   -3.0760   23.5500  -30.3850 N   0  0  0  0  0  0  0  0  0  0  0  0
   -3.9610   24.6540  -30.1270 C   0  0  0  0  0  0  0  0  0  0  0  0
   -3.9320   25.6760  -30.8620 O   0  0  0  0  0  0  0  0  0  0  0  0
   -4.8560   24.6060  -29.0660 O   0  0  0  0  0  0  0  0  0  0  0  0
   -3.3790   22.4080  -31.0450 C   0  0  0  0  0  0  0  0  0  0  0  0
   -4.5850   22.0520  -31.6600 C   0  0  0  0  0  0  0  0  0  0  0  0
   -7.3283   21.3392  -31.6656 H   0  0  0  0  0  0  0  0  0  0  0  0
   -6.9618   22.1772  -33.2116 H   0  0  0  0  0  0  0  0  0  0  0  0
   -7.9797   20.6971  -33.2116 H   0  0  0  0  0  0  0  0  0  0  0  0
   -6.4701   19.3182  -34.6388 H   0  0  0  0  0  0  0  0  0  0  0  0
   -4.9871   18.7201  -33.7984 H   0  0  0  0  0  0  0  0  0  0  0  0
   -7.1744   16.8117  -33.4660 H   0  0  0  0  0  0  0  0  0  0  0  0
   -8.8320   18.6133  -31.2557 H   0  0  0  0  0  0  0  0  0  0  0  0
   -8.7824   19.5690  -32.7759 H   0  0  0  0  0  0  0  0  0  0  0  0
   -9.4889   17.9175  -32.7759 H   0  0  0  0  0  0  0  0  0  0  0  0
   -6.7597   17.6968  -30.2990 H   0  0  0  0  0  0  0  0  0  0  0  0
   -6.0250   16.2805  -31.1242 H   0  0  0  0  0  0  0  0  0  0  0  0
   -5.1727   17.8618  -31.1242 H   0  0  0  0  0  0  0  0  0  0  0  0
   -3.6457   18.9076  -32.6987 H   0  0  0  0  0  0  0  0  0  0  0  0
   -1.5255   19.5850  -31.5311 H   0  0  0  0  0  0  0  0  0  0  0  0
   -0.3273   21.7036  -30.0410 H   0  0  0  0  0  0  0  0  0  0  0  0
   -2.4300   26.0050  -29.3390 H   0  0  0  0  0  0  0  0  0  0  0  0
   -0.9690   26.3690  -28.3600 H   0  0  0  0  0  0  0  0  0  0  0  0
   -5.4355   22.7495  -31.6730 H   0  0  0  0  0  0  0  0  0  0  0  0
  1  2  1  0
  2  3  1  0
  3  4  1  0
  4  5  1  0
  4  6  1  0
  2  7  1  0
  7  8  2  0
  8  9  1  0
  9 10  2  0
 10 11  1  0
 11 12  2  0
 12 13  1  0
 13 14  1  0
 13 15  2  0
 12 16  1  0
 16 17  1  0
 17 18  2  0
 17 19  1  0
 16 20  1  0
 20 21  2  0
 21  7  1  0
 20 10  1  0
  1 22  1  0
  1 23  1  0
  1 24  1  0
  3 25  1  0
  3 26  1  0
  4 27  1  0
  5 28  1  0
  5 29  1  0
  5 30  1  0
  6 31  1  0
  6 32  1  0
  6 33  1  0
  8 34  1  0
  9 35  1  0
 11 36  1  0
 14 37  1  0
 14 38  1  0
 21 39  1  0
M  CHG  1  19  -1
M  END
>  <UniqueID>  (24) 
24

>  <SMILES>  (24) 
CN(C[SiH](C)C)c1ccc2cc(C(N)=O)n(C(=O)[O-])c2c1

>  <Energy>  (24) 
69.22617762532367

>  <Genealogy>  (24) 
CN(C[SiH](C)C)c1ccc2cc(C(N)=O)n(C(=O)[O-])c2c1 (protonated)
CN(C[SiH](C)C)c1ccc2cc(C(N)=O)n(C(=O)[O-])c2c1 (3D coordinates assigned)
CN(C[SiH](C)C)c1ccc2cc(C(N)=O)n(C(=O)[O-])c2c1 (optimized conformer: 69.22617762532367 kcal/mol)

>  <smiles>  (24) 
CN(C[SiH](C)C)c1ccc2cc(C(N)=O)n(C(=O)O)c2c1

>  <score_type>  (24) 
oracle

>  <origin>  (24) 
adg

>  <m_score__min__energy>  (24) 
-9.0099999999999998

>  <m_primary>  (24) 
energy

$$$$
24:0
     RDKit          3D

 53 56  0  0  0  0  0  0  0  0999 V2000
   -1.7710   20.6010  -32.9830 C   0  0  0  0  0  0  0  0  0  0  0  0
   -2.8500   20.9700  -31.9540 C   0  0  0  0  0  0  0  0  0  0  0  0
   -3.4950   22.3060  -32.3640 C   0  0  0  0  0  0  0  0  0  0  0  0
   -2.1930   21.0840  -30.5650 C   0  0  0  0  0  0  0  0  0  0  0  0
   -3.8210   19.9150  -31.9650 O   0  0  0  0  0  0  0  0  0  0  0  0
   -4.6260   19.5320  -33.0500 C   0  0  0  0  0  0  0  0  0  0  0  0
   -4.1370   19.4020  -34.2050 O   0  0  0  0  0  0  0  0  0  0  0  0
   -6.0270   19.3000  -32.8380 N   0  0  0  0  0  0  0  0  0  0  0  0
   -6.7270   18.1490  -33.0460 C   0  0  0  0  0  0  0  0  0  0  0  0
   -6.1420   16.8450  -33.4310 C   0  0  0  0  0  0  0  0  0  0  0  0
   -4.7270   16.6800  -33.5270 N   0  0  0  0  0  0  0  0  0  0  0  0
   -6.8930   15.8720  -33.7070 O   0  0  0  0  0  0  0  0  0  0  0  0
   -8.0750   18.3380  -32.7430 C   0  0  0  0  0  0  0  0  0  0  0  0
   -8.1780   19.6500  -32.3380 C   0  0  0  0  0  0  0  0  0  0  0  0
   -9.2890   20.3720  -31.9100 C   0  0  0  0  0  0  0  0  0  0  0  0
   -9.1030   21.7190  -31.5570 C   0  0  0  0  0  0  0  0  0  0  0  0
   -7.8240   22.3220  -31.6580 C   0  0  0  0  0  0  0  0  0  0  0  0
   -7.6250   23.7570  -31.2520 C   0  0  0  0  0  0  0  0  0  0  0  0
   -6.2520   23.9410  -30.6660 C   0  0  0  0  0  0  0  0  0  0  0  0
   -5.3620   24.8780  -31.2130 C   0  0  0  0  0  0  0  0  0  0  0  0
   -4.1060   25.0080  -30.7090 N   0  0  0  0  0  0  0  0  0  0  0  0
   -3.6660   24.2420  -29.6770 C   0  0  0  0  0  0  0  0  0  0  0  0
   -2.3650   24.4050  -29.1850 C   0  0  0  0  0  0  0  0  0  0  0  0
   -1.9140   23.6110  -28.1250 C   0  0  0  0  0  0  0  0  0  0  0  0
   -2.7590   22.6540  -27.5530 C   0  0  0  0  0  0  0  0  0  0  0  0
   -4.0600   22.4860  -28.0370 C   0  0  0  0  0  0  0  0  0  0  0  0
   -4.5210   23.2780  -29.0990 C   0  0  0  0  0  0  0  0  0  0  0  0
   -5.8180   23.1310  -29.6060 C   0  0  0  0  0  0  0  0  0  0  0  0
   -6.7200   21.5550  -32.0900 C   0  0  0  0  0  0  0  0  0  0  0  0
   -6.9290   20.2090  -32.4090 C   0  0  0  0  0  0  0  0  0  0  0  0
   -0.8560   20.2881  -32.4587 H   0  0  0  0  0  0  0  0  0  0  0  0
   -2.1327   19.7755  -33.6136 H   0  0  0  0  0  0  0  0  0  0  0  0
   -1.5515   21.4751  -33.6136 H   0  0  0  0  0  0  0  0  0  0  0  0
   -3.7688   22.8730  -31.4620 H   0  0  0  0  0  0  0  0  0  0  0  0
   -2.7798   22.8904  -32.9615 H   0  0  0  0  0  0  0  0  0  0  0  0
   -4.3974   22.1094  -32.9615 H   0  0  0  0  0  0  0  0  0  0  0  0
   -2.9578   20.9513  -29.7856 H   0  0  0  0  0  0  0  0  0  0  0  0
   -1.4225   20.3061  -30.4589 H   0  0  0  0  0  0  0  0  0  0  0  0
   -1.7296   22.0760  -30.4589 H   0  0  0  0  0  0  0  0  0  0  0  0
   -4.3260   15.7660  -33.8330 H   0  0  0  0  0  0  0  0  0  0  0  0
   -4.0710   17.4440  -33.2490 H   0  0  0  0  0  0  0  0  0  0  0  0
   -8.8843   17.5963  -32.8127 H   0  0  0  0  0  0  0  0  0  0  0  0
  -10.2818   19.9021  -31.8501 H   0  0  0  0  0  0  0  0  0  0  0  0
   -9.9579   22.3114  -31.1988 H   0  0  0  0  0  0  0  0  0  0  0  0
   -7.7336   24.4037  -32.1352 H   0  0  0  0  0  0  0  0  0  0  0  0
   -8.3784   24.0261  -30.4971 H   0  0  0  0  0  0  0  0  0  0  0  0
   -5.6822   25.5106  -32.0540 H   0  0  0  0  0  0  0  0  0  0  0  0
   -1.6980   25.1570  -29.6318 H   0  0  0  0  0  0  0  0  0  0  0  0
   -0.8916   23.7397  -27.7401 H   0  0  0  0  0  0  0  0  0  0  0  0
   -2.3990   22.0320  -26.7202 H   0  0  0  0  0  0  0  0  0  0  0  0
   -4.7220   21.7327  -27.5849 H   0  0  0  0  0  0  0  0  0  0  0  0
   -6.4962   22.3808  -29.1733 H   0  0  0  0  0  0  0  0  0  0  0  0
   -5.7197   22.0050  -32.1737 H   0  0  0  0  0  0  0  0  0  0  0  0
  1  2  1  0
  2  3  1  0
  2  4  1  0
  2  5  1  0
  5  6  1  0
  6  7  2  0
  6  8  1  0
  8  9  1  0
  9 10  1  0
 10 11  1  0
 10 12  2  0
  9 13  2  0
 13 14  1  0
 14 15  2  0
 15 16  1  0
 16 17  2  0
 17 18  1  0
 18 19  1  0
 19 20  2  0
 20 21  1  0
 21 22  2  0
 22 23  1  0
 23 24  2  0
 24 25  1  0
 25 26  2  0
 26 27  1  0
 27 28  2  0
 17 29  1  0
 29 30  2  0
 30  8  1  0
 30 14  1  0
 28 19  1  0
 27 22  1  0
  1 31  1  0
  1 32  1  0
  1 33  1  0
  3 34  1  0
  3 35  1  0
  3 36  1  0
  4 37  1  0
  4 38  1  0
  4 39  1  0
 11 40  1  0
 11 41  1  0
 13 42  1  0
 15 43  1  0
 16 44  1  0
 18 45  1  0
 18 46  1  0
 20 47  1  0
 23 48  1  0
 24 49  1  0
 25 50  1  0
 26 51  1  0
 28 52  1  0
 29 53  1  0
M  END
>  <UniqueID>  (25) 
25

>  <SMILES>  (25) 
CC(C)(C)OC(=O)n1c(C(N)=O)cc2ccc(Cc3cnc4ccccc4c3)cc21

>  <Energy>  (25) 
91.67175857915306

>  <Genealogy>  (25) 
CC(C)(C)OC(=O)n1c(C(N)=O)cc2ccc(Cc3cnc4ccccc4c3)cc21 (3D coordinates assigned)
CC(C)(C)OC(=O)n1c(C(N)=O)cc2ccc(Cc3cnc4ccccc4c3)cc21 (optimized conformer: 91.67175857915306 kcal/mol)

>  <smiles>  (25) 
CC(C)(C)OC(=O)n1c(C(N)=O)cc2ccc(Cc3cnc4ccccc4c3)cc21

>  <score_type>  (25) 
oracle

>  <origin>  (25) 
adg

>  <m_score__min__energy>  (25) 
-10.550000000000001

>  <m_primary>  (25) 
energy

$$$$
25:0
     RDKit          3D

 36 39  0  0  0  0  0  0  0  0999 V2000
   -6.5270   25.6710  -29.1100 N   0  0  0  0  0  0  0  0  0  0  0  0
   -5.7890   25.2320  -30.2730 C   0  0  0  0  0  0  0  0  0  0  0  0
   -4.9550   26.0480  -30.7010 O   0  0  0  0  0  0  0  0  0  0  0  0
   -6.0710   23.9210  -30.8250 C   0  0  0  0  0  0  0  0  0  0  0  0
   -7.3790   23.4870  -31.0900 C   0  0  0  0  0  0  0  0  0  0  0  0
   -7.3280   22.2150  -31.6030 C   0  0  0  0  0  0  0  0  0  0  0  0
   -8.3390   21.3650  -32.0170 C   0  0  0  0  0  0  0  0  0  0  0  0
   -8.0060   20.1170  -32.4990 C   0  0  0  0  0  0  0  0  0  0  0  0
   -6.6870   19.7380  -32.5620 C   0  0  0  0  0  0  0  0  0  0  0  0
   -6.3250   18.4230  -33.0710 C   0  0  0  0  0  0  0  0  0  0  0  0
   -7.2080   17.3900  -32.9860 C   0  0  0  0  0  0  0  0  0  0  0  0
   -6.9100   16.1200  -33.4560 C   0  0  0  0  0  0  0  0  0  0  0  0
   -5.6710   15.9060  -34.0300 C   0  0  0  0  0  0  0  0  0  0  0  0
   -5.0630   14.8210  -34.5780 N   0  0  0  0  0  0  0  0  0  0  0  0
   -3.8600   15.1430  -34.9910 N   0  0  0  0  0  0  0  0  0  0  0  0
   -3.6230   16.4570  -34.7310 C   0  0  0  0  0  0  0  0  0  0  0  0
   -4.7660   16.9410  -34.1240 C   0  0  0  0  0  0  0  0  0  0  0  0
   -5.0730   18.1950  -33.6540 C   0  0  0  0  0  0  0  0  0  0  0  0
   -5.6890   20.6220  -32.1360 C   0  0  0  0  0  0  0  0  0  0  0  0
   -6.0010   21.8820  -31.6470 C   0  0  0  0  0  0  0  0  0  0  0  0
   -5.2450   22.9210  -31.1740 N   0  0  0  0  0  0  0  0  0  0  0  0
   -3.8300   22.9010  -31.0850 C   0  0  0  0  0  0  0  0  0  0  0  0
   -3.1190   21.8750  -31.2100 O   0  0  0  0  0  0  0  0  0  0  0  0
   -3.1370   24.0830  -30.8390 O   0  0  0  0  0  0  0  0  0  0  0  0
   -6.8920   24.9720  -28.4260 H   0  0  0  0  0  0  0  0  0  0  0  0
   -6.7120   26.6800  -28.9280 H   0  0  0  0  0  0  0  0  0  0  0  0
   -8.2949   24.0706  -30.9152 H   0  0  0  0  0  0  0  0  0  0  0  0
   -9.3914   21.6803  -31.9623 H   0  0  0  0  0  0  0  0  0  0  0  0
   -8.7946   19.4263  -32.8324 H   0  0  0  0  0  0  0  0  0  0  0  0
   -8.1921   17.5693  -32.5285 H   0  0  0  0  0  0  0  0  0  0  0  0
   -7.6417   15.3028  -33.3741 H   0  0  0  0  0  0  0  0  0  0  0  0
   -5.5410   13.8950  -34.6320 H   0  0  0  0  0  0  0  0  0  0  0  0
   -2.7061   17.0207  -34.9582 H   0  0  0  0  0  0  0  0  0  0  0  0
   -4.3415   19.0125  -33.7351 H   0  0  0  0  0  0  0  0  0  0  0  0
   -4.6352   20.3111  -32.1901 H   0  0  0  0  0  0  0  0  0  0  0  0
   -3.4830   24.9270  -31.2740 H   0  0  0  0  0  0  0  0  0  0  0  0
  1  2  1  0
  2  3  2  0
  2  4  1  0
  4  5  2  0
  5  6  1  0
  6  7  2  0
  7  8  1  0
  8  9  2  0
  9 10  1  0
 10 11  2  0
 11 12  1  0
 12 13  2  0
 13 14  1  0
 14 15  1  0
 15 16  2  0
 16 17  1  0
 17 18  2  0
  9 19  1  0
 19 20  2  0
 20 21  1  0
 21 22  1  0
 22 23  2  0
 22 24  1  0
 21  4  1  0
 20  6  1  0
 18 10  1  0
 17 13  1  0
  1 25  1  0
  1 26  1  0
  5 27  1  0
  7 28  1  0
  8 29  1  0
 11 30  1  0
 12 31  1  0
 14 32  1  0
 16 33  1  0
 18 34  1  0
 19 35  1  0
 24 36  1  0
M  END
>  <smiles>  (26) 
NC(=O)c1cc2ccc(-c3ccc4[nH]ncc4c3)cc2n1C(=O)O

>  <score_type>  (26) 
oracle

>  <origin>  (26) 
adg

>  <m_score__min__energy>  (26) 
-9.4299999999999997

>  <m_primary>  (26) 
energy

$$$$
26:0
     RDKit          3D

 45 47  0  0  0  0  0  0  0  0999 V2000
   -1.6350   21.5030  -32.3590 C   0  0  0  0  0  0  0  0  0  0  0  0
   -3.0440   20.9440  -32.6340 C   0  0  0  0  0  0  0  0  0  0  0  0
   -3.8740   21.9430  -33.4610 C   0  0  0  0  0  0  0  0  0  0  0  0
   -2.9140   19.6330  -33.4230 C   0  0  0  0  0  0  0  0  0  0  0  0
   -3.7100   20.6320  -31.4030 O   0  0  0  0  0  0  0  0  0  0  0  0
   -4.2830   21.5470  -30.5080 C   0  0  0  0  0  0  0  0  0  0  0  0
   -3.6870   21.8730  -29.4450 O   0  0  0  0  0  0  0  0  0  0  0  0
   -5.5640   22.1210  -30.8110 N   0  0  0  0  0  0  0  0  0  0  0  0
   -5.9330   23.4300  -30.7240 C   0  0  0  0  0  0  0  0  0  0  0  0
   -5.1140   24.5250  -30.1680 C   0  0  0  0  0  0  0  0  0  0  0  0
   -5.2350   24.9200  -28.8010 N   0  0  0  0  0  0  0  0  0  0  0  0
   -4.3340   25.1590  -30.9270 O   0  0  0  0  0  0  0  0  0  0  0  0
   -7.2370   23.6040  -31.1830 C   0  0  0  0  0  0  0  0  0  0  0  0
   -7.6660   22.3470  -31.5420 C   0  0  0  0  0  0  0  0  0  0  0  0
   -8.8920   21.9310  -32.0550 C   0  0  0  0  0  0  0  0  0  0  0  0
   -9.0530   20.5660  -32.3520 C   0  0  0  0  0  0  0  0  0  0  0  0
   -7.9870   19.6550  -32.1550 C   0  0  0  0  0  0  0  0  0  0  0  0
   -8.1710   18.1920  -32.4520 C   0  0  0  0  0  0  0  0  0  0  0  0
   -6.8680   17.5870  -32.8740 C   0  0  0  0  0  0  0  0  0  0  0  0
   -6.0300   16.8230  -32.0700 C   0  0  0  0  0  0  0  0  0  0  0  0
   -4.8340   16.4690  -32.7030 C   0  0  0  0  0  0  0  0  0  0  0  0
   -4.7310   16.9690  -33.9920 C   0  0  0  0  0  0  0  0  0  0  0  0
   -3.3690   16.7460  -35.0700 Cl  0  0  0  0  0  0  0  0  0  0  0  0
   -6.1140   17.8520  -34.3560 S   0  0  0  0  0  0  0  0  0  0  0  0
   -6.7580   20.1130  -31.6320 C   0  0  0  0  0  0  0  0  0  0  0  0
   -6.6360   21.4700  -31.3130 C   0  0  0  0  0  0  0  0  0  0  0  0
   -1.4717   21.5678  -31.2731 H   0  0  0  0  0  0  0  0  0  0  0  0
   -0.8824   20.8353  -32.8038 H   0  0  0  0  0  0  0  0  0  0  0  0
   -1.5448   22.5050  -32.8038 H   0  0  0  0  0  0  0  0  0  0  0  0
   -4.4276   22.6093  -32.7831 H   0  0  0  0  0  0  0  0  0  0  0  0
   -3.2028   22.5406  -34.0953 H   0  0  0  0  0  0  0  0  0  0  0  0
   -4.5845   21.3927  -34.0953 H   0  0  0  0  0  0  0  0  0  0  0  0
   -2.8304   18.7897  -32.7217 H   0  0  0  0  0  0  0  0  0  0  0  0
   -3.8030   19.4965  -34.0563 H   0  0  0  0  0  0  0  0  0  0  0  0
   -2.0155   19.6737  -34.0563 H   0  0  0  0  0  0  0  0  0  0  0  0
   -4.6170   25.6680  -28.4150 H   0  0  0  0  0  0  0  0  0  0  0  0
   -5.9930   24.5380  -28.1930 H   0  0  0  0  0  0  0  0  0  0  0  0
   -7.8027   24.5453  -31.2451 H   0  0  0  0  0  0  0  0  0  0  0  0
   -9.7092   22.6480  -32.2227 H   0  0  0  0  0  0  0  0  0  0  0  0
  -10.0157   20.2026  -32.7409 H   0  0  0  0  0  0  0  0  0  0  0  0
   -8.5348   17.6800  -31.5490 H   0  0  0  0  0  0  0  0  0  0  0  0
   -8.9022   18.0781  -33.2658 H   0  0  0  0  0  0  0  0  0  0  0  0
   -6.2818   16.5270  -31.0409 H   0  0  0  0  0  0  0  0  0  0  0  0
   -4.0545   15.8563  -32.2266 H   0  0  0  0  0  0  0  0  0  0  0  0
   -5.9173   19.4203  -31.4791 H   0  0  0  0  0  0  0  0  0  0  0  0
  1  2  1  0
  2  3  1  0
  2  4  1  0
  2  5  1  0
  5  6  1  0
  6  7  2  0
  6  8  1  0
  8  9  1  0
  9 10  1  0
 10 11  1  0
 10 12  2  0
  9 13  2  0
 13 14  1  0
 14 15  2  0
 15 16  1  0
 16 17  2  0
 17 18  1  0
 18 19  1  0
 19 20  2  0
 20 21  1  0
 21 22  2  0
 22 23  1  0
 22 24  1  0
 17 25  1  0
 25 26  2  0
 26  8  1  0
 26 14  1  0
 24 19  1  0
  1 27  1  0
  1 28  1  0
  1 29  1  0
  3 30  1  0
  3 31  1  0
  3 32  1  0
  4 33  1  0
  4 34  1  0
  4 35  1  0
 11 36  1  0
 11 37  1  0
 13 38  1  0
 15 39  1  0
 16 40  1  0
 18 41  1  0
 18 42  1  0
 20 43  1  0
 21 44  1  0
 25 45  1  0
M  END
>  <UniqueID>  (27) 
26

>  <SMILES>  (27) 
CC(C)(C)OC(=O)n1c(C(N)=O)cc2ccc(Cc3ccc(Cl)s3)cc21

>  <Energy>  (27) 
104.58115934085737

>  <Genealogy>  (27) 
CC(C)(C)OC(=O)n1c(C(N)=O)cc2ccc(Cc3ccc(Cl)s3)cc21 (3D coordinates assigned)
CC(C)(C)OC(=O)n1c(C(N)=O)cc2ccc(Cc3ccc(Cl)s3)cc21 (optimized conformer: 104.58115934085737 kcal/mol)

>  <smiles>  (27) 
CC(C)(C)OC(=O)n1c(C(N)=O)cc2ccc(Cc3ccc(Cl)s3)cc21

>  <score_type>  (27) 
oracle

>  <origin>  (27) 
adg

>  <m_score__min__energy>  (27) 
-9.8900000000000006

>  <m_primary>  (27) 
energy

$$$$
27:0
     RDKit          3D

 48 51  0  0  0  0  0  0  0  0999 V2000
   -4.5910   25.0350  -26.5090 N   0  0  0  0  0  0  0  0  0  0  0  0
   -3.2300   24.6720  -26.7540 C   0  0  0  0  0  0  0  0  0  0  0  0
   -2.3280   25.1490  -26.0170 O   0  0  0  0  0  0  0  0  0  0  0  0
   -2.8840   23.7210  -27.8340 C   0  0  0  0  0  0  0  0  0  0  0  0
   -2.0030   22.6540  -27.6750 C   0  0  0  0  0  0  0  0  0  0  0  0
   -1.8880   22.0870  -28.9240 C   0  0  0  0  0  0  0  0  0  0  0  0
   -1.1500   20.9820  -29.3380 C   0  0  0  0  0  0  0  0  0  0  0  0
   -1.2430   20.5960  -30.6860 C   0  0  0  0  0  0  0  0  0  0  0  0
   -2.0620   21.3190  -31.5880 C   0  0  0  0  0  0  0  0  0  0  0  0
   -2.1910   20.8670  -33.0170 C   0  0  0  0  0  0  0  0  0  0  0  0
   -3.6430   20.9810  -33.4870 C   0  0  0  0  0  0  0  0  0  0  0  0
   -4.2040   19.6570  -33.7310 N   0  0  0  0  0  0  0  0  0  0  0  0
   -5.6090   19.3980  -33.8440 C   0  0  0  0  0  0  0  0  0  0  0  0
   -6.1240   19.2150  -34.9820 O   0  0  0  0  0  0  0  0  0  0  0  0
   -6.4700   19.3400  -32.5970 C   0  0  0  0  0  0  0  0  0  0  0  0
   -7.0480   20.6880  -32.2160 C   0  0  0  0  0  0  0  0  0  0  0  0
   -6.3580   21.8980  -32.2040 C   0  0  0  0  0  0  0  0  0  0  0  0
   -7.1770   23.0060  -31.9590 C   0  0  0  0  0  0  0  0  0  0  0  0
   -8.5190   22.6860  -31.8080 C   0  0  0  0  0  0  0  0  0  0  0  0
   -8.6840   21.0220  -31.9860 S   0  0  0  0  0  0  0  0  0  0  0  0
   -5.7830   18.6190  -31.4250 C   0  0  0  0  0  0  0  0  0  0  0  0
   -6.8070   17.4950  -31.5100 C   0  0  0  0  0  0  0  0  0  0  0  0
   -7.5170   18.2160  -32.6480 C   0  0  0  0  0  0  0  0  0  0  0  0
   -2.8050   22.4290  -31.1290 C   0  0  0  0  0  0  0  0  0  0  0  0
   -2.6800   22.8020  -29.7850 C   0  0  0  0  0  0  0  0  0  0  0  0
   -3.3000   23.8090  -29.1310 N   0  0  0  0  0  0  0  0  0  0  0  0
   -4.2520   24.7320  -29.6870 C   0  0  0  0  0  0  0  0  0  0  0  0
   -5.4500   24.7210  -29.3020 O   0  0  0  0  0  0  0  0  0  0  0  0
   -3.8630   25.6380  -30.6660 O   0  0  0  0  0  0  0  0  0  0  0  0
   -5.3610   24.7050  -27.1320 H   0  0  0  0  0  0  0  0  0  0  0  0
   -4.8280   25.6750  -25.7200 H   0  0  0  0  0  0  0  0  0  0  0  0
   -1.5050   22.3327  -26.7483 H   0  0  0  0  0  0  0  0  0  0  0  0
   -0.5138   20.4281  -28.6320 H   0  0  0  0  0  0  0  0  0  0  0  0
   -0.6749   19.7248  -31.0440 H   0  0  0  0  0  0  0  0  0  0  0  0
   -1.5537   21.4971  -33.6548 H   0  0  0  0  0  0  0  0  0  0  0  0
   -1.8763   19.8153  -33.0869 H   0  0  0  0  0  0  0  0  0  0  0  0
   -4.2360   21.4887  -32.7120 H   0  0  0  0  0  0  0  0  0  0  0  0
   -3.6707   21.5582  -34.4230 H   0  0  0  0  0  0  0  0  0  0  0  0
   -5.2735   21.9752  -32.3711 H   0  0  0  0  0  0  0  0  0  0  0  0
   -6.7929   24.0346  -31.8923 H   0  0  0  0  0  0  0  0  0  0  0  0
   -9.3335   23.3975  -31.6068 H   0  0  0  0  0  0  0  0  0  0  0  0
   -4.7510   18.3023  -31.6364 H   0  0  0  0  0  0  0  0  0  0  0  0
   -5.6126   19.1439  -30.4735 H   0  0  0  0  0  0  0  0  0  0  0  0
   -6.3807   16.5214  -31.7936 H   0  0  0  0  0  0  0  0  0  0  0  0
   -7.3670   17.1871  -30.6147 H   0  0  0  0  0  0  0  0  0  0  0  0
   -7.5283   17.6566  -33.5951 H   0  0  0  0  0  0  0  0  0  0  0  0
   -8.5887   18.4522  -32.5721 H   0  0  0  0  0  0  0  0  0  0  0  0
   -3.4651   22.9863  -31.8099 H   0  0  0  0  0  0  0  0  0  0  0  0
  1  2  1  0
  2  3  2  0
  2  4  1  0
  4  5  2  0
  5  6  1  0
  6  7  2  0
  7  8  1  0
  8  9  2  0
  9 10  1  0
 10 11  1  0
 11 12  1  0
 12 13  1  0
 13 14  2  0
 13 15  1  0
 15 16  1  0
 16 17  2  0
 17 18  1  0
 18 19  2  0
 19 20  1  0
 15 21  1  0
 21 22  1  0
 22 23  1  0
  9 24  1  0
 24 25  2  0
 25 26  1  0
 26 27  1  0
 27 28  2  0
 27 29  1  0
 26  4  1  0
 25  6  1  0
 23 15  1  0
 20 16  1  0
  1 30  1  0
  1 31  1  0
  5 32  1  0
  7 33  1  0
  8 34  1  0
 10 35  1  0
 10 36  1  0
 11 37  1  0
 11 38  1  0
 17 39  1  0
 18 40  1  0
 19 41  1  0
 21 42  1  0
 21 43  1  0
 22 44  1  0
 22 45  1  0
 23 46  1  0
 23 47  1  0
 24 48  1  0
M  CHG  2  12  -1  29  -1
M  END
>  <UniqueID>  (28) 
27

>  <SMILES>  (28) 
NC(=O)c1cc2ccc(CC[N-]C(=O)C3(c4cccs4)CCC3)cc2n1C(=O)[O-]

>  <Energy>  (28) 
174.24270625406223

>  <Genealogy>  (28) 
NC(=O)c1cc2ccc(CC[N-]C(=O)C3(c4cccs4)CCC3)cc2n1C(=O)[O-] (protonated)
NC(=O)c1cc2ccc(CC[N-]C(=O)C3(c4cccs4)CCC3)cc2n1C(=O)[O-] (3D coordinates assigned)
NC(=O)c1cc2ccc(CC[N-]C(=O)C3(c4cccs4)CCC3)cc2n1C(=O)[O-] (nonaromatic ring conformer: 174.24270625406223 kcal/mol)

>  <smiles>  (28) 
NC(=O)c1cc2ccc(CCNC(=O)C3(c4cccs4)CCC3)cc2n1C(=O)O

>  <score_type>  (28) 
oracle

>  <origin>  (28) 
adg

>  <m_score__min__energy>  (28) 
-11

>  <m_primary>  (28) 
energy

$$$$
28:0
     RDKit          3D

104110  0  0  0  0  0  0  0  0999 V2000
    4.9010   19.1810  -32.2560 C   0  0  0  0  0  0  0  0  0  0  0  0
    3.6020   18.6170  -32.7930 C   0  0  0  0  0  0  0  0  0  0  0  0
    2.8720   17.8100  -31.9070 C   0  0  0  0  0  0  0  0  0  0  0  0
    1.6680   17.2340  -32.3020 C   0  0  0  0  0  0  0  0  0  0  0  0
    0.9370   16.4320  -31.4140 C   0  0  0  0  0  0  0  0  0  0  0  0
   -0.2800   15.8740  -31.8090 C   0  0  0  0  0  0  0  0  0  0  0  0
   -0.7870   16.1110  -33.0940 C   0  0  0  0  0  0  0  0  0  0  0  0
   -2.0410   15.5320  -33.5000 N   0  0  0  0  0  0  0  0  0  0  0  0
   -2.5520   15.7780  -34.8550 C   0  0  0  0  0  0  0  0  0  0  0  0
   -3.9510   15.1730  -35.0380 C   0  0  0  0  0  0  0  0  0  0  0  0
   -4.9110   15.5760  -33.8800 C   0  0  0  0  0  0  0  0  0  0  0  0
   -5.3510   17.0090  -33.8830 N   0  0  0  0  0  0  0  0  0  0  0  0
   -4.9190   17.6510  -35.1490 C   0  0  0  0  0  0  0  0  0  0  0  0
   -4.8760   17.8090  -32.7200 C   0  0  0  0  0  0  0  0  0  0  0  0
   -5.8450   18.9550  -32.3400 C   0  0  2  0  0  0  0  0  0  0  0  0
   -7.0780   18.4040  -31.5940 C   0  0  0  0  0  0  0  0  0  0  0  0
   -8.0700   19.5090  -31.1550 C   0  0  0  0  0  0  0  0  0  0  0  0
   -8.0290   20.7880  -32.0380 C   0  0  1  0  0  0  0  0  0  0  0  0
   -7.1600   21.9400  -31.5230 C   0  0  0  0  0  0  0  0  0  0  0  0
   -7.6540   23.2570  -31.2830 C   0  0  0  0  0  0  0  0  0  0  0  0
   -6.8180   24.2590  -30.7630 C   0  0  0  0  0  0  0  0  0  0  0  0
   -5.5010   23.9280  -30.4740 C   0  0  0  0  0  0  0  0  0  0  0  0
   -4.4940   24.6950  -29.9360 C   0  0  0  0  0  0  0  0  0  0  0  0
   -3.3960   23.8410  -29.8360 C   0  0  0  0  0  0  0  0  0  0  0  0
   -2.1280   24.2320  -29.1820 C   0  0  0  0  0  0  0  0  0  0  0  0
   -1.7950   25.6050  -28.9860 N   0  0  0  0  0  0  0  0  0  0  0  0
   -1.3020   23.3420  -28.8410 O   0  0  0  0  0  0  0  0  0  0  0  0
   -3.7080   22.6020  -30.3110 N   0  0  0  0  0  0  0  0  0  0  0  0
   -2.8570   21.4490  -30.4170 C   0  0  0  0  0  0  0  0  0  0  0  0
   -3.0030   20.4880  -29.6130 O   0  0  0  0  0  0  0  0  0  0  0  0
   -1.8550   21.4230  -31.4000 O   0  0  0  0  0  0  0  0  0  0  0  0
   -1.9210   20.7610  -32.6720 C   0  0  0  0  0  0  0  0  0  0  0  0
   -3.1750   21.2050  -33.4490 C   0  0  0  0  0  0  0  0  0  0  0  0
   -0.6720   21.1750  -33.4660 C   0  0  0  0  0  0  0  0  0  0  0  0
   -1.9060   19.2310  -32.4880 C   0  0  0  0  0  0  0  0  0  0  0  0
   -5.0030   22.6730  -30.6930 C   0  0  0  0  0  0  0  0  0  0  0  0
   -5.7990   21.6660  -31.2470 C   0  0  0  0  0  0  0  0  0  0  0  0
   -7.6580   20.4070  -33.4870 C   0  0  0  0  0  0  0  0  0  0  0  0
   -6.2550   19.7820  -33.5890 C   0  0  0  0  0  0  0  0  0  0  0  0
   -4.2680   15.2370  -32.4920 C   0  0  0  0  0  0  0  0  0  0  0  0
   -2.8240   14.7140  -32.5660 C   0  0  0  0  0  0  0  0  0  0  0  0
   -0.0520   16.9100  -33.9860 C   0  0  0  0  0  0  0  0  0  0  0  0
    1.1820   17.4730  -33.5990 C   0  0  0  0  0  0  0  0  0  0  0  0
    1.9420   18.2680  -34.4810 C   0  0  0  0  0  0  0  0  0  0  0  0
    1.4810   18.4970  -35.6360 O   0  0  0  0  0  0  0  0  0  0  0  0
    3.1610   18.7960  -34.0980 N   0  0  0  0  0  0  0  0  0  0  0  0
    3.9140   19.6110  -35.1000 C   0  0  1  0  0  0  0  0  0  0  0  0
    4.5120   18.7050  -36.2000 C   0  0  0  0  0  0  0  0  0  0  0  0
    5.1320   19.5150  -37.3430 C   0  0  0  0  0  0  0  0  0  0  0  0
    4.1390   20.4950  -37.8940 C   0  0  0  0  0  0  0  0  0  0  0  0
    4.1600   20.7950  -39.1170 O   0  0  0  0  0  0  0  0  0  0  0  0
    3.2090   21.1390  -37.0220 N   0  0  0  0  0  0  0  0  0  0  0  0
    3.1100   20.7700  -35.6450 C   0  0  0  0  0  0  0  0  0  0  0  0
    2.3980   21.4630  -34.8710 O   0  0  0  0  0  0  0  0  0  0  0  0
    4.8782   19.1711  -31.1563 H   0  0  0  0  0  0  0  0  0  0  0  0
    5.7418   18.5669  -32.6109 H   0  0  0  0  0  0  0  0  0  0  0  0
    5.0264   20.2146  -32.6109 H   0  0  0  0  0  0  0  0  0  0  0  0
    3.2546   17.6310  -30.8913 H   0  0  0  0  0  0  0  0  0  0  0  0
    1.3241   16.2418  -30.4021 H   0  0  0  0  0  0  0  0  0  0  0  0
   -0.8452   15.2437  -31.1067 H   0  0  0  0  0  0  0  0  0  0  0  0
   -2.6048   16.8631  -35.0272 H   0  0  0  0  0  0  0  0  0  0  0  0
   -1.8700   15.3040  -35.5763 H   0  0  0  0  0  0  0  0  0  0  0  0
   -4.3716   15.5298  -35.9897 H   0  0  0  0  0  0  0  0  0  0  0  0
   -3.8529   14.0774  -35.0353 H   0  0  0  0  0  0  0  0  0  0  0  0
   -5.8194   14.9805  -34.0537 H   0  0  0  0  0  0  0  0  0  0  0  0
   -4.3182   18.5438  -34.9210 H   0  0  0  0  0  0  0  0  0  0  0  0
   -4.3141   16.9412  -35.7323 H   0  0  0  0  0  0  0  0  0  0  0  0
   -5.8044   17.9440  -35.7323 H   0  0  0  0  0  0  0  0  0  0  0  0
   -4.7680   17.1392  -31.8541 H   0  0  0  0  0  0  0  0  0  0  0  0
   -3.9179   18.2682  -33.0049 H   0  0  0  0  0  0  0  0  0  0  0  0
   -5.3173   19.6367  -31.6568 H   0  0  0  0  0  0  0  0  0  0  0  0
   -7.6056   17.7049  -32.2595 H   0  0  0  0  0  0  0  0  0  0  0  0
   -6.7138   17.9104  -30.6809 H   0  0  0  0  0  0  0  0  0  0  0  0
   -9.0881   19.0945  -31.1948 H   0  0  0  0  0  0  0  0  0  0  0  0
   -7.7745   19.8150  -30.1406 H   0  0  0  0  0  0  0  0  0  0  0  0
   -9.0471   21.2019  -31.9928 H   0  0  0  0  0  0  0  0  0  0  0  0
   -8.7049   23.4911  -31.5085 H   0  0  0  0  0  0  0  0  0  0  0  0
   -7.1962   25.2773  -30.5896 H   0  0  0  0  0  0  0  0  0  0  0  0
   -4.5440   25.7551  -29.6466 H   0  0  0  0  0  0  0  0  0  0  0  0
   -1.2310   26.1280  -29.6930 H   0  0  0  0  0  0  0  0  0  0  0  0
   -3.9665   21.4853  -32.7384 H   0  0  0  0  0  0  0  0  0  0  0  0
   -2.9272   22.0700  -34.0817 H   0  0  0  0  0  0  0  0  0  0  0  0
   -3.5267   20.3767  -34.0817 H   0  0  0  0  0  0  0  0  0  0  0  0
    0.1346   21.4424  -32.7675 H   0  0  0  0  0  0  0  0  0  0  0  0
   -0.3457   20.3370  -34.0994 H   0  0  0  0  0  0  0  0  0  0  0  0
   -0.9109   22.0420  -34.0994 H   0  0  0  0  0  0  0  0  0  0  0  0
   -1.9036   18.9908  -31.4145 H   0  0  0  0  0  0  0  0  0  0  0  0
   -2.7999   18.7963  -32.9591 H   0  0  0  0  0  0  0  0  0  0  0  0
   -1.0037   18.8139  -32.9591 H   0  0  0  0  0  0  0  0  0  0  0  0
   -5.3738   20.6752  -31.4652 H   0  0  0  0  0  0  0  0  0  0  0  0
   -8.3957   19.6820  -33.8614 H   0  0  0  0  0  0  0  0  0  0  0  0
   -7.6585   21.3292  -34.0867 H   0  0  0  0  0  0  0  0  0  0  0  0
   -6.2337   19.1188  -34.4664 H   0  0  0  0  0  0  0  0  0  0  0  0
   -5.5392   20.6131  -33.6721 H   0  0  0  0  0  0  0  0  0  0  0  0
   -4.2709   16.1511  -31.8801 H   0  0  0  0  0  0  0  0  0  0  0  0
   -4.8715   14.4258  -32.0587 H   0  0  0  0  0  0  0  0  0  0  0  0
   -2.3669   14.7638  -31.5667 H   0  0  0  0  0  0  0  0  0  0  0  0
   -2.8349   13.6725  -32.9198 H   0  0  0  0  0  0  0  0  0  0  0  0
   -0.4431   17.0984  -34.9967 H   0  0  0  0  0  0  0  0  0  0  0  0
    4.7574   20.0857  -34.5771 H   0  0  0  0  0  0  0  0  0  0  0  0
    5.2912   18.0709  -35.7519 H   0  0  0  0  0  0  0  0  0  0  0  0
    3.6953   18.0993  -36.6196 H   0  0  0  0  0  0  0  0  0  0  0  0
    6.0082   20.0620  -36.9648 H   0  0  0  0  0  0  0  0  0  0  0  0
    5.4319   18.8247  -38.1452 H   0  0  0  0  0  0  0  0  0  0  0  0
  1  2  1  0
  2  3  2  0
  3  4  1  0
  4  5  2  0
  5  6  1  0
  6  7  2  0
  7  8  1  0
  8  9  1  0
  9 10  1  0
 10 11  1  0
 11 12  1  0
 12 13  1  0
 12 14  1  0
 14 15  1  0
 15 16  1  0
 16 17  1  0
 17 18  1  0
 18 19  1  0
 19 20  2  0
 20 21  1  0
 21 22  2  0
 22 23  1  0
 23 24  2  0
 24 25  1  0
 25 26  1  0
 25 27  2  0
 24 28  1  0
 28 29  1  0
 29 30  2  0
 29 31  1  0
 31 32  1  0
 32 33  1  0
 32 34  1  0
 32 35  1  0
 28 36  1  0
 36 37  2  0
 18 38  1  0
 38 39  1  0
 11 40  1  0
 40 41  1  0
  7 42  1  0
 42 43  2  0
 43 44  1  0
 44 45  2  0
 44 46  1  0
 46 47  1  0
 47 48  1  0
 48 49  1  0
 49 50  1  0
 50 51  2  0
 50 52  1  0
 52 53  1  0
 53 54  2  0
 46  2  1  0
 53 47  1  0
 43  4  1  0
 41  8  1  0
 39 15  1  0
 37 19  1  0
 36 22  1  0
  1 55  1  0
  1 56  1  0
  1 57  1  0
  3 58  1  0
  5 59  1  0
  6 60  1  0
  9 61  1  0
  9 62  1  0
 10 63  1  0
 10 64  1  0
 11 65  1  0
 13 66  1  0
 13 67  1  0
 13 68  1  0
 14 69  1  0
 14 70  1  0
 15 71  1  1
 16 72  1  0
 16 73  1  0
 17 74  1  0
 17 75  1  0
 18 76  1  6
 20 77  1  0
 21 78  1  0
 23 79  1  0
 26 80  1  0
 33 81  1  0
 33 82  1  0
 33 83  1  0
 34 84  1  0
 34 85  1  0
 34 86  1  0
 35 87  1  0
 35 88  1  0
 35 89  1  0
 37 90  1  0
 38 91  1  0
 38 92  1  0
 39 93  1  0
 39 94  1  0
 40 95  1  0
 40 96  1  0
 41 97  1  0
 41 98  1  0
 42 99  1  0
 47100  1  1
 48101  1  0
 48102  1  0
 49103  1  0
 49104  1  0
M  CHG  2  26  -1  52  -1
M  END
>  <UniqueID>  (29) 
28

>  <SMILES>  (29) 
Cc1cc2ccc(N3CCC(N(C)CC4CCC(c5ccc6cc(C([NH-])=O)n(C(=O)OC(C)(C)C)c6c5)CC4)CC3)cc2c(=O)n1[C@H]1CCC(=O)[N-]C1=O

>  <Energy>  (29) 
184.29131773368997

>  <Genealogy>  (29) 
Cc1cc2ccc(N3CCC(N(C)CC4CCC(c5ccc6cc(C([NH-])=O)n(C(=O)OC(C)(C)C)c6c5)CC4)CC3)cc2c(=O)n1C1CCC(=O)[N-]C1=O (protonated)
Cc1cc2ccc(N3CCC(N(C)CC4CCC(c5ccc6cc(C([NH-])=O)n(C(=O)OC(C)(C)C)c6c5)CC4)CC3)cc2c(=O)n1[C@H]1CCC(=O)[N-]C1=O (chirality)
Cc1cc2ccc(N3CCC(N(C)CC4CCC(c5ccc6cc(C([NH-])=O)n(C(=O)OC(C)(C)C)c6c5)CC4)CC3)cc2c(=O)n1[C@H]1CCC(=O)[N-]C1=O (3D coordinates assigned)
Cc1cc2ccc(N3CCC(N(C)CC4CCC(c5ccc6cc(C([NH-])=O)n(C(=O)OC(C)(C)C)c6c5)CC4)CC3)cc2c(=O)n1[C@H]1CCC(=O)[N-]C1=O (nonaromatic ring conformer: 184.29131773368997 kcal/mol)

>  <smiles>  (29) 
Cc1cc2ccc(N3CCC(N(C)CC4CCC(c5ccc6cc(C(N)=O)n(C(=O)OC(C)(C)C)c6c5)CC4)CC3)cc2c(=O)n1C1CCC(=O)NC1=O

>  <score_type>  (29) 
oracle

>  <origin>  (29) 
adg

>  <m_score__min__energy>  (29) 
-15.99

>  <m_primary>  (29) 
energy

$$$$
29:0
     RDKit          3D

 36 37  0  0  0  0  0  0  0  0999 V2000
   -6.8510   16.9950  -33.3700 C   0  0  0  0  0  0  0  0  0  0  0  0
   -5.4140   17.2930  -33.2540 N   0  0  0  0  0  0  0  0  0  0  0  0
   -4.6420   16.0460  -33.3960 C   0  0  0  0  0  0  0  0  0  0  0  0
   -5.0120   18.2880  -34.2730 C   0  0  0  0  0  0  0  0  0  0  0  0
   -4.2060   19.4360  -33.6490 C   0  0  0  0  0  0  0  0  0  0  0  0
   -5.1080   20.4360  -32.9740 C   0  0  0  0  0  0  0  0  0  0  0  0
   -6.5150   20.2870  -33.0450 C   0  0  0  0  0  0  0  0  0  0  0  0
   -7.3660   21.2260  -32.4390 C   0  0  0  0  0  0  0  0  0  0  0  0
   -6.7830   22.3090  -31.7870 C   0  0  0  0  0  0  0  0  0  0  0  0
   -7.3710   23.3440  -31.0970 C   0  0  0  0  0  0  0  0  0  0  0  0
   -6.3150   24.1320  -30.6490 C   0  0  0  0  0  0  0  0  0  0  0  0
   -6.5040   25.3960  -29.9120 C   0  0  0  0  0  0  0  0  0  0  0  0
   -5.6130   26.4980  -30.0930 N   0  0  0  0  0  0  0  0  0  0  0  0
   -7.5000   25.5270  -29.1520 O   0  0  0  0  0  0  0  0  0  0  0  0
   -5.1190   23.6010  -31.0330 N   0  0  0  0  0  0  0  0  0  0  0  0
   -3.8060   24.0570  -30.6610 C   0  0  0  0  0  0  0  0  0  0  0  0
   -3.5170   25.2810  -30.7140 O   0  0  0  0  0  0  0  0  0  0  0  0
   -2.8390   23.1490  -30.2480 O   0  0  0  0  0  0  0  0  0  0  0  0
   -5.4230   22.4850  -31.7320 C   0  0  0  0  0  0  0  0  0  0  0  0
   -4.5520   21.5520  -32.3090 C   0  0  0  0  0  0  0  0  0  0  0  0
   -7.2889   16.9042  -32.3650 H   0  0  0  0  0  0  0  0  0  0  0  0
   -7.3513   17.8085  -33.9158 H   0  0  0  0  0  0  0  0  0  0  0  0
   -6.9865   16.0496  -33.9158 H   0  0  0  0  0  0  0  0  0  0  0  0
   -4.3973   15.6507  -32.3991 H   0  0  0  0  0  0  0  0  0  0  0  0
   -5.2398   15.3054  -33.9475 H   0  0  0  0  0  0  0  0  0  0  0  0
   -3.7125   16.2509  -33.9475 H   0  0  0  0  0  0  0  0  0  0  0  0
   -4.3943   17.7901  -35.0350 H   0  0  0  0  0  0  0  0  0  0  0  0
   -5.9230   18.7097  -34.7228 H   0  0  0  0  0  0  0  0  0  0  0  0
   -3.5102   19.0217  -32.9046 H   0  0  0  0  0  0  0  0  0  0  0  0
   -3.6572   19.9505  -34.4516 H   0  0  0  0  0  0  0  0  0  0  0  0
   -6.9453   19.4275  -33.5799 H   0  0  0  0  0  0  0  0  0  0  0  0
   -8.4591   21.1092  -32.4784 H   0  0  0  0  0  0  0  0  0  0  0  0
   -8.4458   23.5126  -30.9343 H   0  0  0  0  0  0  0  0  0  0  0  0
   -4.8790   26.4810  -30.8340 H   0  0  0  0  0  0  0  0  0  0  0  0
   -5.7410   27.3730  -29.5360 H   0  0  0  0  0  0  0  0  0  0  0  0
   -3.4619   21.6848  -32.2460 H   0  0  0  0  0  0  0  0  0  0  0  0
  1  2  1  0
  2  3  1  0
  2  4  1  0
  4  5  1  0
  5  6  1  0
  6  7  2  0
  7  8  1  0
  8  9  2  0
  9 10  1  0
 10 11  2  0
 11 12  1  0
 12 13  1  0
 12 14  2  0
 11 15  1  0
 15 16  1  0
 16 17  2  0
 16 18  1  0
 15 19  1  0
 19 20  2  0
 20  6  1  0
 19  9  1  0
  1 21  1  0
  1 22  1  0
  1 23  1  0
  3 24  1  0
  3 25  1  0
  3 26  1  0
  4 27  1  0
  4 28  1  0
  5 29  1  0
  5 30  1  0
  7 31  1  0
  8 32  1  0
 10 33  1  0
 13 34  1  0
 13 35  1  0
 20 36  1  0
M  CHG  1  18  -1
M  END
>  <UniqueID>  (30) 
29

>  <SMILES>  (30) 
CN(C)CCc1ccc2cc(C(N)=O)n(C(=O)[O-])c2c1

>  <Energy>  (30) 
73.88912240803418

>  <Genealogy>  (30) 
CN(C)CCc1ccc2cc(C(N)=O)n(C(=O)[O-])c2c1 (protonated)
CN(C)CCc1ccc2cc(C(N)=O)n(C(=O)[O-])c2c1 (3D coordinates assigned)
CN(C)CCc1ccc2cc(C(N)=O)n(C(=O)[O-])c2c1 (optimized conformer: 73.88912240803418 kcal/mol)

>  <smiles>  (30) 
CN(C)CCc1ccc2cc(C(N)=O)n(C(=O)O)c2c1

>  <score_type>  (30) 
oracle

>  <origin>  (30) 
adg

>  <m_score__min__energy>  (30) 
-8.8000000000000007

>  <m_primary>  (30) 
energy

$$$$
30:0
     RDKit          3D

 42 44  0  0  0  0  0  0  0  0999 V2000
   -1.9220   21.0600  -32.3310 C   0  0  0  0  0  0  0  0  0  0  0  0
   -2.8210   22.1520  -32.4850 O   0  0  0  0  0  0  0  0  0  0  0  0
   -3.4950   22.7320  -31.4060 C   0  0  0  0  0  0  0  0  0  0  0  0
   -2.8520   23.1490  -30.4050 O   0  0  0  0  0  0  0  0  0  0  0  0
   -4.9280   22.8320  -31.4320 N   0  0  0  0  0  0  0  0  0  0  0  0
   -5.7060   23.8430  -30.9480 C   0  0  0  0  0  0  0  0  0  0  0  0
   -5.2200   25.1290  -30.4040 C   0  0  0  0  0  0  0  0  0  0  0  0
   -3.9640   25.6510  -30.8310 N   0  0  0  0  0  0  0  0  0  0  0  0
   -5.8870   25.7580  -29.5400 O   0  0  0  0  0  0  0  0  0  0  0  0
   -7.0550   23.5400  -31.1110 C   0  0  0  0  0  0  0  0  0  0  0  0
   -7.0790   22.3050  -31.7190 C   0  0  0  0  0  0  0  0  0  0  0  0
   -8.1570   21.5250  -32.1080 C   0  0  0  0  0  0  0  0  0  0  0  0
   -7.8960   20.2770  -32.6950 C   0  0  0  0  0  0  0  0  0  0  0  0
   -6.5580   19.8060  -32.8800 C   0  0  0  0  0  0  0  0  0  0  0  0
   -6.2940   18.4990  -33.4830 N   0  0  0  0  0  0  0  0  0  0  0  0
   -5.0700   18.3240  -34.2970 C   0  0  0  0  0  0  0  0  0  0  0  0
   -4.9160   16.9410  -34.9470 C   0  0  0  0  0  0  0  0  0  0  0  0
   -5.4300   15.8510  -34.1120 N   0  0  0  0  0  0  0  0  0  0  0  0
   -4.6560   15.6600  -32.8740 C   0  0  0  0  0  0  0  0  0  0  0  0
   -6.8630   16.0500  -33.8670 C   0  0  0  0  0  0  0  0  0  0  0  0
   -7.1720   17.3610  -33.1310 C   0  0  0  0  0  0  0  0  0  0  0  0
   -5.4910   20.6530  -32.4650 C   0  0  0  0  0  0  0  0  0  0  0  0
   -5.7870   21.8990  -31.9020 C   0  0  0  0  0  0  0  0  0  0  0  0
   -1.7617   20.8652  -31.2603 H   0  0  0  0  0  0  0  0  0  0  0  0
   -2.3480   20.1644  -32.8068 H   0  0  0  0  0  0  0  0  0  0  0  0
   -0.9613   21.3061  -32.8068 H   0  0  0  0  0  0  0  0  0  0  0  0
   -3.0700   25.2950  -30.4270 H   0  0  0  0  0  0  0  0  0  0  0  0
   -7.9176   24.1559  -30.8168 H   0  0  0  0  0  0  0  0  0  0  0  0
   -9.1894   21.8748  -31.9606 H   0  0  0  0  0  0  0  0  0  0  0  0
   -8.7380   19.6480  -33.0196 H   0  0  0  0  0  0  0  0  0  0  0  0
   -5.0818   19.0781  -35.0977 H   0  0  0  0  0  0  0  0  0  0  0  0
   -4.2219   18.4352  -33.6054 H   0  0  0  0  0  0  0  0  0  0  0  0
   -5.4644   16.9396  -35.9005 H   0  0  0  0  0  0  0  0  0  0  0  0
   -3.8397   16.7644  -35.0897 H   0  0  0  0  0  0  0  0  0  0  0  0
   -5.3098   15.8213  -32.0042 H   0  0  0  0  0  0  0  0  0  0  0  0
   -4.2552   14.6360  -32.8465 H   0  0  0  0  0  0  0  0  0  0  0  0
   -3.8248   16.3800  -32.8465 H   0  0  0  0  0  0  0  0  0  0  0  0
   -7.3854   16.0605  -34.8350 H   0  0  0  0  0  0  0  0  0  0  0  0
   -7.2033   15.2250  -33.2240 H   0  0  0  0  0  0  0  0  0  0  0  0
   -8.2089   17.6459  -33.3626 H   0  0  0  0  0  0  0  0  0  0  0  0
   -7.0016   17.1608  -32.0629 H   0  0  0  0  0  0  0  0  0  0  0  0
   -4.4461   20.3312  -32.5858 H   0  0  0  0  0  0  0  0  0  0  0  0
  1  2  1  0
  2  3  1  0
  3  4  2  0
  3  5  1  0
  5  6  1  0
  6  7  1  0
  7  8  1  0
  7  9  2  0
  6 10  2  0
 10 11  1  0
 11 12  2  0
 12 13  1  0
 13 14  2  0
 14 15  1  0
 15 16  1  0
 16 17  1  0
 17 18  1  0
 18 19  1  0
 18 20  1  0
 20 21  1  0
 14 22  1  0
 22 23  2  0
 23  5  1  0
 23 11  1  0
 21 15  1  0
  1 24  1  0
  1 25  1  0
  1 26  1  0
  8 27  1  0
 10 28  1  0
 12 29  1  0
 13 30  1  0
 16 31  1  0
 16 32  1  0
 17 33  1  0
 17 34  1  0
 19 35  1  0
 19 36  1  0
 19 37  1  0
 20 38  1  0
 20 39  1  0
 21 40  1  0
 21 41  1  0
 22 42  1  0
M  CHG  1   8  -1
M  END
>  <UniqueID>  (31) 
30

>  <SMILES>  (31) 
COC(=O)n1c(C([NH-])=O)cc2ccc(N3CCN(C)CC3)cc21

>  <Energy>  (31) 
90.68373672858402

>  <Genealogy>  (31) 
COC(=O)n1c(C([NH-])=O)cc2ccc(N3CCN(C)CC3)cc21 (protonated)
COC(=O)n1c(C([NH-])=O)cc2ccc(N3CCN(C)CC3)cc21 (3D coordinates assigned)
COC(=O)n1c(C([NH-])=O)cc2ccc(N3CCN(C)CC3)cc21 (nonaromatic ring conformer: 90.68373672858402 kcal/mol)

>  <smiles>  (31) 
COC(=O)n1c(C(N)=O)cc2ccc(N3CCN(C)CC3)cc21

>  <score_type>  (31) 
oracle

>  <origin>  (31) 
adg

>  <m_score__min__energy>  (31) 
-10.119999999999999

>  <m_primary>  (31) 
energy

$$$$
31:0
     RDKit          3D

 30 32  0  0  0  0  0  0  0  0999 V2000
   -1.6050   25.9820  -28.9450 N   0  0  0  0  0  0  0  0  0  0  0  0
   -0.9360   24.7230  -28.9070 C   0  0  0  0  0  0  0  0  0  0  0  0
    0.1060   24.6000  -28.2110 O   0  0  0  0  0  0  0  0  0  0  0  0
   -1.4460   23.5950  -29.7120 C   0  0  0  0  0  0  0  0  0  0  0  0
   -0.6570   22.5160  -30.1090 C   0  0  0  0  0  0  0  0  0  0  0  0
   -1.5140   21.6520  -30.7480 C   0  0  0  0  0  0  0  0  0  0  0  0
   -1.2610   20.4220  -31.3470 C   0  0  0  0  0  0  0  0  0  0  0  0
   -2.3340   19.7530  -31.9580 C   0  0  0  0  0  0  0  0  0  0  0  0
   -3.6330   20.3240  -31.9700 C   0  0  0  0  0  0  0  0  0  0  0  0
   -4.7550   19.6080  -32.6230 C   0  0  0  0  0  0  0  0  0  0  0  0
   -6.0140   19.5580  -32.0020 C   0  0  0  0  0  0  0  0  0  0  0  0
   -7.0670   18.8850  -32.6260 C   0  0  0  0  0  0  0  0  0  0  0  0
   -6.8740   18.2790  -33.8270 N   0  0  0  0  0  0  0  0  0  0  0  0
   -5.6670   18.3030  -34.4510 C   0  0  0  0  0  0  0  0  0  0  0  0
   -4.5850   18.9650  -33.8640 C   0  0  0  0  0  0  0  0  0  0  0  0
   -3.3780   18.9440  -34.4850 F   0  0  0  0  0  0  0  0  0  0  0  0
   -3.8500   21.5750  -31.3460 C   0  0  0  0  0  0  0  0  0  0  0  0
   -2.7650   22.2110  -30.7300 C   0  0  0  0  0  0  0  0  0  0  0  0
   -2.7400   23.4060  -30.0980 N   0  0  0  0  0  0  0  0  0  0  0  0
   -3.8430   24.3150  -29.9440 C   0  0  0  0  0  0  0  0  0  0  0  0
   -4.7820   24.0480  -29.1480 O   0  0  0  0  0  0  0  0  0  0  0  0
   -3.9000   25.4830  -30.6940 O   0  0  0  0  0  0  0  0  0  0  0  0
   -2.6480   26.0340  -28.9620 H   0  0  0  0  0  0  0  0  0  0  0  0
    0.4227   22.3842  -29.9454 H   0  0  0  0  0  0  0  0  0  0  0  0
   -0.2508   19.9866  -31.3422 H   0  0  0  0  0  0  0  0  0  0  0  0
   -2.1656   18.7751  -32.4327 H   0  0  0  0  0  0  0  0  0  0  0  0
   -6.1699   20.0466  -31.0289 H   0  0  0  0  0  0  0  0  0  0  0  0
   -8.0550   18.8454  -32.1440 H   0  0  0  0  0  0  0  0  0  0  0  0
   -5.5412   17.7999  -35.4211 H   0  0  0  0  0  0  0  0  0  0  0  0
   -4.8480   22.0375  -31.3447 H   0  0  0  0  0  0  0  0  0  0  0  0
  1  2  1  0
  2  3  2  0
  2  4  1  0
  4  5  2  0
  5  6  1  0
  6  7  2  0
  7  8  1  0
  8  9  2  0
  9 10  1  0
 10 11  2  0
 11 12  1  0
 12 13  2  0
 13 14  1  0
 14 15  2  0
 15 16  1  0
  9 17  1  0
 17 18  2  0
 18 19  1  0
 19 20  1  0
 20 21  2  0
 20 22  1  0
 19  4  1  0
 18  6  1  0
 15 10  1  0
  1 23  1  0
  5 24  1  0
  7 25  1  0
  8 26  1  0
 11 27  1  0
 12 28  1  0
 14 29  1  0
 17 30  1  0
M  CHG  2   1  -1  22  -1
M  END
>  <UniqueID>  (32) 
31

>  <SMILES>  (32) 
[NH-]C(=O)c1cc2ccc(-c3ccncc3F)cc2n1C(=O)[O-]

>  <Energy>  (32) 
79.4763637688769

>  <Genealogy>  (32) 
[NH-]C(=O)c1cc2ccc(-c3ccncc3F)cc2n1C(=O)[O-] (protonated)
[NH-]C(=O)c1cc2ccc(-c3ccncc3F)cc2n1C(=O)[O-] (3D coordinates assigned)
[NH-]C(=O)c1cc2ccc(-c3ccncc3F)cc2n1C(=O)[O-] (optimized conformer: 79.4763637688769 kcal/mol)

>  <smiles>  (32) 
NC(=O)c1cc2ccc(-c3ccncc3F)cc2n1C(=O)O

>  <score_type>  (32) 
oracle

>  <origin>  (32) 
adg

>  <m_score__min__energy>  (32) 
-10.960000000000001

>  <m_primary>  (32) 
energy

$$$$
32:0
     RDKit          3D

 45 47  0  0  0  0  0  0  0  0999 V2000
   -2.1910   20.7960  -32.6360 C   0  0  0  0  0  0  0  0  0  0  0  0
   -2.8650   22.0450  -32.7540 O   0  0  0  0  0  0  0  0  0  0  0  0
   -3.4690   22.6890  -31.6710 C   0  0  0  0  0  0  0  0  0  0  0  0
   -2.7350   23.1800  -30.7610 O   0  0  0  0  0  0  0  0  0  0  0  0
   -4.9120   22.7710  -31.5770 N   0  0  0  0  0  0  0  0  0  0  0  0
   -5.6530   23.8280  -31.1280 C   0  0  0  0  0  0  0  0  0  0  0  0
   -5.1530   25.0250  -30.4290 C   0  0  0  0  0  0  0  0  0  0  0  0
   -3.9430   25.6530  -30.8410 N   0  0  0  0  0  0  0  0  0  0  0  0
   -5.7390   25.4350  -29.3920 O   0  0  0  0  0  0  0  0  0  0  0  0
   -7.0110   23.6070  -31.3280 C   0  0  0  0  0  0  0  0  0  0  0  0
   -7.0980   22.3550  -31.8810 C   0  0  0  0  0  0  0  0  0  0  0  0
   -8.2250   21.6160  -32.2150 C   0  0  0  0  0  0  0  0  0  0  0  0
   -8.0420   20.3160  -32.7080 C   0  0  0  0  0  0  0  0  0  0  0  0
   -6.7400   19.7660  -32.8560 C   0  0  0  0  0  0  0  0  0  0  0  0
   -6.5640   18.4100  -33.3380 N   0  0  0  0  0  0  0  0  0  0  0  0
   -7.2440   17.2560  -32.7650 C   0  0  0  0  0  0  0  0  0  0  0  0
   -6.8570   16.0500  -33.6190 C   0  0  0  0  0  0  0  0  0  0  0  0
   -5.7490   16.5250  -34.5810 C   0  0  2  0  0  0  0  0  0  0  0  0
   -4.4330   15.8630  -34.3790 N   0  0  0  0  0  0  0  0  0  0  0  0
   -3.2820   16.7790  -34.2770 C   0  0  0  0  0  0  0  0  0  0  0  0
   -4.4640   14.9290  -33.2390 C   0  0  0  0  0  0  0  0  0  0  0  0
   -5.6490   18.0480  -34.4140 C   0  0  0  0  0  0  0  0  0  0  0  0
   -5.6180   20.5630  -32.5100 C   0  0  0  0  0  0  0  0  0  0  0  0
   -5.8250   21.8610  -32.0170 C   0  0  0  0  0  0  0  0  0  0  0  0
   -2.0583   20.5501  -31.5721 H   0  0  0  0  0  0  0  0  0  0  0  0
   -2.7875   20.0101  -33.1224 H   0  0  0  0  0  0  0  0  0  0  0  0
   -1.2067   20.8631  -33.1224 H   0  0  0  0  0  0  0  0  0  0  0  0
   -3.0130   25.2990  -30.5180 H   0  0  0  0  0  0  0  0  0  0  0  0
   -7.8397   24.2911  -31.0927 H   0  0  0  0  0  0  0  0  0  0  0  0
   -9.2336   22.0386  -32.0962 H   0  0  0  0  0  0  0  0  0  0  0  0
   -8.9195   19.7129  -32.9843 H   0  0  0  0  0  0  0  0  0  0  0  0
   -6.9207   17.1034  -31.7247 H   0  0  0  0  0  0  0  0  0  0  0  0
   -8.3342   17.4024  -32.7578 H   0  0  0  0  0  0  0  0  0  0  0  0
   -6.4812   15.2377  -32.9796 H   0  0  0  0  0  0  0  0  0  0  0  0
   -7.7244   15.6640  -34.1745 H   0  0  0  0  0  0  0  0  0  0  0  0
   -6.0232   16.2426  -35.6082 H   0  0  0  0  0  0  0  0  0  0  0  0
   -3.0519   16.9621  -33.2170 H   0  0  0  0  0  0  0  0  0  0  0  0
   -2.4084   16.3264  -34.7689 H   0  0  0  0  0  0  0  0  0  0  0  0
   -3.5270   17.7319  -34.7689 H   0  0  0  0  0  0  0  0  0  0  0  0
   -4.4451   15.4983  -32.2980 H   0  0  0  0  0  0  0  0  0  0  0  0
   -5.3827   14.3257  -33.2842 H   0  0  0  0  0  0  0  0  0  0  0  0
   -3.5874   14.2661  -33.2842 H   0  0  0  0  0  0  0  0  0  0  0  0
   -4.6203   18.3341  -34.1498 H   0  0  0  0  0  0  0  0  0  0  0  0
   -5.9096   18.5675  -35.3479 H   0  0  0  0  0  0  0  0  0  0  0  0
   -4.5979   20.1683  -32.6267 H   0  0  0  0  0  0  0  0  0  0  0  0
  1  2  1  0
  2  3  1  0
  3  4  2  0
  3  5  1  0
  5  6  1  0
  6  7  1  0
  7  8  1  0
  7  9  2  0
  6 10  2  0
 10 11  1  0
 11 12  2  0
 12 13  1  0
 13 14  2  0
 14 15  1  0
 15 16  1  0
 16 17  1  0
 17 18  1  0
 18 19  1  0
 19 20  1  0
 19 21  1  0
 18 22  1  0
 14 23  1  0
 23 24  2  0
 24  5  1  0
 24 11  1  0
 22 15  1  0
  1 25  1  0
  1 26  1  0
  1 27  1  0
  8 28  1  0
 10 29  1  0
 12 30  1  0
 13 31  1  0
 16 32  1  0
 16 33  1  0
 17 34  1  0
 17 35  1  0
 18 36  1  6
 20 37  1  0
 20 38  1  0
 20 39  1  0
 21 40  1  0
 21 41  1  0
 21 42  1  0
 22 43  1  0
 22 44  1  0
 23 45  1  0
M  CHG  1   8  -1
M  END
>  <UniqueID>  (33) 
32

>  <SMILES>  (33) 
COC(=O)n1c(C([NH-])=O)cc2ccc(N3CC[C@H](N(C)C)C3)cc21

>  <Energy>  (33) 
95.53863934057695

>  <Genealogy>  (33) 
COC(=O)n1c(C([NH-])=O)cc2ccc(N3CC[C@H](N(C)C)C3)cc21 (protonated)
COC(=O)n1c(C([NH-])=O)cc2ccc(N3CC[C@H](N(C)C)C3)cc21 (3D coordinates assigned)
COC(=O)n1c(C([NH-])=O)cc2ccc(N3CC[C@H](N(C)C)C3)cc21 (nonaromatic ring conformer: 95.53863934057695 kcal/mol)

>  <smiles>  (33) 
COC(=O)n1c(C(N)=O)cc2ccc(N3CC[C@H](N(C)C)C3)cc21

>  <score_type>  (33) 
oracle

>  <origin>  (33) 
adg

>  <m_score__min__energy>  (33) 
-10.27

>  <m_primary>  (33) 
energy

$$$$
33:0
     RDKit          3D

 48 50  0  0  0  0  0  0  0  0999 V2000
   -2.6130   19.2420  -33.7610 C   0  0  0  0  0  0  0  0  0  0  0  0
   -3.9310   19.1730  -34.2950 O   0  0  0  0  0  0  0  0  0  0  0  0
   -4.8240   18.1110  -34.0720 C   0  0  0  0  0  0  0  0  0  0  0  0
   -4.5720   16.8560  -34.5600 N   0  0  0  0  0  0  0  0  0  0  0  0
   -5.4090   15.8080  -34.3180 C   0  0  0  0  0  0  0  0  0  0  0  0
   -6.5590   15.9910  -33.5550 C   0  0  0  0  0  0  0  0  0  0  0  0
   -6.8520   17.2580  -33.0510 C   0  0  0  0  0  0  0  0  0  0  0  0
   -5.9920   18.3400  -33.3100 C   0  0  0  0  0  0  0  0  0  0  0  0
   -6.3120   19.6850  -32.7690 C   0  0  0  0  0  0  0  0  0  0  0  0
   -7.6550   20.1390  -32.7190 C   0  0  0  0  0  0  0  0  0  0  0  0
   -7.9620   21.4240  -32.2380 C   0  0  0  0  0  0  0  0  0  0  0  0
   -6.9140   22.2260  -31.8020 C   0  0  0  0  0  0  0  0  0  0  0  0
   -6.9290   23.5000  -31.2830 C   0  0  0  0  0  0  0  0  0  0  0  0
   -5.5980   23.8040  -31.0020 C   0  0  0  0  0  0  0  0  0  0  0  0
   -5.1590   25.1340  -30.5190 C   0  0  0  0  0  0  0  0  0  0  0  0
   -3.8920   25.6720  -30.8760 N   0  0  0  0  0  0  0  0  0  0  0  0
   -5.9370   25.8210  -29.8000 O   0  0  0  0  0  0  0  0  0  0  0  0
   -4.7920   22.7510  -31.3280 N   0  0  0  0  0  0  0  0  0  0  0  0
   -3.3740   22.6250  -31.1350 C   0  0  0  0  0  0  0  0  0  0  0  0
   -2.7080   21.8650  -31.8880 O   0  0  0  0  0  0  0  0  0  0  0  0
   -2.7590   23.3140  -30.0760 O   0  0  0  0  0  0  0  0  0  0  0  0
   -2.7380   22.9110  -28.7000 C   0  0  0  0  0  0  0  0  0  0  0  0
   -4.2000   22.7540  -28.2530 C   0  0  0  0  0  0  0  0  0  0  0  0
   -2.0630   23.9820  -27.8250 C   0  0  0  0  0  0  0  0  0  0  0  0
   -2.0220   21.5560  -28.5490 C   0  0  0  0  0  0  0  0  0  0  0  0
   -5.6120   21.7990  -31.8250 C   0  0  0  0  0  0  0  0  0  0  0  0
   -5.2760   20.5240  -32.2940 C   0  0  0  0  0  0  0  0  0  0  0  0
   -2.6620   19.2394  -32.6621 H   0  0  0  0  0  0  0  0  0  0  0  0
   -2.0324   18.3730  -34.1042 H   0  0  0  0  0  0  0  0  0  0  0  0
   -2.1263   20.1669  -34.1042 H   0  0  0  0  0  0  0  0  0  0  0  0
   -3.7190   16.6690  -35.1300 H   0  0  0  0  0  0  0  0  0  0  0  0
   -5.1751   14.8140  -34.7270 H   0  0  0  0  0  0  0  0  0  0  0  0
   -7.2305   15.1439  -33.3515 H   0  0  0  0  0  0  0  0  0  0  0  0
   -7.7594   17.4115  -32.4485 H   0  0  0  0  0  0  0  0  0  0  0  0
   -8.4654   19.4782  -33.0604 H   0  0  0  0  0  0  0  0  0  0  0  0
   -9.0010   21.7840  -32.2077 H   0  0  0  0  0  0  0  0  0  0  0  0
   -7.8068   24.1434  -31.1234 H   0  0  0  0  0  0  0  0  0  0  0  0
   -3.0110   25.2920  -30.4660 H   0  0  0  0  0  0  0  0  0  0  0  0
   -4.2489   22.7487  -27.1541 H   0  0  0  0  0  0  0  0  0  0  0  0
   -4.7947   23.5934  -28.6425 H   0  0  0  0  0  0  0  0  0  0  0  0
   -4.6029   21.8074  -28.6425 H   0  0  0  0  0  0  0  0  0  0  0  0
   -2.2166   23.7383  -26.7634 H   0  0  0  0  0  0  0  0  0  0  0  0
   -0.9851   24.0077  -28.0431 H   0  0  0  0  0  0  0  0  0  0  0  0
   -2.5048   24.9655  -28.0431 H   0  0  0  0  0  0  0  0  0  0  0  0
   -1.8990   21.3233  -27.4810 H   0  0  0  0  0  0  0  0  0  0  0  0
   -2.6219   20.7688  -29.0291 H   0  0  0  0  0  0  0  0  0  0  0  0
   -1.0337   21.6080  -29.0291 H   0  0  0  0  0  0  0  0  0  0  0  0
   -4.2306   20.1818  -32.2935 H   0  0  0  0  0  0  0  0  0  0  0  0
  1  2  1  0
  2  3  1  0
  3  4  2  0
  4  5  1  0
  5  6  2  0
  6  7  1  0
  7  8  2  0
  8  9  1  0
  9 10  2  0
 10 11  1  0
 11 12  2  0
 12 13  1  0
 13 14  2  0
 14 15  1  0
 15 16  1  0
 15 17  2  0
 14 18  1  0
 18 19  1  0
 19 20  2  0
 19 21  1  0
 21 22  1  0
 22 23  1  0
 22 24  1  0
 22 25  1  0
 18 26  1  0
 26 27  2  0
  8  3  1  0
 27  9  1  0
 26 12  1  0
  1 28  1  0
  1 29  1  0
  1 30  1  0
  4 31  1  0
  5 32  1  0
  6 33  1  0
  7 34  1  0
 10 35  1  0
 11 36  1  0
 13 37  1  0
 16 38  1  0
 23 39  1  0
 23 40  1  0
 23 41  1  0
 24 42  1  0
 24 43  1  0
 24 44  1  0
 25 45  1  0
 25 46  1  0
 25 47  1  0
 27 48  1  0
M  CHG  2   4   1  16  -1
M  END
>  <UniqueID>  (34) 
33

>  <SMILES>  (34) 
COc1[nH+]cccc1-c1ccc2cc(C([NH-])=O)n(C(=O)OC(C)(C)C)c2c1

>  <Energy>  (34) 
90.41162982327721

>  <Genealogy>  (34) 
COc1[nH+]cccc1-c1ccc2cc(C([NH-])=O)n(C(=O)OC(C)(C)C)c2c1 (protonated)
COc1[nH+]cccc1-c1ccc2cc(C([NH-])=O)n(C(=O)OC(C)(C)C)c2c1 (3D coordinates assigned)
COc1[nH+]cccc1-c1ccc2cc(C([NH-])=O)n(C(=O)OC(C)(C)C)c2c1 (optimized conformer: 90.41162982327721 kcal/mol)

>  <smiles>  (34) 
COc1ncccc1-c1ccc2cc(C(N)=O)n(C(=O)OC(C)(C)C)c2c1

>  <score_type>  (34) 
oracle

>  <origin>  (34) 
adg

>  <m_score__min__energy>  (34) 
-10.51

>  <m_primary>  (34) 
energy

$$$$
34:0
     RDKit          3D

 28 29  0  0  0  0  0  0  0  0999 V2000
   -2.5300   20.9000  -32.5770 C   0  0  0  0  0  0  0  0  0  0  0  0
   -3.1860   22.1620  -32.6070 O   0  0  0  0  0  0  0  0  0  0  0  0
   -3.7250   22.7590  -31.4640 C   0  0  0  0  0  0  0  0  0  0  0  0
   -2.9690   23.1440  -30.5300 O   0  0  0  0  0  0  0  0  0  0  0  0
   -5.1480   22.9130  -31.3450 N   0  0  0  0  0  0  0  0  0  0  0  0
   -5.8370   24.0370  -30.9990 C   0  0  0  0  0  0  0  0  0  0  0  0
   -5.2490   25.2970  -30.5000 C   0  0  0  0  0  0  0  0  0  0  0  0
   -3.9170   25.6710  -30.8440 N   0  0  0  0  0  0  0  0  0  0  0  0
   -5.9130   26.0310  -29.7200 O   0  0  0  0  0  0  0  0  0  0  0  0
   -7.2090   23.8190  -31.0970 C   0  0  0  0  0  0  0  0  0  0  0  0
   -7.3430   22.5130  -31.5100 C   0  0  0  0  0  0  0  0  0  0  0  0
   -8.4900   21.7700  -31.7680 C   0  0  0  0  0  0  0  0  0  0  0  0
   -8.3310   20.4440  -32.2040 C   0  0  0  0  0  0  0  0  0  0  0  0
   -7.0370   19.8940  -32.3990 C   0  0  0  0  0  0  0  0  0  0  0  0
   -6.8810   18.4580  -32.8320 C   0  0  0  0  0  0  0  0  0  0  0  0
   -6.4670   18.3870  -34.1510 F   0  0  0  0  0  0  0  0  0  0  0  0
   -8.0960   17.8110  -32.7060 F   0  0  0  0  0  0  0  0  0  0  0  0
   -5.9410   17.8110  -32.0490 F   0  0  0  0  0  0  0  0  0  0  0  0
   -5.8970   20.6770  -32.1040 C   0  0  0  0  0  0  0  0  0  0  0  0
   -6.0860   21.9880  -31.6530 C   0  0  0  0  0  0  0  0  0  0  0  0
   -2.3710   20.5941  -31.5324 H   0  0  0  0  0  0  0  0  0  0  0  0
   -3.1528   20.1508  -33.0877 H   0  0  0  0  0  0  0  0  0  0  0  0
   -1.5590   20.9793  -33.0877 H   0  0  0  0  0  0  0  0  0  0  0  0
   -3.0990   25.2940  -30.3140 H   0  0  0  0  0  0  0  0  0  0  0  0
   -8.0148   24.5382  -30.8885 H   0  0  0  0  0  0  0  0  0  0  0  0
   -9.4906   22.2070  -31.6348 H   0  0  0  0  0  0  0  0  0  0  0  0
   -9.2195   19.8248  -32.3965 H   0  0  0  0  0  0  0  0  0  0  0  0
   -4.8845   20.2648  -32.2263 H   0  0  0  0  0  0  0  0  0  0  0  0
  1  2  1  0
  2  3  1  0
  3  4  2  0
  3  5  1  0
  5  6  1  0
  6  7  1  0
  7  8  1  0
  7  9  2  0
  6 10  2  0
 10 11  1  0
 11 12  2  0
 12 13  1  0
 13 14  2  0
 14 15  1  0
 15 16  1  0
 15 17  1  0
 15 18  1  0
 14 19  1  0
 19 20  2  0
 20  5  1  0
 20 11  1  0
  1 21  1  0
  1 22  1  0
  1 23  1  0
  8 24  1  0
 10 25  1  0
 12 26  1  0
 13 27  1  0
 19 28  1  0
M  CHG  1   8  -1
M  END
>  <UniqueID>  (35) 
34

>  <SMILES>  (35) 
COC(=O)n1c(C([NH-])=O)cc2ccc(C(F)(F)F)cc21

>  <Energy>  (35) 
66.32838429759119

>  <Genealogy>  (35) 
COC(=O)n1c(C([NH-])=O)cc2ccc(C(F)(F)F)cc21 (protonated)
COC(=O)n1c(C([NH-])=O)cc2ccc(C(F)(F)F)cc21 (3D coordinates assigned)
COC(=O)n1c(C([NH-])=O)cc2ccc(C(F)(F)F)cc21 (optimized conformer: 66.32838429759119 kcal/mol)

>  <smiles>  (35) 
COC(=O)n1c(C(N)=O)cc2ccc(C(F)(F)F)cc21

>  <score_type>  (35) 
oracle

>  <origin>  (35) 
adg

>  <m_score__min__energy>  (35) 
-8.8300000000000001

>  <m_primary>  (35) 
energy

$$$$
35:0
     RDKit          3D

 33 35  0  0  0  0  0  0  0  0999 V2000
   -3.9640   25.4900  -30.8410 N   0  0  0  0  0  0  0  0  0  0  0  0
   -5.2090   25.0470  -30.3030 C   0  0  0  0  0  0  0  0  0  0  0  0
   -5.7460   25.7030  -29.3720 O   0  0  0  0  0  0  0  0  0  0  0  0
   -5.8410   23.8180  -30.8270 C   0  0  0  0  0  0  0  0  0  0  0  0
   -7.2170   23.6540  -30.9690 C   0  0  0  0  0  0  0  0  0  0  0  0
   -7.3810   22.4080  -31.5290 C   0  0  0  0  0  0  0  0  0  0  0  0
   -8.5440   21.7220  -31.8660 C   0  0  0  0  0  0  0  0  0  0  0  0
   -8.4150   20.4280  -32.3990 C   0  0  0  0  0  0  0  0  0  0  0  0
   -7.1350   19.8480  -32.5850 C   0  0  0  0  0  0  0  0  0  0  0  0
   -7.0100   18.4470  -33.1140 C   0  0  0  0  0  0  0  0  0  0  0  0
   -5.7250   18.2940  -33.8630 C   0  0  0  0  0  0  0  0  0  0  0  0
   -4.6600   18.0260  -33.2450 O   0  0  0  0  0  0  0  0  0  0  0  0
   -5.7090   18.4010  -35.2480 O   0  0  0  0  0  0  0  0  0  0  0  0
   -5.9770   20.5700  -32.2180 C   0  0  0  0  0  0  0  0  0  0  0  0
   -6.1360   21.8630  -31.7080 C   0  0  0  0  0  0  0  0  0  0  0  0
   -5.1810   22.7180  -31.2850 N   0  0  0  0  0  0  0  0  0  0  0  0
   -3.7650   22.4750  -31.2700 C   0  0  0  0  0  0  0  0  0  0  0  0
   -3.0240   23.1470  -30.5030 O   0  0  0  0  0  0  0  0  0  0  0  0
   -3.1740   21.4520  -32.1440 C   0  0  0  0  0  0  0  0  0  0  0  0
   -3.1450   20.0920  -31.9230 C   0  0  0  0  0  0  0  0  0  0  0  0
   -2.5100   19.5240  -32.9620 N   0  0  0  0  0  0  0  0  0  0  0  0
   -2.1750   20.5460  -33.7720 C   0  0  0  0  0  0  0  0  0  0  0  0
   -2.5700   21.7010  -33.2840 O   0  0  0  0  0  0  0  0  0  0  0  0
   -3.0660   25.2980  -30.3450 H   0  0  0  0  0  0  0  0  0  0  0  0
   -8.0055   24.3692  -30.6921 H   0  0  0  0  0  0  0  0  0  0  0  0
   -9.5340   22.1786  -31.7197 H   0  0  0  0  0  0  0  0  0  0  0  0
   -9.3158   19.8599  -32.6744 H   0  0  0  0  0  0  0  0  0  0  0  0
   -7.0280   17.7376  -32.2735 H   0  0  0  0  0  0  0  0  0  0  0  0
   -7.8500   18.2424  -33.7941 H   0  0  0  0  0  0  0  0  0  0  0  0
   -4.9765   20.1269  -32.3304 H   0  0  0  0  0  0  0  0  0  0  0  0
   -3.5657   19.5664  -31.0531 H   0  0  0  0  0  0  0  0  0  0  0  0
   -2.3180   18.5090  -33.1090 H   0  0  0  0  0  0  0  0  0  0  0  0
   -1.6372   20.4290  -34.7244 H   0  0  0  0  0  0  0  0  0  0  0  0
  1  2  1  0
  2  3  2  0
  2  4  1  0
  4  5  2  0
  5  6  1  0
  6  7  2  0
  7  8  1  0
  8  9  2  0
  9 10  1  0
 10 11  1  0
 11 12  2  0
 11 13  1  0
  9 14  1  0
 14 15  2  0
 15 16  1  0
 16 17  1  0
 17 18  2  0
 17 19  1  0
 19 20  2  0
 20 21  1  0
 21 22  2  0
 22 23  1  0
 16  4  1  0
 23 19  1  0
 15  6  1  0
  1 24  1  0
  5 25  1  0
  7 26  1  0
  8 27  1  0
 10 28  1  0
 10 29  1  0
 14 30  1  0
 20 31  1  0
 21 32  1  0
 22 33  1  0
M  CHG  3   1  -1  13  -1  21   1
M  END
>  <UniqueID>  (36) 
35

>  <SMILES>  (36) 
[NH-]C(=O)c1cc2ccc(CC(=O)[O-])cc2n1C(=O)c1c[nH+]co1

>  <Energy>  (36) 
103.12367765810001

>  <Genealogy>  (36) 
[NH-]C(=O)c1cc2ccc(CC(=O)[O-])cc2n1C(=O)c1c[nH+]co1 (protonated)
[NH-]C(=O)c1cc2ccc(CC(=O)[O-])cc2n1C(=O)c1c[nH+]co1 (3D coordinates assigned)
[NH-]C(=O)c1cc2ccc(CC(=O)[O-])cc2n1C(=O)c1c[nH+]co1 (optimized conformer: 103.12367765810001 kcal/mol)

>  <smiles>  (36) 
NC(=O)c1cc2ccc(CC(=O)O)cc2n1C(=O)c1cnco1

>  <score_type>  (36) 
oracle

>  <origin>  (36) 
adg

>  <m_score__min__energy>  (36) 
-9.2400000000000002

>  <m_primary>  (36) 
energy

$$$$
36:0
     RDKit          3D

 66 69  0  0  0  0  0  0  0  0999 V2000
   -5.1140   14.2070  -34.0080 C   0  0  0  0  0  0  0  0  0  0  0  0
   -5.4370   15.6140  -33.6170 C   0  0  0  0  0  0  0  0  0  0  0  0
   -5.7430   16.5280  -34.5750 N   0  0  0  0  0  0  0  0  0  0  0  0
   -6.0380   17.8120  -34.2510 C   0  0  0  0  0  0  0  0  0  0  0  0
   -6.0360   18.2250  -32.9070 C   0  0  0  0  0  0  0  0  0  0  0  0
   -6.3660   19.6300  -32.5230 C   0  0  0  0  0  0  0  0  0  0  0  0
   -7.6930   20.1310  -32.6560 C   0  0  0  0  0  0  0  0  0  0  0  0
   -8.0030   21.4630  -32.3150 C   0  0  0  0  0  0  0  0  0  0  0  0
   -6.9780   22.2670  -31.8270 C   0  0  0  0  0  0  0  0  0  0  0  0
   -6.9930   23.5860  -31.4300 C   0  0  0  0  0  0  0  0  0  0  0  0
   -5.6850   23.8650  -31.0300 C   0  0  0  0  0  0  0  0  0  0  0  0
   -5.2590   25.1450  -30.4360 C   0  0  0  0  0  0  0  0  0  0  0  0
   -3.8850   25.5230  -30.4730 N   0  0  0  0  0  0  0  0  0  0  0  0
   -6.1040   25.9230  -29.9180 O   0  0  0  0  0  0  0  0  0  0  0  0
   -4.8950   22.7650  -31.1880 N   0  0  0  0  0  0  0  0  0  0  0  0
   -3.4810   22.6400  -30.9670 C   0  0  0  0  0  0  0  0  0  0  0  0
   -2.7440   22.2870  -31.9300 O   0  0  0  0  0  0  0  0  0  0  0  0
   -2.8550   22.9970  -29.6250 C   0  0  0  0  0  0  0  0  0  0  0  0
   -1.3280   23.2400  -29.7310 C   0  0  0  0  0  0  0  0  0  0  0  0
   -0.5090   21.9320  -29.8390 C   0  0  0  0  0  0  0  0  0  0  0  0
   -1.4020   20.7670  -29.9900 N   0  0  0  0  0  0  0  0  0  0  0  0
   -0.7400   19.5280  -30.4520 C   0  0  0  0  0  0  0  0  0  0  0  0
   -0.4530   19.4480  -31.9440 C   0  0  0  0  0  0  0  0  0  0  0  0
    0.2900   20.3040  -32.4920 O   0  0  0  0  0  0  0  0  0  0  0  0
   -0.9980   18.3700  -32.7400 N   0  0  0  0  0  0  0  0  0  0  0  0
   -0.8390   16.9720  -32.3200 C   0  0  0  0  0  0  0  0  0  0  0  0
   -1.7570   18.6700  -33.9650 C   0  0  0  0  0  0  0  0  0  0  0  0
   -2.6410   19.9060  -33.7740 C   0  0  0  0  0  0  0  0  0  0  0  0
   -1.8870   21.1250  -34.0410 N   0  0  0  0  0  0  0  0  0  0  0  0
   -2.3330   20.5970  -28.8530 C   0  0  0  0  0  0  0  0  0  0  0  0
   -3.1070   21.9030  -28.5570 C   0  0  0  0  0  0  0  0  0  0  0  0
   -5.7020   21.7980  -31.6700 C   0  0  0  0  0  0  0  0  0  0  0  0
   -5.3590   20.4890  -32.0190 C   0  0  0  0  0  0  0  0  0  0  0  0
   -5.7060   17.2610  -31.9390 C   0  0  0  0  0  0  0  0  0  0  0  0
   -5.4060   15.9890  -32.3090 N   0  0  0  0  0  0  0  0  0  0  0  0
   -4.9741   13.5978  -33.1028 H   0  0  0  0  0  0  0  0  0  0  0  0
   -5.9405   13.7932  -34.6044 H   0  0  0  0  0  0  0  0  0  0  0  0
   -4.1898   14.1951  -34.6044 H   0  0  0  0  0  0  0  0  0  0  0  0
   -6.2802   18.5343  -35.0445 H   0  0  0  0  0  0  0  0  0  0  0  0
   -8.4874   19.4685  -33.0303 H   0  0  0  0  0  0  0  0  0  0  0  0
   -9.0243   21.8548  -32.4312 H   0  0  0  0  0  0  0  0  0  0  0  0
   -7.8522   24.2728  -31.4285 H   0  0  0  0  0  0  0  0  0  0  0  0
   -3.4890   26.0540  -31.2770 H   0  0  0  0  0  0  0  0  0  0  0  0
   -3.3458   23.9313  -29.3148 H   0  0  0  0  0  0  0  0  0  0  0  0
   -1.1323   23.8499  -30.6252 H   0  0  0  0  0  0  0  0  0  0  0  0
   -1.0128   23.7478  -28.8075 H   0  0  0  0  0  0  0  0  0  0  0  0
    0.1552   21.9933  -30.7137 H   0  0  0  0  0  0  0  0  0  0  0  0
    0.0810   21.8078  -28.9189 H   0  0  0  0  0  0  0  0  0  0  0  0
    0.2178   19.4380  -29.9187 H   0  0  0  0  0  0  0  0  0  0  0  0
   -1.4483   18.7136  -30.2397 H   0  0  0  0  0  0  0  0  0  0  0  0
   -0.8328   16.9177  -31.2214 H   0  0  0  0  0  0  0  0  0  0  0  0
   -1.6749   16.3740  -32.7120 H   0  0  0  0  0  0  0  0  0  0  0  0
    0.1099   16.5770  -32.7120 H   0  0  0  0  0  0  0  0  0  0  0  0
   -1.0519   18.8558  -34.7886 H   0  0  0  0  0  0  0  0  0  0  0  0
   -2.4024   17.8099  -34.1969 H   0  0  0  0  0  0  0  0  0  0  0  0
   -3.4942   19.8502  -34.4661 H   0  0  0  0  0  0  0  0  0  0  0  0
   -2.9952   19.9301  -32.7328 H   0  0  0  0  0  0  0  0  0  0  0  0
   -2.5640   21.9200  -34.1060 H   0  0  0  0  0  0  0  0  0  0  0  0
   -1.2870   21.3140  -33.2060 H   0  0  0  0  0  0  0  0  0  0  0  0
   -3.0529   19.8016  -29.0958 H   0  0  0  0  0  0  0  0  0  0  0  0
   -1.7456   20.3331  -27.9612 H   0  0  0  0  0  0  0  0  0  0  0  0
   -4.1832   21.6770  -28.5306 H   0  0  0  0  0  0  0  0  0  0  0  0
   -2.7514   22.2907  -27.5910 H   0  0  0  0  0  0  0  0  0  0  0  0
   -4.3249   20.1320  -31.9043 H   0  0  0  0  0  0  0  0  0  0  0  0
   -5.6906   17.5385  -30.8747 H   0  0  0  0  0  0  0  0  0  0  0  0
   -5.1600   15.2910  -31.5740 H   0  0  0  0  0  0  0  0  0  0  0  0
  1  2  1  0
  2  3  2  0
  3  4  1  0
  4  5  2  0
  5  6  1  0
  6  7  2  0
  7  8  1  0
  8  9  2  0
  9 10  1  0
 10 11  2  0
 11 12  1  0
 12 13  1  0
 12 14  2  0
 11 15  1  0
 15 16  1  0
 16 17  2  0
 16 18  1  0
 18 19  1  0
 19 20  1  0
 20 21  1  0
 21 22  1  0
 22 23  1  0
 23 24  2  0
 23 25  1  0
 25 26  1  0
 25 27  1  0
 27 28  1  0
 28 29  1  0
 21 30  1  0
 30 31  1  0
 15 32  1  0
 32 33  2  0
  5 34  1  0
 34 35  2  0
 35  2  1  0
 33  6  1  0
 32  9  1  0
 31 18  1  0
  1 36  1  0
  1 37  1  0
  1 38  1  0
  4 39  1  0
  7 40  1  0
  8 41  1  0
 10 42  1  0
 13 43  1  0
 18 44  1  0
 19 45  1  0
 19 46  1  0
 20 47  1  0
 20 48  1  0
 22 49  1  0
 22 50  1  0
 26 51  1  0
 26 52  1  0
 26 53  1  0
 27 54  1  0
 27 55  1  0
 28 56  1  0
 28 57  1  0
 29 58  1  0
 29 59  1  0
 30 60  1  0
 30 61  1  0
 31 62  1  0
 31 63  1  0
 33 64  1  0
 34 65  1  0
 35 66  1  0
M  CHG  2  13  -1  35   1
M  END
>  <UniqueID>  (37) 
36

>  <SMILES>  (37) 
Cc1ncc(-c2ccc3cc(C([NH-])=O)n(C(=O)C4CCN(CC(=O)N(C)CCN)CC4)c3c2)c[nH+]1

>  <Energy>  (37) 
118.07566569280733

>  <Genealogy>  (37) 
Cc1ncc(-c2ccc3cc(C([NH-])=O)n(C(=O)C4CCN(CC(=O)N(C)CCN)CC4)c3c2)c[nH+]1 (protonated)
Cc1ncc(-c2ccc3cc(C([NH-])=O)n(C(=O)C4CCN(CC(=O)N(C)CCN)CC4)c3c2)c[nH+]1 (3D coordinates assigned)
Cc1ncc(-c2ccc3cc(C([NH-])=O)n(C(=O)C4CCN(CC(=O)N(C)CCN)CC4)c3c2)c[nH+]1 (nonaromatic ring conformer: 118.07566569280733 kcal/mol)

>  <smiles>  (37) 
Cc1ncc(-c2ccc3cc(C(N)=O)n(C(=O)C4CCN(CC(=O)N(C)CCN)CC4)c3c2)cn1

>  <score_type>  (37) 
oracle

>  <origin>  (37) 
adg

>  <m_score__min__energy>  (37) 
-12.68

>  <m_primary>  (37) 
energy

$$$$
37:0
     RDKit          3D

 36 37  0  0  0  0  0  0  0  0999 V2000
   -3.9180   17.3270  -34.1250 C   0  0  0  0  0  0  0  0  0  0  0  0
   -5.3310   17.2080  -34.2260 O   0  0  0  0  0  0  0  0  0  0  0  0
   -6.1900   18.3100  -34.1310 C   0  0  0  0  0  0  0  0  0  0  0  0
   -6.1030   19.2590  -34.9570 O   0  0  0  0  0  0  0  0  0  0  0  0
   -7.1860   18.3960  -33.0070 C   0  0  1  0  0  0  0  0  0  0  0  0
   -6.8380   17.4280  -31.8700 C   0  0  0  0  0  0  0  0  0  0  0  0
   -7.2950   19.8190  -32.5000 C   0  0  0  0  0  0  0  0  0  0  0  0
   -8.5590   20.4610  -32.3970 C   0  0  0  0  0  0  0  0  0  0  0  0
   -8.6610   21.7790  -31.9230 C   0  0  0  0  0  0  0  0  0  0  0  0
   -7.4880   22.4350  -31.5640 C   0  0  0  0  0  0  0  0  0  0  0  0
   -7.2970   23.7030  -31.0640 C   0  0  0  0  0  0  0  0  0  0  0  0
   -5.9210   23.8270  -30.8850 C   0  0  0  0  0  0  0  0  0  0  0  0
   -5.2620   25.0740  -30.4440 C   0  0  0  0  0  0  0  0  0  0  0  0
   -3.8640   25.2520  -30.6570 N   0  0  0  0  0  0  0  0  0  0  0  0
   -5.9160   25.9740  -29.8540 O   0  0  0  0  0  0  0  0  0  0  0  0
   -5.2880   22.6770  -31.2500 N   0  0  0  0  0  0  0  0  0  0  0  0
   -3.8880   22.3700  -31.1680 C   0  0  0  0  0  0  0  0  0  0  0  0
   -3.2450   22.0650  -29.8530 C   0  0  0  0  0  0  0  0  0  0  0  0
   -3.2010   22.2970  -32.2220 O   0  0  0  0  0  0  0  0  0  0  0  0
   -6.2590   21.8380  -31.6690 C   0  0  0  0  0  0  0  0  0  0  0  0
   -6.1270   20.5230  -32.1260 C   0  0  0  0  0  0  0  0  0  0  0  0
   -3.6270   17.3515  -33.0645 H   0  0  0  0  0  0  0  0  0  0  0  0
   -3.4415   16.4658  -34.6162 H   0  0  0  0  0  0  0  0  0  0  0  0
   -3.5922   18.2558  -34.6162 H   0  0  0  0  0  0  0  0  0  0  0  0
   -8.1673   18.0945  -33.4022 H   0  0  0  0  0  0  0  0  0  0  0  0
   -7.0150   17.9202  -30.9023 H   0  0  0  0  0  0  0  0  0  0  0  0
   -7.4699   16.5308  -31.9460 H   0  0  0  0  0  0  0  0  0  0  0  0
   -5.7795   17.1385  -31.9460 H   0  0  0  0  0  0  0  0  0  0  0  0
   -9.4691   19.9184  -32.6924 H   0  0  0  0  0  0  0  0  0  0  0  0
   -9.6381   22.2772  -31.8382 H   0  0  0  0  0  0  0  0  0  0  0  0
   -8.0676   24.4585  -30.8509 H   0  0  0  0  0  0  0  0  0  0  0  0
   -3.5060   26.0480  -31.2320 H   0  0  0  0  0  0  0  0  0  0  0  0
   -3.9114   22.3811  -29.0369 H   0  0  0  0  0  0  0  0  0  0  0  0
   -3.0602   20.9833  -29.7773 H   0  0  0  0  0  0  0  0  0  0  0  0
   -2.2904   22.6062  -29.7773 H   0  0  0  0  0  0  0  0  0  0  0  0
   -5.1375   20.0472  -32.1930 H   0  0  0  0  0  0  0  0  0  0  0  0
  1  2  1  0
  2  3  1  0
  3  4  2  0
  3  5  1  0
  5  6  1  0
  5  7  1  0
  7  8  2  0
  8  9  1  0
  9 10  2  0
 10 11  1  0
 11 12  2  0
 12 13  1  0
 13 14  1  0
 13 15  2  0
 12 16  1  0
 16 17  1  0
 17 18  1  0
 17 19  2  0
 16 20  1  0
 20 21  2  0
 21  7  1  0
 20 10  1  0
  1 22  1  0
  1 23  1  0
  1 24  1  0
  5 25  1  6
  6 26  1  0
  6 27  1  0
  6 28  1  0
  8 29  1  0
  9 30  1  0
 11 31  1  0
 14 32  1  0
 18 33  1  0
 18 34  1  0
 18 35  1  0
 21 36  1  0
M  CHG  1  14  -1
M  END
>  <UniqueID>  (38) 
37

>  <SMILES>  (38) 
COC(=O)[C@@H](C)c1ccc2cc(C([NH-])=O)n(C(C)=O)c2c1

>  <Energy>  (38) 
70.52260561087859

>  <Genealogy>  (38) 
COC(=O)C(C)c1ccc2cc(C([NH-])=O)n(C(C)=O)c2c1 (protonated)
COC(=O)[C@@H](C)c1ccc2cc(C([NH-])=O)n(C(C)=O)c2c1 (chirality)
COC(=O)[C@@H](C)c1ccc2cc(C([NH-])=O)n(C(C)=O)c2c1 (3D coordinates assigned)
COC(=O)[C@@H](C)c1ccc2cc(C([NH-])=O)n(C(C)=O)c2c1 (optimized conformer: 70.52260561087859 kcal/mol)

>  <smiles>  (38) 
COC(=O)C(C)c1ccc2cc(C(N)=O)n(C(C)=O)c2c1

>  <score_type>  (38) 
oracle

>  <origin>  (38) 
adg

>  <m_score__min__energy>  (38) 
-10.35

>  <m_primary>  (38) 
energy

$$$$
38:0
     RDKit          3D

100107  0  0  0  0  0  0  0  0999 V2000
    0.5660   21.2770  -28.0540 N   0  0  0  0  0  0  0  0  0  0  0  0
    0.1590   20.0470  -28.6480 C   0  0  0  0  0  0  0  0  0  0  0  0
   -0.1190   19.0670  -27.9060 O   0  0  0  0  0  0  0  0  0  0  0  0
    0.1210   19.8880  -30.1170 C   0  0  0  0  0  0  0  0  0  0  0  0
   -0.8100   20.5260  -30.9330 C   0  0  0  0  0  0  0  0  0  0  0  0
   -0.5660   20.0580  -32.2040 C   0  0  0  0  0  0  0  0  0  0  0  0
   -1.1890   20.3700  -33.4100 C   0  0  0  0  0  0  0  0  0  0  0  0
   -0.7140   19.7490  -34.5770 C   0  0  0  0  0  0  0  0  0  0  0  0
    0.3630   18.8310  -34.5190 C   0  0  0  0  0  0  0  0  0  0  0  0
    0.9010   18.2180  -35.7840 C   0  0  0  0  0  0  0  0  0  0  0  0
    1.7970   17.0120  -35.4620 C   0  0  0  0  0  0  0  0  0  0  0  0
    1.0410   15.8380  -34.8000 C   0  0  0  0  0  0  0  0  0  0  0  0
   -0.3850   16.0730  -34.4850 N   0  0  0  0  0  0  0  0  0  0  0  0
   -0.8640   15.4850  -33.2220 C   0  0  0  0  0  0  0  0  0  0  0  0
   -2.3180   15.9190  -32.9240 C   0  0  0  0  0  0  0  0  0  0  0  0
   -2.7890   17.0910  -33.8310 C   0  0  0  0  0  0  0  0  0  0  0  0
   -4.1970   17.4810  -33.5070 N   0  0  0  0  0  0  0  0  0  0  0  0
   -4.9990   17.6540  -34.7490 C   0  0  0  0  0  0  0  0  0  0  0  0
   -6.4980   17.3420  -34.5670 C   0  0  0  0  0  0  0  0  0  0  0  0
   -6.9950   17.7630  -33.2380 N   0  0  0  0  0  0  0  0  0  0  0  0
   -7.0790   19.2430  -33.0270 C   0  0  0  0  0  0  0  0  0  0  0  0
   -5.8210   19.9560  -33.6350 C   0  0  0  0  0  0  0  0  0  0  0  0
   -4.8250   20.4780  -32.5890 C   0  0  0  0  0  0  0  0  0  0  0  0
   -5.5010   21.3370  -31.6100 N   0  0  0  0  0  0  0  0  0  0  0  0
   -4.7250   22.2680  -30.8400 C   0  0  0  0  0  0  0  0  0  0  0  0
   -3.9540   21.8080  -29.7510 C   0  0  0  0  0  0  0  0  0  0  0  0
   -3.1950   22.7370  -29.0420 C   0  0  0  0  0  0  0  0  0  0  0  0
   -3.1770   24.0690  -29.3890 C   0  0  0  0  0  0  0  0  0  0  0  0
   -3.9220   24.5540  -30.4640 C   0  0  0  0  0  0  0  0  0  0  0  0
   -4.7060   23.6420  -31.1920 C   0  0  0  0  0  0  0  0  0  0  0  0
   -5.4520   24.0910  -32.2320 F   0  0  0  0  0  0  0  0  0  0  0  0
   -2.2580   24.7500  -28.4830 C   0  0  0  0  0  0  0  0  0  0  0  0
   -1.9620   25.9730  -28.5270 O   0  0  0  0  0  0  0  0  0  0  0  0
   -1.7100   23.8200  -27.5420 N   0  0  0  0  0  0  0  0  0  0  0  0
   -0.5260   24.0410  -26.7050 C   0  0  2  0  0  0  0  0  0  0  0  0
   -0.8500   25.0490  -25.5880 C   0  0  0  0  0  0  0  0  0  0  0  0
    0.3870   25.3660  -24.7390 C   0  0  0  0  0  0  0  0  0  0  0  0
    1.5230   25.8260  -25.6070 C   0  0  0  0  0  0  0  0  0  0  0  0
    2.4180   26.5720  -25.1290 O   0  0  0  0  0  0  0  0  0  0  0  0
    1.6260   25.3750  -26.9590 N   0  0  0  0  0  0  0  0  0  0  0  0
    0.6380   24.5190  -27.5360 C   0  0  0  0  0  0  0  0  0  0  0  0
    0.7910   24.1080  -28.7170 O   0  0  0  0  0  0  0  0  0  0  0  0
   -2.2870   22.5620  -27.9150 C   0  0  0  0  0  0  0  0  0  0  0  0
   -2.0210   21.4630  -27.3560 O   0  0  0  0  0  0  0  0  0  0  0  0
   -6.9050   21.0940  -31.2660 C   0  0  0  0  0  0  0  0  0  0  0  0
   -7.2640   19.6300  -31.5310 C   0  0  0  0  0  0  0  0  0  0  0  0
   -6.2350   17.0730  -32.1560 C   0  0  0  0  0  0  0  0  0  0  0  0
   -4.8630   16.5210  -32.5980 C   0  0  0  0  0  0  0  0  0  0  0  0
   -2.6140   16.6720  -35.3230 C   0  0  0  0  0  0  0  0  0  0  0  0
   -1.3350   15.8520  -35.5810 C   0  0  0  0  0  0  0  0  0  0  0  0
    0.9820   18.5520  -33.2790 C   0  0  0  0  0  0  0  0  0  0  0  0
    0.4780   19.1730  -32.1290 C   0  0  0  0  0  0  0  0  0  0  0  0
    0.9150   19.0620  -30.8550 N   0  0  0  0  0  0  0  0  0  0  0  0
    2.0540   18.3100  -30.4060 C   0  0  0  0  0  0  0  0  0  0  0  0
    1.9930   17.0560  -30.3140 O   0  0  0  0  0  0  0  0  0  0  0  0
    3.2460   18.9560  -30.1090 O   0  0  0  0  0  0  0  0  0  0  0  0
   -0.0590   22.1160  -28.0740 H   0  0  0  0  0  0  0  0  0  0  0  0
   -1.5783   21.2510  -30.6263 H   0  0  0  0  0  0  0  0  0  0  0  0
   -2.0275   21.0810  -33.4475 H   0  0  0  0  0  0  0  0  0  0  0  0
   -1.1830   19.9779  -35.5453 H   0  0  0  0  0  0  0  0  0  0  0  0
    0.0602   17.8865  -36.4111 H   0  0  0  0  0  0  0  0  0  0  0  0
    1.4991   18.9719  -36.3169 H   0  0  0  0  0  0  0  0  0  0  0  0
    2.2456   16.6520  -36.3997 H   0  0  0  0  0  0  0  0  0  0  0  0
    2.5533   17.3558  -34.7410 H   0  0  0  0  0  0  0  0  0  0  0  0
    1.0964   14.9765  -35.4817 H   0  0  0  0  0  0  0  0  0  0  0  0
    1.5343   15.6807  -33.8295 H   0  0  0  0  0  0  0  0  0  0  0  0
   -0.8245   14.3884  -33.2982 H   0  0  0  0  0  0  0  0  0  0  0  0
   -0.2186   15.8384  -32.4043 H   0  0  0  0  0  0  0  0  0  0  0  0
   -2.9832   15.0581  -33.0867 H   0  0  0  0  0  0  0  0  0  0  0  0
   -2.3549   16.2683  -31.8816 H   0  0  0  0  0  0  0  0  0  0  0  0
   -2.1729   17.9836  -33.6472 H   0  0  0  0  0  0  0  0  0  0  0  0
   -4.8995   18.6969  -35.0842 H   0  0  0  0  0  0  0  0  0  0  0  0
   -4.6085   16.9372  -35.4864 H   0  0  0  0  0  0  0  0  0  0  0  0
   -7.0680   17.8728  -35.3437 H   0  0  0  0  0  0  0  0  0  0  0  0
   -6.6307   16.2532  -34.6499 H   0  0  0  0  0  0  0  0  0  0  0  0
   -7.9797   19.5905  -33.5543 H   0  0  0  0  0  0  0  0  0  0  0  0
   -5.2965   19.2374  -34.2820 H   0  0  0  0  0  0  0  0  0  0  0  0
   -6.1908   20.8342  -34.1845 H   0  0  0  0  0  0  0  0  0  0  0  0
   -4.3701   19.6238  -32.0661 H   0  0  0  0  0  0  0  0  0  0  0  0
   -4.0516   21.0684  -33.1020 H   0  0  0  0  0  0  0  0  0  0  0  0
   -3.9523   20.7446  -29.4695 H   0  0  0  0  0  0  0  0  0  0  0  0
   -3.8967   25.6199  -30.7344 H   0  0  0  0  0  0  0  0  0  0  0  0
   -0.2396   23.0843  -26.2437 H   0  0  0  0  0  0  0  0  0  0  0  0
   -1.2190   25.9800  -26.0430 H   0  0  0  0  0  0  0  0  0  0  0  0
   -1.6128   24.6035  -24.9325 H   0  0  0  0  0  0  0  0  0  0  0  0
    0.1375   26.1601  -24.0199 H   0  0  0  0  0  0  0  0  0  0  0  0
    0.6949   24.4532  -24.2080 H   0  0  0  0  0  0  0  0  0  0  0  0
   -7.0635   21.3208  -30.2014 H   0  0  0  0  0  0  0  0  0  0  0  0
   -7.5450   21.7400  -31.8849 H   0  0  0  0  0  0  0  0  0  0  0  0
   -6.6153   18.9889  -30.9160 H   0  0  0  0  0  0  0  0  0  0  0  0
   -8.3242   19.4894  -31.2735 H   0  0  0  0  0  0  0  0  0  0  0  0
   -6.0708   17.7905  -31.3385 H   0  0  0  0  0  0  0  0  0  0  0  0
   -6.8395   16.2069  -31.8487 H   0  0  0  0  0  0  0  0  0  0  0  0
   -4.2320   16.3620  -31.7111 H   0  0  0  0  0  0  0  0  0  0  0  0
   -5.0119   15.5682  -33.1272 H   0  0  0  0  0  0  0  0  0  0  0  0
   -3.4828   16.0659  -35.6194 H   0  0  0  0  0  0  0  0  0  0  0  0
   -2.5322   17.5967  -35.9131 H   0  0  0  0  0  0  0  0  0  0  0  0
   -1.5892   14.7832  -35.6364 H   0  0  0  0  0  0  0  0  0  0  0  0
   -0.8803   16.1696  -36.5310 H   0  0  0  0  0  0  0  0  0  0  0  0
    1.8383   17.8642  -33.2187 H   0  0  0  0  0  0  0  0  0  0  0  0
  1  2  1  0
  2  3  2  0
  2  4  1  0
  4  5  2  0
  5  6  1  0
  6  7  2  0
  7  8  1  0
  8  9  2  0
  9 10  1  0
 10 11  1  0
 11 12  1  0
 12 13  1  0
 13 14  1  0
 14 15  1  0
 15 16  1  0
 16 17  1  0
 17 18  1  0
 18 19  1  0
 19 20  1  0
 20 21  1  0
 21 22  1  0
 22 23  1  0
 23 24  1  0
 24 25  1  0
 25 26  2  0
 26 27  1  0
 27 28  2  0
 28 29  1  0
 29 30  2  0
 30 31  1  0
 28 32  1  0
 32 33  2  0
 32 34  1  0
 34 35  1  0
 35 36  1  0
 36 37  1  0
 37 38  1  0
 38 39  2  0
 38 40  1  0
 40 41  1  0
 41 42  2  0
 34 43  1  0
 43 44  2  0
 24 45  1  0
 45 46  1  0
 20 47  1  0
 47 48  1  0
 16 49  1  0
 49 50  1  0
  9 51  1  0
 51 52  2  0
 52 53  1  0
 53 54  1  0
 54 55  2  0
 54 56  1  0
 53  4  1  0
 52  6  1  0
 50 13  1  0
 48 17  1  0
 46 21  1  0
 30 25  1  0
 41 35  1  0
 43 27  1  0
  1 57  1  0
  5 58  1  0
  7 59  1  0
  8 60  1  0
 10 61  1  0
 10 62  1  0
 11 63  1  0
 11 64  1  0
 12 65  1  0
 12 66  1  0
 14 67  1  0
 14 68  1  0
 15 69  1  0
 15 70  1  0
 16 71  1  0
 18 72  1  0
 18 73  1  0
 19 74  1  0
 19 75  1  0
 21 76  1  0
 22 77  1  0
 22 78  1  0
 23 79  1  0
 23 80  1  0
 26 81  1  0
 29 82  1  0
 35 83  1  1
 36 84  1  0
 36 85  1  0
 37 86  1  0
 37 87  1  0
 45 88  1  0
 45 89  1  0
 46 90  1  0
 46 91  1  0
 47 92  1  0
 47 93  1  0
 48 94  1  0
 48 95  1  0
 49 96  1  0
 49 97  1  0
 50 98  1  0
 50 99  1  0
 51100  1  0
M  CHG  3   1  -1  40  -1  56  -1
M  END
>  <UniqueID>  (39) 
38

>  <SMILES>  (39) 
[NH-]C(=O)c1cc2ccc(CCCN3CCC(N4CCN(C5CCN(c6cc7c(cc6F)C(=O)N([C@@H]6CCC(=O)[N-]C6=O)C7=O)CC5)CC4)CC3)cc2n1C(=O)[O-]

>  <Energy>  (39) 
220.46617407426552

>  <Genealogy>  (39) 
[NH-]C(=O)c1cc2ccc(CCCN3CCC(N4CCN(C5CCN(c6cc7c(cc6F)C(=O)N(C6CCC(=O)[N-]C6=O)C7=O)CC5)CC4)CC3)cc2n1C(=O)[O-] (protonated)
[NH-]C(=O)c1cc2ccc(CCCN3CCC(N4CCN(C5CCN(c6cc7c(cc6F)C(=O)N([C@@H]6CCC(=O)[N-]C6=O)C7=O)CC5)CC4)CC3)cc2n1C(=O)[O-] (chirality)
[NH-]C(=O)c1cc2ccc(CCCN3CCC(N4CCN(C5CCN(c6cc7c(cc6F)C(=O)N([C@@H]6CCC(=O)[N-]C6=O)C7=O)CC5)CC4)CC3)cc2n1C(=O)[O-] (3D coordinates assigned)
[NH-]C(=O)c1cc2ccc(CCCN3CCC(N4CCN(C5CCN(c6cc7c(cc6F)C(=O)N([C@@H]6CCC(=O)[N-]C6=O)C7=O)CC5)CC4)CC3)cc2n1C(=O)[O-] (nonaromatic ring conformer: 220.46617407426552 kcal/mol)

>  <smiles>  (39) 
NC(=O)c1cc2ccc(CCCN3CCC(N4CCN(C5CCN(c6cc7c(cc6F)C(=O)N(C6CCC(=O)NC6=O)C7=O)CC5)CC4)CC3)cc2n1C(=O)O

>  <score_type>  (39) 
oracle

>  <origin>  (39) 
adg

>  <m_score__min__energy>  (39) 
-15.109999999999999

>  <m_primary>  (39) 
energy

$$$$
39:0
     RDKit          3D

 32 33  0  0  0  0  0  0  0  0999 V2000
   -3.6430   21.5980  -33.0870 C   0  0  0  0  0  0  0  0  0  0  0  0
   -4.1040   22.3890  -31.9040 C   0  0  0  0  0  0  0  0  0  0  0  0
   -3.2560   23.0250  -31.2230 O   0  0  0  0  0  0  0  0  0  0  0  0
   -5.4930   22.4360  -31.5400 N   0  0  0  0  0  0  0  0  0  0  0  0
   -6.1320   23.4210  -30.8490 C   0  0  0  0  0  0  0  0  0  0  0  0
   -5.5240   24.7080  -30.4380 C   0  0  0  0  0  0  0  0  0  0  0  0
   -5.8220   25.2870  -29.1660 N   0  0  0  0  0  0  0  0  0  0  0  0
   -4.7490   25.3190  -31.2200 O   0  0  0  0  0  0  0  0  0  0  0  0
   -7.4680   23.0830  -30.6420 C   0  0  0  0  0  0  0  0  0  0  0  0
   -7.6280   21.8470  -31.2260 C   0  0  0  0  0  0  0  0  0  0  0  0
   -8.7550   21.0340  -31.3090 C   0  0  0  0  0  0  0  0  0  0  0  0
   -8.6250   19.7910  -31.9500 C   0  0  0  0  0  0  0  0  0  0  0  0
   -7.3760   19.3780  -32.4780 C   0  0  0  0  0  0  0  0  0  0  0  0
   -7.2500   18.0510  -33.1770 C   0  0  0  0  0  0  0  0  0  0  0  0
   -6.0050   18.0060  -34.0680 C   0  0  0  0  0  0  0  0  0  0  0  0
   -6.1000   18.9470  -35.1040 O   0  0  0  0  0  0  0  0  0  0  0  0
   -6.2560   20.2330  -32.3810 C   0  0  0  0  0  0  0  0  0  0  0  0
   -6.4200   21.4760  -31.7590 C   0  0  0  0  0  0  0  0  0  0  0  0
   -3.1170   20.6955  -32.7422 H   0  0  0  0  0  0  0  0  0  0  0  0
   -4.5125   21.3062  -33.6943 H   0  0  0  0  0  0  0  0  0  0  0  0
   -2.9605   22.2107  -33.6943 H   0  0  0  0  0  0  0  0  0  0  0  0
   -5.4160   26.2130  -28.9050 H   0  0  0  0  0  0  0  0  0  0  0  0
   -6.4050   24.7850  -28.4610 H   0  0  0  0  0  0  0  0  0  0  0  0
   -8.2330   23.6782  -30.1218 H   0  0  0  0  0  0  0  0  0  0  0  0
   -9.7180   21.3553  -30.8855 H   0  0  0  0  0  0  0  0  0  0  0  0
   -9.5007   19.1318  -32.0432 H   0  0  0  0  0  0  0  0  0  0  0  0
   -7.1792   17.2540  -32.4222 H   0  0  0  0  0  0  0  0  0  0  0  0
   -8.1365   17.9083  -33.8125 H   0  0  0  0  0  0  0  0  0  0  0  0
   -5.1169   18.2291  -33.4584 H   0  0  0  0  0  0  0  0  0  0  0  0
   -5.9236   17.0019  -34.5098 H   0  0  0  0  0  0  0  0  0  0  0  0
   -7.0230   19.3090  -35.0770 H   0  0  0  0  0  0  0  0  0  0  0  0
   -5.2787   19.9294  -32.7844 H   0  0  0  0  0  0  0  0  0  0  0  0
  1  2  1  0
  2  3  2  0
  2  4  1  0
  4  5  1  0
  5  6  1  0
  6  7  1  0
  6  8  2  0
  5  9  2  0
  9 10  1  0
 10 11  2  0
 11 12  1  0
 12 13  2  0
 13 14  1  0
 14 15  1  0
 15 16  1  0
 13 17  1  0
 17 18  2  0
 18  4  1  0
 18 10  1  0
  1 19  1  0
  1 20  1  0
  1 21  1  0
  7 22  1  0
  7 23  1  0
  9 24  1  0
 11 25  1  0
 12 26  1  0
 14 27  1  0
 14 28  1  0
 15 29  1  0
 15 30  1  0
 16 31  1  0
 17 32  1  0
M  END
>  <UniqueID>  (40) 
39

>  <SMILES>  (40) 
CC(=O)n1c(C(N)=O)cc2ccc(CCO)cc21

>  <Energy>  (40) 
67.58235358264332

>  <Genealogy>  (40) 
CC(=O)n1c(C(N)=O)cc2ccc(CCO)cc21 (3D coordinates assigned)
CC(=O)n1c(C(N)=O)cc2ccc(CCO)cc21 (optimized conformer: 67.58235358264332 kcal/mol)

>  <smiles>  (40) 
CC(=O)n1c(C(N)=O)cc2ccc(CCO)cc21

>  <score_type>  (40) 
oracle

>  <origin>  (40) 
adg

>  <m_score__min__energy>  (40) 
-8.2799999999999994

>  <m_primary>  (40) 
energy

$$$$
40:0
     RDKit          3D

 35 37  0  0  0  0  0  0  0  0999 V2000
   -3.5390   13.8750  -34.6740 C   0  0  0  0  0  0  0  0  0  0  0  0
   -4.7980   14.5050  -34.8770 O   0  0  0  0  0  0  0  0  0  0  0  0
   -5.1510   15.7590  -34.3530 C   0  0  0  0  0  0  0  0  0  0  0  0
   -6.0450   15.9000  -33.2750 C   0  0  0  0  0  0  0  0  0  0  0  0
   -6.3670   17.1700  -32.7870 C   0  0  0  0  0  0  0  0  0  0  0  0
   -5.8040   18.3220  -33.3630 C   0  0  0  0  0  0  0  0  0  0  0  0
   -6.1460   19.6700  -32.8440 C   0  0  0  0  0  0  0  0  0  0  0  0
   -7.4950   20.1110  -32.8250 C   0  0  0  0  0  0  0  0  0  0  0  0
   -7.8310   21.3810  -32.3260 C   0  0  0  0  0  0  0  0  0  0  0  0
   -6.8010   22.1910  -31.8600 C   0  0  0  0  0  0  0  0  0  0  0  0
   -6.8500   23.4480  -31.3010 C   0  0  0  0  0  0  0  0  0  0  0  0
   -5.5280   23.7720  -31.0070 C   0  0  0  0  0  0  0  0  0  0  0  0
   -5.1150   25.0850  -30.4700 C   0  0  0  0  0  0  0  0  0  0  0  0
   -3.8720   25.6720  -30.8430 N   0  0  0  0  0  0  0  0  0  0  0  0
   -5.8930   25.7210  -29.7100 O   0  0  0  0  0  0  0  0  0  0  0  0
   -4.6950   22.7530  -31.3610 N   0  0  0  0  0  0  0  0  0  0  0  0
   -3.2780   22.6580  -31.1380 C   0  0  0  0  0  0  0  0  0  0  0  0
   -2.7600   23.1700  -30.1110 O   0  0  0  0  0  0  0  0  0  0  0  0
   -2.4630   22.0250  -32.0670 O   0  0  0  0  0  0  0  0  0  0  0  0
   -5.4900   21.7940  -31.8850 C   0  0  0  0  0  0  0  0  0  0  0  0
   -5.1290   20.5270  -32.3600 C   0  0  0  0  0  0  0  0  0  0  0  0
   -4.9120   18.1750  -34.4400 C   0  0  0  0  0  0  0  0  0  0  0  0
   -4.5890   16.9050  -34.9280 C   0  0  0  0  0  0  0  0  0  0  0  0
   -3.7300   16.7880  -35.9710 F   0  0  0  0  0  0  0  0  0  0  0  0
   -3.3468   13.7788  -33.5952 H   0  0  0  0  0  0  0  0  0  0  0  0
   -3.5502   12.8763  -35.1349 H   0  0  0  0  0  0  0  0  0  0  0  0
   -2.7464   14.4827  -35.1349 H   0  0  0  0  0  0  0  0  0  0  0  0
   -6.4924   15.0069  -32.8144 H   0  0  0  0  0  0  0  0  0  0  0  0
   -7.0674   17.2686  -31.9445 H   0  0  0  0  0  0  0  0  0  0  0  0
   -8.2876   19.4502  -33.2058 H   0  0  0  0  0  0  0  0  0  0  0  0
   -8.8760   21.7237  -32.3046 H   0  0  0  0  0  0  0  0  0  0  0  0
   -7.7433   24.0651  -31.1242 H   0  0  0  0  0  0  0  0  0  0  0  0
   -2.9680   25.2900  -30.4850 H   0  0  0  0  0  0  0  0  0  0  0  0
   -4.0773   20.2047  -32.3570 H   0  0  0  0  0  0  0  0  0  0  0  0
   -4.4643   19.0669  -34.9027 H   0  0  0  0  0  0  0  0  0  0  0  0
  1  2  1  0
  2  3  1  0
  3  4  2  0
  4  5  1  0
  5  6  2  0
  6  7  1  0
  7  8  2  0
  8  9  1  0
  9 10  2  0
 10 11  1  0
 11 12  2  0
 12 13  1  0
 13 14  1  0
 13 15  2  0
 12 16  1  0
 16 17  1  0
 17 18  2  0
 17 19  1  0
 16 20  1  0
 20 21  2  0
  6 22  1  0
 22 23  2  0
 23 24  1  0
 23  3  1  0
 21  7  1  0
 20 10  1  0
  1 25  1  0
  1 26  1  0
  1 27  1  0
  4 28  1  0
  5 29  1  0
  8 30  1  0
  9 31  1  0
 11 32  1  0
 14 33  1  0
 21 34  1  0
 22 35  1  0
M  CHG  2  14  -1  19  -1
M  END
>  <UniqueID>  (41) 
40

>  <SMILES>  (41) 
COc1ccc(-c2ccc3cc(C([NH-])=O)n(C(=O)[O-])c3c2)cc1F

>  <Energy>  (41) 
82.52101745220735

>  <Genealogy>  (41) 
COc1ccc(-c2ccc3cc(C([NH-])=O)n(C(=O)[O-])c3c2)cc1F (protonated)
COc1ccc(-c2ccc3cc(C([NH-])=O)n(C(=O)[O-])c3c2)cc1F (3D coordinates assigned)
COc1ccc(-c2ccc3cc(C([NH-])=O)n(C(=O)[O-])c3c2)cc1F (optimized conformer: 82.52101745220735 kcal/mol)

>  <smiles>  (41) 
COc1ccc(-c2ccc3cc(C(N)=O)n(C(=O)O)c3c2)cc1F

>  <score_type>  (41) 
oracle

>  <origin>  (41) 
adg

>  <m_score__min__energy>  (41) 
-10.52

>  <m_primary>  (41) 
energy

$$$$
41:0
     RDKit          3D

 24 25  0  0  0  0  0  0  0  0999 V2000
   -1.6100   25.6970  -28.9680 N   0  0  0  0  0  0  0  0  0  0  0  0
   -1.0420   24.4070  -29.1760 C   0  0  0  0  0  0  0  0  0  0  0  0
    0.0380   24.1090  -28.6010 O   0  0  0  0  0  0  0  0  0  0  0  0
   -1.7320   23.3980  -30.0070 C   0  0  0  0  0  0  0  0  0  0  0  0
   -1.1140   22.2400  -30.4740 C   0  0  0  0  0  0  0  0  0  0  0  0
   -2.1030   21.5320  -31.1150 C   0  0  0  0  0  0  0  0  0  0  0  0
   -2.0460   20.3030  -31.7650 C   0  0  0  0  0  0  0  0  0  0  0  0
   -3.2210   19.8170  -32.3610 C   0  0  0  0  0  0  0  0  0  0  0  0
   -4.4210   20.5730  -32.3190 C   0  0  0  0  0  0  0  0  0  0  0  0
   -5.6860   20.0220  -32.9290 C   0  0  0  0  0  0  0  0  0  0  0  0
   -6.2360   19.0470  -32.1150 F   0  0  0  0  0  0  0  0  0  0  0  0
   -5.3930   19.4680  -34.1610 F   0  0  0  0  0  0  0  0  0  0  0  0
   -6.6260   21.0250  -33.0970 F   0  0  0  0  0  0  0  0  0  0  0  0
   -4.4440   21.8070  -31.6290 C   0  0  0  0  0  0  0  0  0  0  0  0
   -3.2630   22.2580  -31.0280 C   0  0  0  0  0  0  0  0  0  0  0  0
   -3.0500   23.4100  -30.3530 N   0  0  0  0  0  0  0  0  0  0  0  0
   -4.0030   24.4640  -30.1410 C   0  0  0  0  0  0  0  0  0  0  0  0
   -4.9840   24.2910  -29.3700 O   0  0  0  0  0  0  0  0  0  0  0  0
   -3.8670   25.6760  -30.8060 O   0  0  0  0  0  0  0  0  0  0  0  0
   -2.6450   25.8370  -28.9770 H   0  0  0  0  0  0  0  0  0  0  0  0
   -0.0588   21.9531  -30.3551 H   0  0  0  0  0  0  0  0  0  0  0  0
   -1.1086   19.7293  -31.8106 H   0  0  0  0  0  0  0  0  0  0  0  0
   -3.2110   18.8397  -32.8658 H   0  0  0  0  0  0  0  0  0  0  0  0
   -5.3689   22.3991  -31.5659 H   0  0  0  0  0  0  0  0  0  0  0  0
  1  2  1  0
  2  3  2  0
  2  4  1  0
  4  5  2  0
  5  6  1  0
  6  7  2  0
  7  8  1  0
  8  9  2  0
  9 10  1  0
 10 11  1  0
 10 12  1  0
 10 13  1  0
  9 14  1  0
 14 15  2  0
 15 16  1  0
 16 17  1  0
 17 18  2  0
 17 19  1  0
 16  4  1  0
 15  6  1  0
  1 20  1  0
  5 21  1  0
  7 22  1  0
  8 23  1  0
 14 24  1  0
M  CHG  2   1  -1  19  -1
M  END
>  <UniqueID>  (42) 
41

>  <SMILES>  (42) 
[NH-]C(=O)c1cc2ccc(C(F)(F)F)cc2n1C(=O)[O-]

>  <Energy>  (42) 
65.24609164429664

>  <Genealogy>  (42) 
[NH-]C(=O)c1cc2ccc(C(F)(F)F)cc2n1C(=O)[O-] (protonated)
[NH-]C(=O)c1cc2ccc(C(F)(F)F)cc2n1C(=O)[O-] (3D coordinates assigned)
[NH-]C(=O)c1cc2ccc(C(F)(F)F)cc2n1C(=O)[O-] (optimized conformer: 65.24609164429664 kcal/mol)

>  <smiles>  (42) 
NC(=O)c1cc2ccc(C(F)(F)F)cc2n1C(=O)O

>  <score_type>  (42) 
oracle

>  <origin>  (42) 
adg

>  <m_score__min__energy>  (42) 
-9.4900000000000002

>  <m_primary>  (42) 
energy

$$$$
42:0
     RDKit          3D

 52 54  0  0  0  0  0  0  0  0999 V2000
   -4.2430   18.5430  -33.4970 C   0  0  0  0  0  0  0  0  0  0  0  0
   -5.6680   18.4220  -33.8820 N   0  0  0  0  0  0  0  0  0  0  0  0
   -5.7320   18.1970  -35.3430 C   0  0  0  0  0  0  0  0  0  0  0  0
   -6.4900   17.4740  -33.0350 C   0  0  0  0  0  0  0  0  0  0  0  0
   -6.8330   16.1500  -33.7850 C   0  0  0  0  0  0  0  0  0  0  0  0
   -5.7700   17.0570  -31.7220 C   0  0  0  0  0  0  0  0  0  0  0  0
   -7.8760   18.1240  -32.7180 C   0  0  0  0  0  0  0  0  0  0  0  0
   -7.8580   19.5880  -32.3540 C   0  0  0  0  0  0  0  0  0  0  0  0
   -9.0660   20.3280  -32.3460 C   0  0  0  0  0  0  0  0  0  0  0  0
   -9.0740   21.6790  -31.9650 C   0  0  0  0  0  0  0  0  0  0  0  0
   -7.8640   22.2630  -31.6000 C   0  0  0  0  0  0  0  0  0  0  0  0
   -7.6100   23.5380  -31.1560 C   0  0  0  0  0  0  0  0  0  0  0  0
   -6.2400   23.5750  -30.9230 C   0  0  0  0  0  0  0  0  0  0  0  0
   -5.5410   24.7850  -30.4620 C   0  0  0  0  0  0  0  0  0  0  0  0
   -5.8610   25.3750  -29.2030 N   0  0  0  0  0  0  0  0  0  0  0  0
   -4.6140   25.2730  -31.1630 O   0  0  0  0  0  0  0  0  0  0  0  0
   -5.6600   22.3700  -31.1920 N   0  0  0  0  0  0  0  0  0  0  0  0
   -4.2860   22.0010  -30.9450 C   0  0  0  0  0  0  0  0  0  0  0  0
   -3.5080   21.7500  -31.9080 O   0  0  0  0  0  0  0  0  0  0  0  0
   -3.8030   21.9540  -29.6290 O   0  0  0  0  0  0  0  0  0  0  0  0
   -3.2040   23.0270  -28.9590 C   0  0  0  0  0  0  0  0  0  0  0  0
   -3.5860   23.4080  -27.6600 C   0  0  0  0  0  0  0  0  0  0  0  0
   -2.9770   24.5070  -27.0500 C   0  0  0  0  0  0  0  0  0  0  0  0
   -1.9790   25.2050  -27.7390 C   0  0  0  0  0  0  0  0  0  0  0  0
   -1.6280   24.8300  -28.9990 N   0  0  0  0  0  0  0  0  0  0  0  0
   -2.2200   23.7730  -29.6190 C   0  0  0  0  0  0  0  0  0  0  0  0
   -6.6770   21.5710  -31.6100 C   0  0  0  0  0  0  0  0  0  0  0  0
   -6.6470   20.2140  -31.9750 C   0  0  0  0  0  0  0  0  0  0  0  0
   -4.1588   18.5501  -32.4002 H   0  0  0  0  0  0  0  0  0  0  0  0
   -3.6799   17.6894  -33.9024 H   0  0  0  0  0  0  0  0  0  0  0  0
   -3.8319   19.4793  -33.9024 H   0  0  0  0  0  0  0  0  0  0  0  0
   -6.0280   17.1563  -35.5411 H   0  0  0  0  0  0  0  0  0  0  0  0
   -6.4717   18.8795  -35.7870 H   0  0  0  0  0  0  0  0  0  0  0  0
   -4.7439   18.3880  -35.7870 H   0  0  0  0  0  0  0  0  0  0  0  0
   -7.0387   15.3561  -33.0520 H   0  0  0  0  0  0  0  0  0  0  0  0
   -7.7205   16.3054  -34.4160 H   0  0  0  0  0  0  0  0  0  0  0  0
   -5.9817   15.8549  -34.4160 H   0  0  0  0  0  0  0  0  0  0  0  0
   -6.3582   17.3977  -30.8572 H   0  0  0  0  0  0  0  0  0  0  0  0
   -5.6713   15.9619  -31.6898 H   0  0  0  0  0  0  0  0  0  0  0  0
   -4.7710   17.5163  -31.6898 H   0  0  0  0  0  0  0  0  0  0  0  0
   -8.5126   18.0072  -33.6074 H   0  0  0  0  0  0  0  0  0  0  0  0
   -8.2475   17.6030  -31.8233 H   0  0  0  0  0  0  0  0  0  0  0  0
  -10.0063   19.8394  -32.6411 H   0  0  0  0  0  0  0  0  0  0  0  0
  -10.0086   22.2591  -31.9551 H   0  0  0  0  0  0  0  0  0  0  0  0
   -8.3344   24.3537  -31.0152 H   0  0  0  0  0  0  0  0  0  0  0  0
   -6.5490   24.9320  -28.5480 H   0  0  0  0  0  0  0  0  0  0  0  0
   -5.3900   26.2580  -28.9070 H   0  0  0  0  0  0  0  0  0  0  0  0
   -4.3629   22.8415  -27.1256 H   0  0  0  0  0  0  0  0  0  0  0  0
   -3.2785   24.8202  -26.0395 H   0  0  0  0  0  0  0  0  0  0  0  0
   -1.4770   26.0590  -27.2608 H   0  0  0  0  0  0  0  0  0  0  0  0
   -1.9240   23.5034  -30.6436 H   0  0  0  0  0  0  0  0  0  0  0  0
   -5.7022   19.6507  -31.9662 H   0  0  0  0  0  0  0  0  0  0  0  0
  1  2  1  0
  2  3  1  0
  2  4  1  0
  4  5  1  0
  4  6  1  0
  4  7  1  0
  7  8  1  0
  8  9  2  0
  9 10  1  0
 10 11  2  0
 11 12  1  0
 12 13  2  0
 13 14  1  0
 14 15  1  0
 14 16  2  0
 13 17  1  0
 17 18  1  0
 18 19  2  0
 18 20  1  0
 20 21  1  0
 21 22  2  0
 22 23  1  0
 23 24  2  0
 24 25  1  0
 25 26  2  0
 17 27  1  0
 27 28  2  0
 28  8  1  0
 27 11  1  0
 26 21  1  0
  1 29  1  0
  1 30  1  0
  1 31  1  0
  3 32  1  0
  3 33  1  0
  3 34  1  0
  5 35  1  0
  5 36  1  0
  5 37  1  0
  6 38  1  0
  6 39  1  0
  6 40  1  0
  7 41  1  0
  7 42  1  0
  9 43  1  0
 10 44  1  0
 12 45  1  0
 15 46  1  0
 15 47  1  0
 22 48  1  0
 23 49  1  0
 24 50  1  0
 26 51  1  0
 28 52  1  0
M  END
>  <UniqueID>  (43) 
42

>  <SMILES>  (43) 
CN(C)C(C)(C)Cc1ccc2cc(C(N)=O)n(C(=O)Oc3cccnc3)c2c1

>  <Energy>  (43) 
112.78901594435689

>  <Genealogy>  (43) 
CN(C)C(C)(C)Cc1ccc2cc(C(N)=O)n(C(=O)Oc3cccnc3)c2c1 (3D coordinates assigned)
CN(C)C(C)(C)Cc1ccc2cc(C(N)=O)n(C(=O)Oc3cccnc3)c2c1 (optimized conformer: 112.78901594435689 kcal/mol)

>  <smiles>  (43) 
CN(C)C(C)(C)Cc1ccc2cc(C(N)=O)n(C(=O)Oc3cccnc3)c2c1

>  <score_type>  (43) 
oracle

>  <origin>  (43) 
adg

>  <m_score__min__energy>  (43) 
-10.26

>  <m_primary>  (43) 
energy

$$$$
43:0
     RDKit          3D

 38 40  0  0  0  0  0  0  0  0999 V2000
    2.2810   19.7730  -34.5710 C   0  0  0  0  0  0  0  0  0  0  0  0
    0.8590   20.5180  -35.3330 S   0  0  0  0  0  0  0  0  0  0  0  0
    1.0010   20.4380  -36.8280 O   0  0  0  0  0  0  0  0  0  0  0  0
    0.7670   21.9650  -34.9360 O   0  0  0  0  0  0  0  0  0  0  0  0
   -0.5970   19.6680  -34.8150 C   0  0  0  0  0  0  0  0  0  0  0  0
   -1.6500   20.3740  -34.2140 C   0  0  0  0  0  0  0  0  0  0  0  0
   -2.8190   19.7080  -33.8030 C   0  0  0  0  0  0  0  0  0  0  0  0
   -3.9300   20.4590  -33.1650 C   0  0  0  0  0  0  0  0  0  0  0  0
   -5.2740   20.0380  -33.3430 C   0  0  0  0  0  0  0  0  0  0  0  0
   -6.3320   20.7320  -32.7340 C   0  0  0  0  0  0  0  0  0  0  0  0
   -6.0230   21.8460  -31.9620 C   0  0  0  0  0  0  0  0  0  0  0  0
   -6.8500   22.6760  -31.2400 C   0  0  0  0  0  0  0  0  0  0  0  0
   -6.0060   23.6130  -30.6530 C   0  0  0  0  0  0  0  0  0  0  0  0
   -6.4920   24.7410  -29.8330 C   0  0  0  0  0  0  0  0  0  0  0  0
   -5.6890   25.2980  -28.7920 N   0  0  0  0  0  0  0  0  0  0  0  0
   -7.6110   25.2580  -30.0940 O   0  0  0  0  0  0  0  0  0  0  0  0
   -4.7060   23.3690  -30.9850 N   0  0  0  0  0  0  0  0  0  0  0  0
   -3.5390   24.0390  -30.4790 C   0  0  0  0  0  0  0  0  0  0  0  0
   -3.4930   25.2960  -30.4320 O   0  0  0  0  0  0  0  0  0  0  0  0
   -2.4440   23.3050  -30.0400 O   0  0  0  0  0  0  0  0  0  0  0  0
   -4.7340   22.2820  -31.7910 C   0  0  0  0  0  0  0  0  0  0  0  0
   -3.6590   21.5970  -32.3700 C   0  0  0  0  0  0  0  0  0  0  0  0
   -2.9210   18.3210  -34.0090 C   0  0  0  0  0  0  0  0  0  0  0  0
   -1.8780   17.6180  -34.6150 C   0  0  0  0  0  0  0  0  0  0  0  0
   -0.7200   18.2860  -35.0200 C   0  0  0  0  0  0  0  0  0  0  0  0
    0.2750   17.5830  -35.6170 F   0  0  0  0  0  0  0  0  0  0  0  0
    2.1805   19.8257  -33.4769 H   0  0  0  0  0  0  0  0  0  0  0  0
    2.3546   18.7205  -34.8822 H   0  0  0  0  0  0  0  0  0  0  0  0
    3.1882   20.3117  -34.8822 H   0  0  0  0  0  0  0  0  0  0  0  0
   -1.5606   21.4598  -34.0626 H   0  0  0  0  0  0  0  0  0  0  0  0
   -5.4893   19.1572  -33.9657 H   0  0  0  0  0  0  0  0  0  0  0  0
   -7.3739   20.4040  -32.8639 H   0  0  0  0  0  0  0  0  0  0  0  0
   -7.9442   22.6121  -31.1470 H   0  0  0  0  0  0  0  0  0  0  0  0
   -6.0620   26.0720  -28.1990 H   0  0  0  0  0  0  0  0  0  0  0  0
   -4.6960   25.0020  -28.6610 H   0  0  0  0  0  0  0  0  0  0  0  0
   -2.6251   21.9368  -32.2100 H   0  0  0  0  0  0  0  0  0  0  0  0
   -3.8281   17.7864  -33.6908 H   0  0  0  0  0  0  0  0  0  0  0  0
   -1.9686   16.5334  -34.7742 H   0  0  0  0  0  0  0  0  0  0  0  0
  1  2  1  0
  2  3  2  0
  2  4  2  0
  2  5  1  0
  5  6  2  0
  6  7  1  0
  7  8  1  0
  8  9  2  0
  9 10  1  0
 10 11  2  0
 11 12  1  0
 12 13  2  0
 13 14  1  0
 14 15  1  0
 14 16  2  0
 13 17  1  0
 17 18  1  0
 18 19  2  0
 18 20  1  0
 17 21  1  0
 21 22  2  0
  7 23  2  0
 23 24  1  0
 24 25  2  0
 25 26  1  0
 25  5  1  0
 22  8  1  0
 21 11  1  0
  1 27  1  0
  1 28  1  0
  1 29  1  0
  6 30  1  0
  9 31  1  0
 10 32  1  0
 12 33  1  0
 15 34  1  0
 15 35  1  0
 22 36  1  0
 23 37  1  0
 24 38  1  0
M  CHG  1  20  -1
M  END
>  <UniqueID>  (44) 
43

>  <SMILES>  (44) 
CS(=O)(=O)c1cc(-c2ccc3cc(C(N)=O)n(C(=O)[O-])c3c2)ccc1F

>  <Energy>  (44) 
83.8431777464509

>  <Genealogy>  (44) 
CS(=O)(=O)c1cc(-c2ccc3cc(C(N)=O)n(C(=O)[O-])c3c2)ccc1F (protonated)
CS(=O)(=O)c1cc(-c2ccc3cc(C(N)=O)n(C(=O)[O-])c3c2)ccc1F (3D coordinates assigned)
CS(=O)(=O)c1cc(-c2ccc3cc(C(N)=O)n(C(=O)[O-])c3c2)ccc1F (optimized conformer: 83.8431777464509 kcal/mol)

>  <smiles>  (44) 
CS(=O)(=O)c1cc(-c2ccc3cc(C(N)=O)n(C(=O)O)c3c2)ccc1F

>  <score_type>  (44) 
oracle

>  <origin>  (44) 
adg

>  <m_score__min__energy>  (44) 
-10.050000000000001

>  <m_primary>  (44) 
energy

$$$$
44:0
     RDKit          3D

 36 37  0  0  0  0  0  0  0  0999 V2000
   -4.0580   19.1560  -33.7310 C   0  0  0  0  0  0  0  0  0  0  0  0
   -5.1840   18.2000  -34.1100 C   0  0  0  0  0  0  0  0  0  0  0  0
   -5.6510   17.4970  -32.9600 O   0  0  0  0  0  0  0  0  0  0  0  0
   -6.6650   17.9790  -32.1230 C   0  0  0  0  0  0  0  0  0  0  0  0
   -6.6530   17.7330  -30.8860 O   0  0  0  0  0  0  0  0  0  0  0  0
   -7.7980   18.7520  -32.7150 C   0  0  0  0  0  0  0  0  0  0  0  0
   -7.7350   20.1790  -32.2500 C   0  0  0  0  0  0  0  0  0  0  0  0
   -8.9290   20.8860  -31.9590 C   0  0  0  0  0  0  0  0  0  0  0  0
   -8.8810   22.2050  -31.4760 C   0  0  0  0  0  0  0  0  0  0  0  0
   -7.6300   22.7870  -31.2910 C   0  0  0  0  0  0  0  0  0  0  0  0
   -7.2930   24.0330  -30.8150 C   0  0  0  0  0  0  0  0  0  0  0  0
   -5.8990   24.0690  -30.8290 C   0  0  0  0  0  0  0  0  0  0  0  0
   -5.1100   25.2660  -30.4720 C   0  0  0  0  0  0  0  0  0  0  0  0
   -3.6850   25.2260  -30.4590 N   0  0  0  0  0  0  0  0  0  0  0  0
   -5.6990   26.3490  -30.2150 O   0  0  0  0  0  0  0  0  0  0  0  0
   -5.3970   22.8860  -31.2850 N   0  0  0  0  0  0  0  0  0  0  0  0
   -4.0220   22.4820  -31.3780 C   0  0  0  0  0  0  0  0  0  0  0  0
   -3.2250   22.1880  -30.1470 C   0  0  0  0  0  0  0  0  0  0  0  0
   -3.4990   22.3020  -32.5090 O   0  0  0  0  0  0  0  0  0  0  0  0
   -6.4680   22.1160  -31.5700 C   0  0  0  0  0  0  0  0  0  0  0  0
   -6.4840   20.8000  -32.0390 C   0  0  0  0  0  0  0  0  0  0  0  0
   -3.9837   19.2190  -32.6353 H   0  0  0  0  0  0  0  0  0  0  0  0
   -3.1077   18.7846  -34.1421 H   0  0  0  0  0  0  0  0  0  0  0  0
   -4.2703   20.1539  -34.1421 H   0  0  0  0  0  0  0  0  0  0  0  0
   -6.0151   18.7741  -34.5455 H   0  0  0  0  0  0  0  0  0  0  0  0
   -4.8018   17.4722  -34.8409 H   0  0  0  0  0  0  0  0  0  0  0  0
   -7.7275   18.7216  -33.8123 H   0  0  0  0  0  0  0  0  0  0  0  0
   -8.7507   18.3058  -32.3935 H   0  0  0  0  0  0  0  0  0  0  0  0
   -9.9025   20.3974  -32.1128 H   0  0  0  0  0  0  0  0  0  0  0  0
   -9.8035   22.7603  -31.2511 H   0  0  0  0  0  0  0  0  0  0  0  0
   -7.9776   24.8312  -30.4920 H   0  0  0  0  0  0  0  0  0  0  0  0
   -3.1270   25.6750  -31.2190 H   0  0  0  0  0  0  0  0  0  0  0  0
   -3.8304   22.4113  -29.2562 H   0  0  0  0  0  0  0  0  0  0  0  0
   -2.9400   21.1256  -30.1397 H   0  0  0  0  0  0  0  0  0  0  0  0
   -2.3184   22.8109  -30.1397 H   0  0  0  0  0  0  0  0  0  0  0  0
   -5.5461   20.2611  -32.2389 H   0  0  0  0  0  0  0  0  0  0  0  0
  1  2  1  0
  2  3  1  0
  3  4  1  0
  4  5  2  0
  4  6  1  0
  6  7  1  0
  7  8  2  0
  8  9  1  0
  9 10  2  0
 10 11  1  0
 11 12  2  0
 12 13  1  0
 13 14  1  0
 13 15  2  0
 12 16  1  0
 16 17  1  0
 17 18  1  0
 17 19  2  0
 16 20  1  0
 20 21  2  0
 21  7  1  0
 20 10  1  0
  1 22  1  0
  1 23  1  0
  1 24  1  0
  2 25  1  0
  2 26  1  0
  6 27  1  0
  6 28  1  0
  8 29  1  0
  9 30  1  0
 11 31  1  0
 14 32  1  0
 18 33  1  0
 18 34  1  0
 18 35  1  0
 21 36  1  0
M  CHG  1  14  -1
M  END
>  <UniqueID>  (45) 
44

>  <SMILES>  (45) 
CCOC(=O)Cc1ccc2cc(C([NH-])=O)n(C(C)=O)c2c1

>  <Energy>  (45) 
68.76561308110645

>  <Genealogy>  (45) 
CCOC(=O)Cc1ccc2cc(C([NH-])=O)n(C(C)=O)c2c1 (protonated)
CCOC(=O)Cc1ccc2cc(C([NH-])=O)n(C(C)=O)c2c1 (3D coordinates assigned)
CCOC(=O)Cc1ccc2cc(C([NH-])=O)n(C(C)=O)c2c1 (optimized conformer: 68.76561308110645 kcal/mol)

>  <smiles>  (45) 
CCOC(=O)Cc1ccc2cc(C(N)=O)n(C(C)=O)c2c1

>  <score_type>  (45) 
oracle

>  <origin>  (45) 
adg

>  <m_score__min__energy>  (45) 
-9.9299999999999997

>  <m_primary>  (45) 
energy

$$$$
45:0
     RDKit          3D

 26 27  0  0  0  0  0  0  0  0999 V2000
   -1.6140   25.6990  -28.9620 N   0  0  0  0  0  0  0  0  0  0  0  0
   -1.0730   24.4000  -29.1880 C   0  0  0  0  0  0  0  0  0  0  0  0
   -0.0130   24.0620  -28.5960 O   0  0  0  0  0  0  0  0  0  0  0  0
   -1.7660   23.4280  -30.0590 C   0  0  0  0  0  0  0  0  0  0  0  0
   -1.1640   22.2680  -30.5410 C   0  0  0  0  0  0  0  0  0  0  0  0
   -2.1550   21.5980  -31.2210 C   0  0  0  0  0  0  0  0  0  0  0  0
   -2.1090   20.3870  -31.9050 C   0  0  0  0  0  0  0  0  0  0  0  0
   -3.2820   19.9440  -32.5390 C   0  0  0  0  0  0  0  0  0  0  0  0
   -4.4650   20.7210  -32.4930 C   0  0  0  0  0  0  0  0  0  0  0  0
   -5.7180   20.2260  -33.1600 C   0  0  0  0  0  0  0  0  0  0  0  0
   -5.4690   18.9080  -33.8280 C   0  0  0  0  0  0  0  0  0  0  0  0
   -5.8690   18.7030  -34.9630 O   0  0  0  0  0  0  0  0  0  0  0  0
   -4.4770   21.9420  -31.7800 C   0  0  0  0  0  0  0  0  0  0  0  0
   -3.2990   22.3500  -31.1430 C   0  0  0  0  0  0  0  0  0  0  0  0
   -3.0760   23.4790  -30.4340 N   0  0  0  0  0  0  0  0  0  0  0  0
   -4.0090   24.5500  -30.2170 C   0  0  0  0  0  0  0  0  0  0  0  0
   -3.8630   25.6520  -30.8090 O   0  0  0  0  0  0  0  0  0  0  0  0
   -5.0670   24.3900  -29.3310 O   0  0  0  0  0  0  0  0  0  0  0  0
   -2.6460   25.8640  -28.9930 H   0  0  0  0  0  0  0  0  0  0  0  0
   -0.1183   21.9542  -30.4066 H   0  0  0  0  0  0  0  0  0  0  0  0
   -1.1830   19.7949  -31.9480 H   0  0  0  0  0  0  0  0  0  0  0  0
   -3.2814   18.9842  -33.0764 H   0  0  0  0  0  0  0  0  0  0  0  0
   -6.5077   20.1055  -32.4038 H   0  0  0  0  0  0  0  0  0  0  0  0
   -6.0304   20.9575  -33.9198 H   0  0  0  0  0  0  0  0  0  0  0  0
   -4.9215   18.1191  -33.2915 H   0  0  0  0  0  0  0  0  0  0  0  0
   -5.3885   22.5555  -31.7272 H   0  0  0  0  0  0  0  0  0  0  0  0
  1  2  1  0
  2  3  2  0
  2  4  1  0
  4  5  2  0
  5  6  1  0
  6  7  2  0
  7  8  1  0
  8  9  2  0
  9 10  1  0
 10 11  1  0
 11 12  2  0
  9 13  1  0
 13 14  2  0
 14 15  1  0
 15 16  1  0
 16 17  2  0
 16 18  1  0
 15  4  1  0
 14  6  1  0
  1 19  1  0
  5 20  1  0
  7 21  1  0
  8 22  1  0
 10 23  1  0
 10 24  1  0
 11 25  1  0
 13 26  1  0
M  CHG  2   1  -1  18  -1
M  END
>  <UniqueID>  (46) 
45

>  <SMILES>  (46) 
[NH-]C(=O)c1cc2ccc(CC=O)cc2n1C(=O)[O-]

>  <Energy>  (46) 
64.46239529843696

>  <Genealogy>  (46) 
[NH-]C(=O)c1cc2ccc(CC=O)cc2n1C(=O)[O-] (protonated)
[NH-]C(=O)c1cc2ccc(CC=O)cc2n1C(=O)[O-] (3D coordinates assigned)
[NH-]C(=O)c1cc2ccc(CC=O)cc2n1C(=O)[O-] (optimized conformer: 64.46239529843696 kcal/mol)

>  <smiles>  (46) 
NC(=O)c1cc2ccc(CC=O)cc2n1C(=O)O

>  <score_type>  (46) 
oracle

>  <origin>  (46) 
adg

>  <m_score__min__energy>  (46) 
-9.8399999999999999

>  <m_primary>  (46) 
energy

$$$$
46:0
     RDKit          3D

 40 42  0  0  0  0  0  0  0  0999 V2000
   -3.9080   17.3370  -33.7020 C   0  0  0  0  0  0  0  0  0  0  0  0
   -4.4990   18.5900  -33.3810 O   0  0  0  0  0  0  0  0  0  0  0  0
   -5.8070   18.9210  -33.7430 C   0  0  0  0  0  0  0  0  0  0  0  0
   -6.0660   20.0330  -34.2800 O   0  0  0  0  0  0  0  0  0  0  0  0
   -6.9190   17.9670  -33.4330 C   0  0  0  0  0  0  0  0  0  0  0  0
   -7.5730   18.2850  -32.0810 C   0  0  0  0  0  0  0  0  0  0  0  0
   -7.5950   19.7670  -31.8080 C   0  0  0  0  0  0  0  0  0  0  0  0
   -8.7770   20.5180  -32.0300 C   0  0  0  0  0  0  0  0  0  0  0  0
   -8.7920   21.9080  -31.8220 C   0  0  0  0  0  0  0  0  0  0  0  0
   -7.6110   22.5180  -31.4130 C   0  0  0  0  0  0  0  0  0  0  0  0
   -7.3420   23.8410  -31.1390 C   0  0  0  0  0  0  0  0  0  0  0  0
   -5.9940   23.8800  -30.7850 C   0  0  0  0  0  0  0  0  0  0  0  0
   -5.2660   25.1260  -30.4630 C   0  0  0  0  0  0  0  0  0  0  0  0
   -3.8690   25.2490  -30.7140 N   0  0  0  0  0  0  0  0  0  0  0  0
   -5.8930   26.1070  -29.9830 O   0  0  0  0  0  0  0  0  0  0  0  0
   -5.4530   22.6300  -30.8400 N   0  0  0  0  0  0  0  0  0  0  0  0
   -4.1130   22.2360  -30.5110 C   0  0  0  0  0  0  0  0  0  0  0  0
   -3.7160   22.3160  -29.3170 O   0  0  0  0  0  0  0  0  0  0  0  0
   -3.1990   21.7340  -31.5520 C   0  0  0  0  0  0  0  0  0  0  0  0
   -1.8360   21.9240  -31.6080 C   0  0  0  0  0  0  0  0  0  0  0  0
   -1.3950   21.3260  -32.6930 O   0  0  0  0  0  0  0  0  0  0  0  0
   -2.4310   20.7870  -33.2970 C   0  0  0  0  0  0  0  0  0  0  0  0
   -3.5740   21.0160  -32.6260 N   0  0  0  0  0  0  0  0  0  0  0  0
   -6.4550   21.8080  -31.2170 C   0  0  0  0  0  0  0  0  0  0  0  0
   -6.4170   20.4210  -31.3890 C   0  0  0  0  0  0  0  0  0  0  0  0
   -3.6558   16.8022  -32.7744 H   0  0  0  0  0  0  0  0  0  0  0  0
   -4.6179   16.7366  -34.2899 H   0  0  0  0  0  0  0  0  0  0  0  0
   -2.9932   17.5029  -34.2899 H   0  0  0  0  0  0  0  0  0  0  0  0
   -7.6806   18.0368  -34.2236 H   0  0  0  0  0  0  0  0  0  0  0  0
   -6.4986   16.9518  -33.3826 H   0  0  0  0  0  0  0  0  0  0  0  0
   -8.6064   17.9082  -32.0874 H   0  0  0  0  0  0  0  0  0  0  0  0
   -6.9815   17.7993  -31.2910 H   0  0  0  0  0  0  0  0  0  0  0  0
   -9.6910   20.0079  -32.3682 H   0  0  0  0  0  0  0  0  0  0  0  0
   -9.7092   22.4950  -31.9778 H   0  0  0  0  0  0  0  0  0  0  0  0
   -8.0426   24.6876  -31.1889 H   0  0  0  0  0  0  0  0  0  0  0  0
   -3.4900   26.0530  -31.2620 H   0  0  0  0  0  0  0  0  0  0  0  0
   -1.2266   22.4761  -30.8774 H   0  0  0  0  0  0  0  0  0  0  0  0
   -2.3704   20.2181  -34.2365 H   0  0  0  0  0  0  0  0  0  0  0  0
   -4.5350   20.7080  -32.8930 H   0  0  0  0  0  0  0  0  0  0  0  0
   -5.4928   19.8544  -31.2025 H   0  0  0  0  0  0  0  0  0  0  0  0
  1  2  1  0
  2  3  1  0
  3  4  2  0
  3  5  1  0
  5  6  1  0
  6  7  1  0
  7  8  2  0
  8  9  1  0
  9 10  2  0
 10 11  1  0
 11 12  2  0
 12 13  1  0
 13 14  1  0
 13 15  2  0
 12 16  1  0
 16 17  1  0
 17 18  2  0
 17 19  1  0
 19 20  2  0
 20 21  1  0
 21 22  1  0
 22 23  2  0
 16 24  1  0
 24 25  2  0
 25  7  1  0
 24 10  1  0
 23 19  1  0
  1 26  1  0
  1 27  1  0
  1 28  1  0
  5 29  1  0
  5 30  1  0
  6 31  1  0
  6 32  1  0
  8 33  1  0
  9 34  1  0
 11 35  1  0
 14 36  1  0
 20 37  1  0
 22 38  1  0
 23 39  1  0
 25 40  1  0
M  CHG  2  14  -1  23   1
M  END
>  <UniqueID>  (47) 
46

>  <SMILES>  (47) 
COC(=O)CCc1ccc2cc(C([NH-])=O)n(C(=O)c3coc[nH+]3)c2c1

>  <Energy>  (47) 
105.19817941921728

>  <Genealogy>  (47) 
COC(=O)CCc1ccc2cc(C([NH-])=O)n(C(=O)c3coc[nH+]3)c2c1 (protonated)
COC(=O)CCc1ccc2cc(C([NH-])=O)n(C(=O)c3coc[nH+]3)c2c1 (3D coordinates assigned)
COC(=O)CCc1ccc2cc(C([NH-])=O)n(C(=O)c3coc[nH+]3)c2c1 (optimized conformer: 105.19817941921728 kcal/mol)

>  <smiles>  (47) 
COC(=O)CCc1ccc2cc(C(N)=O)n(C(=O)c3cocn3)c2c1

>  <score_type>  (47) 
oracle

>  <origin>  (47) 
adg

>  <m_score__min__energy>  (47) 
-9.8900000000000006

>  <m_primary>  (47) 
energy

$$$$
47:0
     RDKit          3D

 38 40  0  0  0  0  0  0  0  0999 V2000
   -3.3510   24.4960  -30.5070 N   0  0  0  0  0  0  0  0  0  0  0  0
   -4.0160   23.2660  -30.7850 C   0  0  0  0  0  0  0  0  0  0  0  0
   -3.3420   22.2030  -30.8130 O   0  0  0  0  0  0  0  0  0  0  0  0
   -5.4290   23.2450  -31.0720 N   0  0  0  0  0  0  0  0  0  0  0  0
   -6.3470   24.2100  -30.7730 C   0  0  0  0  0  0  0  0  0  0  0  0
   -6.0510   25.5370  -30.2090 C   0  0  0  0  0  0  0  0  0  0  0  0
   -6.4600   25.8730  -28.8830 N   0  0  0  0  0  0  0  0  0  0  0  0
   -5.3670   26.3570  -30.8770 O   0  0  0  0  0  0  0  0  0  0  0  0
   -7.6400   23.7660  -31.0260 C   0  0  0  0  0  0  0  0  0  0  0  0
   -7.4930   22.4940  -31.5240 C   0  0  0  0  0  0  0  0  0  0  0  0
   -8.4580   21.5940  -31.9630 C   0  0  0  0  0  0  0  0  0  0  0  0
   -8.0270   20.3510  -32.4510 C   0  0  0  0  0  0  0  0  0  0  0  0
   -6.6450   20.0300  -32.5030 C   0  0  0  0  0  0  0  0  0  0  0  0
   -6.1990   18.7180  -33.0370 C   0  0  0  0  0  0  0  0  0  0  0  0
   -6.2770   17.5600  -32.2450 C   0  0  0  0  0  0  0  0  0  0  0  0
   -5.8560   16.3260  -32.7480 C   0  0  0  0  0  0  0  0  0  0  0  0
   -5.3560   16.2250  -34.0540 C   0  0  0  0  0  0  0  0  0  0  0  0
   -4.8720   14.9030  -34.5830 C   0  0  0  0  0  0  0  0  0  0  0  0
   -5.8730   13.8330  -34.2850 C   0  0  0  0  0  0  0  0  0  0  0  0
   -7.0780   13.9810  -34.6200 O   0  0  0  0  0  0  0  0  0  0  0  0
   -5.4680   12.6520  -33.6770 O   0  0  0  0  0  0  0  0  0  0  0  0
   -5.2640   17.3810  -34.8440 C   0  0  0  0  0  0  0  0  0  0  0  0
   -5.6860   18.6150  -34.3430 C   0  0  0  0  0  0  0  0  0  0  0  0
   -5.6950   20.9750  -32.0460 C   0  0  0  0  0  0  0  0  0  0  0  0
   -6.1530   22.2010  -31.5440 C   0  0  0  0  0  0  0  0  0  0  0  0
   -3.4720   25.3250  -31.1280 H   0  0  0  0  0  0  0  0  0  0  0  0
   -6.2570   26.8210  -28.4950 H   0  0  0  0  0  0  0  0  0  0  0  0
   -6.9100   25.1610  -28.2660 H   0  0  0  0  0  0  0  0  0  0  0  0
   -8.5790   24.3152  -30.8626 H   0  0  0  0  0  0  0  0  0  0  0  0
   -9.5275   21.8490  -31.9287 H   0  0  0  0  0  0  0  0  0  0  0  0
   -8.7689   19.6164  -32.7975 H   0  0  0  0  0  0  0  0  0  0  0  0
   -6.6727   17.6253  -31.2207 H   0  0  0  0  0  0  0  0  0  0  0  0
   -5.9173   15.4283  -32.1153 H   0  0  0  0  0  0  0  0  0  0  0  0
   -4.7309   14.9763  -35.6714 H   0  0  0  0  0  0  0  0  0  0  0  0
   -3.9179   14.6487  -34.0983 H   0  0  0  0  0  0  0  0  0  0  0  0
   -4.8572   17.3152  -35.8639 H   0  0  0  0  0  0  0  0  0  0  0  0
   -5.6166   19.5130  -34.9745 H   0  0  0  0  0  0  0  0  0  0  0  0
   -4.6186   20.7515  -32.0841 H   0  0  0  0  0  0  0  0  0  0  0  0
  1  2  1  0
  2  3  2  0
  2  4  1  0
  4  5  1  0
  5  6  1  0
  6  7  1  0
  6  8  2  0
  5  9  2  0
  9 10  1  0
 10 11  2  0
 11 12  1  0
 12 13  2  0
 13 14  1  0
 14 15  2  0
 15 16  1  0
 16 17  2  0
 17 18  1  0
 18 19  1  0
 19 20  2  0
 19 21  1  0
 17 22  1  0
 22 23  2  0
 13 24  1  0
 24 25  2  0
 25  4  1  0
 25 10  1  0
 23 14  1  0
  1 26  1  0
  7 27  1  0
  7 28  1  0
  9 29  1  0
 11 30  1  0
 12 31  1  0
 15 32  1  0
 16 33  1  0
 18 34  1  0
 18 35  1  0
 22 36  1  0
 23 37  1  0
 24 38  1  0
M  CHG  2   1  -1  21  -1
M  END
>  <UniqueID>  (48) 
47

>  <SMILES>  (48) 
[NH-]C(=O)n1c(C(N)=O)cc2ccc(-c3ccc(CC(=O)[O-])cc3)cc21

>  <Energy>  (48) 
86.67726411620906

>  <Genealogy>  (48) 
[NH-]C(=O)n1c(C(N)=O)cc2ccc(-c3ccc(CC(=O)[O-])cc3)cc21 (protonated)
[NH-]C(=O)n1c(C(N)=O)cc2ccc(-c3ccc(CC(=O)[O-])cc3)cc21 (3D coordinates assigned)
[NH-]C(=O)n1c(C(N)=O)cc2ccc(-c3ccc(CC(=O)[O-])cc3)cc21 (optimized conformer: 86.67726411620906 kcal/mol)

>  <smiles>  (48) 
NC(=O)c1cc2ccc(-c3ccc(CC(=O)O)cc3)cc2n1C(N)=O

>  <score_type>  (48) 
oracle

>  <origin>  (48) 
adg

>  <m_score__min__energy>  (48) 
-9.7599999999999998

>  <m_primary>  (48) 
energy

$$$$
48:0
     RDKit          3D

 42 44  0  0  0  0  0  0  0  0999 V2000
   -6.4220   25.7070  -29.3790 C   0  0  0  0  0  0  0  0  0  0  0  0
   -5.1820   24.9410  -29.3650 N   0  0  0  0  0  0  0  0  0  0  0  0
   -4.7330   24.2080  -30.5110 C   0  0  0  0  0  0  0  0  0  0  0  0
   -5.3710   24.2800  -31.5970 O   0  0  0  0  0  0  0  0  0  0  0  0
   -3.5350   23.4200  -30.4400 N   0  0  0  0  0  0  0  0  0  0  0  0
   -2.4270   23.6500  -29.6810 C   0  0  0  0  0  0  0  0  0  0  0  0
   -2.2850   24.7020  -28.6540 C   0  0  0  0  0  0  0  0  0  0  0  0
   -1.6080   25.9160  -28.9710 N   0  0  0  0  0  0  0  0  0  0  0  0
   -2.7260   24.5260  -27.4880 O   0  0  0  0  0  0  0  0  0  0  0  0
   -1.4510   22.6900  -29.9430 C   0  0  0  0  0  0  0  0  0  0  0  0
   -2.0070   21.8540  -30.8860 C   0  0  0  0  0  0  0  0  0  0  0  0
   -1.4770   20.7320  -31.5110 C   0  0  0  0  0  0  0  0  0  0  0  0
   -2.2690   20.0700  -32.4640 C   0  0  0  0  0  0  0  0  0  0  0  0
   -3.5750   20.5360  -32.7850 C   0  0  0  0  0  0  0  0  0  0  0  0
   -4.4590   19.8460  -33.8220 C   0  0  0  0  0  0  0  0  0  0  0  0
   -5.9780   20.0450  -33.5930 C   0  0  0  0  0  0  0  0  0  0  0  0
   -6.6020   19.1900  -32.4880 C   0  0  0  0  0  0  0  0  0  0  0  0
   -6.1880   17.4730  -32.7010 S   0  0  0  0  0  0  0  0  0  0  0  0
   -6.9980   16.8960  -33.8280 O   0  0  0  0  0  0  0  0  0  0  0  0
   -6.4840   16.7170  -31.4370 O   0  0  0  0  0  0  0  0  0  0  0  0
   -4.4550   17.3440  -33.0870 C   0  0  0  0  0  0  0  0  0  0  0  0
   -4.0480   18.3850  -34.1340 C   0  0  0  0  0  0  0  0  0  0  0  0
   -4.0710   21.6860  -32.1200 C   0  0  0  0  0  0  0  0  0  0  0  0
   -3.2640   22.3150  -31.1670 C   0  0  0  0  0  0  0  0  0  0  0  0
   -6.7424   25.9049  -28.3455 H   0  0  0  0  0  0  0  0  0  0  0  0
   -6.2577   26.6612  -29.9010 H   0  0  0  0  0  0  0  0  0  0  0  0
   -7.2017   25.1330  -29.9010 H   0  0  0  0  0  0  0  0  0  0  0  0
   -4.6000   24.9410  -28.4980 H   0  0  0  0  0  0  0  0  0  0  0  0
   -1.2350   26.0870  -29.9310 H   0  0  0  0  0  0  0  0  0  0  0  0
   -0.4501   22.6158  -29.4927 H   0  0  0  0  0  0  0  0  0  0  0  0
   -0.4665   20.3724  -31.2667 H   0  0  0  0  0  0  0  0  0  0  0  0
   -1.8734   19.1771  -32.9703 H   0  0  0  0  0  0  0  0  0  0  0  0
   -4.2548   20.3882  -34.7570 H   0  0  0  0  0  0  0  0  0  0  0  0
   -6.1453   21.1017  -33.3373 H   0  0  0  0  0  0  0  0  0  0  0  0
   -6.4652   19.7284  -34.5271 H   0  0  0  0  0  0  0  0  0  0  0  0
   -6.2262   19.5324  -31.5125 H   0  0  0  0  0  0  0  0  0  0  0  0
   -7.6957   19.2959  -32.5380 H   0  0  0  0  0  0  0  0  0  0  0  0
   -3.8690   17.5072  -32.1705 H   0  0  0  0  0  0  0  0  0  0  0  0
   -4.2601   16.3412  -33.4950 H   0  0  0  0  0  0  0  0  0  0  0  0
   -2.9528   18.3554  -34.2324 H   0  0  0  0  0  0  0  0  0  0  0  0
   -4.5854   18.1117  -35.0541 H   0  0  0  0  0  0  0  0  0  0  0  0
   -5.0733   22.0765  -32.3499 H   0  0  0  0  0  0  0  0  0  0  0  0
  1  2  1  0
  2  3  1  0
  3  4  2  0
  3  5  1  0
  5  6  1  0
  6  7  1  0
  7  8  1  0
  7  9  2  0
  6 10  2  0
 10 11  1  0
 11 12  2  0
 12 13  1  0
 13 14  2  0
 14 15  1  0
 15 16  1  0
 16 17  1  0
 17 18  1  0
 18 19  2  0
 18 20  2  0
 18 21  1  0
 21 22  1  0
 14 23  1  0
 23 24  2  0
 24  5  1  0
 24 11  1  0
 22 15  1  0
  1 25  1  0
  1 26  1  0
  1 27  1  0
  2 28  1  0
  8 29  1  0
 10 30  1  0
 12 31  1  0
 13 32  1  0
 15 33  1  0
 16 34  1  0
 16 35  1  0
 17 36  1  0
 17 37  1  0
 21 38  1  0
 21 39  1  0
 22 40  1  0
 22 41  1  0
 23 42  1  0
M  CHG  1   8  -1
M  END
>  <UniqueID>  (49) 
48

>  <SMILES>  (49) 
CNC(=O)n1c(C([NH-])=O)cc2ccc(C3CCS(=O)(=O)CC3)cc21

>  <Energy>  (49) 
77.3350680509413

>  <Genealogy>  (49) 
CNC(=O)n1c(C([NH-])=O)cc2ccc(C3CCS(=O)(=O)CC3)cc21 (protonated)
CNC(=O)n1c(C([NH-])=O)cc2ccc(C3CCS(=O)(=O)CC3)cc21 (3D coordinates assigned)
CNC(=O)n1c(C([NH-])=O)cc2ccc(C3CCS(=O)(=O)CC3)cc21 (nonaromatic ring conformer: 77.3350680509413 kcal/mol)

>  <smiles>  (49) 
CNC(=O)n1c(C(N)=O)cc2ccc(C3CCS(=O)(=O)CC3)cc21

>  <score_type>  (49) 
oracle

>  <origin>  (49) 
adg

>  <m_score__min__energy>  (49) 
-11.5

>  <m_primary>  (49) 
energy

$$$$
49:0
     RDKit          3D

 47 49  0  0  0  0  0  0  0  0999 V2000
   -6.0590   14.2500  -34.1860 C   0  0  0  0  0  0  0  0  0  0  0  0
   -4.9000   14.9280  -33.4390 C   0  0  0  0  0  0  0  0  0  0  0  0
   -5.0280   16.3980  -33.3390 N   0  0  0  0  0  0  0  0  0  0  0  0
   -5.6340   17.0250  -34.5370 C   0  0  0  0  0  0  0  0  0  0  0  0
   -6.0620   18.4650  -34.2540 C   0  0  0  0  0  0  0  0  0  0  0  0
   -7.1700   18.4870  -33.1820 C   0  0  0  0  0  0  0  0  0  0  0  0
   -7.3450   19.8840  -32.6060 C   0  0  0  0  0  0  0  0  0  0  0  0
   -8.6400   20.4270  -32.3980 C   0  0  0  0  0  0  0  0  0  0  0  0
   -8.8030   21.7170  -31.8670 C   0  0  0  0  0  0  0  0  0  0  0  0
   -7.6580   22.4390  -31.5440 C   0  0  0  0  0  0  0  0  0  0  0  0
   -7.5340   23.7130  -31.0460 C   0  0  0  0  0  0  0  0  0  0  0  0
   -6.1650   23.9280  -30.9260 C   0  0  0  0  0  0  0  0  0  0  0  0
   -5.5860   25.1600  -30.3570 C   0  0  0  0  0  0  0  0  0  0  0  0
   -4.2590   25.5680  -30.6810 N   0  0  0  0  0  0  0  0  0  0  0  0
   -6.2530   25.8270  -29.5210 O   0  0  0  0  0  0  0  0  0  0  0  0
   -5.4650   22.8360  -31.3460 N   0  0  0  0  0  0  0  0  0  0  0  0
   -4.0380   22.7250  -31.4930 C   0  0  0  0  0  0  0  0  0  0  0  0
   -3.2780   23.0260  -30.5330 O   0  0  0  0  0  0  0  0  0  0  0  0
   -3.4970   22.2850  -32.7040 O   0  0  0  0  0  0  0  0  0  0  0  0
   -2.9650   20.9780  -32.8780 C   0  0  0  0  0  0  0  0  0  0  0  0
   -6.3970   21.9280  -31.7200 C   0  0  0  0  0  0  0  0  0  0  0  0
   -6.2060   20.6530  -32.2670 C   0  0  0  0  0  0  0  0  0  0  0  0
   -6.9540   17.4170  -32.0770 C   0  0  0  0  0  0  0  0  0  0  0  0
   -5.5090   16.8940  -32.0260 C   0  0  0  0  0  0  0  0  0  0  0  0
   -6.7708   13.8336  -33.4580 H   0  0  0  0  0  0  0  0  0  0  0  0
   -6.5715   14.9907  -34.8174 H   0  0  0  0  0  0  0  0  0  0  0  0
   -5.6645   13.4403  -34.8174 H   0  0  0  0  0  0  0  0  0  0  0  0
   -4.8556   14.5144  -32.4207 H   0  0  0  0  0  0  0  0  0  0  0  0
   -3.9866   14.7263  -34.0178 H   0  0  0  0  0  0  0  0  0  0  0  0
   -4.8969   17.0242  -35.3535 H   0  0  0  0  0  0  0  0  0  0  0  0
   -6.5264   16.4464  -34.8177 H   0  0  0  0  0  0  0  0  0  0  0  0
   -5.1951   19.0381  -33.8932 H   0  0  0  0  0  0  0  0  0  0  0  0
   -6.4483   18.9147  -35.1806 H   0  0  0  0  0  0  0  0  0  0  0  0
   -8.1110   18.2143  -33.6822 H   0  0  0  0  0  0  0  0  0  0  0  0
   -9.5271   19.8299  -32.6560 H   0  0  0  0  0  0  0  0  0  0  0  0
   -9.8049   22.1435  -31.7112 H   0  0  0  0  0  0  0  0  0  0  0  0
   -8.3442   24.4136  -30.7956 H   0  0  0  0  0  0  0  0  0  0  0  0
   -3.6220   24.9490  -31.2340 H   0  0  0  0  0  0  0  0  0  0  0  0
   -3.8610   26.4360  -30.2590 H   0  0  0  0  0  0  0  0  0  0  0  0
   -2.7800   20.5234  -31.8936 H   0  0  0  0  0  0  0  0  0  0  0  0
   -3.6836   20.3611  -33.4375 H   0  0  0  0  0  0  0  0  0  0  0  0
   -2.0199   21.0383  -33.4375 H   0  0  0  0  0  0  0  0  0  0  0  0
   -5.1925   20.2576  -32.4297 H   0  0  0  0  0  0  0  0  0  0  0  0
   -7.2003   17.8639  -31.1025 H   0  0  0  0  0  0  0  0  0  0  0  0
   -7.6064   16.5631  -32.3119 H   0  0  0  0  0  0  0  0  0  0  0  0
   -4.8510   17.7120  -31.6973 H   0  0  0  0  0  0  0  0  0  0  0  0
   -5.4893   16.0462  -31.3254 H   0  0  0  0  0  0  0  0  0  0  0  0
  1  2  1  0
  2  3  1  0
  3  4  1  0
  4  5  1  0
  5  6  1  0
  6  7  1  0
  7  8  2  0
  8  9  1  0
  9 10  2  0
 10 11  1  0
 11 12  2  0
 12 13  1  0
 13 14  1  0
 13 15  2  0
 12 16  1  0
 16 17  1  0
 17 18  2  0
 17 19  1  0
 19 20  1  0
 16 21  1  0
 21 22  2  0
  6 23  1  0
 23 24  1  0
 24  3  1  0
 22  7  1  0
 21 10  1  0
  1 25  1  0
  1 26  1  0
  1 27  1  0
  2 28  1  0
  2 29  1  0
  4 30  1  0
  4 31  1  0
  5 32  1  0
  5 33  1  0
  6 34  1  0
  8 35  1  0
  9 36  1  0
 11 37  1  0
 14 38  1  0
 14 39  1  0
 20 40  1  0
 20 41  1  0
 20 42  1  0
 22 43  1  0
 23 44  1  0
 23 45  1  0
 24 46  1  0
 24 47  1  0
M  END
>  <UniqueID>  (50) 
49

>  <SMILES>  (50) 
CCN1CCC(c2ccc3cc(C(N)=O)n(C(=O)OC)c3c2)CC1

>  <Energy>  (50) 
95.77562510694912

>  <Genealogy>  (50) 
CCN1CCC(c2ccc3cc(C(N)=O)n(C(=O)OC)c3c2)CC1 (3D coordinates assigned)
CCN1CCC(c2ccc3cc(C(N)=O)n(C(=O)OC)c3c2)CC1 (nonaromatic ring conformer: 95.77562510694912 kcal/mol)

>  <smiles>  (50) 
CCN1CCC(c2ccc3cc(C(N)=O)n(C(=O)OC)c3c2)CC1

>  <score_type>  (50) 
oracle

>  <origin>  (50) 
adg

>  <m_score__min__energy>  (50) 
-9.7300000000000004

>  <m_primary>  (50) 
energy

$$$$
50:0
     RDKit          3D

 31 32  0  0  0  0  0  0  0  0999 V2000
   -8.9270   19.8890  -32.2920 C   0  0  0  0  0  0  0  0  0  0  0  0
   -7.7670   19.6910  -33.0670 O   0  0  0  0  0  0  0  0  0  0  0  0
   -6.7880   20.6380  -32.6930 C   0  0  0  0  0  0  0  0  0  0  0  0
   -5.4780   20.3400  -33.4240 C   0  0  0  0  0  0  0  0  0  0  0  0
   -4.2880   20.7810  -32.6130 C   0  0  0  0  0  0  0  0  0  0  0  0
   -3.1210   19.9800  -32.5730 C   0  0  0  0  0  0  0  0  0  0  0  0
   -1.9960   20.3910  -31.8370 C   0  0  0  0  0  0  0  0  0  0  0  0
   -2.0640   21.6100  -31.1680 C   0  0  0  0  0  0  0  0  0  0  0  0
   -1.1320   22.2330  -30.3710 C   0  0  0  0  0  0  0  0  0  0  0  0
   -1.7320   23.4230  -29.9640 C   0  0  0  0  0  0  0  0  0  0  0  0
   -1.0360   24.4480  -29.1570 C   0  0  0  0  0  0  0  0  0  0  0  0
   -1.6090   25.7380  -28.9600 N   0  0  0  0  0  0  0  0  0  0  0  0
    0.1020   24.1980  -28.6790 O   0  0  0  0  0  0  0  0  0  0  0  0
   -2.9890   23.5280  -30.4820 N   0  0  0  0  0  0  0  0  0  0  0  0
   -3.9610   24.5540  -30.2240 C   0  0  0  0  0  0  0  0  0  0  0  0
   -3.8720   25.6730  -30.7950 O   0  0  0  0  0  0  0  0  0  0  0  0
   -5.0250   24.3120  -29.3640 O   0  0  0  0  0  0  0  0  0  0  0  0
   -3.1760   22.4100  -31.2190 C   0  0  0  0  0  0  0  0  0  0  0  0
   -4.3170   22.0170  -31.9280 C   0  0  0  0  0  0  0  0  0  0  0  0
   -8.6666   19.8445  -31.2242 H   0  0  0  0  0  0  0  0  0  0  0  0
   -9.3589   20.8739  -32.5234 H   0  0  0  0  0  0  0  0  0  0  0  0
   -9.6611   19.1032  -32.5234 H   0  0  0  0  0  0  0  0  0  0  0  0
   -7.1345   21.6473  -32.9600 H   0  0  0  0  0  0  0  0  0  0  0  0
   -6.6210   20.5805  -31.6073 H   0  0  0  0  0  0  0  0  0  0  0  0
   -5.4069   19.2574  -33.6056 H   0  0  0  0  0  0  0  0  0  0  0  0
   -5.4760   20.8942  -34.3742 H   0  0  0  0  0  0  0  0  0  0  0  0
   -3.0945   19.0276  -33.1228 H   0  0  0  0  0  0  0  0  0  0  0  0
   -1.0901   19.7687  -31.7911 H   0  0  0  0  0  0  0  0  0  0  0  0
   -0.1271   21.8693  -30.1104 H   0  0  0  0  0  0  0  0  0  0  0  0
   -2.6420   25.8770  -29.0010 H   0  0  0  0  0  0  0  0  0  0  0  0
   -5.2136   22.6539  -31.9515 H   0  0  0  0  0  0  0  0  0  0  0  0
  1  2  1  0
  2  3  1  0
  3  4  1  0
  4  5  1  0
  5  6  2  0
  6  7  1  0
  7  8  2  0
  8  9  1  0
  9 10  2  0
 10 11  1  0
 11 12  1  0
 11 13  2  0
 10 14  1  0
 14 15  1  0
 15 16  2  0
 15 17  1  0
 14 18  1  0
 18 19  2  0
 19  5  1  0
 18  8  1  0
  1 20  1  0
  1 21  1  0
  1 22  1  0
  3 23  1  0
  3 24  1  0
  4 25  1  0
  4 26  1  0
  6 27  1  0
  7 28  1  0
  9 29  1  0
 12 30  1  0
 19 31  1  0
M  CHG  2  12  -1  17  -1
M  END
>  <UniqueID>  (51) 
50

>  <SMILES>  (51) 
COCCc1ccc2cc(C([NH-])=O)n(C(=O)[O-])c2c1

>  <Energy>  (51) 
68.98037829799595

>  <Genealogy>  (51) 
COCCc1ccc2cc(C([NH-])=O)n(C(=O)[O-])c2c1 (protonated)
COCCc1ccc2cc(C([NH-])=O)n(C(=O)[O-])c2c1 (3D coordinates assigned)
COCCc1ccc2cc(C([NH-])=O)n(C(=O)[O-])c2c1 (optimized conformer: 68.98037829799595 kcal/mol)

>  <smiles>  (51) 
COCCc1ccc2cc(C(N)=O)n(C(=O)O)c2c1

>  <score_type>  (51) 
oracle

>  <origin>  (51) 
adg

>  <m_score__min__energy>  (51) 
-10.16

>  <m_primary>  (51) 
energy

$$$$
51:0
     RDKit          3D

 35 37  0  0  0  0  0  0  0  0999 V2000
   -6.1220   17.1380  -31.2620 C   0  0  0  0  0  0  0  0  0  0  0  0
   -6.4130   18.0340  -32.3870 N   0  0  0  0  0  0  0  0  0  0  0  0
   -6.4790   17.4730  -33.7430 C   0  0  0  0  0  0  0  0  0  0  0  0
   -6.6300   19.4510  -32.1660 C   0  0  0  0  0  0  0  0  0  0  0  0
   -7.8670   20.0630  -32.5200 C   0  0  0  0  0  0  0  0  0  0  0  0
   -8.0840   21.4350  -32.3100 C   0  0  0  0  0  0  0  0  0  0  0  0
   -7.0600   22.1790  -31.7370 C   0  0  0  0  0  0  0  0  0  0  0  0
   -6.9950   23.5230  -31.4440 C   0  0  0  0  0  0  0  0  0  0  0  0
   -5.7280   23.7210  -30.8970 C   0  0  0  0  0  0  0  0  0  0  0  0
   -5.2460   25.0260  -30.3950 C   0  0  0  0  0  0  0  0  0  0  0  0
   -3.8670   25.3770  -30.4680 N   0  0  0  0  0  0  0  0  0  0  0  0
   -6.0610   25.8310  -29.8690 O   0  0  0  0  0  0  0  0  0  0  0  0
   -5.0420   22.5450  -30.8530 N   0  0  0  0  0  0  0  0  0  0  0  0
   -3.6860   22.3350  -30.4290 C   0  0  0  0  0  0  0  0  0  0  0  0
   -2.8350   21.9120  -31.2570 O   0  0  0  0  0  0  0  0  0  0  0  0
   -3.2780   22.6040  -29.0420 C   0  0  0  0  0  0  0  0  0  0  0  0
   -2.6760   21.6980  -28.2490 N   0  0  0  0  0  0  0  0  0  0  0  0
   -2.4740   22.3170  -27.1210 O   0  0  0  0  0  0  0  0  0  0  0  0
   -2.9210   23.5480  -27.1970 C   0  0  0  0  0  0  0  0  0  0  0  0
   -3.4450   23.7810  -28.4120 N   0  0  0  0  0  0  0  0  0  0  0  0
   -5.8680   21.6140  -31.3750 C   0  0  0  0  0  0  0  0  0  0  0  0
   -5.6130   20.2550  -31.5900 C   0  0  0  0  0  0  0  0  0  0  0  0
   -6.2949   17.6703  -30.3150 H   0  0  0  0  0  0  0  0  0  0  0  0
   -6.7807   16.2586  -31.3138 H   0  0  0  0  0  0  0  0  0  0  0  0
   -5.0723   16.8134  -31.3138 H   0  0  0  0  0  0  0  0  0  0  0  0
   -6.6073   16.3822  -33.6827 H   0  0  0  0  0  0  0  0  0  0  0  0
   -7.3315   17.9133  -34.2809 H   0  0  0  0  0  0  0  0  0  0  0  0
   -5.5476   17.7034  -34.2809 H   0  0  0  0  0  0  0  0  0  0  0  0
   -8.6654   19.4510  -32.9651 H   0  0  0  0  0  0  0  0  0  0  0  0
   -9.0372   21.9067  -32.5911 H   0  0  0  0  0  0  0  0  0  0  0  0
   -7.7767   24.2796  -31.6069 H   0  0  0  0  0  0  0  0  0  0  0  0
   -3.5140   26.0120  -31.2180 H   0  0  0  0  0  0  0  0  0  0  0  0
   -2.8735   24.2849  -26.3817 H   0  0  0  0  0  0  0  0  0  0  0  0
   -3.8670   24.6660  -28.7710 H   0  0  0  0  0  0  0  0  0  0  0  0
   -4.6412   19.8179  -31.3172 H   0  0  0  0  0  0  0  0  0  0  0  0
  1  2  1  0
  2  3  1  0
  2  4  1  0
  4  5  2  0
  5  6  1  0
  6  7  2  0
  7  8  1  0
  8  9  2  0
  9 10  1  0
 10 11  1  0
 10 12  2  0
  9 13  1  0
 13 14  1  0
 14 15  2  0
 14 16  1  0
 16 17  2  0
 17 18  1  0
 18 19  1  0
 19 20  2  0
 13 21  1  0
 21 22  2  0
 22  4  1  0
 21  7  1  0
 20 16  1  0
  1 23  1  0
  1 24  1  0
  1 25  1  0
  3 26  1  0
  3 27  1  0
  3 28  1  0
  5 29  1  0
  6 30  1  0
  8 31  1  0
 11 32  1  0
 19 33  1  0
 20 34  1  0
 22 35  1  0
M  CHG  2  11  -1  20   1
M  END
>  <UniqueID>  (52) 
51

>  <SMILES>  (52) 
CN(C)c1ccc2cc(C([NH-])=O)n(C(=O)c3noc[nH+]3)c2c1

>  <Energy>  (52) 
112.04070698607136

>  <Genealogy>  (52) 
CN(C)c1ccc2cc(C([NH-])=O)n(C(=O)c3noc[nH+]3)c2c1 (protonated)
CN(C)c1ccc2cc(C([NH-])=O)n(C(=O)c3noc[nH+]3)c2c1 (3D coordinates assigned)
CN(C)c1ccc2cc(C([NH-])=O)n(C(=O)c3noc[nH+]3)c2c1 (optimized conformer: 112.04070698607136 kcal/mol)

>  <smiles>  (52) 
CN(C)c1ccc2cc(C(N)=O)n(C(=O)c3ncon3)c2c1

>  <score_type>  (52) 
oracle

>  <origin>  (52) 
adg

>  <m_score__min__energy>  (52) 
-8.8300000000000001

>  <m_primary>  (52) 
energy

$$$$
52:0
     RDKit          3D

 42 43  0  0  0  0  0  0  0  0999 V2000
   -4.2220   18.1890  -34.5670 N   0  0  0  0  0  0  0  0  0  0  0  0
   -5.5780   18.2350  -34.1210 C   0  0  0  0  0  0  0  0  0  0  0  0
   -6.3430   17.2690  -34.3830 O   0  0  0  0  0  0  0  0  0  0  0  0
   -6.0750   19.3840  -33.3290 C   0  0  0  0  0  0  0  0  0  0  0  0
   -7.4090   19.5560  -32.9630 C   0  0  0  0  0  0  0  0  0  0  0  0
   -7.4610   20.7820  -32.3390 C   0  0  0  0  0  0  0  0  0  0  0  0
   -8.5430   21.4600  -31.7880 C   0  0  0  0  0  0  0  0  0  0  0  0
   -8.3060   22.7180  -31.2070 C   0  0  0  0  0  0  0  0  0  0  0  0
   -6.9990   23.2630  -31.1730 C   0  0  0  0  0  0  0  0  0  0  0  0
   -6.7540   24.6260  -30.5840 C   0  0  0  0  0  0  0  0  0  0  0  0
   -5.2990   24.7890  -30.2760 C   0  0  0  0  0  0  0  0  0  0  0  0
   -4.4770   24.9900  -31.2110 O   0  0  0  0  0  0  0  0  0  0  0  0
   -4.8730   24.7560  -28.9440 O   0  0  0  0  0  0  0  0  0  0  0  0
   -3.9170   23.8190  -28.4550 C   0  0  0  0  0  0  0  0  0  0  0  0
   -2.5550   24.4890  -28.2810 C   0  0  0  0  0  0  0  0  0  0  0  0
   -2.2310   25.2080  -29.4390 O   0  0  0  0  0  0  0  0  0  0  0  0
   -5.9230   22.5360  -31.7320 C   0  0  0  0  0  0  0  0  0  0  0  0
   -6.1940   21.3040  -32.3340 C   0  0  0  0  0  0  0  0  0  0  0  0
   -5.3310   20.4590  -32.9410 N   0  0  0  0  0  0  0  0  0  0  0  0
   -3.9180   20.6580  -33.1050 C   0  0  0  0  0  0  0  0  0  0  0  0
   -3.4960   21.5950  -33.8370 O   0  0  0  0  0  0  0  0  0  0  0  0
   -3.0190   19.7930  -32.4690 O   0  0  0  0  0  0  0  0  0  0  0  0
   -1.7620   19.3990  -33.0200 C   0  0  0  0  0  0  0  0  0  0  0  0
   -0.6870   20.4640  -32.7770 C   0  0  0  0  0  0  0  0  0  0  0  0
   -0.4030   21.4420  -34.2410 Cl  0  0  0  0  0  0  0  0  0  0  0  0
   -1.1710   21.5440  -31.4440 Cl  0  0  0  0  0  0  0  0  0  0  0  0
    0.8440   19.6700  -32.3300 Cl  0  0  0  0  0  0  0  0  0  0  0  0
   -3.8710   17.3560  -35.0910 H   0  0  0  0  0  0  0  0  0  0  0  0
   -3.5730   18.9940  -34.4180 H   0  0  0  0  0  0  0  0  0  0  0  0
   -8.2430   18.8599  -33.1360 H   0  0  0  0  0  0  0  0  0  0  0  0
   -9.5533   21.0253  -31.8062 H   0  0  0  0  0  0  0  0  0  0  0  0
   -9.1438   23.2847  -30.7745 H   0  0  0  0  0  0  0  0  0  0  0  0
   -7.0635   25.3968  -31.3051 H   0  0  0  0  0  0  0  0  0  0  0  0
   -7.3364   24.7318  -29.6568 H   0  0  0  0  0  0  0  0  0  0  0  0
   -4.2557   23.4290  -27.4838 H   0  0  0  0  0  0  0  0  0  0  0  0
   -3.8202   22.9970  -29.1796 H   0  0  0  0  0  0  0  0  0  0  0  0
   -2.5924   25.1759  -27.4226 H   0  0  0  0  0  0  0  0  0  0  0  0
   -1.7899   23.7186  -28.1046 H   0  0  0  0  0  0  0  0  0  0  0  0
   -3.0630   25.6750  -29.7170 H   0  0  0  0  0  0  0  0  0  0  0  0
   -4.8969   22.9306  -31.6941 H   0  0  0  0  0  0  0  0  0  0  0  0
   -1.4448   18.4564  -32.5500 H   0  0  0  0  0  0  0  0  0  0  0  0
   -1.8843   19.2717  -34.1057 H   0  0  0  0  0  0  0  0  0  0  0  0
  1  2  1  0
  2  3  2  0
  2  4  1  0
  4  5  2  0
  5  6  1  0
  6  7  2  0
  7  8  1  0
  8  9  2  0
  9 10  1  0
 10 11  1  0
 11 12  2  0
 11 13  1  0
 13 14  1  0
 14 15  1  0
 15 16  1  0
  9 17  1  0
 17 18  2  0
 18 19  1  0
 19 20  1  0
 20 21  2  0
 20 22  1  0
 22 23  1  0
 23 24  1  0
 24 25  1  0
 24 26  1  0
 24 27  1  0
 19  4  1  0
 18  6  1  0
  1 28  1  0
  1 29  1  0
  5 30  1  0
  7 31  1  0
  8 32  1  0
 10 33  1  0
 10 34  1  0
 14 35  1  0
 14 36  1  0
 15 37  1  0
 15 38  1  0
 16 39  1  0
 17 40  1  0
 23 41  1  0
 23 42  1  0
M  END
>  <UniqueID>  (53) 
52

>  <SMILES>  (53) 
NC(=O)c1cc2ccc(CC(=O)OCCO)cc2n1C(=O)OCC(Cl)(Cl)Cl

>  <Energy>  (53) 
70.64757374534364

>  <Genealogy>  (53) 
NC(=O)c1cc2ccc(CC(=O)OCCO)cc2n1C(=O)OCC(Cl)(Cl)Cl (3D coordinates assigned)
NC(=O)c1cc2ccc(CC(=O)OCCO)cc2n1C(=O)OCC(Cl)(Cl)Cl (optimized conformer: 70.64757374534364 kcal/mol)

>  <smiles>  (53) 
NC(=O)c1cc2ccc(CC(=O)OCCO)cc2n1C(=O)OCC(Cl)(Cl)Cl

>  <score_type>  (53) 
oracle

>  <origin>  (53) 
adg

>  <m_score__min__energy>  (53) 
-8.3900000000000006

>  <m_primary>  (53) 
energy

$$$$
53:0
     RDKit          3D

 51 53  0  0  0  0  0  0  0  0999 V2000
   -1.1660   21.1990  -30.3000 C   0  0  0  0  0  0  0  0  0  0  0  0
   -1.6900   22.6150  -30.5110 C   0  0  2  0  0  0  0  0  0  0  0  0
   -1.1810   23.4840  -29.4980 O   0  0  0  0  0  0  0  0  0  0  0  0
   -1.9720   24.4020  -28.8010 C   0  0  0  0  0  0  0  0  0  0  0  0
   -3.0650   24.0430  -28.2790 O   0  0  0  0  0  0  0  0  0  0  0  0
   -1.5280   25.7230  -28.6830 O   0  0  0  0  0  0  0  0  0  0  0  0
   -0.9550   26.2610  -27.4900 C   0  0  0  0  0  0  0  0  0  0  0  0
    0.4080   25.5830  -27.1910 C   0  0  0  0  0  0  0  0  0  0  0  0
    0.2600   24.3910  -26.2400 C   0  0  0  0  0  0  0  0  0  0  0  0
   -0.3250   24.8200  -24.8790 C   0  0  0  0  0  0  0  0  0  0  0  0
   -1.2740   26.0310  -24.9740 C   0  0  0  0  0  0  0  0  0  0  0  0
   -1.9700   26.0970  -26.3370 C   0  0  0  0  0  0  0  0  0  0  0  0
   -3.1120   22.5940  -30.4380 O   0  0  0  0  0  0  0  0  0  0  0  0
   -3.9320   22.4600  -31.5630 C   0  0  0  0  0  0  0  0  0  0  0  0
   -3.4390   22.1200  -32.6740 O   0  0  0  0  0  0  0  0  0  0  0  0
   -5.3370   22.7360  -31.4570 N   0  0  0  0  0  0  0  0  0  0  0  0
   -5.9370   23.8570  -30.9640 C   0  0  0  0  0  0  0  0  0  0  0  0
   -5.2560   25.1100  -30.5760 C   0  0  0  0  0  0  0  0  0  0  0  0
   -3.8750   25.3120  -30.8580 N   0  0  0  0  0  0  0  0  0  0  0  0
   -5.9150   26.0350  -30.0300 O   0  0  0  0  0  0  0  0  0  0  0  0
   -7.3220   23.7020  -30.9460 C   0  0  0  0  0  0  0  0  0  0  0  0
   -7.5550   22.4450  -31.4570 C   0  0  0  0  0  0  0  0  0  0  0  0
   -8.7540   21.7680  -31.6570 C   0  0  0  0  0  0  0  0  0  0  0  0
   -8.6970   20.4630  -32.1730 C   0  0  0  0  0  0  0  0  0  0  0  0
   -7.4480   19.8610  -32.4740 C   0  0  0  0  0  0  0  0  0  0  0  0
   -7.3890   18.4570  -33.0090 C   0  0  0  0  0  0  0  0  0  0  0  0
   -6.4330   18.3770  -34.0040 F   0  0  0  0  0  0  0  0  0  0  0  0
   -7.0600   17.5850  -31.9880 F   0  0  0  0  0  0  0  0  0  0  0  0
   -6.2520   20.5780  -32.2550 C   0  0  0  0  0  0  0  0  0  0  0  0
   -6.3410   21.8830  -31.7580 C   0  0  0  0  0  0  0  0  0  0  0  0
   -1.0898   20.9931  -29.2221 H   0  0  0  0  0  0  0  0  0  0  0  0
   -1.8574   20.4794  -30.7628 H   0  0  0  0  0  0  0  0  0  0  0  0
   -0.1727   21.1028  -30.7628 H   0  0  0  0  0  0  0  0  0  0  0  0
   -1.3632   22.9820  -31.4951 H   0  0  0  0  0  0  0  0  0  0  0  0
   -0.7455   27.3340  -27.6114 H   0  0  0  0  0  0  0  0  0  0  0  0
    0.8443   25.2303  -28.1372 H   0  0  0  0  0  0  0  0  0  0  0  0
    1.0578   26.3261  -26.7056 H   0  0  0  0  0  0  0  0  0  0  0  0
   -0.4103   23.6493  -26.6989 H   0  0  0  0  0  0  0  0  0  0  0  0
    1.2585   23.9635  -26.0660 H   0  0  0  0  0  0  0  0  0  0  0  0
   -0.8837   23.9717  -24.4568 H   0  0  0  0  0  0  0  0  0  0  0  0
    0.5206   25.1197  -24.2424 H   0  0  0  0  0  0  0  0  0  0  0  0
   -2.0379   25.9484  -24.1868 H   0  0  0  0  0  0  0  0  0  0  0  0
   -0.6771   26.9463  -24.8480 H   0  0  0  0  0  0  0  0  0  0  0  0
   -2.5386   25.1682  -26.4922 H   0  0  0  0  0  0  0  0  0  0  0  0
   -2.6361   26.9724  -26.3397 H   0  0  0  0  0  0  0  0  0  0  0  0
   -3.1370   24.7810  -30.3440 H   0  0  0  0  0  0  0  0  0  0  0  0
   -8.0700   24.4294  -30.5976 H   0  0  0  0  0  0  0  0  0  0  0  0
   -9.7180   22.2409  -31.4181 H   0  0  0  0  0  0  0  0  0  0  0  0
   -9.6281   19.9032  -32.3451 H   0  0  0  0  0  0  0  0  0  0  0  0
   -8.3718   18.1865  -33.4223 H   0  0  0  0  0  0  0  0  0  0  0  0
   -5.2742   20.1221  -32.4697 H   0  0  0  0  0  0  0  0  0  0  0  0
  1  2  1  0
  2  3  1  0
  3  4  1  0
  4  5  2  0
  4  6  1  0
  6  7  1  0
  7  8  1  0
  8  9  1  0
  9 10  1  0
 10 11  1  0
 11 12  1  0
  2 13  1  0
 13 14  1  0
 14 15  2  0
 14 16  1  0
 16 17  1  0
 17 18  1  0
 18 19  1  0
 18 20  2  0
 17 21  2  0
 21 22  1  0
 22 23  2  0
 23 24  1  0
 24 25  2  0
 25 26  1  0
 26 27  1  0
 26 28  1  0
 25 29  1  0
 29 30  2  0
 12  7  1  0
 30 16  1  0
 30 22  1  0
  1 31  1  0
  1 32  1  0
  1 33  1  0
  2 34  1  6
  7 35  1  0
  8 36  1  0
  8 37  1  0
  9 38  1  0
  9 39  1  0
 10 40  1  0
 10 41  1  0
 11 42  1  0
 11 43  1  0
 12 44  1  0
 12 45  1  0
 19 46  1  0
 21 47  1  0
 23 48  1  0
 24 49  1  0
 26 50  1  0
 29 51  1  0
M  CHG  1  19  -1
M  END
>  <UniqueID>  (54) 
53

>  <SMILES>  (54) 
C[C@H](OC(=O)OC1CCCCC1)OC(=O)n1c(C([NH-])=O)cc2ccc(C(F)F)cc21

>  <Energy>  (54) 
85.8590894482696

>  <Genealogy>  (54) 
CC(OC(=O)OC1CCCCC1)OC(=O)n1c(C([NH-])=O)cc2ccc(C(F)F)cc21 (protonated)
C[C@H](OC(=O)OC1CCCCC1)OC(=O)n1c(C([NH-])=O)cc2ccc(C(F)F)cc21 (chirality)
C[C@H](OC(=O)OC1CCCCC1)OC(=O)n1c(C([NH-])=O)cc2ccc(C(F)F)cc21 (3D coordinates assigned)
C[C@H](OC(=O)OC1CCCCC1)OC(=O)n1c(C([NH-])=O)cc2ccc(C(F)F)cc21 (nonaromatic ring conformer: 85.8590894482696 kcal/mol)

>  <smiles>  (54) 
CC(OC(=O)OC1CCCCC1)OC(=O)n1c(C(N)=O)cc2ccc(C(F)F)cc21

>  <score_type>  (54) 
oracle

>  <origin>  (54) 
adg

>  <m_score__min__energy>  (54) 
-11.369999999999999

>  <m_primary>  (54) 
energy

$$$$
54:0
     RDKit          3D

 40 41  0  0  0  0  0  0  0  0999 V2000
   -9.4690   19.4230  -32.6540 C   0  0  0  0  0  0  0  0  0  0  0  0
   -8.6110   18.5920  -31.7070 C   0  0  0  0  0  0  0  0  0  0  0  0
   -7.8370   17.6440  -32.4380 O   0  0  0  0  0  0  0  0  0  0  0  0
   -6.4720   17.4250  -32.2110 C   0  0  0  0  0  0  0  0  0  0  0  0
   -6.0810   16.8610  -31.1530 O   0  0  0  0  0  0  0  0  0  0  0  0
   -5.4550   17.9140  -33.2060 C   0  0  1  0  0  0  0  0  0  0  0  0
   -6.0670   18.0910  -34.6010 C   0  0  0  0  0  0  0  0  0  0  0  0
   -4.8200   19.2020  -32.7220 C   0  0  0  0  0  0  0  0  0  0  0  0
   -3.4200   19.4170  -32.8490 C   0  0  0  0  0  0  0  0  0  0  0  0
   -2.8300   20.6060  -32.3910 C   0  0  0  0  0  0  0  0  0  0  0  0
   -3.6580   21.5650  -31.8140 C   0  0  0  0  0  0  0  0  0  0  0  0
   -3.3490   22.7900  -31.2670 C   0  0  0  0  0  0  0  0  0  0  0  0
   -4.5650   23.3140  -30.8330 C   0  0  0  0  0  0  0  0  0  0  0  0
   -4.7080   24.6550  -30.2340 C   0  0  0  0  0  0  0  0  0  0  0  0
   -5.4180   24.8480  -29.0100 N   0  0  0  0  0  0  0  0  0  0  0  0
   -4.2360   25.6560  -30.8380 O   0  0  0  0  0  0  0  0  0  0  0  0
   -5.5800   22.4410  -31.0840 N   0  0  0  0  0  0  0  0  0  0  0  0
   -6.9590   22.5460  -30.6940 C   0  0  0  0  0  0  0  0  0  0  0  0
   -7.2490   22.6910  -29.4760 O   0  0  0  0  0  0  0  0  0  0  0  0
   -8.0610   22.5390  -31.7120 C   0  0  0  0  0  0  0  0  0  0  0  0
   -9.2570   22.2070  -31.1040 F   0  0  0  0  0  0  0  0  0  0  0  0
   -7.7950   21.6310  -32.7210 F   0  0  0  0  0  0  0  0  0  0  0  0
   -8.1750   23.7990  -32.2700 F   0  0  0  0  0  0  0  0  0  0  0  0
   -5.0100   21.3790  -31.6920 C   0  0  0  0  0  0  0  0  0  0  0  0
   -5.6240   20.2000  -32.1250 C   0  0  0  0  0  0  0  0  0  0  0  0
  -10.1382   20.0711  -32.0691 H   0  0  0  0  0  0  0  0  0  0  0  0
   -8.8191   20.0439  -33.2881 H   0  0  0  0  0  0  0  0  0  0  0  0
  -10.0688   18.7536  -33.2881 H   0  0  0  0  0  0  0  0  0  0  0  0
   -7.9359   19.2588  -31.1506 H   0  0  0  0  0  0  0  0  0  0  0  0
   -9.2696   18.0527  -31.0103 H   0  0  0  0  0  0  0  0  0  0  0  0
   -4.6702   17.1480  -33.2911 H   0  0  0  0  0  0  0  0  0  0  0  0
   -7.1196   18.3954  -34.5037 H   0  0  0  0  0  0  0  0  0  0  0  0
   -5.5107   18.8651  -35.1499 H   0  0  0  0  0  0  0  0  0  0  0  0
   -6.0097   17.1395  -35.1499 H   0  0  0  0  0  0  0  0  0  0  0  0
   -2.7914   18.6420  -33.3119 H   0  0  0  0  0  0  0  0  0  0  0  0
   -1.7471   20.7745  -32.4852 H   0  0  0  0  0  0  0  0  0  0  0  0
   -2.3553   23.2553  -31.1892 H   0  0  0  0  0  0  0  0  0  0  0  0
   -5.4660   25.7960  -28.5770 H   0  0  0  0  0  0  0  0  0  0  0  0
   -5.9690   24.0740  -28.5790 H   0  0  0  0  0  0  0  0  0  0  0  0
   -6.7073   20.0523  -32.0040 H   0  0  0  0  0  0  0  0  0  0  0  0
  1  2  1  0
  2  3  1  0
  3  4  1  0
  4  5  2  0
  4  6  1  0
  6  7  1  0
  6  8  1  0
  8  9  2  0
  9 10  1  0
 10 11  2  0
 11 12  1  0
 12 13  2  0
 13 14  1  0
 14 15  1  0
 14 16  2  0
 13 17  1  0
 17 18  1  0
 18 19  2  0
 18 20  1  0
 20 21  1  0
 20 22  1  0
 20 23  1  0
 17 24  1  0
 24 25  2  0
 25  8  1  0
 24 11  1  0
  1 26  1  0
  1 27  1  0
  1 28  1  0
  2 29  1  0
  2 30  1  0
  6 31  1  6
  7 32  1  0
  7 33  1  0
  7 34  1  0
  9 35  1  0
 10 36  1  0
 12 37  1  0
 15 38  1  0
 15 39  1  0
 25 40  1  0
M  END
>  <UniqueID>  (55) 
54

>  <SMILES>  (55) 
CCOC(=O)[C@@H](C)c1ccc2cc(C(N)=O)n(C(=O)C(F)(F)F)c2c1

>  <Energy>  (55) 
74.01598513044124

>  <Genealogy>  (55) 
CCOC(=O)[C@@H](C)c1ccc2cc(C(N)=O)n(C(=O)C(F)(F)F)c2c1 (3D coordinates assigned)
CCOC(=O)[C@@H](C)c1ccc2cc(C(N)=O)n(C(=O)C(F)(F)F)c2c1 (optimized conformer: 74.01598513044124 kcal/mol)

>  <smiles>  (55) 
CCOC(=O)[C@@H](C)c1ccc2cc(C(N)=O)n(C(=O)C(F)(F)F)c2c1

>  <score_type>  (55) 
oracle

>  <origin>  (55) 
adg

>  <m_score__min__energy>  (55) 
-8.3100000000000005

>  <m_primary>  (55) 
energy

$$$$
55:0
     RDKit          3D

 45 46  0  0  0  0  0  0  0  0999 V2000
   -7.2590   17.3370  -33.5160 C   0  0  0  0  0  0  0  0  0  0  0  0
   -6.0260   18.0380  -32.8940 C   0  0  0  0  0  0  0  0  0  0  0  0
   -5.6660   17.2510  -31.6070 C   0  0  0  0  0  0  0  0  0  0  0  0
   -4.8740   17.9260  -33.8990 C   0  0  0  0  0  0  0  0  0  0  0  0
   -4.8960   18.6260  -34.9030 O   0  0  0  0  0  0  0  0  0  0  0  0
   -3.6510   17.0570  -33.6760 C   0  0  0  0  0  0  0  0  0  0  0  0
   -2.4870   17.8670  -33.0930 C   0  0  0  0  0  0  0  0  0  0  0  0
   -1.5310   18.3280  -34.1960 C   0  0  0  0  0  0  0  0  0  0  0  0
   -1.4780   19.8250  -34.2490 C   0  0  0  0  0  0  0  0  0  0  0  0
   -2.6800   20.5930  -34.2010 N   0  0  0  0  0  0  0  0  0  0  0  0
   -0.3620   20.4100  -34.2890 O   0  0  0  0  0  0  0  0  0  0  0  0
   -6.3030   19.5120  -32.5150 C   0  0  0  0  0  0  0  0  0  0  0  0
   -7.6450   19.9940  -32.5090 C   0  0  0  0  0  0  0  0  0  0  0  0
   -7.9470   21.3130  -32.1380 C   0  0  0  0  0  0  0  0  0  0  0  0
   -6.9000   22.1390  -31.7510 C   0  0  0  0  0  0  0  0  0  0  0  0
   -6.9150   23.4520  -31.3420 C   0  0  0  0  0  0  0  0  0  0  0  0
   -5.5880   23.7630  -31.0560 C   0  0  0  0  0  0  0  0  0  0  0  0
   -5.1660   25.0550  -30.4760 C   0  0  0  0  0  0  0  0  0  0  0  0
   -3.9270   25.6530  -30.8460 N   0  0  0  0  0  0  0  0  0  0  0  0
   -5.8830   25.6090  -29.5990 O   0  0  0  0  0  0  0  0  0  0  0  0
   -4.7820   22.6890  -31.2930 N   0  0  0  0  0  0  0  0  0  0  0  0
   -3.3500   22.6320  -31.1960 C   0  0  0  0  0  0  0  0  0  0  0  0
   -2.6690   22.1020  -32.1150 O   0  0  0  0  0  0  0  0  0  0  0  0
   -2.6990   23.1820  -30.0980 O   0  0  0  0  0  0  0  0  0  0  0  0
   -5.6040   21.7010  -31.7170 C   0  0  0  0  0  0  0  0  0  0  0  0
   -5.2670   20.4010  -32.1130 C   0  0  0  0  0  0  0  0  0  0  0  0
   -7.9130   16.9652  -32.7135 H   0  0  0  0  0  0  0  0  0  0  0  0
   -7.8138   18.0547  -34.1381 H   0  0  0  0  0  0  0  0  0  0  0  0
   -6.9260   16.4932  -34.1381 H   0  0  0  0  0  0  0  0  0  0  0  0
   -5.9389   17.8476  -30.7240 H   0  0  0  0  0  0  0  0  0  0  0  0
   -6.2186   16.3000  -31.5921 H   0  0  0  0  0  0  0  0  0  0  0  0
   -4.5851   17.0472  -31.5921 H   0  0  0  0  0  0  0  0  0  0  0  0
   -3.9096   16.2481  -32.9768 H   0  0  0  0  0  0  0  0  0  0  0  0
   -3.3356   16.6480  -34.6472 H   0  0  0  0  0  0  0  0  0  0  0  0
   -2.8880   18.7494  -32.5729 H   0  0  0  0  0  0  0  0  0  0  0  0
   -1.9307   17.2261  -32.3931 H   0  0  0  0  0  0  0  0  0  0  0  0
   -0.5239   17.9367  -33.9897 H   0  0  0  0  0  0  0  0  0  0  0  0
   -1.8927   17.9491  -35.1633 H   0  0  0  0  0  0  0  0  0  0  0  0
   -2.6410   21.6360  -34.2250 H   0  0  0  0  0  0  0  0  0  0  0  0
   -3.6110   20.1230  -34.1380 H   0  0  0  0  0  0  0  0  0  0  0  0
   -8.4612   19.3171  -32.8016 H   0  0  0  0  0  0  0  0  0  0  0  0
   -8.9831   21.6821  -32.1533 H   0  0  0  0  0  0  0  0  0  0  0  0
   -7.7887   24.1150  -31.2586 H   0  0  0  0  0  0  0  0  0  0  0  0
   -3.0220   25.2850  -30.4770 H   0  0  0  0  0  0  0  0  0  0  0  0
   -4.2174   20.0718  -32.1134 H   0  0  0  0  0  0  0  0  0  0  0  0
  1  2  1  0
  2  3  1  0
  2  4  1  0
  4  5  2  0
  4  6  1  0
  6  7  1  0
  7  8  1  0
  8  9  1  0
  9 10  1  0
  9 11  2  0
  2 12  1  0
 12 13  2  0
 13 14  1  0
 14 15  2  0
 15 16  1  0
 16 17  2  0
 17 18  1  0
 18 19  1  0
 18 20  2  0
 17 21  1  0
 21 22  1  0
 22 23  2  0
 22 24  1  0
 21 25  1  0
 25 26  2  0
 26 12  1  0
 25 15  1  0
  1 27  1  0
  1 28  1  0
  1 29  1  0
  3 30  1  0
  3 31  1  0
  3 32  1  0
  6 33  1  0
  6 34  1  0
  7 35  1  0
  7 36  1  0
  8 37  1  0
  8 38  1  0
 10 39  1  0
 10 40  1  0
 13 41  1  0
 14 42  1  0
 16 43  1  0
 19 44  1  0
 26 45  1  0
M  CHG  2  19  -1  24  -1
M  END
>  <UniqueID>  (56) 
55

>  <SMILES>  (56) 
CC(C)(C(=O)CCCC(N)=O)c1ccc2cc(C([NH-])=O)n(C(=O)[O-])c2c1

>  <Energy>  (56) 
81.27335678811508

>  <Genealogy>  (56) 
CC(C)(C(=O)CCCC(N)=O)c1ccc2cc(C([NH-])=O)n(C(=O)[O-])c2c1 (protonated)
CC(C)(C(=O)CCCC(N)=O)c1ccc2cc(C([NH-])=O)n(C(=O)[O-])c2c1 (3D coordinates assigned)
CC(C)(C(=O)CCCC(N)=O)c1ccc2cc(C([NH-])=O)n(C(=O)[O-])c2c1 (optimized conformer: 81.27335678811508 kcal/mol)

>  <smiles>  (56) 
CC(C)(C(=O)CCCC(N)=O)c1ccc2cc(C(N)=O)n(C(=O)O)c2c1

>  <score_type>  (56) 
oracle

>  <origin>  (56) 
adg

>  <m_score__min__energy>  (56) 
-11.4

>  <m_primary>  (56) 
energy

$$$$
56:0
     RDKit          3D

 54 57  0  0  0  0  0  0  0  0999 V2000
   -8.3240   20.8500  -31.4010 C   0  0  0  0  0  0  0  0  0  0  0  0
   -7.1370   21.6990  -31.2250 N   0  0  0  0  0  0  0  0  0  0  0  0
   -6.9250   22.5800  -32.3740 C   0  0  0  0  0  0  0  0  0  0  0  0
   -6.1680   23.7940  -31.8580 C   0  0  0  0  0  0  0  0  0  0  0  0
   -6.3940   23.8070  -30.3510 C   0  0  2  0  0  0  0  0  0  0  0  0
   -5.1430   23.6960  -29.6710 O   0  0  0  0  0  0  0  0  0  0  0  0
   -3.9290   24.1220  -30.2140 C   0  0  0  0  0  0  0  0  0  0  0  0
   -3.8190   25.3030  -30.6430 O   0  0  0  0  0  0  0  0  0  0  0  0
   -2.7970   23.2280  -30.2520 N   0  0  0  0  0  0  0  0  0  0  0  0
   -1.5620   23.4400  -29.7110 C   0  0  0  0  0  0  0  0  0  0  0  0
   -1.1700   24.5880  -28.8790 C   0  0  0  0  0  0  0  0  0  0  0  0
   -2.1500   25.5020  -28.3900 N   0  0  0  0  0  0  0  0  0  0  0  0
    0.0340   24.7230  -28.5350 O   0  0  0  0  0  0  0  0  0  0  0  0
   -0.6720   22.4390  -30.0820 C   0  0  0  0  0  0  0  0  0  0  0  0
   -1.4060   21.5750  -30.8590 C   0  0  0  0  0  0  0  0  0  0  0  0
   -1.0190   20.3920  -31.4810 C   0  0  0  0  0  0  0  0  0  0  0  0
   -1.9850   19.6890  -32.2180 C   0  0  0  0  0  0  0  0  0  0  0  0
   -3.3080   20.1760  -32.3100 C   0  0  0  0  0  0  0  0  0  0  0  0
   -4.2900   19.4410  -33.0610 C   0  0  0  0  0  0  0  0  0  0  0  0
   -5.1130   18.8250  -33.6900 C   0  0  0  0  0  0  0  0  0  0  0  0
   -6.1120   18.0720  -34.4550 C   0  0  0  0  0  0  0  0  0  0  0  0
   -5.8250   16.6420  -34.3800 N   0  0  0  0  0  0  0  0  0  0  0  0
   -6.8320   15.6110  -34.2150 C   0  0  0  0  0  0  0  0  0  0  0  0
   -6.0700   14.2700  -34.2200 C   0  0  0  0  0  0  0  0  0  0  0  0
   -4.5990   14.5750  -34.5430 C   0  0  0  0  0  0  0  0  0  0  0  0
   -4.5610   16.0480  -34.5980 C   0  0  0  0  0  0  0  0  0  0  0  0
   -3.5160   16.7150  -34.8310 O   0  0  0  0  0  0  0  0  0  0  0  0
   -3.6710   21.3770  -31.6680 C   0  0  0  0  0  0  0  0  0  0  0  0
   -2.6850   22.0690  -30.9480 C   0  0  0  0  0  0  0  0  0  0  0  0
   -7.2730   22.5900  -30.0710 C   0  0  0  0  0  0  0  0  0  0  0  0
   -8.7211   20.5660  -30.4153 H   0  0  0  0  0  0  0  0  0  0  0  0
   -9.0921   21.4049  -31.9597 H   0  0  0  0  0  0  0  0  0  0  0  0
   -8.0471   19.9438  -31.9597 H   0  0  0  0  0  0  0  0  0  0  0  0
   -6.3336   22.0633  -33.1442 H   0  0  0  0  0  0  0  0  0  0  0  0
   -7.8819   22.8740  -32.8299 H   0  0  0  0  0  0  0  0  0  0  0  0
   -5.0955   23.7028  -32.0848 H   0  0  0  0  0  0  0  0  0  0  0  0
   -6.5184   24.7235  -32.3304 H   0  0  0  0  0  0  0  0  0  0  0  0
   -6.8667   24.7376  -30.0039 H   0  0  0  0  0  0  0  0  0  0  0  0
   -1.8640   26.3170  -27.8040 H   0  0  0  0  0  0  0  0  0  0  0  0
   -3.1670   25.3450  -28.5760 H   0  0  0  0  0  0  0  0  0  0  0  0
    0.3911   22.3561  -29.8119 H   0  0  0  0  0  0  0  0  0  0  0  0
    0.0125   20.0190  -31.3977 H   0  0  0  0  0  0  0  0  0  0  0  0
   -1.7102   18.7533  -32.7269 H   0  0  0  0  0  0  0  0  0  0  0  0
   -7.1115   18.2653  -34.0382 H   0  0  0  0  0  0  0  0  0  0  0  0
   -6.0779   18.3924  -35.5068 H   0  0  0  0  0  0  0  0  0  0  0  0
   -7.3640   15.7451  -33.2616 H   0  0  0  0  0  0  0  0  0  0  0  0
   -7.5848   15.6503  -35.0161 H   0  0  0  0  0  0  0  0  0  0  0  0
   -6.1461   13.7913  -33.2326 H   0  0  0  0  0  0  0  0  0  0  0  0
   -6.4966   13.5851  -34.9677 H   0  0  0  0  0  0  0  0  0  0  0  0
   -3.9350   14.1931  -33.7535 H   0  0  0  0  0  0  0  0  0  0  0  0
   -4.2560   14.1009  -35.4745 H   0  0  0  0  0  0  0  0  0  0  0  0
   -4.6997   21.7617  -31.7296 H   0  0  0  0  0  0  0  0  0  0  0  0
   -6.9350   22.0805  -29.1566 H   0  0  0  0  0  0  0  0  0  0  0  0
   -8.3218   22.8854  -29.9203 H   0  0  0  0  0  0  0  0  0  0  0  0
  1  2  1  0
  2  3  1  0
  3  4  1  0
  4  5  1  0
  5  6  1  0
  6  7  1  0
  7  8  2  0
  7  9  1  0
  9 10  1  0
 10 11  1  0
 11 12  1  0
 11 13  2  0
 10 14  2  0
 14 15  1  0
 15 16  2  0
 16 17  1  0
 17 18  2  0
 18 19  1  0
 19 20  3  0
 20 21  1  0
 21 22  1  0
 22 23  1  0
 23 24  1  0
 24 25  1  0
 25 26  1  0
 26 27  2  0
 18 28  1  0
 28 29  2  0
  5 30  1  0
 30  2  1  0
 29  9  1  0
 29 15  1  0
 26 22  1  0
  1 31  1  0
  1 32  1  0
  1 33  1  0
  3 34  1  0
  3 35  1  0
  4 36  1  0
  4 37  1  0
  5 38  1  1
 12 39  1  0
 12 40  1  0
 14 41  1  0
 16 42  1  0
 17 43  1  0
 21 44  1  0
 21 45  1  0
 23 46  1  0
 23 47  1  0
 24 48  1  0
 24 49  1  0
 25 50  1  0
 25 51  1  0
 28 52  1  0
 30 53  1  0
 30 54  1  0
M  END
>  <UniqueID>  (57) 
56

>  <SMILES>  (57) 
CN1CC[C@H](OC(=O)n2c(C(N)=O)cc3ccc(C#CCN4CCCC4=O)cc32)C1

>  <Energy>  (57) 
98.1687459165677

>  <Genealogy>  (57) 
CN1CC[C@H](OC(=O)n2c(C(N)=O)cc3ccc(C#CCN4CCCC4=O)cc32)C1 (3D coordinates assigned)
CN1CC[C@H](OC(=O)n2c(C(N)=O)cc3ccc(C#CCN4CCCC4=O)cc32)C1 (nonaromatic ring conformer: 98.1687459165677 kcal/mol)

>  <smiles>  (57) 
CN1CC[C@H](OC(=O)n2c(C(N)=O)cc3ccc(C#CCN4CCCC4=O)cc32)C1

>  <score_type>  (57) 
oracle

>  <origin>  (57) 
adg

>  <m_score__min__energy>  (57) 
-10.76

>  <m_primary>  (57) 
energy

$$$$
57:0
     RDKit          3D

 51 53  0  0  0  0  0  0  0  0999 V2000
   -4.1490   15.4980  -34.2810 C   0  0  0  0  0  0  0  0  0  0  0  0
   -5.4770   15.7710  -33.7070 N   0  0  0  0  0  0  0  0  0  0  0  0
   -6.2730   16.6680  -34.5820 C   0  0  0  0  0  0  0  0  0  0  0  0
   -6.1020   18.1540  -34.2280 C   0  0  0  0  0  0  0  0  0  0  0  0
   -6.3730   18.3840  -32.8020 N   0  0  0  0  0  0  0  0  0  0  0  0
   -6.6130   19.7210  -32.3110 C   0  0  0  0  0  0  0  0  0  0  0  0
   -7.9390   20.1740  -32.0800 C   0  0  0  0  0  0  0  0  0  0  0  0
   -8.1840   21.4740  -31.6120 C   0  0  0  0  0  0  0  0  0  0  0  0
   -7.0910   22.3040  -31.3860 C   0  0  0  0  0  0  0  0  0  0  0  0
   -7.0450   23.5980  -30.9210 C   0  0  0  0  0  0  0  0  0  0  0  0
   -5.6940   23.9290  -30.8840 C   0  0  0  0  0  0  0  0  0  0  0  0
   -5.1970   25.2730  -30.5240 C   0  0  0  0  0  0  0  0  0  0  0  0
   -3.8640   25.6680  -30.8350 N   0  0  0  0  0  0  0  0  0  0  0  0
   -5.9750   26.1010  -29.9820 O   0  0  0  0  0  0  0  0  0  0  0  0
   -4.9330   22.8780  -31.3020 N   0  0  0  0  0  0  0  0  0  0  0  0
   -3.4990   22.7820  -31.3030 C   0  0  0  0  0  0  0  0  0  0  0  0
   -2.8470   23.1740  -30.2990 O   0  0  0  0  0  0  0  0  0  0  0  0
   -2.8440   22.2580  -32.4280 O   0  0  0  0  0  0  0  0  0  0  0  0
   -2.1540   21.0040  -32.5030 C   0  0  0  0  0  0  0  0  0  0  0  0
   -0.6630   21.2180  -32.8290 C   0  0  0  0  0  0  0  0  0  0  0  0
   -2.2700   20.3390  -31.1220 C   0  0  0  0  0  0  0  0  0  0  0  0
   -2.8110   20.0880  -33.5530 C   0  0  0  0  0  0  0  0  0  0  0  0
   -5.8040   21.8920  -31.6110 C   0  0  0  0  0  0  0  0  0  0  0  0
   -5.5300   20.5950  -32.0580 C   0  0  0  0  0  0  0  0  0  0  0  0
   -6.4350   17.2300  -31.8970 C   0  0  0  0  0  0  0  0  0  0  0  0
   -5.3590   16.2180  -32.2970 C   0  0  0  0  0  0  0  0  0  0  0  0
   -3.4222   15.3486  -33.4689 H   0  0  0  0  0  0  0  0  0  0  0  0
   -4.1971   14.5910  -34.9015 H   0  0  0  0  0  0  0  0  0  0  0  0
   -3.8354   16.3505  -34.9015 H   0  0  0  0  0  0  0  0  0  0  0  0
   -5.9538   16.5162  -35.6237 H   0  0  0  0  0  0  0  0  0  0  0  0
   -7.3336   16.4140  -34.4381 H   0  0  0  0  0  0  0  0  0  0  0  0
   -5.0705   18.4623  -34.4536 H   0  0  0  0  0  0  0  0  0  0  0  0
   -6.8158   18.7431  -34.8226 H   0  0  0  0  0  0  0  0  0  0  0  0
   -8.7849   19.4971  -32.2704 H   0  0  0  0  0  0  0  0  0  0  0  0
   -9.2100   21.8262  -31.4293 H   0  0  0  0  0  0  0  0  0  0  0  0
   -7.8957   24.2356  -30.6384 H   0  0  0  0  0  0  0  0  0  0  0  0
   -3.0520   25.2990  -30.2890 H   0  0  0  0  0  0  0  0  0  0  0  0
   -0.0911   21.3001  -31.8929 H   0  0  0  0  0  0  0  0  0  0  0  0
   -0.2892   20.3643  -33.4134 H   0  0  0  0  0  0  0  0  0  0  0  0
   -0.5444   22.1424  -33.4134 H   0  0  0  0  0  0  0  0  0  0  0  0
   -2.1376   21.0983  -30.3371 H   0  0  0  0  0  0  0  0  0  0  0  0
   -3.2625   19.8758  -31.0203 H   0  0  0  0  0  0  0  0  0  0  0  0
   -1.4929   19.5671  -31.0203 H   0  0  0  0  0  0  0  0  0  0  0  0
   -3.3794   19.2956  -33.0440 H   0  0  0  0  0  0  0  0  0  0  0  0
   -3.4912   20.6806  -34.1824 H   0  0  0  0  0  0  0  0  0  0  0  0
   -2.0316   19.6337  -34.1824 H   0  0  0  0  0  0  0  0  0  0  0  0
   -4.4928   20.2614  -32.2097 H   0  0  0  0  0  0  0  0  0  0  0  0
   -6.2604   17.5633  -30.8634 H   0  0  0  0  0  0  0  0  0  0  0  0
   -7.4274   16.7603  -31.9648 H   0  0  0  0  0  0  0  0  0  0  0  0
   -4.3719   16.6832  -32.1585 H   0  0  0  0  0  0  0  0  0  0  0  0
   -5.4890   15.3311  -31.6594 H   0  0  0  0  0  0  0  0  0  0  0  0
  1  2  1  0
  2  3  1  0
  3  4  1  0
  4  5  1  0
  5  6  1  0
  6  7  2  0
  7  8  1  0
  8  9  2  0
  9 10  1  0
 10 11  2  0
 11 12  1  0
 12 13  1  0
 12 14  2  0
 11 15  1  0
 15 16  1  0
 16 17  2  0
 16 18  1  0
 18 19  1  0
 19 20  1  0
 19 21  1  0
 19 22  1  0
 15 23  1  0
 23 24  2  0
  5 25  1  0
 25 26  1  0
 26  2  1  0
 24  6  1  0
 23  9  1  0
  1 27  1  0
  1 28  1  0
  1 29  1  0
  3 30  1  0
  3 31  1  0
  4 32  1  0
  4 33  1  0
  7 34  1  0
  8 35  1  0
 10 36  1  0
 13 37  1  0
 20 38  1  0
 20 39  1  0
 20 40  1  0
 21 41  1  0
 21 42  1  0
 21 43  1  0
 22 44  1  0
 22 45  1  0
 22 46  1  0
 24 47  1  0
 25 48  1  0
 25 49  1  0
 26 50  1  0
 26 51  1  0
M  CHG  1  13  -1
M  END
>  <UniqueID>  (58) 
57

>  <SMILES>  (58) 
CN1CCN(c2ccc3cc(C([NH-])=O)n(C(=O)OC(C)(C)C)c3c2)CC1

>  <Energy>  (58) 
95.8828421090406

>  <Genealogy>  (58) 
CN1CCN(c2ccc3cc(C([NH-])=O)n(C(=O)OC(C)(C)C)c3c2)CC1 (protonated)
CN1CCN(c2ccc3cc(C([NH-])=O)n(C(=O)OC(C)(C)C)c3c2)CC1 (3D coordinates assigned)
CN1CCN(c2ccc3cc(C([NH-])=O)n(C(=O)OC(C)(C)C)c3c2)CC1 (nonaromatic ring conformer: 95.8828421090406 kcal/mol)

>  <smiles>  (58) 
CN1CCN(c2ccc3cc(C(N)=O)n(C(=O)OC(C)(C)C)c3c2)CC1

>  <score_type>  (58) 
oracle

>  <origin>  (58) 
adg

>  <m_score__min__energy>  (58) 
-11.08

>  <m_primary>  (58) 
energy

$$$$
58:0
     RDKit          3D

 45 48  0  0  0  0  0  0  0  0999 V2000
   -8.6050   18.6140  -32.6820 C   0  0  0  0  0  0  0  0  0  0  0  0
   -7.1850   18.8720  -32.8940 N   0  0  0  0  0  0  0  0  0  0  0  0
   -6.4110   18.3060  -33.8390 C   0  0  0  0  0  0  0  0  0  0  0  0
   -5.1040   18.7170  -33.6770 C   0  0  0  0  0  0  0  0  0  0  0  0
   -5.0850   19.5610  -32.5740 C   0  0  0  0  0  0  0  0  0  0  0  0
   -3.9000   20.2430  -31.9930 C   0  0  0  0  0  0  0  0  0  0  0  0
   -2.6250   19.6170  -32.0190 C   0  0  0  0  0  0  0  0  0  0  0  0
   -1.5030   20.2460  -31.4550 C   0  0  0  0  0  0  0  0  0  0  0  0
   -1.6740   21.5040  -30.8890 C   0  0  0  0  0  0  0  0  0  0  0  0
   -0.7700   22.3100  -30.2370 C   0  0  0  0  0  0  0  0  0  0  0  0
   -1.4930   23.4320  -29.8390 C   0  0  0  0  0  0  0  0  0  0  0  0
   -0.8950   24.5560  -29.0860 C   0  0  0  0  0  0  0  0  0  0  0  0
   -1.6040   25.7870  -28.9660 N   0  0  0  0  0  0  0  0  0  0  0  0
    0.2390   24.4490  -28.5510 O   0  0  0  0  0  0  0  0  0  0  0  0
   -2.7920   23.3340  -30.2500 N   0  0  0  0  0  0  0  0  0  0  0  0
   -3.8590   24.2790  -30.0510 C   0  0  0  0  0  0  0  0  0  0  0  0
   -3.8730   25.3450  -30.7230 O   0  0  0  0  0  0  0  0  0  0  0  0
   -4.9100   24.0420  -28.9810 C   0  0  0  0  0  0  0  0  0  0  0  0
   -6.3210   24.0440  -29.4400 N   0  0  0  0  0  0  0  0  0  0  0  0
   -6.5490   24.5410  -30.8030 C   0  0  0  0  0  0  0  0  0  0  0  0
   -7.1270   23.2120  -31.2640 C   0  0  0  0  0  0  0  0  0  0  0  0
   -6.8850   22.7460  -29.8340 C   0  0  0  0  0  0  0  0  0  0  0  0
   -2.8870   22.1380  -30.8760 C   0  0  0  0  0  0  0  0  0  0  0  0
   -4.0300   21.5220  -31.3990 C   0  0  0  0  0  0  0  0  0  0  0  0
   -6.3920   19.6240  -32.1100 C   0  0  0  0  0  0  0  0  0  0  0  0
   -8.8136   18.5761  -31.6026 H   0  0  0  0  0  0  0  0  0  0  0  0
   -9.1966   19.4194  -33.1418 H   0  0  0  0  0  0  0  0  0  0  0  0
   -8.8755   17.6520  -33.1418 H   0  0  0  0  0  0  0  0  0  0  0  0
   -6.7668   17.6198  -34.6217 H   0  0  0  0  0  0  0  0  0  0  0  0
   -4.2438   18.4316  -34.3004 H   0  0  0  0  0  0  0  0  0  0  0  0
   -2.5151   18.6274  -32.4866 H   0  0  0  0  0  0  0  0  0  0  0  0
   -0.5175   19.7573  -31.4610 H   0  0  0  0  0  0  0  0  0  0  0  0
    0.2982   22.1106  -30.0660 H   0  0  0  0  0  0  0  0  0  0  0  0
   -2.6470   25.8120  -29.0030 H   0  0  0  0  0  0  0  0  0  0  0  0
   -4.7074   23.0632  -28.5219 H   0  0  0  0  0  0  0  0  0  0  0  0
   -4.8234   24.8922  -28.2884 H   0  0  0  0  0  0  0  0  0  0  0  0
   -6.9440   24.5360  -28.7530 H   0  0  0  0  0  0  0  0  0  0  0  0
   -7.2671   25.3728  -30.8525 H   0  0  0  0  0  0  0  0  0  0  0  0
   -5.7070   24.9786  -31.3594 H   0  0  0  0  0  0  0  0  0  0  0  0
   -8.1827   23.2443  -31.5714 H   0  0  0  0  0  0  0  0  0  0  0  0
   -6.7439   22.6682  -32.1401 H   0  0  0  0  0  0  0  0  0  0  0  0
   -7.8076   22.4858  -29.2945 H   0  0  0  0  0  0  0  0  0  0  0  0
   -6.2968   21.8327  -29.6614 H   0  0  0  0  0  0  0  0  0  0  0  0
   -5.0090   22.0211  -31.3496 H   0  0  0  0  0  0  0  0  0  0  0  0
   -6.7275   20.2005  -31.2353 H   0  0  0  0  0  0  0  0  0  0  0  0
  1  2  1  0
  2  3  1  0
  3  4  2  0
  4  5  1  0
  5  6  1  0
  6  7  2  0
  7  8  1  0
  8  9  2  0
  9 10  1  0
 10 11  2  0
 11 12  1  0
 12 13  1  0
 12 14  2  0
 11 15  1  0
 15 16  1  0
 16 17  2  0
 16 18  1  0
 18 19  1  0
 19 20  1  0
 20 21  1  0
 21 22  1  0
 15 23  1  0
 23 24  2  0
  5 25  2  0
 25  2  1  0
 24  6  1  0
 23  9  1  0
 22 19  1  0
  1 26  1  0
  1 27  1  0
  1 28  1  0
  3 29  1  0
  4 30  1  0
  7 31  1  0
  8 32  1  0
 10 33  1  0
 13 34  1  0
 18 35  1  0
 18 36  1  0
 19 37  1  0
 20 38  1  0
 20 39  1  0
 21 40  1  0
 21 41  1  0
 22 42  1  0
 22 43  1  0
 24 44  1  0
 25 45  1  0
M  CHG  2  13  -1  19   1
M  END
>  <UniqueID>  (59) 
58

>  <SMILES>  (59) 
Cn1ccc(-c2ccc3cc(C([NH-])=O)n(C(=O)C[NH+]4CCC4)c3c2)c1

>  <Energy>  (59) 
191.3412794077157

>  <Genealogy>  (59) 
Cn1ccc(-c2ccc3cc(C([NH-])=O)n(C(=O)C[NH+]4CCC4)c3c2)c1 (protonated)
Cn1ccc(-c2ccc3cc(C([NH-])=O)n(C(=O)C[NH+]4CCC4)c3c2)c1 (3D coordinates assigned)
Cn1ccc(-c2ccc3cc(C([NH-])=O)n(C(=O)C[NH+]4CCC4)c3c2)c1 (nonaromatic ring conformer: 191.3412794077157 kcal/mol)

>  <smiles>  (59) 
Cn1ccc(-c2ccc3cc(C(N)=O)n(C(=O)CN4CCC4)c3c2)c1

>  <score_type>  (59) 
oracle

>  <origin>  (59) 
adg

>  <m_score__min__energy>  (59) 
-10.460000000000001

>  <m_primary>  (59) 
energy

$$$$
59:0
     RDKit          3D

 46 48  0  0  0  0  0  0  0  0999 V2000
   -1.7410   19.8520  -32.0230 C   0  0  0  0  0  0  0  0  0  0  0  0
   -2.0680   20.4480  -33.1730 C   0  0  0  0  0  0  0  0  0  0  0  0
   -3.4640   20.9230  -33.4340 C   0  0  0  0  0  0  0  0  0  0  0  0
   -3.5970   22.2740  -33.0050 O   0  0  0  0  0  0  0  0  0  0  0  0
   -4.0030   22.6210  -31.7130 C   0  0  0  0  0  0  0  0  0  0  0  0
   -3.1780   22.5970  -30.7590 O   0  0  0  0  0  0  0  0  0  0  0  0
   -5.3730   22.9760  -31.4670 N   0  0  0  0  0  0  0  0  0  0  0  0
   -5.8550   24.1220  -30.9060 C   0  0  0  0  0  0  0  0  0  0  0  0
   -5.0690   25.3320  -30.5880 C   0  0  0  0  0  0  0  0  0  0  0  0
   -3.6490   25.2800  -30.4940 N   0  0  0  0  0  0  0  0  0  0  0  0
   -5.6570   26.4370  -30.4470 O   0  0  0  0  0  0  0  0  0  0  0  0
   -7.2360   24.0410  -30.7400 C   0  0  0  0  0  0  0  0  0  0  0  0
   -7.5910   22.8050  -31.2280 C   0  0  0  0  0  0  0  0  0  0  0  0
   -8.8390   22.1920  -31.2920 C   0  0  0  0  0  0  0  0  0  0  0  0
   -8.9080   20.8900  -31.8140 C   0  0  0  0  0  0  0  0  0  0  0  0
   -7.7370   20.2280  -32.2590 C   0  0  0  0  0  0  0  0  0  0  0  0
   -7.8220   18.8150  -32.7690 C   0  0  0  0  0  0  0  0  0  0  0  0
   -6.5410   18.4100  -33.3490 N   0  0  0  0  0  0  0  0  0  0  0  0
   -6.0840   18.7530  -34.5720 C   0  0  0  0  0  0  0  0  0  0  0  0
   -4.9220   18.1400  -34.8660 N   0  0  0  0  0  0  0  0  0  0  0  0
   -4.6370   17.3730  -33.7950 C   0  0  0  0  0  0  0  0  0  0  0  0
   -3.4510   16.4670  -33.7000 C   0  0  0  0  0  0  0  0  0  0  0  0
   -5.6320   17.5410  -32.8490 C   0  0  0  0  0  0  0  0  0  0  0  0
   -5.7650   16.7890  -31.5570 C   0  0  0  0  0  0  0  0  0  0  0  0
   -6.4880   20.8790  -32.1750 C   0  0  0  0  0  0  0  0  0  0  0  0
   -6.4500   22.1820  -31.6630 C   0  0  0  0  0  0  0  0  0  0  0  0
   -0.7088   19.5115  -31.8541 H   0  0  0  0  0  0  0  0  0  0  0  0
   -2.5040   19.7018  -31.2450 H   0  0  0  0  0  0  0  0  0  0  0  0
   -1.2965   20.5927  -33.9436 H   0  0  0  0  0  0  0  0  0  0  0  0
   -3.6773   20.8583  -34.5112 H   0  0  0  0  0  0  0  0  0  0  0  0
   -4.1742   20.2921  -32.8794 H   0  0  0  0  0  0  0  0  0  0  0  0
   -3.0850   24.7250  -31.1770 H   0  0  0  0  0  0  0  0  0  0  0  0
   -7.9015   24.8039  -30.3098 H   0  0  0  0  0  0  0  0  0  0  0  0
   -9.7440   22.7117  -30.9442 H   0  0  0  0  0  0  0  0  0  0  0  0
   -9.8802   20.3794  -31.8780 H   0  0  0  0  0  0  0  0  0  0  0  0
   -8.0726   18.1422  -31.9356 H   0  0  0  0  0  0  0  0  0  0  0  0
   -8.6009   18.7589  -33.5437 H   0  0  0  0  0  0  0  0  0  0  0  0
   -6.5999   19.4506  -35.2482 H   0  0  0  0  0  0  0  0  0  0  0  0
   -4.3740   18.2250  -35.7510 H   0  0  0  0  0  0  0  0  0  0  0  0
   -3.2126   16.2849  -32.6417 H   0  0  0  0  0  0  0  0  0  0  0  0
   -3.6793   15.5111  -34.1942 H   0  0  0  0  0  0  0  0  0  0  0  0
   -2.5888   16.9386  -34.1942 H   0  0  0  0  0  0  0  0  0  0  0  0
   -5.6420   17.4844  -30.7136 H   0  0  0  0  0  0  0  0  0  0  0  0
   -6.7597   16.3221  -31.5052 H   0  0  0  0  0  0  0  0  0  0  0  0
   -4.9908   16.0093  -31.5052 H   0  0  0  0  0  0  0  0  0  0  0  0
   -5.5668   20.3755  -32.5036 H   0  0  0  0  0  0  0  0  0  0  0  0
  1  2  2  0
  2  3  1  0
  3  4  1  0
  4  5  1  0
  5  6  2  0
  5  7  1  0
  7  8  1  0
  8  9  1  0
  9 10  1  0
  9 11  2  0
  8 12  2  0
 12 13  1  0
 13 14  2  0
 14 15  1  0
 15 16  2  0
 16 17  1  0
 17 18  1  0
 18 19  1  0
 19 20  2  0
 20 21  1  0
 21 22  1  0
 21 23  2  0
 23 24  1  0
 16 25  1  0
 25 26  2  0
 26  7  1  0
 26 13  1  0
 23 18  1  0
  1 27  1  0
  1 28  1  0
  2 29  1  0
  3 30  1  0
  3 31  1  0
 10 32  1  0
 12 33  1  0
 14 34  1  0
 15 35  1  0
 17 36  1  0
 17 37  1  0
 19 38  1  0
 20 39  1  0
 22 40  1  0
 22 41  1  0
 22 42  1  0
 24 43  1  0
 24 44  1  0
 24 45  1  0
 25 46  1  0
M  CHG  2  10  -1  20   1
M  END
>  <UniqueID>  (60) 
59

>  <SMILES>  (60) 
C=CCOC(=O)n1c(C([NH-])=O)cc2ccc(Cn3c[nH+]c(C)c3C)cc21

>  <Energy>  (60) 
108.52123499556326

>  <Genealogy>  (60) 
C=CCOC(=O)n1c(C([NH-])=O)cc2ccc(Cn3c[nH+]c(C)c3C)cc21 (protonated)
C=CCOC(=O)n1c(C([NH-])=O)cc2ccc(Cn3c[nH+]c(C)c3C)cc21 (3D coordinates assigned)
C=CCOC(=O)n1c(C([NH-])=O)cc2ccc(Cn3c[nH+]c(C)c3C)cc21 (optimized conformer: 108.52123499556326 kcal/mol)

>  <smiles>  (60) 
C=CCOC(=O)n1c(C(N)=O)cc2ccc(Cn3cnc(C)c3C)cc21

>  <score_type>  (60) 
oracle

>  <origin>  (60) 
adg

>  <m_score__min__energy>  (60) 
-10.57

>  <m_primary>  (60) 
energy

$$$$
60:0
     RDKit          3D

 46 48  0  0  0  0  0  0  0  0999 V2000
   -1.2530   20.1690  -30.9060 C   0  0  0  0  0  0  0  0  0  0  0  0
   -1.1440   20.4970  -32.3590 C   0  0  0  0  0  0  0  0  0  0  0  0
   -0.3060   21.3700  -32.8690 O   0  0  0  0  0  0  0  0  0  0  0  0
   -0.5100   21.3450  -34.1690 C   0  0  0  0  0  0  0  0  0  0  0  0
    0.1260   22.0550  -34.9880 O   0  0  0  0  0  0  0  0  0  0  0  0
   -1.4450   20.4890  -34.5180 O   0  0  0  0  0  0  0  0  0  0  0  0
   -1.8650   19.9420  -33.4010 C   0  0  0  0  0  0  0  0  0  0  0  0
   -2.9160   18.8790  -33.3150 C   0  0  0  0  0  0  0  0  0  0  0  0
   -3.9810   19.1690  -34.2170 O   0  0  0  0  0  0  0  0  0  0  0  0
   -5.1630   18.4220  -34.2640 C   0  0  0  0  0  0  0  0  0  0  0  0
   -5.4970   17.8040  -35.3120 O   0  0  0  0  0  0  0  0  0  0  0  0
   -6.0020   18.3000  -33.0340 C   0  0  0  0  0  0  0  0  0  0  0  0
   -6.3850   19.6720  -32.5530 C   0  0  0  0  0  0  0  0  0  0  0  0
   -7.7190   20.1300  -32.7010 C   0  0  0  0  0  0  0  0  0  0  0  0
   -8.0770   21.4290  -32.3010 C   0  0  0  0  0  0  0  0  0  0  0  0
   -7.0820   22.2480  -31.7740 C   0  0  0  0  0  0  0  0  0  0  0  0
   -7.1590   23.5370  -31.2980 C   0  0  0  0  0  0  0  0  0  0  0  0
   -5.8630   23.8610  -30.8990 C   0  0  0  0  0  0  0  0  0  0  0  0
   -5.4780   25.1990  -30.4060 C   0  0  0  0  0  0  0  0  0  0  0  0
   -4.1510   25.6740  -30.6170 N   0  0  0  0  0  0  0  0  0  0  0  0
   -6.2950   25.9110  -29.7640 O   0  0  0  0  0  0  0  0  0  0  0  0
   -5.0190   22.8100  -31.1100 N   0  0  0  0  0  0  0  0  0  0  0  0
   -3.6260   22.7200  -30.7660 C   0  0  0  0  0  0  0  0  0  0  0  0
   -2.7460   23.0060  -31.6230 O   0  0  0  0  0  0  0  0  0  0  0  0
   -3.2520   22.3090  -29.4810 O   0  0  0  0  0  0  0  0  0  0  0  0
   -2.7360   23.1930  -28.4910 C   0  0  0  0  0  0  0  0  0  0  0  0
   -1.5230   23.9490  -29.0230 C   0  0  0  0  0  0  0  0  0  0  0  0
   -1.8720   25.2530  -29.3200 F   0  0  0  0  0  0  0  0  0  0  0  0
   -5.7820   21.8310  -31.6480 C   0  0  0  0  0  0  0  0  0  0  0  0
   -5.4000   20.5350  -32.0220 C   0  0  0  0  0  0  0  0  0  0  0  0
   -0.9616   21.0459  -30.3093 H   0  0  0  0  0  0  0  0  0  0  0  0
   -2.2912   19.8930  -30.6693 H   0  0  0  0  0  0  0  0  0  0  0  0
   -0.5865   19.3265  -30.6693 H   0  0  0  0  0  0  0  0  0  0  0  0
   -2.4725   17.9069  -33.5763 H   0  0  0  0  0  0  0  0  0  0  0  0
   -3.3118   18.8462  -32.2892 H   0  0  0  0  0  0  0  0  0  0  0  0
   -6.9109   17.7251  -33.2652 H   0  0  0  0  0  0  0  0  0  0  0  0
   -5.4311   17.7816  -32.2496 H   0  0  0  0  0  0  0  0  0  0  0  0
   -8.4799   19.4630  -33.1325 H   0  0  0  0  0  0  0  0  0  0  0  0
   -9.1120   21.7877  -32.4013 H   0  0  0  0  0  0  0  0  0  0  0  0
   -8.0529   24.1758  -31.2439 H   0  0  0  0  0  0  0  0  0  0  0  0
   -3.3820   25.0240  -30.8910 H   0  0  0  0  0  0  0  0  0  0  0  0
   -3.5166   23.9151  -28.2095 H   0  0  0  0  0  0  0  0  0  0  0  0
   -2.4286   22.6026  -27.6153 H   0  0  0  0  0  0  0  0  0  0  0  0
   -0.7303   23.9487  -28.2604 H   0  0  0  0  0  0  0  0  0  0  0  0
   -1.1616   23.4547  -29.9368 H   0  0  0  0  0  0  0  0  0  0  0  0
   -4.3594   20.1982  -31.9050 H   0  0  0  0  0  0  0  0  0  0  0  0
  1  2  1  0
  2  3  1  0
  3  4  1  0
  4  5  2  0
  4  6  1  0
  6  7  1  0
  7  8  1  0
  8  9  1  0
  9 10  1  0
 10 11  2  0
 10 12  1  0
 12 13  1  0
 13 14  2  0
 14 15  1  0
 15 16  2  0
 16 17  1  0
 17 18  2  0
 18 19  1  0
 19 20  1  0
 19 21  2  0
 18 22  1  0
 22 23  1  0
 23 24  2  0
 23 25  1  0
 25 26  1  0
 26 27  1  0
 27 28  1  0
 22 29  1  0
 29 30  2  0
  7  2  2  0
 30 13  1  0
 29 16  1  0
  1 31  1  0
  1 32  1  0
  1 33  1  0
  8 34  1  0
  8 35  1  0
 12 36  1  0
 12 37  1  0
 14 38  1  0
 15 39  1  0
 17 40  1  0
 20 41  1  0
 26 42  1  0
 26 43  1  0
 27 44  1  0
 27 45  1  0
 30 46  1  0
M  CHG  1  20  -1
M  END
>  <UniqueID>  (61) 
60

>  <SMILES>  (61) 
Cc1oc(=O)oc1COC(=O)Cc1ccc2cc(C([NH-])=O)n(C(=O)OCCF)c2c1

>  <Energy>  (61) 
109.11210531706755

>  <Genealogy>  (61) 
Cc1oc(=O)oc1COC(=O)Cc1ccc2cc(C([NH-])=O)n(C(=O)OCCF)c2c1 (protonated)
Cc1oc(=O)oc1COC(=O)Cc1ccc2cc(C([NH-])=O)n(C(=O)OCCF)c2c1 (3D coordinates assigned)
Cc1oc(=O)oc1COC(=O)Cc1ccc2cc(C([NH-])=O)n(C(=O)OCCF)c2c1 (optimized conformer: 109.11210531706755 kcal/mol)

>  <smiles>  (61) 
Cc1oc(=O)oc1COC(=O)Cc1ccc2cc(C(N)=O)n(C(=O)OCCF)c2c1

>  <score_type>  (61) 
oracle

>  <origin>  (61) 
adg

>  <m_score__min__energy>  (61) 
-10.48

>  <m_primary>  (61) 
energy

$$$$
61:0
     RDKit          3D

 46 47  0  0  0  0  0  0  0  0999 V2000
   -8.9980   20.0330  -32.3380 C   0  0  0  0  0  0  0  0  0  0  0  0
   -8.7820   21.3030  -31.5710 C   0  0  0  0  0  0  0  0  0  0  0  0
   -9.4720   21.5370  -30.5910 O   0  0  0  0  0  0  0  0  0  0  0  0
   -7.7160   22.2740  -31.9830 C   0  0  0  0  0  0  0  0  0  0  0  0
   -6.8800   21.6660  -32.9610 O   0  0  0  0  0  0  0  0  0  0  0  0
   -5.5830   21.2300  -32.6780 C   0  0  0  0  0  0  0  0  0  0  0  0
   -5.1530   20.1450  -33.1550 O   0  0  0  0  0  0  0  0  0  0  0  0
   -4.6820   22.0820  -31.8300 C   0  0  1  0  0  0  0  0  0  0  0  0
   -3.2200   21.9200  -32.2760 C   0  0  0  0  0  0  0  0  0  0  0  0
   -2.2750   21.8600  -31.1020 C   0  0  0  0  0  0  0  0  0  0  0  0
   -1.6730   20.6310  -30.7340 C   0  0  0  0  0  0  0  0  0  0  0  0
   -0.8320   20.5540  -29.6130 C   0  0  0  0  0  0  0  0  0  0  0  0
   -0.6090   21.7180  -28.8840 C   0  0  0  0  0  0  0  0  0  0  0  0
    0.1280   21.9140  -27.7390 C   0  0  0  0  0  0  0  0  0  0  0  0
   -0.0170   23.2650  -27.4360 C   0  0  0  0  0  0  0  0  0  0  0  0
    0.6700   23.9200  -26.3040 C   0  0  0  0  0  0  0  0  0  0  0  0
   -0.0660   24.6000  -25.2880 N   0  0  0  0  0  0  0  0  0  0  0  0
    1.9290   23.9270  -26.2650 O   0  0  0  0  0  0  0  0  0  0  0  0
   -0.8220   23.8810  -28.3470 N   0  0  0  0  0  0  0  0  0  0  0  0
   -1.3070   25.2340  -28.3050 C   0  0  0  0  0  0  0  0  0  0  0  0
   -1.2300   25.9720  -29.3210 O   0  0  0  0  0  0  0  0  0  0  0  0
   -1.8740   25.7400  -27.1410 O   0  0  0  0  0  0  0  0  0  0  0  0
   -1.1740   22.9200  -29.2310 C   0  0  0  0  0  0  0  0  0  0  0  0
   -2.0340   23.0200  -30.3320 C   0  0  0  0  0  0  0  0  0  0  0  0
   -5.0590   23.4920  -31.9700 N   0  0  0  0  0  0  0  0  0  0  0  0
   -4.9880   24.3300  -30.4460 S   0  0  0  0  0  0  0  0  0  0  0  0
   -6.5060   25.2030  -30.1200 C   0  0  0  0  0  0  0  0  0  0  0  0
   -4.7210   23.3550  -29.3340 O   0  0  0  0  0  0  0  0  0  0  0  0
   -3.8640   25.3270  -30.4980 O   0  0  0  0  0  0  0  0  0  0  0  0
   -9.1398   19.1994  -31.6345 H   0  0  0  0  0  0  0  0  0  0  0  0
   -9.8918   20.1345  -32.9711 H   0  0  0  0  0  0  0  0  0  0  0  0
   -8.1209   19.8333  -32.9711 H   0  0  0  0  0  0  0  0  0  0  0  0
   -8.1834   23.1748  -32.4075 H   0  0  0  0  0  0  0  0  0  0  0  0
   -7.1140   22.5550  -31.1063 H   0  0  0  0  0  0  0  0  0  0  0  0
   -4.7860   21.7632  -30.7824 H   0  0  0  0  0  0  0  0  0  0  0  0
   -3.1263   20.9896  -32.8553 H   0  0  0  0  0  0  0  0  0  0  0  0
   -2.9511   22.7961  -32.8845 H   0  0  0  0  0  0  0  0  0  0  0  0
   -1.8667   19.7287  -31.3327 H   0  0  0  0  0  0  0  0  0  0  0  0
   -0.3636   19.6029  -29.3198 H   0  0  0  0  0  0  0  0  0  0  0  0
    0.7080   21.1635  -27.1819 H   0  0  0  0  0  0  0  0  0  0  0  0
   -1.0950   24.7530  -25.3770 H   0  0  0  0  0  0  0  0  0  0  0  0
    0.4330   25.0280  -24.4760 H   0  0  0  0  0  0  0  0  0  0  0  0
   -2.5098   23.9774  -30.5907 H   0  0  0  0  0  0  0  0  0  0  0  0
   -6.6539   25.2881  -29.0333 H   0  0  0  0  0  0  0  0  0  0  0  0
   -6.4530   26.2086  -30.5627 H   0  0  0  0  0  0  0  0  0  0  0  0
   -7.3485   24.6514  -30.5627 H   0  0  0  0  0  0  0  0  0  0  0  0
  1  2  1  0
  2  3  2  0
  2  4  1  0
  4  5  1  0
  5  6  1  0
  6  7  2  0
  6  8  1  0
  8  9  1  0
  9 10  1  0
 10 11  2  0
 11 12  1  0
 12 13  2  0
 13 14  1  0
 14 15  2  0
 15 16  1  0
 16 17  1  0
 16 18  2  0
 15 19  1  0
 19 20  1  0
 20 21  2  0
 20 22  1  0
 19 23  1  0
 23 24  2  0
  8 25  1  0
 25 26  1  0
 26 27  1  0
 26 28  2  0
 26 29  2  0
 24 10  1  0
 23 13  1  0
  1 30  1  0
  1 31  1  0
  1 32  1  0
  4 33  1  0
  4 34  1  0
  8 35  1  1
  9 36  1  0
  9 37  1  0
 11 38  1  0
 12 39  1  0
 14 40  1  0
 17 41  1  0
 17 42  1  0
 24 43  1  0
 27 44  1  0
 27 45  1  0
 27 46  1  0
M  CHG  2  22  -1  25  -1
M  END
>  <UniqueID>  (62) 
61

>  <SMILES>  (62) 
CC(=O)COC(=O)[C@@H](Cc1ccc2cc(C(N)=O)n(C(=O)[O-])c2c1)[N-]S(C)(=O)=O

>  <Energy>  (62) 
71.32286143046306

>  <Genealogy>  (62) 
CC(=O)COC(=O)C(Cc1ccc2cc(C(N)=O)n(C(=O)[O-])c2c1)[N-]S(C)(=O)=O (protonated)
CC(=O)COC(=O)[C@@H](Cc1ccc2cc(C(N)=O)n(C(=O)[O-])c2c1)[N-]S(C)(=O)=O (chirality)
CC(=O)COC(=O)[C@@H](Cc1ccc2cc(C(N)=O)n(C(=O)[O-])c2c1)[N-]S(C)(=O)=O (3D coordinates assigned)
CC(=O)COC(=O)[C@@H](Cc1ccc2cc(C(N)=O)n(C(=O)[O-])c2c1)[N-]S(C)(=O)=O (optimized conformer: 71.32286143046306 kcal/mol)

>  <smiles>  (62) 
CC(=O)COC(=O)C(Cc1ccc2cc(C(N)=O)n(C(=O)O)c2c1)NS(C)(=O)=O

>  <score_type>  (62) 
oracle

>  <origin>  (62) 
adg

>  <m_score__min__energy>  (62) 
-10.6

>  <m_primary>  (62) 
energy

$$$$
62:0
     RDKit          3D

 31 32  0  0  0  0  0  0  0  0999 V2000
   -2.5930   20.0810  -33.5340 C   0  0  0  0  0  0  0  0  0  0  0  0
   -2.2790   20.9060  -32.2950 C   0  0  0  0  0  0  0  0  0  0  0  0
   -2.9480   22.1590  -32.3790 O   0  0  0  0  0  0  0  0  0  0  0  0
   -3.6130   22.7340  -31.2910 C   0  0  0  0  0  0  0  0  0  0  0  0
   -2.9650   23.1150  -30.2790 O   0  0  0  0  0  0  0  0  0  0  0  0
   -5.0380   22.9090  -31.3400 N   0  0  0  0  0  0  0  0  0  0  0  0
   -5.7580   23.9840  -30.9110 C   0  0  0  0  0  0  0  0  0  0  0  0
   -5.2040   25.2790  -30.4650 C   0  0  0  0  0  0  0  0  0  0  0  0
   -3.8850   25.6770  -30.8290 N   0  0  0  0  0  0  0  0  0  0  0  0
   -5.9230   26.0680  -29.7940 O   0  0  0  0  0  0  0  0  0  0  0  0
   -7.1250   23.7340  -31.0240 C   0  0  0  0  0  0  0  0  0  0  0  0
   -7.2210   22.4650  -31.5470 C   0  0  0  0  0  0  0  0  0  0  0  0
   -8.3480   21.7050  -31.8460 C   0  0  0  0  0  0  0  0  0  0  0  0
   -8.1510   20.4050  -32.3440 C   0  0  0  0  0  0  0  0  0  0  0  0
   -6.8440   19.8950  -32.5340 C   0  0  0  0  0  0  0  0  0  0  0  0
   -6.6480   18.4890  -33.0190 C   0  0  0  0  0  0  0  0  0  0  0  0
   -5.7490   18.5030  -34.5560 Cl  0  0  0  0  0  0  0  0  0  0  0  0
   -5.7240   20.6910  -32.2050 C   0  0  0  0  0  0  0  0  0  0  0  0
   -5.9480   21.9890  -31.7290 C   0  0  0  0  0  0  0  0  0  0  0  0
   -2.9691   19.0928  -33.2309 H   0  0  0  0  0  0  0  0  0  0  0  0
   -3.3579   20.5963  -34.1335 H   0  0  0  0  0  0  0  0  0  0  0  0
   -1.6791   19.9574  -34.1335 H   0  0  0  0  0  0  0  0  0  0  0  0
   -2.6206   20.3670  -31.3990 H   0  0  0  0  0  0  0  0  0  0  0  0
   -1.1937   21.0728  -32.2302 H   0  0  0  0  0  0  0  0  0  0  0  0
   -3.0510   25.2830  -30.3410 H   0  0  0  0  0  0  0  0  0  0  0  0
   -7.9510   24.4079  -30.7527 H   0  0  0  0  0  0  0  0  0  0  0  0
   -9.3605   22.1085  -31.6974 H   0  0  0  0  0  0  0  0  0  0  0  0
   -9.0211   19.7779  -32.5884 H   0  0  0  0  0  0  0  0  0  0  0  0
   -6.0801   17.9194  -32.2686 H   0  0  0  0  0  0  0  0  0  0  0  0
   -7.6296   18.0180  -33.1759 H   0  0  0  0  0  0  0  0  0  0  0  0
   -4.7019   20.3011  -32.3198 H   0  0  0  0  0  0  0  0  0  0  0  0
  1  2  1  0
  2  3  1  0
  3  4  1  0
  4  5  2  0
  4  6  1  0
  6  7  1  0
  7  8  1  0
  8  9  1  0
  8 10  2  0
  7 11  2  0
 11 12  1  0
 12 13  2  0
 13 14  1  0
 14 15  2  0
 15 16  1  0
 16 17  1  0
 15 18  1  0
 18 19  2  0
 19  6  1  0
 19 12  1  0
  1 20  1  0
  1 21  1  0
  1 22  1  0
  2 23  1  0
  2 24  1  0
  9 25  1  0
 11 26  1  0
 13 27  1  0
 14 28  1  0
 16 29  1  0
 16 30  1  0
 18 31  1  0
M  CHG  1   9  -1
M  END
>  <UniqueID>  (63) 
62

>  <SMILES>  (63) 
CCOC(=O)n1c(C([NH-])=O)cc2ccc(CCl)cc21

>  <Energy>  (63) 
64.30808068019952

>  <Genealogy>  (63) 
CCOC(=O)n1c(C([NH-])=O)cc2ccc(CCl)cc21 (protonated)
CCOC(=O)n1c(C([NH-])=O)cc2ccc(CCl)cc21 (3D coordinates assigned)
CCOC(=O)n1c(C([NH-])=O)cc2ccc(CCl)cc21 (optimized conformer: 64.30808068019952 kcal/mol)

>  <smiles>  (63) 
CCOC(=O)n1c(C(N)=O)cc2ccc(CCl)cc21

>  <score_type>  (63) 
oracle

>  <origin>  (63) 
adg

>  <m_score__min__energy>  (63) 
-9.4199999999999999

>  <m_primary>  (63) 
energy

$$$$
63:0
     RDKit          3D

 41 43  0  0  0  0  0  0  0  0999 V2000
   -4.5870   13.9340  -32.4400 C   0  0  0  0  0  0  0  0  0  0  0  0
   -4.8300   13.4630  -33.8680 C   0  0  0  0  0  0  0  0  0  0  0  0
   -5.5290   14.4570  -34.6150 O   0  0  0  0  0  0  0  0  0  0  0  0
   -5.7700   15.7530  -34.1440 C   0  0  0  0  0  0  0  0  0  0  0  0
   -4.7930   16.7360  -34.3160 C   0  0  0  0  0  0  0  0  0  0  0  0
   -5.0310   18.0300  -33.8490 C   0  0  0  0  0  0  0  0  0  0  0  0
   -6.2430   18.3410  -33.2120 C   0  0  0  0  0  0  0  0  0  0  0  0
   -6.5100   19.7130  -32.7100 C   0  0  0  0  0  0  0  0  0  0  0  0
   -7.8400   20.2080  -32.6470 C   0  0  0  0  0  0  0  0  0  0  0  0
   -8.1030   21.5070  -32.1860 C   0  0  0  0  0  0  0  0  0  0  0  0
   -7.0250   22.2900  -31.7880 C   0  0  0  0  0  0  0  0  0  0  0  0
   -6.9950   23.5850  -31.3250 C   0  0  0  0  0  0  0  0  0  0  0  0
   -5.6500   23.8630  -31.0890 C   0  0  0  0  0  0  0  0  0  0  0  0
   -5.1720   25.1300  -30.5000 C   0  0  0  0  0  0  0  0  0  0  0  0
   -3.8900   25.6410  -30.8590 N   0  0  0  0  0  0  0  0  0  0  0  0
   -5.8980   25.7880  -29.7080 O   0  0  0  0  0  0  0  0  0  0  0  0
   -4.8780   22.7830  -31.4010 N   0  0  0  0  0  0  0  0  0  0  0  0
   -3.4450   22.6910  -31.3690 C   0  0  0  0  0  0  0  0  0  0  0  0
   -2.8210   22.2360  -32.3660 O   0  0  0  0  0  0  0  0  0  0  0  0
   -2.7450   23.1280  -30.2390 O   0  0  0  0  0  0  0  0  0  0  0  0
   -3.1730   22.8380  -28.9140 C   0  0  0  0  0  0  0  0  0  0  0  0
   -5.7350   21.8280  -31.8260 C   0  0  0  0  0  0  0  0  0  0  0  0
   -5.4400   20.5430  -32.2970 C   0  0  0  0  0  0  0  0  0  0  0  0
   -7.1980   17.3200  -33.0630 C   0  0  0  0  0  0  0  0  0  0  0  0
   -6.9400   16.0670  -33.5250 N   0  0  0  0  0  0  0  0  0  0  0  0
   -4.9743   13.1833  -31.7354 H   0  0  0  0  0  0  0  0  0  0  0  0
   -3.5074   14.0676  -32.2767 H   0  0  0  0  0  0  0  0  0  0  0  0
   -5.1038   14.8912  -32.2767 H   0  0  0  0  0  0  0  0  0  0  0  0
   -3.8626   13.2619  -34.3514 H   0  0  0  0  0  0  0  0  0  0  0  0
   -5.4400   12.5481  -33.8395 H   0  0  0  0  0  0  0  0  0  0  0  0
   -3.8436   16.4927  -34.8154 H   0  0  0  0  0  0  0  0  0  0  0  0
   -4.2658   18.8092  -33.9806 H   0  0  0  0  0  0  0  0  0  0  0  0
   -8.6743   19.5649  -32.9636 H   0  0  0  0  0  0  0  0  0  0  0  0
   -9.1315   21.8944  -32.1408 H   0  0  0  0  0  0  0  0  0  0  0  0
   -7.8514   24.2585  -31.1732 H   0  0  0  0  0  0  0  0  0  0  0  0
   -3.0200   25.2610  -30.4250 H   0  0  0  0  0  0  0  0  0  0  0  0
   -2.4835   23.3052  -28.1954 H   0  0  0  0  0  0  0  0  0  0  0  0
   -4.1871   23.2358  -28.7609 H   0  0  0  0  0  0  0  0  0  0  0  0
   -3.1795   21.7487  -28.7609 H   0  0  0  0  0  0  0  0  0  0  0  0
   -4.4005   20.1864  -32.3451 H   0  0  0  0  0  0  0  0  0  0  0  0
   -8.1578   17.5354  -32.5707 H   0  0  0  0  0  0  0  0  0  0  0  0
  1  2  1  0
  2  3  1  0
  3  4  1  0
  4  5  2  0
  5  6  1  0
  6  7  2  0
  7  8  1  0
  8  9  2  0
  9 10  1  0
 10 11  2  0
 11 12  1  0
 12 13  2  0
 13 14  1  0
 14 15  1  0
 14 16  2  0
 13 17  1  0
 17 18  1  0
 18 19  2  0
 18 20  1  0
 20 21  1  0
 17 22  1  0
 22 23  2  0
  7 24  1  0
 24 25  2  0
 25  4  1  0
 23  8  1  0
 22 11  1  0
  1 26  1  0
  1 27  1  0
  1 28  1  0
  2 29  1  0
  2 30  1  0
  5 31  1  0
  6 32  1  0
  9 33  1  0
 10 34  1  0
 12 35  1  0
 15 36  1  0
 21 37  1  0
 21 38  1  0
 21 39  1  0
 23 40  1  0
 24 41  1  0
M  CHG  1  15  -1
M  END
>  <UniqueID>  (64) 
63

>  <SMILES>  (64) 
CCOc1ccc(-c2ccc3cc(C([NH-])=O)n(C(=O)OC)c3c2)cn1

>  <Energy>  (64) 
82.12591407210144

>  <Genealogy>  (64) 
CCOc1ccc(-c2ccc3cc(C([NH-])=O)n(C(=O)OC)c3c2)cn1 (protonated)
CCOc1ccc(-c2ccc3cc(C([NH-])=O)n(C(=O)OC)c3c2)cn1 (3D coordinates assigned)
CCOc1ccc(-c2ccc3cc(C([NH-])=O)n(C(=O)OC)c3c2)cn1 (optimized conformer: 82.12591407210144 kcal/mol)

>  <smiles>  (64) 
CCOc1ccc(-c2ccc3cc(C(N)=O)n(C(=O)OC)c3c2)cn1

>  <score_type>  (64) 
oracle

>  <origin>  (64) 
adg

>  <m_score__min__energy>  (64) 
-9.9800000000000004

>  <m_primary>  (64) 
energy

$$$$
64:0
     RDKit          3D

 46 47  0  0  0  0  0  0  0  0999 V2000
   -3.2380   17.0440  -33.7040 C   0  0  0  0  0  0  0  0  0  0  0  0
   -4.1800   18.2610  -33.6390 C   0  0  0  0  0  0  0  0  0  0  0  0
   -5.2560   18.1770  -34.7410 C   0  0  0  0  0  0  0  0  0  0  0  0
   -3.3550   19.5440  -33.8450 C   0  0  0  0  0  0  0  0  0  0  0  0
   -4.7890   18.3540  -32.3420 O   0  0  0  0  0  0  0  0  0  0  0  0
   -6.0250   17.8050  -31.9620 C   0  0  0  0  0  0  0  0  0  0  0  0
   -6.0830   16.7920  -31.2120 O   0  0  0  0  0  0  0  0  0  0  0  0
   -7.2800   18.4050  -32.5250 C   0  0  0  0  0  0  0  0  0  0  0  0
   -7.4010   19.8710  -32.1940 C   0  0  0  0  0  0  0  0  0  0  0  0
   -8.6570   20.5220  -32.2950 C   0  0  0  0  0  0  0  0  0  0  0  0
   -8.7950   21.8730  -31.9360 C   0  0  0  0  0  0  0  0  0  0  0  0
   -7.6670   22.5440  -31.4770 C   0  0  0  0  0  0  0  0  0  0  0  0
   -7.5240   23.8430  -31.0500 C   0  0  0  0  0  0  0  0  0  0  0  0
   -6.1870   23.9630  -30.6880 C   0  0  0  0  0  0  0  0  0  0  0  0
   -5.5920   25.2270  -30.2380 C   0  0  0  0  0  0  0  0  0  0  0  0
   -4.2670   25.5820  -30.6300 N   0  0  0  0  0  0  0  0  0  0  0  0
   -6.2080   25.9440  -29.4050 O   0  0  0  0  0  0  0  0  0  0  0  0
   -5.5170   22.7920  -30.8950 N   0  0  0  0  0  0  0  0  0  0  0  0
   -4.1020   22.5430  -30.7710 C   0  0  0  0  0  0  0  0  0  0  0  0
   -3.3210   22.9330  -31.6810 O   0  0  0  0  0  0  0  0  0  0  0  0
   -3.5400   21.8440  -29.5610 C   0  0  0  0  0  0  0  0  0  0  0  0
   -3.1010   22.9980  -28.2130 S   0  0  0  0  0  0  0  0  0  0  0  0
   -2.0660   24.0320  -29.2450 C   0  0  0  0  0  0  0  0  0  0  0  0
   -2.2960   25.2660  -29.3330 O   0  0  0  0  0  0  0  0  0  0  0  0
   -1.0050   23.4740  -29.9480 O   0  0  0  0  0  0  0  0  0  0  0  0
   -6.4420   21.9320  -31.3780 C   0  0  0  0  0  0  0  0  0  0  0  0
   -6.2780   20.5840  -31.7190 C   0  0  0  0  0  0  0  0  0  0  0  0
   -2.9870   16.7197  -32.6833 H   0  0  0  0  0  0  0  0  0  0  0  0
   -3.7374   16.2219  -34.2376 H   0  0  0  0  0  0  0  0  0  0  0  0
   -2.3169   17.3214  -34.2376 H   0  0  0  0  0  0  0  0  0  0  0  0
   -6.2505   18.0994  -34.2773 H   0  0  0  0  0  0  0  0  0  0  0  0
   -5.2123   19.0813  -35.3658 H   0  0  0  0  0  0  0  0  0  0  0  0
   -5.0725   17.2904  -35.3658 H   0  0  0  0  0  0  0  0  0  0  0  0
   -3.0834   19.9664  -32.8663 H   0  0  0  0  0  0  0  0  0  0  0  0
   -2.4406   19.3055  -34.4080 H   0  0  0  0  0  0  0  0  0  0  0  0
   -3.9514   20.2770  -34.4080 H   0  0  0  0  0  0  0  0  0  0  0  0
   -7.2708   18.2871  -33.6186 H   0  0  0  0  0  0  0  0  0  0  0  0
   -8.1380   17.8827  -32.0766 H   0  0  0  0  0  0  0  0  0  0  0  0
   -9.5321   19.9632  -32.6582 H   0  0  0  0  0  0  0  0  0  0  0  0
   -9.7656   22.3844  -32.0156 H   0  0  0  0  0  0  0  0  0  0  0  0
   -8.3007   24.6206  -31.0045 H   0  0  0  0  0  0  0  0  0  0  0  0
   -3.6730   24.9160  -31.1730 H   0  0  0  0  0  0  0  0  0  0  0  0
   -3.8660   26.5030  -30.3430 H   0  0  0  0  0  0  0  0  0  0  0  0
   -4.2917   21.1345  -29.1848 H   0  0  0  0  0  0  0  0  0  0  0  0
   -2.6165   21.3345  -29.8733 H   0  0  0  0  0  0  0  0  0  0  0  0
   -5.2990   20.0924  -31.6195 H   0  0  0  0  0  0  0  0  0  0  0  0
  1  2  1  0
  2  3  1  0
  2  4  1  0
  2  5  1  0
  5  6  1  0
  6  7  2  0
  6  8  1  0
  8  9  1  0
  9 10  2  0
 10 11  1  0
 11 12  2  0
 12 13  1  0
 13 14  2  0
 14 15  1  0
 15 16  1  0
 15 17  2  0
 14 18  1  0
 18 19  1  0
 19 20  2  0
 19 21  1  0
 21 22  1  0
 22 23  1  0
 23 24  2  0
 23 25  1  0
 18 26  1  0
 26 27  2  0
 27  9  1  0
 26 12  1  0
  1 28  1  0
  1 29  1  0
  1 30  1  0
  3 31  1  0
  3 32  1  0
  3 33  1  0
  4 34  1  0
  4 35  1  0
  4 36  1  0
  8 37  1  0
  8 38  1  0
 10 39  1  0
 11 40  1  0
 13 41  1  0
 16 42  1  0
 16 43  1  0
 21 44  1  0
 21 45  1  0
 27 46  1  0
M  CHG  1  25  -1
M  END
>  <UniqueID>  (65) 
64

>  <SMILES>  (65) 
CC(C)(C)OC(=O)Cc1ccc2cc(C(N)=O)n(C(=O)CSC(=O)[O-])c2c1

>  <Energy>  (65) 
82.03078938878633

>  <Genealogy>  (65) 
CC(C)(C)OC(=O)Cc1ccc2cc(C(N)=O)n(C(=O)CSC(=O)[O-])c2c1 (protonated)
CC(C)(C)OC(=O)Cc1ccc2cc(C(N)=O)n(C(=O)CSC(=O)[O-])c2c1 (3D coordinates assigned)
CC(C)(C)OC(=O)Cc1ccc2cc(C(N)=O)n(C(=O)CSC(=O)[O-])c2c1 (optimized conformer: 82.03078938878633 kcal/mol)

>  <smiles>  (65) 
CC(C)(C)OC(=O)Cc1ccc2cc(C(N)=O)n(C(=O)CSC(=O)O)c2c1

>  <score_type>  (65) 
oracle

>  <origin>  (65) 
adg

>  <m_score__min__energy>  (65) 
-10.94

>  <m_primary>  (65) 
energy

$$$$
65:0
     RDKit          3D

 38 39  0  0  0  0  0  0  0  0999 V2000
   -0.8290   26.5400  -27.9350 C   0  0  0  0  0  0  0  0  0  0  0  0
   -1.6290   25.4720  -28.3930 O   0  0  0  0  0  0  0  0  0  0  0  0
   -1.8370   24.5300  -27.3560 C   0  0  0  0  0  0  0  0  0  0  0  0
   -2.2470   23.1710  -27.9310 C   0  0  0  0  0  0  0  0  0  0  0  0
   -2.8500   23.3240  -29.2550 N   0  0  0  0  0  0  0  0  0  0  0  0
   -3.1830   22.2000  -30.0830 C   0  0  0  0  0  0  0  0  0  0  0  0
   -2.8610   21.0340  -29.7250 O   0  0  0  0  0  0  0  0  0  0  0  0
   -3.8940   22.3930  -31.3600 C   0  0  0  0  0  0  0  0  0  0  0  0
   -3.2650   22.3120  -32.4490 O   0  0  0  0  0  0  0  0  0  0  0  0
   -5.3000   22.6810  -31.3760 N   0  0  0  0  0  0  0  0  0  0  0  0
   -5.9250   23.8140  -30.9490 C   0  0  0  0  0  0  0  0  0  0  0  0
   -5.2590   25.0500  -30.4880 C   0  0  0  0  0  0  0  0  0  0  0  0
   -3.8600   25.2470  -30.6800 N   0  0  0  0  0  0  0  0  0  0  0  0
   -5.9380   25.9590  -29.9410 O   0  0  0  0  0  0  0  0  0  0  0  0
   -7.3090   23.6750  -31.0530 C   0  0  0  0  0  0  0  0  0  0  0  0
   -7.5120   22.4100  -31.5590 C   0  0  0  0  0  0  0  0  0  0  0  0
   -8.6970   21.7380  -31.8450 C   0  0  0  0  0  0  0  0  0  0  0  0
   -8.6070   20.4210  -32.3300 C   0  0  0  0  0  0  0  0  0  0  0  0
   -7.3430   19.8030  -32.5100 C   0  0  0  0  0  0  0  0  0  0  0  0
   -7.2500   18.3900  -33.0120 C   0  0  0  0  0  0  0  0  0  0  0  0
   -6.8190   17.5630  -31.9920 F   0  0  0  0  0  0  0  0  0  0  0  0
   -6.3530   18.3260  -34.0630 F   0  0  0  0  0  0  0  0  0  0  0  0
   -6.1640   20.5150  -32.2020 C   0  0  0  0  0  0  0  0  0  0  0  0
   -6.2840   21.8310  -31.7410 C   0  0  0  0  0  0  0  0  0  0  0  0
   -0.8229   26.5481  -26.8350 H   0  0  0  0  0  0  0  0  0  0  0  0
    0.1987   26.4138  -28.3064 H   0  0  0  0  0  0  0  0  0  0  0  0
   -1.2390   27.4908  -28.3064 H   0  0  0  0  0  0  0  0  0  0  0  0
   -0.9055   24.4130  -26.7827 H   0  0  0  0  0  0  0  0  0  0  0  0
   -2.6441   24.8954  -26.7040 H   0  0  0  0  0  0  0  0  0  0  0  0
   -1.3560   22.5312  -28.0130 H   0  0  0  0  0  0  0  0  0  0  0  0
   -2.9879   22.7142  -27.2584 H   0  0  0  0  0  0  0  0  0  0  0  0
   -3.0240   24.2920  -29.6070 H   0  0  0  0  0  0  0  0  0  0  0  0
   -3.5030   26.0400  -31.2580 H   0  0  0  0  0  0  0  0  0  0  0  0
   -8.0756   24.4178  -30.7874 H   0  0  0  0  0  0  0  0  0  0  0  0
   -9.6735   22.2220  -31.6963 H   0  0  0  0  0  0  0  0  0  0  0  0
   -9.5249   19.8652  -32.5719 H   0  0  0  0  0  0  0  0  0  0  0  0
   -8.2421   18.0633  -33.3569 H   0  0  0  0  0  0  0  0  0  0  0  0
   -5.1755   20.0473  -32.3213 H   0  0  0  0  0  0  0  0  0  0  0  0
  1  2  1  0
  2  3  1  0
  3  4  1  0
  4  5  1  0
  5  6  1  0
  6  7  2  0
  6  8  1  0
  8  9  2  0
  8 10  1  0
 10 11  1  0
 11 12  1  0
 12 13  1  0
 12 14  2  0
 11 15  2  0
 15 16  1  0
 16 17  2  0
 17 18  1  0
 18 19  2  0
 19 20  1  0
 20 21  1  0
 20 22  1  0
 19 23  1  0
 23 24  2  0
 24 10  1  0
 24 16  1  0
  1 25  1  0
  1 26  1  0
  1 27  1  0
  3 28  1  0
  3 29  1  0
  4 30  1  0
  4 31  1  0
  5 32  1  0
 13 33  1  0
 15 34  1  0
 17 35  1  0
 18 36  1  0
 20 37  1  0
 23 38  1  0
M  CHG  1  13  -1
M  END
>  <UniqueID>  (66) 
65

>  <SMILES>  (66) 
COCCNC(=O)C(=O)n1c(C([NH-])=O)cc2ccc(C(F)F)cc21

>  <Energy>  (66) 
74.80920538832507

>  <Genealogy>  (66) 
COCCNC(=O)C(=O)n1c(C([NH-])=O)cc2ccc(C(F)F)cc21 (protonated)
COCCNC(=O)C(=O)n1c(C([NH-])=O)cc2ccc(C(F)F)cc21 (3D coordinates assigned)
COCCNC(=O)C(=O)n1c(C([NH-])=O)cc2ccc(C(F)F)cc21 (optimized conformer: 74.80920538832507 kcal/mol)

>  <smiles>  (66) 
COCCNC(=O)C(=O)n1c(C(N)=O)cc2ccc(C(F)F)cc21

>  <score_type>  (66) 
oracle

>  <origin>  (66) 
adg

>  <m_score__min__energy>  (66) 
-9.5

>  <m_primary>  (66) 
energy

$$$$
66:0
     RDKit          3D

 53 56  0  0  0  0  0  0  0  0999 V2000
   -2.0870   20.1110  -31.2950 C   0  0  0  0  0  0  0  0  0  0  0  0
   -1.6440   21.2150  -32.2410 C   0  0  0  0  0  0  0  0  0  0  0  0
   -2.6990   22.1580  -32.3980 O   0  0  0  0  0  0  0  0  0  0  0  0
   -3.3940   22.7020  -31.3150 C   0  0  0  0  0  0  0  0  0  0  0  0
   -2.7670   23.1380  -30.3110 O   0  0  0  0  0  0  0  0  0  0  0  0
   -4.8270   22.7810  -31.3580 N   0  0  0  0  0  0  0  0  0  0  0  0
   -5.6180   23.8540  -31.0710 C   0  0  0  0  0  0  0  0  0  0  0  0
   -5.1620   25.1500  -30.5270 C   0  0  0  0  0  0  0  0  0  0  0  0
   -3.8810   25.6600  -30.8900 N   0  0  0  0  0  0  0  0  0  0  0  0
   -5.9040   25.8300  -29.7690 O   0  0  0  0  0  0  0  0  0  0  0  0
   -6.9600   23.5430  -31.2840 C   0  0  0  0  0  0  0  0  0  0  0  0
   -6.9670   22.2330  -31.7060 C   0  0  0  0  0  0  0  0  0  0  0  0
   -8.0340   21.4150  -32.0650 C   0  0  0  0  0  0  0  0  0  0  0  0
   -7.7480   20.1070  -32.4890 C   0  0  0  0  0  0  0  0  0  0  0  0
   -6.4080   19.6410  -32.5590 C   0  0  0  0  0  0  0  0  0  0  0  0
   -6.1170   18.2660  -33.0310 C   0  0  0  0  0  0  0  0  0  0  0  0
   -7.1680   17.4020  -33.4370 C   0  0  0  0  0  0  0  0  0  0  0  0
   -6.9060   16.1250  -33.8450 N   0  0  0  0  0  0  0  0  0  0  0  0
   -5.6220   15.6930  -33.8820 C   0  0  0  0  0  0  0  0  0  0  0  0
   -5.2190   14.4570  -34.2130 N   0  0  0  0  0  0  0  0  0  0  0  0
   -3.8750   14.4600  -34.0620 C   0  0  0  0  0  0  0  0  0  0  0  0
   -3.4300   15.7160  -33.6520 C   0  0  0  0  0  0  0  0  0  0  0  0
   -2.0270   16.0710  -33.3590 C   0  0  0  0  0  0  0  0  0  0  0  0
   -1.4700   15.5180  -32.3710 O   0  0  0  0  0  0  0  0  0  0  0  0
   -1.2120   17.0040  -34.2380 C   0  0  0  0  0  0  0  0  0  0  0  0
   -1.1920   16.4610  -35.6800 C   0  0  0  0  0  0  0  0  0  0  0  0
   -1.8570   18.4020  -34.2130 C   0  0  0  0  0  0  0  0  0  0  0  0
    0.1040   17.1010  -33.7430 O   0  0  0  0  0  0  0  0  0  0  0  0
   -4.5720   16.4900  -33.5240 C   0  0  0  0  0  0  0  0  0  0  0  0
   -4.7870   17.7890  -33.0700 C   0  0  0  0  0  0  0  0  0  0  0  0
   -5.3530   20.5050  -32.1840 C   0  0  0  0  0  0  0  0  0  0  0  0
   -5.6690   21.7960  -31.7440 C   0  0  0  0  0  0  0  0  0  0  0  0
   -1.9535   20.4437  -30.2551 H   0  0  0  0  0  0  0  0  0  0  0  0
   -3.1476   19.8796  -31.4726 H   0  0  0  0  0  0  0  0  0  0  0  0
   -1.4805   19.2106  -31.4726 H   0  0  0  0  0  0  0  0  0  0  0  0
   -0.7595   21.7203  -31.8260 H   0  0  0  0  0  0  0  0  0  0  0  0
   -1.3927   20.7800  -33.2196 H   0  0  0  0  0  0  0  0  0  0  0  0
   -3.0100   25.2830  -30.4550 H   0  0  0  0  0  0  0  0  0  0  0  0
   -7.8283   24.2037  -31.1445 H   0  0  0  0  0  0  0  0  0  0  0  0
   -9.0700   21.7817  -32.0181 H   0  0  0  0  0  0  0  0  0  0  0  0
   -8.5721   19.4349  -32.7704 H   0  0  0  0  0  0  0  0  0  0  0  0
   -8.2061   17.7655  -33.4228 H   0  0  0  0  0  0  0  0  0  0  0  0
   -5.8170   13.6530  -34.5040 H   0  0  0  0  0  0  0  0  0  0  0  0
   -3.2232   13.5916  -34.2383 H   0  0  0  0  0  0  0  0  0  0  0  0
   -1.1515   15.3620  -35.6574 H   0  0  0  0  0  0  0  0  0  0  0  0
   -2.1026   16.7836  -36.2060 H   0  0  0  0  0  0  0  0  0  0  0  0
   -0.3076   16.8498  -36.2060 H   0  0  0  0  0  0  0  0  0  0  0  0
   -2.0035   18.7196  -33.1701 H   0  0  0  0  0  0  0  0  0  0  0  0
   -1.1986   19.1188  -34.7255 H   0  0  0  0  0  0  0  0  0  0  0  0
   -2.8296   18.3663  -34.7255 H   0  0  0  0  0  0  0  0  0  0  0  0
    0.1780   16.5150  -32.9440 H   0  0  0  0  0  0  0  0  0  0  0  0
   -3.9474   18.4243  -32.7515 H   0  0  0  0  0  0  0  0  0  0  0  0
   -4.3066   20.1699  -32.2369 H   0  0  0  0  0  0  0  0  0  0  0  0
  1  2  1  0
  2  3  1  0
  3  4  1  0
  4  5  2  0
  4  6  1  0
  6  7  1  0
  7  8  1  0
  8  9  1  0
  8 10  2  0
  7 11  2  0
 11 12  1  0
 12 13  2  0
 13 14  1  0
 14 15  2  0
 15 16  1  0
 16 17  2  0
 17 18  1  0
 18 19  2  0
 19 20  1  0
 20 21  1  0
 21 22  2  0
 22 23  1  0
 23 24  2  0
 23 25  1  0
 25 26  1  0
 25 27  1  0
 25 28  1  0
 22 29  1  0
 29 30  2  0
 15 31  1  0
 31 32  2  0
 32  6  1  0
 32 12  1  0
 30 16  1  0
 29 19  1  0
  1 33  1  0
  1 34  1  0
  1 35  1  0
  2 36  1  0
  2 37  1  0
  9 38  1  0
 11 39  1  0
 13 40  1  0
 14 41  1  0
 17 42  1  0
 20 43  1  0
 21 44  1  0
 26 45  1  0
 26 46  1  0
 26 47  1  0
 27 48  1  0
 27 49  1  0
 27 50  1  0
 28 51  1  0
 30 52  1  0
 31 53  1  0
M  CHG  1   9  -1
M  END
>  <UniqueID>  (67) 
66

>  <SMILES>  (67) 
CCOC(=O)n1c(C([NH-])=O)cc2ccc(-c3cnc4[nH]cc(C(=O)C(C)(C)O)c4c3)cc21

>  <Energy>  (67) 
133.9903658172728

>  <Genealogy>  (67) 
CCOC(=O)n1c(C([NH-])=O)cc2ccc(-c3cnc4[nH]cc(C(=O)C(C)(C)O)c4c3)cc21 (protonated)
CCOC(=O)n1c(C([NH-])=O)cc2ccc(-c3cnc4[nH]cc(C(=O)C(C)(C)O)c4c3)cc21 (3D coordinates assigned)
CCOC(=O)n1c(C([NH-])=O)cc2ccc(-c3cnc4[nH]cc(C(=O)C(C)(C)O)c4c3)cc21 (optimized conformer: 133.9903658172728 kcal/mol)

>  <smiles>  (67) 
CCOC(=O)n1c(C(N)=O)cc2ccc(-c3cnc4[nH]cc(C(=O)C(C)(C)O)c4c3)cc21

>  <score_type>  (67) 
oracle

>  <origin>  (67) 
adg

>  <m_score__min__energy>  (67) 
-11.52

>  <m_primary>  (67) 
energy

$$$$
67:0
     RDKit          3D

 44 45  0  0  0  0  0  0  0  0999 V2000
   -8.9730   18.8200  -31.4720 C   0  0  0  0  0  0  0  0  0  0  0  0
   -9.4800   19.7040  -32.6110 C   0  0  0  0  0  0  0  0  0  0  0  0
   -9.2910   21.2040  -32.3300 C   0  0  0  0  0  0  0  0  0  0  0  0
   -9.3350   21.5560  -30.8400 C   0  0  0  0  0  0  0  0  0  0  0  0
   -8.0160   21.7760  -30.3510 O   0  0  0  0  0  0  0  0  0  0  0  0
   -7.1940   22.8060  -30.8160 C   0  0  0  0  0  0  0  0  0  0  0  0
   -7.6200   23.9920  -30.8490 O   0  0  0  0  0  0  0  0  0  0  0  0
   -5.8600   22.5080  -31.2610 N   0  0  0  0  0  0  0  0  0  0  0  0
   -4.7430   23.2740  -31.1120 C   0  0  0  0  0  0  0  0  0  0  0  0
   -4.6450   24.5160  -30.3200 C   0  0  0  0  0  0  0  0  0  0  0  0
   -5.6170   24.8360  -29.3230 N   0  0  0  0  0  0  0  0  0  0  0  0
   -3.6570   25.2790  -30.4870 O   0  0  0  0  0  0  0  0  0  0  0  0
   -3.6570   22.6940  -31.7630 C   0  0  0  0  0  0  0  0  0  0  0  0
   -4.1420   21.5280  -32.3090 C   0  0  0  0  0  0  0  0  0  0  0  0
   -3.4890   20.5550  -33.0590 C   0  0  0  0  0  0  0  0  0  0  0  0
   -4.2410   19.4580  -33.5120 C   0  0  0  0  0  0  0  0  0  0  0  0
   -5.6260   19.3670  -33.2280 C   0  0  0  0  0  0  0  0  0  0  0  0
   -6.4190   18.1790  -33.6970 C   0  0  0  0  0  0  0  0  0  0  0  0
   -6.2280   17.0340  -32.7560 C   0  0  0  0  0  0  0  0  0  0  0  0
   -6.3710   17.2130  -31.5150 O   0  0  0  0  0  0  0  0  0  0  0  0
   -5.8400   15.7890  -33.2580 O   0  0  0  0  0  0  0  0  0  0  0  0
   -4.6620   15.1210  -32.8230 C   0  0  0  0  0  0  0  0  0  0  0  0
   -6.2530   20.3710  -32.4580 C   0  0  0  0  0  0  0  0  0  0  0  0
   -5.4740   21.4390  -31.9960 C   0  0  0  0  0  0  0  0  0  0  0  0
   -9.2359   19.2784  -30.5072 H   0  0  0  0  0  0  0  0  0  0  0  0
   -9.4382   17.8259  -31.5445 H   0  0  0  0  0  0  0  0  0  0  0  0
   -7.8800   18.7195  -31.5445 H   0  0  0  0  0  0  0  0  0  0  0  0
   -8.9297   19.4460  -33.5279 H   0  0  0  0  0  0  0  0  0  0  0  0
  -10.5593   19.5203  -32.7178 H   0  0  0  0  0  0  0  0  0  0  0  0
   -8.3151   21.5135  -32.7323 H   0  0  0  0  0  0  0  0  0  0  0  0
  -10.1270   21.7317  -32.8123 H   0  0  0  0  0  0  0  0  0  0  0  0
   -9.9324   22.4688  -30.6991 H   0  0  0  0  0  0  0  0  0  0  0  0
   -9.7904   20.7220  -30.2859 H   0  0  0  0  0  0  0  0  0  0  0  0
   -6.3500   24.1480  -29.0450 H   0  0  0  0  0  0  0  0  0  0  0  0
   -5.5480   25.7350  -28.7950 H   0  0  0  0  0  0  0  0  0  0  0  0
   -2.6307   23.0847  -31.8270 H   0  0  0  0  0  0  0  0  0  0  0  0
   -2.4171   20.6419  -33.2902 H   0  0  0  0  0  0  0  0  0  0  0  0
   -3.7501   18.6628  -34.0923 H   0  0  0  0  0  0  0  0  0  0  0  0
   -7.4857   18.4450  -33.7354 H   0  0  0  0  0  0  0  0  0  0  0  0
   -6.0717   17.8854  -34.6986 H   0  0  0  0  0  0  0  0  0  0  0  0
   -4.6342   15.1053  -31.7235 H   0  0  0  0  0  0  0  0  0  0  0  0
   -4.6634   14.0893  -33.2046 H   0  0  0  0  0  0  0  0  0  0  0  0
   -3.7773   15.6518  -33.2046 H   0  0  0  0  0  0  0  0  0  0  0  0
   -7.3270   20.3155  -32.2268 H   0  0  0  0  0  0  0  0  0  0  0  0
  1  2  1  0
  2  3  1  0
  3  4  1  0
  4  5  1  0
  5  6  1  0
  6  7  2  0
  6  8  1  0
  8  9  1  0
  9 10  1  0
 10 11  1  0
 10 12  2  0
  9 13  2  0
 13 14  1  0
 14 15  2  0
 15 16  1  0
 16 17  2  0
 17 18  1  0
 18 19  1  0
 19 20  2  0
 19 21  1  0
 21 22  1  0
 17 23  1  0
 23 24  2  0
 24  8  1  0
 24 14  1  0
  1 25  1  0
  1 26  1  0
  1 27  1  0
  2 28  1  0
  2 29  1  0
  3 30  1  0
  3 31  1  0
  4 32  1  0
  4 33  1  0
 11 34  1  0
 11 35  1  0
 13 36  1  0
 15 37  1  0
 16 38  1  0
 18 39  1  0
 18 40  1  0
 22 41  1  0
 22 42  1  0
 22 43  1  0
 23 44  1  0
M  END
>  <UniqueID>  (68) 
67

>  <SMILES>  (68) 
CCCCOC(=O)n1c(C(N)=O)cc2ccc(CC(=O)OC)cc21

>  <Energy>  (68) 
70.42272498238162

>  <Genealogy>  (68) 
CCCCOC(=O)n1c(C(N)=O)cc2ccc(CC(=O)OC)cc21 (3D coordinates assigned)
CCCCOC(=O)n1c(C(N)=O)cc2ccc(CC(=O)OC)cc21 (optimized conformer: 70.42272498238162 kcal/mol)

>  <smiles>  (68) 
CCCCOC(=O)n1c(C(N)=O)cc2ccc(CC(=O)OC)cc21

>  <score_type>  (68) 
oracle

>  <origin>  (68) 
adg

>  <m_score__min__energy>  (68) 
-8.2599999999999998

>  <m_primary>  (68) 
energy

$$$$
68:0
     RDKit          3D

 32 34  0  0  0  0  0  0  0  0999 V2000
   -4.2070   25.5360  -30.6900 N   0  0  0  0  0  0  0  0  0  0  0  0
   -5.5280   25.0840  -30.3870 C   0  0  0  0  0  0  0  0  0  0  0  0
   -6.2310   25.7360  -29.5700 O   0  0  0  0  0  0  0  0  0  0  0  0
   -6.0600   23.8340  -30.9650 C   0  0  0  0  0  0  0  0  0  0  0  0
   -7.4190   23.5560  -31.0640 C   0  0  0  0  0  0  0  0  0  0  0  0
   -7.4920   22.2860  -31.5890 C   0  0  0  0  0  0  0  0  0  0  0  0
   -8.6060   21.5170  -31.9110 C   0  0  0  0  0  0  0  0  0  0  0  0
   -8.3900   20.2520  -32.4790 C   0  0  0  0  0  0  0  0  0  0  0  0
   -7.0720   19.7790  -32.7250 C   0  0  0  0  0  0  0  0  0  0  0  0
   -6.8180   18.4200  -33.3530 C   0  0  0  0  0  0  0  0  0  0  0  0
   -5.9680   17.4770  -32.5030 C   0  0  0  0  0  0  0  0  0  0  0  0
   -4.8950   17.4750  -33.5830 C   0  0  0  0  0  0  0  0  0  0  0  0
   -5.7410   18.4140  -34.4360 C   0  0  0  0  0  0  0  0  0  0  0  0
   -5.9690   20.5950  -32.3840 C   0  0  0  0  0  0  0  0  0  0  0  0
   -6.2120   21.8430  -31.7990 C   0  0  0  0  0  0  0  0  0  0  0  0
   -5.3180   22.7850  -31.4220 N   0  0  0  0  0  0  0  0  0  0  0  0
   -3.8900   22.7310  -31.5880 C   0  0  0  0  0  0  0  0  0  0  0  0
   -3.1320   23.2830  -30.7480 O   0  0  0  0  0  0  0  0  0  0  0  0
   -3.3320   22.0730  -32.6770 O   0  0  0  0  0  0  0  0  0  0  0  0
   -3.8620   26.4420  -30.3030 H   0  0  0  0  0  0  0  0  0  0  0  0
   -3.5420   24.9360  -31.2250 H   0  0  0  0  0  0  0  0  0  0  0  0
   -8.2566   24.2112  -30.7828 H   0  0  0  0  0  0  0  0  0  0  0  0
   -9.6245   21.8891  -31.7261 H   0  0  0  0  0  0  0  0  0  0  0  0
   -9.2513   19.6184  -32.7372 H   0  0  0  0  0  0  0  0  0  0  0  0
   -7.8577   18.1598  -33.6009 H   0  0  0  0  0  0  0  0  0  0  0  0
   -5.6407   17.9073  -31.5450 H   0  0  0  0  0  0  0  0  0  0  0  0
   -6.3873   16.5302  -32.1318 H   0  0  0  0  0  0  0  0  0  0  0  0
   -3.9349   17.9048  -33.2614 H   0  0  0  0  0  0  0  0  0  0  0  0
   -4.5303   16.5247  -34.0001 H   0  0  0  0  0  0  0  0  0  0  0  0
   -5.2794   19.3960  -34.6167 H   0  0  0  0  0  0  0  0  0  0  0  0
   -5.9940   18.1501  -35.4735 H   0  0  0  0  0  0  0  0  0  0  0  0
   -4.9402   20.2557  -32.5747 H   0  0  0  0  0  0  0  0  0  0  0  0
  1  2  1  0
  2  3  2  0
  2  4  1  0
  4  5  2  0
  5  6  1  0
  6  7  2  0
  7  8  1  0
  8  9  2  0
  9 10  1  0
 10 11  1  0
 11 12  1  0
 12 13  1  0
  9 14  1  0
 14 15  2  0
 15 16  1  0
 16 17  1  0
 17 18  2  0
 17 19  1  0
 16  4  1  0
 15  6  1  0
 13 10  1  0
  1 20  1  0
  1 21  1  0
  5 22  1  0
  7 23  1  0
  8 24  1  0
 10 25  1  0
 11 26  1  0
 11 27  1  0
 12 28  1  0
 12 29  1  0
 13 30  1  0
 13 31  1  0
 14 32  1  0
M  CHG  1  19  -1
M  END
>  <UniqueID>  (69) 
68

>  <SMILES>  (69) 
NC(=O)c1cc2ccc(C3CCC3)cc2n1C(=O)[O-]

>  <Energy>  (69) 
134.691210240338

>  <Genealogy>  (69) 
NC(=O)c1cc2ccc(C3CCC3)cc2n1C(=O)[O-] (protonated)
NC(=O)c1cc2ccc(C3CCC3)cc2n1C(=O)[O-] (3D coordinates assigned)
NC(=O)c1cc2ccc(C3CCC3)cc2n1C(=O)[O-] (nonaromatic ring conformer: 134.691210240338 kcal/mol)

>  <smiles>  (69) 
NC(=O)c1cc2ccc(C3CCC3)cc2n1C(=O)O

>  <score_type>  (69) 
oracle

>  <origin>  (69) 
adg

>  <m_score__min__energy>  (69) 
-9.2799999999999994

>  <m_primary>  (69) 
energy

$$$$
69:0
     RDKit          3D

 47 49  0  0  0  0  0  0  0  0999 V2000
   -6.3830   17.0370  -33.6870 C   0  0  0  0  0  0  0  0  0  0  0  0
   -7.5700   17.6810  -33.2860 O   0  0  0  0  0  0  0  0  0  0  0  0
   -7.5740   17.8270  -31.8830 C   0  0  0  0  0  0  0  0  0  0  0  0
   -6.1400   17.8330  -31.3590 C   0  0  0  0  0  0  0  0  0  0  0  0
   -5.6500   19.1660  -31.2370 O   0  0  0  0  0  0  0  0  0  0  0  0
   -6.0070   20.2080  -32.1030 C   0  0  0  0  0  0  0  0  0  0  0  0
   -5.7740   20.1180  -33.3390 O   0  0  0  0  0  0  0  0  0  0  0  0
   -6.6420   21.3830  -31.5770 N   0  0  0  0  0  0  0  0  0  0  0  0
   -7.9270   21.7880  -31.7740 C   0  0  0  0  0  0  0  0  0  0  0  0
   -8.9880   21.0050  -32.4400 C   0  0  0  0  0  0  0  0  0  0  0  0
   -8.6810   20.0590  -33.4640 N   0  0  0  0  0  0  0  0  0  0  0  0
  -10.1820   21.1380  -32.0620 O   0  0  0  0  0  0  0  0  0  0  0  0
   -8.1360   23.0480  -31.2200 C   0  0  0  0  0  0  0  0  0  0  0  0
   -6.9280   23.4060  -30.6660 C   0  0  0  0  0  0  0  0  0  0  0  0
   -6.5580   24.5720  -30.0040 C   0  0  0  0  0  0  0  0  0  0  0  0
   -5.2240   24.6940  -29.5800 C   0  0  0  0  0  0  0  0  0  0  0  0
   -4.2810   23.6620  -29.8340 C   0  0  0  0  0  0  0  0  0  0  0  0
   -2.9070   23.8040  -29.4100 N   0  0  0  0  0  0  0  0  0  0  0  0
   -1.8470   23.0680  -30.1120 C   0  0  0  0  0  0  0  0  0  0  0  0
   -0.5490   23.0770  -29.3000 C   0  0  0  0  0  0  0  0  0  0  0  0
   -0.1470   24.4470  -28.9500 N   0  0  0  0  0  0  0  0  0  0  0  0
   -1.2250   25.2800  -28.3700 C   0  0  0  0  0  0  0  0  0  0  0  0
   -2.5680   24.5510  -28.1930 C   0  0  0  0  0  0  0  0  0  0  0  0
   -4.7020   22.4910  -30.5060 C   0  0  0  0  0  0  0  0  0  0  0  0
   -6.0420   22.3860  -30.8960 C   0  0  0  0  0  0  0  0  0  0  0  0
   -5.8146   16.7286  -32.7972 H   0  0  0  0  0  0  0  0  0  0  0  0
   -6.6321   16.1503  -34.2885 H   0  0  0  0  0  0  0  0  0  0  0  0
   -5.7755   17.7292  -34.2885 H   0  0  0  0  0  0  0  0  0  0  0  0
   -8.0642   18.7748  -31.6160 H   0  0  0  0  0  0  0  0  0  0  0  0
   -8.1216   16.9863  -31.4322 H   0  0  0  0  0  0  0  0  0  0  0  0
   -6.1149   17.3481  -30.3720 H   0  0  0  0  0  0  0  0  0  0  0  0
   -5.5029   17.2875  -32.0706 H   0  0  0  0  0  0  0  0  0  0  0  0
   -7.6930   19.8010  -33.6800 H   0  0  0  0  0  0  0  0  0  0  0  0
   -9.4480   19.5440  -33.9490 H   0  0  0  0  0  0  0  0  0  0  0  0
   -9.0677   23.6327  -31.2241 H   0  0  0  0  0  0  0  0  0  0  0  0
   -7.2875   25.3741  -29.8181 H   0  0  0  0  0  0  0  0  0  0  0  0
   -4.9055   25.6004  -29.0443 H   0  0  0  0  0  0  0  0  0  0  0  0
   -2.1702   22.0276  -30.2637 H   0  0  0  0  0  0  0  0  0  0  0  0
   -1.6606   23.5562  -31.0799 H   0  0  0  0  0  0  0  0  0  0  0  0
   -0.7009   22.5009  -28.3753 H   0  0  0  0  0  0  0  0  0  0  0  0
    0.2466   22.6276  -29.9124 H   0  0  0  0  0  0  0  0  0  0  0  0
    0.2050   24.9110  -29.8210 H   0  0  0  0  0  0  0  0  0  0  0  0
   -0.8929   25.6333  -27.3826 H   0  0  0  0  0  0  0  0  0  0  0  0
   -1.4048   26.0995  -29.0814 H   0  0  0  0  0  0  0  0  0  0  0  0
   -2.4925   23.8517  -27.3473 H   0  0  0  0  0  0  0  0  0  0  0  0
   -3.3554   25.2942  -27.9986 H   0  0  0  0  0  0  0  0  0  0  0  0
   -3.9907   21.6791  -30.7179 H   0  0  0  0  0  0  0  0  0  0  0  0
  1  2  1  0
  2  3  1  0
  3  4  1  0
  4  5  1  0
  5  6  1  0
  6  7  2  0
  6  8  1  0
  8  9  1  0
  9 10  1  0
 10 11  1  0
 10 12  2  0
  9 13  2  0
 13 14  1  0
 14 15  2  0
 15 16  1  0
 16 17  2  0
 17 18  1  0
 18 19  1  0
 19 20  1  0
 20 21  1  0
 21 22  1  0
 22 23  1  0
 17 24  1  0
 24 25  2  0
 25  8  1  0
 25 14  1  0
 23 18  1  0
  1 26  1  0
  1 27  1  0
  1 28  1  0
  3 29  1  0
  3 30  1  0
  4 31  1  0
  4 32  1  0
 11 33  1  0
 11 34  1  0
 13 35  1  0
 15 36  1  0
 16 37  1  0
 19 38  1  0
 19 39  1  0
 20 40  1  0
 20 41  1  0
 21 42  1  0
 22 43  1  0
 22 44  1  0
 23 45  1  0
 23 46  1  0
 24 47  1  0
M  END
>  <UniqueID>  (70) 
69

>  <SMILES>  (70) 
COCCOC(=O)n1c(C(N)=O)cc2ccc(N3CCNCC3)cc21

>  <Energy>  (70) 
92.49568475521819

>  <Genealogy>  (70) 
COCCOC(=O)n1c(C(N)=O)cc2ccc(N3CCNCC3)cc21 (3D coordinates assigned)
COCCOC(=O)n1c(C(N)=O)cc2ccc(N3CCNCC3)cc21 (nonaromatic ring conformer: 92.49568475521819 kcal/mol)

>  <smiles>  (70) 
COCCOC(=O)n1c(C(N)=O)cc2ccc(N3CCNCC3)cc21

>  <score_type>  (70) 
oracle

>  <origin>  (70) 
adg

>  <m_score__min__energy>  (70) 
-9.2799999999999994

>  <m_primary>  (70) 
energy

$$$$
70:0
     RDKit          3D

 27 28  0  0  0  0  0  0  0  0999 V2000
   -3.8670   25.2970  -30.6470 N   0  0  0  0  0  0  0  0  0  0  0  0
   -5.2740   25.1750  -30.4570 C   0  0  0  0  0  0  0  0  0  0  0  0
   -5.9140   26.1430  -29.9660 O   0  0  0  0  0  0  0  0  0  0  0  0
   -5.9950   23.9460  -30.8520 C   0  0  0  0  0  0  0  0  0  0  0  0
   -7.3840   23.8490  -30.9070 C   0  0  0  0  0  0  0  0  0  0  0  0
   -7.6440   22.5730  -31.3540 C   0  0  0  0  0  0  0  0  0  0  0  0
   -8.8590   21.9310  -31.5760 C   0  0  0  0  0  0  0  0  0  0  0  0
   -8.8270   20.5950  -32.0090 C   0  0  0  0  0  0  0  0  0  0  0  0
   -7.5920   19.9270  -32.2040 C   0  0  0  0  0  0  0  0  0  0  0  0
   -7.5810   18.4940  -32.6530 C   0  0  0  0  0  0  0  0  0  0  0  0
   -8.6500   17.8200  -32.0900 F   0  0  0  0  0  0  0  0  0  0  0  0
   -6.4010   17.8910  -32.2570 F   0  0  0  0  0  0  0  0  0  0  0  0
   -6.3790   20.6110  -31.9650 C   0  0  0  0  0  0  0  0  0  0  0  0
   -6.4420   21.9460  -31.5510 C   0  0  0  0  0  0  0  0  0  0  0  0
   -5.4190   22.7770  -31.2520 N   0  0  0  0  0  0  0  0  0  0  0  0
   -4.0210   22.4520  -31.2700 C   0  0  0  0  0  0  0  0  0  0  0  0
   -3.4290   22.3130  -32.3750 O   0  0  0  0  0  0  0  0  0  0  0  0
   -3.2500   22.2690  -29.9970 C   0  0  0  0  0  0  0  0  0  0  0  0
   -2.8320   20.9580  -29.8610 F   0  0  0  0  0  0  0  0  0  0  0  0
   -4.0480   22.6080  -28.9200 F   0  0  0  0  0  0  0  0  0  0  0  0
   -2.1390   23.0920  -30.0120 F   0  0  0  0  0  0  0  0  0  0  0  0
   -3.4700   26.0420  -31.2610 H   0  0  0  0  0  0  0  0  0  0  0  0
   -8.1173   24.6270  -30.6482 H   0  0  0  0  0  0  0  0  0  0  0  0
   -9.8140   22.4533  -31.4174 H   0  0  0  0  0  0  0  0  0  0  0  0
   -9.7701   20.0616  -32.1987 H   0  0  0  0  0  0  0  0  0  0  0  0
   -7.6619   18.4597  -33.7495 H   0  0  0  0  0  0  0  0  0  0  0  0
   -5.4106   20.1072  -32.1008 H   0  0  0  0  0  0  0  0  0  0  0  0
  1  2  1  0
  2  3  2  0
  2  4  1  0
  4  5  2  0
  5  6  1  0
  6  7  2  0
  7  8  1  0
  8  9  2  0
  9 10  1  0
 10 11  1  0
 10 12  1  0
  9 13  1  0
 13 14  2  0
 14 15  1  0
 15 16  1  0
 16 17  2  0
 16 18  1  0
 18 19  1  0
 18 20  1  0
 18 21  1  0
 15  4  1  0
 14  6  1  0
  1 22  1  0
  5 23  1  0
  7 24  1  0
  8 25  1  0
 10 26  1  0
 13 27  1  0
M  CHG  1   1  -1
M  END
>  <UniqueID>  (71) 
70

>  <SMILES>  (71) 
[NH-]C(=O)c1cc2ccc(C(F)F)cc2n1C(=O)C(F)(F)F

>  <Energy>  (71) 
66.63231535229188

>  <Genealogy>  (71) 
[NH-]C(=O)c1cc2ccc(C(F)F)cc2n1C(=O)C(F)(F)F (protonated)
[NH-]C(=O)c1cc2ccc(C(F)F)cc2n1C(=O)C(F)(F)F (3D coordinates assigned)
[NH-]C(=O)c1cc2ccc(C(F)F)cc2n1C(=O)C(F)(F)F (optimized conformer: 66.63231535229188 kcal/mol)

>  <smiles>  (71) 
NC(=O)c1cc2ccc(C(F)F)cc2n1C(=O)C(F)(F)F

>  <score_type>  (71) 
oracle

>  <origin>  (71) 
adg

>  <m_score__min__energy>  (71) 
-9.1699999999999999

>  <m_primary>  (71) 
energy

$$$$
71:0
     RDKit          3D

 43 45  0  0  0  0  0  0  0  0999 V2000
   -1.3910   14.3820  -32.5120 C   0  0  0  0  0  0  0  0  0  0  0  0
   -2.4380   15.2930  -32.8210 O   0  0  0  0  0  0  0  0  0  0  0  0
   -3.7870   15.0050  -32.5850 C   0  0  0  0  0  0  0  0  0  0  0  0
   -4.1200   13.8500  -32.2030 O   0  0  0  0  0  0  0  0  0  0  0  0
   -4.8060   16.0720  -32.7630 C   0  0  0  0  0  0  0  0  0  0  0  0
   -5.6670   16.3630  -31.6890 C   0  0  0  0  0  0  0  0  0  0  0  0
   -6.6530   17.3440  -31.8050 C   0  0  0  0  0  0  0  0  0  0  0  0
   -6.8140   18.0500  -33.0010 C   0  0  0  0  0  0  0  0  0  0  0  0
   -7.8250   19.0690  -33.0910 N   0  0  0  0  0  0  0  0  0  0  0  0
   -7.7150   20.3760  -32.5030 C   0  0  0  0  0  0  0  0  0  0  0  0
   -8.8930   21.0700  -32.1360 C   0  0  0  0  0  0  0  0  0  0  0  0
   -8.8240   22.3520  -31.5660 C   0  0  0  0  0  0  0  0  0  0  0  0
   -7.5670   22.9230  -31.3950 C   0  0  0  0  0  0  0  0  0  0  0  0
   -7.2100   24.1340  -30.8490 C   0  0  0  0  0  0  0  0  0  0  0  0
   -5.8200   24.1830  -30.9300 C   0  0  0  0  0  0  0  0  0  0  0  0
   -5.0220   25.3590  -30.5270 C   0  0  0  0  0  0  0  0  0  0  0  0
   -3.6000   25.2980  -30.4810 N   0  0  0  0  0  0  0  0  0  0  0  0
   -5.6030   26.4470  -30.2650 O   0  0  0  0  0  0  0  0  0  0  0  0
   -5.3350   23.0430  -31.4990 N   0  0  0  0  0  0  0  0  0  0  0  0
   -3.9600   22.6630  -31.6650 C   0  0  0  0  0  0  0  0  0  0  0  0
   -3.5360   22.3140  -32.8010 O   0  0  0  0  0  0  0  0  0  0  0  0
   -3.1030   22.6580  -30.5610 O   0  0  0  0  0  0  0  0  0  0  0  0
   -3.5380   22.3070  -29.2540 C   0  0  0  0  0  0  0  0  0  0  0  0
   -6.4170   22.2830  -31.7790 C   0  0  0  0  0  0  0  0  0  0  0  0
   -6.4560   20.9990  -32.3350 C   0  0  0  0  0  0  0  0  0  0  0  0
   -5.9400   17.7950  -34.0680 C   0  0  0  0  0  0  0  0  0  0  0  0
   -4.9470   16.8130  -33.9640 C   0  0  0  0  0  0  0  0  0  0  0  0
   -3.8810   16.6020  -35.3520 Cl  0  0  0  0  0  0  0  0  0  0  0  0
   -1.2910   14.2950  -31.4200 H   0  0  0  0  0  0  0  0  0  0  0  0
   -1.6255   13.3955  -32.9385 H   0  0  0  0  0  0  0  0  0  0  0  0
   -0.4464   14.7507  -32.9385 H   0  0  0  0  0  0  0  0  0  0  0  0
   -5.5616   15.8094  -30.7443 H   0  0  0  0  0  0  0  0  0  0  0  0
   -7.3083   17.5633  -30.9491 H   0  0  0  0  0  0  0  0  0  0  0  0
   -8.6960   18.8450  -33.6250 H   0  0  0  0  0  0  0  0  0  0  0  0
   -9.8740   20.5998  -32.2991 H   0  0  0  0  0  0  0  0  0  0  0  0
   -9.7359   22.8880  -31.2641 H   0  0  0  0  0  0  0  0  0  0  0  0
   -7.8805   24.9018  -30.4356 H   0  0  0  0  0  0  0  0  0  0  0  0
   -3.0630   24.7470  -31.1870 H   0  0  0  0  0  0  0  0  0  0  0  0
   -2.9081   22.8153  -28.5091 H   0  0  0  0  0  0  0  0  0  0  0  0
   -4.5853   22.6160  -29.1208 H   0  0  0  0  0  0  0  0  0  0  0  0
   -3.4573   21.2181  -29.1208 H   0  0  0  0  0  0  0  0  0  0  0  0
   -5.5298   20.4866  -32.6342 H   0  0  0  0  0  0  0  0  0  0  0  0
   -6.0358   18.3738  -34.9985 H   0  0  0  0  0  0  0  0  0  0  0  0
  1  2  1  0
  2  3  1  0
  3  4  2  0
  3  5  1  0
  5  6  2  0
  6  7  1  0
  7  8  2  0
  8  9  1  0
  9 10  1  0
 10 11  2  0
 11 12  1  0
 12 13  2  0
 13 14  1  0
 14 15  2  0
 15 16  1  0
 16 17  1  0
 16 18  2  0
 15 19  1  0
 19 20  1  0
 20 21  2  0
 20 22  1  0
 22 23  1  0
 19 24  1  0
 24 25  2  0
  8 26  1  0
 26 27  2  0
 27 28  1  0
 27  5  1  0
 25 10  1  0
 24 13  1  0
  1 29  1  0
  1 30  1  0
  1 31  1  0
  6 32  1  0
  7 33  1  0
  9 34  1  0
 11 35  1  0
 12 36  1  0
 14 37  1  0
 17 38  1  0
 23 39  1  0
 23 40  1  0
 23 41  1  0
 25 42  1  0
 26 43  1  0
M  CHG  1  17  -1
M  END
>  <UniqueID>  (72) 
71

>  <SMILES>  (72) 
COC(=O)c1ccc(Nc2ccc3cc(C([NH-])=O)n(C(=O)OC)c3c2)cc1Cl

>  <Energy>  (72) 
89.82722455547022

>  <Genealogy>  (72) 
COC(=O)c1ccc(Nc2ccc3cc(C([NH-])=O)n(C(=O)OC)c3c2)cc1Cl (protonated)
COC(=O)c1ccc(Nc2ccc3cc(C([NH-])=O)n(C(=O)OC)c3c2)cc1Cl (3D coordinates assigned)
COC(=O)c1ccc(Nc2ccc3cc(C([NH-])=O)n(C(=O)OC)c3c2)cc1Cl (optimized conformer: 89.82722455547022 kcal/mol)

>  <smiles>  (72) 
COC(=O)c1ccc(Nc2ccc3cc(C(N)=O)n(C(=O)OC)c3c2)cc1Cl

>  <score_type>  (72) 
oracle

>  <origin>  (72) 
adg

>  <m_score__min__energy>  (72) 
-10.91

>  <m_primary>  (72) 
energy

$$$$
72:0
     RDKit          3D

 32 33  0  0  0  0  0  0  0  0999 V2000
   -5.6770   26.4740  -30.1590 N   0  0  0  0  0  0  0  0  0  0  0  0
   -6.4760   25.2970  -30.0240 C   0  0  0  0  0  0  0  0  0  0  0  0
   -7.4220   25.2850  -29.1920 O   0  0  0  0  0  0  0  0  0  0  0  0
   -6.1720   24.0750  -30.7950 C   0  0  0  0  0  0  0  0  0  0  0  0
   -7.1450   23.3160  -31.4390 C   0  0  0  0  0  0  0  0  0  0  0  0
   -6.4710   22.2440  -31.9760 C   0  0  0  0  0  0  0  0  0  0  0  0
   -6.9490   21.1770  -32.7320 C   0  0  0  0  0  0  0  0  0  0  0  0
   -6.0210   20.2260  -33.1880 C   0  0  0  0  0  0  0  0  0  0  0  0
   -4.6420   20.3640  -32.8970 C   0  0  0  0  0  0  0  0  0  0  0  0
   -3.6620   19.3300  -33.3850 C   0  0  0  0  0  0  0  0  0  0  0  0
   -2.3350   19.3700  -32.6100 C   0  0  0  0  0  0  0  0  0  0  0  0
   -1.3180   20.3590  -33.1990 C   0  0  0  0  0  0  0  0  0  0  0  0
   -1.5680   20.5940  -34.5590 O   0  0  0  0  0  0  0  0  0  0  0  0
   -4.1930   21.4620  -32.1280 C   0  0  0  0  0  0  0  0  0  0  0  0
   -5.1420   22.3830  -31.6650 C   0  0  0  0  0  0  0  0  0  0  0  0
   -4.9410   23.5060  -30.9390 N   0  0  0  0  0  0  0  0  0  0  0  0
   -3.6750   24.0420  -30.5170 C   0  0  0  0  0  0  0  0  0  0  0  0
   -3.4880   25.2870  -30.4930 O   0  0  0  0  0  0  0  0  0  0  0  0
   -2.6440   23.1940  -30.1330 O   0  0  0  0  0  0  0  0  0  0  0  0
   -4.7900   26.4630  -30.7080 H   0  0  0  0  0  0  0  0  0  0  0  0
   -5.9300   27.3410  -29.6350 H   0  0  0  0  0  0  0  0  0  0  0  0
   -8.2224   23.5281  -31.5045 H   0  0  0  0  0  0  0  0  0  0  0  0
   -8.0198   21.0816  -32.9649 H   0  0  0  0  0  0  0  0  0  0  0  0
   -6.3692   19.3650  -33.7774 H   0  0  0  0  0  0  0  0  0  0  0  0
   -4.1112   18.3331  -33.2654 H   0  0  0  0  0  0  0  0  0  0  0  0
   -3.4413   19.5481  -34.4403 H   0  0  0  0  0  0  0  0  0  0  0  0
   -2.5460   19.6632  -31.5710 H   0  0  0  0  0  0  0  0  0  0  0  0
   -1.8892   18.3665  -32.6746 H   0  0  0  0  0  0  0  0  0  0  0  0
   -1.3852   21.3110  -32.6521 H   0  0  0  0  0  0  0  0  0  0  0  0
   -0.3122   19.9248  -33.0997 H   0  0  0  0  0  0  0  0  0  0  0  0
   -1.9660   21.5000  -34.6220 H   0  0  0  0  0  0  0  0  0  0  0  0
   -3.1248   21.5902  -31.8988 H   0  0  0  0  0  0  0  0  0  0  0  0
  1  2  1  0
  2  3  2  0
  2  4  1  0
  4  5  2  0
  5  6  1  0
  6  7  2  0
  7  8  1  0
  8  9  2  0
  9 10  1  0
 10 11  1  0
 11 12  1  0
 12 13  1  0
  9 14  1  0
 14 15  2  0
 15 16  1  0
 16 17  1  0
 17 18  2  0
 17 19  1  0
 16  4  1  0
 15  6  1  0
  1 20  1  0
  1 21  1  0
  5 22  1  0
  7 23  1  0
  8 24  1  0
 10 25  1  0
 10 26  1  0
 11 27  1  0
 11 28  1  0
 12 29  1  0
 12 30  1  0
 13 31  1  0
 14 32  1  0
M  CHG  1  19  -1
M  END
>  <UniqueID>  (73) 
72

>  <SMILES>  (73) 
NC(=O)c1cc2ccc(CCCO)cc2n1C(=O)[O-]

>  <Energy>  (73) 
68.29652744256121

>  <Genealogy>  (73) 
NC(=O)c1cc2ccc(CCCO)cc2n1C(=O)[O-] (protonated)
NC(=O)c1cc2ccc(CCCO)cc2n1C(=O)[O-] (3D coordinates assigned)
NC(=O)c1cc2ccc(CCCO)cc2n1C(=O)[O-] (optimized conformer: 68.29652744256121 kcal/mol)

>  <smiles>  (73) 
NC(=O)c1cc2ccc(CCCO)cc2n1C(=O)O

>  <score_type>  (73) 
oracle

>  <origin>  (73) 
adg

>  <m_score__min__energy>  (73) 
-8.3699999999999992

>  <m_primary>  (73) 
energy

$$$$
73:0
     RDKit          3D

 56 58  0  0  0  0  0  0  0  0999 V2000
   -6.6980   25.1820  -29.7060 C   0  0  0  0  0  0  0  0  0  0  0  0
   -5.5820   24.1470  -29.9020 C   0  0  2  0  0  0  0  0  0  0  0  0
   -4.3190   24.7890  -30.4190 C   0  0  0  0  0  0  0  0  0  0  0  0
   -4.2400   26.0420  -30.4990 O   0  0  0  0  0  0  0  0  0  0  0  0
   -3.2180   24.0110  -30.7670 O   0  0  0  0  0  0  0  0  0  0  0  0
   -6.0250   23.0250  -30.8180 C   0  0  0  0  0  0  0  0  0  0  0  0
   -7.4030   22.8030  -31.0800 C   0  0  0  0  0  0  0  0  0  0  0  0
   -7.8130   21.7610  -31.9250 C   0  0  0  0  0  0  0  0  0  0  0  0
   -6.8320   20.9550  -32.4930 C   0  0  0  0  0  0  0  0  0  0  0  0
   -6.9660   19.8830  -33.3400 C   0  0  0  0  0  0  0  0  0  0  0  0
   -5.6700   19.4600  -33.6020 C   0  0  0  0  0  0  0  0  0  0  0  0
   -5.3700   18.3260  -34.4920 C   0  0  0  0  0  0  0  0  0  0  0  0
   -4.6340   17.1960  -34.0160 N   0  0  0  0  0  0  0  0  0  0  0  0
   -5.7360   18.3690  -35.6970 O   0  0  0  0  0  0  0  0  0  0  0  0
   -4.7560   20.2190  -32.9290 N   0  0  0  0  0  0  0  0  0  0  0  0
   -3.3300   19.9930  -32.8580 C   0  0  0  0  0  0  0  0  0  0  0  0
   -2.8700   18.8200  -32.8400 O   0  0  0  0  0  0  0  0  0  0  0  0
   -2.4450   21.0800  -32.8530 O   0  0  0  0  0  0  0  0  0  0  0  0
   -1.0360   20.9530  -32.6830 C   0  0  0  0  0  0  0  0  0  0  0  0
   -0.6900   20.7510  -31.1990 C   0  0  0  0  0  0  0  0  0  0  0  0
   -1.7460   21.3560  -30.2620 C   0  0  0  0  0  0  0  0  0  0  0  0
   -1.5580   20.9210  -28.8030 C   0  0  0  0  0  0  0  0  0  0  0  0
   -1.5990   22.0540  -27.9380 O   0  0  0  0  0  0  0  0  0  0  0  0
   -2.7680   22.7720  -27.6700 C   0  0  0  0  0  0  0  0  0  0  0  0
   -3.8990   22.2910  -27.9600 O   0  0  0  0  0  0  0  0  0  0  0  0
   -2.6690   24.0560  -27.0500 N   0  0  0  0  0  0  0  0  0  0  0  0
   -1.4180   24.8060  -26.9480 C   0  0  1  0  0  0  0  0  0  0  0  0
   -0.3540   23.9810  -26.1910 C   0  0  0  0  0  0  0  0  0  0  0  0
    0.7120   23.7710  -27.2160 C   0  0  0  0  0  0  0  0  0  0  0  0
    1.7760   23.1330  -27.0050 O   0  0  0  0  0  0  0  0  0  0  0  0
    0.4230   24.3660  -28.4270 O   0  0  0  0  0  0  0  0  0  0  0  0
   -0.8030   24.9890  -28.3010 C   0  0  0  0  0  0  0  0  0  0  0  0
   -1.3270   25.6570  -29.2330 O   0  0  0  0  0  0  0  0  0  0  0  0
   -5.4920   21.1440  -32.2580 C   0  0  0  0  0  0  0  0  0  0  0  0
   -5.0580   22.1840  -31.4190 C   0  0  0  0  0  0  0  0  0  0  0  0
   -6.8675   25.3392  -28.6306 H   0  0  0  0  0  0  0  0  0  0  0  0
   -6.4025   26.1329  -30.1735 H   0  0  0  0  0  0  0  0  0  0  0  0
   -7.6239   24.8158  -30.1735 H   0  0  0  0  0  0  0  0  0  0  0  0
   -5.3625   23.7143  -28.9148 H   0  0  0  0  0  0  0  0  0  0  0  0
   -8.1571   23.4552  -30.6153 H   0  0  0  0  0  0  0  0  0  0  0  0
   -8.8791   21.5865  -32.1323 H   0  0  0  0  0  0  0  0  0  0  0  0
   -7.9004   19.4515  -33.7281 H   0  0  0  0  0  0  0  0  0  0  0  0
   -4.2630   17.1720  -33.0380 H   0  0  0  0  0  0  0  0  0  0  0  0
   -4.4530   16.3850  -34.6490 H   0  0  0  0  0  0  0  0  0  0  0  0
   -0.6782   20.0871  -33.2594 H   0  0  0  0  0  0  0  0  0  0  0  0
   -0.5497   21.8728  -33.0402 H   0  0  0  0  0  0  0  0  0  0  0  0
   -0.6161   19.6721  -30.9976 H   0  0  0  0  0  0  0  0  0  0  0  0
    0.2632   21.2645  -31.0048 H   0  0  0  0  0  0  0  0  0  0  0  0
   -1.6769   22.4526  -30.3145 H   0  0  0  0  0  0  0  0  0  0  0  0
   -2.7311   20.9955  -30.5930 H   0  0  0  0  0  0  0  0  0  0  0  0
   -2.3626   20.2240  -28.5259 H   0  0  0  0  0  0  0  0  0  0  0  0
   -0.5798   20.4285  -28.7004 H   0  0  0  0  0  0  0  0  0  0  0  0
   -1.6684   25.7553  -26.4520 H   0  0  0  0  0  0  0  0  0  0  0  0
    0.0352   24.5387  -25.3264 H   0  0  0  0  0  0  0  0  0  0  0  0
   -0.7499   23.0394  -25.7829 H   0  0  0  0  0  0  0  0  0  0  0  0
   -3.9855   22.3419  -31.2324 H   0  0  0  0  0  0  0  0  0  0  0  0
  1  2  1  0
  2  3  1  0
  3  4  2  0
  3  5  1  0
  2  6  1  0
  6  7  2  0
  7  8  1  0
  8  9  2  0
  9 10  1  0
 10 11  2  0
 11 12  1  0
 12 13  1  0
 12 14  2  0
 11 15  1  0
 15 16  1  0
 16 17  2  0
 16 18  1  0
 18 19  1  0
 19 20  1  0
 20 21  1  0
 21 22  1  0
 22 23  1  0
 23 24  1  0
 24 25  2  0
 24 26  1  0
 26 27  1  0
 27 28  1  0
 28 29  1  0
 29 30  2  0
 29 31  1  0
 31 32  1  0
 32 33  2  0
 15 34  1  0
 34 35  2  0
 35  6  1  0
 34  9  1  0
 32 27  1  0
  1 36  1  0
  1 37  1  0
  1 38  1  0
  2 39  1  1
  7 40  1  0
  8 41  1  0
 10 42  1  0
 13 43  1  0
 13 44  1  0
 19 45  1  0
 19 46  1  0
 20 47  1  0
 20 48  1  0
 21 49  1  0
 21 50  1  0
 22 51  1  0
 22 52  1  0
 27 53  1  1
 28 54  1  0
 28 55  1  0
 35 56  1  0
M  CHG  2   5  -1  26  -1
M  END
>  <UniqueID>  (74) 
73

>  <SMILES>  (74) 
C[C@H](C(=O)[O-])c1ccc2cc(C(N)=O)n(C(=O)OCCCCOC(=O)[N-][C@H]3CC(=O)OC3=O)c2c1

>  <Energy>  (74) 
99.63254888682266

>  <Genealogy>  (74) 
CC(C(=O)[O-])c1ccc2cc(C(N)=O)n(C(=O)OCCCCOC(=O)[N-]C3CC(=O)OC3=O)c2c1 (protonated)
C[C@H](C(=O)[O-])c1ccc2cc(C(N)=O)n(C(=O)OCCCCOC(=O)[N-][C@H]3CC(=O)OC3=O)c2c1 (chirality)
C[C@H](C(=O)[O-])c1ccc2cc(C(N)=O)n(C(=O)OCCCCOC(=O)[N-][C@H]3CC(=O)OC3=O)c2c1 (3D coordinates assigned)
C[C@H](C(=O)[O-])c1ccc2cc(C(N)=O)n(C(=O)OCCCCOC(=O)[N-][C@H]3CC(=O)OC3=O)c2c1 (nonaromatic ring conformer: 99.63254888682266 kcal/mol)

>  <smiles>  (74) 
CC(C(=O)O)c1ccc2cc(C(N)=O)n(C(=O)OCCCCOC(=O)NC3CC(=O)OC3=O)c2c1

>  <score_type>  (74) 
oracle

>  <origin>  (74) 
adg

>  <m_score__min__energy>  (74) 
-11.52

>  <m_primary>  (74) 
energy

$$$$
74:0
     RDKit          3D

 30 32  0  0  0  0  0  0  0  0999 V2000
   -1.5260   25.7210  -28.9700 N   0  0  0  0  0  0  0  0  0  0  0  0
   -1.0490   24.4140  -29.2750 C   0  0  0  0  0  0  0  0  0  0  0  0
    0.1330   24.1010  -28.9720 O   0  0  0  0  0  0  0  0  0  0  0  0
   -1.9360   23.4040  -29.8910 C   0  0  0  0  0  0  0  0  0  0  0  0
   -1.4940   22.1530  -30.3120 C   0  0  0  0  0  0  0  0  0  0  0  0
   -2.6230   21.4900  -30.7350 C   0  0  0  0  0  0  0  0  0  0  0  0
   -2.7630   20.2110  -31.2620 C   0  0  0  0  0  0  0  0  0  0  0  0
   -4.0480   19.7920  -31.6450 C   0  0  0  0  0  0  0  0  0  0  0  0
   -5.1670   20.6550  -31.5020 C   0  0  0  0  0  0  0  0  0  0  0  0
   -6.5180   20.2060  -31.9220 C   0  0  0  0  0  0  0  0  0  0  0  0
   -6.7390   18.8880  -32.3580 C   0  0  0  0  0  0  0  0  0  0  0  0
   -7.9820   18.4890  -32.7390 N   0  0  0  0  0  0  0  0  0  0  0  0
   -9.0440   19.3350  -32.7170 C   0  0  0  0  0  0  0  0  0  0  0  0
   -8.8760   20.6540  -32.2930 C   0  0  0  0  0  0  0  0  0  0  0  0
   -9.9310   21.5060  -32.2720 F   0  0  0  0  0  0  0  0  0  0  0  0
   -7.6110   21.0900  -31.8940 C   0  0  0  0  0  0  0  0  0  0  0  0
   -4.9800   21.9500  -30.9620 C   0  0  0  0  0  0  0  0  0  0  0  0
   -3.6910   22.3320  -30.5730 C   0  0  0  0  0  0  0  0  0  0  0  0
   -3.2860   23.5150  -30.0560 N   0  0  0  0  0  0  0  0  0  0  0  0
   -4.1110   24.6680  -29.8260 C   0  0  0  0  0  0  0  0  0  0  0  0
   -4.0260   25.6730  -30.5810 O   0  0  0  0  0  0  0  0  0  0  0  0
   -5.0280   24.6780  -28.7830 O   0  0  0  0  0  0  0  0  0  0  0  0
   -2.5480   25.9340  -28.9770 H   0  0  0  0  0  0  0  0  0  0  0  0
   -0.4611   21.7747  -30.3075 H   0  0  0  0  0  0  0  0  0  0  0  0
   -1.8934   19.5470  -31.3757 H   0  0  0  0  0  0  0  0  0  0  0  0
   -4.1893   18.7834  -32.0607 H   0  0  0  0  0  0  0  0  0  0  0  0
   -5.9017   18.1753  -32.3912 H   0  0  0  0  0  0  0  0  0  0  0  0
  -10.0363   18.9808  -33.0332 H   0  0  0  0  0  0  0  0  0  0  0  0
   -7.4692   22.1275  -31.5570 H   0  0  0  0  0  0  0  0  0  0  0  0
   -5.8288   22.6407  -30.8506 H   0  0  0  0  0  0  0  0  0  0  0  0
  1  2  1  0
  2  3  2  0
  2  4  1  0
  4  5  2  0
  5  6  1  0
  6  7  2  0
  7  8  1  0
  8  9  2  0
  9 10  1  0
 10 11  2  0
 11 12  1  0
 12 13  2  0
 13 14  1  0
 14 15  1  0
 14 16  2  0
  9 17  1  0
 17 18  2  0
 18 19  1  0
 19 20  1  0
 20 21  2  0
 20 22  1  0
 19  4  1  0
 18  6  1  0
 16 10  1  0
  1 23  1  0
  5 24  1  0
  7 25  1  0
  8 26  1  0
 11 27  1  0
 13 28  1  0
 16 29  1  0
 17 30  1  0
M  CHG  2   1  -1  22  -1
M  END
>  <UniqueID>  (75) 
74

>  <SMILES>  (75) 
[NH-]C(=O)c1cc2ccc(-c3cncc(F)c3)cc2n1C(=O)[O-]

>  <Energy>  (75) 
79.11402520928817

>  <Genealogy>  (75) 
[NH-]C(=O)c1cc2ccc(-c3cncc(F)c3)cc2n1C(=O)[O-] (protonated)
[NH-]C(=O)c1cc2ccc(-c3cncc(F)c3)cc2n1C(=O)[O-] (3D coordinates assigned)
[NH-]C(=O)c1cc2ccc(-c3cncc(F)c3)cc2n1C(=O)[O-] (optimized conformer: 79.11402520928817 kcal/mol)

>  <smiles>  (75) 
NC(=O)c1cc2ccc(-c3cncc(F)c3)cc2n1C(=O)O

>  <score_type>  (75) 
oracle

>  <origin>  (75) 
adg

>  <m_score__min__energy>  (75) 
-10.99

>  <m_primary>  (75) 
energy

$$$$
75:0
     RDKit          3D

 44 45  0  0  0  0  0  0  0  0999 V2000
   -3.0730   25.2660  -30.4910 H   0  0  0  0  0  0  0  0  0  0  0  0
   -3.9930   25.6160  -30.8380 N   0  0  0  0  0  0  0  0  0  0  0  0
   -5.2160   25.0770  -30.3410 C   0  0  0  0  0  0  0  0  0  0  0  0
   -5.7480   25.5930  -29.3220 O   0  0  0  0  0  0  0  0  0  0  0  0
   -5.8340   23.8900  -30.9670 C   0  0  0  0  0  0  0  0  0  0  0  0
   -7.2090   23.6650  -30.9900 C   0  0  0  0  0  0  0  0  0  0  0  0
   -8.0000   24.3350  -30.6221 H   0  0  0  0  0  0  0  0  0  0  0  0
   -7.3680   22.4280  -31.5700 C   0  0  0  0  0  0  0  0  0  0  0  0
   -8.5270   21.7170  -31.8590 C   0  0  0  0  0  0  0  0  0  0  0  0
   -9.5172   22.1180  -31.5967 H   0  0  0  0  0  0  0  0  0  0  0  0
   -8.3970   20.4710  -32.4960 C   0  0  0  0  0  0  0  0  0  0  0  0
   -9.2968   19.8880  -32.7418 H   0  0  0  0  0  0  0  0  0  0  0  0
   -7.1150   19.9580  -32.8250 C   0  0  0  0  0  0  0  0  0  0  0  0
   -6.9690   18.7020  -33.5110 N   0  0  0  0  0  0  0  0  0  0  0  0
   -7.0510   18.7020  -34.5520 H   0  0  0  0  0  0  0  0  0  0  0  0
   -6.6120   17.4650  -32.8740 C   0  0  0  0  0  0  0  0  0  0  0  0
   -6.1190   17.4670  -31.6710 N   0  0  0  0  0  0  0  0  0  0  0  0
   -5.7390   16.3080  -31.0340 O   0  0  0  0  0  0  0  0  0  0  0  0
   -5.7520   16.2600  -30.0240 H   0  0  0  0  0  0  0  0  0  0  0  0
   -6.7470   16.2410  -33.6030 N   0  0  0  0  0  0  0  0  0  0  0  0
   -7.1300   16.2480  -34.5750 H   0  0  0  0  0  0  0  0  0  0  0  0
   -6.4790   15.3210  -33.1870 H   0  0  0  0  0  0  0  0  0  0  0  0
   -5.9630   20.7210  -32.5360 C   0  0  0  0  0  0  0  0  0  0  0  0
   -4.9632   20.3589  -32.8175 H   0  0  0  0  0  0  0  0  0  0  0  0
   -6.1220   21.9490  -31.8830 C   0  0  0  0  0  0  0  0  0  0  0  0
   -5.1690   22.8370  -31.5230 N   0  0  0  0  0  0  0  0  0  0  0  0
   -3.7590   22.7110  -31.7650 C   0  0  0  0  0  0  0  0  0  0  0  0
   -3.3450   22.1900  -32.8360 O   0  0  0  0  0  0  0  0  0  0  0  0
   -2.8490   23.1450  -30.7960 O   0  0  0  0  0  0  0  0  0  0  0  0
   -2.7190   22.5160  -29.5250 C   0  0  0  0  0  0  0  0  0  0  0  0
   -2.1296   21.5932  -29.6305 H   0  0  0  0  0  0  0  0  0  0  0  0
   -3.7166   22.2693  -29.1328 H   0  0  0  0  0  0  0  0  0  0  0  0
   -2.0110   23.4660  -28.5600 C   0  0  0  0  0  0  0  0  0  0  0  0
   -1.8756   24.4418  -29.0493 H   0  0  0  0  0  0  0  0  0  0  0  0
   -1.0361   23.0331  -28.2915 H   0  0  0  0  0  0  0  0  0  0  0  0
   -2.8040   23.6490  -27.3250 N   0  0  0  0  0  0  0  0  0  0  0  0
   -2.6460   25.0140  -26.7920 C   0  0  0  0  0  0  0  0  0  0  0  0
   -2.6498   24.9810  -25.6925 H   0  0  0  0  0  0  0  0  0  0  0  0
   -1.6929   25.4366  -27.1429 H   0  0  0  0  0  0  0  0  0  0  0  0
   -3.4773   25.6431  -27.1429 H   0  0  0  0  0  0  0  0  0  0  0  0
   -4.2280   23.3940  -27.5950 C   0  0  0  0  0  0  0  0  0  0  0  0
   -4.7701   23.2969  -26.6428 H   0  0  0  0  0  0  0  0  0  0  0  0
   -4.6475   24.2313  -28.1720 H   0  0  0  0  0  0  0  0  0  0  0  0
   -4.3308   22.4632  -28.1720 H   0  0  0  0  0  0  0  0  0  0  0  0
  1  2  1  0
  2  3  1  0
  3  4  2  0
  3  5  1  0
  5  6  2  0
  6  7  1  0
  6  8  1  0
  8  9  2  0
  9 10  1  0
  9 11  1  0
 11 12  1  0
 11 13  2  0
 13 14  1  0
 14 15  1  0
 14 16  1  0
 16 17  2  0
 17 18  1  0
 18 19  1  0
 16 20  1  0
 20 21  1  0
 20 22  1  0
 13 23  1  0
 23 24  1  0
 23 25  2  0
 25 26  1  0
 26 27  1  0
 27 28  2  0
 27 29  1  0
 29 30  1  0
 30 31  1  0
 30 32  1  0
 30 33  1  0
 33 34  1  0
 33 35  1  0
 33 36  1  0
 36 37  1  0
 37 38  1  0
 37 39  1  0
 37 40  1  0
 36 41  1  0
 41 42  1  0
 41 43  1  0
 41 44  1  0
 26  5  1  0
 25  8  1  0
M  CHG  1   2  -1
M  END
>  <UniqueID>  (76) 
75

>  <SMILES>  (76) 
CN(C)CCOC(=O)n1c(C([NH-])=O)cc2ccc(N/C(N)=N/O)cc21

>  <Energy>  (76) 
81.50724416201562

>  <Genealogy>  (76) 
CN(C)CCOC(=O)n1c(C([NH-])=O)cc2ccc(N/C(N)=N/O)cc21 (protonated)
CN(C)CCOC(=O)n1c(C([NH-])=O)cc2ccc(N/C(N)=N/O)cc21 (cis-trans isomerization)
CN(C)CCOC(=O)n1c(C([NH-])=O)cc2ccc(N/C(N)=N/O)cc21 (3D coordinates assigned)
CN(C)CCOC(=O)n1c(C([NH-])=O)cc2ccc(N/C(N)=N/O)cc21 (optimized conformer: 81.50724416201562 kcal/mol)

>  <smiles>  (76) 
CN(C)CCOC(=O)n1c(C(N)=O)cc2ccc(N/C(N)=N/O)cc21

>  <score_type>  (76) 
oracle

>  <origin>  (76) 
adg

>  <m_score__min__energy>  (76) 
-10.31

>  <m_primary>  (76) 
energy

$$$$
76:0
     RDKit          3D

 40 41  0  0  0  0  0  0  0  0999 V2000
   -6.6680   24.9010  -30.0070 C   0  0  0  0  0  0  0  0  0  0  0  0
   -5.4250   24.2390  -29.6460 N   0  0  0  0  0  0  0  0  0  0  0  0
   -4.1970   24.4630  -30.3460 C   0  0  0  0  0  0  0  0  0  0  0  0
   -3.9510   25.5950  -30.8440 O   0  0  0  0  0  0  0  0  0  0  0  0
   -3.2510   23.3940  -30.4940 N   0  0  0  0  0  0  0  0  0  0  0  0
   -1.9460   23.3720  -30.0990 C   0  0  0  0  0  0  0  0  0  0  0  0
   -1.2630   24.4050  -29.2930 C   0  0  0  0  0  0  0  0  0  0  0  0
   -1.9160   25.6280  -28.9590 N   0  0  0  0  0  0  0  0  0  0  0  0
   -0.1010   24.1880  -28.8560 O   0  0  0  0  0  0  0  0  0  0  0  0
   -1.3370   22.1800  -30.4920 C   0  0  0  0  0  0  0  0  0  0  0  0
   -2.3180   21.4650  -31.1380 C   0  0  0  0  0  0  0  0  0  0  0  0
   -2.2650   20.2080  -31.7340 C   0  0  0  0  0  0  0  0  0  0  0  0
   -3.4310   19.7220  -32.3490 C   0  0  0  0  0  0  0  0  0  0  0  0
   -4.6150   20.5000  -32.3710 C   0  0  0  0  0  0  0  0  0  0  0  0
   -5.8650   19.9490  -33.0080 C   0  0  0  0  0  0  0  0  0  0  0  0
   -6.6940   19.1240  -32.0120 C   0  0  0  0  0  0  0  0  0  0  0  0
   -8.1770   19.0690  -32.3960 C   0  0  0  0  0  0  0  0  0  0  0  0
   -8.6580   20.4020  -32.7420 N   0  0  0  0  0  0  0  0  0  0  0  0
   -8.5710   21.5500  -31.8860 C   0  0  0  0  0  0  0  0  0  0  0  0
   -9.1410   21.5460  -30.5000 C   0  0  0  0  0  0  0  0  0  0  0  0
   -7.9700   22.5750  -32.3020 O   0  0  0  0  0  0  0  0  0  0  0  0
   -4.6310   21.7710  -31.7550 C   0  0  0  0  0  0  0  0  0  0  0  0
   -3.4630   22.2200  -31.1290 C   0  0  0  0  0  0  0  0  0  0  0  0
   -7.2088   25.1890  -29.0934 H   0  0  0  0  0  0  0  0  0  0  0  0
   -6.4457   25.8002  -30.6004 H   0  0  0  0  0  0  0  0  0  0  0  0
   -7.2900   24.2147  -30.6004 H   0  0  0  0  0  0  0  0  0  0  0  0
   -2.9420   25.7460  -29.1070 H   0  0  0  0  0  0  0  0  0  0  0  0
   -0.2936   21.8765  -30.3213 H   0  0  0  0  0  0  0  0  0  0  0  0
   -1.3393   19.6139  -31.7237 H   0  0  0  0  0  0  0  0  0  0  0  0
   -3.4246   18.7272  -32.8183 H   0  0  0  0  0  0  0  0  0  0  0  0
   -6.4774   20.7863  -33.3740 H   0  0  0  0  0  0  0  0  0  0  0  0
   -5.5658   19.2884  -33.8351 H   0  0  0  0  0  0  0  0  0  0  0  0
   -6.2971   18.0985  -31.9853 H   0  0  0  0  0  0  0  0  0  0  0  0
   -6.6186   19.6093  -31.0277 H   0  0  0  0  0  0  0  0  0  0  0  0
   -8.3038   18.4012  -33.2609 H   0  0  0  0  0  0  0  0  0  0  0  0
   -8.7553   18.6898  -31.5405 H   0  0  0  0  0  0  0  0  0  0  0  0
   -8.3213   21.5518  -29.7664 H   0  0  0  0  0  0  0  0  0  0  0  0
   -9.7663   22.4398  -30.3581 H   0  0  0  0  0  0  0  0  0  0  0  0
   -9.7537   20.6435  -30.3581 H   0  0  0  0  0  0  0  0  0  0  0  0
   -5.5388   22.3921  -31.7671 H   0  0  0  0  0  0  0  0  0  0  0  0
  1  2  1  0
  2  3  1  0
  3  4  2  0
  3  5  1  0
  5  6  1  0
  6  7  1  0
  7  8  1  0
  7  9  2  0
  6 10  2  0
 10 11  1  0
 11 12  2  0
 12 13  1  0
 13 14  2  0
 14 15  1  0
 15 16  1  0
 16 17  1  0
 17 18  1  0
 18 19  1  0
 19 20  1  0
 19 21  2  0
 14 22  1  0
 22 23  2  0
 23  5  1  0
 23 11  1  0
  1 24  1  0
  1 25  1  0
  1 26  1  0
  8 27  1  0
 10 28  1  0
 12 29  1  0
 13 30  1  0
 15 31  1  0
 15 32  1  0
 16 33  1  0
 16 34  1  0
 17 35  1  0
 17 36  1  0
 20 37  1  0
 20 38  1  0
 20 39  1  0
 22 40  1  0
M  CHG  3   2  -1   8  -1  18  -1
M  END
>  <UniqueID>  (77) 
76

>  <SMILES>  (77) 
C[N-]C(=O)n1c(C([NH-])=O)cc2ccc(CCC[N-]C(C)=O)cc21

>  <Energy>  (77) 
69.38326116280282

>  <Genealogy>  (77) 
C[N-]C(=O)n1c(C([NH-])=O)cc2ccc(CCC[N-]C(C)=O)cc21 (protonated)
C[N-]C(=O)n1c(C([NH-])=O)cc2ccc(CCC[N-]C(C)=O)cc21 (3D coordinates assigned)
C[N-]C(=O)n1c(C([NH-])=O)cc2ccc(CCC[N-]C(C)=O)cc21 (optimized conformer: 69.38326116280282 kcal/mol)

>  <smiles>  (77) 
CNC(=O)n1c(C(N)=O)cc2ccc(CCCNC(C)=O)cc21

>  <score_type>  (77) 
oracle

>  <origin>  (77) 
adg

>  <m_score__min__energy>  (77) 
-10.44

>  <m_primary>  (77) 
energy

$$$$
77:0
     RDKit          3D

 39 41  0  0  0  0  0  0  0  0999 V2000
   -4.9770   15.9120  -32.3420 C   0  0  0  0  0  0  0  0  0  0  0  0
   -5.3400   15.6950  -33.7450 N   0  0  0  0  0  0  0  0  0  0  0  0
   -6.4580   16.5750  -34.1360 C   0  0  0  0  0  0  0  0  0  0  0  0
   -6.0270   17.9850  -34.4110 C   0  0  0  0  0  0  0  0  0  0  0  0
   -6.7430   18.5930  -33.2730 N   0  0  0  0  0  0  0  0  0  0  0  0
   -6.9090   19.8920  -32.7010 C   0  0  0  0  0  0  0  0  0  0  0  0
   -8.2080   20.4030  -32.4660 C   0  0  0  0  0  0  0  0  0  0  0  0
   -8.3830   21.6780  -31.9030 C   0  0  0  0  0  0  0  0  0  0  0  0
   -7.2440   22.4160  -31.5940 C   0  0  0  0  0  0  0  0  0  0  0  0
   -7.1190   23.6640  -31.0250 C   0  0  0  0  0  0  0  0  0  0  0  0
   -5.7470   23.8980  -30.9400 C   0  0  0  0  0  0  0  0  0  0  0  0
   -5.1630   25.1610  -30.4380 C   0  0  0  0  0  0  0  0  0  0  0  0
   -3.8670   25.5890  -30.8500 N   0  0  0  0  0  0  0  0  0  0  0  0
   -5.8300   25.8880  -29.6530 O   0  0  0  0  0  0  0  0  0  0  0  0
   -5.0520   22.8350  -31.4360 N   0  0  0  0  0  0  0  0  0  0  0  0
   -3.6280   22.6640  -31.4960 C   0  0  0  0  0  0  0  0  0  0  0  0
   -2.9980   21.9050  -32.6200 C   0  0  0  0  0  0  0  0  0  0  0  0
   -2.8980   23.1430  -30.5880 O   0  0  0  0  0  0  0  0  0  0  0  0
   -5.9810   21.9380  -31.8310 C   0  0  0  0  0  0  0  0  0  0  0  0
   -5.7770   20.6660  -32.3750 C   0  0  0  0  0  0  0  0  0  0  0  0
   -7.1720   17.2140  -32.9790 C   0  0  0  0  0  0  0  0  0  0  0  0
   -5.7385   15.4568  -31.6916 H   0  0  0  0  0  0  0  0  0  0  0  0
   -3.9992   15.4501  -32.1406 H   0  0  0  0  0  0  0  0  0  0  0  0
   -4.9209   16.9919  -32.1406 H   0  0  0  0  0  0  0  0  0  0  0  0
   -4.4970   15.8540  -34.3470 H   0  0  0  0  0  0  0  0  0  0  0  0
   -5.6440   14.7000  -33.8560 H   0  0  0  0  0  0  0  0  0  0  0  0
   -6.9472   15.9147  -34.8673 H   0  0  0  0  0  0  0  0  0  0  0  0
   -4.9368   18.1161  -34.3455 H   0  0  0  0  0  0  0  0  0  0  0  0
   -6.2425   18.3884  -35.4114 H   0  0  0  0  0  0  0  0  0  0  0  0
   -9.0879   19.7965  -32.7265 H   0  0  0  0  0  0  0  0  0  0  0  0
   -9.3887   22.0806  -31.7123 H   0  0  0  0  0  0  0  0  0  0  0  0
   -7.9302   24.3346  -30.7051 H   0  0  0  0  0  0  0  0  0  0  0  0
   -3.0120   25.2860  -30.3320 H   0  0  0  0  0  0  0  0  0  0  0  0
   -2.3457   21.1191  -32.2115 H   0  0  0  0  0  0  0  0  0  0  0  0
   -3.7835   21.4452  -33.2376 H   0  0  0  0  0  0  0  0  0  0  0  0
   -2.4014   22.5924  -33.2376 H   0  0  0  0  0  0  0  0  0  0  0  0
   -4.7609   20.2800  -32.5439 H   0  0  0  0  0  0  0  0  0  0  0  0
   -6.8084   16.8548  -32.0049 H   0  0  0  0  0  0  0  0  0  0  0  0
   -8.2538   17.0328  -32.8960 H   0  0  0  0  0  0  0  0  0  0  0  0
  1  2  1  0
  2  3  1  0
  3  4  1  0
  4  5  1  0
  5  6  1  0
  6  7  2  0
  7  8  1  0
  8  9  2  0
  9 10  1  0
 10 11  2  0
 11 12  1  0
 12 13  1  0
 12 14  2  0
 11 15  1  0
 15 16  1  0
 16 17  1  0
 16 18  2  0
 15 19  1  0
 19 20  2  0
  5 21  1  0
 21  3  1  0
 20  6  1  0
 19  9  1  0
  1 22  1  0
  1 23  1  0
  1 24  1  0
  2 25  1  0
  2 26  1  0
  3 27  1  0
  4 28  1  0
  4 29  1  0
  7 30  1  0
  8 31  1  0
 10 32  1  0
 13 33  1  0
 17 34  1  0
 17 35  1  0
 17 36  1  0
 20 37  1  0
 21 38  1  0
 21 39  1  0
M  CHG  2   2   1  13  -1
M  END
>  <UniqueID>  (78) 
77

>  <SMILES>  (78) 
C[NH2+]C1CN(c2ccc3cc(C([NH-])=O)n(C(C)=O)c3c2)C1

>  <Energy>  (78) 
122.49587164170791

>  <Genealogy>  (78) 
C[NH2+]C1CN(c2ccc3cc(C([NH-])=O)n(C(C)=O)c3c2)C1 (protonated)
C[NH2+]C1CN(c2ccc3cc(C([NH-])=O)n(C(C)=O)c3c2)C1 (3D coordinates assigned)
C[NH2+]C1CN(c2ccc3cc(C([NH-])=O)n(C(C)=O)c3c2)C1 (nonaromatic ring conformer: 122.49587164170791 kcal/mol)

>  <smiles>  (78) 
CNC1CN(c2ccc3cc(C(N)=O)n(C(C)=O)c3c2)C1

>  <score_type>  (78) 
oracle

>  <origin>  (78) 
adg

>  <m_score__min__energy>  (78) 
-9.5800000000000001

>  <m_primary>  (78) 
energy

$$$$
78:0
     RDKit          3D

 48 50  0  0  0  0  0  0  0  0999 V2000
   -2.7610   18.9550  -34.1580 C   0  0  0  0  0  0  0  0  0  0  0  0
   -3.9180   18.2460  -33.5860 N   0  0  0  0  0  0  0  0  0  0  0  0
   -5.0210   18.1600  -34.5780 C   0  0  0  0  0  0  0  0  0  0  0  0
   -5.9040   16.9060  -34.3990 C   0  0  0  0  0  0  0  0  0  0  0  0
   -6.0090   16.4920  -32.9870 N   0  0  0  0  0  0  0  0  0  0  0  0
   -6.8310   17.4250  -32.1840 C   0  0  0  0  0  0  0  0  0  0  0  0
   -7.8610   18.1240  -33.0810 C   0  0  0  0  0  0  0  0  0  0  0  0
   -8.8590   18.9700  -32.2770 C   0  0  0  0  0  0  0  0  0  0  0  0
   -8.2050   20.1880  -31.6740 C   0  0  0  0  0  0  0  0  0  0  0  0
   -8.9830   21.1410  -30.9700 C   0  0  0  0  0  0  0  0  0  0  0  0
   -8.3880   22.2910  -30.4280 C   0  0  0  0  0  0  0  0  0  0  0  0
   -7.0200   22.4670  -30.6160 C   0  0  0  0  0  0  0  0  0  0  0  0
   -6.1900   23.4760  -30.1840 C   0  0  0  0  0  0  0  0  0  0  0  0
   -4.9230   23.1400  -30.6550 C   0  0  0  0  0  0  0  0  0  0  0  0
   -3.7390   24.0090  -30.4880 C   0  0  0  0  0  0  0  0  0  0  0  0
   -3.8710   25.4280  -30.4470 N   0  0  0  0  0  0  0  0  0  0  0  0
   -2.6020   23.4900  -30.3290 O   0  0  0  0  0  0  0  0  0  0  0  0
   -4.9640   21.9640  -31.3440 N   0  0  0  0  0  0  0  0  0  0  0  0
   -3.8590   21.2360  -31.9040 C   0  0  0  0  0  0  0  0  0  0  0  0
   -3.0840   21.7900  -32.7260 O   0  0  0  0  0  0  0  0  0  0  0  0
   -3.6530   19.9050  -31.5640 O   0  0  0  0  0  0  0  0  0  0  0  0
   -6.2560   21.5670  -31.3130 C   0  0  0  0  0  0  0  0  0  0  0  0
   -6.8200   20.4010  -31.8470 C   0  0  0  0  0  0  0  0  0  0  0  0
   -4.6820   16.2120  -32.3780 C   0  0  0  0  0  0  0  0  0  0  0  0
   -3.5120   16.9130  -33.1000 C   0  0  0  0  0  0  0  0  0  0  0  0
   -2.1294   19.3420  -33.3448 H   0  0  0  0  0  0  0  0  0  0  0  0
   -2.1754   18.2605  -34.7783 H   0  0  0  0  0  0  0  0  0  0  0  0
   -3.1139   19.7921  -34.7783 H   0  0  0  0  0  0  0  0  0  0  0  0
   -4.2420   18.8100  -32.7650 H   0  0  0  0  0  0  0  0  0  0  0  0
   -5.6557   19.0523  -34.4733 H   0  0  0  0  0  0  0  0  0  0  0  0
   -4.5599   18.0954  -35.5746 H   0  0  0  0  0  0  0  0  0  0  0  0
   -6.9125   17.1264  -34.7789 H   0  0  0  0  0  0  0  0  0  0  0  0
   -5.4355   16.0821  -34.9573 H   0  0  0  0  0  0  0  0  0  0  0  0
   -7.3554   16.8632  -31.3970 H   0  0  0  0  0  0  0  0  0  0  0  0
   -6.1760   18.1826  -31.7290 H   0  0  0  0  0  0  0  0  0  0  0  0
   -7.3286   18.7801  -33.7853 H   0  0  0  0  0  0  0  0  0  0  0  0
   -8.4305   17.3445  -33.6083 H   0  0  0  0  0  0  0  0  0  0  0  0
   -9.6692   19.2957  -32.9459 H   0  0  0  0  0  0  0  0  0  0  0  0
   -9.2482   18.3500  -31.4560 H   0  0  0  0  0  0  0  0  0  0  0  0
  -10.0639   20.9777  -30.8472 H   0  0  0  0  0  0  0  0  0  0  0  0
   -8.9840   23.0299  -29.8722 H   0  0  0  0  0  0  0  0  0  0  0  0
   -6.4682   24.3605  -29.5921 H   0  0  0  0  0  0  0  0  0  0  0  0
   -3.4880   26.0250  -31.2130 H   0  0  0  0  0  0  0  0  0  0  0  0
   -6.1999   19.6704  -32.3871 H   0  0  0  0  0  0  0  0  0  0  0  0
   -4.7001   16.5530  -31.3323 H   0  0  0  0  0  0  0  0  0  0  0  0
   -4.5104   15.1286  -32.4611 H   0  0  0  0  0  0  0  0  0  0  0  0
   -2.6715   17.0254  -32.3993 H   0  0  0  0  0  0  0  0  0  0  0  0
   -3.2125   16.2998  -33.9627 H   0  0  0  0  0  0  0  0  0  0  0  0
  1  2  1  0
  2  3  1  0
  3  4  1  0
  4  5  1  0
  5  6  1  0
  6  7  1  0
  7  8  1  0
  8  9  1  0
  9 10  2  0
 10 11  1  0
 11 12  2  0
 12 13  1  0
 13 14  2  0
 14 15  1  0
 15 16  1  0
 15 17  2  0
 14 18  1  0
 18 19  1  0
 19 20  2  0
 19 21  1  0
 18 22  1  0
 22 23  2  0
  5 24  1  0
 24 25  1  0
 25  2  1  0
 23  9  1  0
 22 12  1  0
  1 26  1  0
  1 27  1  0
  1 28  1  0
  2 29  1  0
  3 30  1  0
  3 31  1  0
  4 32  1  0
  4 33  1  0
  6 34  1  0
  6 35  1  0
  7 36  1  0
  7 37  1  0
  8 38  1  0
  8 39  1  0
 10 40  1  0
 11 41  1  0
 13 42  1  0
 16 43  1  0
 23 44  1  0
 24 45  1  0
 24 46  1  0
 25 47  1  0
 25 48  1  0
M  CHG  3   2   1  16  -1  21  -1
M  END
>  <UniqueID>  (79) 
78

>  <SMILES>  (79) 
C[NH+]1CCN(CCCc2ccc3cc(C([NH-])=O)n(C(=O)[O-])c3c2)CC1

>  <Energy>  (79) 
96.66205635873919

>  <Genealogy>  (79) 
C[NH+]1CCN(CCCc2ccc3cc(C([NH-])=O)n(C(=O)[O-])c3c2)CC1 (protonated)
C[NH+]1CCN(CCCc2ccc3cc(C([NH-])=O)n(C(=O)[O-])c3c2)CC1 (3D coordinates assigned)
C[NH+]1CCN(CCCc2ccc3cc(C([NH-])=O)n(C(=O)[O-])c3c2)CC1 (nonaromatic ring conformer: 96.66205635873919 kcal/mol)

>  <smiles>  (79) 
CN1CCN(CCCc2ccc3cc(C(N)=O)n(C(=O)O)c3c2)CC1

>  <score_type>  (79) 
oracle

>  <origin>  (79) 
adg

>  <m_score__min__energy>  (79) 
-11.66

>  <m_primary>  (79) 
energy

$$$$
79:0
     RDKit          3D

 37 39  0  0  0  0  0  0  0  0999 V2000
   -6.0570   15.0400  -33.9230 C   0  0  0  0  0  0  0  0  0  0  0  0
   -6.8560   16.5430  -34.5710 S   0  0  0  0  0  0  0  0  0  0  0  0
   -5.7340   17.6590  -33.7070 C   0  0  0  0  0  0  0  0  0  0  0  0
   -4.3620   17.4340  -33.8710 C   0  0  0  0  0  0  0  0  0  0  0  0
   -3.4250   18.2290  -33.2130 C   0  0  0  0  0  0  0  0  0  0  0  0
   -3.8430   19.2640  -32.3660 C   0  0  0  0  0  0  0  0  0  0  0  0
   -2.8440   20.1120  -31.6660 C   0  0  0  0  0  0  0  0  0  0  0  0
   -1.5060   19.6650  -31.5090 C   0  0  0  0  0  0  0  0  0  0  0  0
   -0.5520   20.4640  -30.8600 C   0  0  0  0  0  0  0  0  0  0  0  0
   -0.9600   21.7000  -30.3700 C   0  0  0  0  0  0  0  0  0  0  0  0
   -0.2370   22.6780  -29.7260 C   0  0  0  0  0  0  0  0  0  0  0  0
   -1.1450   23.7040  -29.4750 C   0  0  0  0  0  0  0  0  0  0  0  0
   -0.8020   24.9260  -28.7170 C   0  0  0  0  0  0  0  0  0  0  0  0
   -1.5980   26.0990  -28.8680 N   0  0  0  0  0  0  0  0  0  0  0  0
    0.2070   24.9580  -27.9670 O   0  0  0  0  0  0  0  0  0  0  0  0
   -2.3810   23.3760  -29.9520 N   0  0  0  0  0  0  0  0  0  0  0  0
   -3.5720   24.1810  -29.9480 C   0  0  0  0  0  0  0  0  0  0  0  0
   -3.6040   25.2740  -30.5720 O   0  0  0  0  0  0  0  0  0  0  0  0
   -4.7070   23.7490  -29.2730 O   0  0  0  0  0  0  0  0  0  0  0  0
   -2.2500   22.1450  -30.4930 C   0  0  0  0  0  0  0  0  0  0  0  0
   -3.2180   21.3780  -31.1530 C   0  0  0  0  0  0  0  0  0  0  0  0
   -5.2180   19.4880  -32.1900 C   0  0  0  0  0  0  0  0  0  0  0  0
   -6.1810   18.7000  -32.8510 C   0  0  0  0  0  0  0  0  0  0  0  0
   -7.6220   18.9880  -32.6080 C   0  0  0  0  0  0  0  0  0  0  0  0
   -8.1360   20.0500  -33.0520 O   0  0  0  0  0  0  0  0  0  0  0  0
   -8.4370   18.0990  -31.9210 O   0  0  0  0  0  0  0  0  0  0  0  0
   -6.0693   15.0632  -32.8233 H   0  0  0  0  0  0  0  0  0  0  0  0
   -6.6026   14.1529  -34.2772 H   0  0  0  0  0  0  0  0  0  0  0  0
   -5.0165   14.9961  -34.2772 H   0  0  0  0  0  0  0  0  0  0  0  0
   -4.0193   16.6202  -34.5269 H   0  0  0  0  0  0  0  0  0  0  0  0
   -2.3508   18.0427  -33.3596 H   0  0  0  0  0  0  0  0  0  0  0  0
   -1.2131   18.6798  -31.9010 H   0  0  0  0  0  0  0  0  0  0  0  0
    0.4872   20.1229  -30.7424 H   0  0  0  0  0  0  0  0  0  0  0  0
    0.8313   22.6544  -29.4649 H   0  0  0  0  0  0  0  0  0  0  0  0
   -2.6370   26.0350  -28.9610 H   0  0  0  0  0  0  0  0  0  0  0  0
   -4.2463   21.7506  -31.2704 H   0  0  0  0  0  0  0  0  0  0  0  0
   -5.5504   20.2960  -31.5217 H   0  0  0  0  0  0  0  0  0  0  0  0
  1  2  1  0
  2  3  1  0
  3  4  2  0
  4  5  1  0
  5  6  2  0
  6  7  1  0
  7  8  2  0
  8  9  1  0
  9 10  2  0
 10 11  1  0
 11 12  2  0
 12 13  1  0
 13 14  1  0
 13 15  2  0
 12 16  1  0
 16 17  1  0
 17 18  2  0
 17 19  1  0
 16 20  1  0
 20 21  2  0
  6 22  1  0
 22 23  2  0
 23 24  1  0
 24 25  2  0
 24 26  1  0
 23  3  1  0
 21  7  1  0
 20 10  1  0
  1 27  1  0
  1 28  1  0
  1 29  1  0
  4 30  1  0
  5 31  1  0
  8 32  1  0
  9 33  1  0
 11 34  1  0
 14 35  1  0
 21 36  1  0
 22 37  1  0
M  CHG  3  14  -1  19  -1  26  -1
M  END
>  <UniqueID>  (80) 
79

>  <SMILES>  (80) 
CSc1ccc(-c2ccc3cc(C([NH-])=O)n(C(=O)[O-])c3c2)cc1C(=O)[O-]

>  <Energy>  (80) 
85.42873918428018

>  <Genealogy>  (80) 
CSc1ccc(-c2ccc3cc(C([NH-])=O)n(C(=O)[O-])c3c2)cc1C(=O)[O-] (protonated)
CSc1ccc(-c2ccc3cc(C([NH-])=O)n(C(=O)[O-])c3c2)cc1C(=O)[O-] (3D coordinates assigned)
CSc1ccc(-c2ccc3cc(C([NH-])=O)n(C(=O)[O-])c3c2)cc1C(=O)[O-] (optimized conformer: 85.42873918428018 kcal/mol)

>  <smiles>  (80) 
CSc1ccc(-c2ccc3cc(C(N)=O)n(C(=O)O)c3c2)cc1C(=O)O

>  <score_type>  (80) 
oracle

>  <origin>  (80) 
adg

>  <m_score__min__energy>  (80) 
-11.06

>  <m_primary>  (80) 
energy

$$$$
80:0
     RDKit          3D

 48 50  0  0  0  0  0  0  0  0999 V2000
   -3.4630   21.6180  -33.3950 C   0  0  0  0  0  0  0  0  0  0  0  0
   -2.6330   20.9810  -32.2640 C   0  0  0  0  0  0  0  0  0  0  0  0
   -1.1970   21.5380  -32.2630 C   0  0  0  0  0  0  0  0  0  0  0  0
   -2.5750   19.4620  -32.4840 C   0  0  0  0  0  0  0  0  0  0  0  0
   -3.2580   21.2010  -30.9920 O   0  0  0  0  0  0  0  0  0  0  0  0
   -3.8290   22.4010  -30.5410 C   0  0  0  0  0  0  0  0  0  0  0  0
   -3.1830   23.1850  -29.7940 O   0  0  0  0  0  0  0  0  0  0  0  0
   -5.1800   22.7170  -30.9070 N   0  0  0  0  0  0  0  0  0  0  0  0
   -5.8240   23.9130  -30.7870 C   0  0  0  0  0  0  0  0  0  0  0  0
   -5.2020   25.2010  -30.4180 C   0  0  0  0  0  0  0  0  0  0  0  0
   -3.8790   25.5240  -30.8380 N   0  0  0  0  0  0  0  0  0  0  0  0
   -5.8650   26.0490  -29.7610 O   0  0  0  0  0  0  0  0  0  0  0  0
   -7.1650   23.7820  -31.1430 C   0  0  0  0  0  0  0  0  0  0  0  0
   -7.3230   22.4600  -31.4930 C   0  0  0  0  0  0  0  0  0  0  0  0
   -8.4570   21.7740  -31.9130 C   0  0  0  0  0  0  0  0  0  0  0  0
   -8.3370   20.3980  -32.1720 C   0  0  0  0  0  0  0  0  0  0  0  0
   -7.0970   19.7330  -31.9960 C   0  0  0  0  0  0  0  0  0  0  0  0
   -6.9920   18.2430  -32.2370 C   0  0  0  0  0  0  0  0  0  0  0  0
   -6.7700   17.8370  -33.7190 C   0  0  2  0  0  0  0  0  0  0  0  0
   -5.8630   16.6450  -33.8970 C   0  0  0  0  0  0  0  0  0  0  0  0
   -4.5160   17.2650  -34.2420 C   0  0  0  0  0  0  0  0  0  0  0  0
   -4.6790   18.6390  -34.5210 O   0  0  0  0  0  0  0  0  0  0  0  0
   -6.0620   18.9010  -34.5420 C   0  0  0  0  0  0  0  0  0  0  0  0
   -5.9640   20.4690  -31.5830 C   0  0  0  0  0  0  0  0  0  0  0  0
   -6.1090   21.8400  -31.3440 C   0  0  0  0  0  0  0  0  0  0  0  0
   -4.2645   22.2331  -32.9599 H   0  0  0  0  0  0  0  0  0  0  0  0
   -2.8117   22.2503  -34.0163 H   0  0  0  0  0  0  0  0  0  0  0  0
   -3.9054   20.8253  -34.0163 H   0  0  0  0  0  0  0  0  0  0  0  0
   -0.8558   21.6704  -31.2257 H   0  0  0  0  0  0  0  0  0  0  0  0
   -0.5300   20.8334  -32.7813 H   0  0  0  0  0  0  0  0  0  0  0  0
   -1.1796   22.5081  -32.7813 H   0  0  0  0  0  0  0  0  0  0  0  0
   -2.5555   18.9509  -31.5101 H   0  0  0  0  0  0  0  0  0  0  0  0
   -3.4615   19.1393  -33.0497 H   0  0  0  0  0  0  0  0  0  0  0  0
   -1.6665   19.2079  -33.0497 H   0  0  0  0  0  0  0  0  0  0  0  0
   -3.0550   25.2950  -30.2400 H   0  0  0  0  0  0  0  0  0  0  0  0
   -7.9342   24.5683  -31.1441 H   0  0  0  0  0  0  0  0  0  0  0  0
   -9.4189   22.2926  -32.0387 H   0  0  0  0  0  0  0  0  0  0  0  0
   -9.2147   19.8305  -32.5151 H   0  0  0  0  0  0  0  0  0  0  0  0
   -6.1465   17.8597  -31.6469 H   0  0  0  0  0  0  0  0  0  0  0  0
   -7.9596   17.8124  -31.9397 H   0  0  0  0  0  0  0  0  0  0  0  0
   -7.8019   17.6458  -34.0486 H   0  0  0  0  0  0  0  0  0  0  0  0
   -5.7987   16.0588  -32.9684 H   0  0  0  0  0  0  0  0  0  0  0  0
   -6.2216   15.9478  -34.6686 H   0  0  0  0  0  0  0  0  0  0  0  0
   -3.8297   17.1442  -33.3908 H   0  0  0  0  0  0  0  0  0  0  0  0
   -4.1008   16.7615  -35.1275 H   0  0  0  0  0  0  0  0  0  0  0  0
   -6.2576   19.8939  -34.1109 H   0  0  0  0  0  0  0  0  0  0  0  0
   -6.4321   18.8829  -35.5777 H   0  0  0  0  0  0  0  0  0  0  0  0
   -4.9897   19.9753  -31.4523 H   0  0  0  0  0  0  0  0  0  0  0  0
  1  2  1  0
  2  3  1  0
  2  4  1  0
  2  5  1  0
  5  6  1  0
  6  7  2  0
  6  8  1  0
  8  9  1  0
  9 10  1  0
 10 11  1  0
 10 12  2  0
  9 13  2  0
 13 14  1  0
 14 15  2  0
 15 16  1  0
 16 17  2  0
 17 18  1  0
 18 19  1  0
 19 20  1  0
 20 21  1  0
 21 22  1  0
 22 23  1  0
 17 24  1  0
 24 25  2  0
 25  8  1  0
 25 14  1  0
 23 19  1  0
  1 26  1  0
  1 27  1  0
  1 28  1  0
  3 29  1  0
  3 30  1  0
  3 31  1  0
  4 32  1  0
  4 33  1  0
  4 34  1  0
 11 35  1  0
 13 36  1  0
 15 37  1  0
 16 38  1  0
 18 39  1  0
 18 40  1  0
 19 41  1  6
 20 42  1  0
 20 43  1  0
 21 44  1  0
 21 45  1  0
 23 46  1  0
 23 47  1  0
 24 48  1  0
M  CHG  1  11  -1
M  END
>  <UniqueID>  (81) 
80

>  <SMILES>  (81) 
CC(C)(C)OC(=O)n1c(C([NH-])=O)cc2ccc(C[C@@H]3CCOC3)cc21

>  <Energy>  (81) 
82.90833315313651

>  <Genealogy>  (81) 
CC(C)(C)OC(=O)n1c(C([NH-])=O)cc2ccc(C[C@@H]3CCOC3)cc21 (protonated)
CC(C)(C)OC(=O)n1c(C([NH-])=O)cc2ccc(C[C@@H]3CCOC3)cc21 (3D coordinates assigned)
CC(C)(C)OC(=O)n1c(C([NH-])=O)cc2ccc(C[C@@H]3CCOC3)cc21 (nonaromatic ring conformer: 82.90833315313651 kcal/mol)

>  <smiles>  (81) 
CC(C)(C)OC(=O)n1c(C(N)=O)cc2ccc(C[C@@H]3CCOC3)cc21

>  <score_type>  (81) 
oracle

>  <origin>  (81) 
adg

>  <m_score__min__energy>  (81) 
-11.1

>  <m_primary>  (81) 
energy

$$$$
81:0
     RDKit          3D

 46 50  0  0  0  0  0  0  0  0999 V2000
   -2.3530   20.9210  -33.8430 C   0  0  0  0  0  0  0  0  0  0  0  0
   -1.7830   20.4850  -32.5340 C   0  0  0  0  0  0  0  0  0  0  0  0
   -1.7070   21.2430  -31.4650 O   0  0  0  0  0  0  0  0  0  0  0  0
   -1.1540   20.4980  -30.5360 C   0  0  0  0  0  0  0  0  0  0  0  0
   -0.9220   20.8990  -29.3650 O   0  0  0  0  0  0  0  0  0  0  0  0
   -0.8690   19.2880  -30.9600 O   0  0  0  0  0  0  0  0  0  0  0  0
   -1.2540   19.2470  -32.2140 C   0  0  0  0  0  0  0  0  0  0  0  0
   -1.1280   18.0440  -33.0990 C   0  0  0  0  0  0  0  0  0  0  0  0
   -2.3310   17.2800  -33.0620 O   0  0  0  0  0  0  0  0  0  0  0  0
   -3.2680   17.2760  -34.1020 C   0  0  0  0  0  0  0  0  0  0  0  0
   -2.8920   17.4010  -35.3000 O   0  0  0  0  0  0  0  0  0  0  0  0
   -4.6610   17.1120  -33.8030 N   0  0  0  0  0  0  0  0  0  0  0  0
   -5.4110   15.9790  -33.9090 C   0  0  0  0  0  0  0  0  0  0  0  0
   -4.9750   14.7030  -34.5150 C   0  0  0  0  0  0  0  0  0  0  0  0
   -3.6370   14.5290  -34.9780 N   0  0  0  0  0  0  0  0  0  0  0  0
   -5.8060   13.7690  -34.6700 O   0  0  0  0  0  0  0  0  0  0  0  0
   -6.7030   16.2030  -33.4400 C   0  0  0  0  0  0  0  0  0  0  0  0
   -6.7250   17.5230  -33.0510 C   0  0  0  0  0  0  0  0  0  0  0  0
   -7.7570   18.2780  -32.5020 C   0  0  0  0  0  0  0  0  0  0  0  0
   -7.4910   19.6160  -32.1700 C   0  0  0  0  0  0  0  0  0  0  0  0
   -6.2030   20.1760  -32.3840 C   0  0  0  0  0  0  0  0  0  0  0  0
   -5.9300   21.5890  -32.0200 C   0  0  0  0  0  0  0  0  0  0  0  0
   -6.8790   22.6110  -32.3110 C   0  0  0  0  0  0  0  0  0  0  0  0
   -6.6310   23.9150  -31.9790 N   0  0  0  0  0  0  0  0  0  0  0  0
   -5.4650   24.2250  -31.3650 C   0  0  0  0  0  0  0  0  0  0  0  0
   -5.0680   25.4470  -30.9690 N   0  0  0  0  0  0  0  0  0  0  0  0
   -3.8670   25.3020  -30.4110 N   0  0  0  0  0  0  0  0  0  0  0  0
   -3.5230   23.9940  -30.4610 C   0  0  0  0  0  0  0  0  0  0  0  0
   -2.3270   23.4840  -29.9650 O   0  0  0  0  0  0  0  0  0  0  0  0
   -4.5300   23.2850  -31.0670 C   0  0  0  0  0  0  0  0  0  0  0  0
   -4.7190   21.9440  -31.3780 C   0  0  0  0  0  0  0  0  0  0  0  0
   -5.1810   19.3730  -32.9440 C   0  0  0  0  0  0  0  0  0  0  0  0
   -5.4810   18.0480  -33.2790 C   0  0  0  0  0  0  0  0  0  0  0  0
   -3.2153   21.5806  -33.6660 H   0  0  0  0  0  0  0  0  0  0  0  0
   -1.5862   21.4652  -34.4138 H   0  0  0  0  0  0  0  0  0  0  0  0
   -2.6775   20.0385  -34.4138 H   0  0  0  0  0  0  0  0  0  0  0  0
   -0.9361   18.3706  -34.1317 H   0  0  0  0  0  0  0  0  0  0  0  0
   -0.2947   17.4207  -32.7425 H   0  0  0  0  0  0  0  0  0  0  0  0
   -2.9240   15.2810  -34.8570 H   0  0  0  0  0  0  0  0  0  0  0  0
   -7.5298   15.4791  -33.3909 H   0  0  0  0  0  0  0  0  0  0  0  0
   -8.7516   17.8396  -32.3332 H   0  0  0  0  0  0  0  0  0  0  0  0
   -8.2893   20.2381  -31.7391 H   0  0  0  0  0  0  0  0  0  0  0  0
   -7.8238   22.3482  -32.8093 H   0  0  0  0  0  0  0  0  0  0  0  0
   -2.0210   22.5470  -30.1980 H   0  0  0  0  0  0  0  0  0  0  0  0
   -3.9578   21.1880  -31.1350 H   0  0  0  0  0  0  0  0  0  0  0  0
   -4.1735   19.7813  -33.1121 H   0  0  0  0  0  0  0  0  0  0  0  0
  1  2  1  0
  2  3  1  0
  3  4  1  0
  4  5  2  0
  4  6  1  0
  6  7  1  0
  7  8  1  0
  8  9  1  0
  9 10  1  0
 10 11  2  0
 10 12  1  0
 12 13  1  0
 13 14  1  0
 14 15  1  0
 14 16  2  0
 13 17  2  0
 17 18  1  0
 18 19  2  0
 19 20  1  0
 20 21  2  0
 21 22  1  0
 22 23  1  0
 23 24  2  0
 24 25  1  0
 25 26  2  0
 26 27  1  0
 27 28  1  0
 28 29  1  0
 28 30  2  0
 30 31  1  0
 21 32  1  0
 32 33  2  0
  7  2  2  0
 33 12  1  0
 33 18  1  0
 31 22  2  0
 30 25  1  0
  1 34  1  0
  1 35  1  0
  1 36  1  0
  8 37  1  0
  8 38  1  0
 15 39  1  0
 17 40  1  0
 19 41  1  0
 20 42  1  0
 23 43  1  0
 29 44  1  0
 31 45  1  0
 32 46  1  0
M  CHG  2  15  -1  27  -1
M  END
>  <UniqueID>  (82) 
81

>  <SMILES>  (82) 
Cc1oc(=O)oc1COC(=O)n1c(C([NH-])=O)cc2ccc(-c3cnc4n[n-]c(O)c4c3)cc21

>  <Energy>  (82) 
167.4371075928299

>  <Genealogy>  (82) 
Cc1oc(=O)oc1COC(=O)n1c(C([NH-])=O)cc2ccc(-c3cnc4n[n-]c(O)c4c3)cc21 (protonated)
Cc1oc(=O)oc1COC(=O)n1c(C([NH-])=O)cc2ccc(-c3cnc4n[n-]c(O)c4c3)cc21 (3D coordinates assigned)
Cc1oc(=O)oc1COC(=O)n1c(C([NH-])=O)cc2ccc(-c3cnc4n[n-]c(O)c4c3)cc21 (optimized conformer: 167.4371075928299 kcal/mol)

>  <smiles>  (82) 
Cc1oc(=O)oc1COC(=O)n1c(C(N)=O)cc2ccc(-c3cnc4n[nH]c(O)c4c3)cc21

>  <score_type>  (82) 
oracle

>  <origin>  (82) 
adg

>  <m_score__min__energy>  (82) 
-11.609999999999999

>  <m_primary>  (82) 
energy

$$$$
82:0
     RDKit          3D

 28 29  0  0  0  0  0  0  0  0999 V2000
   -3.3820   22.9000  -28.7920 C   0  0  0  0  0  0  0  0  0  0  0  0
   -3.0140   23.1320  -30.1460 O   0  0  0  0  0  0  0  0  0  0  0  0
   -3.7910   22.6960  -31.2250 C   0  0  0  0  0  0  0  0  0  0  0  0
   -3.2600   22.0600  -32.1740 O   0  0  0  0  0  0  0  0  0  0  0  0
   -5.2040   22.9560  -31.2360 N   0  0  0  0  0  0  0  0  0  0  0  0
   -5.8460   24.0840  -30.8180 C   0  0  0  0  0  0  0  0  0  0  0  0
   -5.2030   25.3550  -30.4260 C   0  0  0  0  0  0  0  0  0  0  0  0
   -3.8800   25.6690  -30.8530 N   0  0  0  0  0  0  0  0  0  0  0  0
   -5.8490   26.1970  -29.7470 O   0  0  0  0  0  0  0  0  0  0  0  0
   -7.2270   23.9130  -30.8870 C   0  0  0  0  0  0  0  0  0  0  0  0
   -7.4140   22.6390  -31.3720 C   0  0  0  0  0  0  0  0  0  0  0  0
   -8.5920   21.9430  -31.6260 C   0  0  0  0  0  0  0  0  0  0  0  0
   -8.4880   20.6230  -32.0960 C   0  0  0  0  0  0  0  0  0  0  0  0
   -7.2180   20.0260  -32.2960 C   0  0  0  0  0  0  0  0  0  0  0  0
   -7.1320   18.6070  -32.7820 C   0  0  0  0  0  0  0  0  0  0  0  0
   -8.2270   17.8910  -32.3330 F   0  0  0  0  0  0  0  0  0  0  0  0
   -5.9750   18.0200  -32.3050 F   0  0  0  0  0  0  0  0  0  0  0  0
   -6.0440   20.7630  -32.0240 C   0  0  0  0  0  0  0  0  0  0  0  0
   -6.1780   22.0820  -31.5740 C   0  0  0  0  0  0  0  0  0  0  0  0
   -2.6416   23.3668  -28.1257 H   0  0  0  0  0  0  0  0  0  0  0  0
   -4.3735   23.3367  -28.6015 H   0  0  0  0  0  0  0  0  0  0  0  0
   -3.4155   21.8171  -28.6015 H   0  0  0  0  0  0  0  0  0  0  0  0
   -3.0470   25.2940  -30.3450 H   0  0  0  0  0  0  0  0  0  0  0  0
   -8.0034   24.6421  -30.6120 H   0  0  0  0  0  0  0  0  0  0  0  0
   -9.5739   22.4116  -31.4639 H   0  0  0  0  0  0  0  0  0  0  0  0
   -9.4005   20.0475  -32.3107 H   0  0  0  0  0  0  0  0  0  0  0  0
   -7.1189   18.6046  -33.8819 H   0  0  0  0  0  0  0  0  0  0  0  0
   -5.0502   20.3122  -32.1622 H   0  0  0  0  0  0  0  0  0  0  0  0
  1  2  1  0
  2  3  1  0
  3  4  2  0
  3  5  1  0
  5  6  1  0
  6  7  1  0
  7  8  1  0
  7  9  2  0
  6 10  2  0
 10 11  1  0
 11 12  2  0
 12 13  1  0
 13 14  2  0
 14 15  1  0
 15 16  1  0
 15 17  1  0
 14 18  1  0
 18 19  2  0
 19  5  1  0
 19 11  1  0
  1 20  1  0
  1 21  1  0
  1 22  1  0
  8 23  1  0
 10 24  1  0
 12 25  1  0
 13 26  1  0
 15 27  1  0
 18 28  1  0
M  CHG  1   8  -1
M  END
>  <UniqueID>  (83) 
82

>  <SMILES>  (83) 
COC(=O)n1c(C([NH-])=O)cc2ccc(C(F)F)cc21

>  <Energy>  (83) 
65.27425177375873

>  <Genealogy>  (83) 
COC(=O)n1c(C([NH-])=O)cc2ccc(C(F)F)cc21 (protonated)
COC(=O)n1c(C([NH-])=O)cc2ccc(C(F)F)cc21 (3D coordinates assigned)
COC(=O)n1c(C([NH-])=O)cc2ccc(C(F)F)cc21 (optimized conformer: 65.27425177375873 kcal/mol)

>  <smiles>  (83) 
COC(=O)n1c(C(N)=O)cc2ccc(C(F)F)cc21

>  <score_type>  (83) 
oracle

>  <origin>  (83) 
adg

>  <m_score__min__energy>  (83) 
-8.7699999999999996

>  <m_primary>  (83) 
energy

$$$$
83:0
     RDKit          3D

 51 53  0  0  0  0  0  0  0  0999 V2000
   -1.3490   18.0420  -33.3810 C   0  0  0  0  0  0  0  0  0  0  0  0
   -0.7600   18.1180  -32.0430 N   0  0  0  0  0  0  0  0  0  0  0  0
   -1.2000   19.3160  -31.3730 C   0  0  0  0  0  0  0  0  0  0  0  0
   -0.5870   19.7220  -30.1600 C   0  0  0  0  0  0  0  0  0  0  0  0
   -0.9990   20.8950  -29.5030 C   0  0  0  0  0  0  0  0  0  0  0  0
   -2.0170   21.6430  -30.0860 C   0  0  0  0  0  0  0  0  0  0  0  0
   -2.6340   22.7950  -29.6490 C   0  0  0  0  0  0  0  0  0  0  0  0
   -3.6020   23.0810  -30.6100 C   0  0  0  0  0  0  0  0  0  0  0  0
   -4.4600   24.2800  -30.5790 C   0  0  0  0  0  0  0  0  0  0  0  0
   -3.8890   25.5800  -30.4680 N   0  0  0  0  0  0  0  0  0  0  0  0
   -5.7130   24.1530  -30.5990 O   0  0  0  0  0  0  0  0  0  0  0  0
   -3.5900   22.1400  -31.5950 N   0  0  0  0  0  0  0  0  0  0  0  0
   -4.5350   21.9590  -32.6600 C   0  0  0  0  0  0  0  0  0  0  0  0
   -4.1170   21.7300  -33.8260 O   0  0  0  0  0  0  0  0  0  0  0  0
   -6.0220   21.9950  -32.3980 C   0  0  0  0  0  0  0  0  0  0  0  0
   -6.5900   20.5990  -32.0050 C   0  0  2  0  0  0  0  0  0  0  0  0
   -6.0100   19.4430  -32.8110 C   0  0  0  0  0  0  0  0  0  0  0  0
   -5.3740   18.3870  -32.1300 C   0  0  0  0  0  0  0  0  0  0  0  0
   -4.8210   17.3150  -32.8360 C   0  0  0  0  0  0  0  0  0  0  0  0
   -4.9180   17.2690  -34.2270 C   0  0  0  0  0  0  0  0  0  0  0  0
   -5.5700   18.2940  -34.9150 C   0  0  0  0  0  0  0  0  0  0  0  0
   -6.1130   19.3750  -34.2150 C   0  0  0  0  0  0  0  0  0  0  0  0
   -8.0760   20.5240  -32.0110 N   0  0  0  0  0  0  0  0  0  0  0  0
   -8.7450   21.5540  -31.1970 C   0  0  0  0  0  0  0  0  0  0  0  0
   -8.5700   19.1840  -31.6480 C   0  0  0  0  0  0  0  0  0  0  0  0
   -2.6090   21.2740  -31.2640 C   0  0  0  0  0  0  0  0  0  0  0  0
   -2.2220   20.1130  -31.9390 C   0  0  0  0  0  0  0  0  0  0  0  0
   -2.4366   17.9017  -33.2954 H   0  0  0  0  0  0  0  0  0  0  0  0
   -1.1414   18.9744  -33.9265 H   0  0  0  0  0  0  0  0  0  0  0  0
   -0.9115   17.1929  -33.9265 H   0  0  0  0  0  0  0  0  0  0  0  0
    0.2830   18.1160  -32.1240 H   0  0  0  0  0  0  0  0  0  0  0  0
   -1.0430   17.2720  -31.4950 H   0  0  0  0  0  0  0  0  0  0  0  0
    0.2202   19.1121  -29.7282 H   0  0  0  0  0  0  0  0  0  0  0  0
   -0.5316   21.2110  -28.5587 H   0  0  0  0  0  0  0  0  0  0  0  0
   -2.4103   23.3669  -28.7364 H   0  0  0  0  0  0  0  0  0  0  0  0
   -3.4870   26.0630  -31.3010 H   0  0  0  0  0  0  0  0  0  0  0  0
   -6.2190   22.7003  -31.5772 H   0  0  0  0  0  0  0  0  0  0  0  0
   -6.5187   22.3094  -33.3278 H   0  0  0  0  0  0  0  0  0  0  0  0
   -6.2540   20.4832  -30.9640 H   0  0  0  0  0  0  0  0  0  0  0  0
   -5.3119   18.4061  -31.0319 H   0  0  0  0  0  0  0  0  0  0  0  0
   -4.3086   16.5064  -32.2941 H   0  0  0  0  0  0  0  0  0  0  0  0
   -4.4809   16.4255  -34.7814 H   0  0  0  0  0  0  0  0  0  0  0  0
   -5.6566   18.2507  -36.0107 H   0  0  0  0  0  0  0  0  0  0  0  0
   -6.6248   20.1790  -34.7642 H   0  0  0  0  0  0  0  0  0  0  0  0
   -8.5994   21.3298  -30.1300 H   0  0  0  0  0  0  0  0  0  0  0  0
   -8.3143   22.5398  -31.4267 H   0  0  0  0  0  0  0  0  0  0  0  0
   -9.8207   21.5613  -31.4267 H   0  0  0  0  0  0  0  0  0  0  0  0
   -8.6045   19.0903  -30.5525 H   0  0  0  0  0  0  0  0  0  0  0  0
   -9.5798   19.0414  -32.0602 H   0  0  0  0  0  0  0  0  0  0  0  0
   -7.8944   18.4200  -32.0602 H   0  0  0  0  0  0  0  0  0  0  0  0
   -2.7005   19.8262  -32.8871 H   0  0  0  0  0  0  0  0  0  0  0  0
  1  2  1  0
  2  3  1  0
  3  4  2  0
  4  5  1  0
  5  6  2  0
  6  7  1  0
  7  8  2  0
  8  9  1  0
  9 10  1  0
  9 11  2  0
  8 12  1  0
 12 13  1  0
 13 14  2  0
 13 15  1  0
 15 16  1  0
 16 17  1  0
 17 18  2  0
 18 19  1  0
 19 20  2  0
 20 21  1  0
 21 22  2  0
 16 23  1  0
 23 24  1  0
 23 25  1  0
 12 26  1  0
 26 27  2  0
 27  3  1  0
 26  6  1  0
 22 17  1  0
  1 28  1  0
  1 29  1  0
  1 30  1  0
  2 31  1  0
  2 32  1  0
  4 33  1  0
  5 34  1  0
  7 35  1  0
 10 36  1  0
 15 37  1  0
 15 38  1  0
 16 39  1  1
 18 40  1  0
 19 41  1  0
 20 42  1  0
 21 43  1  0
 22 44  1  0
 24 45  1  0
 24 46  1  0
 24 47  1  0
 25 48  1  0
 25 49  1  0
 25 50  1  0
 27 51  1  0
M  CHG  2   2   1  10  -1
M  END
>  <UniqueID>  (84) 
83

>  <SMILES>  (84) 
C[NH2+]c1ccc2cc(C([NH-])=O)n(C(=O)C[C@H](c3ccccc3)N(C)C)c2c1

>  <Energy>  (84) 
94.58601750813888

>  <Genealogy>  (84) 
C[NH2+]c1ccc2cc(C([NH-])=O)n(C(=O)CC(c3ccccc3)N(C)C)c2c1 (protonated)
C[NH2+]c1ccc2cc(C([NH-])=O)n(C(=O)C[C@H](c3ccccc3)N(C)C)c2c1 (chirality)
C[NH2+]c1ccc2cc(C([NH-])=O)n(C(=O)C[C@H](c3ccccc3)N(C)C)c2c1 (3D coordinates assigned)
C[NH2+]c1ccc2cc(C([NH-])=O)n(C(=O)C[C@H](c3ccccc3)N(C)C)c2c1 (optimized conformer: 94.58601750813888 kcal/mol)

>  <smiles>  (84) 
CNc1ccc2cc(C(N)=O)n(C(=O)CC(c3ccccc3)N(C)C)c2c1

>  <score_type>  (84) 
oracle

>  <origin>  (84) 
adg

>  <m_score__min__energy>  (84) 
-10.9

>  <m_primary>  (84) 
energy

$$$$
84:0
     RDKit          3D

 37 38  0  0  0  0  0  0  0  0999 V2000
   -1.8130   20.2740  -32.2820 C   0  0  0  0  0  0  0  0  0  0  0  0
   -2.8460   19.2960  -32.2970 O   0  0  0  0  0  0  0  0  0  0  0  0
   -3.6340   19.0470  -33.4260 C   0  0  0  0  0  0  0  0  0  0  0  0
   -3.1080   19.0450  -34.5750 O   0  0  0  0  0  0  0  0  0  0  0  0
   -5.1280   18.8120  -33.2880 C   0  0  0  0  0  0  0  0  0  0  0  0
   -5.7530   18.4690  -34.6570 C   0  0  0  0  0  0  0  0  0  0  0  0
   -5.3090   17.5920  -32.3560 C   0  0  0  0  0  0  0  0  0  0  0  0
   -5.8020   20.0900  -32.7580 C   0  0  0  0  0  0  0  0  0  0  0  0
   -7.2210   20.2050  -32.8310 C   0  0  0  0  0  0  0  0  0  0  0  0
   -7.8870   21.3380  -32.3400 C   0  0  0  0  0  0  0  0  0  0  0  0
   -7.1250   22.3390  -31.7540 C   0  0  0  0  0  0  0  0  0  0  0  0
   -7.5150   23.5480  -31.2240 C   0  0  0  0  0  0  0  0  0  0  0  0
   -6.3410   24.1490  -30.7810 C   0  0  0  0  0  0  0  0  0  0  0  0
   -6.3090   25.4490  -30.0810 C   0  0  0  0  0  0  0  0  0  0  0  0
   -5.3990   26.4770  -30.4720 N   0  0  0  0  0  0  0  0  0  0  0  0
   -7.0560   25.6330  -29.0840 O   0  0  0  0  0  0  0  0  0  0  0  0
   -5.2650   23.3530  -31.0370 N   0  0  0  0  0  0  0  0  0  0  0  0
   -3.8780   23.6770  -30.8380 C   0  0  0  0  0  0  0  0  0  0  0  0
   -3.0010   22.7730  -30.8590 O   0  0  0  0  0  0  0  0  0  0  0  0
   -3.4910   24.9940  -30.6210 O   0  0  0  0  0  0  0  0  0  0  0  0
   -5.7640   22.2440  -31.6320 C   0  0  0  0  0  0  0  0  0  0  0  0
   -5.0680   21.1360  -32.1320 C   0  0  0  0  0  0  0  0  0  0  0  0
   -1.5547   20.5186  -31.2411 H   0  0  0  0  0  0  0  0  0  0  0  0
   -0.9253   19.8776  -32.7967 H   0  0  0  0  0  0  0  0  0  0  0  0
   -2.1603   21.1820  -32.7967 H   0  0  0  0  0  0  0  0  0  0  0  0
   -6.7079   17.9450  -34.5032 H   0  0  0  0  0  0  0  0  0  0  0  0
   -5.9304   19.3962  -35.2217 H   0  0  0  0  0  0  0  0  0  0  0  0
   -5.0662   17.8214  -35.2217 H   0  0  0  0  0  0  0  0  0  0  0  0
   -5.2602   17.9211  -31.3075 H   0  0  0  0  0  0  0  0  0  0  0  0
   -6.2862   17.1252  -32.5486 H   0  0  0  0  0  0  0  0  0  0  0  0
   -4.5094   16.8616  -32.5486 H   0  0  0  0  0  0  0  0  0  0  0  0
   -7.8055   19.3891  -33.2813 H   0  0  0  0  0  0  0  0  0  0  0  0
   -8.9804   21.4302  -32.4172 H   0  0  0  0  0  0  0  0  0  0  0  0
   -8.5362   23.9524  -31.1636 H   0  0  0  0  0  0  0  0  0  0  0  0
   -4.6560   26.2990  -31.1830 H   0  0  0  0  0  0  0  0  0  0  0  0
   -5.4140   27.4020  -29.9880 H   0  0  0  0  0  0  0  0  0  0  0  0
   -3.9733   21.0756  -32.0423 H   0  0  0  0  0  0  0  0  0  0  0  0
  1  2  1  0
  2  3  1  0
  3  4  2  0
  3  5  1  0
  5  6  1  0
  5  7  1  0
  5  8  1  0
  8  9  2  0
  9 10  1  0
 10 11  2  0
 11 12  1  0
 12 13  2  0
 13 14  1  0
 14 15  1  0
 14 16  2  0
 13 17  1  0
 17 18  1  0
 18 19  2  0
 18 20  1  0
 17 21  1  0
 21 22  2  0
 22  8  1  0
 21 11  1  0
  1 23  1  0
  1 24  1  0
  1 25  1  0
  6 26  1  0
  6 27  1  0
  6 28  1  0
  7 29  1  0
  7 30  1  0
  7 31  1  0
  9 32  1  0
 10 33  1  0
 12 34  1  0
 15 35  1  0
 15 36  1  0
 22 37  1  0
M  CHG  1  20  -1
M  END
>  <UniqueID>  (85) 
84

>  <SMILES>  (85) 
COC(=O)C(C)(C)c1ccc2cc(C(N)=O)n(C(=O)[O-])c2c1

>  <Energy>  (85) 
77.78418502067156

>  <Genealogy>  (85) 
COC(=O)C(C)(C)c1ccc2cc(C(N)=O)n(C(=O)[O-])c2c1 (protonated)
COC(=O)C(C)(C)c1ccc2cc(C(N)=O)n(C(=O)[O-])c2c1 (3D coordinates assigned)
COC(=O)C(C)(C)c1ccc2cc(C(N)=O)n(C(=O)[O-])c2c1 (optimized conformer: 77.78418502067156 kcal/mol)

>  <smiles>  (85) 
COC(=O)C(C)(C)c1ccc2cc(C(N)=O)n(C(=O)O)c2c1

>  <score_type>  (85) 
oracle

>  <origin>  (85) 
adg

>  <m_score__min__energy>  (85) 
-8.9100000000000001

>  <m_primary>  (85) 
energy

$$$$
85:0
     RDKit          3D

 46 50  0  0  0  0  0  0  0  0999 V2000
   -4.2910   25.6510  -30.8080 N   0  0  0  0  0  0  0  0  0  0  0  0
   -5.5980   25.2840  -30.3710 C   0  0  0  0  0  0  0  0  0  0  0  0
   -6.2510   26.0790  -29.6450 O   0  0  0  0  0  0  0  0  0  0  0  0
   -6.1600   23.9730  -30.7540 C   0  0  0  0  0  0  0  0  0  0  0  0
   -7.4920   23.7720  -31.1130 C   0  0  0  0  0  0  0  0  0  0  0  0
   -7.5820   22.4400  -31.4540 C   0  0  0  0  0  0  0  0  0  0  0  0
   -8.6710   21.6980  -31.8980 C   0  0  0  0  0  0  0  0  0  0  0  0
   -8.4700   20.3350  -32.1750 C   0  0  0  0  0  0  0  0  0  0  0  0
   -7.1970   19.7340  -31.9850 C   0  0  0  0  0  0  0  0  0  0  0  0
   -6.9850   18.2820  -32.3270 C   0  0  0  0  0  0  0  0  0  0  0  0
   -8.1880   17.5960  -32.3150 F   0  0  0  0  0  0  0  0  0  0  0  0
   -6.1360   17.6820  -31.4130 F   0  0  0  0  0  0  0  0  0  0  0  0
   -6.4270   18.1890  -33.5880 F   0  0  0  0  0  0  0  0  0  0  0  0
   -6.1100   20.5300  -31.5540 C   0  0  0  0  0  0  0  0  0  0  0  0
   -6.3400   21.8840  -31.2960 C   0  0  0  0  0  0  0  0  0  0  0  0
   -5.4600   22.8090  -30.8600 N   0  0  0  0  0  0  0  0  0  0  0  0
   -4.0730   22.5800  -30.5660 C   0  0  0  0  0  0  0  0  0  0  0  0
   -3.4310   21.7450  -31.2600 O   0  0  0  0  0  0  0  0  0  0  0  0
   -3.4020   23.2820  -29.4460 C   0  0  0  0  0  0  0  0  0  0  0  0
   -4.0490   23.4390  -28.2110 C   0  0  0  0  0  0  0  0  0  0  0  0
   -3.4110   24.1000  -27.1610 C   0  0  0  0  0  0  0  0  0  0  0  0
   -2.1180   24.6160  -27.3480 C   0  0  0  0  0  0  0  0  0  0  0  0
   -1.4240   25.3050  -26.2910 N   0  0  0  0  0  0  0  0  0  0  0  0
   -0.8560   24.6570  -25.1170 C   0  0  0  0  0  0  0  0  0  0  0  0
   -0.2320   25.7650  -24.2790 C   0  0  2  0  0  0  0  0  0  0  0  0
   -1.1910   26.8030  -23.7150 C   0  0  0  0  0  0  0  0  0  0  0  0
   -0.4550   27.0720  -25.0210 C   0  0  2  0  0  0  0  0  0  0  0  0
   -1.2120   26.7440  -26.3000 C   0  0  0  0  0  0  0  0  0  0  0  0
   -1.5130   24.4600  -28.5580 N   0  0  0  0  0  0  0  0  0  0  0  0
   -2.1130   23.8180  -29.5940 C   0  0  0  0  0  0  0  0  0  0  0  0
   -3.4870   25.6620  -30.1420 H   0  0  0  0  0  0  0  0  0  0  0  0
   -8.2999   24.5185  -31.1221 H   0  0  0  0  0  0  0  0  0  0  0  0
   -9.6591   22.1635  -32.0284 H   0  0  0  0  0  0  0  0  0  0  0  0
   -9.3087   19.7261  -32.5435 H   0  0  0  0  0  0  0  0  0  0  0  0
   -5.1084   20.0939  -31.4251 H   0  0  0  0  0  0  0  0  0  0  0  0
   -5.0640   23.0391  -28.0699 H   0  0  0  0  0  0  0  0  0  0  0  0
   -3.9179   24.2165  -26.1917 H   0  0  0  0  0  0  0  0  0  0  0  0
   -0.0887   23.9284  -25.4176 H   0  0  0  0  0  0  0  0  0  0  0  0
   -1.6242   24.1106  -24.5502 H   0  0  0  0  0  0  0  0  0  0  0  0
    0.5906   25.2002  -23.8160 H   0  0  0  0  0  0  0  0  0  0  0  0
   -0.9236   27.3635  -22.8070 H   0  0  0  0  0  0  0  0  0  0  0  0
   -2.2455   26.7999  -23.4019 H   0  0  0  0  0  0  0  0  0  0  0  0
    0.1229   27.9399  -25.3713 H   0  0  0  0  0  0  0  0  0  0  0  0
   -0.6190   27.0362  -27.1792 H   0  0  0  0  0  0  0  0  0  0  0  0
   -2.1664   27.2885  -26.3506 H   0  0  0  0  0  0  0  0  0  0  0  0
   -1.5859   23.7176  -30.5542 H   0  0  0  0  0  0  0  0  0  0  0  0
  1  2  1  0
  2  3  2  0
  2  4  1  0
  4  5  2  0
  5  6  1  0
  6  7  2  0
  7  8  1  0
  8  9  2  0
  9 10  1  0
 10 11  1  0
 10 12  1  0
 10 13  1  0
  9 14  1  0
 14 15  2  0
 15 16  1  0
 16 17  1  0
 17 18  2  0
 17 19  1  0
 19 20  2  0
 20 21  1  0
 21 22  2  0
 22 23  1  0
 23 24  1  0
 24 25  1  0
 25 26  1  0
 26 27  1  0
 27 28  1  0
 22 29  1  0
 29 30  2  0
 16  4  1  0
 30 19  1  0
 15  6  1  0
 28 23  1  0
 27 25  1  0
  1 31  1  0
  5 32  1  0
  7 33  1  0
  8 34  1  0
 14 35  1  0
 20 36  1  0
 21 37  1  0
 24 38  1  0
 24 39  1  0
 25 40  1  1
 26 41  1  0
 26 42  1  0
 27 43  1  6
 28 44  1  0
 28 45  1  0
 30 46  1  0
M  CHG  1   1  -1
M  END
>  <UniqueID>  (86) 
85

>  <SMILES>  (86) 
[NH-]C(=O)c1cc2ccc(C(F)(F)F)cc2n1C(=O)c1ccc(N2C[C@H]3C[C@H]3C2)nc1

>  <Energy>  (86) 
358.0526658128736

>  <Genealogy>  (86) 
[NH-]C(=O)c1cc2ccc(C(F)(F)F)cc2n1C(=O)c1ccc(N2CC3CC3C2)nc1 (protonated)
[NH-]C(=O)c1cc2ccc(C(F)(F)F)cc2n1C(=O)c1ccc(N2C[C@H]3C[C@H]3C2)nc1 (chirality)
[NH-]C(=O)c1cc2ccc(C(F)(F)F)cc2n1C(=O)c1ccc(N2C[C@H]3C[C@H]3C2)nc1 (3D coordinates assigned)
[NH-]C(=O)c1cc2ccc(C(F)(F)F)cc2n1C(=O)c1ccc(N2C[C@H]3C[C@H]3C2)nc1 (nonaromatic ring conformer: 358.0526658128736 kcal/mol)

>  <smiles>  (86) 
NC(=O)c1cc2ccc(C(F)(F)F)cc2n1C(=O)c1ccc(N2CC3CC3C2)nc1

>  <score_type>  (86) 
oracle

>  <origin>  (86) 
adg

>  <m_score__min__energy>  (86) 
-11.949999999999999

>  <m_primary>  (86) 
energy

$$$$
86:0
     RDKit          3D

 40 42  0  0  0  0  0  0  0  0999 V2000
   -8.5370   18.5500  -31.7070 C   0  0  0  0  0  0  0  0  0  0  0  0
   -7.9330   18.4610  -32.9910 O   0  0  0  0  0  0  0  0  0  0  0  0
   -6.8520   17.6170  -33.2600 C   0  0  0  0  0  0  0  0  0  0  0  0
   -7.0230   16.3700  -33.3330 O   0  0  0  0  0  0  0  0  0  0  0  0
   -5.5400   18.1730  -33.4520 N   0  0  0  0  0  0  0  0  0  0  0  0
   -4.4850   17.5990  -34.0960 C   0  0  0  0  0  0  0  0  0  0  0  0
   -4.4250   16.2100  -34.5940 C   0  0  0  0  0  0  0  0  0  0  0  0
   -4.9290   15.1230  -33.8170 N   0  0  0  0  0  0  0  0  0  0  0  0
   -3.8710   15.9720  -35.7000 O   0  0  0  0  0  0  0  0  0  0  0  0
   -3.4210   18.4910  -34.1850 C   0  0  0  0  0  0  0  0  0  0  0  0
   -3.8550   19.6380  -33.5610 C   0  0  0  0  0  0  0  0  0  0  0  0
   -3.2010   20.8460  -33.3660 C   0  0  0  0  0  0  0  0  0  0  0  0
   -3.9000   21.8750  -32.7160 C   0  0  0  0  0  0  0  0  0  0  0  0
   -5.2490   21.7010  -32.2900 C   0  0  0  0  0  0  0  0  0  0  0  0
   -5.9580   22.8580  -31.5650 C   0  0  0  0  0  0  0  0  0  0  0  0
   -6.8320   23.7230  -32.4990 C   0  0  0  0  0  0  0  0  0  0  0  0
   -6.8660   22.2570  -30.4710 C   0  0  0  0  0  0  0  0  0  0  0  0
   -4.9210   23.7810  -30.9510 C   0  0  0  0  0  0  0  0  0  0  0  0
   -4.8620   25.1060  -31.2110 N   0  0  0  0  0  0  0  0  0  0  0  0
   -3.8970   25.5530  -30.4680 O   0  0  0  0  0  0  0  0  0  0  0  0
   -3.3940   24.5650  -29.7780 C   0  0  0  0  0  0  0  0  0  0  0  0
   -2.4430   24.6910  -28.9630 O   0  0  0  0  0  0  0  0  0  0  0  0
   -4.0080   23.3960  -30.0300 N   0  0  0  0  0  0  0  0  0  0  0  0
   -5.8680   20.4380  -32.5000 C   0  0  0  0  0  0  0  0  0  0  0  0
   -5.1370   19.4230  -33.1300 C   0  0  0  0  0  0  0  0  0  0  0  0
   -7.7662   18.4364  -30.9305 H   0  0  0  0  0  0  0  0  0  0  0  0
   -9.0251   19.5298  -31.5985 H   0  0  0  0  0  0  0  0  0  0  0  0
   -9.2870   17.7527  -31.5985 H   0  0  0  0  0  0  0  0  0  0  0  0
   -5.2350   15.2620  -32.8280 H   0  0  0  0  0  0  0  0  0  0  0  0
   -4.9150   14.1530  -34.2020 H   0  0  0  0  0  0  0  0  0  0  0  0
   -2.4415   18.3165  -34.6542 H   0  0  0  0  0  0  0  0  0  0  0  0
   -2.1666   20.9927  -33.7102 H   0  0  0  0  0  0  0  0  0  0  0  0
   -3.3964   22.8354  -32.5316 H   0  0  0  0  0  0  0  0  0  0  0  0
   -7.4854   24.3697  -31.8949 H   0  0  0  0  0  0  0  0  0  0  0  0
   -6.1848   24.3461  -33.1337 H   0  0  0  0  0  0  0  0  0  0  0  0
   -7.4484   23.0694  -33.1337 H   0  0  0  0  0  0  0  0  0  0  0  0
   -6.4687   22.5199  -29.4795 H   0  0  0  0  0  0  0  0  0  0  0  0
   -7.8839   22.6603  -30.5769 H   0  0  0  0  0  0  0  0  0  0  0  0
   -6.8924   21.1624  -30.5769 H   0  0  0  0  0  0  0  0  0  0  0  0
   -6.9034   20.2613  -32.1732 H   0  0  0  0  0  0  0  0  0  0  0  0
  1  2  1  0
  2  3  1  0
  3  4  2  0
  3  5  1  0
  5  6  1  0
  6  7  1  0
  7  8  1  0
  7  9  2  0
  6 10  2  0
 10 11  1  0
 11 12  2  0
 12 13  1  0
 13 14  2  0
 14 15  1  0
 15 16  1  0
 15 17  1  0
 15 18  1  0
 18 19  2  0
 19 20  1  0
 20 21  1  0
 21 22  2  0
 21 23  1  0
 14 24  1  0
 24 25  2  0
 25  5  1  0
 25 11  1  0
 23 18  1  0
  1 26  1  0
  1 27  1  0
  1 28  1  0
  8 29  1  0
  8 30  1  0
 10 31  1  0
 12 32  1  0
 13 33  1  0
 16 34  1  0
 16 35  1  0
 16 36  1  0
 17 37  1  0
 17 38  1  0
 17 39  1  0
 24 40  1  0
M  CHG  1  23  -1
M  END
>  <UniqueID>  (87) 
86

>  <SMILES>  (87) 
COC(=O)n1c(C(N)=O)cc2ccc(C(C)(C)c3noc(=O)[n-]3)cc21

>  <Energy>  (87) 
116.14363992160703

>  <Genealogy>  (87) 
COC(=O)n1c(C(N)=O)cc2ccc(C(C)(C)c3noc(=O)[n-]3)cc21 (protonated)
COC(=O)n1c(C(N)=O)cc2ccc(C(C)(C)c3noc(=O)[n-]3)cc21 (3D coordinates assigned)
COC(=O)n1c(C(N)=O)cc2ccc(C(C)(C)c3noc(=O)[n-]3)cc21 (optimized conformer: 116.14363992160703 kcal/mol)

>  <smiles>  (87) 
COC(=O)n1c(C(N)=O)cc2ccc(C(C)(C)c3noc(=O)[nH]3)cc21

>  <score_type>  (87) 
oracle

>  <origin>  (87) 
adg

>  <m_score__min__energy>  (87) 
-9.25

>  <m_primary>  (87) 
energy

$$$$
87:0
     RDKit          3D

 55 56  0  0  0  0  0  0  0  0999 V2000
   -2.8510   14.7070  -35.7190 C   0  0  0  0  0  0  0  0  0  0  0  0
   -3.6240   14.4590  -34.5670 O   0  0  0  0  0  0  0  0  0  0  0  0
   -3.8870   15.6670  -33.8770 C   0  0  0  0  0  0  0  0  0  0  0  0
   -5.2790   15.6210  -33.2390 C   0  0  0  0  0  0  0  0  0  0  0  0
   -5.8890   16.9600  -33.2450 N   0  0  0  0  0  0  0  0  0  0  0  0
   -5.5860   17.8720  -34.3560 C   0  0  0  0  0  0  0  0  0  0  0  0
   -6.7340   17.4320  -32.1700 C   0  0  0  0  0  0  0  0  0  0  0  0
   -6.3350   17.3120  -30.9750 O   0  0  0  0  0  0  0  0  0  0  0  0
   -8.0500   18.1260  -32.4320 C   0  0  0  0  0  0  0  0  0  0  0  0
   -7.9770   19.6020  -32.1340 C   0  0  0  0  0  0  0  0  0  0  0  0
   -9.0790   20.4460  -32.4210 C   0  0  0  0  0  0  0  0  0  0  0  0
   -9.0120   21.8240  -32.1570 C   0  0  0  0  0  0  0  0  0  0  0  0
   -7.8350   22.3260  -31.6090 C   0  0  0  0  0  0  0  0  0  0  0  0
   -7.5020   23.6180  -31.2740 C   0  0  0  0  0  0  0  0  0  0  0  0
   -6.2050   23.5440  -30.7730 C   0  0  0  0  0  0  0  0  0  0  0  0
   -5.4870   24.7100  -30.2170 C   0  0  0  0  0  0  0  0  0  0  0  0
   -5.9040   25.3190  -28.9930 N   0  0  0  0  0  0  0  0  0  0  0  0
   -4.5350   25.2200  -30.8670 O   0  0  0  0  0  0  0  0  0  0  0  0
   -5.7430   22.2620  -30.8150 N   0  0  0  0  0  0  0  0  0  0  0  0
   -4.4100   21.8120  -30.5120 C   0  0  0  0  0  0  0  0  0  0  0  0
   -3.7740   22.3300  -29.5560 O   0  0  0  0  0  0  0  0  0  0  0  0
   -3.8350   20.7930  -31.2880 O   0  0  0  0  0  0  0  0  0  0  0  0
   -3.0930   20.9620  -32.5050 C   0  0  0  0  0  0  0  0  0  0  0  0
   -1.6700   21.4780  -32.2070 C   0  0  0  0  0  0  0  0  0  0  0  0
   -3.8310   21.9190  -33.4650 C   0  0  0  0  0  0  0  0  0  0  0  0
   -2.9910   19.5780  -33.1680 C   0  0  0  0  0  0  0  0  0  0  0  0
   -6.7580   21.5250  -31.3240 C   0  0  0  0  0  0  0  0  0  0  0  0
   -6.7930   20.1510  -31.5960 C   0  0  0  0  0  0  0  0  0  0  0  0
   -1.8427   15.0305  -35.4213 H   0  0  0  0  0  0  0  0  0  0  0  0
   -2.7791   13.7868  -36.3174 H   0  0  0  0  0  0  0  0  0  0  0  0
   -3.3279   15.4972  -36.3174 H   0  0  0  0  0  0  0  0  0  0  0  0
   -3.1314   15.8076  -33.0901 H   0  0  0  0  0  0  0  0  0  0  0  0
   -3.8472   16.5033  -34.5905 H   0  0  0  0  0  0  0  0  0  0  0  0
   -5.9166   14.9294  -33.8092 H   0  0  0  0  0  0  0  0  0  0  0  0
   -5.1842   15.2761  -32.1988 H   0  0  0  0  0  0  0  0  0  0  0  0
   -5.2631   18.8440  -33.9548 H   0  0  0  0  0  0  0  0  0  0  0  0
   -4.7817   17.4443  -34.9726 H   0  0  0  0  0  0  0  0  0  0  0  0
   -6.4864   18.0106  -34.9726 H   0  0  0  0  0  0  0  0  0  0  0  0
   -8.3193   17.9898  -33.4898 H   0  0  0  0  0  0  0  0  0  0  0  0
   -8.8072   17.6817  -31.7693 H   0  0  0  0  0  0  0  0  0  0  0  0
   -9.9950   20.0180  -32.8544 H   0  0  0  0  0  0  0  0  0  0  0  0
   -9.8629   22.4857  -32.3764 H   0  0  0  0  0  0  0  0  0  0  0  0
   -8.1267   24.5172  -31.3794 H   0  0  0  0  0  0  0  0  0  0  0  0
   -6.7900   25.0330  -28.5210 H   0  0  0  0  0  0  0  0  0  0  0  0
   -5.3720   26.1290  -28.6040 H   0  0  0  0  0  0  0  0  0  0  0  0
   -1.5201   21.5323  -31.1186 H   0  0  0  0  0  0  0  0  0  0  0  0
   -0.9314   20.7904  -32.6450 H   0  0  0  0  0  0  0  0  0  0  0  0
   -1.5438   22.4791  -32.6450 H   0  0  0  0  0  0  0  0  0  0  0  0
   -4.4003   22.6572  -32.8810 H   0  0  0  0  0  0  0  0  0  0  0  0
   -3.0981   22.4394  -34.0991 H   0  0  0  0  0  0  0  0  0  0  0  0
   -4.5206   21.3425  -34.0991 H   0  0  0  0  0  0  0  0  0  0  0  0
   -2.9338   18.8022  -32.3903 H   0  0  0  0  0  0  0  0  0  0  0  0
   -3.8788   19.4050  -33.7940 H   0  0  0  0  0  0  0  0  0  0  0  0
   -2.0874   19.5370  -33.7940 H   0  0  0  0  0  0  0  0  0  0  0  0
   -5.9183   19.5150  -31.3950 H   0  0  0  0  0  0  0  0  0  0  0  0
  1  2  1  0
  2  3  1  0
  3  4  1  0
  4  5  1  0
  5  6  1  0
  5  7  1  0
  7  8  2  0
  7  9  1  0
  9 10  1  0
 10 11  2  0
 11 12  1  0
 12 13  2  0
 13 14  1  0
 14 15  2  0
 15 16  1  0
 16 17  1  0
 16 18  2  0
 15 19  1  0
 19 20  1  0
 20 21  2  0
 20 22  1  0
 22 23  1  0
 23 24  1  0
 23 25  1  0
 23 26  1  0
 19 27  1  0
 27 28  2  0
 28 10  1  0
 27 13  1  0
  1 29  1  0
  1 30  1  0
  1 31  1  0
  3 32  1  0
  3 33  1  0
  4 34  1  0
  4 35  1  0
  6 36  1  0
  6 37  1  0
  6 38  1  0
  9 39  1  0
  9 40  1  0
 11 41  1  0
 12 42  1  0
 14 43  1  0
 17 44  1  0
 17 45  1  0
 24 46  1  0
 24 47  1  0
 24 48  1  0
 25 49  1  0
 25 50  1  0
 25 51  1  0
 26 52  1  0
 26 53  1  0
 26 54  1  0
 28 55  1  0
M  END
>  <UniqueID>  (88) 
87

>  <SMILES>  (88) 
COCCN(C)C(=O)Cc1ccc2cc(C(N)=O)n(C(=O)OC(C)(C)C)c2c1

>  <Energy>  (88) 
86.94298311865447

>  <Genealogy>  (88) 
COCCN(C)C(=O)Cc1ccc2cc(C(N)=O)n(C(=O)OC(C)(C)C)c2c1 (3D coordinates assigned)
COCCN(C)C(=O)Cc1ccc2cc(C(N)=O)n(C(=O)OC(C)(C)C)c2c1 (optimized conformer: 86.94298311865447 kcal/mol)

>  <smiles>  (88) 
COCCN(C)C(=O)Cc1ccc2cc(C(N)=O)n(C(=O)OC(C)(C)C)c2c1

>  <score_type>  (88) 
oracle

>  <origin>  (88) 
adg

>  <m_score__min__energy>  (88) 
-8.8300000000000001

>  <m_primary>  (88) 
energy

$$$$
88:0
     RDKit          3D

 48 51  0  0  0  0  0  0  0  0999 V2000
   -3.9640   25.6690  -30.8460 N   0  0  0  0  0  0  0  0  0  0  0  0
   -5.2320   25.1710  -30.4280 C   0  0  0  0  0  0  0  0  0  0  0  0
   -5.9040   25.8250  -29.5880 O   0  0  0  0  0  0  0  0  0  0  0  0
   -5.7230   23.8790  -30.9520 C   0  0  0  0  0  0  0  0  0  0  0  0
   -7.0740   23.5530  -31.0510 C   0  0  0  0  0  0  0  0  0  0  0  0
   -7.1080   22.3200  -31.6600 C   0  0  0  0  0  0  0  0  0  0  0  0
   -8.1900   21.5210  -32.0000 C   0  0  0  0  0  0  0  0  0  0  0  0
   -7.9350   20.2790  -32.6020 C   0  0  0  0  0  0  0  0  0  0  0  0
   -6.6000   19.8330  -32.8500 C   0  0  0  0  0  0  0  0  0  0  0  0
   -6.3400   18.5340  -33.4680 N   0  0  0  0  0  0  0  0  0  0  0  0
   -7.2110   17.3860  -33.1320 C   0  0  0  0  0  0  0  0  0  0  0  0
   -6.8660   16.1080  -33.9030 C   0  0  0  0  0  0  0  0  0  0  0  0
   -5.4740   15.9700  -34.0550 O   0  0  0  0  0  0  0  0  0  0  0  0
   -5.0240   16.9700  -34.9380 C   0  0  0  0  0  0  0  0  0  0  0  0
   -5.1290   18.3560  -34.2960 C   0  0  0  0  0  0  0  0  0  0  0  0
   -5.5300   20.6950  -32.4820 C   0  0  0  0  0  0  0  0  0  0  0  0
   -5.8190   21.9360  -31.9040 C   0  0  0  0  0  0  0  0  0  0  0  0
   -4.9540   22.8820  -31.4740 N   0  0  0  0  0  0  0  0  0  0  0  0
   -3.5210   22.7980  -31.5190 C   0  0  0  0  0  0  0  0  0  0  0  0
   -2.8370   23.1370  -30.5150 O   0  0  0  0  0  0  0  0  0  0  0  0
   -2.8950   22.3060  -32.6700 O   0  0  0  0  0  0  0  0  0  0  0  0
   -1.9410   21.2450  -32.6510 C   0  0  0  0  0  0  0  0  0  0  0  0
   -2.4950   20.0040  -31.9550 C   0  0  0  0  0  0  0  0  0  0  0  0
   -1.9540   18.8000  -32.7230 C   0  0  0  0  0  0  0  0  0  0  0  0
   -1.2160   19.3420  -33.9420 C   0  0  0  0  0  0  0  0  0  0  0  0
   -1.6240   20.8000  -34.0670 C   0  0  0  0  0  0  0  0  0  0  0  0
   -3.0780   25.2910  -30.4420 H   0  0  0  0  0  0  0  0  0  0  0  0
   -7.9314   24.1540  -30.7138 H   0  0  0  0  0  0  0  0  0  0  0  0
   -9.2203   21.8521  -31.8030 H   0  0  0  0  0  0  0  0  0  0  0  0
   -8.7799   19.6357  -32.8888 H   0  0  0  0  0  0  0  0  0  0  0  0
   -7.1146   17.1796  -32.0558 H   0  0  0  0  0  0  0  0  0  0  0  0
   -8.2367   17.6659  -33.4141 H   0  0  0  0  0  0  0  0  0  0  0  0
   -7.2554   15.2394  -33.3518 H   0  0  0  0  0  0  0  0  0  0  0  0
   -7.3230   16.1676  -34.9018 H   0  0  0  0  0  0  0  0  0  0  0  0
   -3.9738   16.7732  -35.1994 H   0  0  0  0  0  0  0  0  0  0  0  0
   -5.6550   16.9521  -35.8389 H   0  0  0  0  0  0  0  0  0  0  0  0
   -4.2460   18.5120  -33.6588 H   0  0  0  0  0  0  0  0  0  0  0  0
   -5.1880   19.0875  -35.1154 H   0  0  0  0  0  0  0  0  0  0  0  0
   -4.4868   20.3893  -32.6500 H   0  0  0  0  0  0  0  0  0  0  0  0
   -1.0574   21.6343  -32.1241 H   0  0  0  0  0  0  0  0  0  0  0  0
   -2.1560   19.9714  -30.9090 H   0  0  0  0  0  0  0  0  0  0  0  0
   -3.5950   20.0096  -31.9466 H   0  0  0  0  0  0  0  0  0  0  0  0
   -1.2632   18.2263  -32.0877 H   0  0  0  0  0  0  0  0  0  0  0  0
   -2.7712   18.1289  -33.0259 H   0  0  0  0  0  0  0  0  0  0  0  0
   -0.1286   19.2608  -33.7973 H   0  0  0  0  0  0  0  0  0  0  0  0
   -1.4684   18.7746  -34.8499 H   0  0  0  0  0  0  0  0  0  0  0  0
   -0.7997   21.3972  -34.4840 H   0  0  0  0  0  0  0  0  0  0  0  0
   -2.4825   20.9312  -34.7421 H   0  0  0  0  0  0  0  0  0  0  0  0
  1  2  1  0
  2  3  2  0
  2  4  1  0
  4  5  2  0
  5  6  1  0
  6  7  2  0
  7  8  1  0
  8  9  2  0
  9 10  1  0
 10 11  1  0
 11 12  1  0
 12 13  1  0
 13 14  1  0
 14 15  1  0
  9 16  1  0
 16 17  2  0
 17 18  1  0
 18 19  1  0
 19 20  2  0
 19 21  1  0
 21 22  1  0
 22 23  1  0
 23 24  1  0
 24 25  1  0
 25 26  1  0
 18  4  1  0
 26 22  1  0
 17  6  1  0
 15 10  1  0
  1 27  1  0
  5 28  1  0
  7 29  1  0
  8 30  1  0
 11 31  1  0
 11 32  1  0
 12 33  1  0
 12 34  1  0
 14 35  1  0
 14 36  1  0
 15 37  1  0
 15 38  1  0
 16 39  1  0
 22 40  1  0
 23 41  1  0
 23 42  1  0
 24 43  1  0
 24 44  1  0
 25 45  1  0
 25 46  1  0
 26 47  1  0
 26 48  1  0
M  CHG  1   1  -1
M  END
>  <UniqueID>  (89) 
88

>  <SMILES>  (89) 
[NH-]C(=O)c1cc2ccc(N3CCOCC3)cc2n1C(=O)OC1CCCC1

>  <Energy>  (89) 
94.04201945372552

>  <Genealogy>  (89) 
[NH-]C(=O)c1cc2ccc(N3CCOCC3)cc2n1C(=O)OC1CCCC1 (protonated)
[NH-]C(=O)c1cc2ccc(N3CCOCC3)cc2n1C(=O)OC1CCCC1 (3D coordinates assigned)
[NH-]C(=O)c1cc2ccc(N3CCOCC3)cc2n1C(=O)OC1CCCC1 (nonaromatic ring conformer: 94.04201945372552 kcal/mol)

>  <smiles>  (89) 
NC(=O)c1cc2ccc(N3CCOCC3)cc2n1C(=O)OC1CCCC1

>  <score_type>  (89) 
oracle

>  <origin>  (89) 
adg

>  <m_score__min__energy>  (89) 
-11.19

>  <m_primary>  (89) 
energy

$$$$
89:0
     RDKit          3D

 62 64  0  0  0  0  0  0  0  0999 V2000
   -1.4960   19.4500  -33.5920 C   0  0  0  0  0  0  0  0  0  0  0  0
   -2.6020   19.2680  -32.6110 C   0  0  0  0  0  0  0  0  0  0  0  0
   -3.8930   18.8610  -33.2890 C   0  0  0  0  0  0  0  0  0  0  0  0
   -2.7120   20.2430  -31.5460 C   0  0  0  0  0  0  0  0  0  0  0  0
   -2.7460   21.7050  -31.7290 C   0  0  2  0  0  0  0  0  0  0  0  0
   -2.3900   22.4700  -30.4920 C   0  0  0  0  0  0  0  0  0  0  0  0
   -1.7860   23.5530  -30.4490 O   0  0  0  0  0  0  0  0  0  0  0  0
   -2.7690   21.9200  -29.2080 N   0  0  0  0  0  0  0  0  0  0  0  0
   -2.4220   22.6960  -27.7320 S   0  0  0  0  0  0  0  0  0  0  0  0
   -3.5050   23.6040  -27.2360 O   0  0  0  0  0  0  0  0  0  0  0  0
   -2.2480   21.6440  -26.6600 O   0  0  0  0  0  0  0  0  0  0  0  0
   -0.8950   23.6140  -27.8040 C   0  0  0  0  0  0  0  0  0  0  0  0
   -1.2590   25.0880  -27.9250 C   0  0  0  0  0  0  0  0  0  0  0  0
   -2.3280   25.3060  -28.8670 N   0  0  0  0  0  0  0  0  0  0  0  0
   -4.0850   22.1680  -32.2250 C   0  0  0  0  0  0  0  0  0  0  0  0
   -4.1160   22.3200  -33.5010 O   0  0  0  0  0  0  0  0  0  0  0  0
   -5.2410   22.4520  -31.5080 N   0  0  0  0  0  0  0  0  0  0  0  0
   -5.5980   23.4970  -30.7470 C   0  0  0  0  0  0  0  0  0  0  0  0
   -4.8190   24.5840  -30.1940 C   0  0  0  0  0  0  0  0  0  0  0  0
   -5.0570   24.8890  -28.7890 N   0  0  0  0  0  0  0  0  0  0  0  0
   -3.9810   25.2960  -30.7500 O   0  0  0  0  0  0  0  0  0  0  0  0
   -6.9520   23.3640  -30.3700 C   0  0  0  0  0  0  0  0  0  0  0  0
   -7.4110   22.2010  -30.9210 C   0  0  0  0  0  0  0  0  0  0  0  0
   -8.6640   21.6370  -30.8370 C   0  0  0  0  0  0  0  0  0  0  0  0
   -8.9180   20.4430  -31.4740 C   0  0  0  0  0  0  0  0  0  0  0  0
   -7.8810   19.8750  -32.1740 C   0  0  0  0  0  0  0  0  0  0  0  0
   -8.1970   18.5650  -32.8510 C   0  0  0  0  0  0  0  0  0  0  0  0
   -7.1570   17.5740  -32.5270 C   0  0  0  0  0  0  0  0  0  0  0  0
   -6.5100   16.6560  -33.3250 C   0  0  0  0  0  0  0  0  0  0  0  0
   -5.6490   15.9840  -32.5450 N   0  0  0  0  0  0  0  0  0  0  0  0
   -5.7420   16.4460  -31.3180 N   0  0  0  0  0  0  0  0  0  0  0  0
   -6.6500   17.4270  -31.2310 C   0  0  0  0  0  0  0  0  0  0  0  0
   -6.6200   20.4490  -32.2550 C   0  0  0  0  0  0  0  0  0  0  0  0
   -6.3610   21.6610  -31.6050 C   0  0  0  0  0  0  0  0  0  0  0  0
   -0.5498   19.6057  -33.0531 H   0  0  0  0  0  0  0  0  0  0  0  0
   -1.4149   18.5531  -34.2237 H   0  0  0  0  0  0  0  0  0  0  0  0
   -1.7066   20.3256  -34.2237 H   0  0  0  0  0  0  0  0  0  0  0  0
   -2.2966   18.4041  -32.0024 H   0  0  0  0  0  0  0  0  0  0  0  0
   -4.6486   18.6228  -32.5259 H   0  0  0  0  0  0  0  0  0  0  0  0
   -4.2542   19.6888  -33.9168 H   0  0  0  0  0  0  0  0  0  0  0  0
   -3.7141   17.9757  -33.9168 H   0  0  0  0  0  0  0  0  0  0  0  0
   -3.6438   19.9935  -31.0174 H   0  0  0  0  0  0  0  0  0  0  0  0
   -1.7246   20.1287  -31.0748 H   0  0  0  0  0  0  0  0  0  0  0  0
   -1.9757   21.9157  -32.4855 H   0  0  0  0  0  0  0  0  0  0  0  0
   -3.2850   21.0000  -29.1940 H   0  0  0  0  0  0  0  0  0  0  0  0
   -0.3101   23.4445  -26.8879 H   0  0  0  0  0  0  0  0  0  0  0  0
   -0.2862   23.2912  -28.6614 H   0  0  0  0  0  0  0  0  0  0  0  0
   -1.5746   25.4578  -26.9383 H   0  0  0  0  0  0  0  0  0  0  0  0
   -0.3719   25.6277  -28.2879 H   0  0  0  0  0  0  0  0  0  0  0  0
   -1.9860   25.6510  -29.7680 H   0  0  0  0  0  0  0  0  0  0  0  0
   -2.9920   24.5130  -28.9150 H   0  0  0  0  0  0  0  0  0  0  0  0
   -4.3910   25.4830  -28.2650 H   0  0  0  0  0  0  0  0  0  0  0  0
   -5.9150   24.5090  -28.3050 H   0  0  0  0  0  0  0  0  0  0  0  0
   -7.5291   24.0651  -29.7492 H   0  0  0  0  0  0  0  0  0  0  0  0
   -9.4583   22.1377  -30.2639 H   0  0  0  0  0  0  0  0  0  0  0  0
   -9.9075   19.9649  -31.4247 H   0  0  0  0  0  0  0  0  0  0  0  0
   -9.1730   18.1985  -32.5002 H   0  0  0  0  0  0  0  0  0  0  0  0
   -8.2284   18.7166  -33.9401 H   0  0  0  0  0  0  0  0  0  0  0  0
   -6.6696   16.5022  -34.4024 H   0  0  0  0  0  0  0  0  0  0  0  0
   -5.1970   16.1250  -30.4760 H   0  0  0  0  0  0  0  0  0  0  0  0
   -6.9358   17.9951  -30.3334 H   0  0  0  0  0  0  0  0  0  0  0  0
   -5.8247   19.9517  -32.8297 H   0  0  0  0  0  0  0  0  0  0  0  0
  1  2  1  0
  2  3  1  0
  2  4  1  0
  4  5  1  0
  5  6  1  0
  6  7  2  0
  6  8  1  0
  8  9  1  0
  9 10  2  0
  9 11  2  0
  9 12  1  0
 12 13  1  0
 13 14  1  0
  5 15  1  0
 15 16  2  0
 15 17  1  0
 17 18  1  0
 18 19  1  0
 19 20  1  0
 19 21  2  0
 18 22  2  0
 22 23  1  0
 23 24  2  0
 24 25  1  0
 25 26  2  0
 26 27  1  0
 27 28  1  0
 28 29  1  0
 29 30  2  0
 30 31  1  0
 31 32  1  0
 26 33  1  0
 33 34  2  0
 34 17  1  0
 34 23  1  0
 32 28  2  0
  1 35  1  0
  1 36  1  0
  1 37  1  0
  2 38  1  0
  3 39  1  0
  3 40  1  0
  3 41  1  0
  4 42  1  0
  4 43  1  0
  5 44  1  6
  8 45  1  0
 12 46  1  0
 12 47  1  0
 13 48  1  0
 13 49  1  0
 14 50  1  0
 14 51  1  0
 20 52  1  0
 20 53  1  0
 22 54  1  0
 24 55  1  0
 25 56  1  0
 27 57  1  0
 27 58  1  0
 29 59  1  0
 31 60  1  0
 32 61  1  0
 33 62  1  0
M  END
>  <smiles>  (90) 
CC(C)C[C@H](C(=O)NS(=O)(=O)CCN)C(=O)n1c(C(N)=O)cc2ccc(Cc3cn[nH]c3)cc21

>  <score_type>  (90) 
oracle

>  <origin>  (90) 
adg

>  <m_score__min__energy>  (90) 
-11.09

>  <m_primary>  (90) 
energy

$$$$
90:0
     RDKit          3D

 46 48  0  0  0  0  0  0  0  0999 V2000
   -2.7910   21.0220  -28.7050 C   0  0  0  0  0  0  0  0  0  0  0  0
   -1.4880   21.5980  -29.0780 N   0  0  0  0  0  0  0  0  0  0  0  0
   -0.3530   20.9190  -28.4010 C   0  0  0  0  0  0  0  0  0  0  0  0
    0.4910   20.0240  -29.3300 C   0  0  0  0  0  0  0  0  0  0  0  0
   -0.3850   19.3370  -30.3740 C   0  0  0  0  0  0  0  0  0  0  0  0
   -1.1150   20.3690  -31.2570 C   0  0  1  0  0  0  0  0  0  0  0  0
   -2.3770   19.8520  -31.6850 O   0  0  0  0  0  0  0  0  0  0  0  0
   -3.0510   20.3180  -32.8210 C   0  0  0  0  0  0  0  0  0  0  0  0
   -2.4130   20.5750  -33.8790 O   0  0  0  0  0  0  0  0  0  0  0  0
   -4.4720   20.5230  -32.7780 N   0  0  0  0  0  0  0  0  0  0  0  0
   -5.4330   19.8100  -33.4280 C   0  0  0  0  0  0  0  0  0  0  0  0
   -5.1970   18.7630  -34.4420 C   0  0  0  0  0  0  0  0  0  0  0  0
   -3.9140   18.1550  -34.5940 N   0  0  0  0  0  0  0  0  0  0  0  0
   -6.1300   18.4360  -35.2230 O   0  0  0  0  0  0  0  0  0  0  0  0
   -6.7040   20.2320  -33.0440 C   0  0  0  0  0  0  0  0  0  0  0  0
   -6.4910   21.2450  -32.1370 C   0  0  0  0  0  0  0  0  0  0  0  0
   -7.4060   22.0160  -31.4260 C   0  0  0  0  0  0  0  0  0  0  0  0
   -6.9030   22.9690  -30.5240 C   0  0  0  0  0  0  0  0  0  0  0  0
   -5.5060   23.1180  -30.3370 C   0  0  0  0  0  0  0  0  0  0  0  0
   -4.9790   24.1500  -29.3790 C   0  0  0  0  0  0  0  0  0  0  0  0
   -3.8760   24.9290  -30.0190 C   0  0  0  0  0  0  0  0  0  0  0  0
   -4.0440   25.4550  -31.1510 O   0  0  0  0  0  0  0  0  0  0  0  0
   -2.6760   25.1170  -29.3440 O   0  0  0  0  0  0  0  0  0  0  0  0
   -4.6090   22.3220  -31.0830 C   0  0  0  0  0  0  0  0  0  0  0  0
   -5.1360   21.4000  -31.9910 C   0  0  0  0  0  0  0  0  0  0  0  0
   -1.3230   21.7250  -30.5410 C   0  0  0  0  0  0  0  0  0  0  0  0
   -2.8752   20.9848  -27.6089 H   0  0  0  0  0  0  0  0  0  0  0  0
   -3.5987   21.6469  -29.1138 H   0  0  0  0  0  0  0  0  0  0  0  0
   -2.8724   20.0040  -29.1138 H   0  0  0  0  0  0  0  0  0  0  0  0
    0.3048   21.6898  -27.9731 H   0  0  0  0  0  0  0  0  0  0  0  0
   -0.7891   20.2595  -27.6362 H   0  0  0  0  0  0  0  0  0  0  0  0
    1.2413   20.6442  -29.8422 H   0  0  0  0  0  0  0  0  0  0  0  0
    0.9806   19.2503  -28.7203 H   0  0  0  0  0  0  0  0  0  0  0  0
    0.2480   18.7029  -31.0121 H   0  0  0  0  0  0  0  0  0  0  0  0
   -1.1394   18.7310  -29.8509 H   0  0  0  0  0  0  0  0  0  0  0  0
   -0.4704   20.5524  -32.1292 H   0  0  0  0  0  0  0  0  0  0  0  0
   -3.7760   17.3870  -35.2870 H   0  0  0  0  0  0  0  0  0  0  0  0
   -3.0780   18.5240  -34.0870 H   0  0  0  0  0  0  0  0  0  0  0  0
   -7.6711   19.8395  -33.3915 H   0  0  0  0  0  0  0  0  0  0  0  0
   -8.4890   21.8835  -31.5658 H   0  0  0  0  0  0  0  0  0  0  0  0
   -7.5997   23.6049  -29.9581 H   0  0  0  0  0  0  0  0  0  0  0  0
   -5.7927   24.8349  -29.0982 H   0  0  0  0  0  0  0  0  0  0  0  0
   -4.5897   23.6441  -28.4832 H   0  0  0  0  0  0  0  0  0  0  0  0
   -3.5217   22.4254  -30.9523 H   0  0  0  0  0  0  0  0  0  0  0  0
   -0.4480   22.3615  -30.7391 H   0  0  0  0  0  0  0  0  0  0  0  0
   -2.2527   22.1608  -30.9356 H   0  0  0  0  0  0  0  0  0  0  0  0
  1  2  1  0
  2  3  1  0
  3  4  1  0
  4  5  1  0
  5  6  1  0
  6  7  1  0
  7  8  1  0
  8  9  2  0
  8 10  1  0
 10 11  1  0
 11 12  1  0
 12 13  1  0
 12 14  2  0
 11 15  2  0
 15 16  1  0
 16 17  2  0
 17 18  1  0
 18 19  2  0
 19 20  1  0
 20 21  1  0
 21 22  2  0
 21 23  1  0
 19 24  1  0
 24 25  2  0
  6 26  1  0
 26  2  1  0
 25 10  1  0
 25 16  1  0
  1 27  1  0
  1 28  1  0
  1 29  1  0
  3 30  1  0
  3 31  1  0
  4 32  1  0
  4 33  1  0
  5 34  1  0
  5 35  1  0
  6 36  1  6
 13 37  1  0
 13 38  1  0
 15 39  1  0
 17 40  1  0
 18 41  1  0
 20 42  1  0
 20 43  1  0
 24 44  1  0
 26 45  1  0
 26 46  1  0
M  CHG  1  23  -1
M  END
>  <UniqueID>  (91) 
89

>  <SMILES>  (91) 
CN1CCC[C@@H](OC(=O)n2c(C(N)=O)cc3ccc(CC(=O)[O-])cc32)C1

>  <Energy>  (91) 
90.47867926999294

>  <Genealogy>  (91) 
CN1CCC[C@@H](OC(=O)n2c(C(N)=O)cc3ccc(CC(=O)[O-])cc32)C1 (protonated)
CN1CCC[C@@H](OC(=O)n2c(C(N)=O)cc3ccc(CC(=O)[O-])cc32)C1 (3D coordinates assigned)
CN1CCC[C@@H](OC(=O)n2c(C(N)=O)cc3ccc(CC(=O)[O-])cc32)C1 (nonaromatic ring conformer: 90.47867926999294 kcal/mol)

>  <smiles>  (91) 
CN1CCC[C@@H](OC(=O)n2c(C(N)=O)cc3ccc(CC(=O)O)cc32)C1

>  <score_type>  (91) 
oracle

>  <origin>  (91) 
adg

>  <m_score__min__energy>  (91) 
-10.44

>  <m_primary>  (91) 
energy

$$$$
91:0
     RDKit          3D

 36 38  0  0  0  0  0  0  0  0999 V2000
   -3.9240   25.6710  -30.7910 N   0  0  0  0  0  0  0  0  0  0  0  0
   -5.1000   24.9200  -30.4950 C   0  0  0  0  0  0  0  0  0  0  0  0
   -5.9220   25.3680  -29.6530 O   0  0  0  0  0  0  0  0  0  0  0  0
   -5.3610   23.6540  -31.2100 C   0  0  0  0  0  0  0  0  0  0  0  0
   -6.6190   23.2880  -31.6850 C   0  0  0  0  0  0  0  0  0  0  0  0
   -6.4610   22.0200  -32.1970 C   0  0  0  0  0  0  0  0  0  0  0  0
   -7.3860   21.1820  -32.8110 C   0  0  0  0  0  0  0  0  0  0  0  0
   -6.9380   19.9330  -33.2730 C   0  0  0  0  0  0  0  0  0  0  0  0
   -5.5850   19.5490  -33.1100 C   0  0  0  0  0  0  0  0  0  0  0  0
   -5.1170   18.2420  -33.6180 C   0  0  0  0  0  0  0  0  0  0  0  0
   -4.4380   18.2190  -34.8450 C   0  0  0  0  0  0  0  0  0  0  0  0
   -4.0070   17.0150  -35.3980 C   0  0  0  0  0  0  0  0  0  0  0  0
   -4.2530   15.8020  -34.7400 C   0  0  0  0  0  0  0  0  0  0  0  0
   -3.8090   14.5250  -35.3420 C   0  0  0  0  0  0  0  0  0  0  0  0
   -4.0840   13.4260  -34.7910 O   0  0  0  0  0  0  0  0  0  0  0  0
   -3.0830   14.5200  -36.5280 O   0  0  0  0  0  0  0  0  0  0  0  0
   -4.9210   15.8200  -33.5030 C   0  0  0  0  0  0  0  0  0  0  0  0
   -5.3350   17.0310  -32.9130 C   0  0  0  0  0  0  0  0  0  0  0  0
   -6.0370   17.0010  -31.5670 C   0  0  0  0  0  0  0  0  0  0  0  0
   -7.4100   17.0520  -31.7300 F   0  0  0  0  0  0  0  0  0  0  0  0
   -5.6990   15.8400  -30.8960 F   0  0  0  0  0  0  0  0  0  0  0  0
   -5.6690   18.0820  -30.7840 F   0  0  0  0  0  0  0  0  0  0  0  0
   -4.6710   20.4300  -32.4950 C   0  0  0  0  0  0  0  0  0  0  0  0
   -5.1470   21.6610  -32.0290 C   0  0  0  0  0  0  0  0  0  0  0  0
   -4.4570   22.6550  -31.4260 N   0  0  0  0  0  0  0  0  0  0  0  0
   -3.0470   22.6710  -31.1500 C   0  0  0  0  0  0  0  0  0  0  0  0
   -2.2330   22.1720  -31.9700 O   0  0  0  0  0  0  0  0  0  0  0  0
   -2.5650   23.2630  -29.9900 O   0  0  0  0  0  0  0  0  0  0  0  0
   -2.9760   25.2980  -30.5600 H   0  0  0  0  0  0  0  0  0  0  0  0
   -7.5422   23.8855  -31.6568 H   0  0  0  0  0  0  0  0  0  0  0  0
   -8.4358   21.4877  -32.9311 H   0  0  0  0  0  0  0  0  0  0  0  0
   -7.6441   19.2480  -33.7653 H   0  0  0  0  0  0  0  0  0  0  0  0
   -4.2436   19.1621  -35.3767 H   0  0  0  0  0  0  0  0  0  0  0  0
   -3.4698   17.0163  -36.3579 H   0  0  0  0  0  0  0  0  0  0  0  0
   -5.1244   14.8707  -32.9858 H   0  0  0  0  0  0  0  0  0  0  0  0
   -3.6113   20.1566  -32.3845 H   0  0  0  0  0  0  0  0  0  0  0  0
  1  2  1  0
  2  3  2  0
  2  4  1  0
  4  5  2  0
  5  6  1  0
  6  7  2  0
  7  8  1  0
  8  9  2  0
  9 10  1  0
 10 11  2  0
 11 12  1  0
 12 13  2  0
 13 14  1  0
 14 15  2  0
 14 16  1  0
 13 17  1  0
 17 18  2  0
 18 19  1  0
 19 20  1  0
 19 21  1  0
 19 22  1  0
  9 23  1  0
 23 24  2  0
 24 25  1  0
 25 26  1  0
 26 27  2  0
 26 28  1  0
 25  4  1  0
 24  6  1  0
 18 10  1  0
  1 29  1  0
  5 30  1  0
  7 31  1  0
  8 32  1  0
 11 33  1  0
 12 34  1  0
 17 35  1  0
 23 36  1  0
M  CHG  3   1  -1  16  -1  28  -1
M  END
>  <UniqueID>  (92) 
90

>  <SMILES>  (92) 
[NH-]C(=O)c1cc2ccc(-c3ccc(C(=O)[O-])cc3C(F)(F)F)cc2n1C(=O)[O-]

>  <Energy>  (92) 
88.96832599170952

>  <Genealogy>  (92) 
[NH-]C(=O)c1cc2ccc(-c3ccc(C(=O)[O-])cc3C(F)(F)F)cc2n1C(=O)[O-] (protonated)
[NH-]C(=O)c1cc2ccc(-c3ccc(C(=O)[O-])cc3C(F)(F)F)cc2n1C(=O)[O-] (3D coordinates assigned)
[NH-]C(=O)c1cc2ccc(-c3ccc(C(=O)[O-])cc3C(F)(F)F)cc2n1C(=O)[O-] (optimized conformer: 88.96832599170952 kcal/mol)

>  <smiles>  (92) 
NC(=O)c1cc2ccc(-c3ccc(C(=O)O)cc3C(F)(F)F)cc2n1C(=O)O

>  <score_type>  (92) 
oracle

>  <origin>  (92) 
adg

>  <m_score__min__energy>  (92) 
-9.9600000000000009

>  <m_primary>  (92) 
energy

$$$$
92:0
     RDKit          3D

 44 45  0  0  0  0  0  0  0  0999 V2000
   -4.2970   16.5600  -34.9610 C   0  0  0  0  0  0  0  0  0  0  0  0
   -4.6970   17.5860  -33.8830 C   0  0  0  0  0  0  0  0  0  0  0  0
   -3.4280   18.2730  -33.3600 C   0  0  0  0  0  0  0  0  0  0  0  0
   -5.6350   18.6560  -34.4750 C   0  0  0  0  0  0  0  0  0  0  0  0
   -5.3160   16.9310  -32.7660 O   0  0  0  0  0  0  0  0  0  0  0  0
   -6.3600   17.4430  -31.9790 C   0  0  0  0  0  0  0  0  0  0  0  0
   -6.1370   17.9040  -30.8260 O   0  0  0  0  0  0  0  0  0  0  0  0
   -7.6900   17.4470  -32.5090 N   0  0  0  0  0  0  0  0  0  0  0  0
   -8.7950   18.1660  -31.8720 C   0  0  0  0  0  0  0  0  0  0  0  0
   -9.2350   19.3600  -32.7260 C   0  0  0  0  0  0  0  0  0  0  0  0
   -8.5250   20.6240  -32.3170 C   0  0  0  0  0  0  0  0  0  0  0  0
   -9.2710   21.7740  -31.9610 C   0  0  0  0  0  0  0  0  0  0  0  0
   -8.6240   22.9350  -31.5100 C   0  0  0  0  0  0  0  0  0  0  0  0
   -7.2350   22.9120  -31.4120 C   0  0  0  0  0  0  0  0  0  0  0  0
   -6.3610   23.8910  -31.0020 C   0  0  0  0  0  0  0  0  0  0  0  0
   -5.0950   23.3180  -31.0910 C   0  0  0  0  0  0  0  0  0  0  0  0
   -3.8610   24.0000  -30.6450 C   0  0  0  0  0  0  0  0  0  0  0  0
   -3.8560   25.4160  -30.4770 N   0  0  0  0  0  0  0  0  0  0  0  0
   -2.8210   23.3430  -30.3760 O   0  0  0  0  0  0  0  0  0  0  0  0
   -5.1810   22.0370  -31.5500 N   0  0  0  0  0  0  0  0  0  0  0  0
   -4.1060   21.1200  -31.8190 C   0  0  0  0  0  0  0  0  0  0  0  0
   -3.8330   20.2040  -31.0020 O   0  0  0  0  0  0  0  0  0  0  0  0
   -3.3460   21.2520  -32.9740 O   0  0  0  0  0  0  0  0  0  0  0  0
   -6.4990   21.8020  -31.7370 C   0  0  0  0  0  0  0  0  0  0  0  0
   -7.1160   20.6390  -32.2080 C   0  0  0  0  0  0  0  0  0  0  0  0
   -3.9383   15.6400  -34.4764 H   0  0  0  0  0  0  0  0  0  0  0  0
   -5.1704   16.3276  -35.5880 H   0  0  0  0  0  0  0  0  0  0  0  0
   -3.4968   16.9801  -35.5880 H   0  0  0  0  0  0  0  0  0  0  0  0
   -3.4356   18.2689  -32.2600 H   0  0  0  0  0  0  0  0  0  0  0  0
   -2.5419   17.7314  -33.7226 H   0  0  0  0  0  0  0  0  0  0  0  0
   -3.3971   19.3111  -33.7226 H   0  0  0  0  0  0  0  0  0  0  0  0
   -6.1208   19.2101  -33.6583 H   0  0  0  0  0  0  0  0  0  0  0  0
   -5.0515   19.3528  -35.0946 H   0  0  0  0  0  0  0  0  0  0  0  0
   -6.4022   18.1687  -35.0946 H   0  0  0  0  0  0  0  0  0  0  0  0
   -7.8410   17.0610  -33.4690 H   0  0  0  0  0  0  0  0  0  0  0  0
   -9.6458   17.4803  -31.7461 H   0  0  0  0  0  0  0  0  0  0  0  0
   -8.4545   18.5393  -30.8949 H   0  0  0  0  0  0  0  0  0  0  0  0
   -9.0074   19.1478  -33.7811 H   0  0  0  0  0  0  0  0  0  0  0  0
  -10.3151   19.5087  -32.5801 H   0  0  0  0  0  0  0  0  0  0  0  0
  -10.3681   21.7571  -32.0387 H   0  0  0  0  0  0  0  0  0  0  0  0
   -9.1964   23.8353  -31.2422 H   0  0  0  0  0  0  0  0  0  0  0  0
   -6.6093   24.9109  -30.6733 H   0  0  0  0  0  0  0  0  0  0  0  0
   -3.4990   26.0450  -31.2310 H   0  0  0  0  0  0  0  0  0  0  0  0
   -6.5196   19.7577  -32.4867 H   0  0  0  0  0  0  0  0  0  0  0  0
  1  2  1  0
  2  3  1  0
  2  4  1  0
  2  5  1  0
  5  6  1  0
  6  7  2  0
  6  8  1  0
  8  9  1  0
  9 10  1  0
 10 11  1  0
 11 12  2  0
 12 13  1  0
 13 14  2  0
 14 15  1  0
 15 16  2  0
 16 17  1  0
 17 18  1  0
 17 19  2  0
 16 20  1  0
 20 21  1  0
 21 22  2  0
 21 23  1  0
 20 24  1  0
 24 25  2  0
 25 11  1  0
 24 14  1  0
  1 26  1  0
  1 27  1  0
  1 28  1  0
  3 29  1  0
  3 30  1  0
  3 31  1  0
  4 32  1  0
  4 33  1  0
  4 34  1  0
  8 35  1  0
  9 36  1  0
  9 37  1  0
 10 38  1  0
 10 39  1  0
 12 40  1  0
 13 41  1  0
 15 42  1  0
 18 43  1  0
 25 44  1  0
M  CHG  2  18  -1  23  -1
M  END
>  <UniqueID>  (93) 
91

>  <SMILES>  (93) 
CC(C)(C)OC(=O)NCCc1ccc2cc(C([NH-])=O)n(C(=O)[O-])c2c1

>  <Energy>  (93) 
70.65254062968765

>  <Genealogy>  (93) 
CC(C)(C)OC(=O)NCCc1ccc2cc(C([NH-])=O)n(C(=O)[O-])c2c1 (protonated)
CC(C)(C)OC(=O)NCCc1ccc2cc(C([NH-])=O)n(C(=O)[O-])c2c1 (3D coordinates assigned)
CC(C)(C)OC(=O)NCCc1ccc2cc(C([NH-])=O)n(C(=O)[O-])c2c1 (optimized conformer: 70.65254062968765 kcal/mol)

>  <smiles>  (93) 
CC(C)(C)OC(=O)NCCc1ccc2cc(C(N)=O)n(C(=O)O)c2c1

>  <score_type>  (93) 
oracle

>  <origin>  (93) 
adg

>  <m_score__min__energy>  (93) 
-11.31

>  <m_primary>  (93) 
energy

$$$$
93:0
     RDKit          3D

 47 51  0  0  0  0  0  0  0  0999 V2000
   -5.8090   25.1510  -29.1550 N   0  0  0  0  0  0  0  0  0  0  0  0
   -5.5510   24.5290  -30.4170 C   0  0  0  0  0  0  0  0  0  0  0  0
   -4.7570   25.0890  -31.2170 O   0  0  0  0  0  0  0  0  0  0  0  0
   -6.2100   23.2540  -30.7900 C   0  0  0  0  0  0  0  0  0  0  0  0
   -7.5710   22.9870  -30.6280 C   0  0  0  0  0  0  0  0  0  0  0  0
   -7.7590   21.7220  -31.1370 C   0  0  0  0  0  0  0  0  0  0  0  0
   -8.9140   20.9480  -31.2140 C   0  0  0  0  0  0  0  0  0  0  0  0
   -8.8070   19.6580  -31.7610 C   0  0  0  0  0  0  0  0  0  0  0  0
   -7.5560   19.1660  -32.2130 C   0  0  0  0  0  0  0  0  0  0  0  0
   -7.4380   17.7690  -32.7580 C   0  0  0  0  0  0  0  0  0  0  0  0
   -6.1930   17.6250  -33.5150 N   0  0  0  0  0  0  0  0  0  0  0  0
   -5.7480   18.3810  -34.5510 C   0  0  0  0  0  0  0  0  0  0  0  0
   -6.4080   19.3220  -35.0650 O   0  0  0  0  0  0  0  0  0  0  0  0
   -4.5410   18.0330  -34.9650 O   0  0  0  0  0  0  0  0  0  0  0  0
   -4.1770   17.0390  -34.1890 C   0  0  0  0  0  0  0  0  0  0  0  0
   -2.9900   16.3140  -34.1980 C   0  0  0  0  0  0  0  0  0  0  0  0
   -2.8600   15.2970  -33.2330 C   0  0  0  0  0  0  0  0  0  0  0  0
   -3.8720   15.0510  -32.3390 N   0  0  0  0  0  0  0  0  0  0  0  0
   -5.0330   15.7700  -32.3430 C   0  0  0  0  0  0  0  0  0  0  0  0
   -5.1720   16.7780  -33.2940 C   0  0  0  0  0  0  0  0  0  0  0  0
   -6.4070   19.9810  -32.1170 C   0  0  0  0  0  0  0  0  0  0  0  0
   -6.5480   21.2660  -31.5840 C   0  0  0  0  0  0  0  0  0  0  0  0
   -5.5920   22.1950  -31.3850 N   0  0  0  0  0  0  0  0  0  0  0  0
   -4.2010   22.0700  -31.7150 C   0  0  0  0  0  0  0  0  0  0  0  0
   -3.3250   22.3270  -30.8470 O   0  0  0  0  0  0  0  0  0  0  0  0
   -3.7830   21.7280  -33.1140 C   0  0  0  0  0  0  0  0  0  0  0  0
   -2.6060   20.8080  -33.0760 C   0  0  0  0  0  0  0  0  0  0  0  0
   -2.5950   19.5280  -32.5360 C   0  0  0  0  0  0  0  0  0  0  0  0
   -1.3790   18.8620  -32.7290 C   0  0  0  0  0  0  0  0  0  0  0  0
   -0.4400   19.6070  -33.4310 C   0  0  0  0  0  0  0  0  0  0  0  0
   -1.1240   21.0940  -33.8160 S   0  0  0  0  0  0  0  0  0  0  0  0
   -5.3650   26.0670  -28.9250 H   0  0  0  0  0  0  0  0  0  0  0  0
   -6.4000   24.6930  -28.4270 H   0  0  0  0  0  0  0  0  0  0  0  0
   -8.3319   23.6477  -30.1870 H   0  0  0  0  0  0  0  0  0  0  0  0
   -9.8803   21.3344  -30.8577 H   0  0  0  0  0  0  0  0  0  0  0  0
   -9.7022   19.0237  -31.8394 H   0  0  0  0  0  0  0  0  0  0  0  0
   -7.4410   17.0521  -31.9237 H   0  0  0  0  0  0  0  0  0  0  0  0
   -8.2892   17.5713  -33.4261 H   0  0  0  0  0  0  0  0  0  0  0  0
   -2.1912   16.5251  -34.9242 H   0  0  0  0  0  0  0  0  0  0  0  0
   -1.9402   14.6949  -33.1953 H   0  0  0  0  0  0  0  0  0  0  0  0
   -5.8331   15.5597  -31.6180 H   0  0  0  0  0  0  0  0  0  0  0  0
   -5.4258   19.6144  -32.4530 H   0  0  0  0  0  0  0  0  0  0  0  0
   -4.6167   21.2342  -33.6346 H   0  0  0  0  0  0  0  0  0  0  0  0
   -3.5086   22.6495  -33.6484 H   0  0  0  0  0  0  0  0  0  0  0  0
   -3.4534   19.0837  -32.0109 H   0  0  0  0  0  0  0  0  0  0  0  0
   -1.1852   17.8442  -32.3594 H   0  0  0  0  0  0  0  0  0  0  0  0
    0.5776   19.2799  -33.6908 H   0  0  0  0  0  0  0  0  0  0  0  0
  1  2  1  0
  2  3  2  0
  2  4  1  0
  4  5  2  0
  5  6  1  0
  6  7  2  0
  7  8  1  0
  8  9  2  0
  9 10  1  0
 10 11  1  0
 11 12  1  0
 12 13  2  0
 12 14  1  0
 14 15  1  0
 15 16  2  0
 16 17  1  0
 17 18  2  0
 18 19  1  0
 19 20  2  0
  9 21  1  0
 21 22  2  0
 22 23  1  0
 23 24  1  0
 24 25  2  0
 24 26  1  0
 26 27  1  0
 27 28  2  0
 28 29  1  0
 29 30  2  0
 30 31  1  0
 23  4  1  0
 31 27  1  0
 22  6  1  0
 20 11  1  0
 20 15  1  0
  1 32  1  0
  1 33  1  0
  5 34  1  0
  7 35  1  0
  8 36  1  0
 10 37  1  0
 10 38  1  0
 16 39  1  0
 17 40  1  0
 19 41  1  0
 21 42  1  0
 26 43  1  0
 26 44  1  0
 28 45  1  0
 29 46  1  0
 30 47  1  0
M  END
>  <UniqueID>  (94) 
92

>  <SMILES>  (94) 
NC(=O)c1cc2ccc(Cn3c(=O)oc4ccncc43)cc2n1C(=O)Cc1cccs1

>  <Energy>  (94) 
157.5055282961689

>  <Genealogy>  (94) 
NC(=O)c1cc2ccc(Cn3c(=O)oc4ccncc43)cc2n1C(=O)Cc1cccs1 (3D coordinates assigned)
NC(=O)c1cc2ccc(Cn3c(=O)oc4ccncc43)cc2n1C(=O)Cc1cccs1 (optimized conformer: 157.5055282961689 kcal/mol)

>  <smiles>  (94) 
NC(=O)c1cc2ccc(Cn3c(=O)oc4ccncc43)cc2n1C(=O)Cc1cccs1

>  <score_type>  (94) 
oracle

>  <origin>  (94) 
adg

>  <m_score__min__energy>  (94) 
-10.69

>  <m_primary>  (94) 
energy

$$$$
94:0
     RDKit          3D

 40 41  0  0  0  0  0  0  0  0999 V2000
   -3.8750   16.7680  -35.0290 C   0  0  0  0  0  0  0  0  0  0  0  0
   -4.3610   17.7530  -34.1250 O   0  0  0  0  0  0  0  0  0  0  0  0
   -5.6450   18.2940  -34.2230 C   0  0  0  0  0  0  0  0  0  0  0  0
   -6.0800   18.7290  -35.3250 O   0  0  0  0  0  0  0  0  0  0  0  0
   -6.5300   18.3100  -33.0170 C   0  0  0  0  0  0  0  0  0  0  0  0
   -6.7530   19.7270  -32.5660 C   0  0  0  0  0  0  0  0  0  0  0  0
   -8.0670   20.2530  -32.5030 C   0  0  0  0  0  0  0  0  0  0  0  0
   -8.2900   21.5690  -32.0620 C   0  0  0  0  0  0  0  0  0  0  0  0
   -7.1870   22.3230  -31.6730 C   0  0  0  0  0  0  0  0  0  0  0  0
   -7.1150   23.6230  -31.2290 C   0  0  0  0  0  0  0  0  0  0  0  0
   -5.7640   23.8580  -30.9900 C   0  0  0  0  0  0  0  0  0  0  0  0
   -5.2480   25.1170  -30.4160 C   0  0  0  0  0  0  0  0  0  0  0  0
   -4.0010   25.6600  -30.8420 N   0  0  0  0  0  0  0  0  0  0  0  0
   -5.8910   25.6940  -29.4990 O   0  0  0  0  0  0  0  0  0  0  0  0
   -5.0250   22.7500  -31.2820 N   0  0  0  0  0  0  0  0  0  0  0  0
   -3.5940   22.6200  -31.2650 C   0  0  0  0  0  0  0  0  0  0  0  0
   -3.0040   22.0330  -32.2130 O   0  0  0  0  0  0  0  0  0  0  0  0
   -2.8600   23.1780  -30.2110 O   0  0  0  0  0  0  0  0  0  0  0  0
   -3.2130   23.0270  -28.8350 C   0  0  0  0  0  0  0  0  0  0  0  0
   -2.2900   23.8740  -27.9540 C   0  0  0  0  0  0  0  0  0  0  0  0
   -3.1050   21.5510  -28.4580 C   0  0  0  0  0  0  0  0  0  0  0  0
   -5.9120   21.8170  -31.6970 C   0  0  0  0  0  0  0  0  0  0  0  0
   -5.6580   20.5180  -32.1530 C   0  0  0  0  0  0  0  0  0  0  0  0
   -3.4581   15.9231  -34.4612 H   0  0  0  0  0  0  0  0  0  0  0  0
   -4.7010   16.4122  -35.6624 H   0  0  0  0  0  0  0  0  0  0  0  0
   -3.0901   17.2070  -35.6624 H   0  0  0  0  0  0  0  0  0  0  0  0
   -7.4973   17.8504  -33.2681 H   0  0  0  0  0  0  0  0  0  0  0  0
   -6.0488   17.7430  -32.2065 H   0  0  0  0  0  0  0  0  0  0  0  0
   -8.9201   19.6262  -32.8018 H   0  0  0  0  0  0  0  0  0  0  0  0
   -9.3056   21.9900  -32.0255 H   0  0  0  0  0  0  0  0  0  0  0  0
   -7.9485   24.3276  -31.0919 H   0  0  0  0  0  0  0  0  0  0  0  0
   -3.0990   25.3000  -30.4590 H   0  0  0  0  0  0  0  0  0  0  0  0
   -4.2454   23.3721  -28.6767 H   0  0  0  0  0  0  0  0  0  0  0  0
   -2.5086   23.6734  -26.8948 H   0  0  0  0  0  0  0  0  0  0  0  0
   -1.2420   23.6167  -28.1672 H   0  0  0  0  0  0  0  0  0  0  0  0
   -2.4565   24.9402  -28.1672 H   0  0  0  0  0  0  0  0  0  0  0  0
   -3.0978   21.4520  -27.3625 H   0  0  0  0  0  0  0  0  0  0  0  0
   -3.9655   21.0034  -28.8700 H   0  0  0  0  0  0  0  0  0  0  0  0
   -2.1740   21.1345  -28.8700 H   0  0  0  0  0  0  0  0  0  0  0  0
   -4.6319   20.1234  -32.1888 H   0  0  0  0  0  0  0  0  0  0  0  0
  1  2  1  0
  2  3  1  0
  3  4  2  0
  3  5  1  0
  5  6  1  0
  6  7  2  0
  7  8  1  0
  8  9  2  0
  9 10  1  0
 10 11  2  0
 11 12  1  0
 12 13  1  0
 12 14  2  0
 11 15  1  0
 15 16  1  0
 16 17  2  0
 16 18  1  0
 18 19  1  0
 19 20  1  0
 19 21  1  0
 15 22  1  0
 22 23  2  0
 23  6  1  0
 22  9  1  0
  1 24  1  0
  1 25  1  0
  1 26  1  0
  5 27  1  0
  5 28  1  0
  7 29  1  0
  8 30  1  0
 10 31  1  0
 13 32  1  0
 19 33  1  0
 20 34  1  0
 20 35  1  0
 20 36  1  0
 21 37  1  0
 21 38  1  0
 21 39  1  0
 23 40  1  0
M  CHG  1  13  -1
M  END
>  <UniqueID>  (95) 
93

>  <SMILES>  (95) 
COC(=O)Cc1ccc2cc(C([NH-])=O)n(C(=O)OC(C)C)c2c1

>  <Energy>  (95) 
68.54841144107142

>  <Genealogy>  (95) 
COC(=O)Cc1ccc2cc(C([NH-])=O)n(C(=O)OC(C)C)c2c1 (protonated)
COC(=O)Cc1ccc2cc(C([NH-])=O)n(C(=O)OC(C)C)c2c1 (3D coordinates assigned)
COC(=O)Cc1ccc2cc(C([NH-])=O)n(C(=O)OC(C)C)c2c1 (optimized conformer: 68.54841144107142 kcal/mol)

>  <smiles>  (95) 
COC(=O)Cc1ccc2cc(C(N)=O)n(C(=O)OC(C)C)c2c1

>  <score_type>  (95) 
oracle

>  <origin>  (95) 
adg

>  <m_score__min__energy>  (95) 
-9.8499999999999996

>  <m_primary>  (95) 
energy

$$$$
95:0
     RDKit          3D

 41 43  0  0  0  0  0  0  0  0999 V2000
   -4.1790   17.6650  -33.2230 C   0  0  0  0  0  0  0  0  0  0  0  0
   -5.2670   18.6360  -33.1440 N   0  0  0  0  0  0  0  0  0  0  0  0
   -6.4610   18.4480  -33.6820 N   0  0  0  0  0  0  0  0  0  0  0  0
   -7.2130   19.5430  -33.4750 C   0  0  0  0  0  0  0  0  0  0  0  0
   -6.4670   20.4680  -32.7640 C   0  0  0  0  0  0  0  0  0  0  0  0
   -6.8740   21.8780  -32.4430 C   0  0  0  0  0  0  0  0  0  0  0  0
   -7.4020   22.0370  -30.7440 S   0  0  0  0  0  0  0  0  0  0  0  0
   -9.1040   21.5810  -30.5010 C   0  0  0  0  0  0  0  0  0  0  0  0
   -7.1070   23.5780  -30.1400 O   0  0  0  0  0  0  0  0  0  0  0  0
   -5.2250   19.8680  -32.5880 C   0  0  0  0  0  0  0  0  0  0  0  0
   -4.0280   20.4820  -31.9790 C   0  0  0  0  0  0  0  0  0  0  0  0
   -2.7750   19.8260  -32.0590 C   0  0  0  0  0  0  0  0  0  0  0  0
   -1.6260   20.4090  -31.4990 C   0  0  0  0  0  0  0  0  0  0  0  0
   -1.7640   21.6390  -30.8620 C   0  0  0  0  0  0  0  0  0  0  0  0
   -0.8160   22.4360  -30.2620 C   0  0  0  0  0  0  0  0  0  0  0  0
   -1.5100   23.5530  -29.8020 C   0  0  0  0  0  0  0  0  0  0  0  0
   -0.8810   24.6320  -29.0130 C   0  0  0  0  0  0  0  0  0  0  0  0
   -1.4720   25.9260  -28.9370 N   0  0  0  0  0  0  0  0  0  0  0  0
    0.1680   24.3940  -28.3560 O   0  0  0  0  0  0  0  0  0  0  0  0
   -2.8340   23.4560  -30.1130 N   0  0  0  0  0  0  0  0  0  0  0  0
   -3.8610   24.4390  -29.9040 C   0  0  0  0  0  0  0  0  0  0  0  0
   -3.8550   25.5140  -30.5600 O   0  0  0  0  0  0  0  0  0  0  0  0
   -4.8550   24.2250  -28.9580 O   0  0  0  0  0  0  0  0  0  0  0  0
   -2.9730   22.2770  -30.7590 C   0  0  0  0  0  0  0  0  0  0  0  0
   -4.1290   21.7260  -31.3230 C   0  0  0  0  0  0  0  0  0  0  0  0
   -3.8640   17.3839  -32.2073 H   0  0  0  0  0  0  0  0  0  0  0  0
   -4.5248   16.7698  -33.7606 H   0  0  0  0  0  0  0  0  0  0  0  0
   -3.3287   18.1100  -33.7606 H   0  0  0  0  0  0  0  0  0  0  0  0
   -6.7540   17.5920  -34.2050 H   0  0  0  0  0  0  0  0  0  0  0  0
   -8.2501   19.6814  -33.8145 H   0  0  0  0  0  0  0  0  0  0  0  0
   -6.0165   22.5453  -32.6146 H   0  0  0  0  0  0  0  0  0  0  0  0
   -7.7184   22.1498  -33.0934 H   0  0  0  0  0  0  0  0  0  0  0  0
   -9.3180   21.5237  -29.4235 H   0  0  0  0  0  0  0  0  0  0  0  0
   -9.7557   22.3362  -30.9646 H   0  0  0  0  0  0  0  0  0  0  0  0
   -9.2909   20.6011  -30.9646 H   0  0  0  0  0  0  0  0  0  0  0  0
   -6.3000   23.4830  -29.5750 H   0  0  0  0  0  0  0  0  0  0  0  0
   -2.7010   18.8516  -32.5640 H   0  0  0  0  0  0  0  0  0  0  0  0
   -0.6481   19.9093  -31.5619 H   0  0  0  0  0  0  0  0  0  0  0  0
    0.2610   22.2340  -30.1660 H   0  0  0  0  0  0  0  0  0  0  0  0
   -2.5090   26.0450  -28.9580 H   0  0  0  0  0  0  0  0  0  0  0  0
   -5.0934   22.2508  -31.2562 H   0  0  0  0  0  0  0  0  0  0  0  0
  1  2  1  0
  2  3  1  0
  3  4  2  0
  4  5  1  0
  5  6  1  0
  6  7  1  0
  7  8  1  0
  7  9  1  6
  5 10  2  0
 10 11  1  0
 11 12  2  0
 12 13  1  0
 13 14  2  0
 14 15  1  0
 15 16  2  0
 16 17  1  0
 17 18  1  0
 17 19  2  0
 16 20  1  0
 20 21  1  0
 21 22  2  0
 21 23  1  0
 20 24  1  0
 24 25  2  0
 10  2  1  0
 25 11  1  0
 24 14  1  0
  1 26  1  0
  1 27  1  0
  1 28  1  0
  3 29  1  0
  4 30  1  0
  6 31  1  0
  6 32  1  0
  8 33  1  0
  8 34  1  0
  8 35  1  0
  9 36  1  0
 12 37  1  0
 13 38  1  0
 15 39  1  0
 18 40  1  0
 25 41  1  0
M  CHG  4   3   1   7   1  18  -1  23  -1
M  END
>  <UniqueID>  (96) 
94

>  <SMILES>  (96) 
Cn1[nH+]cc(C[S@+](C)O)c1-c1ccc2cc(C([NH-])=O)n(C(=O)[O-])c2c1

>  <Energy>  (96) 
111.26738594681788

>  <Genealogy>  (96) 
Cn1[nH+]cc(C[S+](C)O)c1-c1ccc2cc(C([NH-])=O)n(C(=O)[O-])c2c1 (protonated)
Cn1[nH+]cc(C[S@+](C)O)c1-c1ccc2cc(C([NH-])=O)n(C(=O)[O-])c2c1 (chirality)
Cn1[nH+]cc(C[S@+](C)O)c1-c1ccc2cc(C([NH-])=O)n(C(=O)[O-])c2c1 (3D coordinates assigned)
Cn1[nH+]cc(C[S@+](C)O)c1-c1ccc2cc(C([NH-])=O)n(C(=O)[O-])c2c1 (optimized conformer: 111.26738594681788 kcal/mol)

>  <smiles>  (96) 
Cn1ncc(C[S+](C)[O-])c1-c1ccc2cc(C(N)=O)n(C(=O)O)c2c1

>  <score_type>  (96) 
oracle

>  <origin>  (96) 
adg

>  <m_score__min__energy>  (96) 
-11.369999999999999

>  <m_primary>  (96) 
energy

$$$$
