0:0
     RDKit          3D

 32 33  0  0  0  0  0  0  0  0999 V2000
   -7.9740   20.3160  -34.1617 H   0  0  0  0  0  0  0  0  0  0  0  0
   -7.8350   20.0600  -33.1010 C   0  0  0  0  0  0  0  0  0  0  0  0
   -6.5950   19.8570  -32.6310 C   0  0  0  0  0  0  0  0  0  0  0  0
   -6.4577   19.6004  -31.5702 H   0  0  0  0  0  0  0  0  0  0  0  0
   -5.3900   19.9720  -33.5200 C   0  0  0  0  0  0  0  0  0  0  0  0
   -5.6206   20.6497  -34.3552 H   0  0  0  0  0  0  0  0  0  0  0  0
   -5.1337   18.9721  -33.9001 H   0  0  0  0  0  0  0  0  0  0  0  0
   -4.2140   20.5150  -32.7530 C   0  0  0  0  0  0  0  0  0  0  0  0
   -3.0000   19.7860  -32.7100 C   0  0  0  0  0  0  0  0  0  0  0  0
   -2.9165   18.8335  -33.2538 H   0  0  0  0  0  0  0  0  0  0  0  0
   -1.9020   20.2690  -31.9790 C   0  0  0  0  0  0  0  0  0  0  0  0
   -0.9513   19.7163  -31.9524 H   0  0  0  0  0  0  0  0  0  0  0  0
   -2.0540   21.4690  -31.2890 C   0  0  0  0  0  0  0  0  0  0  0  0
   -1.1510   22.1670  -30.5210 C   0  0  0  0  0  0  0  0  0  0  0  0
   -0.1086   21.8920  -30.3023 H   0  0  0  0  0  0  0  0  0  0  0  0
   -1.8370   23.2960  -30.0790 C   0  0  0  0  0  0  0  0  0  0  0  0
   -1.2700   24.2860  -29.1360 C   0  0  0  0  0  0  0  0  0  0  0  0
   -0.0460   24.2520  -28.8440 O   0  0  0  0  0  0  0  0  0  0  0  0
   -2.0910   25.3130  -28.5750 N   0  0  0  0  0  0  0  0  0  0  0  0
   -1.6730   26.0290  -27.9410 H   0  0  0  0  0  0  0  0  0  0  0  0
   -3.1200   25.3420  -28.7520 H   0  0  0  0  0  0  0  0  0  0  0  0
   -3.1140   23.2980  -30.5560 N   0  0  0  0  0  0  0  0  0  0  0  0
   -4.1110   24.3180  -30.3780 C   0  0  0  0  0  0  0  0  0  0  0  0
   -5.2260   24.0370  -29.8640 O   0  0  0  0  0  0  0  0  0  0  0  0
   -3.8640   25.6220  -30.7900 O   0  0  0  0  0  0  0  0  0  0  0  0
   -3.2300   22.1720  -31.2970 C   0  0  0  0  0  0  0  0  0  0  0  0
   -4.3340   21.7250  -32.0340 C   0  0  0  0  0  0  0  0  0  0  0  0
   -5.2706   22.3015  -32.0525 H   0  0  0  0  0  0  0  0  0  0  0  0
   -9.0350   19.9450  -32.2100 C   0  0  0  0  0  0  0  0  0  0  0  0
   -9.8888   19.5754  -32.7969 H   0  0  0  0  0  0  0  0  0  0  0  0
   -8.8085   19.2444  -31.3928 H   0  0  0  0  0  0  0  0  0  0  0  0
   -9.4430   21.5350  -31.5150 Cl  0  0  0  0  0  0  0  0  0  0  0  0
  1  2  1  0
  2  3  2  0
  3  4  1  0
  3  5  1  0
  5  6  1  0
  5  7  1  0
  5  8  1  0
  8  9  2  0
  9 10  1  0
  9 11  1  0
 11 12  1  0
 11 13  2  0
 13 14  1  0
 14 15  1  0
 14 16  2  0
 16 17  1  0
 17 18  2  0
 17 19  1  0
 19 20  1  0
 19 21  1  0
 16 22  1  0
 22 23  1  0
 23 24  2  0
 23 25  1  0
 22 26  1  0
 26 27  2  0
 27 28  1  0
  2 29  1  0
 29 30  1  0
 29 31  1  0
 29 32  1  0
 27  8  1  0
 26 13  1  0
M  CHG  1  25  -1
M  END
>  <UniqueID>  (1) 
1

>  <SMILES>  (1) 
NC(=O)c1cc2ccc(C/C=C/CCl)cc2n1C(=O)[O-]

>  <Energy>  (1) 
65.4620388549662

>  <Genealogy>  (1) 
NC(=O)c1cc2ccc(C/C=C/CCl)cc2n1C(=O)[O-] (protonated)
NC(=O)c1cc2ccc(C/C=C/CCl)cc2n1C(=O)[O-] (cis-trans isomerization)
NC(=O)c1cc2ccc(C/C=C/CCl)cc2n1C(=O)[O-] (3D coordinates assigned)
NC(=O)c1cc2ccc(C/C=C/CCl)cc2n1C(=O)[O-] (optimized conformer: 65.4620388549662 kcal/mol)

>  <smiles>  (1) 
NC(=O)c1cc2ccc(C/C=C/CCl)cc2n1C(=O)O

>  <score_type>  (1) 
oracle

>  <origin>  (1) 
adg

>  <m_score__min__energy>  (1) 
-8.8800000000000008

>  <m_primary>  (1) 
energy

$$$$
1:0
     RDKit          3D

 30 32  0  0  0  0  0  0  0  0999 V2000
   -3.7380   25.2560  -30.4670 N   0  0  0  0  0  0  0  0  0  0  0  0
   -5.1420   25.2790  -30.7140 C   0  0  0  0  0  0  0  0  0  0  0  0
   -5.7380   26.3880  -30.7800 O   0  0  0  0  0  0  0  0  0  0  0  0
   -5.8950   24.0280  -30.9440 C   0  0  0  0  0  0  0  0  0  0  0  0
   -7.2310   23.8590  -30.5860 C   0  0  0  0  0  0  0  0  0  0  0  0
   -7.5770   22.6110  -31.0520 C   0  0  0  0  0  0  0  0  0  0  0  0
   -8.7840   21.9270  -30.9670 C   0  0  0  0  0  0  0  0  0  0  0  0
   -8.8500   20.6360  -31.5180 C   0  0  0  0  0  0  0  0  0  0  0  0
   -7.7200   20.0450  -32.1370 C   0  0  0  0  0  0  0  0  0  0  0  0
   -7.8810   18.6420  -32.6960 C   0  0  0  0  0  0  0  0  0  0  0  0
   -6.7000   18.0510  -33.4540 C   0  0  0  0  0  0  0  0  0  0  0  0
   -7.0450   17.5390  -32.0620 C   0  0  0  0  0  0  0  0  0  0  0  0
   -6.5050   20.7800  -32.2010 C   0  0  0  0  0  0  0  0  0  0  0  0
   -6.4750   22.0690  -31.6560 C   0  0  0  0  0  0  0  0  0  0  0  0
   -5.4320   22.9240  -31.5940 N   0  0  0  0  0  0  0  0  0  0  0  0
   -4.0960   22.6660  -32.0540 C   0  0  0  0  0  0  0  0  0  0  0  0
   -3.8570   22.2930  -33.4100 N   0  0  0  0  0  0  0  0  0  0  0  0
   -3.1230   22.8010  -31.2650 O   0  0  0  0  0  0  0  0  0  0  0  0
   -3.0680   24.9500  -31.2060 H   0  0  0  0  0  0  0  0  0  0  0  0
   -7.8724   24.5711  -30.0461 H   0  0  0  0  0  0  0  0  0  0  0  0
   -9.6607   22.3823  -30.4832 H   0  0  0  0  0  0  0  0  0  0  0  0
   -9.7946   20.0745  -31.4681 H   0  0  0  0  0  0  0  0  0  0  0  0
   -8.9506   18.7832  -32.9103 H   0  0  0  0  0  0  0  0  0  0  0  0
   -6.8742   17.4135  -34.3334 H   0  0  0  0  0  0  0  0  0  0  0  0
   -5.7974   18.4614  -33.9304 H   0  0  0  0  0  0  0  0  0  0  0  0
   -7.4683   16.5316  -31.9358 H   0  0  0  0  0  0  0  0  0  0  0  0
   -6.4947   17.4262  -31.1162 H   0  0  0  0  0  0  0  0  0  0  0  0
   -5.6088   20.3458  -32.6681 H   0  0  0  0  0  0  0  0  0  0  0  0
   -4.6440   22.2490  -34.0940 H   0  0  0  0  0  0  0  0  0  0  0  0
   -2.8860   22.0940  -33.7410 H   0  0  0  0  0  0  0  0  0  0  0  0
  1  2  1  0
  2  3  2  0
  2  4  1  0
  4  5  2  0
  5  6  1  0
  6  7  2  0
  7  8  1  0
  8  9  2  0
  9 10  1  0
 10 11  1  0
 11 12  1  0
  9 13  1  0
 13 14  2  0
 14 15  1  0
 15 16  1  0
 16 17  1  0
 16 18  2  0
 15  4  1  0
 14  6  1  0
 12 10  1  0
  1 19  1  0
  5 20  1  0
  7 21  1  0
  8 22  1  0
 10 23  1  0
 11 24  1  0
 11 25  1  0
 12 26  1  0
 12 27  1  0
 13 28  1  0
 17 29  1  0
 17 30  1  0
M  CHG  1   1  -1
M  END
>  <UniqueID>  (2) 
2

>  <SMILES>  (2) 
[NH-]C(=O)c1cc2ccc(C3CC3)cc2n1C(N)=O

>  <Energy>  (2) 
337.6342485796902

>  <Genealogy>  (2) 
[NH-]C(=O)c1cc2ccc(C3CC3)cc2n1C(N)=O (protonated)
[NH-]C(=O)c1cc2ccc(C3CC3)cc2n1C(N)=O (3D coordinates assigned)
[NH-]C(=O)c1cc2ccc(C3CC3)cc2n1C(N)=O (nonaromatic ring conformer: 337.6342485796902 kcal/mol)

>  <smiles>  (2) 
NC(=O)c1cc2ccc(C3CC3)cc2n1C(N)=O

>  <score_type>  (2) 
oracle

>  <origin>  (2) 
adg

>  <m_score__min__energy>  (2) 
-10.43

>  <m_primary>  (2) 
energy

$$$$
2:0
     RDKit          3D

 34 35  0  0  0  0  0  0  0  0999 V2000
   -3.8250   23.2180  -28.2580 C   0  0  0  0  0  0  0  0  0  0  0  0
   -2.8910   22.4940  -29.2210 C   0  0  0  0  0  0  0  0  0  0  0  0
   -2.9080   23.1190  -30.5030 O   0  0  0  0  0  0  0  0  0  0  0  0
   -3.7780   22.7420  -31.5330 C   0  0  0  0  0  0  0  0  0  0  0  0
   -3.3280   22.2240  -32.5910 O   0  0  0  0  0  0  0  0  0  0  0  0
   -5.1930   22.9200  -31.3700 N   0  0  0  0  0  0  0  0  0  0  0  0
   -5.8570   24.0480  -30.9860 C   0  0  0  0  0  0  0  0  0  0  0  0
   -5.2380   25.2970  -30.4960 C   0  0  0  0  0  0  0  0  0  0  0  0
   -3.8990   25.6390  -30.8470 N   0  0  0  0  0  0  0  0  0  0  0  0
   -5.8830   26.0500  -29.7170 O   0  0  0  0  0  0  0  0  0  0  0  0
   -7.2350   23.8440  -31.0350 C   0  0  0  0  0  0  0  0  0  0  0  0
   -7.3970   22.5440  -31.4540 C   0  0  0  0  0  0  0  0  0  0  0  0
   -8.5600   21.8180  -31.6920 C   0  0  0  0  0  0  0  0  0  0  0  0
   -8.4310   20.4980  -32.1540 C   0  0  0  0  0  0  0  0  0  0  0  0
   -7.1490   19.9300  -32.3650 C   0  0  0  0  0  0  0  0  0  0  0  0
   -7.0240   18.5310  -32.9050 C   0  0  0  0  0  0  0  0  0  0  0  0
   -6.0820   18.4970  -34.1040 C   0  0  0  0  0  0  0  0  0  0  0  0
   -5.9900   20.7010  -32.1260 C   0  0  0  0  0  0  0  0  0  0  0  0
   -6.1500   22.0070  -31.6490 C   0  0  0  0  0  0  0  0  0  0  0  0
   -3.5319   22.9908  -27.2224 H   0  0  0  0  0  0  0  0  0  0  0  0
   -3.7583   24.3027  -28.4284 H   0  0  0  0  0  0  0  0  0  0  0  0
   -4.8588   22.8830  -28.4284 H   0  0  0  0  0  0  0  0  0  0  0  0
   -1.8671   22.5202  -28.8197 H   0  0  0  0  0  0  0  0  0  0  0  0
   -3.2310   21.4535  -29.3295 H   0  0  0  0  0  0  0  0  0  0  0  0
   -3.0890   25.2720  -30.3000 H   0  0  0  0  0  0  0  0  0  0  0  0
   -8.0253   24.5690  -30.7904 H   0  0  0  0  0  0  0  0  0  0  0  0
   -9.5510   22.2647  -31.5233 H   0  0  0  0  0  0  0  0  0  0  0  0
   -9.3321   19.8997  -32.3539 H   0  0  0  0  0  0  0  0  0  0  0  0
   -6.6285   17.8738  -32.1165 H   0  0  0  0  0  0  0  0  0  0  0  0
   -8.0179   18.1865  -33.2268 H   0  0  0  0  0  0  0  0  0  0  0  0
   -5.0408   18.4594  -33.7513 H   0  0  0  0  0  0  0  0  0  0  0  0
   -6.2953   17.6060  -34.7127 H   0  0  0  0  0  0  0  0  0  0  0  0
   -6.2305   19.4011  -34.7127 H   0  0  0  0  0  0  0  0  0  0  0  0
   -4.9880   20.2860  -32.3099 H   0  0  0  0  0  0  0  0  0  0  0  0
  1  2  1  0
  2  3  1  0
  3  4  1  0
  4  5  2  0
  4  6  1  0
  6  7  1  0
  7  8  1  0
  8  9  1  0
  8 10  2  0
  7 11  2  0
 11 12  1  0
 12 13  2  0
 13 14  1  0
 14 15  2  0
 15 16  1  0
 16 17  1  0
 15 18  1  0
 18 19  2  0
 19  6  1  0
 19 12  1  0
  1 20  1  0
  1 21  1  0
  1 22  1  0
  2 23  1  0
  2 24  1  0
  9 25  1  0
 11 26  1  0
 13 27  1  0
 14 28  1  0
 16 29  1  0
 16 30  1  0
 17 31  1  0
 17 32  1  0
 17 33  1  0
 18 34  1  0
M  CHG  1   9  -1
M  END
>  <UniqueID>  (3) 
3

>  <SMILES>  (3) 
CCOC(=O)n1c(C([NH-])=O)cc2ccc(CC)cc21

>  <Energy>  (3) 
65.90482710454748

>  <Genealogy>  (3) 
CCOC(=O)n1c(C([NH-])=O)cc2ccc(CC)cc21 (protonated)
CCOC(=O)n1c(C([NH-])=O)cc2ccc(CC)cc21 (3D coordinates assigned)
CCOC(=O)n1c(C([NH-])=O)cc2ccc(CC)cc21 (optimized conformer: 65.90482710454748 kcal/mol)

>  <smiles>  (3) 
CCOC(=O)n1c(C(N)=O)cc2ccc(CC)cc21

>  <score_type>  (3) 
oracle

>  <origin>  (3) 
adg

>  <m_score__min__energy>  (3) 
-9.8499999999999996

>  <m_primary>  (3) 
energy

$$$$
3:0
     RDKit          3D

 24 25  0  0  0  0  0  0  0  0999 V2000
   -5.7950   20.2330  -33.0980 C   0  0  0  0  0  0  0  0  0  0  0  0
   -4.5530   20.6940  -32.3970 C   0  0  0  0  0  0  0  0  0  0  0  0
   -3.3700   19.9180  -32.4670 C   0  0  0  0  0  0  0  0  0  0  0  0
   -2.1860   20.3620  -31.8570 C   0  0  0  0  0  0  0  0  0  0  0  0
   -2.2140   21.5840  -31.1900 C   0  0  0  0  0  0  0  0  0  0  0  0
   -1.2070   22.2620  -30.5420 C   0  0  0  0  0  0  0  0  0  0  0  0
   -1.7920   23.4380  -30.0790 C   0  0  0  0  0  0  0  0  0  0  0  0
   -1.0760   24.4260  -29.2460 C   0  0  0  0  0  0  0  0  0  0  0  0
   -1.6460   25.7030  -28.9700 N   0  0  0  0  0  0  0  0  0  0  0  0
    0.0300   24.1200  -28.7260 O   0  0  0  0  0  0  0  0  0  0  0  0
   -3.1060   23.4920  -30.4350 N   0  0  0  0  0  0  0  0  0  0  0  0
   -4.0280   24.5770  -30.2330 C   0  0  0  0  0  0  0  0  0  0  0  0
   -3.8720   25.6670  -30.8430 O   0  0  0  0  0  0  0  0  0  0  0  0
   -5.0840   24.4410  -29.3400 O   0  0  0  0  0  0  0  0  0  0  0  0
   -3.3510   22.3480  -31.1120 C   0  0  0  0  0  0  0  0  0  0  0  0
   -4.5400   21.9370  -31.7270 C   0  0  0  0  0  0  0  0  0  0  0  0
   -6.5536   19.9514  -32.3528 H   0  0  0  0  0  0  0  0  0  0  0  0
   -6.1840   21.0466  -33.7278 H   0  0  0  0  0  0  0  0  0  0  0  0
   -5.5589   19.3626  -33.7278 H   0  0  0  0  0  0  0  0  0  0  0  0
   -3.3791   18.9583  -33.0045 H   0  0  0  0  0  0  0  0  0  0  0  0
   -1.2646   19.7630  -31.9045 H   0  0  0  0  0  0  0  0  0  0  0  0
   -0.1618   21.9429  -30.4164 H   0  0  0  0  0  0  0  0  0  0  0  0
   -2.6780   25.8530  -29.0200 H   0  0  0  0  0  0  0  0  0  0  0  0
   -5.4412   22.5666  -31.6892 H   0  0  0  0  0  0  0  0  0  0  0  0
  1  2  1  0
  2  3  2  0
  3  4  1  0
  4  5  2  0
  5  6  1  0
  6  7  2  0
  7  8  1  0
  8  9  1  0
  8 10  2  0
  7 11  1  0
 11 12  1  0
 12 13  2  0
 12 14  1  0
 11 15  1  0
 15 16  2  0
 16  2  1  0
 15  5  1  0
  1 17  1  0
  1 18  1  0
  1 19  1  0
  3 20  1  0
  4 21  1  0
  6 22  1  0
  9 23  1  0
 16 24  1  0
M  CHG  2   9  -1  14  -1
M  END
>  <UniqueID>  (4) 
4

>  <SMILES>  (4) 
Cc1ccc2cc(C([NH-])=O)n(C(=O)[O-])c2c1

>  <Energy>  (4) 
63.771879867229885

>  <Genealogy>  (4) 
Cc1ccc2cc(C([NH-])=O)n(C(=O)[O-])c2c1 (protonated)
Cc1ccc2cc(C([NH-])=O)n(C(=O)[O-])c2c1 (3D coordinates assigned)
Cc1ccc2cc(C([NH-])=O)n(C(=O)[O-])c2c1 (optimized conformer: 63.771879867229885 kcal/mol)

>  <smiles>  (4) 
Cc1ccc2cc(C(N)=O)n(C(=O)O)c2c1

>  <score_type>  (4) 
oracle

>  <origin>  (4) 
adg

>  <m_score__min__energy>  (4) 
-9.6699999999999999

>  <m_primary>  (4) 
energy

$$$$
4:0
     RDKit          3D

 42 44  0  0  0  0  0  0  0  0999 V2000
   -1.2530   21.0970  -32.2610 C   0  0  0  0  0  0  0  0  0  0  0  0
   -2.1350   21.2320  -31.0240 C   0  0  0  0  0  0  0  0  0  0  0  0
   -3.0380   22.3260  -31.1680 O   0  0  0  0  0  0  0  0  0  0  0  0
   -4.1100   22.3290  -32.0680 C   0  0  0  0  0  0  0  0  0  0  0  0
   -3.9190   22.0710  -33.2870 O   0  0  0  0  0  0  0  0  0  0  0  0
   -5.4340   22.6360  -31.6000 N   0  0  0  0  0  0  0  0  0  0  0  0
   -5.8820   23.8220  -31.1000 C   0  0  0  0  0  0  0  0  0  0  0  0
   -5.0360   24.9940  -30.7830 C   0  0  0  0  0  0  0  0  0  0  0  0
   -3.6480   24.8350  -30.4870 N   0  0  0  0  0  0  0  0  0  0  0  0
   -5.5300   26.1540  -30.8010 O   0  0  0  0  0  0  0  0  0  0  0  0
   -7.2490   23.7560  -30.8370 C   0  0  0  0  0  0  0  0  0  0  0  0
   -7.6280   22.4830  -31.1940 C   0  0  0  0  0  0  0  0  0  0  0  0
   -8.8830   21.8810  -31.1630 C   0  0  0  0  0  0  0  0  0  0  0  0
   -8.9920   20.5600  -31.6300 C   0  0  0  0  0  0  0  0  0  0  0  0
   -7.8530   19.8690  -32.1130 C   0  0  0  0  0  0  0  0  0  0  0  0
   -7.9920   18.4770  -32.6650 C   0  0  0  0  0  0  0  0  0  0  0  0
   -6.6500   17.9570  -33.1030 C   0  0  0  0  0  0  0  0  0  0  0  0
   -6.1030   18.3560  -34.3340 C   0  0  0  0  0  0  0  0  0  0  0  0
   -4.8740   17.8420  -34.7580 C   0  0  0  0  0  0  0  0  0  0  0  0
   -4.1850   16.9200  -33.9610 C   0  0  0  0  0  0  0  0  0  0  0  0
   -2.6450   16.2750  -34.4950 Cl  0  0  0  0  0  0  0  0  0  0  0  0
   -4.7310   16.5100  -32.7390 C   0  0  0  0  0  0  0  0  0  0  0  0
   -5.9600   17.0230  -32.3120 C   0  0  0  0  0  0  0  0  0  0  0  0
   -6.5970   20.5160  -32.1370 C   0  0  0  0  0  0  0  0  0  0  0  0
   -6.5150   21.8260  -31.6520 C   0  0  0  0  0  0  0  0  0  0  0  0
   -0.2095   20.9373  -31.9517 H   0  0  0  0  0  0  0  0  0  0  0  0
   -1.5926   20.2404  -32.8617 H   0  0  0  0  0  0  0  0  0  0  0  0
   -1.3208   22.0160  -32.8617 H   0  0  0  0  0  0  0  0  0  0  0  0
   -2.7100   20.3043  -30.8871 H   0  0  0  0  0  0  0  0  0  0  0  0
   -1.4934   21.4148  -30.1494 H   0  0  0  0  0  0  0  0  0  0  0  0
   -3.0520   25.6730  -30.3030 H   0  0  0  0  0  0  0  0  0  0  0  0
   -3.2150   23.8890  -30.4090 H   0  0  0  0  0  0  0  0  0  0  0  0
   -7.8890   24.5529  -30.4302 H   0  0  0  0  0  0  0  0  0  0  0  0
   -9.7623   22.4228  -30.7846 H   0  0  0  0  0  0  0  0  0  0  0  0
   -9.9706   20.0577  -31.6205 H   0  0  0  0  0  0  0  0  0  0  0  0
   -8.4016   17.8164  -31.8866 H   0  0  0  0  0  0  0  0  0  0  0  0
   -8.6691   18.4998  -33.5316 H   0  0  0  0  0  0  0  0  0  0  0  0
   -6.6437   19.0754  -34.9665 H   0  0  0  0  0  0  0  0  0  0  0  0
   -4.4474   18.1627  -35.7199 H   0  0  0  0  0  0  0  0  0  0  0  0
   -4.1924   15.7830  -32.1134 H   0  0  0  0  0  0  0  0  0  0  0  0
   -6.3879   16.6941  -31.3535 H   0  0  0  0  0  0  0  0  0  0  0  0
   -5.7059   20.0026  -32.5273 H   0  0  0  0  0  0  0  0  0  0  0  0
  1  2  1  0
  2  3  1  0
  3  4  1  0
  4  5  2  0
  4  6  1  0
  6  7  1  0
  7  8  1  0
  8  9  1  0
  8 10  2  0
  7 11  2  0
 11 12  1  0
 12 13  2  0
 13 14  1  0
 14 15  2  0
 15 16  1  0
 16 17  1  0
 17 18  2  0
 18 19  1  0
 19 20  2  0
 20 21  1  0
 20 22  1  0
 22 23  2  0
 15 24  1  0
 24 25  2  0
 25  6  1  0
 25 12  1  0
 23 17  1  0
  1 26  1  0
  1 27  1  0
  1 28  1  0
  2 29  1  0
  2 30  1  0
  9 31  1  0
  9 32  1  0
 11 33  1  0
 13 34  1  0
 14 35  1  0
 16 36  1  0
 16 37  1  0
 18 38  1  0
 19 39  1  0
 22 40  1  0
 23 41  1  0
 24 42  1  0
M  END
>  <UniqueID>  (5) 
5

>  <SMILES>  (5) 
CCOC(=O)n1c(C(N)=O)cc2ccc(Cc3ccc(Cl)cc3)cc21

>  <Energy>  (5) 
77.11889081090082

>  <Genealogy>  (5) 
CCOC(=O)n1c(C(N)=O)cc2ccc(Cc3ccc(Cl)cc3)cc21 (3D coordinates assigned)
CCOC(=O)n1c(C(N)=O)cc2ccc(Cc3ccc(Cl)cc3)cc21 (optimized conformer: 77.11889081090082 kcal/mol)

>  <smiles>  (5) 
CCOC(=O)n1c(C(N)=O)cc2ccc(Cc3ccc(Cl)cc3)cc21

>  <score_type>  (5) 
oracle

>  <origin>  (5) 
adg

>  <m_score__min__energy>  (5) 
-9.5600000000000005

>  <m_primary>  (5) 
energy

$$$$
5:0
     RDKit          3D

 42 44  0  0  0  0  0  0  0  0999 V2000
   -9.1470   20.6370  -31.8800 C   0  0  0  0  0  0  0  0  0  0  0  0
   -9.4010   22.1400  -31.8920 C   0  0  0  0  0  0  0  0  0  0  0  0
   -8.1800   22.8560  -32.0670 O   0  0  0  0  0  0  0  0  0  0  0  0
   -7.1910   22.9450  -31.0790 C   0  0  0  0  0  0  0  0  0  0  0  0
   -7.4970   23.2580  -29.8970 O   0  0  0  0  0  0  0  0  0  0  0  0
   -5.8180   22.6860  -31.4200 N   0  0  0  0  0  0  0  0  0  0  0  0
   -4.7180   23.3770  -31.0070 C   0  0  0  0  0  0  0  0  0  0  0  0
   -4.7370   24.6450  -30.2440 C   0  0  0  0  0  0  0  0  0  0  0  0
   -5.3770   24.7200  -28.9690 N   0  0  0  0  0  0  0  0  0  0  0  0
   -4.1600   25.6660  -30.7010 O   0  0  0  0  0  0  0  0  0  0  0  0
   -3.5560   22.7730  -31.4820 C   0  0  0  0  0  0  0  0  0  0  0  0
   -3.9820   21.6830  -32.2070 C   0  0  0  0  0  0  0  0  0  0  0  0
   -3.2440   20.7210  -32.8890 C   0  0  0  0  0  0  0  0  0  0  0  0
   -3.9440   19.6850  -33.5280 C   0  0  0  0  0  0  0  0  0  0  0  0
   -5.3630   19.6240  -33.4730 C   0  0  0  0  0  0  0  0  0  0  0  0
   -6.1180   18.4910  -34.1430 C   0  0  0  0  0  0  0  0  0  0  0  0
   -5.1870   17.4660  -34.8120 C   0  0  0  0  0  0  0  0  0  0  0  0
   -5.4660   16.1280  -34.1450 C   0  0  0  0  0  0  0  0  0  0  0  0
   -6.8520   16.2500  -33.5410 C   0  0  0  0  0  0  0  0  0  0  0  0
   -6.9900   17.7110  -33.1500 C   0  0  0  0  0  0  0  0  0  0  0  0
   -6.0740   20.6210  -32.7650 C   0  0  0  0  0  0  0  0  0  0  0  0
   -5.3510   21.6510  -32.1530 C   0  0  0  0  0  0  0  0  0  0  0  0
   -9.0873   20.2835  -30.8401 H   0  0  0  0  0  0  0  0  0  0  0  0
   -9.9708   20.1218  -32.3956 H   0  0  0  0  0  0  0  0  0  0  0  0
   -8.1996   20.4211  -32.3956 H   0  0  0  0  0  0  0  0  0  0  0  0
  -10.0845   22.3842  -32.7186 H   0  0  0  0  0  0  0  0  0  0  0  0
   -9.8470   22.4311  -30.9295 H   0  0  0  0  0  0  0  0  0  0  0  0
   -5.9110   23.9120  -28.5810 H   0  0  0  0  0  0  0  0  0  0  0  0
   -5.3510   25.6090  -28.4210 H   0  0  0  0  0  0  0  0  0  0  0  0
   -2.5187   23.0979  -31.3136 H   0  0  0  0  0  0  0  0  0  0  0  0
   -2.1458   20.7704  -32.9265 H   0  0  0  0  0  0  0  0  0  0  0  0
   -3.3876   18.9115  -34.0776 H   0  0  0  0  0  0  0  0  0  0  0  0
   -6.7392   18.9884  -34.9024 H   0  0  0  0  0  0  0  0  0  0  0  0
   -5.4006   17.4052  -35.8893 H   0  0  0  0  0  0  0  0  0  0  0  0
   -4.1315   17.7543  -34.6984 H   0  0  0  0  0  0  0  0  0  0  0  0
   -5.4416   15.3170  -34.8877 H   0  0  0  0  0  0  0  0  0  0  0  0
   -4.7106   15.8902  -33.3816 H   0  0  0  0  0  0  0  0  0  0  0  0
   -7.6198   15.9742  -34.2789 H   0  0  0  0  0  0  0  0  0  0  0  0
   -6.9847   15.5798  -32.6789 H   0  0  0  0  0  0  0  0  0  0  0  0
   -8.0395   18.0312  -33.2274 H   0  0  0  0  0  0  0  0  0  0  0  0
   -6.6754   17.8844  -32.1103 H   0  0  0  0  0  0  0  0  0  0  0  0
   -7.1714   20.5874  -32.6970 H   0  0  0  0  0  0  0  0  0  0  0  0
  1  2  1  0
  2  3  1  0
  3  4  1  0
  4  5  2  0
  4  6  1  0
  6  7  1  0
  7  8  1  0
  8  9  1  0
  8 10  2  0
  7 11  2  0
 11 12  1  0
 12 13  2  0
 13 14  1  0
 14 15  2  0
 15 16  1  0
 16 17  1  0
 17 18  1  0
 18 19  1  0
 19 20  1  0
 15 21  1  0
 21 22  2  0
 22  6  1  0
 22 12  1  0
 20 16  1  0
  1 23  1  0
  1 24  1  0
  1 25  1  0
  2 26  1  0
  2 27  1  0
  9 28  1  0
  9 29  1  0
 11 30  1  0
 13 31  1  0
 14 32  1  0
 16 33  1  0
 17 34  1  0
 17 35  1  0
 18 36  1  0
 18 37  1  0
 19 38  1  0
 19 39  1  0
 20 40  1  0
 20 41  1  0
 21 42  1  0
M  END
>  <UniqueID>  (6) 
6

>  <SMILES>  (6) 
CCOC(=O)n1c(C(N)=O)cc2ccc(C3CCCC3)cc21

>  <Energy>  (6) 
79.01621493985577

>  <Genealogy>  (6) 
CCOC(=O)n1c(C(N)=O)cc2ccc(C3CCCC3)cc21 (3D coordinates assigned)
CCOC(=O)n1c(C(N)=O)cc2ccc(C3CCCC3)cc21 (nonaromatic ring conformer: 79.01621493985577 kcal/mol)

>  <smiles>  (6) 
CCOC(=O)n1c(C(N)=O)cc2ccc(C3CCCC3)cc21

>  <score_type>  (6) 
oracle

>  <origin>  (6) 
adg

>  <m_score__min__energy>  (6) 
-9.5099999999999998

>  <m_primary>  (6) 
energy

$$$$
6:0
     RDKit          3D

 35 37  0  0  0  0  0  0  0  0999 V2000
   -7.1610   21.6100  -31.4030 C   0  0  0  0  0  0  0  0  0  0  0  0
   -6.1360   20.6230  -31.3760 O   0  0  0  0  0  0  0  0  0  0  0  0
   -5.8040   19.7850  -32.4550 C   0  0  0  0  0  0  0  0  0  0  0  0
   -6.7920   19.1010  -33.1900 C   0  0  0  0  0  0  0  0  0  0  0  0
   -6.4330   18.2480  -34.2370 C   0  0  0  0  0  0  0  0  0  0  0  0
   -5.0900   18.0670  -34.5620 C   0  0  0  0  0  0  0  0  0  0  0  0
   -4.0990   18.7420  -33.8470 C   0  0  0  0  0  0  0  0  0  0  0  0
   -4.4440   19.6110  -32.7970 C   0  0  0  0  0  0  0  0  0  0  0  0
   -3.3710   20.3260  -32.0620 C   0  0  0  0  0  0  0  0  0  0  0  0
   -2.0870   19.7420  -31.9220 C   0  0  0  0  0  0  0  0  0  0  0  0
   -1.0720   20.4020  -31.2100 C   0  0  0  0  0  0  0  0  0  0  0  0
   -1.3690   21.6430  -30.6530 C   0  0  0  0  0  0  0  0  0  0  0  0
   -0.5830   22.4800  -29.8940 C   0  0  0  0  0  0  0  0  0  0  0  0
   -1.3930   23.5740  -29.5940 C   0  0  0  0  0  0  0  0  0  0  0  0
   -0.9120   24.7630  -28.8620 C   0  0  0  0  0  0  0  0  0  0  0  0
   -1.6040   26.0060  -28.9470 N   0  0  0  0  0  0  0  0  0  0  0  0
    0.1530   24.6950  -28.1920 O   0  0  0  0  0  0  0  0  0  0  0  0
   -2.6330   23.4150  -30.1380 N   0  0  0  0  0  0  0  0  0  0  0  0
   -3.7780   24.2670  -29.9760 C   0  0  0  0  0  0  0  0  0  0  0  0
   -4.6810   23.9710  -29.1500 O   0  0  0  0  0  0  0  0  0  0  0  0
   -3.8870   25.4420  -30.7100 O   0  0  0  0  0  0  0  0  0  0  0  0
   -2.6010   22.2280  -30.7840 C   0  0  0  0  0  0  0  0  0  0  0  0
   -3.6350   21.5840  -31.4730 C   0  0  0  0  0  0  0  0  0  0  0  0
   -7.4392   21.8779  -30.3731 H   0  0  0  0  0  0  0  0  0  0  0  0
   -6.7950   22.5044  -31.9284 H   0  0  0  0  0  0  0  0  0  0  0  0
   -8.0410   21.2105  -31.9284 H   0  0  0  0  0  0  0  0  0  0  0  0
   -7.8538   19.2393  -32.9380 H   0  0  0  0  0  0  0  0  0  0  0  0
   -7.2117   17.7186  -34.8056 H   0  0  0  0  0  0  0  0  0  0  0  0
   -4.8102   17.3910  -35.3834 H   0  0  0  0  0  0  0  0  0  0  0  0
   -3.0406   18.5929  -34.1070 H   0  0  0  0  0  0  0  0  0  0  0  0
   -1.8832   18.7610  -32.3760 H   0  0  0  0  0  0  0  0  0  0  0  0
   -0.0744   19.9528  -31.0961 H   0  0  0  0  0  0  0  0  0  0  0  0
    0.4617   22.3197  -29.5891 H   0  0  0  0  0  0  0  0  0  0  0  0
   -2.6470   26.0380  -28.9750 H   0  0  0  0  0  0  0  0  0  0  0  0
   -4.6300   22.0458  -31.5544 H   0  0  0  0  0  0  0  0  0  0  0  0
  1  2  1  0
  2  3  1  0
  3  4  2  0
  4  5  1  0
  5  6  2  0
  6  7  1  0
  7  8  2  0
  8  9  1  0
  9 10  2  0
 10 11  1  0
 11 12  2  0
 12 13  1  0
 13 14  2  0
 14 15  1  0
 15 16  1  0
 15 17  2  0
 14 18  1  0
 18 19  1  0
 19 20  2  0
 19 21  1  0
 18 22  1  0
 22 23  2  0
  8  3  1  0
 23  9  1  0
 22 12  1  0
  1 24  1  0
  1 25  1  0
  1 26  1  0
  4 27  1  0
  5 28  1  0
  6 29  1  0
  7 30  1  0
 10 31  1  0
 11 32  1  0
 13 33  1  0
 16 34  1  0
 23 35  1  0
M  CHG  2  16  -1  21  -1
M  END
>  <UniqueID>  (7) 
7

>  <SMILES>  (7) 
COc1ccccc1-c1ccc2cc(C([NH-])=O)n(C(=O)[O-])c2c1

>  <Energy>  (7) 
83.58233889878579

>  <Genealogy>  (7) 
COc1ccccc1-c1ccc2cc(C([NH-])=O)n(C(=O)[O-])c2c1 (protonated)
COc1ccccc1-c1ccc2cc(C([NH-])=O)n(C(=O)[O-])c2c1 (3D coordinates assigned)
COc1ccccc1-c1ccc2cc(C([NH-])=O)n(C(=O)[O-])c2c1 (optimized conformer: 83.58233889878579 kcal/mol)

>  <smiles>  (7) 
COc1ccccc1-c1ccc2cc(C(N)=O)n(C(=O)O)c2c1

>  <score_type>  (7) 
oracle

>  <origin>  (7) 
adg

>  <m_score__min__energy>  (7) 
-11.27

>  <m_primary>  (7) 
energy

$$$$
7:0
     RDKit          3D

 61 65  0  0  0  0  0  0  0  0999 V2000
   -6.3540   13.5210  -34.2600 C   0  0  0  0  0  0  0  0  0  0  0  0
   -5.9520   14.8940  -33.9400 N   0  0  0  0  0  0  0  0  0  0  0  0
   -4.6330   15.2640  -34.4770 C   0  0  0  0  0  0  0  0  0  0  0  0
   -7.0090   15.9320  -34.0160 C   0  0  0  0  0  0  0  0  0  0  0  0
   -6.7310   17.3400  -33.3720 C   0  0  1  0  0  0  0  0  0  0  0  0
   -6.0980   18.2460  -34.4730 C   0  0  0  0  0  0  0  0  0  0  0  0
   -5.7300   19.6460  -33.9250 C   0  0  0  0  0  0  0  0  0  0  0  0
   -6.1360   19.7720  -32.4340 C   0  0  1  0  0  0  0  0  0  0  0  0
   -5.8130   21.1400  -31.8630 C   0  0  0  0  0  0  0  0  0  0  0  0
   -6.4140   22.2610  -32.3450 N   0  0  0  0  0  0  0  0  0  0  0  0
   -6.1160   23.4880  -31.8490 C   0  0  0  0  0  0  0  0  0  0  0  0
   -5.1780   23.6230  -30.8240 C   0  0  0  0  0  0  0  0  0  0  0  0
   -4.7440   25.2400  -30.2780 Cl  0  0  0  0  0  0  0  0  0  0  0  0
   -4.5690   22.4570  -30.3210 C   0  0  0  0  0  0  0  0  0  0  0  0
   -3.5690   22.4890  -29.2340 C   0  0  0  0  0  0  0  0  0  0  0  0
   -3.4360   21.3700  -28.3740 C   0  0  0  0  0  0  0  0  0  0  0  0
   -2.5220   21.3890  -27.3080 C   0  0  0  0  0  0  0  0  0  0  0  0
   -1.7610   22.5390  -27.1220 C   0  0  0  0  0  0  0  0  0  0  0  0
   -0.8270   22.8320  -26.1560 C   0  0  0  0  0  0  0  0  0  0  0  0
   -0.3980   24.1290  -26.4380 C   0  0  0  0  0  0  0  0  0  0  0  0
    0.6830   24.8170  -25.7000 C   0  0  0  0  0  0  0  0  0  0  0  0
    0.7620   24.7340  -24.2760 N   0  0  0  0  0  0  0  0  0  0  0  0
    1.5670   25.4610  -26.3260 O   0  0  0  0  0  0  0  0  0  0  0  0
   -1.0440   24.6180  -27.5350 N   0  0  0  0  0  0  0  0  0  0  0  0
   -0.9310   25.9330  -28.1030 C   0  0  0  0  0  0  0  0  0  0  0  0
   -1.2280   26.1340  -29.3090 O   0  0  0  0  0  0  0  0  0  0  0  0
   -0.5080   27.0020  -27.3210 O   0  0  0  0  0  0  0  0  0  0  0  0
   -1.8750   23.6310  -27.9420 C   0  0  0  0  0  0  0  0  0  0  0  0
   -2.7930   23.6470  -29.0000 C   0  0  0  0  0  0  0  0  0  0  0  0
   -4.8970   21.2530  -30.8630 N   0  0  0  0  0  0  0  0  0  0  0  0
   -7.6590   19.4920  -32.3350 C   0  0  0  0  0  0  0  0  0  0  0  0
   -7.9990   18.0690  -32.8500 C   0  0  0  0  0  0  0  0  0  0  0  0
   -5.3790   18.6720  -31.6440 C   0  0  0  0  0  0  0  0  0  0  0  0
   -5.6980   17.2630  -32.2060 C   0  0  0  0  0  0  0  0  0  0  0  0
   -6.5182   12.9603  -33.3280 H   0  0  0  0  0  0  0  0  0  0  0  0
   -7.2847   13.5386  -34.8461 H   0  0  0  0  0  0  0  0  0  0  0  0
   -5.5608   13.0338  -34.8461 H   0  0  0  0  0  0  0  0  0  0  0  0
   -3.9399   15.4584  -33.6453 H   0  0  0  0  0  0  0  0  0  0  0  0
   -4.2439   14.4403  -35.0936 H   0  0  0  0  0  0  0  0  0  0  0  0
   -4.7291   16.1699  -35.0936 H   0  0  0  0  0  0  0  0  0  0  0  0
   -7.2224   16.0997  -35.0820 H   0  0  0  0  0  0  0  0  0  0  0  0
   -7.8323   15.5202  -33.4139 H   0  0  0  0  0  0  0  0  0  0  0  0
   -5.1862   17.7612  -34.8520 H   0  0  0  0  0  0  0  0  0  0  0  0
   -6.8392   18.3772  -35.2751 H   0  0  0  0  0  0  0  0  0  0  0  0
   -4.6444   19.7968  -34.0181 H   0  0  0  0  0  0  0  0  0  0  0  0
   -6.2710   20.4077  -34.5056 H   0  0  0  0  0  0  0  0  0  0  0  0
   -6.6153   24.3797  -32.2559 H   0  0  0  0  0  0  0  0  0  0  0  0
   -4.0555   20.4770  -28.5435 H   0  0  0  0  0  0  0  0  0  0  0  0
   -2.4111   20.5216  -26.6407 H   0  0  0  0  0  0  0  0  0  0  0  0
   -0.4899   22.1817  -25.3353 H   0  0  0  0  0  0  0  0  0  0  0  0
    0.0200   24.2550  -23.7190 H   0  0  0  0  0  0  0  0  0  0  0  0
    1.5510   25.1910  -23.7670 H   0  0  0  0  0  0  0  0  0  0  0  0
   -2.9072   24.5391  -29.6333 H   0  0  0  0  0  0  0  0  0  0  0  0
   -7.9727   19.5784  -31.2842 H   0  0  0  0  0  0  0  0  0  0  0  0
   -8.1907   20.2259  -32.9585 H   0  0  0  0  0  0  0  0  0  0  0  0
   -8.4349   17.4845  -32.0264 H   0  0  0  0  0  0  0  0  0  0  0  0
   -8.7131   18.1621  -33.6815 H   0  0  0  0  0  0  0  0  0  0  0  0
   -4.2969   18.8536  -31.7221 H   0  0  0  0  0  0  0  0  0  0  0  0
   -5.7022   18.7109  -30.5933 H   0  0  0  0  0  0  0  0  0  0  0  0
   -4.7691   16.8072  -32.5794 H   0  0  0  0  0  0  0  0  0  0  0  0
   -6.1310   16.6559  -31.3973 H   0  0  0  0  0  0  0  0  0  0  0  0
  1  2  1  0
  2  3  1  0
  2  4  1  0
  5  4  1  6
  5  6  1  0
  6  7  1  0
  7  8  1  0
  8  9  1  1
  9 10  2  0
 10 11  1  0
 11 12  2  0
 12 13  1  0
 12 14  1  0
 14 15  1  0
 15 16  2  0
 16 17  1  0
 17 18  2  0
 18 19  1  0
 19 20  2  0
 20 21  1  0
 21 22  1  0
 21 23  2  0
 20 24  1  0
 24 25  1  0
 25 26  2  0
 25 27  1  0
 24 28  1  0
 28 29  2  0
 14 30  2  0
  8 31  1  0
 31 32  1  0
  8 33  1  0
 33 34  1  0
 32  5  1  0
 34  5  1  0
 30  9  1  0
 29 15  1  0
 28 18  1  0
  1 35  1  0
  1 36  1  0
  1 37  1  0
  3 38  1  0
  3 39  1  0
  3 40  1  0
  4 41  1  0
  4 42  1  0
  6 43  1  0
  6 44  1  0
  7 45  1  0
  7 46  1  0
 11 47  1  0
 16 48  1  0
 17 49  1  0
 19 50  1  0
 22 51  1  0
 22 52  1  0
 29 53  1  0
 31 54  1  0
 31 55  1  0
 32 56  1  0
 32 57  1  0
 33 58  1  0
 33 59  1  0
 34 60  1  0
 34 61  1  0
M  CHG  1  27  -1
M  END
>  <UniqueID>  (8) 
8

>  <SMILES>  (8) 
CN(C)CC12CCC(c3ncc(Cl)c(-c4ccc5cc(C(N)=O)n(C(=O)[O-])c5c4)n3)(CC1)CC2

>  <Energy>  (8) 
136.3284621317965

>  <Genealogy>  (8) 
CN(C)CC12CCC(c3ncc(Cl)c(-c4ccc5cc(C(N)=O)n(C(=O)[O-])c5c4)n3)(CC1)CC2 (protonated)
CN(C)CC12CCC(c3ncc(Cl)c(-c4ccc5cc(C(N)=O)n(C(=O)[O-])c5c4)n3)(CC1)CC2 (3D coordinates assigned)
CN(C)CC12CCC(c3ncc(Cl)c(-c4ccc5cc(C(N)=O)n(C(=O)[O-])c5c4)n3)(CC1)CC2 (nonaromatic ring conformer: 136.3284621317965 kcal/mol)

>  <smiles>  (8) 
CN(C)CC12CCC(c3ncc(Cl)c(-c4ccc5cc(C(N)=O)n(C(=O)O)c5c4)n3)(CC1)CC2

>  <score_type>  (8) 
oracle

>  <origin>  (8) 
adg

>  <m_score__min__energy>  (8) 
-11.640000000000001

>  <m_primary>  (8) 
energy

$$$$
8:0
     RDKit          3D

 54 57  0  0  0  0  0  0  0  0999 V2000
   -7.2560   23.1550  -32.3260 C   0  0  0  0  0  0  0  0  0  0  0  0
   -7.4570   21.9520  -31.5050 N   0  0  0  0  0  0  0  0  0  0  0  0
   -7.6110   22.2960  -30.0830 C   0  0  0  0  0  0  0  0  0  0  0  0
   -8.5420   21.0810  -32.0100 C   0  0  0  0  0  0  0  0  0  0  0  0
   -8.0510   19.8180  -32.7510 C   0  0  0  0  0  0  0  0  0  0  0  0
   -8.1280   18.5890  -31.8350 C   0  0  0  0  0  0  0  0  0  0  0  0
   -6.7710   17.9900  -31.5820 C   0  0  0  0  0  0  0  0  0  0  0  0
   -6.5280   17.4340  -30.4770 O   0  0  0  0  0  0  0  0  0  0  0  0
   -5.7070   18.1720  -32.5310 N   0  0  0  0  0  0  0  0  0  0  0  0
   -5.3700   17.3720  -33.5810 C   0  0  0  0  0  0  0  0  0  0  0  0
   -5.9570   16.0440  -33.8670 C   0  0  0  0  0  0  0  0  0  0  0  0
   -5.1690   14.8570  -33.7630 N   0  0  0  0  0  0  0  0  0  0  0  0
   -7.1710   15.9470  -34.1830 O   0  0  0  0  0  0  0  0  0  0  0  0
   -4.3210   17.9360  -34.3050 C   0  0  0  0  0  0  0  0  0  0  0  0
   -4.0210   19.1130  -33.6560 C   0  0  0  0  0  0  0  0  0  0  0  0
   -3.0620   20.0780  -33.9470 C   0  0  0  0  0  0  0  0  0  0  0  0
   -2.9880   21.2050  -33.1110 C   0  0  0  0  0  0  0  0  0  0  0  0
   -3.8700   21.3520  -32.0100 C   0  0  0  0  0  0  0  0  0  0  0  0
   -3.7870   22.5460  -31.1430 C   0  0  0  0  0  0  0  0  0  0  0  0
   -4.2830   23.7540  -31.4780 N   0  0  0  0  0  0  0  0  0  0  0  0
   -4.0110   24.5220  -30.4680 O   0  0  0  0  0  0  0  0  0  0  0  0
   -3.3790   23.8330  -29.5500 C   0  0  0  0  0  0  0  0  0  0  0  0
   -2.9110   24.4120  -28.2430 C   0  0  0  0  0  0  0  0  0  0  0  0
   -1.6110   25.2050  -28.3570 C   0  0  0  0  0  0  0  0  0  0  0  0
   -0.9170   24.1920  -27.4560 C   0  0  0  0  0  0  0  0  0  0  0  0
   -2.2120   23.3990  -27.3390 C   0  0  0  0  0  0  0  0  0  0  0  0
   -3.2030   22.5510  -29.9250 N   0  0  0  0  0  0  0  0  0  0  0  0
   -4.8300   20.3460  -31.7470 C   0  0  0  0  0  0  0  0  0  0  0  0
   -4.8710   19.2300  -32.5890 C   0  0  0  0  0  0  0  0  0  0  0  0
   -7.1104   24.0262  -31.6704 H   0  0  0  0  0  0  0  0  0  0  0  0
   -6.3677   23.0214  -32.9609 H   0  0  0  0  0  0  0  0  0  0  0  0
   -8.1395   23.3174  -32.9609 H   0  0  0  0  0  0  0  0  0  0  0  0
   -7.2398   21.4668  -29.4629 H   0  0  0  0  0  0  0  0  0  0  0  0
   -7.0344   23.2062  -29.8614 H   0  0  0  0  0  0  0  0  0  0  0  0
   -8.6739   22.4722  -29.8614 H   0  0  0  0  0  0  0  0  0  0  0  0
   -9.1541   20.7617  -31.1536 H   0  0  0  0  0  0  0  0  0  0  0  0
   -9.1079   21.6756  -32.7423 H   0  0  0  0  0  0  0  0  0  0  0  0
   -8.6828   19.6495  -33.6356 H   0  0  0  0  0  0  0  0  0  0  0  0
   -7.0043   19.9693  -33.0536 H   0  0  0  0  0  0  0  0  0  0  0  0
   -8.5686   18.8898  -30.8730 H   0  0  0  0  0  0  0  0  0  0  0  0
   -8.7471   17.8299  -32.3355 H   0  0  0  0  0  0  0  0  0  0  0  0
   -4.1460   14.9010  -33.5620 H   0  0  0  0  0  0  0  0  0  0  0  0
   -5.6050   13.9240  -33.9310 H   0  0  0  0  0  0  0  0  0  0  0  0
   -3.8358   17.5277  -35.2038 H   0  0  0  0  0  0  0  0  0  0  0  0
   -2.3830   19.9624  -34.8046 H   0  0  0  0  0  0  0  0  0  0  0  0
   -2.2368   21.9828  -33.3129 H   0  0  0  0  0  0  0  0  0  0  0  0
   -3.8390   24.9039  -27.9160 H   0  0  0  0  0  0  0  0  0  0  0  0
   -1.2021   25.2536  -29.3770 H   0  0  0  0  0  0  0  0  0  0  0  0
   -1.5885   26.2770  -28.1116 H   0  0  0  0  0  0  0  0  0  0  0  0
   -0.0985   23.6438  -27.9454 H   0  0  0  0  0  0  0  0  0  0  0  0
   -0.3874   24.5256  -26.5514 H   0  0  0  0  0  0  0  0  0  0  0  0
   -2.1571   22.3841  -27.7596 H   0  0  0  0  0  0  0  0  0  0  0  0
   -2.6280   23.1533  -26.3508 H   0  0  0  0  0  0  0  0  0  0  0  0
   -5.5269   20.4395  -30.9011 H   0  0  0  0  0  0  0  0  0  0  0  0
  1  2  1  0
  2  3  1  0
  2  4  1  0
  4  5  1  0
  5  6  1  0
  6  7  1  0
  7  8  2  0
  7  9  1  0
  9 10  1  0
 10 11  1  0
 11 12  1  0
 11 13  2  0
 10 14  2  0
 14 15  1  0
 15 16  2  0
 16 17  1  0
 17 18  2  0
 18 19  1  0
 19 20  2  0
 20 21  1  0
 21 22  1  0
 22 23  1  0
 23 24  1  0
 24 25  1  0
 25 26  1  0
 22 27  2  0
 18 28  1  0
 28 29  2  0
 29  9  1  0
 29 15  1  0
 27 19  1  0
 26 23  1  0
  1 30  1  0
  1 31  1  0
  1 32  1  0
  3 33  1  0
  3 34  1  0
  3 35  1  0
  4 36  1  0
  4 37  1  0
  5 38  1  0
  5 39  1  0
  6 40  1  0
  6 41  1  0
 12 42  1  0
 12 43  1  0
 14 44  1  0
 16 45  1  0
 17 46  1  0
 23 47  1  0
 24 48  1  0
 24 49  1  0
 25 50  1  0
 25 51  1  0
 26 52  1  0
 26 53  1  0
 28 54  1  0
M  END
>  <UniqueID>  (9) 
9

>  <SMILES>  (9) 
CN(C)CCCC(=O)n1c(C(N)=O)cc2ccc(-c3noc(C4CCC4)n3)cc21

>  <Energy>  (9) 
188.15995160972935

>  <Genealogy>  (9) 
CN(C)CCCC(=O)n1c(C(N)=O)cc2ccc(-c3noc(C4CCC4)n3)cc21 (3D coordinates assigned)
CN(C)CCCC(=O)n1c(C(N)=O)cc2ccc(-c3noc(C4CCC4)n3)cc21 (nonaromatic ring conformer: 188.15995160972935 kcal/mol)

>  <smiles>  (9) 
CN(C)CCCC(=O)n1c(C(N)=O)cc2ccc(-c3noc(C4CCC4)n3)cc21

>  <score_type>  (9) 
oracle

>  <origin>  (9) 
adg

>  <m_score__min__energy>  (9) 
-9.6400000000000006

>  <m_primary>  (9) 
energy

$$$$
9:0
     RDKit          3D

 36 38  0  0  0  0  0  0  0  0999 V2000
   -3.5070   25.1020  -30.4720 N   0  0  0  0  0  0  0  0  0  0  0  0
   -4.9140   25.2010  -30.6770 C   0  0  0  0  0  0  0  0  0  0  0  0
   -5.4550   26.3380  -30.7100 O   0  0  0  0  0  0  0  0  0  0  0  0
   -5.7370   23.9930  -30.9000 C   0  0  0  0  0  0  0  0  0  0  0  0
   -7.0730   23.8910  -30.5170 C   0  0  0  0  0  0  0  0  0  0  0  0
   -7.4960   22.6700  -30.9880 C   0  0  0  0  0  0  0  0  0  0  0  0
   -8.7410   22.0540  -30.8940 C   0  0  0  0  0  0  0  0  0  0  0  0
   -8.8890   20.7780  -31.4630 C   0  0  0  0  0  0  0  0  0  0  0  0
   -7.7940   20.1380  -32.0990 C   0  0  0  0  0  0  0  0  0  0  0  0
   -7.9740   18.7870  -32.7320 C   0  0  0  0  0  0  0  0  0  0  0  0
   -6.6430   18.2390  -33.1710 C   0  0  0  0  0  0  0  0  0  0  0  0
   -6.0960   18.6150  -34.4090 C   0  0  0  0  0  0  0  0  0  0  0  0
   -4.8780   18.0760  -34.8340 C   0  0  0  0  0  0  0  0  0  0  0  0
   -4.2010   17.1540  -34.0300 C   0  0  0  0  0  0  0  0  0  0  0  0
   -3.0210   16.6310  -34.4430 F   0  0  0  0  0  0  0  0  0  0  0  0
   -4.7450   16.7650  -32.8020 C   0  0  0  0  0  0  0  0  0  0  0  0
   -5.9640   17.3020  -32.3750 C   0  0  0  0  0  0  0  0  0  0  0  0
   -6.5490   20.7990  -32.1830 C   0  0  0  0  0  0  0  0  0  0  0  0
   -6.4350   22.0750  -31.6220 C   0  0  0  0  0  0  0  0  0  0  0  0
   -5.3470   22.8730  -31.5720 N   0  0  0  0  0  0  0  0  0  0  0  0
   -4.0370   22.5480  -32.0640 C   0  0  0  0  0  0  0  0  0  0  0  0
   -3.8310   22.2770  -33.4500 N   0  0  0  0  0  0  0  0  0  0  0  0
   -3.0550   22.5360  -31.2750 O   0  0  0  0  0  0  0  0  0  0  0  0
   -2.8860   24.6940  -31.2040 H   0  0  0  0  0  0  0  0  0  0  0  0
   -7.6640   24.6304  -29.9567 H   0  0  0  0  0  0  0  0  0  0  0  0
   -9.5828   22.5510  -30.3898 H   0  0  0  0  0  0  0  0  0  0  0  0
   -9.8635   20.2701  -31.4149 H   0  0  0  0  0  0  0  0  0  0  0  0
   -8.4268   18.1005  -32.0014 H   0  0  0  0  0  0  0  0  0  0  0  0
   -8.6295   18.8857  -33.6098 H   0  0  0  0  0  0  0  0  0  0  0  0
   -6.6281   19.3364  -35.0466 H   0  0  0  0  0  0  0  0  0  0  0  0
   -4.4518   18.3777  -35.8022 H   0  0  0  0  0  0  0  0  0  0  0  0
   -4.2142   16.0365  -32.1716 H   0  0  0  0  0  0  0  0  0  0  0  0
   -6.3927   16.9891  -31.4115 H   0  0  0  0  0  0  0  0  0  0  0  0
   -5.6900   20.3220  -32.6775 H   0  0  0  0  0  0  0  0  0  0  0  0
   -2.8810   22.0280  -33.8030 H   0  0  0  0  0  0  0  0  0  0  0  0
   -4.6190   22.3560  -34.1290 H   0  0  0  0  0  0  0  0  0  0  0  0
  1  2  1  0
  2  3  2  0
  2  4  1  0
  4  5  2  0
  5  6  1  0
  6  7  2  0
  7  8  1  0
  8  9  2  0
  9 10  1  0
 10 11  1  0
 11 12  2  0
 12 13  1  0
 13 14  2  0
 14 15  1  0
 14 16  1  0
 16 17  2  0
  9 18  1  0
 18 19  2  0
 19 20  1  0
 20 21  1  0
 21 22  1  0
 21 23  2  0
 20  4  1  0
 19  6  1  0
 17 11  1  0
  1 24  1  0
  5 25  1  0
  7 26  1  0
  8 27  1  0
 10 28  1  0
 10 29  1  0
 12 30  1  0
 13 31  1  0
 16 32  1  0
 17 33  1  0
 18 34  1  0
 22 35  1  0
 22 36  1  0
M  CHG  1   1  -1
M  END
>  <UniqueID>  (10) 
10

>  <SMILES>  (10) 
[NH-]C(=O)c1cc2ccc(Cc3ccc(F)cc3)cc2n1C(N)=O

>  <Energy>  (10) 
75.69746912732529

>  <Genealogy>  (10) 
[NH-]C(=O)c1cc2ccc(Cc3ccc(F)cc3)cc2n1C(N)=O (protonated)
[NH-]C(=O)c1cc2ccc(Cc3ccc(F)cc3)cc2n1C(N)=O (3D coordinates assigned)
[NH-]C(=O)c1cc2ccc(Cc3ccc(F)cc3)cc2n1C(N)=O (optimized conformer: 75.69746912732529 kcal/mol)

>  <smiles>  (10) 
NC(=O)c1cc2ccc(Cc3ccc(F)cc3)cc2n1C(N)=O

>  <score_type>  (10) 
oracle

>  <origin>  (10) 
adg

>  <m_score__min__energy>  (10) 
-11.25

>  <m_primary>  (10) 
energy

$$$$
10:0
     RDKit          3D

 31 32  0  0  0  0  0  0  0  0999 V2000
   -3.8390   23.5530  -28.0270 C   0  0  0  0  0  0  0  0  0  0  0  0
   -3.0300   22.6060  -28.9060 C   0  0  0  0  0  0  0  0  0  0  0  0
   -2.8950   23.1330  -30.2230 O   0  0  0  0  0  0  0  0  0  0  0  0
   -3.6740   22.7090  -31.3070 C   0  0  0  0  0  0  0  0  0  0  0  0
   -3.1300   22.1840  -32.3170 O   0  0  0  0  0  0  0  0  0  0  0  0
   -5.0980   22.8880  -31.2740 N   0  0  0  0  0  0  0  0  0  0  0  0
   -5.7880   24.0320  -31.0040 C   0  0  0  0  0  0  0  0  0  0  0  0
   -5.2070   25.3000  -30.5130 C   0  0  0  0  0  0  0  0  0  0  0  0
   -3.8730   25.6720  -30.8450 N   0  0  0  0  0  0  0  0  0  0  0  0
   -5.8830   26.0390  -29.7480 O   0  0  0  0  0  0  0  0  0  0  0  0
   -7.1550   23.8310  -31.1790 C   0  0  0  0  0  0  0  0  0  0  0  0
   -7.2850   22.5160  -31.5590 C   0  0  0  0  0  0  0  0  0  0  0  0
   -8.4240   21.7880  -31.8870 C   0  0  0  0  0  0  0  0  0  0  0  0
   -8.2600   20.4510  -32.2860 C   0  0  0  0  0  0  0  0  0  0  0  0
   -6.9690   19.8620  -32.3390 C   0  0  0  0  0  0  0  0  0  0  0  0
   -6.8010   18.4470  -32.8290 C   0  0  0  0  0  0  0  0  0  0  0  0
   -5.7980   17.8310  -32.1050 F   0  0  0  0  0  0  0  0  0  0  0  0
   -7.9760   17.7320  -32.6700 F   0  0  0  0  0  0  0  0  0  0  0  0
   -6.4640   18.4310  -34.1720 F   0  0  0  0  0  0  0  0  0  0  0  0
   -5.8350   20.6440  -32.0210 C   0  0  0  0  0  0  0  0  0  0  0  0
   -6.0290   21.9680  -31.6090 C   0  0  0  0  0  0  0  0  0  0  0  0
   -3.6452   23.3261  -26.9683 H   0  0  0  0  0  0  0  0  0  0  0  0
   -3.5449   24.5915  -28.2392 H   0  0  0  0  0  0  0  0  0  0  0  0
   -4.9107   23.4247  -28.2392 H   0  0  0  0  0  0  0  0  0  0  0  0
   -2.0305   22.4710  -28.4669 H   0  0  0  0  0  0  0  0  0  0  0  0
   -3.5552   21.6412  -28.9633 H   0  0  0  0  0  0  0  0  0  0  0  0
   -3.0610   25.2980  -30.3060 H   0  0  0  0  0  0  0  0  0  0  0  0
   -7.9600   24.5680  -31.0422 H   0  0  0  0  0  0  0  0  0  0  0  0
   -9.4231   22.2454  -31.8355 H   0  0  0  0  0  0  0  0  0  0  0  0
   -9.1418   19.8535  -32.5605 H   0  0  0  0  0  0  0  0  0  0  0  0
   -4.8222   20.2214  -32.0956 H   0  0  0  0  0  0  0  0  0  0  0  0
  1  2  1  0
  2  3  1  0
  3  4  1  0
  4  5  2  0
  4  6  1  0
  6  7  1  0
  7  8  1  0
  8  9  1  0
  8 10  2  0
  7 11  2  0
 11 12  1  0
 12 13  2  0
 13 14  1  0
 14 15  2  0
 15 16  1  0
 16 17  1  0
 16 18  1  0
 16 19  1  0
 15 20  1  0
 20 21  2  0
 21  6  1  0
 21 12  1  0
  1 22  1  0
  1 23  1  0
  1 24  1  0
  2 25  1  0
  2 26  1  0
  9 27  1  0
 11 28  1  0
 13 29  1  0
 14 30  1  0
 20 31  1  0
M  CHG  1   9  -1
M  END
>  <UniqueID>  (11) 
11

>  <SMILES>  (11) 
CCOC(=O)n1c(C([NH-])=O)cc2ccc(C(F)(F)F)cc21

>  <Energy>  (11) 
67.17308336896356

>  <Genealogy>  (11) 
CCOC(=O)n1c(C([NH-])=O)cc2ccc(C(F)(F)F)cc21 (protonated)
CCOC(=O)n1c(C([NH-])=O)cc2ccc(C(F)(F)F)cc21 (3D coordinates assigned)
CCOC(=O)n1c(C([NH-])=O)cc2ccc(C(F)(F)F)cc21 (optimized conformer: 67.17308336896356 kcal/mol)

>  <smiles>  (11) 
CCOC(=O)n1c(C(N)=O)cc2ccc(C(F)(F)F)cc21

>  <score_type>  (11) 
oracle

>  <origin>  (11) 
adg

>  <m_score__min__energy>  (11) 
-9.1600000000000001

>  <m_primary>  (11) 
energy

$$$$
11:0
     RDKit          3D

 37 38  0  0  0  0  0  0  0  0999 V2000
   -3.5390   21.8180  -33.5470 N   0  0  0  0  0  0  0  0  0  0  0  0
   -3.5780   20.4270  -33.2340 C   0  0  0  0  0  0  0  0  0  0  0  0
   -2.5160   19.8380  -32.9000 O   0  0  0  0  0  0  0  0  0  0  0  0
   -4.8190   19.7040  -33.2870 N   0  0  0  0  0  0  0  0  0  0  0  0
   -5.0710   18.5430  -33.9570 C   0  0  0  0  0  0  0  0  0  0  0  0
   -4.0680   17.7070  -34.6450 C   0  0  0  0  0  0  0  0  0  0  0  0
   -2.8020   17.4250  -34.0460 N   0  0  0  0  0  0  0  0  0  0  0  0
   -4.3530   17.1870  -35.7570 O   0  0  0  0  0  0  0  0  0  0  0  0
   -6.4200   18.2100  -33.8760 C   0  0  0  0  0  0  0  0  0  0  0  0
   -6.9940   19.2040  -33.1170 C   0  0  0  0  0  0  0  0  0  0  0  0
   -8.3190   19.3790  -32.7310 C   0  0  0  0  0  0  0  0  0  0  0  0
   -8.6400   20.5190  -31.9750 C   0  0  0  0  0  0  0  0  0  0  0  0
   -7.6420   21.4660  -31.6400 C   0  0  0  0  0  0  0  0  0  0  0  0
   -7.9990   22.6760  -30.8160 C   0  0  0  0  0  0  0  0  0  0  0  0
   -6.9460   22.9650  -29.7360 C   0  0  0  0  0  0  0  0  0  0  0  0
   -5.9500   24.0550  -30.1690 C   0  0  0  0  0  0  0  0  0  0  0  0
   -4.6120   23.9420  -29.4280 C   0  0  0  0  0  0  0  0  0  0  0  0
   -3.6090   24.9290  -29.9430 C   0  0  0  0  0  0  0  0  0  0  0  0
   -3.8940   25.6750  -30.9170 O   0  0  0  0  0  0  0  0  0  0  0  0
   -2.3710   25.0490  -29.3230 O   0  0  0  0  0  0  0  0  0  0  0  0
   -6.3060   21.2550  -32.0490 C   0  0  0  0  0  0  0  0  0  0  0  0
   -6.0090   20.0970  -32.7780 C   0  0  0  0  0  0  0  0  0  0  0  0
   -4.2270   22.2380  -34.2100 H   0  0  0  0  0  0  0  0  0  0  0  0
   -2.0900   16.8660  -34.5660 H   0  0  0  0  0  0  0  0  0  0  0  0
   -2.6020   17.6900  -33.0570 H   0  0  0  0  0  0  0  0  0  0  0  0
   -6.9204   17.3384  -34.3232 H   0  0  0  0  0  0  0  0  0  0  0  0
   -9.0918   18.6473  -33.0091 H   0  0  0  0  0  0  0  0  0  0  0  0
   -9.6759   20.6772  -31.6404 H   0  0  0  0  0  0  0  0  0  0  0  0
   -8.0752   23.5490  -31.4809 H   0  0  0  0  0  0  0  0  0  0  0  0
   -8.9565   22.4753  -30.3132 H   0  0  0  0  0  0  0  0  0  0  0  0
   -7.4591   23.2976  -28.8216 H   0  0  0  0  0  0  0  0  0  0  0  0
   -6.3778   22.0391  -29.5634 H   0  0  0  0  0  0  0  0  0  0  0  0
   -5.7663   23.9586  -31.2493 H   0  0  0  0  0  0  0  0  0  0  0  0
   -6.3908   25.0327  -29.9245 H   0  0  0  0  0  0  0  0  0  0  0  0
   -4.7803   24.1302  -28.3574 H   0  0  0  0  0  0  0  0  0  0  0  0
   -4.2132   22.9300  -29.5920 H   0  0  0  0  0  0  0  0  0  0  0  0
   -5.5189   21.9823  -31.8009 H   0  0  0  0  0  0  0  0  0  0  0  0
  1  2  1  0
  2  3  2  0
  2  4  1  0
  4  5  1  0
  5  6  1  0
  6  7  1  0
  6  8  2  0
  5  9  2  0
  9 10  1  0
 10 11  2  0
 11 12  1  0
 12 13  2  0
 13 14  1  0
 14 15  1  0
 15 16  1  0
 16 17  1  0
 17 18  1  0
 18 19  2  0
 18 20  1  0
 13 21  1  0
 21 22  2  0
 22  4  1  0
 22 10  1  0
  1 23  1  0
  7 24  1  0
  7 25  1  0
  9 26  1  0
 11 27  1  0
 12 28  1  0
 14 29  1  0
 14 30  1  0
 15 31  1  0
 15 32  1  0
 16 33  1  0
 16 34  1  0
 17 35  1  0
 17 36  1  0
 21 37  1  0
M  CHG  2   1  -1  20  -1
M  END
>  <UniqueID>  (12) 
12

>  <SMILES>  (12) 
[NH-]C(=O)n1c(C(N)=O)cc2ccc(CCCCC(=O)[O-])cc21

>  <Energy>  (12) 
69.51119865056899

>  <Genealogy>  (12) 
[NH-]C(=O)n1c(C(N)=O)cc2ccc(CCCCC(=O)[O-])cc21 (protonated)
[NH-]C(=O)n1c(C(N)=O)cc2ccc(CCCCC(=O)[O-])cc21 (3D coordinates assigned)
[NH-]C(=O)n1c(C(N)=O)cc2ccc(CCCCC(=O)[O-])cc21 (optimized conformer: 69.51119865056899 kcal/mol)

>  <smiles>  (12) 
NC(=O)c1cc2ccc(CCCCC(=O)O)cc2n1C(N)=O

>  <score_type>  (12) 
oracle

>  <origin>  (12) 
adg

>  <m_score__min__energy>  (12) 
-10.539999999999999

>  <m_primary>  (12) 
energy

$$$$
12:0
     RDKit          3D

 59 62  0  0  0  0  0  0  0  0999 V2000
   -0.7530   21.5320  -34.1320 C   0  0  0  0  0  0  0  0  0  0  0  0
   -1.2370   20.4650  -33.2410 N   0  0  0  0  0  0  0  0  0  0  0  0
   -0.5270   20.4900  -31.9350 C   0  0  0  0  0  0  0  0  0  0  0  0
   -1.3350   21.2010  -30.8370 C   0  0  0  0  0  0  0  0  0  0  0  0
   -2.6940   20.5030  -30.6000 C   0  0  0  0  0  0  0  0  0  0  0  0
   -3.6840   21.4780  -30.1470 N   0  0  0  0  0  0  0  0  0  0  0  0
   -4.1910   22.5530  -30.9430 C   0  0  0  0  0  0  0  0  0  0  0  0
   -3.3840   23.2450  -31.6180 O   0  0  0  0  0  0  0  0  0  0  0  0
   -5.6150   22.8120  -31.0120 N   0  0  0  0  0  0  0  0  0  0  0  0
   -6.2430   24.0040  -30.7770 C   0  0  0  0  0  0  0  0  0  0  0  0
   -5.6280   25.2150  -30.2080 C   0  0  0  0  0  0  0  0  0  0  0  0
   -4.2950   25.5870  -30.5540 N   0  0  0  0  0  0  0  0  0  0  0  0
   -6.2480   25.8690  -29.3270 O   0  0  0  0  0  0  0  0  0  0  0  0
   -7.5950   23.9280  -31.0790 C   0  0  0  0  0  0  0  0  0  0  0  0
   -7.8040   22.6340  -31.4790 C   0  0  0  0  0  0  0  0  0  0  0  0
   -8.9900   22.0040  -31.8450 C   0  0  0  0  0  0  0  0  0  0  0  0
   -8.9400   20.6380  -32.1610 C   0  0  0  0  0  0  0  0  0  0  0  0
   -7.7170   19.9290  -32.1030 C   0  0  0  0  0  0  0  0  0  0  0  0
   -7.6860   18.4560  -32.4270 C   0  0  0  0  0  0  0  0  0  0  0  0
   -6.4960   17.7500  -31.7600 C   0  0  0  0  0  0  0  0  0  0  0  0
   -5.3180   17.7050  -32.6520 N   0  0  0  0  0  0  0  0  0  0  0  0
   -5.6470   18.2170  -33.9850 C   0  0  0  0  0  0  0  0  0  0  0  0
   -4.6810   17.5660  -34.9580 C   0  0  0  0  0  0  0  0  0  0  0  0
   -4.2070   16.3010  -34.2640 C   0  0  0  0  0  0  0  0  0  0  0  0
   -4.8190   16.3410  -32.8690 C   0  0  0  0  0  0  0  0  0  0  0  0
   -6.5300   20.6030  -31.7340 C   0  0  0  0  0  0  0  0  0  0  0  0
   -6.5990   21.9730  -31.4300 C   0  0  0  0  0  0  0  0  0  0  0  0
   -3.2180   19.8050  -31.8730 C   0  0  0  0  0  0  0  0  0  0  0  0
   -2.7150   20.5180  -33.1330 C   0  0  0  0  0  0  0  0  0  0  0  0
   -0.3731   22.3695  -33.5284 H   0  0  0  0  0  0  0  0  0  0  0  0
    0.0558   21.1409  -34.7667 H   0  0  0  0  0  0  0  0  0  0  0  0
   -1.5800   21.8830  -34.7667 H   0  0  0  0  0  0  0  0  0  0  0  0
   -0.3365   19.4542  -31.6176 H   0  0  0  0  0  0  0  0  0  0  0  0
    0.4095   21.0498  -32.0752 H   0  0  0  0  0  0  0  0  0  0  0  0
   -0.7571   21.1877  -29.9011 H   0  0  0  0  0  0  0  0  0  0  0  0
   -1.5268   22.2346  -31.1607 H   0  0  0  0  0  0  0  0  0  0  0  0
   -2.5350   19.7343  -29.8294 H   0  0  0  0  0  0  0  0  0  0  0  0
   -3.7190   24.9840  -31.1810 H   0  0  0  0  0  0  0  0  0  0  0  0
   -3.8660   26.4450  -30.1430 H   0  0  0  0  0  0  0  0  0  0  0  0
   -8.3402   24.7343  -31.0117 H   0  0  0  0  0  0  0  0  0  0  0  0
   -9.9380   22.5604  -31.8853 H   0  0  0  0  0  0  0  0  0  0  0  0
   -9.8604   20.1132  -32.4567 H   0  0  0  0  0  0  0  0  0  0  0  0
   -8.6188   17.9937  -32.0720 H   0  0  0  0  0  0  0  0  0  0  0  0
   -7.5807   18.3478  -33.5166 H   0  0  0  0  0  0  0  0  0  0  0  0
   -6.2277   18.2935  -30.8421 H   0  0  0  0  0  0  0  0  0  0  0  0
   -6.7940   16.7159  -31.5325 H   0  0  0  0  0  0  0  0  0  0  0  0
   -6.6824   17.9534  -34.2465 H   0  0  0  0  0  0  0  0  0  0  0  0
   -5.5605   19.3131  -34.0182 H   0  0  0  0  0  0  0  0  0  0  0  0
   -5.1909   17.3203  -35.9012 H   0  0  0  0  0  0  0  0  0  0  0  0
   -3.8440   18.2325  -35.2135 H   0  0  0  0  0  0  0  0  0  0  0  0
   -4.5543   15.4112  -34.8096 H   0  0  0  0  0  0  0  0  0  0  0  0
   -3.1090   16.2473  -34.2239 H   0  0  0  0  0  0  0  0  0  0  0  0
   -5.6480   15.6212  -32.8005 H   0  0  0  0  0  0  0  0  0  0  0  0
   -4.0720   16.0730  -32.1073 H   0  0  0  0  0  0  0  0  0  0  0  0
   -5.5715   20.0654  -31.6859 H   0  0  0  0  0  0  0  0  0  0  0  0
   -2.8655   18.7630  -31.8836 H   0  0  0  0  0  0  0  0  0  0  0  0
   -4.3175   19.8381  -31.8652 H   0  0  0  0  0  0  0  0  0  0  0  0
   -3.1545   20.0323  -34.0167 H   0  0  0  0  0  0  0  0  0  0  0  0
   -3.0164   21.5742  -33.0724 H   0  0  0  0  0  0  0  0  0  0  0  0
  1  2  1  0
  2  3  1  0
  3  4  1  0
  4  5  1  0
  5  6  1  0
  6  7  1  0
  7  8  2  0
  7  9  1  0
  9 10  1  0
 10 11  1  0
 11 12  1  0
 11 13  2  0
 10 14  2  0
 14 15  1  0
 15 16  2  0
 16 17  1  0
 17 18  2  0
 18 19  1  0
 19 20  1  0
 20 21  1  0
 21 22  1  0
 22 23  1  0
 23 24  1  0
 24 25  1  0
 18 26  1  0
 26 27  2  0
  5 28  1  0
 28 29  1  0
 29  2  1  0
 27  9  1  0
 27 15  1  0
 25 21  1  0
  1 30  1  0
  1 31  1  0
  1 32  1  0
  3 33  1  0
  3 34  1  0
  4 35  1  0
  4 36  1  0
  5 37  1  0
 12 38  1  0
 12 39  1  0
 14 40  1  0
 16 41  1  0
 17 42  1  0
 19 43  1  0
 19 44  1  0
 20 45  1  0
 20 46  1  0
 22 47  1  0
 22 48  1  0
 23 49  1  0
 23 50  1  0
 24 51  1  0
 24 52  1  0
 25 53  1  0
 25 54  1  0
 26 55  1  0
 28 56  1  0
 28 57  1  0
 29 58  1  0
 29 59  1  0
M  CHG  1   6  -1
M  END
>  <UniqueID>  (13) 
13

>  <SMILES>  (13) 
CN1CCC([N-]C(=O)n2c(C(N)=O)cc3ccc(CCN4CCCC4)cc32)CC1

>  <Energy>  (13) 
105.8952015343858

>  <Genealogy>  (13) 
CN1CCC([N-]C(=O)n2c(C(N)=O)cc3ccc(CCN4CCCC4)cc32)CC1 (protonated)
CN1CCC([N-]C(=O)n2c(C(N)=O)cc3ccc(CCN4CCCC4)cc32)CC1 (3D coordinates assigned)
CN1CCC([N-]C(=O)n2c(C(N)=O)cc3ccc(CCN4CCCC4)cc32)CC1 (nonaromatic ring conformer: 105.8952015343858 kcal/mol)

>  <smiles>  (13) 
CN1CCC(NC(=O)n2c(C(N)=O)cc3ccc(CCN4CCCC4)cc32)CC1

>  <score_type>  (13) 
oracle

>  <origin>  (13) 
adg

>  <m_score__min__energy>  (13) 
-11.01

>  <m_primary>  (13) 
energy

$$$$
13:0
     RDKit          3D

 61 65  0  0  0  0  0  0  0  0999 V2000
   -3.8560   25.3350  -30.4820 N   0  0  0  0  0  0  0  0  0  0  0  0
   -5.1890   24.9810  -30.1260 C   0  0  0  0  0  0  0  0  0  0  0  0
   -5.7950   25.6600  -29.2540 O   0  0  0  0  0  0  0  0  0  0  0  0
   -5.8590   23.8150  -30.7390 C   0  0  0  0  0  0  0  0  0  0  0  0
   -7.2350   23.7320  -30.9470 C   0  0  0  0  0  0  0  0  0  0  0  0
   -7.4480   22.4850  -31.4890 C   0  0  0  0  0  0  0  0  0  0  0  0
   -8.6270   21.8750  -31.9030 C   0  0  0  0  0  0  0  0  0  0  0  0
   -8.5460   20.5820  -32.4480 C   0  0  0  0  0  0  0  0  0  0  0  0
   -7.2910   19.9260  -32.5780 C   0  0  0  0  0  0  0  0  0  0  0  0
   -7.1840   18.6040  -33.1370 N   0  0  0  0  0  0  0  0  0  0  0  0
   -7.1970   17.3830  -32.3260 C   0  0  0  0  0  0  0  0  0  0  0  0
   -5.9340   16.5290  -32.5670 C   0  0  2  0  0  0  0  0  0  0  0  0
   -4.6930   17.3080  -32.3610 N   0  0  0  0  0  0  0  0  0  0  0  0
   -4.0300   17.9050  -33.8600 S   0  0  0  0  0  0  0  0  0  0  0  0
   -5.0890   18.6860  -34.5900 O   0  0  0  0  0  0  0  0  0  0  0  0
   -3.6140   16.7340  -34.7050 O   0  0  0  0  0  0  0  0  0  0  0  0
   -2.6040   18.9230  -33.5710 C   0  0  0  0  0  0  0  0  0  0  0  0
   -2.6740   20.2780  -33.9280 C   0  0  0  0  0  0  0  0  0  0  0  0
   -1.5700   21.1170  -33.7860 C   0  0  0  0  0  0  0  0  0  0  0  0
   -0.3770   20.6250  -33.2660 C   0  0  0  0  0  0  0  0  0  0  0  0
   -0.2870   19.2900  -32.8500 C   0  0  0  0  0  0  0  0  0  0  0  0
    0.9110   18.8130  -32.2920 C   0  0  0  0  0  0  0  0  0  0  0  0
    1.0000   17.4970  -31.8390 C   0  0  0  0  0  0  0  0  0  0  0  0
   -0.1030   16.6500  -31.9270 C   0  0  0  0  0  0  0  0  0  0  0  0
   -1.3010   17.1060  -32.4850 C   0  0  0  0  0  0  0  0  0  0  0  0
   -1.4100   18.4260  -32.9770 C   0  0  0  0  0  0  0  0  0  0  0  0
   -5.9560   16.0220  -33.9780 C   0  0  0  0  0  0  0  0  0  0  0  0
   -6.5710   16.6620  -34.8720 O   0  0  0  0  0  0  0  0  0  0  0  0
   -5.2830   14.8530  -34.3130 O   0  0  0  0  0  0  0  0  0  0  0  0
   -6.1180   20.5840  -32.1490 C   0  0  0  0  0  0  0  0  0  0  0  0
   -6.2340   21.8610  -31.5940 C   0  0  0  0  0  0  0  0  0  0  0  0
   -5.2490   22.6620  -31.1320 N   0  0  0  0  0  0  0  0  0  0  0  0
   -3.8420   22.3780  -31.1620 C   0  0  0  0  0  0  0  0  0  0  0  0
   -3.1660   22.7310  -32.1660 O   0  0  0  0  0  0  0  0  0  0  0  0
   -3.1800   21.6700  -30.0390 C   0  0  0  0  0  0  0  0  0  0  0  0
   -2.1590   20.7370  -30.2870 C   0  0  0  0  0  0  0  0  0  0  0  0
   -1.5500   20.0760  -29.2170 C   0  0  0  0  0  0  0  0  0  0  0  0
   -1.9400   20.3380  -27.9410 N   0  0  0  0  0  0  0  0  0  0  0  0
   -2.9190   21.2400  -27.6680 C   0  0  0  0  0  0  0  0  0  0  0  0
   -3.5540   21.9230  -28.7080 C   0  0  0  0  0  0  0  0  0  0  0  0
   -3.2200   24.6440  -30.9390 H   0  0  0  0  0  0  0  0  0  0  0  0
   -7.9903   24.5003  -30.7250 H   0  0  0  0  0  0  0  0  0  0  0  0
   -9.5946   22.3893  -31.8068 H   0  0  0  0  0  0  0  0  0  0  0  0
   -9.4632   20.0720  -32.7775 H   0  0  0  0  0  0  0  0  0  0  0  0
   -7.0870   18.5200  -34.1740 H   0  0  0  0  0  0  0  0  0  0  0  0
   -7.2428   17.6609  -31.2627 H   0  0  0  0  0  0  0  0  0  0  0  0
   -8.0759   16.7874  -32.6139 H   0  0  0  0  0  0  0  0  0  0  0  0
   -5.9405   15.6994  -31.8447 H   0  0  0  0  0  0  0  0  0  0  0  0
   -3.9480   16.7250  -31.9130 H   0  0  0  0  0  0  0  0  0  0  0  0
   -3.6152   20.6848  -34.3263 H   0  0  0  0  0  0  0  0  0  0  0  0
   -1.6423   22.1727  -34.0864 H   0  0  0  0  0  0  0  0  0  0  0  0
    0.4982   21.2860  -33.1812 H   0  0  0  0  0  0  0  0  0  0  0  0
    1.7820   19.4801  -32.2121 H   0  0  0  0  0  0  0  0  0  0  0  0
    1.9433   17.1267  -31.4111 H   0  0  0  0  0  0  0  0  0  0  0  0
   -0.0307   15.6172  -31.5555 H   0  0  0  0  0  0  0  0  0  0  0  0
   -2.1673   16.4305  -32.5416 H   0  0  0  0  0  0  0  0  0  0  0  0
   -5.1344   20.1020  -32.2494 H   0  0  0  0  0  0  0  0  0  0  0  0
   -1.8405   20.5279  -31.3189 H   0  0  0  0  0  0  0  0  0  0  0  0
   -0.7532   19.3420  -29.4074 H   0  0  0  0  0  0  0  0  0  0  0  0
   -3.2122   21.4328  -26.6255 H   0  0  0  0  0  0  0  0  0  0  0  0
   -4.3436   22.6560  -28.4861 H   0  0  0  0  0  0  0  0  0  0  0  0
  1  2  1  0
  2  3  2  0
  2  4  1  0
  4  5  2  0
  5  6  1  0
  6  7  2  0
  7  8  1  0
  8  9  2  0
  9 10  1  0
 10 11  1  0
 11 12  1  0
 12 13  1  0
 13 14  1  0
 14 15  2  0
 14 16  2  0
 14 17  1  0
 17 18  2  0
 18 19  1  0
 19 20  2  0
 20 21  1  0
 21 22  2  0
 22 23  1  0
 23 24  2  0
 24 25  1  0
 25 26  2  0
 12 27  1  0
 27 28  2  0
 27 29  1  0
  9 30  1  0
 30 31  2  0
 31 32  1  0
 32 33  1  0
 33 34  2  0
 33 35  1  0
 35 36  2  0
 36 37  1  0
 37 38  2  0
 38 39  1  0
 39 40  2  0
 32  4  1  0
 40 35  1  0
 31  6  1  0
 26 17  1  0
 26 21  1  0
  1 41  1  0
  5 42  1  0
  7 43  1  0
  8 44  1  0
 10 45  1  0
 11 46  1  0
 11 47  1  0
 12 48  1  1
 13 49  1  0
 18 50  1  0
 19 51  1  0
 20 52  1  0
 22 53  1  0
 23 54  1  0
 24 55  1  0
 25 56  1  0
 30 57  1  0
 36 58  1  0
 37 59  1  0
 39 60  1  0
 40 61  1  0
M  CHG  2   1  -1  29  -1
M  END
>  <UniqueID>  (14) 
14

>  <SMILES>  (14) 
[NH-]C(=O)c1cc2ccc(NC[C@H](NS(=O)(=O)c3cccc4ccccc34)C(=O)[O-])cc2n1C(=O)c1ccncc1

>  <Energy>  (14) 
116.15517747400469

>  <Genealogy>  (14) 
[NH-]C(=O)c1cc2ccc(NCC(NS(=O)(=O)c3cccc4ccccc34)C(=O)[O-])cc2n1C(=O)c1ccncc1 (protonated)
[NH-]C(=O)c1cc2ccc(NC[C@H](NS(=O)(=O)c3cccc4ccccc34)C(=O)[O-])cc2n1C(=O)c1ccncc1 (chirality)
[NH-]C(=O)c1cc2ccc(NC[C@H](NS(=O)(=O)c3cccc4ccccc34)C(=O)[O-])cc2n1C(=O)c1ccncc1 (3D coordinates assigned)
[NH-]C(=O)c1cc2ccc(NC[C@H](NS(=O)(=O)c3cccc4ccccc34)C(=O)[O-])cc2n1C(=O)c1ccncc1 (optimized conformer: 116.15517747400469 kcal/mol)

>  <smiles>  (14) 
NC(=O)c1cc2ccc(NCC(NS(=O)(=O)c3cccc4ccccc34)C(=O)O)cc2n1C(=O)c1ccncc1

>  <score_type>  (14) 
oracle

>  <origin>  (14) 
adg

>  <m_score__min__energy>  (14) 
-13.66

>  <m_primary>  (14) 
energy

$$$$
14:0
     RDKit          3D

 35 37  0  0  0  0  0  0  0  0999 V2000
   -1.1790   21.1830  -32.7070 C   0  0  0  0  0  0  0  0  0  0  0  0
   -2.2470   20.9160  -33.6070 O   0  0  0  0  0  0  0  0  0  0  0  0
   -2.7520   19.6300  -33.8270 C   0  0  0  0  0  0  0  0  0  0  0  0
   -1.9450   18.6560  -34.3360 N   0  0  0  0  0  0  0  0  0  0  0  0
   -2.3850   17.3870  -34.5400 C   0  0  0  0  0  0  0  0  0  0  0  0
   -3.6980   17.0440  -34.2200 C   0  0  0  0  0  0  0  0  0  0  0  0
   -4.5500   18.0170  -33.6970 C   0  0  0  0  0  0  0  0  0  0  0  0
   -4.0900   19.3290  -33.5010 C   0  0  0  0  0  0  0  0  0  0  0  0
   -5.0060   20.3610  -32.9580 C   0  0  0  0  0  0  0  0  0  0  0  0
   -6.4080   20.2440  -33.1410 C   0  0  0  0  0  0  0  0  0  0  0  0
   -7.2830   21.2050  -32.6100 C   0  0  0  0  0  0  0  0  0  0  0  0
   -6.7330   22.2730  -31.9080 C   0  0  0  0  0  0  0  0  0  0  0  0
   -7.3540   23.3170  -31.2620 C   0  0  0  0  0  0  0  0  0  0  0  0
   -6.3220   24.0740  -30.7150 C   0  0  0  0  0  0  0  0  0  0  0  0
   -6.5440   25.3340  -29.9780 C   0  0  0  0  0  0  0  0  0  0  0  0
   -5.6760   26.4550  -30.1520 N   0  0  0  0  0  0  0  0  0  0  0  0
   -7.5490   25.4430  -29.2280 O   0  0  0  0  0  0  0  0  0  0  0  0
   -5.1110   23.5150  -30.9960 N   0  0  0  0  0  0  0  0  0  0  0  0
   -3.8220   23.9310  -30.5110 C   0  0  0  0  0  0  0  0  0  0  0  0
   -2.9820   23.0770  -30.1240 O   0  0  0  0  0  0  0  0  0  0  0  0
   -3.4890   25.2790  -30.4650 O   0  0  0  0  0  0  0  0  0  0  0  0
   -5.3800   22.4120  -31.7300 C   0  0  0  0  0  0  0  0  0  0  0  0
   -4.4860   21.4560  -32.2290 C   0  0  0  0  0  0  0  0  0  0  0  0
   -1.5404   21.0926  -31.6720 H   0  0  0  0  0  0  0  0  0  0  0  0
   -0.3674   20.4601  -32.8764 H   0  0  0  0  0  0  0  0  0  0  0  0
   -0.8030   22.2028  -32.8764 H   0  0  0  0  0  0  0  0  0  0  0  0
   -1.7052   16.6298  -34.9578 H   0  0  0  0  0  0  0  0  0  0  0  0
   -4.0583   16.0168  -34.3783 H   0  0  0  0  0  0  0  0  0  0  0  0
   -5.5863   17.7553  -33.4371 H   0  0  0  0  0  0  0  0  0  0  0  0
   -6.8138   19.3912  -33.7050 H   0  0  0  0  0  0  0  0  0  0  0  0
   -8.3711   21.1162  -32.7449 H   0  0  0  0  0  0  0  0  0  0  0  0
   -8.4344   23.5117  -31.1927 H   0  0  0  0  0  0  0  0  0  0  0  0
   -4.9370   26.4560  -30.8890 H   0  0  0  0  0  0  0  0  0  0  0  0
   -5.8250   27.3250  -29.5940 H   0  0  0  0  0  0  0  0  0  0  0  0
   -3.4039   21.5546  -32.0578 H   0  0  0  0  0  0  0  0  0  0  0  0
  1  2  1  0
  2  3  1  0
  3  4  2  0
  4  5  1  0
  5  6  2  0
  6  7  1  0
  7  8  2  0
  8  9  1  0
  9 10  2  0
 10 11  1  0
 11 12  2  0
 12 13  1  0
 13 14  2  0
 14 15  1  0
 15 16  1  0
 15 17  2  0
 14 18  1  0
 18 19  1  0
 19 20  2  0
 19 21  1  0
 18 22  1  0
 22 23  2  0
  8  3  1  0
 23  9  1  0
 22 12  1  0
  1 24  1  0
  1 25  1  0
  1 26  1  0
  5 27  1  0
  6 28  1  0
  7 29  1  0
 10 30  1  0
 11 31  1  0
 13 32  1  0
 16 33  1  0
 16 34  1  0
 23 35  1  0
M  CHG  1  21  -1
M  END
>  <UniqueID>  (15) 
15

>  <SMILES>  (15) 
COc1ncccc1-c1ccc2cc(C(N)=O)n(C(=O)[O-])c2c1

>  <Energy>  (15) 
82.7237501070616

>  <Genealogy>  (15) 
COc1ncccc1-c1ccc2cc(C(N)=O)n(C(=O)[O-])c2c1 (protonated)
COc1ncccc1-c1ccc2cc(C(N)=O)n(C(=O)[O-])c2c1 (3D coordinates assigned)
COc1ncccc1-c1ccc2cc(C(N)=O)n(C(=O)[O-])c2c1 (optimized conformer: 82.7237501070616 kcal/mol)

>  <smiles>  (15) 
COc1ncccc1-c1ccc2cc(C(N)=O)n(C(=O)O)c2c1

>  <score_type>  (15) 
oracle

>  <origin>  (15) 
adg

>  <m_score__min__energy>  (15) 
-9.3000000000000007

>  <m_primary>  (15) 
energy

$$$$
15:0
     RDKit          3D

 52 55  0  0  0  0  0  0  0  0999 V2000
   -7.0030   24.9340  -30.4710 C   0  0  0  0  0  0  0  0  0  0  0  0
   -7.6630   23.7790  -31.1000 N   0  0  0  0  0  0  0  0  0  0  0  0
   -7.7330   22.6490  -30.1460 C   0  0  0  0  0  0  0  0  0  0  0  0
   -7.9870   21.3240  -30.8740 C   0  0  0  0  0  0  0  0  0  0  0  0
   -6.9180   21.0190  -31.8520 N   0  0  0  0  0  0  0  0  0  0  0  0
   -6.1200   19.8050  -31.5550 C   0  0  0  0  0  0  0  0  0  0  0  0
   -5.6000   19.0720  -32.7880 C   0  0  0  0  0  0  0  0  0  0  0  0
   -6.5030   18.2560  -33.4970 C   0  0  0  0  0  0  0  0  0  0  0  0
   -6.1160   17.6050  -34.6690 C   0  0  0  0  0  0  0  0  0  0  0  0
   -4.8180   17.7500  -35.1510 C   0  0  0  0  0  0  0  0  0  0  0  0
   -3.8970   18.5300  -34.4540 C   0  0  0  0  0  0  0  0  0  0  0  0
   -4.2630   19.1830  -33.2630 C   0  0  0  0  0  0  0  0  0  0  0  0
   -3.2130   19.9350  -32.5450 C   0  0  0  0  0  0  0  0  0  0  0  0
   -1.8630   19.5120  -32.5990 C   0  0  0  0  0  0  0  0  0  0  0  0
   -0.8590   20.2380  -31.9370 C   0  0  0  0  0  0  0  0  0  0  0  0
   -1.2340   21.3830  -31.2400 C   0  0  0  0  0  0  0  0  0  0  0  0
   -0.4660   22.2800  -30.5330 C   0  0  0  0  0  0  0  0  0  0  0  0
   -1.3590   23.2380  -30.0590 C   0  0  0  0  0  0  0  0  0  0  0  0
   -0.9610   24.3520  -29.1730 C   0  0  0  0  0  0  0  0  0  0  0  0
   -1.6220   25.6120  -29.2350 N   0  0  0  0  0  0  0  0  0  0  0  0
   -0.0530   24.1740  -28.3190 O   0  0  0  0  0  0  0  0  0  0  0  0
   -2.6290   22.9510  -30.4650 N   0  0  0  0  0  0  0  0  0  0  0  0
   -3.8210   23.7250  -30.2500 C   0  0  0  0  0  0  0  0  0  0  0  0
   -3.8920   25.0730  -30.7040 N   0  0  0  0  0  0  0  0  0  0  0  0
   -4.8030   23.2170  -29.6470 O   0  0  0  0  0  0  0  0  0  0  0  0
   -2.5350   21.8120  -31.1860 C   0  0  0  0  0  0  0  0  0  0  0  0
   -3.5490   21.1230  -31.8590 C   0  0  0  0  0  0  0  0  0  0  0  0
   -6.1310   22.1900  -32.2960 C   0  0  0  0  0  0  0  0  0  0  0  0
   -7.0270   23.4320  -32.3980 C   0  0  0  0  0  0  0  0  0  0  0  0
   -7.0585   24.8369  -29.3767 H   0  0  0  0  0  0  0  0  0  0  0  0
   -5.9488   24.9687  -30.7830 H   0  0  0  0  0  0  0  0  0  0  0  0
   -7.5084   25.8599  -30.7830 H   0  0  0  0  0  0  0  0  0  0  0  0
   -6.7808   22.5813  -29.5994 H   0  0  0  0  0  0  0  0  0  0  0  0
   -8.5667   22.8304  -29.4516 H   0  0  0  0  0  0  0  0  0  0  0  0
   -8.0323   20.5133  -30.1319 H   0  0  0  0  0  0  0  0  0  0  0  0
   -8.9364   21.4123  -31.4224 H   0  0  0  0  0  0  0  0  0  0  0  0
   -5.2561   20.1031  -30.9428 H   0  0  0  0  0  0  0  0  0  0  0  0
   -6.7940   19.1067  -31.0371 H   0  0  0  0  0  0  0  0  0  0  0  0
   -7.5290   18.1300  -33.1210 H   0  0  0  0  0  0  0  0  0  0  0  0
   -6.8371   16.9768  -35.2125 H   0  0  0  0  0  0  0  0  0  0  0  0
   -4.5189   17.2483  -36.0831 H   0  0  0  0  0  0  0  0  0  0  0  0
   -2.8723   18.6362  -34.8396 H   0  0  0  0  0  0  0  0  0  0  0  0
   -1.5978   18.6065  -33.1645 H   0  0  0  0  0  0  0  0  0  0  0  0
    0.1910   19.9117  -31.9685 H   0  0  0  0  0  0  0  0  0  0  0  0
    0.6222   22.2473  -30.3757 H   0  0  0  0  0  0  0  0  0  0  0  0
   -2.6600   25.6700  -29.3400 H   0  0  0  0  0  0  0  0  0  0  0  0
   -3.0250   25.6220  -30.8960 H   0  0  0  0  0  0  0  0  0  0  0  0
   -4.5833   21.4973  -31.8542 H   0  0  0  0  0  0  0  0  0  0  0  0
   -5.3270   22.3822  -31.5703 H   0  0  0  0  0  0  0  0  0  0  0  0
   -5.7040   21.9768  -33.2871 H   0  0  0  0  0  0  0  0  0  0  0  0
   -6.4146   24.2832  -32.7303 H   0  0  0  0  0  0  0  0  0  0  0  0
   -7.8297   23.2089  -33.1162 H   0  0  0  0  0  0  0  0  0  0  0  0
  1  2  1  0
  2  3  1  0
  3  4  1  0
  4  5  1  0
  5  6  1  0
  6  7  1  0
  7  8  2  0
  8  9  1  0
  9 10  2  0
 10 11  1  0
 11 12  2  0
 12 13  1  0
 13 14  2  0
 14 15  1  0
 15 16  2  0
 16 17  1  0
 17 18  2  0
 18 19  1  0
 19 20  1  0
 19 21  2  0
 18 22  1  0
 22 23  1  0
 23 24  1  0
 23 25  2  0
 22 26  1  0
 26 27  2  0
  5 28  1  0
 28 29  1  0
 29  2  1  0
 12  7  1  0
 27 13  1  0
 26 16  1  0
  1 30  1  0
  1 31  1  0
  1 32  1  0
  3 33  1  0
  3 34  1  0
  4 35  1  0
  4 36  1  0
  6 37  1  0
  6 38  1  0
  8 39  1  0
  9 40  1  0
 10 41  1  0
 11 42  1  0
 14 43  1  0
 15 44  1  0
 17 45  1  0
 20 46  1  0
 24 47  1  0
 27 48  1  0
 28 49  1  0
 28 50  1  0
 29 51  1  0
 29 52  1  0
M  CHG  2  20  -1  24  -1
M  END
>  <UniqueID>  (16) 
16

>  <SMILES>  (16) 
CN1CCN(Cc2ccccc2-c2ccc3cc(C([NH-])=O)n(C([NH-])=O)c3c2)CC1

>  <Energy>  (16) 
117.62206750015935

>  <Genealogy>  (16) 
CN1CCN(Cc2ccccc2-c2ccc3cc(C([NH-])=O)n(C([NH-])=O)c3c2)CC1 (protonated)
CN1CCN(Cc2ccccc2-c2ccc3cc(C([NH-])=O)n(C([NH-])=O)c3c2)CC1 (3D coordinates assigned)
CN1CCN(Cc2ccccc2-c2ccc3cc(C([NH-])=O)n(C([NH-])=O)c3c2)CC1 (nonaromatic ring conformer: 117.62206750015935 kcal/mol)

>  <smiles>  (16) 
CN1CCN(Cc2ccccc2-c2ccc3cc(C(N)=O)n(C(N)=O)c3c2)CC1

>  <score_type>  (16) 
oracle

>  <origin>  (16) 
adg

>  <m_score__min__energy>  (16) 
-12.74

>  <m_primary>  (16) 
energy

$$$$
16:0
     RDKit          3D

 45 47  0  0  0  0  0  0  0  0999 V2000
   -3.0730   22.6680  -28.8380 C   0  0  0  0  0  0  0  0  0  0  0  0
   -2.9310   23.1610  -30.1640 O   0  0  0  0  0  0  0  0  0  0  0  0
   -3.6260   22.6200  -31.2490 C   0  0  0  0  0  0  0  0  0  0  0  0
   -2.9950   22.1140  -32.2170 O   0  0  0  0  0  0  0  0  0  0  0  0
   -5.0630   22.6370  -31.2590 N   0  0  0  0  0  0  0  0  0  0  0  0
   -5.8830   23.6950  -31.0060 C   0  0  0  0  0  0  0  0  0  0  0  0
   -5.4570   25.0190  -30.5070 C   0  0  0  0  0  0  0  0  0  0  0  0
   -4.1540   25.5310  -30.7850 N   0  0  0  0  0  0  0  0  0  0  0  0
   -6.2380   25.6860  -29.7760 O   0  0  0  0  0  0  0  0  0  0  0  0
   -7.2120   23.3540  -31.2310 C   0  0  0  0  0  0  0  0  0  0  0  0
   -7.1870   22.0360  -31.6230 C   0  0  0  0  0  0  0  0  0  0  0  0
   -8.2310   21.1930  -31.9890 C   0  0  0  0  0  0  0  0  0  0  0  0
   -7.9130   19.8850  -32.3900 C   0  0  0  0  0  0  0  0  0  0  0  0
   -6.5640   19.4450  -32.4310 C   0  0  0  0  0  0  0  0  0  0  0  0
   -6.2380   18.0630  -32.8700 C   0  0  0  0  0  0  0  0  0  0  0  0
   -4.9310   17.5620  -32.7610 C   0  0  0  0  0  0  0  0  0  0  0  0
   -4.6370   16.2650  -33.1790 C   0  0  0  0  0  0  0  0  0  0  0  0
   -5.6580   15.4540  -33.7060 C   0  0  0  0  0  0  0  0  0  0  0  0
   -5.3770   14.0370  -34.1930 C   0  0  0  0  0  0  0  0  0  0  0  0
   -5.1300   13.0850  -33.0030 C   0  0  0  0  0  0  0  0  0  0  0  0
   -4.1470   14.0450  -35.1110 C   0  0  0  0  0  0  0  0  0  0  0  0
   -6.4670   13.5580  -34.9480 O   0  0  0  0  0  0  0  0  0  0  0  0
   -6.9160   15.9660  -33.8130 N   0  0  0  0  0  0  0  0  0  0  0  0
   -7.2270   17.2270  -33.4110 C   0  0  0  0  0  0  0  0  0  0  0  0
   -5.5310   20.3350  -32.0530 C   0  0  0  0  0  0  0  0  0  0  0  0
   -5.8790   21.6250  -31.6340 C   0  0  0  0  0  0  0  0  0  0  0  0
   -2.8419   23.4703  -28.1218 H   0  0  0  0  0  0  0  0  0  0  0  0
   -4.1065   22.3247  -28.6831 H   0  0  0  0  0  0  0  0  0  0  0  0
   -2.3804   21.8276  -28.6831 H   0  0  0  0  0  0  0  0  0  0  0  0
   -3.4260   24.9350  -31.2390 H   0  0  0  0  0  0  0  0  0  0  0  0
   -3.8840   26.4850  -30.4580 H   0  0  0  0  0  0  0  0  0  0  0  0
   -8.0950   24.0004  -31.1193 H   0  0  0  0  0  0  0  0  0  0  0  0
   -9.2745   21.5403  -31.9651 H   0  0  0  0  0  0  0  0  0  0  0  0
   -8.7191   19.1932  -32.6757 H   0  0  0  0  0  0  0  0  0  0  0  0
   -4.1349   18.1961  -32.3437 H   0  0  0  0  0  0  0  0  0  0  0  0
   -3.6108   15.8775  -33.0970 H   0  0  0  0  0  0  0  0  0  0  0  0
   -5.2721   13.6327  -32.0597 H   0  0  0  0  0  0  0  0  0  0  0  0
   -5.8403   12.2464  -33.0507 H   0  0  0  0  0  0  0  0  0  0  0  0
   -4.1016   12.6976  -33.0507 H   0  0  0  0  0  0  0  0  0  0  0  0
   -3.2329   14.0509  -34.4992 H   0  0  0  0  0  0  0  0  0  0  0  0
   -4.1575   13.1468  -35.7459 H   0  0  0  0  0  0  0  0  0  0  0  0
   -4.1691   14.9430  -35.7459 H   0  0  0  0  0  0  0  0  0  0  0  0
   -7.1750   14.2550  -34.9440 H   0  0  0  0  0  0  0  0  0  0  0  0
   -8.2592   17.5939  -33.5103 H   0  0  0  0  0  0  0  0  0  0  0  0
   -4.4775   20.0204  -32.0875 H   0  0  0  0  0  0  0  0  0  0  0  0
  1  2  1  0
  2  3  1  0
  3  4  2  0
  3  5  1  0
  5  6  1  0
  6  7  1  0
  7  8  1  0
  7  9  2  0
  6 10  2  0
 10 11  1  0
 11 12  2  0
 12 13  1  0
 13 14  2  0
 14 15  1  0
 15 16  2  0
 16 17  1  0
 17 18  2  0
 18 19  1  0
 19 20  1  0
 19 21  1  0
 19 22  1  0
 18 23  1  0
 23 24  2  0
 14 25  1  0
 25 26  2  0
 26  5  1  0
 26 11  1  0
 24 15  1  0
  1 27  1  0
  1 28  1  0
  1 29  1  0
  8 30  1  0
  8 31  1  0
 10 32  1  0
 12 33  1  0
 13 34  1  0
 16 35  1  0
 17 36  1  0
 20 37  1  0
 20 38  1  0
 20 39  1  0
 21 40  1  0
 21 41  1  0
 21 42  1  0
 22 43  1  0
 24 44  1  0
 25 45  1  0
M  END
>  <UniqueID>  (17) 
17

>  <SMILES>  (17) 
COC(=O)n1c(C(N)=O)cc2ccc(-c3ccc(C(C)(C)O)nc3)cc21

>  <Energy>  (17) 
89.4676912659158

>  <Genealogy>  (17) 
COC(=O)n1c(C(N)=O)cc2ccc(-c3ccc(C(C)(C)O)nc3)cc21 (3D coordinates assigned)
COC(=O)n1c(C(N)=O)cc2ccc(-c3ccc(C(C)(C)O)nc3)cc21 (optimized conformer: 89.4676912659158 kcal/mol)

>  <smiles>  (17) 
COC(=O)n1c(C(N)=O)cc2ccc(-c3ccc(C(C)(C)O)nc3)cc21

>  <score_type>  (17) 
oracle

>  <origin>  (17) 
adg

>  <m_score__min__energy>  (17) 
-8.1600000000000001

>  <m_primary>  (17) 
energy

$$$$
17:0
     RDKit          3D

 35 36  0  0  0  0  0  0  0  0999 V2000
   -5.7580   18.5350  -34.9200 C   0  0  0  0  0  0  0  0  0  0  0  0
   -5.5680   18.5520  -33.3800 C   0  0  0  0  0  0  0  0  0  0  0  0
   -6.3060   17.3240  -32.8040 C   0  0  0  0  0  0  0  0  0  0  0  0
   -4.0550   18.4220  -33.0960 C   0  0  0  0  0  0  0  0  0  0  0  0
   -6.1110   19.8330  -32.7120 C   0  0  0  0  0  0  0  0  0  0  0  0
   -7.5180   20.0510  -32.6610 C   0  0  0  0  0  0  0  0  0  0  0  0
   -8.0590   21.2170  -32.1010 C   0  0  0  0  0  0  0  0  0  0  0  0
   -7.1840   22.1700  -31.6020 C   0  0  0  0  0  0  0  0  0  0  0  0
   -7.4500   23.3950  -31.0360 C   0  0  0  0  0  0  0  0  0  0  0  0
   -6.2010   23.9490  -30.7670 C   0  0  0  0  0  0  0  0  0  0  0  0
   -6.0240   25.3150  -30.2520 C   0  0  0  0  0  0  0  0  0  0  0  0
   -6.5460   25.6810  -28.9730 N   0  0  0  0  0  0  0  0  0  0  0  0
   -5.3830   26.1590  -30.9320 O   0  0  0  0  0  0  0  0  0  0  0  0
   -5.1970   23.0940  -31.1170 N   0  0  0  0  0  0  0  0  0  0  0  0
   -3.7910   23.2620  -30.8400 C   0  0  0  0  0  0  0  0  0  0  0  0
   -3.2790   24.5470  -30.4650 N   0  0  0  0  0  0  0  0  0  0  0  0
   -3.0080   22.2660  -30.8640 O   0  0  0  0  0  0  0  0  0  0  0  0
   -5.8220   22.0070  -31.6440 C   0  0  0  0  0  0  0  0  0  0  0  0
   -5.2530   20.8450  -32.1890 C   0  0  0  0  0  0  0  0  0  0  0  0
   -6.8280   18.4393  -35.1564 H   0  0  0  0  0  0  0  0  0  0  0  0
   -5.3704   19.4714  -35.3476 H   0  0  0  0  0  0  0  0  0  0  0  0
   -5.2103   17.6823  -35.3476 H   0  0  0  0  0  0  0  0  0  0  0  0
   -6.2820   17.3640  -31.7050 H   0  0  0  0  0  0  0  0  0  0  0  0
   -7.3507   17.3293  -33.1483 H   0  0  0  0  0  0  0  0  0  0  0  0
   -5.8111   16.4040  -33.1483 H   0  0  0  0  0  0  0  0  0  0  0  0
   -3.8859   18.4075  -32.0092 H   0  0  0  0  0  0  0  0  0  0  0  0
   -3.6778   17.4881  -33.5383 H   0  0  0  0  0  0  0  0  0  0  0  0
   -3.5240   19.2778  -33.5383 H   0  0  0  0  0  0  0  0  0  0  0  0
   -8.1954   19.2871  -33.0703 H   0  0  0  0  0  0  0  0  0  0  0  0
   -9.1473   21.3715  -32.0587 H   0  0  0  0  0  0  0  0  0  0  0  0
   -8.4361   23.8407  -30.8385 H   0  0  0  0  0  0  0  0  0  0  0  0
   -6.5040   26.6770  -28.6620 H   0  0  0  0  0  0  0  0  0  0  0  0
   -6.8450   24.9460  -28.2870 H   0  0  0  0  0  0  0  0  0  0  0  0
   -3.3790   25.3680  -31.1040 H   0  0  0  0  0  0  0  0  0  0  0  0
   -4.1607   20.7169  -32.2123 H   0  0  0  0  0  0  0  0  0  0  0  0
  1  2  1  0
  2  3  1  0
  2  4  1  0
  2  5  1  0
  5  6  2  0
  6  7  1  0
  7  8  2  0
  8  9  1  0
  9 10  2  0
 10 11  1  0
 11 12  1  0
 11 13  2  0
 10 14  1  0
 14 15  1  0
 15 16  1  0
 15 17  2  0
 14 18  1  0
 18 19  2  0
 19  5  1  0
 18  8  1  0
  1 20  1  0
  1 21  1  0
  1 22  1  0
  3 23  1  0
  3 24  1  0
  3 25  1  0
  4 26  1  0
  4 27  1  0
  4 28  1  0
  6 29  1  0
  7 30  1  0
  9 31  1  0
 12 32  1  0
 12 33  1  0
 16 34  1  0
 19 35  1  0
M  CHG  1  16  -1
M  END
>  <UniqueID>  (18) 
18

>  <SMILES>  (18) 
CC(C)(C)c1ccc2cc(C(N)=O)n(C([NH-])=O)c2c1

>  <Energy>  (18) 
77.6621431534338

>  <Genealogy>  (18) 
CC(C)(C)c1ccc2cc(C(N)=O)n(C([NH-])=O)c2c1 (protonated)
CC(C)(C)c1ccc2cc(C(N)=O)n(C([NH-])=O)c2c1 (3D coordinates assigned)
CC(C)(C)c1ccc2cc(C(N)=O)n(C([NH-])=O)c2c1 (optimized conformer: 77.6621431534338 kcal/mol)

>  <smiles>  (18) 
CC(C)(C)c1ccc2cc(C(N)=O)n(C(N)=O)c2c1

>  <score_type>  (18) 
oracle

>  <origin>  (18) 
adg

>  <m_score__min__energy>  (18) 
-9.2899999999999991

>  <m_primary>  (18) 
energy

$$$$
18:0
     RDKit          3D

 34 36  0  0  0  0  0  0  0  0999 V2000
   -2.8540   21.5760  -33.2080 C   0  0  0  0  0  0  0  0  0  0  0  0
   -3.5230   20.2610  -32.9600 C   0  0  0  0  0  0  0  0  0  0  0  0
   -2.8200   19.2200  -32.8630 O   0  0  0  0  0  0  0  0  0  0  0  0
   -4.9510   20.1710  -32.8430 N   0  0  0  0  0  0  0  0  0  0  0  0
   -5.7860   19.3100  -33.4900 C   0  0  0  0  0  0  0  0  0  0  0  0
   -5.3730   18.1950  -34.3690 C   0  0  0  0  0  0  0  0  0  0  0  0
   -4.5840   17.1190  -33.8690 N   0  0  0  0  0  0  0  0  0  0  0  0
   -5.7500   18.1760  -35.5710 O   0  0  0  0  0  0  0  0  0  0  0  0
   -7.1140   19.5800  -33.1630 C   0  0  0  0  0  0  0  0  0  0  0  0
   -7.0670   20.6410  -32.2870 C   0  0  0  0  0  0  0  0  0  0  0  0
   -8.0980   21.3240  -31.6490 C   0  0  0  0  0  0  0  0  0  0  0  0
   -7.7560   22.3990  -30.8110 C   0  0  0  0  0  0  0  0  0  0  0  0
   -6.4020   22.7830  -30.6460 C   0  0  0  0  0  0  0  0  0  0  0  0
   -6.0440   23.9130  -29.7220 C   0  0  0  0  0  0  0  0  0  0  0  0
   -4.6140   23.8770  -29.4210 N   0  0  0  0  0  0  0  0  0  0  0  0
   -3.6530   24.6770  -29.9110 C   0  0  0  0  0  0  0  0  0  0  0  0
   -3.8560   25.6630  -30.8680 O   0  0  0  0  0  0  0  0  0  0  0  0
   -2.4540   24.3690  -29.3110 C   0  0  0  0  0  0  0  0  0  0  0  0
   -2.6520   23.3740  -28.4200 N   0  0  0  0  0  0  0  0  0  0  0  0
   -3.9730   23.1110  -28.5130 C   0  0  0  0  0  0  0  0  0  0  0  0
   -4.5480   22.2350  -27.8130 O   0  0  0  0  0  0  0  0  0  0  0  0
   -5.3830   22.0620  -31.3050 C   0  0  0  0  0  0  0  0  0  0  0  0
   -5.7500   20.9810  -32.1130 C   0  0  0  0  0  0  0  0  0  0  0  0
   -2.6121   22.0515  -32.2460 H   0  0  0  0  0  0  0  0  0  0  0  0
   -1.9285   21.4144  -33.7802 H   0  0  0  0  0  0  0  0  0  0  0  0
   -3.5295   22.2289  -33.7802 H   0  0  0  0  0  0  0  0  0  0  0  0
   -3.6690   17.2970  -33.3970 H   0  0  0  0  0  0  0  0  0  0  0  0
   -8.0099   19.0561  -33.5277 H   0  0  0  0  0  0  0  0  0  0  0  0
   -9.1481   21.0315  -31.7961 H   0  0  0  0  0  0  0  0  0  0  0  0
   -8.5467   22.9475  -30.2782 H   0  0  0  0  0  0  0  0  0  0  0  0
   -6.2910   24.8703  -30.2041 H   0  0  0  0  0  0  0  0  0  0  0  0
   -6.6132   23.8094  -28.7865 H   0  0  0  0  0  0  0  0  0  0  0  0
   -1.4900   24.8547  -29.5228 H   0  0  0  0  0  0  0  0  0  0  0  0
   -4.3263   22.3434  -31.1860 H   0  0  0  0  0  0  0  0  0  0  0  0
  1  2  1  0
  2  3  2  0
  2  4  1  0
  4  5  1  0
  5  6  1  0
  6  7  1  0
  6  8  2  0
  5  9  2  0
  9 10  1  0
 10 11  2  0
 11 12  1  0
 12 13  2  0
 13 14  1  0
 14 15  1  0
 15 16  1  0
 16 17  1  0
 16 18  2  0
 18 19  1  0
 19 20  1  0
 20 21  2  0
 13 22  1  0
 22 23  2  0
 23  4  1  0
 23 10  1  0
 20 15  1  0
  1 24  1  0
  1 25  1  0
  1 26  1  0
  7 27  1  0
  9 28  1  0
 11 29  1  0
 12 30  1  0
 14 31  1  0
 14 32  1  0
 18 33  1  0
 22 34  1  0
M  CHG  3   7  -1  17  -1  19  -1
M  END
>  <UniqueID>  (19) 
19

>  <SMILES>  (19) 
CC(=O)n1c(C([NH-])=O)cc2ccc(Cn3c([O-])c[n-]c3=O)cc21

>  <Energy>  (19) 
105.5743353951279

>  <Genealogy>  (19) 
CC(=O)n1c(C([NH-])=O)cc2ccc(Cn3c([O-])c[n-]c3=O)cc21 (protonated)
CC(=O)n1c(C([NH-])=O)cc2ccc(Cn3c([O-])c[n-]c3=O)cc21 (3D coordinates assigned)
CC(=O)n1c(C([NH-])=O)cc2ccc(Cn3c([O-])c[n-]c3=O)cc21 (optimized conformer: 105.5743353951279 kcal/mol)

>  <smiles>  (19) 
CC(=O)n1c(C(N)=O)cc2ccc(Cn3c(O)c[nH]c3=O)cc21

>  <score_type>  (19) 
oracle

>  <origin>  (19) 
adg

>  <m_score__min__energy>  (19) 
-10.57

>  <m_primary>  (19) 
energy

$$$$
19:0
     RDKit          3D

 37 38  0  0  0  0  0  0  0  0999 V2000
   -3.5720   22.7290  -28.8590 C   0  0  0  0  0  0  0  0  0  0  0  0
   -3.1560   23.0790  -30.2080 N   0  0  0  0  0  0  0  0  0  0  0  0
   -3.9060   22.7110  -31.3700 C   0  0  0  0  0  0  0  0  0  0  0  0
   -3.3080   22.3070  -32.4040 O   0  0  0  0  0  0  0  0  0  0  0  0
   -5.3400   22.8040  -31.3600 N   0  0  0  0  0  0  0  0  0  0  0  0
   -6.1020   23.8290  -30.8820 C   0  0  0  0  0  0  0  0  0  0  0  0
   -5.5850   25.1270  -30.3950 C   0  0  0  0  0  0  0  0  0  0  0  0
   -4.2300   25.5100  -30.6360 N   0  0  0  0  0  0  0  0  0  0  0  0
   -6.3300   25.8990  -29.7340 O   0  0  0  0  0  0  0  0  0  0  0  0
   -7.4570   23.5240  -30.9970 C   0  0  0  0  0  0  0  0  0  0  0  0
   -7.5020   22.2710  -31.5630 C   0  0  0  0  0  0  0  0  0  0  0  0
   -8.5970   21.4790  -31.8940 C   0  0  0  0  0  0  0  0  0  0  0  0
   -8.3500   20.2110  -32.4460 C   0  0  0  0  0  0  0  0  0  0  0  0
   -7.0210   19.7490  -32.6440 C   0  0  0  0  0  0  0  0  0  0  0  0
   -6.7490   18.3810  -33.2390 C   0  0  1  0  0  0  0  0  0  0  0  0
   -5.7350   18.4500  -34.3880 C   0  0  0  0  0  0  0  0  0  0  0  0
   -6.3000   17.4130  -32.1640 C   0  0  0  0  0  0  0  0  0  0  0  0
   -5.3480   16.2950  -32.4740 C   0  0  0  0  0  0  0  0  0  0  0  0
   -6.7220   17.5270  -31.0220 O   0  0  0  0  0  0  0  0  0  0  0  0
   -5.9370   20.5900  -32.2990 C   0  0  0  0  0  0  0  0  0  0  0  0
   -6.2130   21.8560  -31.7710 C   0  0  0  0  0  0  0  0  0  0  0  0
   -2.9408   23.2600  -28.1313 H   0  0  0  0  0  0  0  0  0  0  0  0
   -4.6231   23.0184  -28.7127 H   0  0  0  0  0  0  0  0  0  0  0  0
   -3.4667   21.6439  -28.7127 H   0  0  0  0  0  0  0  0  0  0  0  0
   -3.5970   24.9280  -31.2270 H   0  0  0  0  0  0  0  0  0  0  0  0
   -3.8640   26.4110  -30.2540 H   0  0  0  0  0  0  0  0  0  0  0  0
   -8.3095   24.1519  -30.6986 H   0  0  0  0  0  0  0  0  0  0  0  0
   -9.6246   21.8348  -31.7285 H   0  0  0  0  0  0  0  0  0  0  0  0
   -9.1963   19.5676  -32.7285 H   0  0  0  0  0  0  0  0  0  0  0  0
   -7.6913   18.0079  -33.6666 H   0  0  0  0  0  0  0  0  0  0  0  0
   -4.7176   18.5192  -33.9755 H   0  0  0  0  0  0  0  0  0  0  0  0
   -5.8192   17.5441  -35.0062 H   0  0  0  0  0  0  0  0  0  0  0  0
   -5.9411   19.3362  -35.0062 H   0  0  0  0  0  0  0  0  0  0  0  0
   -4.9765   15.8588  -31.5350 H   0  0  0  0  0  0  0  0  0  0  0  0
   -5.8687   15.5211  -33.0571 H   0  0  0  0  0  0  0  0  0  0  0  0
   -4.5010   16.6857  -33.0571 H   0  0  0  0  0  0  0  0  0  0  0  0
   -4.8990   20.2557  -32.4428 H   0  0  0  0  0  0  0  0  0  0  0  0
  1  2  1  0
  2  3  1  0
  3  4  2  0
  3  5  1  0
  5  6  1  0
  6  7  1  0
  7  8  1  0
  7  9  2  0
  6 10  2  0
 10 11  1  0
 11 12  2  0
 12 13  1  0
 13 14  2  0
 14 15  1  0
 15 16  1  0
 15 17  1  0
 17 18  1  0
 17 19  2  0
 14 20  1  0
 20 21  2  0
 21  5  1  0
 21 11  1  0
  1 22  1  0
  1 23  1  0
  1 24  1  0
  8 25  1  0
  8 26  1  0
 10 27  1  0
 12 28  1  0
 13 29  1  0
 15 30  1  6
 16 31  1  0
 16 32  1  0
 16 33  1  0
 18 34  1  0
 18 35  1  0
 18 36  1  0
 20 37  1  0
M  CHG  1   2  -1
M  END
>  <UniqueID>  (20) 
20

>  <SMILES>  (20) 
C[N-]C(=O)n1c(C(N)=O)cc2ccc([C@@H](C)C(C)=O)cc21

>  <Energy>  (20) 
69.55872164679313

>  <Genealogy>  (20) 
C[N-]C(=O)n1c(C(N)=O)cc2ccc(C(C)C(C)=O)cc21 (protonated)
C[N-]C(=O)n1c(C(N)=O)cc2ccc([C@@H](C)C(C)=O)cc21 (chirality)
C[N-]C(=O)n1c(C(N)=O)cc2ccc([C@@H](C)C(C)=O)cc21 (3D coordinates assigned)
C[N-]C(=O)n1c(C(N)=O)cc2ccc([C@@H](C)C(C)=O)cc21 (optimized conformer: 69.55872164679313 kcal/mol)

>  <smiles>  (20) 
CNC(=O)n1c(C(N)=O)cc2ccc(C(C)C(C)=O)cc21

>  <score_type>  (20) 
oracle

>  <origin>  (20) 
adg

>  <m_score__min__energy>  (20) 
-9.4900000000000002

>  <m_primary>  (20) 
energy

$$$$
20:0
     RDKit          3D

 38 40  0  0  0  0  0  0  0  0999 V2000
   -1.9860   25.6180  -28.9690 N   0  0  0  0  0  0  0  0  0  0  0  0
   -1.1880   24.4610  -29.2020 C   0  0  0  0  0  0  0  0  0  0  0  0
   -0.0060   24.4280  -28.7670 O   0  0  0  0  0  0  0  0  0  0  0  0
   -1.7080   23.3260  -29.9920 C   0  0  0  0  0  0  0  0  0  0  0  0
   -0.9180   22.2550  -30.4050 C   0  0  0  0  0  0  0  0  0  0  0  0
   -1.7410   21.4760  -31.1860 C   0  0  0  0  0  0  0  0  0  0  0  0
   -1.4770   20.2830  -31.8510 C   0  0  0  0  0  0  0  0  0  0  0  0
   -2.5250   19.6810  -32.5660 C   0  0  0  0  0  0  0  0  0  0  0  0
   -3.8160   20.2700  -32.5950 C   0  0  0  0  0  0  0  0  0  0  0  0
   -4.8850   19.6450  -33.3340 N   0  0  0  0  0  0  0  0  0  0  0  0
   -4.5970   18.4920  -34.2010 C   0  0  0  0  0  0  0  0  0  0  0  0
   -5.8800   17.7370  -34.5790 C   0  0  0  0  0  0  0  0  0  0  0  0
   -6.8140   17.5950  -33.3640 C   0  0  0  0  0  0  0  0  0  0  0  0
   -6.1920   16.7790  -32.4030 O   0  0  0  0  0  0  0  0  0  0  0  0
   -7.1830   18.9690  -32.7430 C   0  0  0  0  0  0  0  0  0  0  0  0
   -6.2690   20.1160  -33.2030 C   0  0  0  0  0  0  0  0  0  0  0  0
   -4.0410   21.4870  -31.9120 C   0  0  0  0  0  0  0  0  0  0  0  0
   -2.9740   22.0730  -31.2220 C   0  0  0  0  0  0  0  0  0  0  0  0
   -2.9720   23.2090  -30.4890 N   0  0  0  0  0  0  0  0  0  0  0  0
   -4.1060   24.0500  -30.2230 C   0  0  0  0  0  0  0  0  0  0  0  0
   -4.1420   25.3840  -30.7230 N   0  0  0  0  0  0  0  0  0  0  0  0
   -5.0610   23.6220  -29.5210 O   0  0  0  0  0  0  0  0  0  0  0  0
   -2.9710   25.6690  -29.3120 H   0  0  0  0  0  0  0  0  0  0  0  0
    0.1383   22.0713  -30.1592 H   0  0  0  0  0  0  0  0  0  0  0  0
   -0.4774   19.8250  -31.8178 H   0  0  0  0  0  0  0  0  0  0  0  0
   -2.3433   18.7422  -33.1098 H   0  0  0  0  0  0  0  0  0  0  0  0
   -4.1086   18.8489  -35.1197 H   0  0  0  0  0  0  0  0  0  0  0  0
   -3.9403   17.8022  -33.6507 H   0  0  0  0  0  0  0  0  0  0  0  0
   -6.4032   18.2912  -35.3722 H   0  0  0  0  0  0  0  0  0  0  0  0
   -5.6048   16.7312  -34.9292 H   0  0  0  0  0  0  0  0  0  0  0  0
   -7.7536   17.1355  -33.7046 H   0  0  0  0  0  0  0  0  0  0  0  0
   -5.4940   17.3340  -31.9660 H   0  0  0  0  0  0  0  0  0  0  0  0
   -8.2173   19.2129  -33.0272 H   0  0  0  0  0  0  0  0  0  0  0  0
   -7.0603   18.8749  -31.6539 H   0  0  0  0  0  0  0  0  0  0  0  0
   -6.6185   20.4900  -34.1767 H   0  0  0  0  0  0  0  0  0  0  0  0
   -6.3029   20.9217  -32.4549 H   0  0  0  0  0  0  0  0  0  0  0  0
   -5.0327   21.9627  -31.9227 H   0  0  0  0  0  0  0  0  0  0  0  0
   -3.8800   26.1920  -30.1140 H   0  0  0  0  0  0  0  0  0  0  0  0
  1  2  1  0
  2  3  2  0
  2  4  1  0
  4  5  2  0
  5  6  1  0
  6  7  2  0
  7  8  1  0
  8  9  2  0
  9 10  1  0
 10 11  1  0
 11 12  1  0
 12 13  1  0
 13 14  1  0
 13 15  1  0
 15 16  1  0
  9 17  1  0
 17 18  2  0
 18 19  1  0
 19 20  1  0
 20 21  1  0
 20 22  2  0
 19  4  1  0
 18  6  1  0
 16 10  1  0
  1 23  1  0
  5 24  1  0
  7 25  1  0
  8 26  1  0
 11 27  1  0
 11 28  1  0
 12 29  1  0
 12 30  1  0
 13 31  1  0
 14 32  1  0
 15 33  1  0
 15 34  1  0
 16 35  1  0
 16 36  1  0
 17 37  1  0
 21 38  1  0
M  CHG  2   1  -1  21  -1
M  END
>  <UniqueID>  (21) 
21

>  <SMILES>  (21) 
[NH-]C(=O)c1cc2ccc(N3CCC(O)CC3)cc2n1C([NH-])=O

>  <Energy>  (21) 
85.05215590137624

>  <Genealogy>  (21) 
[NH-]C(=O)c1cc2ccc(N3CCC(O)CC3)cc2n1C([NH-])=O (protonated)
[NH-]C(=O)c1cc2ccc(N3CCC(O)CC3)cc2n1C([NH-])=O (3D coordinates assigned)
[NH-]C(=O)c1cc2ccc(N3CCC(O)CC3)cc2n1C([NH-])=O (nonaromatic ring conformer: 85.05215590137624 kcal/mol)

>  <smiles>  (21) 
NC(=O)c1cc2ccc(N3CCC(O)CC3)cc2n1C(N)=O

>  <score_type>  (21) 
oracle

>  <origin>  (21) 
adg

>  <m_score__min__energy>  (21) 
-11.09

>  <m_primary>  (21) 
energy

$$$$
21:0
     RDKit          3D

 41 43  0  0  0  0  0  0  0  0999 V2000
   -6.5220   25.6740  -29.4330 C   0  0  0  0  0  0  0  0  0  0  0  0
   -6.4320   24.2470  -29.9610 C   0  0  0  0  0  0  0  0  0  0  0  0
   -5.1410   23.6990  -29.7100 O   0  0  0  0  0  0  0  0  0  0  0  0
   -3.9820   24.1140  -30.3770 C   0  0  0  0  0  0  0  0  0  0  0  0
   -3.8970   25.2840  -30.8410 O   0  0  0  0  0  0  0  0  0  0  0  0
   -2.8750   23.2100  -30.5070 N   0  0  0  0  0  0  0  0  0  0  0  0
   -1.6460   23.3000  -29.9230 C   0  0  0  0  0  0  0  0  0  0  0  0
   -1.1370   24.4460  -29.1400 C   0  0  0  0  0  0  0  0  0  0  0  0
   -1.9270   25.6180  -28.9560 N   0  0  0  0  0  0  0  0  0  0  0  0
    0.0300   24.4070  -28.6650 O   0  0  0  0  0  0  0  0  0  0  0  0
   -0.8730   22.1840  -30.2370 C   0  0  0  0  0  0  0  0  0  0  0  0
   -1.6680   21.4060  -31.0480 C   0  0  0  0  0  0  0  0  0  0  0  0
   -1.4030   20.1820  -31.6530 C   0  0  0  0  0  0  0  0  0  0  0  0
   -2.4200   19.5950  -32.4260 C   0  0  0  0  0  0  0  0  0  0  0  0
   -3.6800   20.2300  -32.5630 C   0  0  0  0  0  0  0  0  0  0  0  0
   -4.7500   19.6080  -33.4170 C   0  0  0  0  0  0  0  0  0  0  0  0
   -6.1140   19.9320  -32.8650 C   0  0  0  0  0  0  0  0  0  0  0  0
   -6.5750   21.2590  -32.8760 C   0  0  0  0  0  0  0  0  0  0  0  0
   -7.8220   21.5780  -32.3320 C   0  0  0  0  0  0  0  0  0  0  0  0
   -8.6160   20.5770  -31.7650 C   0  0  0  0  0  0  0  0  0  0  0  0
   -9.8240   20.8920  -31.2360 F   0  0  0  0  0  0  0  0  0  0  0  0
   -8.1620   19.2550  -31.7380 C   0  0  0  0  0  0  0  0  0  0  0  0
   -8.9310   18.2870  -31.1820 F   0  0  0  0  0  0  0  0  0  0  0  0
   -6.9130   18.9290  -32.2820 C   0  0  0  0  0  0  0  0  0  0  0  0
   -6.4880   17.6410  -32.2400 F   0  0  0  0  0  0  0  0  0  0  0  0
   -3.9100   21.4760  -31.9380 C   0  0  0  0  0  0  0  0  0  0  0  0
   -2.8710   22.0460  -31.1940 C   0  0  0  0  0  0  0  0  0  0  0  0
   -6.5210   25.6587  -28.3331 H   0  0  0  0  0  0  0  0  0  0  0  0
   -5.6586   26.2531  -29.7924 H   0  0  0  0  0  0  0  0  0  0  0  0
   -7.4513   26.1400  -29.7924 H   0  0  0  0  0  0  0  0  0  0  0  0
   -7.1909   23.6279  -29.4603 H   0  0  0  0  0  0  0  0  0  0  0  0
   -6.6065   24.2595  -31.0470 H   0  0  0  0  0  0  0  0  0  0  0  0
   -2.9010   25.6720  -29.3240 H   0  0  0  0  0  0  0  0  0  0  0  0
    0.1543   21.9701  -29.9069 H   0  0  0  0  0  0  0  0  0  0  0  0
   -0.4276   19.6884  -31.5304 H   0  0  0  0  0  0  0  0  0  0  0  0
   -2.2364   18.6342  -32.9291 H   0  0  0  0  0  0  0  0  0  0  0  0
   -4.6705   20.0006  -34.4415 H   0  0  0  0  0  0  0  0  0  0  0  0
   -4.6155   18.5163  -33.4203 H   0  0  0  0  0  0  0  0  0  0  0  0
   -5.9510   22.0512  -33.3152 H   0  0  0  0  0  0  0  0  0  0  0  0
   -8.1793   22.6182  -32.3500 H   0  0  0  0  0  0  0  0  0  0  0  0
   -4.8806   21.9848  -32.0338 H   0  0  0  0  0  0  0  0  0  0  0  0
  1  2  1  0
  2  3  1  0
  3  4  1  0
  4  5  2  0
  4  6  1  0
  6  7  1  0
  7  8  1  0
  8  9  1  0
  8 10  2  0
  7 11  2  0
 11 12  1  0
 12 13  2  0
 13 14  1  0
 14 15  2  0
 15 16  1  0
 16 17  1  0
 17 18  2  0
 18 19  1  0
 19 20  2  0
 20 21  1  0
 20 22  1  0
 22 23  1  0
 22 24  2  0
 24 25  1  0
 15 26  1  0
 26 27  2  0
 27  6  1  0
 27 12  1  0
 24 17  1  0
  1 28  1  0
  1 29  1  0
  1 30  1  0
  2 31  1  0
  2 32  1  0
  9 33  1  0
 11 34  1  0
 13 35  1  0
 14 36  1  0
 16 37  1  0
 16 38  1  0
 18 39  1  0
 19 40  1  0
 26 41  1  0
M  CHG  1   9  -1
M  END
>  <UniqueID>  (22) 
22

>  <SMILES>  (22) 
CCOC(=O)n1c(C([NH-])=O)cc2ccc(Cc3ccc(F)c(F)c3F)cc21

>  <Energy>  (22) 
77.7171023322909

>  <Genealogy>  (22) 
CCOC(=O)n1c(C([NH-])=O)cc2ccc(Cc3ccc(F)c(F)c3F)cc21 (protonated)
CCOC(=O)n1c(C([NH-])=O)cc2ccc(Cc3ccc(F)c(F)c3F)cc21 (3D coordinates assigned)
CCOC(=O)n1c(C([NH-])=O)cc2ccc(Cc3ccc(F)c(F)c3F)cc21 (optimized conformer: 77.7171023322909 kcal/mol)

>  <smiles>  (22) 
CCOC(=O)n1c(C(N)=O)cc2ccc(Cc3ccc(F)c(F)c3F)cc21

>  <score_type>  (22) 
oracle

>  <origin>  (22) 
adg

>  <m_score__min__energy>  (22) 
-11.18

>  <m_primary>  (22) 
energy

$$$$
22:0
     RDKit          3D

 66 69  0  0  0  0  0  0  0  0999 V2000
    1.6380   23.9430  -27.4620 C   0  0  0  0  0  0  0  0  0  0  0  0
    0.8410   24.9120  -28.2020 N   0  0  0  0  0  0  0  0  0  0  0  0
   -0.5870   24.8690  -28.3160 C   0  0  0  0  0  0  0  0  0  0  0  0
   -1.1640   25.7400  -29.0200 O   0  0  0  0  0  0  0  0  0  0  0  0
   -1.4020   23.7610  -27.6850 C   0  0  2  0  0  0  0  0  0  0  0  0
   -1.6860   22.6430  -28.6950 C   0  0  0  0  0  0  0  0  0  0  0  0
   -3.1620   22.2750  -28.5090 C   0  0  2  0  0  0  0  0  0  0  0  0
   -3.8040   22.0280  -29.7600 O   0  0  0  0  0  0  0  0  0  0  0  0
   -4.3170   23.0410  -30.5780 C   0  0  0  0  0  0  0  0  0  0  0  0
   -3.5700   23.9770  -30.9770 O   0  0  0  0  0  0  0  0  0  0  0  0
   -5.6960   23.0000  -30.9790 N   0  0  0  0  0  0  0  0  0  0  0  0
   -6.6620   23.9210  -30.7080 C   0  0  0  0  0  0  0  0  0  0  0  0
   -6.4340   25.2500  -30.0970 C   0  0  0  0  0  0  0  0  0  0  0  0
   -5.3200   26.0540  -30.4900 N   0  0  0  0  0  0  0  0  0  0  0  0
   -7.2090   25.6750  -29.1990 O   0  0  0  0  0  0  0  0  0  0  0  0
   -7.9030   23.4780  -31.1650 C   0  0  0  0  0  0  0  0  0  0  0  0
   -7.6640   22.2440  -31.7270 C   0  0  0  0  0  0  0  0  0  0  0  0
   -8.5480   21.3400  -32.3070 C   0  0  0  0  0  0  0  0  0  0  0  0
   -8.0340   20.1170  -32.7650 C   0  0  0  0  0  0  0  0  0  0  0  0
   -6.6530   19.8180  -32.6370 C   0  0  0  0  0  0  0  0  0  0  0  0
   -6.1280   18.5140  -33.1080 C   0  0  0  0  0  0  0  0  0  0  0  0
   -5.4960   18.4210  -34.3620 C   0  0  0  0  0  0  0  0  0  0  0  0
   -5.0000   17.1950  -34.8160 C   0  0  0  0  0  0  0  0  0  0  0  0
   -4.4000   17.1140  -36.0290 F   0  0  0  0  0  0  0  0  0  0  0  0
   -5.1270   16.0530  -34.0240 C   0  0  0  0  0  0  0  0  0  0  0  0
   -5.7500   16.1330  -32.7750 C   0  0  0  0  0  0  0  0  0  0  0  0
   -6.2480   17.3550  -32.3140 C   0  0  0  0  0  0  0  0  0  0  0  0
   -6.8140   17.4110  -31.0810 F   0  0  0  0  0  0  0  0  0  0  0  0
   -5.7860   20.7600  -32.0370 C   0  0  0  0  0  0  0  0  0  0  0  0
   -6.3240   21.9780  -31.6030 C   0  0  0  0  0  0  0  0  0  0  0  0
   -3.8070   23.4710  -27.8150 C   0  0  0  0  0  0  0  0  0  0  0  0
   -2.7090   24.2400  -27.2590 N   0  0  0  0  0  0  0  0  0  0  0  0
   -2.9090   25.2430  -26.2500 C   0  0  0  0  0  0  0  0  0  0  0  0
   -4.0040   25.2950  -25.6250 O   0  0  0  0  0  0  0  0  0  0  0  0
   -1.8780   26.1570  -25.9780 O   0  0  0  0  0  0  0  0  0  0  0  0
   -0.8300   25.9980  -25.0110 C   0  0  0  0  0  0  0  0  0  0  0  0
    0.4950   26.5690  -25.5530 C   0  0  0  0  0  0  0  0  0  0  0  0
   -1.2410   26.7930  -23.7620 C   0  0  0  0  0  0  0  0  0  0  0  0
   -0.6640   24.5160  -24.6240 C   0  0  0  0  0  0  0  0  0  0  0  0
    1.5039   24.1060  -26.3824 H   0  0  0  0  0  0  0  0  0  0  0  0
    1.3123   22.9251  -27.7224 H   0  0  0  0  0  0  0  0  0  0  0  0
    2.6996   24.0662  -27.7224 H   0  0  0  0  0  0  0  0  0  0  0  0
   -0.8089   23.3994  -26.8321 H   0  0  0  0  0  0  0  0  0  0  0  0
   -1.5065   22.9987  -29.7203 H   0  0  0  0  0  0  0  0  0  0  0  0
   -1.0296   21.7754  -28.5327 H   0  0  0  0  0  0  0  0  0  0  0  0
   -3.2605   21.3513  -27.9198 H   0  0  0  0  0  0  0  0  0  0  0  0
   -4.7010   25.7690  -31.2790 H   0  0  0  0  0  0  0  0  0  0  0  0
   -5.1400   26.9660  -30.0170 H   0  0  0  0  0  0  0  0  0  0  0  0
   -8.8671   24.0026  -31.0920 H   0  0  0  0  0  0  0  0  0  0  0  0
   -9.6179   21.5766  -32.4038 H   0  0  0  0  0  0  0  0  0  0  0  0
   -8.7091   19.3824  -33.2282 H   0  0  0  0  0  0  0  0  0  0  0  0
   -5.3915   19.3187  -34.9891 H   0  0  0  0  0  0  0  0  0  0  0  0
   -4.7366   15.0892  -34.3827 H   0  0  0  0  0  0  0  0  0  0  0  0
   -5.8486   15.2312  -32.1529 H   0  0  0  0  0  0  0  0  0  0  0  0
   -4.7149   20.5415  -31.9141 H   0  0  0  0  0  0  0  0  0  0  0  0
   -4.3715   24.0765  -28.5394 H   0  0  0  0  0  0  0  0  0  0  0  0
   -4.5171   23.1550  -27.0366 H   0  0  0  0  0  0  0  0  0  0  0  0
    1.1451   26.8492  -24.7111 H   0  0  0  0  0  0  0  0  0  0  0  0
    0.9982   25.8079  -26.1674 H   0  0  0  0  0  0  0  0  0  0  0  0
    0.2873   27.4575  -26.1674 H   0  0  0  0  0  0  0  0  0  0  0  0
   -0.9519   26.2338  -22.8599 H   0  0  0  0  0  0  0  0  0  0  0  0
   -0.7348   27.7696  -23.7660 H   0  0  0  0  0  0  0  0  0  0  0  0
   -2.3305   26.9447  -23.7660 H   0  0  0  0  0  0  0  0  0  0  0  0
   -0.6535   24.4222  -23.5281 H   0  0  0  0  0  0  0  0  0  0  0  0
   -1.5026   23.9339  -25.0338 H   0  0  0  0  0  0  0  0  0  0  0  0
    0.2826   24.1338  -25.0338 H   0  0  0  0  0  0  0  0  0  0  0  0
  1  2  1  0
  2  3  1  0
  3  4  2  0
  3  5  1  0
  5  6  1  0
  6  7  1  0
  7  8  1  0
  8  9  1  0
  9 10  2  0
  9 11  1  0
 11 12  1  0
 12 13  1  0
 13 14  1  0
 13 15  2  0
 12 16  2  0
 16 17  1  0
 17 18  2  0
 18 19  1  0
 19 20  2  0
 20 21  1  0
 21 22  2  0
 22 23  1  0
 23 24  1  0
 23 25  2  0
 25 26  1  0
 26 27  2  0
 27 28  1  0
 20 29  1  0
 29 30  2  0
  7 31  1  0
 31 32  1  0
 32 33  1  0
 33 34  2  0
 33 35  1  0
 35 36  1  0
 36 37  1  0
 36 38  1  0
 36 39  1  0
 32  5  1  0
 30 11  1  0
 30 17  1  0
 27 21  1  0
  1 40  1  0
  1 41  1  0
  1 42  1  0
  5 43  1  1
  6 44  1  0
  6 45  1  0
  7 46  1  1
 14 47  1  0
 14 48  1  0
 16 49  1  0
 18 50  1  0
 19 51  1  0
 22 52  1  0
 25 53  1  0
 26 54  1  0
 29 55  1  0
 31 56  1  0
 31 57  1  0
 37 58  1  0
 37 59  1  0
 37 60  1  0
 38 61  1  0
 38 62  1  0
 38 63  1  0
 39 64  1  0
 39 65  1  0
 39 66  1  0
M  CHG  1   2  -1
M  END
>  <UniqueID>  (23) 
23

>  <SMILES>  (23) 
C[N-]C(=O)[C@@H]1C[C@H](OC(=O)n2c(C(N)=O)cc3ccc(-c4cc(F)ccc4F)cc32)CN1C(=O)OC(C)(C)C

>  <Energy>  (23) 
105.28776249113791

>  <Genealogy>  (23) 
C[N-]C(=O)C1CC(OC(=O)n2c(C(N)=O)cc3ccc(-c4cc(F)ccc4F)cc32)CN1C(=O)OC(C)(C)C (protonated)
C[N-]C(=O)[C@@H]1C[C@H](OC(=O)n2c(C(N)=O)cc3ccc(-c4cc(F)ccc4F)cc32)CN1C(=O)OC(C)(C)C (chirality)
C[N-]C(=O)[C@@H]1C[C@H](OC(=O)n2c(C(N)=O)cc3ccc(-c4cc(F)ccc4F)cc32)CN1C(=O)OC(C)(C)C (3D coordinates assigned)
C[N-]C(=O)[C@@H]1C[C@H](OC(=O)n2c(C(N)=O)cc3ccc(-c4cc(F)ccc4F)cc32)CN1C(=O)OC(C)(C)C (nonaromatic ring conformer: 105.28776249113791 kcal/mol)

>  <smiles>  (23) 
CNC(=O)C1CC(OC(=O)n2c(C(N)=O)cc3ccc(-c4cc(F)ccc4F)cc32)CN1C(=O)OC(C)(C)C

>  <score_type>  (23) 
oracle

>  <origin>  (23) 
adg

>  <m_score__min__energy>  (23) 
-12.51

>  <m_primary>  (23) 
energy

$$$$
23:0
     RDKit          3D

 31 33  0  0  0  0  0  0  0  0999 V2000
   -1.2710   25.7180  -29.0440 N   0  0  0  0  0  0  0  0  0  0  0  0
   -0.8360   24.3780  -29.2560 C   0  0  0  0  0  0  0  0  0  0  0  0
    0.3000   24.0240  -28.8400 O   0  0  0  0  0  0  0  0  0  0  0  0
   -1.7200   23.3850  -29.9010 C   0  0  0  0  0  0  0  0  0  0  0  0
   -1.2590   22.1820  -30.4330 C   0  0  0  0  0  0  0  0  0  0  0  0
   -2.3860   21.5120  -30.8480 C   0  0  0  0  0  0  0  0  0  0  0  0
   -2.5120   20.2710  -31.4650 C   0  0  0  0  0  0  0  0  0  0  0  0
   -3.8010   19.8370  -31.8150 C   0  0  0  0  0  0  0  0  0  0  0  0
   -4.9370   20.6460  -31.5500 C   0  0  0  0  0  0  0  0  0  0  0  0
   -6.2890   20.1820  -31.9420 C   0  0  0  0  0  0  0  0  0  0  0  0
   -7.3530   21.1000  -32.0130 C   0  0  0  0  0  0  0  0  0  0  0  0
   -8.6340   20.6740  -32.3750 C   0  0  0  0  0  0  0  0  0  0  0  0
   -8.8670   19.3290  -32.6730 C   0  0  0  0  0  0  0  0  0  0  0  0
  -10.1090   18.9170  -33.0250 F   0  0  0  0  0  0  0  0  0  0  0  0
   -7.8170   18.4090  -32.6110 C   0  0  0  0  0  0  0  0  0  0  0  0
   -6.5320   18.8280  -32.2490 C   0  0  0  0  0  0  0  0  0  0  0  0
   -5.5250   17.9190  -32.2350 F   0  0  0  0  0  0  0  0  0  0  0  0
   -4.7650   21.9040  -30.9260 C   0  0  0  0  0  0  0  0  0  0  0  0
   -3.4710   22.3030  -30.5710 C   0  0  0  0  0  0  0  0  0  0  0  0
   -3.0780   23.4600  -29.9930 N   0  0  0  0  0  0  0  0  0  0  0  0
   -3.9210   24.5700  -29.6450 C   0  0  0  0  0  0  0  0  0  0  0  0
   -4.6150   24.5380  -28.5940 O   0  0  0  0  0  0  0  0  0  0  0  0
   -4.0020   25.6780  -30.4800 O   0  0  0  0  0  0  0  0  0  0  0  0
   -2.2860   25.9490  -28.9770 H   0  0  0  0  0  0  0  0  0  0  0  0
   -0.2157   21.8410  -30.5055 H   0  0  0  0  0  0  0  0  0  0  0  0
   -1.6288   19.6489  -31.6723 H   0  0  0  0  0  0  0  0  0  0  0  0
   -3.9319   18.8585  -32.3003 H   0  0  0  0  0  0  0  0  0  0  0  0
   -7.1753   22.1607  -31.7819 H   0  0  0  0  0  0  0  0  0  0  0  0
   -9.4600   21.3987  -32.4254 H   0  0  0  0  0  0  0  0  0  0  0  0
   -8.0015   17.3508  -32.8478 H   0  0  0  0  0  0  0  0  0  0  0  0
   -5.6290   22.5542  -30.7242 H   0  0  0  0  0  0  0  0  0  0  0  0
  1  2  1  0
  2  3  2  0
  2  4  1  0
  4  5  2  0
  5  6  1  0
  6  7  2  0
  7  8  1  0
  8  9  2  0
  9 10  1  0
 10 11  2  0
 11 12  1  0
 12 13  2  0
 13 14  1  0
 13 15  1  0
 15 16  2  0
 16 17  1  0
  9 18  1  0
 18 19  2  0
 19 20  1  0
 20 21  1  0
 21 22  2  0
 21 23  1  0
 20  4  1  0
 19  6  1  0
 16 10  1  0
  1 24  1  0
  5 25  1  0
  7 26  1  0
  8 27  1  0
 11 28  1  0
 12 29  1  0
 15 30  1  0
 18 31  1  0
M  CHG  2   1  -1  23  -1
M  END
>  <UniqueID>  (24) 
24

>  <SMILES>  (24) 
[NH-]C(=O)c1cc2ccc(-c3ccc(F)cc3F)cc2n1C(=O)[O-]

>  <Energy>  (24) 
80.17153384020206

>  <Genealogy>  (24) 
[NH-]C(=O)c1cc2ccc(-c3ccc(F)cc3F)cc2n1C(=O)[O-] (protonated)
[NH-]C(=O)c1cc2ccc(-c3ccc(F)cc3F)cc2n1C(=O)[O-] (3D coordinates assigned)
[NH-]C(=O)c1cc2ccc(-c3ccc(F)cc3F)cc2n1C(=O)[O-] (optimized conformer: 80.17153384020206 kcal/mol)

>  <smiles>  (24) 
NC(=O)c1cc2ccc(-c3ccc(F)cc3F)cc2n1C(=O)O

>  <score_type>  (24) 
oracle

>  <origin>  (24) 
adg

>  <m_score__min__energy>  (24) 
-11.19

>  <m_primary>  (24) 
energy

$$$$
24:0
     RDKit          3D

 42 44  0  0  0  0  0  0  0  0999 V2000
   -6.4100   17.5990  -31.1190 C   0  0  0  0  0  0  0  0  0  0  0  0
   -6.1400   16.9190  -32.4580 C   0  0  0  0  0  0  0  0  0  0  0  0
   -6.7010   17.7240  -33.5670 N   0  0  0  0  0  0  0  0  0  0  0  0
   -7.1690   19.0640  -33.1190 C   0  0  0  0  0  0  0  0  0  0  0  0
   -6.1930   20.2110  -33.4520 C   0  0  0  0  0  0  0  0  0  0  0  0
   -4.8150   19.7140  -33.4830 N   0  0  0  0  0  0  0  0  0  0  0  0
   -3.7910   20.2920  -32.6490 C   0  0  0  0  0  0  0  0  0  0  0  0
   -2.5870   19.5850  -32.4050 C   0  0  0  0  0  0  0  0  0  0  0  0
   -1.5950   20.1240  -31.5680 C   0  0  0  0  0  0  0  0  0  0  0  0
   -1.8320   21.3690  -30.9940 C   0  0  0  0  0  0  0  0  0  0  0  0
   -1.0630   22.0970  -30.1160 C   0  0  0  0  0  0  0  0  0  0  0  0
   -1.7970   23.2490  -29.8530 C   0  0  0  0  0  0  0  0  0  0  0  0
   -1.3060   24.3450  -28.9930 C   0  0  0  0  0  0  0  0  0  0  0  0
   -2.2040   25.2990  -28.4270 N   0  0  0  0  0  0  0  0  0  0  0  0
   -0.0670   24.4730  -28.8020 O   0  0  0  0  0  0  0  0  0  0  0  0
   -2.9820   23.2320  -30.5270 N   0  0  0  0  0  0  0  0  0  0  0  0
   -4.0590   24.1790  -30.4280 C   0  0  0  0  0  0  0  0  0  0  0  0
   -5.1960   23.8100  -30.0290 O   0  0  0  0  0  0  0  0  0  0  0  0
   -3.8610   25.5100  -30.7710 O   0  0  0  0  0  0  0  0  0  0  0  0
   -2.9870   22.0740  -31.2260 C   0  0  0  0  0  0  0  0  0  0  0  0
   -4.0000   21.5490  -32.0370 C   0  0  0  0  0  0  0  0  0  0  0  0
   -4.4980   18.5830  -34.3610 C   0  0  0  0  0  0  0  0  0  0  0  0
   -5.7750   17.8030  -34.7190 C   0  0  0  0  0  0  0  0  0  0  0  0
   -6.1390   16.9166  -30.3000 H   0  0  0  0  0  0  0  0  0  0  0  0
   -5.8081   18.5168  -31.0459 H   0  0  0  0  0  0  0  0  0  0  0  0
   -7.4776   17.8539  -31.0459 H   0  0  0  0  0  0  0  0  0  0  0  0
   -5.0541   16.8143  -32.5991 H   0  0  0  0  0  0  0  0  0  0  0  0
   -6.6180   15.9283  -32.4584 H   0  0  0  0  0  0  0  0  0  0  0  0
   -8.1316   19.2757  -33.6074 H   0  0  0  0  0  0  0  0  0  0  0  0
   -7.2513   19.0232  -32.0228 H   0  0  0  0  0  0  0  0  0  0  0  0
   -6.4493   20.6313  -34.4357 H   0  0  0  0  0  0  0  0  0  0  0  0
   -6.2758   20.9873  -32.6771 H   0  0  0  0  0  0  0  0  0  0  0  0
   -2.4273   18.6038  -32.8759 H   0  0  0  0  0  0  0  0  0  0  0  0
   -0.6600   19.5784  -31.3727 H   0  0  0  0  0  0  0  0  0  0  0  0
   -0.0778   21.8260  -29.7087 H   0  0  0  0  0  0  0  0  0  0  0  0
   -3.2100   25.3230  -28.7020 H   0  0  0  0  0  0  0  0  0  0  0  0
   -1.8430   26.0450  -27.7910 H   0  0  0  0  0  0  0  0  0  0  0  0
   -4.9376   22.1022  -32.1945 H   0  0  0  0  0  0  0  0  0  0  0  0
   -4.0339   18.9605  -35.2841 H   0  0  0  0  0  0  0  0  0  0  0  0
   -3.8053   17.9088  -33.8360 H   0  0  0  0  0  0  0  0  0  0  0  0
   -6.2828   18.3110  -35.5521 H   0  0  0  0  0  0  0  0  0  0  0  0
   -5.4874   16.7798  -35.0025 H   0  0  0  0  0  0  0  0  0  0  0  0
  1  2  1  0
  2  3  1  0
  3  4  1  0
  4  5  1  0
  5  6  1  0
  6  7  1  0
  7  8  2  0
  8  9  1  0
  9 10  2  0
 10 11  1  0
 11 12  2  0
 12 13  1  0
 13 14  1  0
 13 15  2  0
 12 16  1  0
 16 17  1  0
 17 18  2  0
 17 19  1  0
 16 20  1  0
 20 21  2  0
  6 22  1  0
 22 23  1  0
 23  3  1  0
 21  7  1  0
 20 10  1  0
  1 24  1  0
  1 25  1  0
  1 26  1  0
  2 27  1  0
  2 28  1  0
  4 29  1  0
  4 30  1  0
  5 31  1  0
  5 32  1  0
  8 33  1  0
  9 34  1  0
 11 35  1  0
 14 36  1  0
 14 37  1  0
 21 38  1  0
 22 39  1  0
 22 40  1  0
 23 41  1  0
 23 42  1  0
M  CHG  1  19  -1
M  END
>  <UniqueID>  (25) 
25

>  <SMILES>  (25) 
CCN1CCN(c2ccc3cc(C(N)=O)n(C(=O)[O-])c3c2)CC1

>  <Energy>  (25) 
93.11234338586267

>  <Genealogy>  (25) 
CCN1CCN(c2ccc3cc(C(N)=O)n(C(=O)[O-])c3c2)CC1 (protonated)
CCN1CCN(c2ccc3cc(C(N)=O)n(C(=O)[O-])c3c2)CC1 (3D coordinates assigned)
CCN1CCN(c2ccc3cc(C(N)=O)n(C(=O)[O-])c3c2)CC1 (nonaromatic ring conformer: 93.11234338586267 kcal/mol)

>  <smiles>  (25) 
CCN1CCN(c2ccc3cc(C(N)=O)n(C(=O)O)c3c2)CC1

>  <score_type>  (25) 
oracle

>  <origin>  (25) 
adg

>  <m_score__min__energy>  (25) 
-9.3800000000000008

>  <m_primary>  (25) 
energy

$$$$
25:0
     RDKit          3D

 44 46  0  0  0  0  0  0  0  0999 V2000
   -2.5970   20.3920  -33.8010 C   0  0  0  0  0  0  0  0  0  0  0  0
   -2.6460   20.3630  -32.2780 C   0  0  0  0  0  0  0  0  0  0  0  0
   -3.8880   20.8760  -31.8050 O   0  0  0  0  0  0  0  0  0  0  0  0
   -4.1110   22.2310  -31.5370 C   0  0  0  0  0  0  0  0  0  0  0  0
   -3.1630   23.0610  -31.6120 O   0  0  0  0  0  0  0  0  0  0  0  0
   -5.4320   22.6840  -31.2030 N   0  0  0  0  0  0  0  0  0  0  0  0
   -5.7880   23.8420  -30.5800 C   0  0  0  0  0  0  0  0  0  0  0  0
   -4.8640   24.8210  -29.9690 C   0  0  0  0  0  0  0  0  0  0  0  0
   -4.0000   25.6160  -30.7750 N   0  0  0  0  0  0  0  0  0  0  0  0
   -4.8010   24.9200  -28.7150 O   0  0  0  0  0  0  0  0  0  0  0  0
   -7.1760   23.9550  -30.5140 C   0  0  0  0  0  0  0  0  0  0  0  0
   -7.6630   22.8140  -31.1110 C   0  0  0  0  0  0  0  0  0  0  0  0
   -8.9760   22.4040  -31.3200 C   0  0  0  0  0  0  0  0  0  0  0  0
   -9.1880   21.1850  -31.9840 C   0  0  0  0  0  0  0  0  0  0  0  0
   -8.0920   20.4090  -32.4410 C   0  0  0  0  0  0  0  0  0  0  0  0
   -8.3200   19.1490  -33.1030 N   0  0  0  0  0  0  0  0  0  0  0  0
   -7.7020   18.0590  -32.3380 C   0  0  0  0  0  0  0  0  0  0  0  0
   -6.4170   17.6190  -32.9910 C   0  0  0  0  0  0  0  0  0  0  0  0
   -6.0350   18.1520  -34.2320 C   0  0  0  0  0  0  0  0  0  0  0  0
   -4.8250   17.7700  -34.8210 C   0  0  0  0  0  0  0  0  0  0  0  0
   -3.9830   16.8620  -34.1690 C   0  0  0  0  0  0  0  0  0  0  0  0
   -2.4650   16.3860  -34.9060 Cl  0  0  0  0  0  0  0  0  0  0  0  0
   -4.3510   16.3410  -32.9230 C   0  0  0  0  0  0  0  0  0  0  0  0
   -5.5610   16.7200  -32.3330 C   0  0  0  0  0  0  0  0  0  0  0  0
   -6.7710   20.8550  -32.2000 C   0  0  0  0  0  0  0  0  0  0  0  0
   -6.5910   22.0640  -31.5190 C   0  0  0  0  0  0  0  0  0  0  0  0
   -1.6933   20.9268  -34.1287 H   0  0  0  0  0  0  0  0  0  0  0  0
   -2.5737   19.3621  -34.1868 H   0  0  0  0  0  0  0  0  0  0  0  0
   -3.4886   20.9080  -34.1868 H   0  0  0  0  0  0  0  0  0  0  0  0
   -2.5287   19.3253  -31.9325 H   0  0  0  0  0  0  0  0  0  0  0  0
   -1.8317   20.9898  -31.8856 H   0  0  0  0  0  0  0  0  0  0  0  0
   -3.1140   25.2230  -31.1640 H   0  0  0  0  0  0  0  0  0  0  0  0
   -7.7581   24.7801  -30.0778 H   0  0  0  0  0  0  0  0  0  0  0  0
   -9.8224   23.0163  -30.9755 H   0  0  0  0  0  0  0  0  0  0  0  0
  -10.2149   20.8280  -32.1516 H   0  0  0  0  0  0  0  0  0  0  0  0
   -7.9130   19.1800  -34.0680 H   0  0  0  0  0  0  0  0  0  0  0  0
   -9.3500   18.9790  -33.1920 H   0  0  0  0  0  0  0  0  0  0  0  0
   -7.4881   18.4089  -31.3173 H   0  0  0  0  0  0  0  0  0  0  0  0
   -8.3965   17.2064  -32.3086 H   0  0  0  0  0  0  0  0  0  0  0  0
   -6.6897   18.8730  -34.7435 H   0  0  0  0  0  0  0  0  0  0  0  0
   -4.5350   18.1839  -35.7980 H   0  0  0  0  0  0  0  0  0  0  0  0
   -3.6871   15.6320  -32.4068 H   0  0  0  0  0  0  0  0  0  0  0  0
   -5.8434   16.3130  -31.3508 H   0  0  0  0  0  0  0  0  0  0  0  0
   -5.9066   20.2656  -32.5397 H   0  0  0  0  0  0  0  0  0  0  0  0
  1  2  1  0
  2  3  1  0
  3  4  1  0
  4  5  2  0
  4  6  1  0
  6  7  1  0
  7  8  1  0
  8  9  1  0
  8 10  2  0
  7 11  2  0
 11 12  1  0
 12 13  2  0
 13 14  1  0
 14 15  2  0
 15 16  1  0
 16 17  1  0
 17 18  1  0
 18 19  2  0
 19 20  1  0
 20 21  2  0
 21 22  1  0
 21 23  1  0
 23 24  2  0
 15 25  1  0
 25 26  2  0
 26  6  1  0
 26 12  1  0
 24 18  1  0
  1 27  1  0
  1 28  1  0
  1 29  1  0
  2 30  1  0
  2 31  1  0
  9 32  1  0
 11 33  1  0
 13 34  1  0
 14 35  1  0
 16 36  1  0
 16 37  1  0
 17 38  1  0
 17 39  1  0
 19 40  1  0
 20 41  1  0
 23 42  1  0
 24 43  1  0
 25 44  1  0
M  CHG  2   9  -1  16   1
M  END
>  <UniqueID>  (26) 
26

>  <SMILES>  (26) 
CCOC(=O)n1c(C([NH-])=O)cc2ccc([NH2+]Cc3ccc(Cl)cc3)cc21

>  <Energy>  (26) 
81.36157217810909

>  <Genealogy>  (26) 
CCOC(=O)n1c(C([NH-])=O)cc2ccc([NH2+]Cc3ccc(Cl)cc3)cc21 (protonated)
CCOC(=O)n1c(C([NH-])=O)cc2ccc([NH2+]Cc3ccc(Cl)cc3)cc21 (3D coordinates assigned)
CCOC(=O)n1c(C([NH-])=O)cc2ccc([NH2+]Cc3ccc(Cl)cc3)cc21 (optimized conformer: 81.36157217810909 kcal/mol)

>  <smiles>  (26) 
CCOC(=O)n1c(C(N)=O)cc2ccc(NCc3ccc(Cl)cc3)cc21

>  <score_type>  (26) 
oracle

>  <origin>  (26) 
adg

>  <m_score__min__energy>  (26) 
-10.970000000000001

>  <m_primary>  (26) 
energy

$$$$
26:0
     RDKit          3D

 45 46  0  0  0  0  0  0  0  0999 V2000
   -9.1180   18.6340  -31.9880 C   0  0  0  0  0  0  0  0  0  0  0  0
   -8.9540   19.9820  -32.6970 C   0  0  0  0  0  0  0  0  0  0  0  0
   -7.6050   20.5950  -32.5770 N   0  0  0  0  0  0  0  0  0  0  0  0
   -7.5780   21.7880  -31.6800 C   0  0  0  0  0  0  0  0  0  0  0  0
   -7.2540   23.1320  -32.3580 C   0  0  0  0  0  0  0  0  0  0  0  0
   -6.5450   19.5800  -32.3270 C   0  0  0  0  0  0  0  0  0  0  0  0
   -5.3260   19.7320  -33.2630 C   0  0  0  0  0  0  0  0  0  0  0  0
   -4.1350   20.3250  -32.5540 C   0  0  0  0  0  0  0  0  0  0  0  0
   -2.8990   19.6310  -32.5270 C   0  0  0  0  0  0  0  0  0  0  0  0
   -1.7940   20.1620  -31.8410 C   0  0  0  0  0  0  0  0  0  0  0  0
   -1.9530   21.3840  -31.1960 C   0  0  0  0  0  0  0  0  0  0  0  0
   -1.0600   22.1160  -30.4470 C   0  0  0  0  0  0  0  0  0  0  0  0
   -1.7590   23.2500  -30.0400 C   0  0  0  0  0  0  0  0  0  0  0  0
   -1.1500   24.3590  -29.2760 C   0  0  0  0  0  0  0  0  0  0  0  0
   -1.9490   25.4710  -28.8800 N   0  0  0  0  0  0  0  0  0  0  0  0
    0.0640   24.3200  -28.9420 O   0  0  0  0  0  0  0  0  0  0  0  0
   -3.0380   23.2150  -30.5100 N   0  0  0  0  0  0  0  0  0  0  0  0
   -4.0990   24.1540  -30.2720 C   0  0  0  0  0  0  0  0  0  0  0  0
   -5.2660   23.7900  -29.4110 C   0  0  0  0  0  0  0  0  0  0  0  0
   -4.0800   25.2770  -30.8420 O   0  0  0  0  0  0  0  0  0  0  0  0
   -3.1380   22.0720  -31.2220 C   0  0  0  0  0  0  0  0  0  0  0  0
   -4.2590   21.5640  -31.8870 C   0  0  0  0  0  0  0  0  0  0  0  0
   -9.0993   18.7878  -30.8990 H   0  0  0  0  0  0  0  0  0  0  0  0
  -10.0778   18.1816  -32.2780 H   0  0  0  0  0  0  0  0  0  0  0  0
   -8.2947   17.9646  -32.2780 H   0  0  0  0  0  0  0  0  0  0  0  0
   -9.1675   19.8336  -33.7658 H   0  0  0  0  0  0  0  0  0  0  0  0
   -9.6516   20.6753  -32.2044 H   0  0  0  0  0  0  0  0  0  0  0  0
   -7.4290   20.9700  -33.5380 H   0  0  0  0  0  0  0  0  0  0  0  0
   -8.5680   21.8781  -31.2091 H   0  0  0  0  0  0  0  0  0  0  0  0
   -6.7579   21.6077  -30.9695 H   0  0  0  0  0  0  0  0  0  0  0  0
   -7.0698   23.8960  -31.5883 H   0  0  0  0  0  0  0  0  0  0  0  0
   -6.3572   23.0196  -32.9850 H   0  0  0  0  0  0  0  0  0  0  0  0
   -8.1035   23.4406  -32.9850 H   0  0  0  0  0  0  0  0  0  0  0  0
   -6.2021   19.6812  -31.2867 H   0  0  0  0  0  0  0  0  0  0  0  0
   -6.9860   18.5912  -32.5216 H   0  0  0  0  0  0  0  0  0  0  0  0
   -5.0503   18.7398  -33.6498 H   0  0  0  0  0  0  0  0  0  0  0  0
   -5.6086   20.4146  -34.0779 H   0  0  0  0  0  0  0  0  0  0  0  0
   -2.8043   18.6671  -33.0484 H   0  0  0  0  0  0  0  0  0  0  0  0
   -0.8327   19.6279  -31.8148 H   0  0  0  0  0  0  0  0  0  0  0  0
   -0.0151   21.8597  -30.2181 H   0  0  0  0  0  0  0  0  0  0  0  0
   -2.8710   25.6580  -29.3330 H   0  0  0  0  0  0  0  0  0  0  0  0
   -4.9821   23.8786  -28.3520 H   0  0  0  0  0  0  0  0  0  0  0  0
   -6.1047   24.4692  -29.6238 H   0  0  0  0  0  0  0  0  0  0  0  0
   -5.5698   22.7544  -29.6238 H   0  0  0  0  0  0  0  0  0  0  0  0
   -5.2113   22.1145  -31.8904 H   0  0  0  0  0  0  0  0  0  0  0  0
  1  2  1  0
  2  3  1  0
  3  4  1  0
  4  5  1  0
  3  6  1  0
  6  7  1  0
  7  8  1  0
  8  9  2  0
  9 10  1  0
 10 11  2  0
 11 12  1  0
 12 13  2  0
 13 14  1  0
 14 15  1  0
 14 16  2  0
 13 17  1  0
 17 18  1  0
 18 19  1  0
 18 20  2  0
 17 21  1  0
 21 22  2  0
 22  8  1  0
 21 11  1  0
  1 23  1  0
  1 24  1  0
  1 25  1  0
  2 26  1  0
  2 27  1  0
  3 28  1  0
  4 29  1  0
  4 30  1  0
  5 31  1  0
  5 32  1  0
  5 33  1  0
  6 34  1  0
  6 35  1  0
  7 36  1  0
  7 37  1  0
  9 38  1  0
 10 39  1  0
 12 40  1  0
 15 41  1  0
 19 42  1  0
 19 43  1  0
 19 44  1  0
 22 45  1  0
M  CHG  2   3   1  15  -1
M  END
>  <UniqueID>  (27) 
27

>  <SMILES>  (27) 
CC[NH+](CC)CCc1ccc2cc(C([NH-])=O)n(C(C)=O)c2c1

>  <Energy>  (27) 
89.15016801502094

>  <Genealogy>  (27) 
CC[NH+](CC)CCc1ccc2cc(C([NH-])=O)n(C(C)=O)c2c1 (protonated)
CC[NH+](CC)CCc1ccc2cc(C([NH-])=O)n(C(C)=O)c2c1 (3D coordinates assigned)
CC[NH+](CC)CCc1ccc2cc(C([NH-])=O)n(C(C)=O)c2c1 (optimized conformer: 89.15016801502094 kcal/mol)

>  <smiles>  (27) 
CCN(CC)CCc1ccc2cc(C(N)=O)n(C(C)=O)c2c1

>  <score_type>  (27) 
oracle

>  <origin>  (27) 
adg

>  <m_score__min__energy>  (27) 
-10.31

>  <m_primary>  (27) 
energy

$$$$
27:0
     RDKit          3D

 34 36  0  0  0  0  0  0  0  0999 V2000
   -1.6500   25.6840  -28.9510 N   0  0  0  0  0  0  0  0  0  0  0  0
   -1.0370   24.4140  -29.1570 C   0  0  0  0  0  0  0  0  0  0  0  0
    0.0790   24.1750  -28.6250 O   0  0  0  0  0  0  0  0  0  0  0  0
   -1.6920   23.4140  -30.0250 C   0  0  0  0  0  0  0  0  0  0  0  0
   -1.0490   22.2710  -30.4980 C   0  0  0  0  0  0  0  0  0  0  0  0
   -2.0130   21.5660  -31.1810 C   0  0  0  0  0  0  0  0  0  0  0  0
   -1.9190   20.3610  -31.8700 C   0  0  0  0  0  0  0  0  0  0  0  0
   -3.0700   19.8800  -32.5140 C   0  0  0  0  0  0  0  0  0  0  0  0
   -4.2860   20.6080  -32.4610 C   0  0  0  0  0  0  0  0  0  0  0  0
   -5.4980   20.1150  -33.2080 C   0  0  0  0  0  0  0  0  0  0  0  0
   -6.5610   19.5520  -32.2570 C   0  0  0  0  0  0  0  0  0  0  0  0
   -7.6890   20.5200  -32.0590 C   0  0  0  0  0  0  0  0  0  0  0  0
   -7.5730   21.8950  -32.0090 C   0  0  0  0  0  0  0  0  0  0  0  0
   -8.8590   22.3680  -31.8550 C   0  0  0  0  0  0  0  0  0  0  0  0
   -9.6750   21.2550  -31.8230 C   0  0  0  0  0  0  0  0  0  0  0  0
   -8.9490   20.1680  -31.9490 O   0  0  0  0  0  0  0  0  0  0  0  0
   -4.3410   21.8320  -31.7570 C   0  0  0  0  0  0  0  0  0  0  0  0
   -3.1830   22.2780  -31.1100 C   0  0  0  0  0  0  0  0  0  0  0  0
   -3.0010   23.4180  -30.4050 N   0  0  0  0  0  0  0  0  0  0  0  0
   -3.9780   24.4500  -30.1840 C   0  0  0  0  0  0  0  0  0  0  0  0
   -4.9460   24.2520  -29.4030 O   0  0  0  0  0  0  0  0  0  0  0  0
   -3.8790   25.6650  -30.8500 O   0  0  0  0  0  0  0  0  0  0  0  0
   -2.6840   25.8020  -29.0340 H   0  0  0  0  0  0  0  0  0  0  0  0
    0.0054   21.9920  -30.3554 H   0  0  0  0  0  0  0  0  0  0  0  0
   -0.9722   19.8024  -31.9090 H   0  0  0  0  0  0  0  0  0  0  0  0
   -3.0283   18.9290  -33.0652 H   0  0  0  0  0  0  0  0  0  0  0  0
   -5.9332   20.9523  -33.7733 H   0  0  0  0  0  0  0  0  0  0  0  0
   -5.1793   19.3068  -33.8827 H   0  0  0  0  0  0  0  0  0  0  0  0
   -6.9609   18.6187  -32.6802 H   0  0  0  0  0  0  0  0  0  0  0  0
   -6.0884   19.3683  -31.2808 H   0  0  0  0  0  0  0  0  0  0  0  0
   -6.6492   22.4882  -32.0776 H   0  0  0  0  0  0  0  0  0  0  0  0
   -9.1715   23.4196  -31.7740 H   0  0  0  0  0  0  0  0  0  0  0  0
  -10.7689   21.2755  -31.7091 H   0  0  0  0  0  0  0  0  0  0  0  0
   -5.2703   22.4193  -31.7185 H   0  0  0  0  0  0  0  0  0  0  0  0
  1  2  1  0
  2  3  2  0
  2  4  1  0
  4  5  2  0
  5  6  1  0
  6  7  2  0
  7  8  1  0
  8  9  2  0
  9 10  1  0
 10 11  1  0
 11 12  1  0
 12 13  2  0
 13 14  1  0
 14 15  2  0
 15 16  1  0
  9 17  1  0
 17 18  2  0
 18 19  1  0
 19 20  1  0
 20 21  2  0
 20 22  1  0
 19  4  1  0
 18  6  1  0
 16 12  1  0
  1 23  1  0
  5 24  1  0
  7 25  1  0
  8 26  1  0
 10 27  1  0
 10 28  1  0
 11 29  1  0
 11 30  1  0
 13 31  1  0
 14 32  1  0
 15 33  1  0
 17 34  1  0
M  CHG  2   1  -1  22  -1
M  END
>  <UniqueID>  (28) 
28

>  <SMILES>  (28) 
[NH-]C(=O)c1cc2ccc(CCc3ccco3)cc2n1C(=O)[O-]

>  <Energy>  (28) 
97.2569334091412

>  <Genealogy>  (28) 
[NH-]C(=O)c1cc2ccc(CCc3ccco3)cc2n1C(=O)[O-] (protonated)
[NH-]C(=O)c1cc2ccc(CCc3ccco3)cc2n1C(=O)[O-] (3D coordinates assigned)
[NH-]C(=O)c1cc2ccc(CCc3ccco3)cc2n1C(=O)[O-] (optimized conformer: 97.2569334091412 kcal/mol)

>  <smiles>  (28) 
NC(=O)c1cc2ccc(CCc3ccco3)cc2n1C(=O)O

>  <score_type>  (28) 
oracle

>  <origin>  (28) 
adg

>  <m_score__min__energy>  (28) 
-11.34

>  <m_primary>  (28) 
energy

$$$$
28:0
     RDKit          3D

 29 31  0  0  0  0  0  0  0  0999 V2000
   -3.5620   22.5900  -31.4460 C   0  0  0  0  0  0  0  0  0  0  0  0
   -5.0240   22.6850  -31.4020 N   0  0  0  0  0  0  0  0  0  0  0  0
   -5.7650   23.7330  -30.9370 C   0  0  0  0  0  0  0  0  0  0  0  0
   -5.2370   25.0020  -30.3880 C   0  0  0  0  0  0  0  0  0  0  0  0
   -3.8600   25.3500  -30.5110 N   0  0  0  0  0  0  0  0  0  0  0  0
   -6.0190   25.8010  -29.8050 O   0  0  0  0  0  0  0  0  0  0  0  0
   -7.1250   23.4590  -31.0540 C   0  0  0  0  0  0  0  0  0  0  0  0
   -7.2000   22.2070  -31.6180 C   0  0  0  0  0  0  0  0  0  0  0  0
   -8.3140   21.4500  -31.9630 C   0  0  0  0  0  0  0  0  0  0  0  0
   -8.1010   20.1870  -32.5400 C   0  0  0  0  0  0  0  0  0  0  0  0
   -6.7850   19.7040  -32.7640 C   0  0  0  0  0  0  0  0  0  0  0  0
   -6.5480   18.3750  -33.3740 C   0  0  0  0  0  0  0  0  0  0  0  0
   -5.5740   18.0420  -34.3020 C   0  0  0  0  0  0  0  0  0  0  0  0
   -5.7480   16.7010  -34.5660 C   0  0  0  0  0  0  0  0  0  0  0  0
   -6.8120   16.2940  -33.7900 C   0  0  0  0  0  0  0  0  0  0  0  0
   -7.2660   17.3090  -33.0940 O   0  0  0  0  0  0  0  0  0  0  0  0
   -5.6790   20.5060  -32.3990 C   0  0  0  0  0  0  0  0  0  0  0  0
   -5.9200   21.7610  -31.8220 C   0  0  0  0  0  0  0  0  0  0  0  0
   -3.1652   22.5642  -30.4204 H   0  0  0  0  0  0  0  0  0  0  0  0
   -3.2700   21.6710  -31.9753 H   0  0  0  0  0  0  0  0  0  0  0  0
   -3.1536   23.4635  -31.9753 H   0  0  0  0  0  0  0  0  0  0  0  0
   -3.5430   26.0460  -31.2210 H   0  0  0  0  0  0  0  0  0  0  0  0
   -7.9629   24.1073  -30.7578 H   0  0  0  0  0  0  0  0  0  0  0  0
   -9.3320   21.8288  -31.7893 H   0  0  0  0  0  0  0  0  0  0  0  0
   -8.9637   19.5653  -32.8214 H   0  0  0  0  0  0  0  0  0  0  0  0
   -4.8175   18.7109  -34.7382 H   0  0  0  0  0  0  0  0  0  0  0  0
   -5.1574   16.0808  -35.2563 H   0  0  0  0  0  0  0  0  0  0  0  0
   -7.2189   15.2725  -33.7590 H   0  0  0  0  0  0  0  0  0  0  0  0
   -4.6506   20.1525  -32.5644 H   0  0  0  0  0  0  0  0  0  0  0  0
  1  2  1  0
  2  3  1  0
  3  4  1  0
  4  5  1  0
  4  6  2  0
  3  7  2  0
  7  8  1  0
  8  9  2  0
  9 10  1  0
 10 11  2  0
 11 12  1  0
 12 13  2  0
 13 14  1  0
 14 15  2  0
 15 16  1  0
 11 17  1  0
 17 18  2  0
 18  2  1  0
 18  8  1  0
 16 12  1  0
  1 19  1  0
  1 20  1  0
  1 21  1  0
  5 22  1  0
  7 23  1  0
  9 24  1  0
 10 25  1  0
 13 26  1  0
 14 27  1  0
 15 28  1  0
 17 29  1  0
M  CHG  1   5  -1
M  END
>  <UniqueID>  (29) 
29

>  <SMILES>  (29) 
Cn1c(C([NH-])=O)cc2ccc(-c3ccco3)cc21

>  <Energy>  (29) 
93.43615062720541

>  <Genealogy>  (29) 
Cn1c(C([NH-])=O)cc2ccc(-c3ccco3)cc21 (protonated)
Cn1c(C([NH-])=O)cc2ccc(-c3ccco3)cc21 (3D coordinates assigned)
Cn1c(C([NH-])=O)cc2ccc(-c3ccco3)cc21 (optimized conformer: 93.43615062720541 kcal/mol)

>  <smiles>  (29) 
Cn1c(C(N)=O)cc2ccc(-c3ccco3)cc21

>  <score_type>  (29) 
oracle

>  <origin>  (29) 
adg

>  <m_score__min__energy>  (29) 
-10.210000000000001

>  <m_primary>  (29) 
energy

$$$$
29:0
     RDKit          3D

 35 37  0  0  0  0  0  0  0  0999 V2000
   -4.2450   25.6570  -30.6370 N   0  0  0  0  0  0  0  0  0  0  0  0
   -3.9060   24.5670  -29.7840 C   0  0  0  0  0  0  0  0  0  0  0  0
   -4.4650   24.4630  -28.6600 O   0  0  0  0  0  0  0  0  0  0  0  0
   -2.9250   23.6010  -30.1980 N   0  0  0  0  0  0  0  0  0  0  0  0
   -1.6590   23.4440  -29.7180 C   0  0  0  0  0  0  0  0  0  0  0  0
   -0.9700   24.3550  -28.7820 C   0  0  0  0  0  0  0  0  0  0  0  0
   -1.6790   25.3890  -28.0990 N   0  0  0  0  0  0  0  0  0  0  0  0
    0.2770   24.2550  -28.6280 O   0  0  0  0  0  0  0  0  0  0  0  0
   -1.0560   22.3200  -30.2750 C   0  0  0  0  0  0  0  0  0  0  0  0
   -1.9930   21.7930  -31.1340 C   0  0  0  0  0  0  0  0  0  0  0  0
   -1.9310   20.6610  -31.9390 C   0  0  0  0  0  0  0  0  0  0  0  0
   -3.0640   20.3300  -32.6990 C   0  0  0  0  0  0  0  0  0  0  0  0
   -4.2330   21.1270  -32.6430 C   0  0  0  0  0  0  0  0  0  0  0  0
   -5.3820   20.7430  -33.4210 N   0  0  0  0  0  0  0  0  0  0  0  0
   -6.4950   20.0080  -32.8910 C   0  0  0  0  0  0  0  0  0  0  0  0
   -6.5720   18.6270  -33.1260 C   0  0  0  0  0  0  0  0  0  0  0  0
   -7.6420   17.8840  -32.6210 C   0  0  0  0  0  0  0  0  0  0  0  0
   -8.6510   18.5160  -31.8920 C   0  0  0  0  0  0  0  0  0  0  0  0
   -8.5980   19.8960  -31.6760 C   0  0  0  0  0  0  0  0  0  0  0  0
   -7.5290   20.6490  -32.1790 C   0  0  0  0  0  0  0  0  0  0  0  0
   -7.5510   22.3940  -31.9540 Cl  0  0  0  0  0  0  0  0  0  0  0  0
   -4.2650   22.2620  -31.7980 C   0  0  0  0  0  0  0  0  0  0  0  0
   -3.1130   22.5820  -31.0680 C   0  0  0  0  0  0  0  0  0  0  0  0
   -3.8400   25.7350  -31.5960 H   0  0  0  0  0  0  0  0  0  0  0  0
   -2.6740   25.6030  -28.3300 H   0  0  0  0  0  0  0  0  0  0  0  0
   -1.1820   26.0000  -27.4140 H   0  0  0  0  0  0  0  0  0  0  0  0
   -0.0458   21.9350  -30.0719 H   0  0  0  0  0  0  0  0  0  0  0  0
   -1.0216   20.0434  -31.9791 H   0  0  0  0  0  0  0  0  0  0  0  0
   -3.0434   19.4406  -33.3459 H   0  0  0  0  0  0  0  0  0  0  0  0
   -5.3560   20.9040  -34.4540 H   0  0  0  0  0  0  0  0  0  0  0  0
   -5.7860   18.1267  -33.7108 H   0  0  0  0  0  0  0  0  0  0  0  0
   -7.6895   16.7994  -32.7981 H   0  0  0  0  0  0  0  0  0  0  0  0
   -9.4879   17.9279  -31.4875 H   0  0  0  0  0  0  0  0  0  0  0  0
   -9.3989   20.3928  -31.1088 H   0  0  0  0  0  0  0  0  0  0  0  0
   -5.1727   22.8780  -31.7165 H   0  0  0  0  0  0  0  0  0  0  0  0
  1  2  1  0
  2  3  2  0
  2  4  1  0
  4  5  1  0
  5  6  1  0
  6  7  1  0
  6  8  2  0
  5  9  2  0
  9 10  1  0
 10 11  2  0
 11 12  1  0
 12 13  2  0
 13 14  1  0
 14 15  1  0
 15 16  2  0
 16 17  1  0
 17 18  2  0
 18 19  1  0
 19 20  2  0
 20 21  1  0
 13 22  1  0
 22 23  2  0
 23  4  1  0
 23 10  1  0
 20 15  1  0
  1 24  1  0
  7 25  1  0
  7 26  1  0
  9 27  1  0
 11 28  1  0
 12 29  1  0
 14 30  1  0
 16 31  1  0
 17 32  1  0
 18 33  1  0
 19 34  1  0
 22 35  1  0
M  CHG  1   1  -1
M  END
>  <UniqueID>  (30) 
30

>  <SMILES>  (30) 
[NH-]C(=O)n1c(C(N)=O)cc2ccc(Nc3ccccc3Cl)cc21

>  <Energy>  (30) 
84.48995358858635

>  <Genealogy>  (30) 
[NH-]C(=O)n1c(C(N)=O)cc2ccc(Nc3ccccc3Cl)cc21 (protonated)
[NH-]C(=O)n1c(C(N)=O)cc2ccc(Nc3ccccc3Cl)cc21 (3D coordinates assigned)
[NH-]C(=O)n1c(C(N)=O)cc2ccc(Nc3ccccc3Cl)cc21 (optimized conformer: 84.48995358858635 kcal/mol)

>  <smiles>  (30) 
NC(=O)c1cc2ccc(Nc3ccccc3Cl)cc2n1C(N)=O

>  <score_type>  (30) 
oracle

>  <origin>  (30) 
adg

>  <m_score__min__energy>  (30) 
-10.1

>  <m_primary>  (30) 
energy

$$$$
30:0
     RDKit          3D

 34 35  0  0  0  0  0  0  0  0999 V2000
   -9.0380   21.1270  -31.4730 C   0  0  0  0  0  0  0  0  0  0  0  0
   -8.7320   19.6380  -31.5920 C   0  0  0  0  0  0  0  0  0  0  0  0
   -7.3340   19.4240  -31.7730 O   0  0  0  0  0  0  0  0  0  0  0  0
   -6.6080   19.9450  -32.8510 C   0  0  0  0  0  0  0  0  0  0  0  0
   -7.2090   20.4040  -33.8610 O   0  0  0  0  0  0  0  0  0  0  0  0
   -5.1720   19.9620  -32.8030 N   0  0  0  0  0  0  0  0  0  0  0  0
   -4.3100   19.2300  -33.5650 C   0  0  0  0  0  0  0  0  0  0  0  0
   -4.6830   18.1440  -34.4920 C   0  0  0  0  0  0  0  0  0  0  0  0
   -5.8230   18.2570  -35.3440 N   0  0  0  0  0  0  0  0  0  0  0  0
   -4.0160   17.0740  -34.4910 O   0  0  0  0  0  0  0  0  0  0  0  0
   -2.9930   19.6100  -33.3180 C   0  0  0  0  0  0  0  0  0  0  0  0
   -3.0730   20.5960  -32.3620 C   0  0  0  0  0  0  0  0  0  0  0  0
   -2.0630   21.3430  -31.7630 C   0  0  0  0  0  0  0  0  0  0  0  0
   -2.4360   22.3290  -30.8350 C   0  0  0  0  0  0  0  0  0  0  0  0
   -3.8000   22.5510  -30.5250 C   0  0  0  0  0  0  0  0  0  0  0  0
   -4.1890   23.6420  -29.5670 C   0  0  0  0  0  0  0  0  0  0  0  0
   -3.5190   24.9230  -29.9490 C   0  0  0  0  0  0  0  0  0  0  0  0
   -4.0040   25.6450  -30.8590 O   0  0  0  0  0  0  0  0  0  0  0  0
   -2.3320   25.2960  -29.3330 O   0  0  0  0  0  0  0  0  0  0  0  0
   -4.7990   21.7820  -31.1640 C   0  0  0  0  0  0  0  0  0  0  0  0
   -4.3980   20.7910  -32.0680 C   0  0  0  0  0  0  0  0  0  0  0  0
   -9.0953   21.4058  -30.4105 H   0  0  0  0  0  0  0  0  0  0  0  0
   -8.2400   21.7055  -31.9613 H   0  0  0  0  0  0  0  0  0  0  0  0
   -9.9995   21.3439  -31.9613 H   0  0  0  0  0  0  0  0  0  0  0  0
   -9.0597   19.1275  -30.6744 H   0  0  0  0  0  0  0  0  0  0  0  0
   -9.2674   19.2354  -32.4645 H   0  0  0  0  0  0  0  0  0  0  0  0
   -6.0470   17.4950  -36.0230 H   0  0  0  0  0  0  0  0  0  0  0  0
   -6.4930   19.0500  -35.2460 H   0  0  0  0  0  0  0  0  0  0  0  0
   -2.0831   19.2076  -33.7872 H   0  0  0  0  0  0  0  0  0  0  0  0
   -1.0054   21.1666  -32.0088 H   0  0  0  0  0  0  0  0  0  0  0  0
   -1.6606   22.9352  -30.3438 H   0  0  0  0  0  0  0  0  0  0  0  0
   -5.2800   23.7793  -29.5953 H   0  0  0  0  0  0  0  0  0  0  0  0
   -3.8740   23.3593  -28.5517 H   0  0  0  0  0  0  0  0  0  0  0  0
   -5.8648   21.9577  -30.9563 H   0  0  0  0  0  0  0  0  0  0  0  0
  1  2  1  0
  2  3  1  0
  3  4  1  0
  4  5  2  0
  4  6  1  0
  6  7  1  0
  7  8  1  0
  8  9  1  0
  8 10  2  0
  7 11  2  0
 11 12  1  0
 12 13  2  0
 13 14  1  0
 14 15  2  0
 15 16  1  0
 16 17  1  0
 17 18  2  0
 17 19  1  0
 15 20  1  0
 20 21  2  0
 21  6  1  0
 21 12  1  0
  1 22  1  0
  1 23  1  0
  1 24  1  0
  2 25  1  0
  2 26  1  0
  9 27  1  0
  9 28  1  0
 11 29  1  0
 13 30  1  0
 14 31  1  0
 16 32  1  0
 16 33  1  0
 20 34  1  0
M  CHG  1  19  -1
M  END
>  <UniqueID>  (31) 
31

>  <SMILES>  (31) 
CCOC(=O)n1c(C(N)=O)cc2ccc(CC(=O)[O-])cc21

>  <Energy>  (31) 
67.78511588177744

>  <Genealogy>  (31) 
CCOC(=O)n1c(C(N)=O)cc2ccc(CC(=O)[O-])cc21 (protonated)
CCOC(=O)n1c(C(N)=O)cc2ccc(CC(=O)[O-])cc21 (3D coordinates assigned)
CCOC(=O)n1c(C(N)=O)cc2ccc(CC(=O)[O-])cc21 (optimized conformer: 67.78511588177744 kcal/mol)

>  <smiles>  (31) 
CCOC(=O)n1c(C(N)=O)cc2ccc(CC(=O)O)cc21

>  <score_type>  (31) 
oracle

>  <origin>  (31) 
adg

>  <m_score__min__energy>  (31) 
-9.1799999999999997

>  <m_primary>  (31) 
energy

$$$$
31:0
     RDKit          3D

 48 49  0  0  0  0  0  0  0  0999 V2000
   -6.6360   23.7310  -30.2370 C   0  0  0  0  0  0  0  0  0  0  0  0
   -5.9760   24.6720  -31.2410 C   0  0  0  0  0  0  0  0  0  0  0  0
   -4.6160   24.9200  -30.8830 O   0  0  0  0  0  0  0  0  0  0  0  0
   -3.9630   24.2700  -29.8280 C   0  0  0  0  0  0  0  0  0  0  0  0
   -4.2900   24.5030  -28.6300 O   0  0  0  0  0  0  0  0  0  0  0  0
   -2.9060   23.3420  -30.1090 N   0  0  0  0  0  0  0  0  0  0  0  0
   -1.6000   23.4260  -29.7280 C   0  0  0  0  0  0  0  0  0  0  0  0
   -0.9680   24.5650  -29.0300 C   0  0  0  0  0  0  0  0  0  0  0  0
   -1.6140   25.8340  -28.9620 N   0  0  0  0  0  0  0  0  0  0  0  0
    0.1820   24.4300  -28.5260 O   0  0  0  0  0  0  0  0  0  0  0  0
   -0.8960   22.3050  -30.1620 C   0  0  0  0  0  0  0  0  0  0  0  0
   -1.8210   21.5310  -30.8270 C   0  0  0  0  0  0  0  0  0  0  0  0
   -1.6660   20.3110  -31.4670 C   0  0  0  0  0  0  0  0  0  0  0  0
   -2.7990   19.7220  -32.0500 C   0  0  0  0  0  0  0  0  0  0  0  0
   -4.0810   20.3380  -31.9720 C   0  0  0  0  0  0  0  0  0  0  0  0
   -5.2980   19.6410  -32.6150 C   0  0  2  0  0  0  0  0  0  0  0  0
   -5.8990   20.4360  -33.8050 C   0  0  0  0  0  0  0  0  0  0  0  0
   -6.4350   19.3580  -31.5600 C   0  0  0  0  0  0  0  0  0  0  0  0
   -7.9270   19.6620  -31.9000 C   0  0  0  0  0  0  0  0  0  0  0  0
   -8.4410   20.9870  -31.3110 C   0  0  0  0  0  0  0  0  0  0  0  0
   -8.9020   18.5130  -31.6170 C   0  0  0  0  0  0  0  0  0  0  0  0
   -4.8020   18.3050  -33.1580 C   0  0  0  0  0  0  0  0  0  0  0  0
   -4.3080   18.2280  -34.3170 O   0  0  0  0  0  0  0  0  0  0  0  0
   -4.9760   17.1290  -32.4290 O   0  0  0  0  0  0  0  0  0  0  0  0
   -4.1740   21.6090  -31.3350 C   0  0  0  0  0  0  0  0  0  0  0  0
   -3.0230   22.1760  -30.7800 C   0  0  0  0  0  0  0  0  0  0  0  0
   -6.4028   24.0635  -29.2147 H   0  0  0  0  0  0  0  0  0  0  0  0
   -7.7258   23.7414  -30.3863 H   0  0  0  0  0  0  0  0  0  0  0  0
   -6.2551   22.7099  -30.3863 H   0  0  0  0  0  0  0  0  0  0  0  0
   -6.0083   24.2137  -32.2404 H   0  0  0  0  0  0  0  0  0  0  0  0
   -6.5212   25.6274  -31.2410 H   0  0  0  0  0  0  0  0  0  0  0  0
   -2.6550   25.9030  -28.9320 H   0  0  0  0  0  0  0  0  0  0  0  0
    0.1705   22.0850  -30.0068 H   0  0  0  0  0  0  0  0  0  0  0  0
   -0.6835   19.8188  -31.5165 H   0  0  0  0  0  0  0  0  0  0  0  0
   -2.6945   18.7632  -32.5790 H   0  0  0  0  0  0  0  0  0  0  0  0
   -6.5204   21.2580  -33.4202 H   0  0  0  0  0  0  0  0  0  0  0  0
   -5.0848   20.8483  -34.4190 H   0  0  0  0  0  0  0  0  0  0  0  0
   -6.5177   19.7651  -34.4190 H   0  0  0  0  0  0  0  0  0  0  0  0
   -6.3795   18.2865  -31.3173 H   0  0  0  0  0  0  0  0  0  0  0  0
   -6.2130   20.0787  -30.7592 H   0  0  0  0  0  0  0  0  0  0  0  0
   -7.9079   19.7775  -32.9937 H   0  0  0  0  0  0  0  0  0  0  0  0
   -8.4199   20.9326  -30.2125 H   0  0  0  0  0  0  0  0  0  0  0  0
   -7.7980   21.8127  -31.6497 H   0  0  0  0  0  0  0  0  0  0  0  0
   -9.4727   21.1631  -31.6497 H   0  0  0  0  0  0  0  0  0  0  0  0
   -9.0113   18.3842  -30.5301 H   0  0  0  0  0  0  0  0  0  0  0  0
   -9.8819   18.7464  -32.0590 H   0  0  0  0  0  0  0  0  0  0  0  0
   -8.5123   17.5841  -32.0590 H   0  0  0  0  0  0  0  0  0  0  0  0
   -5.1377   22.1366  -31.2807 H   0  0  0  0  0  0  0  0  0  0  0  0
  1  2  1  0
  2  3  1  0
  3  4  1  0
  4  5  2  0
  4  6  1  0
  6  7  1  0
  7  8  1  0
  8  9  1  0
  8 10  2  0
  7 11  2  0
 11 12  1  0
 12 13  2  0
 13 14  1  0
 14 15  2  0
 15 16  1  0
 16 17  1  6
 16 18  1  0
 18 19  1  0
 19 20  1  0
 19 21  1  0
 16 22  1  0
 22 23  2  0
 22 24  1  0
 15 25  1  0
 25 26  2  0
 26  6  1  0
 26 12  1  0
  1 27  1  0
  1 28  1  0
  1 29  1  0
  2 30  1  0
  2 31  1  0
  9 32  1  0
 11 33  1  0
 13 34  1  0
 14 35  1  0
 17 36  1  0
 17 37  1  0
 17 38  1  0
 18 39  1  0
 18 40  1  0
 19 41  1  0
 20 42  1  0
 20 43  1  0
 20 44  1  0
 21 45  1  0
 21 46  1  0
 21 47  1  0
 25 48  1  0
M  CHG  2   9  -1  24  -1
M  END
>  <UniqueID>  (32) 
32

>  <SMILES>  (32) 
CCOC(=O)n1c(C([NH-])=O)cc2ccc([C@](C)(CC(C)C)C(=O)[O-])cc21

>  <Energy>  (32) 
92.26031793135404

>  <Genealogy>  (32) 
CCOC(=O)n1c(C([NH-])=O)cc2ccc(C(C)(CC(C)C)C(=O)[O-])cc21 (protonated)
CCOC(=O)n1c(C([NH-])=O)cc2ccc([C@](C)(CC(C)C)C(=O)[O-])cc21 (chirality)
CCOC(=O)n1c(C([NH-])=O)cc2ccc([C@](C)(CC(C)C)C(=O)[O-])cc21 (3D coordinates assigned)
CCOC(=O)n1c(C([NH-])=O)cc2ccc([C@](C)(CC(C)C)C(=O)[O-])cc21 (optimized conformer: 92.26031793135404 kcal/mol)

>  <smiles>  (32) 
CCOC(=O)n1c(C(N)=O)cc2ccc(C(C)(CC(C)C)C(=O)O)cc21

>  <score_type>  (32) 
oracle

>  <origin>  (32) 
adg

>  <m_score__min__energy>  (32) 
-10.74

>  <m_primary>  (32) 
energy

$$$$
32:0
     RDKit          3D

 38 40  0  0  0  0  0  0  0  0999 V2000
   -7.9520   18.8780  -32.6790 C   0  0  0  0  0  0  0  0  0  0  0  0
   -7.8410   20.2690  -32.1310 C   0  0  0  0  0  0  0  0  0  0  0  0
   -9.0020   20.9620  -31.7090 C   0  0  0  0  0  0  0  0  0  0  0  0
   -8.9120   22.2750  -31.2130 C   0  0  0  0  0  0  0  0  0  0  0  0
   -7.6540   22.8710  -31.1720 C   0  0  0  0  0  0  0  0  0  0  0  0
   -7.2750   24.1130  -30.7150 C   0  0  0  0  0  0  0  0  0  0  0  0
   -5.8940   24.1690  -30.9020 C   0  0  0  0  0  0  0  0  0  0  0  0
   -5.0750   25.3620  -30.5960 C   0  0  0  0  0  0  0  0  0  0  0  0
   -3.6580   25.2700  -30.4790 N   0  0  0  0  0  0  0  0  0  0  0  0
   -5.6320   26.4860  -30.4700 O   0  0  0  0  0  0  0  0  0  0  0  0
   -5.4410   23.0090  -31.4520 N   0  0  0  0  0  0  0  0  0  0  0  0
   -4.0840   22.6340  -31.7310 C   0  0  0  0  0  0  0  0  0  0  0  0
   -3.2350   22.6180  -30.7990 O   0  0  0  0  0  0  0  0  0  0  0  0
   -3.7030   22.2590  -33.0610 N   0  0  0  0  0  0  0  0  0  0  0  0
   -2.4650   21.5400  -33.3490 C   0  0  0  0  0  0  0  0  0  0  0  0
   -2.7650   20.0870  -33.5920 C   0  0  0  0  0  0  0  0  0  0  0  0
   -1.7230   19.1960  -33.8920 C   0  0  0  0  0  0  0  0  0  0  0  0
   -2.0200   17.8610  -34.1730 C   0  0  0  0  0  0  0  0  0  0  0  0
   -3.3100   17.4310  -34.1580 N   0  0  0  0  0  0  0  0  0  0  0  0
   -4.3390   18.2740  -33.8740 C   0  0  0  0  0  0  0  0  0  0  0  0
   -4.0860   19.6180  -33.5930 C   0  0  0  0  0  0  0  0  0  0  0  0
   -6.5280   22.2250  -31.6100 C   0  0  0  0  0  0  0  0  0  0  0  0
   -6.5850   20.9120  -32.0900 C   0  0  0  0  0  0  0  0  0  0  0  0
   -8.0093   18.1599  -31.8477 H   0  0  0  0  0  0  0  0  0  0  0  0
   -8.8594   18.7982  -33.2957 H   0  0  0  0  0  0  0  0  0  0  0  0
   -7.0688   18.6553  -33.2957 H   0  0  0  0  0  0  0  0  0  0  0  0
   -9.9833   20.4686  -31.7698 H   0  0  0  0  0  0  0  0  0  0  0  0
   -9.8068   22.8140  -30.8684 H   0  0  0  0  0  0  0  0  0  0  0  0
   -7.9233   24.8948  -30.2924 H   0  0  0  0  0  0  0  0  0  0  0  0
   -3.0940   24.7450  -31.1830 H   0  0  0  0  0  0  0  0  0  0  0  0
   -4.3730   22.4320  -33.8440 H   0  0  0  0  0  0  0  0  0  0  0  0
   -1.9927   21.9701  -34.2445 H   0  0  0  0  0  0  0  0  0  0  0  0
   -1.7835   21.6316  -32.4904 H   0  0  0  0  0  0  0  0  0  0  0  0
   -0.6805   19.5467  -33.9056 H   0  0  0  0  0  0  0  0  0  0  0  0
   -1.2089   17.1557  -34.4070 H   0  0  0  0  0  0  0  0  0  0  0  0
   -5.3721   17.8963  -33.8657 H   0  0  0  0  0  0  0  0  0  0  0  0
   -4.9175   20.3041  -33.3739 H   0  0  0  0  0  0  0  0  0  0  0  0
   -5.6747   20.3942  -32.4267 H   0  0  0  0  0  0  0  0  0  0  0  0
  1  2  1  0
  2  3  2  0
  3  4  1  0
  4  5  2  0
  5  6  1  0
  6  7  2  0
  7  8  1  0
  8  9  1  0
  8 10  2  0
  7 11  1  0
 11 12  1  0
 12 13  2  0
 12 14  1  0
 14 15  1  0
 15 16  1  0
 16 17  2  0
 17 18  1  0
 18 19  2  0
 19 20  1  0
 20 21  2  0
 11 22  1  0
 22 23  2  0
 23  2  1  0
 22  5  1  0
 21 16  1  0
  1 24  1  0
  1 25  1  0
  1 26  1  0
  3 27  1  0
  4 28  1  0
  6 29  1  0
  9 30  1  0
 14 31  1  0
 15 32  1  0
 15 33  1  0
 17 34  1  0
 18 35  1  0
 20 36  1  0
 21 37  1  0
 23 38  1  0
M  CHG  1   9  -1
M  END
>  <UniqueID>  (33) 
33

>  <SMILES>  (33) 
Cc1ccc2cc(C([NH-])=O)n(C(=O)NCc3ccncc3)c2c1

>  <Energy>  (33) 
76.53830784193926

>  <Genealogy>  (33) 
Cc1ccc2cc(C([NH-])=O)n(C(=O)NCc3ccncc3)c2c1 (protonated)
Cc1ccc2cc(C([NH-])=O)n(C(=O)NCc3ccncc3)c2c1 (3D coordinates assigned)
Cc1ccc2cc(C([NH-])=O)n(C(=O)NCc3ccncc3)c2c1 (optimized conformer: 76.53830784193926 kcal/mol)

>  <smiles>  (33) 
Cc1ccc2cc(C(N)=O)n(C(=O)NCc3ccncc3)c2c1

>  <score_type>  (33) 
oracle

>  <origin>  (33) 
adg

>  <m_score__min__energy>  (33) 
-11.07

>  <m_primary>  (33) 
energy

$$$$
33:0
     RDKit          3D

 45 47  0  0  0  0  0  0  0  0999 V2000
   -2.1680   18.6540  -33.5110 C   0  0  0  0  0  0  0  0  0  0  0  0
   -3.4890   18.9390  -32.9700 N   0  0  0  0  0  0  0  0  0  0  0  0
   -4.2030   20.1430  -33.2660 C   0  0  0  0  0  0  0  0  0  0  0  0
   -3.6170   21.0950  -33.8470 O   0  0  0  0  0  0  0  0  0  0  0  0
   -5.5910   20.2600  -32.9100 N   0  0  0  0  0  0  0  0  0  0  0  0
   -6.5810   19.3460  -33.1190 C   0  0  0  0  0  0  0  0  0  0  0  0
   -6.3950   17.9600  -33.5940 C   0  0  0  0  0  0  0  0  0  0  0  0
   -5.3280   17.6170  -34.4800 N   0  0  0  0  0  0  0  0  0  0  0  0
   -7.1580   17.0520  -33.1670 O   0  0  0  0  0  0  0  0  0  0  0  0
   -7.8200   19.8740  -32.7650 C   0  0  0  0  0  0  0  0  0  0  0  0
   -7.5570   21.1470  -32.3120 C   0  0  0  0  0  0  0  0  0  0  0  0
   -8.4280   22.1300  -31.8500 C   0  0  0  0  0  0  0  0  0  0  0  0
   -7.8840   23.3710  -31.4790 C   0  0  0  0  0  0  0  0  0  0  0  0
   -6.4890   23.6050  -31.5770 C   0  0  0  0  0  0  0  0  0  0  0  0
   -5.9270   24.9500  -31.2110 C   0  0  0  0  0  0  0  0  0  0  0  0
   -4.8890   24.8000  -30.1330 C   0  0  0  0  0  0  0  0  0  0  0  0
   -5.2500   24.4490  -28.9790 O   0  0  0  0  0  0  0  0  0  0  0  0
   -3.4890   24.9490  -30.4040 N   0  0  0  0  0  0  0  0  0  0  0  0
   -2.4140   24.4260  -29.6090 C   0  0  0  0  0  0  0  0  0  0  0  0
   -1.8310   25.2010  -28.5900 C   0  0  0  0  0  0  0  0  0  0  0  0
   -0.8020   24.6760  -27.8040 C   0  0  0  0  0  0  0  0  0  0  0  0
   -0.3570   23.3700  -28.0150 C   0  0  0  0  0  0  0  0  0  0  0  0
   -0.9450   22.5810  -29.0070 C   0  0  0  0  0  0  0  0  0  0  0  0
   -1.9830   23.0970  -29.8030 C   0  0  0  0  0  0  0  0  0  0  0  0
   -2.5960   22.2460  -30.8810 C   0  0  0  0  0  0  0  0  0  0  0  0
   -5.6380   22.5890  -32.0670 C   0  0  0  0  0  0  0  0  0  0  0  0
   -6.2040   21.3560  -32.4100 C   0  0  0  0  0  0  0  0  0  0  0  0
   -1.4585   18.5009  -32.6845 H   0  0  0  0  0  0  0  0  0  0  0  0
   -2.2130   17.7449  -34.1287 H   0  0  0  0  0  0  0  0  0  0  0  0
   -1.8342   19.5008  -34.1287 H   0  0  0  0  0  0  0  0  0  0  0  0
   -4.5830   18.3060  -34.7200 H   0  0  0  0  0  0  0  0  0  0  0  0
   -5.2310   16.6360  -34.8280 H   0  0  0  0  0  0  0  0  0  0  0  0
   -8.8001   19.3792  -32.8329 H   0  0  0  0  0  0  0  0  0  0  0  0
   -9.5092   21.9407  -31.7777 H   0  0  0  0  0  0  0  0  0  0  0  0
   -8.5460   24.1680  -31.1093 H   0  0  0  0  0  0  0  0  0  0  0  0
   -5.4656   25.4056  -32.0996 H   0  0  0  0  0  0  0  0  0  0  0  0
   -6.7403   25.5917  -30.8411 H   0  0  0  0  0  0  0  0  0  0  0  0
   -2.1873   26.2262  -28.4110 H   0  0  0  0  0  0  0  0  0  0  0  0
   -0.3420   25.2928  -27.0179 H   0  0  0  0  0  0  0  0  0  0  0  0
    0.4578   22.9613  -27.3994 H   0  0  0  0  0  0  0  0  0  0  0  0
   -0.5940   21.5507  -29.1661 H   0  0  0  0  0  0  0  0  0  0  0  0
   -3.1799   21.4354  -30.4206 H   0  0  0  0  0  0  0  0  0  0  0  0
   -3.2570   22.8651  -31.5054 H   0  0  0  0  0  0  0  0  0  0  0  0
   -1.7995   21.8152  -31.5054 H   0  0  0  0  0  0  0  0  0  0  0  0
   -4.5573   22.7630  -32.1761 H   0  0  0  0  0  0  0  0  0  0  0  0
  1  2  1  0
  2  3  1  0
  3  4  2  0
  3  5  1  0
  5  6  1  0
  6  7  1  0
  7  8  1  0
  7  9  2  0
  6 10  2  0
 10 11  1  0
 11 12  2  0
 12 13  1  0
 13 14  2  0
 14 15  1  0
 15 16  1  0
 16 17  2  0
 16 18  1  0
 18 19  1  0
 19 20  2  0
 20 21  1  0
 21 22  2  0
 22 23  1  0
 23 24  2  0
 24 25  1  0
 14 26  1  0
 26 27  2  0
 27  5  1  0
 27 11  1  0
 24 19  1  0
  1 28  1  0
  1 29  1  0
  1 30  1  0
  8 31  1  0
  8 32  1  0
 10 33  1  0
 12 34  1  0
 13 35  1  0
 15 36  1  0
 15 37  1  0
 20 38  1  0
 21 39  1  0
 22 40  1  0
 23 41  1  0
 25 42  1  0
 25 43  1  0
 25 44  1  0
 26 45  1  0
M  CHG  2   2  -1  18  -1
M  END
>  <UniqueID>  (34) 
34

>  <SMILES>  (34) 
C[N-]C(=O)n1c(C(N)=O)cc2ccc(CC(=O)[N-]c3ccccc3C)cc21

>  <Energy>  (34) 
88.24467045705626

>  <Genealogy>  (34) 
C[N-]C(=O)n1c(C(N)=O)cc2ccc(CC(=O)[N-]c3ccccc3C)cc21 (protonated)
C[N-]C(=O)n1c(C(N)=O)cc2ccc(CC(=O)[N-]c3ccccc3C)cc21 (3D coordinates assigned)
C[N-]C(=O)n1c(C(N)=O)cc2ccc(CC(=O)[N-]c3ccccc3C)cc21 (optimized conformer: 88.24467045705626 kcal/mol)

>  <smiles>  (34) 
CNC(=O)n1c(C(N)=O)cc2ccc(CC(=O)Nc3ccccc3C)cc21

>  <score_type>  (34) 
oracle

>  <origin>  (34) 
adg

>  <m_score__min__energy>  (34) 
-10.130000000000001

>  <m_primary>  (34) 
energy

$$$$
34:0
     RDKit          3D

 41 43  0  0  0  0  0  0  0  0999 V2000
   -7.1270   23.6650  -31.3050 C   0  0  0  0  0  0  0  0  0  0  0  0
   -6.7140   24.2430  -29.9560 C   0  0  0  0  0  0  0  0  0  0  0  0
   -5.3920   23.8340  -29.6160 O   0  0  0  0  0  0  0  0  0  0  0  0
   -4.2590   24.1930  -30.3570 C   0  0  0  0  0  0  0  0  0  0  0  0
   -4.1570   25.3520  -30.8450 O   0  0  0  0  0  0  0  0  0  0  0  0
   -3.2230   23.2250  -30.5860 N   0  0  0  0  0  0  0  0  0  0  0  0
   -1.9480   23.2310  -30.1030 C   0  0  0  0  0  0  0  0  0  0  0  0
   -1.4000   24.1790  -29.1110 C   0  0  0  0  0  0  0  0  0  0  0  0
   -1.9800   25.4740  -28.9720 N   0  0  0  0  0  0  0  0  0  0  0  0
   -0.4020   23.8730  -28.4070 O   0  0  0  0  0  0  0  0  0  0  0  0
   -1.2280   22.1520  -30.6120 C   0  0  0  0  0  0  0  0  0  0  0  0
   -2.1100   21.4750  -31.4230 C   0  0  0  0  0  0  0  0  0  0  0  0
   -1.9190   20.3320  -32.1950 C   0  0  0  0  0  0  0  0  0  0  0  0
   -2.9990   19.8700  -32.9650 C   0  0  0  0  0  0  0  0  0  0  0  0
   -4.2420   20.5510  -32.9470 C   0  0  0  0  0  0  0  0  0  0  0  0
   -5.3740   20.0770  -33.8160 C   0  0  0  0  0  0  0  0  0  0  0  0
   -6.5550   19.6940  -32.9660 C   0  0  0  0  0  0  0  0  0  0  0  0
   -6.6550   18.3980  -32.4330 C   0  0  0  0  0  0  0  0  0  0  0  0
   -7.7330   18.0550  -31.6120 C   0  0  0  0  0  0  0  0  0  0  0  0
   -8.7140   19.0050  -31.3100 C   0  0  0  0  0  0  0  0  0  0  0  0
   -8.6150   20.2990  -31.8260 C   0  0  0  0  0  0  0  0  0  0  0  0
   -7.5380   20.6460  -32.6480 C   0  0  0  0  0  0  0  0  0  0  0  0
   -4.3950   21.7130  -32.1590 C   0  0  0  0  0  0  0  0  0  0  0  0
   -3.3080   22.1410  -31.3900 C   0  0  0  0  0  0  0  0  0  0  0  0
   -7.7598   22.7794  -31.1462 H   0  0  0  0  0  0  0  0  0  0  0  0
   -7.6903   24.4215  -31.8710 H   0  0  0  0  0  0  0  0  0  0  0  0
   -6.2288   23.3771  -31.8710 H   0  0  0  0  0  0  0  0  0  0  0  0
   -6.7502   25.3412  -30.0074 H   0  0  0  0  0  0  0  0  0  0  0  0
   -7.4074   23.8738  -29.1860 H   0  0  0  0  0  0  0  0  0  0  0  0
   -2.9390   25.6750  -29.3350 H   0  0  0  0  0  0  0  0  0  0  0  0
   -0.1777   21.8958  -30.4088 H   0  0  0  0  0  0  0  0  0  0  0  0
   -0.9523   19.8072  -32.2016 H   0  0  0  0  0  0  0  0  0  0  0  0
   -2.8791   18.9713  -33.5878 H   0  0  0  0  0  0  0  0  0  0  0  0
   -5.6673   20.8842  -34.5033 H   0  0  0  0  0  0  0  0  0  0  0  0
   -5.0435   19.1981  -34.3890 H   0  0  0  0  0  0  0  0  0  0  0  0
   -5.8818   17.6501  -32.6627 H   0  0  0  0  0  0  0  0  0  0  0  0
   -7.8099   17.0368  -31.2030 H   0  0  0  0  0  0  0  0  0  0  0  0
   -9.5634   18.7330  -30.6662 H   0  0  0  0  0  0  0  0  0  0  0  0
   -9.3853   21.0465  -31.5855 H   0  0  0  0  0  0  0  0  0  0  0  0
   -7.4603   21.6681  -33.0470 H   0  0  0  0  0  0  0  0  0  0  0  0
   -5.3450   22.2674  -32.1503 H   0  0  0  0  0  0  0  0  0  0  0  0
  1  2  1  0
  2  3  1  0
  3  4  1  0
  4  5  2  0
  4  6  1  0
  6  7  1  0
  7  8  1  0
  8  9  1  0
  8 10  2  0
  7 11  2  0
 11 12  1  0
 12 13  2  0
 13 14  1  0
 14 15  2  0
 15 16  1  0
 16 17  1  0
 17 18  2  0
 18 19  1  0
 19 20  2  0
 20 21  1  0
 21 22  2  0
 15 23  1  0
 23 24  2  0
 24  6  1  0
 24 12  1  0
 22 17  1  0
  1 25  1  0
  1 26  1  0
  1 27  1  0
  2 28  1  0
  2 29  1  0
  9 30  1  0
 11 31  1  0
 13 32  1  0
 14 33  1  0
 16 34  1  0
 16 35  1  0
 18 36  1  0
 19 37  1  0
 20 38  1  0
 21 39  1  0
 22 40  1  0
 23 41  1  0
M  CHG  1   9  -1
M  END
>  <UniqueID>  (35) 
35

>  <SMILES>  (35) 
CCOC(=O)n1c(C([NH-])=O)cc2ccc(Cc3ccccc3)cc21

>  <Energy>  (35) 
76.48403911155458

>  <Genealogy>  (35) 
CCOC(=O)n1c(C([NH-])=O)cc2ccc(Cc3ccccc3)cc21 (protonated)
CCOC(=O)n1c(C([NH-])=O)cc2ccc(Cc3ccccc3)cc21 (3D coordinates assigned)
CCOC(=O)n1c(C([NH-])=O)cc2ccc(Cc3ccccc3)cc21 (optimized conformer: 76.48403911155458 kcal/mol)

>  <smiles>  (35) 
CCOC(=O)n1c(C(N)=O)cc2ccc(Cc3ccccc3)cc21

>  <score_type>  (35) 
oracle

>  <origin>  (35) 
adg

>  <m_score__min__energy>  (35) 
-10.869999999999999

>  <m_primary>  (35) 
energy

$$$$
35:0
     RDKit          3D

 26 27  0  0  0  0  0  0  0  0999 V2000
   -3.7240   25.2180  -30.4610 N   0  0  0  0  0  0  0  0  0  0  0  0
   -5.1150   25.2800  -30.7670 C   0  0  0  0  0  0  0  0  0  0  0  0
   -5.7010   26.3950  -30.7410 O   0  0  0  0  0  0  0  0  0  0  0  0
   -5.8850   24.0550  -31.0680 C   0  0  0  0  0  0  0  0  0  0  0  0
   -7.2420   23.9090  -30.7820 C   0  0  0  0  0  0  0  0  0  0  0  0
   -7.5570   22.6210  -31.1520 C   0  0  0  0  0  0  0  0  0  0  0  0
   -8.7740   21.9480  -31.1040 C   0  0  0  0  0  0  0  0  0  0  0  0
   -8.8160   20.6290  -31.5880 C   0  0  0  0  0  0  0  0  0  0  0  0
   -7.6520   20.0150  -32.1140 C   0  0  0  0  0  0  0  0  0  0  0  0
   -7.7070   18.6120  -32.6490 C   0  0  0  0  0  0  0  0  0  0  0  0
   -8.7100   17.9070  -32.0090 F   0  0  0  0  0  0  0  0  0  0  0  0
   -6.4940   17.9840  -32.4280 F   0  0  0  0  0  0  0  0  0  0  0  0
   -6.4360   20.7320  -32.1500 C   0  0  0  0  0  0  0  0  0  0  0  0
   -6.4180   22.0350  -31.6410 C   0  0  0  0  0  0  0  0  0  0  0  0
   -5.3830   22.9020  -31.5950 N   0  0  0  0  0  0  0  0  0  0  0  0
   -4.0550   22.6660  -32.0890 C   0  0  0  0  0  0  0  0  0  0  0  0
   -3.8470   22.3090  -33.4550 N   0  0  0  0  0  0  0  0  0  0  0  0
   -3.0660   22.7800  -31.3170 O   0  0  0  0  0  0  0  0  0  0  0  0
   -3.0270   24.9350  -31.1860 H   0  0  0  0  0  0  0  0  0  0  0  0
   -7.9175   24.6631  -30.3519 H   0  0  0  0  0  0  0  0  0  0  0  0
   -9.6749   22.4330  -30.7000 H   0  0  0  0  0  0  0  0  0  0  0  0
   -9.7616   20.0678  -31.5582 H   0  0  0  0  0  0  0  0  0  0  0  0
   -7.9144   18.6450  -33.7288 H   0  0  0  0  0  0  0  0  0  0  0  0
   -5.5257   20.2774  -32.5678 H   0  0  0  0  0  0  0  0  0  0  0  0
   -2.8790   22.1660  -33.8220 H   0  0  0  0  0  0  0  0  0  0  0  0
   -4.6580   22.1470  -34.0920 H   0  0  0  0  0  0  0  0  0  0  0  0
  1  2  1  0
  2  3  2  0
  2  4  1  0
  4  5  2  0
  5  6  1  0
  6  7  2  0
  7  8  1  0
  8  9  2  0
  9 10  1  0
 10 11  1  0
 10 12  1  0
  9 13  1  0
 13 14  2  0
 14 15  1  0
 15 16  1  0
 16 17  1  0
 16 18  2  0
 15  4  1  0
 14  6  1  0
  1 19  1  0
  5 20  1  0
  7 21  1  0
  8 22  1  0
 10 23  1  0
 13 24  1  0
 17 25  1  0
 17 26  1  0
M  CHG  1   1  -1
M  END
>  <UniqueID>  (36) 
36

>  <SMILES>  (36) 
[NH-]C(=O)c1cc2ccc(C(F)F)cc2n1C(N)=O

>  <Energy>  (36) 
64.6848789575915

>  <Genealogy>  (36) 
[NH-]C(=O)c1cc2ccc(C(F)F)cc2n1C(N)=O (protonated)
[NH-]C(=O)c1cc2ccc(C(F)F)cc2n1C(N)=O (3D coordinates assigned)
[NH-]C(=O)c1cc2ccc(C(F)F)cc2n1C(N)=O (optimized conformer: 64.6848789575915 kcal/mol)

>  <smiles>  (36) 
NC(=O)c1cc2ccc(C(F)F)cc2n1C(N)=O

>  <score_type>  (36) 
oracle

>  <origin>  (36) 
adg

>  <m_score__min__energy>  (36) 
-9.3100000000000005

>  <m_primary>  (36) 
energy

$$$$
36:0
     RDKit          3D

 65 69  0  0  0  0  0  0  0  0999 V2000
   -1.5660   19.1530  -26.9500 C   0  0  0  0  0  0  0  0  0  0  0  0
   -2.1300   20.1650  -27.9030 C   0  0  0  0  0  0  0  0  0  0  0  0
   -3.1250   21.0570  -27.4810 C   0  0  0  0  0  0  0  0  0  0  0  0
   -3.6770   21.9760  -28.3770 C   0  0  0  0  0  0  0  0  0  0  0  0
   -3.2460   22.0140  -29.7150 C   0  0  0  0  0  0  0  0  0  0  0  0
   -3.8310   22.9930  -30.6610 C   0  0  0  0  0  0  0  0  0  0  0  0
   -3.0760   23.7950  -31.2770 O   0  0  0  0  0  0  0  0  0  0  0  0
   -5.2490   23.0560  -30.8860 N   0  0  0  0  0  0  0  0  0  0  0  0
   -6.0880   24.1070  -30.6690 C   0  0  0  0  0  0  0  0  0  0  0  0
   -5.7210   25.3930  -30.0400 C   0  0  0  0  0  0  0  0  0  0  0  0
   -6.4750   25.9340  -28.9540 N   0  0  0  0  0  0  0  0  0  0  0  0
   -4.7460   26.0470  -30.4970 O   0  0  0  0  0  0  0  0  0  0  0  0
   -7.3750   23.8040  -31.1100 C   0  0  0  0  0  0  0  0  0  0  0  0
   -7.3010   22.5160  -31.5900 C   0  0  0  0  0  0  0  0  0  0  0  0
   -8.2830   21.7130  -32.1580 C   0  0  0  0  0  0  0  0  0  0  0  0
   -7.9160   20.4290  -32.5910 C   0  0  0  0  0  0  0  0  0  0  0  0
   -6.5780   19.9700  -32.4600 C   0  0  0  0  0  0  0  0  0  0  0  0
   -6.2090   18.6510  -32.9190 N   0  0  0  0  0  0  0  0  0  0  0  0
   -5.3820   18.4890  -34.1260 C   0  0  0  0  0  0  0  0  0  0  0  0
   -5.6840   17.1470  -34.8010 C   0  0  0  0  0  0  0  0  0  0  0  0
   -5.4290   15.9220  -33.8590 C   0  0  0  0  0  0  0  0  0  0  0  0
   -6.4270   14.7840  -34.2500 C   0  0  0  0  0  0  0  0  0  0  0  0
   -5.8430   13.3880  -33.9810 C   0  0  0  0  0  0  0  0  0  0  0  0
   -4.6040   13.1280  -34.7600 N   0  0  0  0  0  0  0  0  0  0  0  0
   -4.8830   12.3210  -35.9580 C   0  0  0  0  0  0  0  0  0  0  0  0
   -3.8500   14.3510  -35.1260 C   0  0  0  0  0  0  0  0  0  0  0  0
   -3.9580   15.4230  -34.0350 C   0  0  0  0  0  0  0  0  0  0  0  0
   -5.6450   16.3180  -32.3600 C   0  0  0  0  0  0  0  0  0  0  0  0
   -6.6550   17.4570  -32.1850 C   0  0  0  0  0  0  0  0  0  0  0  0
   -5.6080   20.8220  -31.8780 C   0  0  0  0  0  0  0  0  0  0  0  0
   -6.0080   22.0880  -31.4420 C   0  0  0  0  0  0  0  0  0  0  0  0
   -2.2690   21.0970  -30.1410 C   0  0  0  0  0  0  0  0  0  0  0  0
   -1.7180   20.1780  -29.2430 C   0  0  0  0  0  0  0  0  0  0  0  0
   -1.7489   19.4811  -25.9161 H   0  0  0  0  0  0  0  0  0  0  0  0
   -2.0523   18.1807  -27.1175 H   0  0  0  0  0  0  0  0  0  0  0  0
   -0.4832   19.0551  -27.1175 H   0  0  0  0  0  0  0  0  0  0  0  0
   -3.4736   21.0335  -26.4380 H   0  0  0  0  0  0  0  0  0  0  0  0
   -4.4541   22.6746  -28.0334 H   0  0  0  0  0  0  0  0  0  0  0  0
   -7.3940   25.5250  -28.6750 H   0  0  0  0  0  0  0  0  0  0  0  0
   -6.1590   26.8110  -28.4840 H   0  0  0  0  0  0  0  0  0  0  0  0
   -8.2610   24.4553  -31.0807 H   0  0  0  0  0  0  0  0  0  0  0  0
   -9.3170   22.0728  -32.2651 H   0  0  0  0  0  0  0  0  0  0  0  0
   -8.6746   19.7695  -33.0377 H   0  0  0  0  0  0  0  0  0  0  0  0
   -5.6016   19.3063  -34.8288 H   0  0  0  0  0  0  0  0  0  0  0  0
   -4.3205   18.5143  -33.8386 H   0  0  0  0  0  0  0  0  0  0  0  0
   -6.7397   17.1388  -35.1099 H   0  0  0  0  0  0  0  0  0  0  0  0
   -5.0058   17.0495  -35.6616 H   0  0  0  0  0  0  0  0  0  0  0  0
   -7.3489   14.9026  -33.6618 H   0  0  0  0  0  0  0  0  0  0  0  0
   -6.6295   14.8655  -35.3281 H   0  0  0  0  0  0  0  0  0  0  0  0
   -5.6097   13.3040  -32.9093 H   0  0  0  0  0  0  0  0  0  0  0  0
   -6.5940   12.6467  -34.2915 H   0  0  0  0  0  0  0  0  0  0  0  0
   -5.2285   11.3217  -35.6546 H   0  0  0  0  0  0  0  0  0  0  0  0
   -5.6634   12.8124  -36.5576 H   0  0  0  0  0  0  0  0  0  0  0  0
   -3.9657   12.2255  -36.5576 H   0  0  0  0  0  0  0  0  0  0  0  0
   -2.7909   14.0895  -35.2671 H   0  0  0  0  0  0  0  0  0  0  0  0
   -4.2790   14.7572  -36.0538 H   0  0  0  0  0  0  0  0  0  0  0  0
   -3.6091   14.9984  -33.0821 H   0  0  0  0  0  0  0  0  0  0  0  0
   -3.3381   16.2810  -34.3344 H   0  0  0  0  0  0  0  0  0  0  0  0
   -6.0113   15.4366  -31.8132 H   0  0  0  0  0  0  0  0  0  0  0  0
   -4.6791   16.6696  -31.9684 H   0  0  0  0  0  0  0  0  0  0  0  0
   -7.6336   17.1372  -32.5725 H   0  0  0  0  0  0  0  0  0  0  0  0
   -6.7356   17.7031  -31.1159 H   0  0  0  0  0  0  0  0  0  0  0  0
   -4.5633   20.4946  -31.7715 H   0  0  0  0  0  0  0  0  0  0  0  0
   -1.9355   21.1027  -31.1892 H   0  0  0  0  0  0  0  0  0  0  0  0
   -0.9580   19.4621  -29.5893 H   0  0  0  0  0  0  0  0  0  0  0  0
  1  2  1  0
  2  3  2  0
  3  4  1  0
  4  5  2  0
  5  6  1  0
  6  7  2  0
  6  8  1  0
  8  9  1  0
  9 10  1  0
 10 11  1  0
 10 12  2  0
  9 13  2  0
 13 14  1  0
 14 15  2  0
 15 16  1  0
 16 17  2  0
 17 18  1  0
 18 19  1  0
 19 20  1  0
 20 21  1  0
 21 22  1  0
 22 23  1  0
 23 24  1  0
 24 25  1  0
 24 26  1  0
 26 27  1  0
 21 28  1  0
 28 29  1  0
 17 30  1  0
 30 31  2  0
  5 32  1  0
 32 33  2  0
 33  2  1  0
 31  8  1  0
 31 14  1  0
 29 18  1  0
 27 21  1  0
  1 34  1  0
  1 35  1  0
  1 36  1  0
  3 37  1  0
  4 38  1  0
 11 39  1  0
 11 40  1  0
 13 41  1  0
 15 42  1  0
 16 43  1  0
 19 44  1  0
 19 45  1  0
 20 46  1  0
 20 47  1  0
 22 48  1  0
 22 49  1  0
 23 50  1  0
 23 51  1  0
 25 52  1  0
 25 53  1  0
 25 54  1  0
 26 55  1  0
 26 56  1  0
 27 57  1  0
 27 58  1  0
 28 59  1  0
 28 60  1  0
 29 61  1  0
 29 62  1  0
 30 63  1  0
 32 64  1  0
 33 65  1  0
M  END
>  <UniqueID>  (37) 
37

>  <SMILES>  (37) 
Cc1ccc(C(=O)n2c(C(N)=O)cc3ccc(N4CCC5(CCN(C)CC5)CC4)cc32)cc1

>  <Energy>  (37) 
126.67471255169744

>  <Genealogy>  (37) 
Cc1ccc(C(=O)n2c(C(N)=O)cc3ccc(N4CCC5(CCN(C)CC5)CC4)cc32)cc1 (3D coordinates assigned)
Cc1ccc(C(=O)n2c(C(N)=O)cc3ccc(N4CCC5(CCN(C)CC5)CC4)cc32)cc1 (nonaromatic ring conformer: 126.67471255169744 kcal/mol)

>  <smiles>  (37) 
Cc1ccc(C(=O)n2c(C(N)=O)cc3ccc(N4CCC5(CCN(C)CC5)CC4)cc32)cc1

>  <score_type>  (37) 
oracle

>  <origin>  (37) 
adg

>  <m_score__min__energy>  (37) 
-11.25

>  <m_primary>  (37) 
energy

$$$$
37:0
     RDKit          3D

 30 32  0  0  0  0  0  0  0  0999 V2000
   -3.9270   25.6700  -30.8570 N   0  0  0  0  0  0  0  0  0  0  0  0
   -5.1750   25.1070  -30.4640 C   0  0  0  0  0  0  0  0  0  0  0  0
   -5.9350   25.7630  -29.7030 O   0  0  0  0  0  0  0  0  0  0  0  0
   -5.6150   23.7950  -30.9830 C   0  0  0  0  0  0  0  0  0  0  0  0
   -6.9490   23.4780  -31.2270 C   0  0  0  0  0  0  0  0  0  0  0  0
   -6.9280   22.2190  -31.7830 C   0  0  0  0  0  0  0  0  0  0  0  0
   -7.9770   21.4140  -32.2080 C   0  0  0  0  0  0  0  0  0  0  0  0
   -7.6680   20.1400  -32.7170 C   0  0  0  0  0  0  0  0  0  0  0  0
   -6.3210   19.6900  -32.7870 C   0  0  0  0  0  0  0  0  0  0  0  0
   -5.9960   18.3390  -33.3120 C   0  0  0  0  0  0  0  0  0  0  0  0
   -6.8690   17.2510  -33.4210 C   0  0  0  0  0  0  0  0  0  0  0  0
   -6.2740   16.1040  -33.9600 C   0  0  0  0  0  0  0  0  0  0  0  0
   -4.9360   16.2830  -34.2760 C   0  0  0  0  0  0  0  0  0  0  0  0
   -3.8610   15.0620  -34.9800 S   0  0  0  0  0  0  0  0  0  0  0  0
   -3.1160   15.8190  -36.0700 O   0  0  0  0  0  0  0  0  0  0  0  0
   -2.6860   14.8130  -33.7750 O   0  0  0  0  0  0  0  0  0  0  0  0
   -4.4870   17.8520  -33.8960 S   0  0  0  0  0  0  0  0  0  0  0  0
   -5.2850   20.5430  -32.3380 C   0  0  0  0  0  0  0  0  0  0  0  0
   -5.6220   21.8140  -31.8540 C   0  0  0  0  0  0  0  0  0  0  0  0
   -4.8010   22.7700  -31.3630 N   0  0  0  0  0  0  0  0  0  0  0  0
   -3.3780   22.6690  -31.1900 C   0  0  0  0  0  0  0  0  0  0  0  0
   -2.8240   23.1680  -30.1760 O   0  0  0  0  0  0  0  0  0  0  0  0
   -2.5980   22.0430  -32.1530 O   0  0  0  0  0  0  0  0  0  0  0  0
   -3.0270   25.3000  -30.4790 H   0  0  0  0  0  0  0  0  0  0  0  0
   -7.8315   24.1011  -31.0196 H   0  0  0  0  0  0  0  0  0  0  0  0
   -9.0186   21.7626  -32.1482 H   0  0  0  0  0  0  0  0  0  0  0  0
   -8.4787   19.4832  -33.0654 H   0  0  0  0  0  0  0  0  0  0  0  0
   -7.9239   17.2929  -33.1122 H   0  0  0  0  0  0  0  0  0  0  0  0
   -6.8128   15.1579  -34.1167 H   0  0  0  0  0  0  0  0  0  0  0  0
   -4.2356   20.2147  -32.3684 H   0  0  0  0  0  0  0  0  0  0  0  0
  1  2  1  0
  2  3  2  0
  2  4  1  0
  4  5  2  0
  5  6  1  0
  6  7  2  0
  7  8  1  0
  8  9  2  0
  9 10  1  0
 10 11  2  0
 11 12  1  0
 12 13  2  0
 13 14  1  0
 14 15  2  0
 14 16  1  1
 13 17  1  0
  9 18  1  0
 18 19  2  0
 19 20  1  0
 20 21  1  0
 21 22  2  0
 21 23  1  0
 20  4  1  0
 19  6  1  0
 17 10  1  0
  1 24  1  0
  5 25  1  0
  7 26  1  0
  8 27  1  0
 11 28  1  0
 12 29  1  0
 18 30  1  0
M  CHG  3   1  -1  16  -1  23  -1
M  END
>  <UniqueID>  (38) 
38

>  <SMILES>  (38) 
[NH-]C(=O)c1cc2ccc(-c3ccc([S@@](=O)[O-])s3)cc2n1C(=O)[O-]

>  <Energy>  (38) 
102.05136963380549

>  <Genealogy>  (38) 
[NH-]C(=O)c1cc2ccc(-c3ccc(S(=O)[O-])s3)cc2n1C(=O)[O-] (protonated)
[NH-]C(=O)c1cc2ccc(-c3ccc([S@@](=O)[O-])s3)cc2n1C(=O)[O-] (chirality)
[NH-]C(=O)c1cc2ccc(-c3ccc([S@@](=O)[O-])s3)cc2n1C(=O)[O-] (3D coordinates assigned)
[NH-]C(=O)c1cc2ccc(-c3ccc([S@@](=O)[O-])s3)cc2n1C(=O)[O-] (optimized conformer: 102.05136963380549 kcal/mol)

>  <smiles>  (38) 
NC(=O)c1cc2ccc(-c3ccc(S(=O)O)s3)cc2n1C(=O)O

>  <score_type>  (38) 
oracle

>  <origin>  (38) 
adg

>  <m_score__min__energy>  (38) 
-10.99

>  <m_primary>  (38) 
energy

$$$$
38:0
     RDKit          3D

 57 59  0  0  0  0  0  0  0  0999 V2000
   -2.5900   21.5270  -33.2550 C   0  0  0  0  0  0  0  0  0  0  0  0
   -2.4570   20.0870  -32.7470 C   0  0  0  0  0  0  0  0  0  0  0  0
   -2.0770   19.1490  -33.8990 C   0  0  0  0  0  0  0  0  0  0  0  0
   -1.4270   20.0140  -31.6090 C   0  0  0  0  0  0  0  0  0  0  0  0
   -1.5780   21.1370  -30.7460 O   0  0  0  0  0  0  0  0  0  0  0  0
   -2.7220   21.3510  -29.9730 C   0  0  0  0  0  0  0  0  0  0  0  0
   -3.0420   20.5310  -29.0710 O   0  0  0  0  0  0  0  0  0  0  0  0
   -3.5410   22.5060  -30.2210 N   0  0  0  0  0  0  0  0  0  0  0  0
   -3.2310   23.8090  -29.9670 C   0  0  0  0  0  0  0  0  0  0  0  0
   -2.0460   24.2770  -29.2130 C   0  0  0  0  0  0  0  0  0  0  0  0
   -1.0190   23.3620  -28.8270 N   0  0  0  0  0  0  0  0  0  0  0  0
   -1.9160   25.4980  -28.9330 O   0  0  0  0  0  0  0  0  0  0  0  0
   -4.2350   24.6510  -30.4400 C   0  0  0  0  0  0  0  0  0  0  0  0
   -5.1780   23.8170  -30.9960 C   0  0  0  0  0  0  0  0  0  0  0  0
   -6.3760   24.1240  -31.6330 C   0  0  0  0  0  0  0  0  0  0  0  0
   -7.1360   23.0640  -32.1500 C   0  0  0  0  0  0  0  0  0  0  0  0
   -6.6920   21.7190  -32.0250 C   0  0  0  0  0  0  0  0  0  0  0  0
   -7.4930   20.5670  -32.6220 C   0  0  1  0  0  0  0  0  0  0  0  0
   -6.5900   19.3760  -32.9480 C   0  0  0  0  0  0  0  0  0  0  0  0
   -6.0570   19.2840  -34.2500 C   0  0  0  0  0  0  0  0  0  0  0  0
   -5.2150   18.2270  -34.6080 C   0  0  0  0  0  0  0  0  0  0  0  0
   -4.8940   17.2420  -33.6740 C   0  0  0  0  0  0  0  0  0  0  0  0
   -5.4150   17.3110  -32.3820 C   0  0  0  0  0  0  0  0  0  0  0  0
   -6.2580   18.3660  -32.0170 C   0  0  0  0  0  0  0  0  0  0  0  0
   -8.7870   20.2500  -31.7990 C   0  0  0  0  0  0  0  0  0  0  0  0
   -9.8060   21.4050  -31.7700 C   0  0  0  0  0  0  0  0  0  0  0  0
   -9.4800   18.9780  -32.3160 C   0  0  0  0  0  0  0  0  0  0  0  0
   -5.4680   21.4520  -31.3680 C   0  0  0  0  0  0  0  0  0  0  0  0
   -4.7370   22.5280  -30.8500 C   0  0  0  0  0  0  0  0  0  0  0  0
   -2.6534   22.2137  -32.3980 H   0  0  0  0  0  0  0  0  0  0  0  0
   -1.7117   21.7829  -33.8658 H   0  0  0  0  0  0  0  0  0  0  0  0
   -3.5003   21.6177  -33.8658 H   0  0  0  0  0  0  0  0  0  0  0  0
   -3.4281   19.7596  -32.3474 H   0  0  0  0  0  0  0  0  0  0  0  0
   -1.6936   18.2026  -33.4900 H   0  0  0  0  0  0  0  0  0  0  0  0
   -2.9648   18.9485  -34.5167 H   0  0  0  0  0  0  0  0  0  0  0  0
   -1.3000   19.6230  -34.5167 H   0  0  0  0  0  0  0  0  0  0  0  0
   -1.5830   19.0890  -31.0346 H   0  0  0  0  0  0  0  0  0  0  0  0
   -0.4136   20.0195  -32.0367 H   0  0  0  0  0  0  0  0  0  0  0  0
   -1.1160   22.3360  -28.9890 H   0  0  0  0  0  0  0  0  0  0  0  0
   -0.1660   23.7100  -28.3340 H   0  0  0  0  0  0  0  0  0  0  0  0
   -4.2672   25.7490  -30.3815 H   0  0  0  0  0  0  0  0  0  0  0  0
   -6.7169   25.1655  -31.7284 H   0  0  0  0  0  0  0  0  0  0  0  0
   -8.0879   23.2763  -32.6588 H   0  0  0  0  0  0  0  0  0  0  0  0
   -7.8939   20.8795  -33.5975 H   0  0  0  0  0  0  0  0  0  0  0  0
   -6.3071   20.0544  -34.9943 H   0  0  0  0  0  0  0  0  0  0  0  0
   -4.8052   18.1720  -35.6273 H   0  0  0  0  0  0  0  0  0  0  0  0
   -4.2304   16.4113  -33.9562 H   0  0  0  0  0  0  0  0  0  0  0  0
   -5.1620   16.5326  -31.6471 H   0  0  0  0  0  0  0  0  0  0  0  0
   -6.6660   18.4098  -30.9964 H   0  0  0  0  0  0  0  0  0  0  0  0
   -8.4373   20.0968  -30.7674 H   0  0  0  0  0  0  0  0  0  0  0  0
  -10.0356   21.6653  -30.7262 H   0  0  0  0  0  0  0  0  0  0  0  0
   -9.3815   22.2814  -32.2816 H   0  0  0  0  0  0  0  0  0  0  0  0
  -10.7285   21.0930  -32.2816 H   0  0  0  0  0  0  0  0  0  0  0  0
   -9.8120   18.3686  -31.4625 H   0  0  0  0  0  0  0  0  0  0  0  0
  -10.3505   19.2575  -32.9276 H   0  0  0  0  0  0  0  0  0  0  0  0
   -8.7731   18.3981  -32.9276 H   0  0  0  0  0  0  0  0  0  0  0  0
   -5.0984   20.4210  -31.2662 H   0  0  0  0  0  0  0  0  0  0  0  0
  1  2  1  0
  2  3  1  0
  2  4  1  0
  4  5  1  0
  5  6  1  0
  6  7  2  0
  6  8  1  0
  8  9  1  0
  9 10  1  0
 10 11  1  0
 10 12  2  0
  9 13  2  0
 13 14  1  0
 14 15  2  0
 15 16  1  0
 16 17  2  0
 17 18  1  0
 18 19  1  0
 19 20  2  0
 20 21  1  0
 21 22  2  0
 22 23  1  0
 23 24  2  0
 18 25  1  0
 25 26  1  0
 25 27  1  0
 17 28  1  0
 28 29  2  0
 29  8  1  0
 29 14  1  0
 24 19  1  0
  1 30  1  0
  1 31  1  0
  1 32  1  0
  2 33  1  0
  3 34  1  0
  3 35  1  0
  3 36  1  0
  4 37  1  0
  4 38  1  0
 11 39  1  0
 11 40  1  0
 13 41  1  0
 15 42  1  0
 16 43  1  0
 18 44  1  6
 20 45  1  0
 21 46  1  0
 22 47  1  0
 23 48  1  0
 24 49  1  0
 25 50  1  0
 26 51  1  0
 26 52  1  0
 26 53  1  0
 27 54  1  0
 27 55  1  0
 27 56  1  0
 28 57  1  0
M  END
>  <UniqueID>  (39) 
39

>  <SMILES>  (39) 
CC(C)COC(=O)n1c(C(N)=O)cc2ccc([C@@H](c3ccccc3)C(C)C)cc21

>  <Energy>  (39) 
92.01260362187303

>  <Genealogy>  (39) 
CC(C)COC(=O)n1c(C(N)=O)cc2ccc([C@@H](c3ccccc3)C(C)C)cc21 (chirality)
CC(C)COC(=O)n1c(C(N)=O)cc2ccc([C@@H](c3ccccc3)C(C)C)cc21 (3D coordinates assigned)
CC(C)COC(=O)n1c(C(N)=O)cc2ccc([C@@H](c3ccccc3)C(C)C)cc21 (optimized conformer: 92.01260362187303 kcal/mol)

>  <smiles>  (39) 
CC(C)COC(=O)n1c(C(N)=O)cc2ccc(C(c3ccccc3)C(C)C)cc21

>  <score_type>  (39) 
oracle

>  <origin>  (39) 
adg

>  <m_score__min__energy>  (39) 
-9.5399999999999991

>  <m_primary>  (39) 
energy

$$$$
39:0
     RDKit          3D

 46 49  0  0  0  0  0  0  0  0999 V2000
   -2.3250   25.3340  -28.4990 N   0  0  0  0  0  0  0  0  0  0  0  0
   -1.3420   24.4190  -28.9860 C   0  0  0  0  0  0  0  0  0  0  0  0
   -0.1450   24.5520  -28.6190 O   0  0  0  0  0  0  0  0  0  0  0  0
   -1.7260   23.3020  -29.8790 C   0  0  0  0  0  0  0  0  0  0  0  0
   -0.8630   22.2720  -30.2520 C   0  0  0  0  0  0  0  0  0  0  0  0
   -1.5680   21.5130  -31.1590 C   0  0  0  0  0  0  0  0  0  0  0  0
   -1.1910   20.3690  -31.8560 C   0  0  0  0  0  0  0  0  0  0  0  0
   -2.1290   19.7860  -32.7240 C   0  0  0  0  0  0  0  0  0  0  0  0
   -3.4260   20.3420  -32.8630 C   0  0  0  0  0  0  0  0  0  0  0  0
   -4.4140   19.7310  -33.8170 C   0  0  0  0  0  0  0  0  0  0  0  0
   -5.6750   19.3590  -33.0860 C   0  0  0  0  0  0  0  0  0  0  0  0
   -6.8970   19.9650  -33.4240 C   0  0  0  0  0  0  0  0  0  0  0  0
   -8.0760   19.5870  -32.7730 C   0  0  0  0  0  0  0  0  0  0  0  0
   -8.0450   18.5950  -31.7880 C   0  0  0  0  0  0  0  0  0  0  0  0
   -9.1880   18.2270  -31.1600 F   0  0  0  0  0  0  0  0  0  0  0  0
   -6.8340   17.9790  -31.4540 C   0  0  0  0  0  0  0  0  0  0  0  0
   -5.6540   18.3540  -32.1040 C   0  0  0  0  0  0  0  0  0  0  0  0
   -3.7690   21.5110  -32.1470 C   0  0  0  0  0  0  0  0  0  0  0  0
   -2.8060   22.0820  -31.3090 C   0  0  0  0  0  0  0  0  0  0  0  0
   -2.9180   23.1820  -30.5320 N   0  0  0  0  0  0  0  0  0  0  0  0
   -4.0840   24.0130  -30.4060 C   0  0  0  0  0  0  0  0  0  0  0  0
   -4.0630   25.1970  -30.8380 O   0  0  0  0  0  0  0  0  0  0  0  0
   -5.2460   23.4830  -29.8310 O   0  0  0  0  0  0  0  0  0  0  0  0
   -6.4340   23.1870  -30.5160 C   0  0  0  0  0  0  0  0  0  0  0  0
   -7.4420   22.3730  -29.9620 C   0  0  0  0  0  0  0  0  0  0  0  0
   -8.6020   22.0950  -30.6930 C   0  0  0  0  0  0  0  0  0  0  0  0
   -8.7610   22.6160  -31.9790 C   0  0  0  0  0  0  0  0  0  0  0  0
   -7.7570   23.4090  -32.5410 C   0  0  0  0  0  0  0  0  0  0  0  0
   -6.5960   23.6880  -31.8130 C   0  0  0  0  0  0  0  0  0  0  0  0
   -3.3180   25.2890  -28.8200 H   0  0  0  0  0  0  0  0  0  0  0  0
   -2.0510   26.0930  -27.8350 H   0  0  0  0  0  0  0  0  0  0  0  0
    0.1640   22.1019  -29.8967 H   0  0  0  0  0  0  0  0  0  0  0  0
   -0.1883   19.9342  -31.7309 H   0  0  0  0  0  0  0  0  0  0  0  0
   -1.8550   18.8904  -33.3009 H   0  0  0  0  0  0  0  0  0  0  0  0
   -4.6526   20.4569  -34.6083 H   0  0  0  0  0  0  0  0  0  0  0  0
   -3.9741   18.8256  -34.2606 H   0  0  0  0  0  0  0  0  0  0  0  0
   -6.9265   20.7401  -34.2040 H   0  0  0  0  0  0  0  0  0  0  0  0
   -9.0283   20.0705  -33.0362 H   0  0  0  0  0  0  0  0  0  0  0  0
   -6.8101   17.1987  -30.6791 H   0  0  0  0  0  0  0  0  0  0  0  0
   -4.7056   17.8603  -31.8456 H   0  0  0  0  0  0  0  0  0  0  0  0
   -4.7681   21.9604  -32.2463 H   0  0  0  0  0  0  0  0  0  0  0  0
   -7.3165   21.9551  -28.9522 H   0  0  0  0  0  0  0  0  0  0  0  0
   -9.3899   21.4652  -30.2543 H   0  0  0  0  0  0  0  0  0  0  0  0
   -9.6768   22.4021  -32.5496 H   0  0  0  0  0  0  0  0  0  0  0  0
   -7.8799   23.8139  -33.5564 H   0  0  0  0  0  0  0  0  0  0  0  0
   -5.8045   24.3055  -32.2628 H   0  0  0  0  0  0  0  0  0  0  0  0
  1  2  1  0
  2  3  2  0
  2  4  1  0
  4  5  2  0
  5  6  1  0
  6  7  2  0
  7  8  1  0
  8  9  2  0
  9 10  1  0
 10 11  1  0
 11 12  2  0
 12 13  1  0
 13 14  2  0
 14 15  1  0
 14 16  1  0
 16 17  2  0
  9 18  1  0
 18 19  2  0
 19 20  1  0
 20 21  1  0
 21 22  2  0
 21 23  1  0
 23 24  1  0
 24 25  2  0
 25 26  1  0
 26 27  2  0
 27 28  1  0
 28 29  2  0
 20  4  1  0
 29 24  1  0
 19  6  1  0
 17 11  1  0
  1 30  1  0
  1 31  1  0
  5 32  1  0
  7 33  1  0
  8 34  1  0
 10 35  1  0
 10 36  1  0
 12 37  1  0
 13 38  1  0
 16 39  1  0
 17 40  1  0
 18 41  1  0
 25 42  1  0
 26 43  1  0
 27 44  1  0
 28 45  1  0
 29 46  1  0
M  END
>  <UniqueID>  (40) 
40

>  <SMILES>  (40) 
NC(=O)c1cc2ccc(Cc3ccc(F)cc3)cc2n1C(=O)Oc1ccccc1

>  <Energy>  (40) 
91.99018308247814

>  <Genealogy>  (40) 
NC(=O)c1cc2ccc(Cc3ccc(F)cc3)cc2n1C(=O)Oc1ccccc1 (3D coordinates assigned)
NC(=O)c1cc2ccc(Cc3ccc(F)cc3)cc2n1C(=O)Oc1ccccc1 (optimized conformer: 91.99018308247814 kcal/mol)

>  <smiles>  (40) 
NC(=O)c1cc2ccc(Cc3ccc(F)cc3)cc2n1C(=O)Oc1ccccc1

>  <score_type>  (40) 
oracle

>  <origin>  (40) 
adg

>  <m_score__min__energy>  (40) 
-10.65

>  <m_primary>  (40) 
energy

$$$$
40:0
     RDKit          3D

 31 32  0  0  0  0  0  0  0  0999 V2000
   -9.0250   20.1670  -32.5150 C   0  0  0  0  0  0  0  0  0  0  0  0
   -7.9030   19.2180  -32.2370 C   0  0  0  0  0  0  0  0  0  0  0  0
   -8.1580   18.1110  -31.6900 O   0  0  0  0  0  0  0  0  0  0  0  0
   -6.5510   19.5390  -32.6010 N   0  0  0  0  0  0  0  0  0  0  0  0
   -5.7160   18.8030  -33.3860 C   0  0  0  0  0  0  0  0  0  0  0  0
   -6.0870   17.5900  -34.1440 C   0  0  0  0  0  0  0  0  0  0  0  0
   -6.8690   16.5530  -33.5500 N   0  0  0  0  0  0  0  0  0  0  0  0
   -5.7460   17.4890  -35.3530 O   0  0  0  0  0  0  0  0  0  0  0  0
   -4.4380   19.3580  -33.4030 C   0  0  0  0  0  0  0  0  0  0  0  0
   -4.5170   20.4720  -32.5990 C   0  0  0  0  0  0  0  0  0  0  0  0
   -3.5280   21.3820  -32.2330 C   0  0  0  0  0  0  0  0  0  0  0  0
   -3.8760   22.4080  -31.3400 C   0  0  0  0  0  0  0  0  0  0  0  0
   -5.1930   22.5040  -30.8280 C   0  0  0  0  0  0  0  0  0  0  0  0
   -5.5390   23.5750  -29.8320 C   0  0  0  0  0  0  0  0  0  0  0  0
   -5.1850   24.9210  -30.3810 C   0  0  0  0  0  0  0  0  0  0  0  0
   -3.8180   25.2980  -30.5140 N   0  0  0  0  0  0  0  0  0  0  0  0
   -6.0930   25.7060  -30.7620 O   0  0  0  0  0  0  0  0  0  0  0  0
   -6.1670   21.5540  -31.2100 C   0  0  0  0  0  0  0  0  0  0  0  0
   -5.8000   20.5570  -32.1220 C   0  0  0  0  0  0  0  0  0  0  0  0
   -9.4473   20.5242  -31.5641 H   0  0  0  0  0  0  0  0  0  0  0  0
   -8.6465   21.0232  -33.0927 H   0  0  0  0  0  0  0  0  0  0  0  0
   -9.8065   19.6517  -33.0927 H   0  0  0  0  0  0  0  0  0  0  0  0
   -7.0760   15.6810  -34.0860 H   0  0  0  0  0  0  0  0  0  0  0  0
   -7.3270   16.6850  -32.6210 H   0  0  0  0  0  0  0  0  0  0  0  0
   -3.5552   18.9855  -33.9433 H   0  0  0  0  0  0  0  0  0  0  0  0
   -2.5060   21.2994  -32.6313 H   0  0  0  0  0  0  0  0  0  0  0  0
   -3.1182   23.1447  -31.0350 H   0  0  0  0  0  0  0  0  0  0  0  0
   -6.6180   23.5405  -29.6207 H   0  0  0  0  0  0  0  0  0  0  0  0
   -4.9707   23.4029  -28.9060 H   0  0  0  0  0  0  0  0  0  0  0  0
   -3.5250   26.0140  -31.2150 H   0  0  0  0  0  0  0  0  0  0  0  0
   -7.1874   21.5967  -30.8013 H   0  0  0  0  0  0  0  0  0  0  0  0
  1  2  1  0
  2  3  2  0
  2  4  1  0
  4  5  1  0
  5  6  1  0
  6  7  1  0
  6  8  2  0
  5  9  2  0
  9 10  1  0
 10 11  2  0
 11 12  1  0
 12 13  2  0
 13 14  1  0
 14 15  1  0
 15 16  1  0
 15 17  2  0
 13 18  1  0
 18 19  2  0
 19  4  1  0
 19 10  1  0
  1 20  1  0
  1 21  1  0
  1 22  1  0
  7 23  1  0
  7 24  1  0
  9 25  1  0
 11 26  1  0
 12 27  1  0
 14 28  1  0
 14 29  1  0
 16 30  1  0
 18 31  1  0
M  CHG  1  16  -1
M  END
>  <UniqueID>  (41) 
41

>  <SMILES>  (41) 
CC(=O)n1c(C(N)=O)cc2ccc(CC([NH-])=O)cc21

>  <Energy>  (41) 
67.9640274126413

>  <Genealogy>  (41) 
CC(=O)n1c(C(N)=O)cc2ccc(CC([NH-])=O)cc21 (protonated)
CC(=O)n1c(C(N)=O)cc2ccc(CC([NH-])=O)cc21 (3D coordinates assigned)
CC(=O)n1c(C(N)=O)cc2ccc(CC([NH-])=O)cc21 (optimized conformer: 67.9640274126413 kcal/mol)

>  <smiles>  (41) 
CC(=O)n1c(C(N)=O)cc2ccc(CC(N)=O)cc21

>  <score_type>  (41) 
oracle

>  <origin>  (41) 
adg

>  <m_score__min__energy>  (41) 
-9.6400000000000006

>  <m_primary>  (41) 
energy

$$$$
41:0
     RDKit          3D

 41 43  0  0  0  0  0  0  0  0999 V2000
   -2.2630   25.3060  -28.4430 N   0  0  0  0  0  0  0  0  0  0  0  0
   -1.4000   24.3550  -29.0680 C   0  0  0  0  0  0  0  0  0  0  0  0
   -0.1520   24.4800  -28.9470 O   0  0  0  0  0  0  0  0  0  0  0  0
   -1.9420   23.2690  -29.9080 C   0  0  0  0  0  0  0  0  0  0  0  0
   -1.2590   22.0830  -30.1580 C   0  0  0  0  0  0  0  0  0  0  0  0
   -2.0630   21.3780  -31.0250 C   0  0  0  0  0  0  0  0  0  0  0  0
   -1.8790   20.1170  -31.5870 C   0  0  0  0  0  0  0  0  0  0  0  0
   -2.8930   19.6140  -32.4170 C   0  0  0  0  0  0  0  0  0  0  0  0
   -4.0630   20.3720  -32.6700 C   0  0  0  0  0  0  0  0  0  0  0  0
   -5.1640   19.7970  -33.5200 C   0  0  0  0  0  0  0  0  0  0  0  0
   -6.4710   20.5650  -33.3030 C   0  0  0  0  0  0  0  0  0  0  0  0
   -6.9950   20.3030  -31.9430 N   0  0  0  0  0  0  0  0  0  0  0  0
   -8.1360   19.3650  -31.9420 C   0  0  0  0  0  0  0  0  0  0  0  0
   -9.4280   20.0590  -32.3910 C   0  0  0  0  0  0  0  0  0  0  0  0
   -9.7210   21.1500  -31.5430 O   0  0  0  0  0  0  0  0  0  0  0  0
   -8.6970   22.1190  -31.6480 C   0  0  0  0  0  0  0  0  0  0  0  0
   -7.3360   21.5420  -31.2110 C   0  0  0  0  0  0  0  0  0  0  0  0
   -4.2200   21.6420  -32.0710 C   0  0  0  0  0  0  0  0  0  0  0  0
   -3.1850   22.1300  -31.2650 C   0  0  0  0  0  0  0  0  0  0  0  0
   -3.1270   23.2950  -30.5810 N   0  0  0  0  0  0  0  0  0  0  0  0
   -4.1600   24.2920  -30.4840 C   0  0  0  0  0  0  0  0  0  0  0  0
   -5.3370   23.9640  -30.1750 O   0  0  0  0  0  0  0  0  0  0  0  0
   -3.8700   25.6300  -30.7200 O   0  0  0  0  0  0  0  0  0  0  0  0
   -1.8640   26.0490  -27.8260 H   0  0  0  0  0  0  0  0  0  0  0  0
   -3.2840   25.3300  -28.6580 H   0  0  0  0  0  0  0  0  0  0  0  0
   -0.2850   21.7746  -29.7502 H   0  0  0  0  0  0  0  0  0  0  0  0
   -0.9680   19.5339  -31.3868 H   0  0  0  0  0  0  0  0  0  0  0  0
   -2.7781   18.6209  -32.8759 H   0  0  0  0  0  0  0  0  0  0  0  0
   -4.8760   19.8660  -34.5794 H   0  0  0  0  0  0  0  0  0  0  0  0
   -5.3193   18.7460  -33.2349 H   0  0  0  0  0  0  0  0  0  0  0  0
   -6.2835   21.6426  -33.4193 H   0  0  0  0  0  0  0  0  0  0  0  0
   -7.2119   20.2320  -34.0448 H   0  0  0  0  0  0  0  0  0  0  0  0
   -7.9178   18.5345  -32.6295 H   0  0  0  0  0  0  0  0  0  0  0  0
   -8.2795   18.9937  -30.9165 H   0  0  0  0  0  0  0  0  0  0  0  0
   -9.3043   20.4238  -33.4214 H   0  0  0  0  0  0  0  0  0  0  0  0
  -10.2564   19.3369  -32.3427 H   0  0  0  0  0  0  0  0  0  0  0  0
   -8.6257   22.4537  -32.6934 H   0  0  0  0  0  0  0  0  0  0  0  0
   -8.9463   22.9620  -30.9867 H   0  0  0  0  0  0  0  0  0  0  0  0
   -6.5550   22.2928  -31.4017 H   0  0  0  0  0  0  0  0  0  0  0  0
   -7.4009   21.2957  -30.1409 H   0  0  0  0  0  0  0  0  0  0  0  0
   -5.1334   22.2328  -32.2341 H   0  0  0  0  0  0  0  0  0  0  0  0
  1  2  1  0
  2  3  2  0
  2  4  1  0
  4  5  2  0
  5  6  1  0
  6  7  2  0
  7  8  1  0
  8  9  2  0
  9 10  1  0
 10 11  1  0
 11 12  1  0
 12 13  1  0
 13 14  1  0
 14 15  1  0
 15 16  1  0
 16 17  1  0
  9 18  1  0
 18 19  2  0
 19 20  1  0
 20 21  1  0
 21 22  2  0
 21 23  1  0
 20  4  1  0
 19  6  1  0
 17 12  1  0
  1 24  1  0
  1 25  1  0
  5 26  1  0
  7 27  1  0
  8 28  1  0
 10 29  1  0
 10 30  1  0
 11 31  1  0
 11 32  1  0
 13 33  1  0
 13 34  1  0
 14 35  1  0
 14 36  1  0
 16 37  1  0
 16 38  1  0
 17 39  1  0
 17 40  1  0
 18 41  1  0
M  CHG  1  23  -1
M  END
>  <UniqueID>  (42) 
42

>  <SMILES>  (42) 
NC(=O)c1cc2ccc(CCN3CCOCC3)cc2n1C(=O)[O-]

>  <Energy>  (42) 
85.83253315815978

>  <Genealogy>  (42) 
NC(=O)c1cc2ccc(CCN3CCOCC3)cc2n1C(=O)[O-] (protonated)
NC(=O)c1cc2ccc(CCN3CCOCC3)cc2n1C(=O)[O-] (3D coordinates assigned)
NC(=O)c1cc2ccc(CCN3CCOCC3)cc2n1C(=O)[O-] (nonaromatic ring conformer: 85.83253315815978 kcal/mol)

>  <smiles>  (42) 
NC(=O)c1cc2ccc(CCN3CCOCC3)cc2n1C(=O)O

>  <score_type>  (42) 
oracle

>  <origin>  (42) 
adg

>  <m_score__min__energy>  (42) 
-9.5099999999999998

>  <m_primary>  (42) 
energy

$$$$
42:0
     RDKit          3D

 40 41  0  0  0  0  0  0  0  0999 V2000
   -3.2460   21.9140  -32.7250 C   0  0  0  0  0  0  0  0  0  0  0  0
   -3.8120   22.6670  -31.5640 C   0  0  0  0  0  0  0  0  0  0  0  0
   -3.0310   23.1390  -30.6950 O   0  0  0  0  0  0  0  0  0  0  0  0
   -5.2300   22.8640  -31.4330 N   0  0  0  0  0  0  0  0  0  0  0  0
   -5.8720   23.9570  -30.9320 C   0  0  0  0  0  0  0  0  0  0  0  0
   -5.2240   25.1380  -30.3240 C   0  0  0  0  0  0  0  0  0  0  0  0
   -4.0020   25.6340  -30.8650 N   0  0  0  0  0  0  0  0  0  0  0  0
   -5.7500   25.7290  -29.3440 O   0  0  0  0  0  0  0  0  0  0  0  0
   -7.2530   23.7910  -31.0160 C   0  0  0  0  0  0  0  0  0  0  0  0
   -7.4380   22.5520  -31.5860 C   0  0  0  0  0  0  0  0  0  0  0  0
   -8.6130   21.8860  -31.9200 C   0  0  0  0  0  0  0  0  0  0  0  0
   -8.5060   20.6250  -32.5300 C   0  0  0  0  0  0  0  0  0  0  0  0
   -7.2330   20.0520  -32.7950 C   0  0  0  0  0  0  0  0  0  0  0  0
   -7.1000   18.7650  -33.4250 N   0  0  0  0  0  0  0  0  0  0  0  0
   -7.0940   17.4860  -32.7100 C   0  0  0  0  0  0  0  0  0  0  0  0
   -5.8220   16.6890  -33.0220 C   0  0  0  0  0  0  0  0  0  0  0  0
   -5.0520   17.3250  -34.1150 N   0  0  0  0  0  0  0  0  0  0  0  0
   -4.0920   18.3080  -33.5850 C   0  0  0  0  0  0  0  0  0  0  0  0
   -4.3370   16.3110  -34.9060 C   0  0  0  0  0  0  0  0  0  0  0  0
   -6.0660   20.7710  -32.4570 C   0  0  0  0  0  0  0  0  0  0  0  0
   -6.2030   22.0150  -31.8320 C   0  0  0  0  0  0  0  0  0  0  0  0
   -2.6233   21.0856  -32.3563 H   0  0  0  0  0  0  0  0  0  0  0  0
   -4.0671   21.5116  -33.3364 H   0  0  0  0  0  0  0  0  0  0  0  0
   -2.6312   22.5909  -33.3364 H   0  0  0  0  0  0  0  0  0  0  0  0
   -3.0810   25.2890  -30.5140 H   0  0  0  0  0  0  0  0  0  0  0  0
   -8.0304   24.4999  -30.6949 H   0  0  0  0  0  0  0  0  0  0  0  0
   -9.5963   22.3334  -31.7127 H   0  0  0  0  0  0  0  0  0  0  0  0
   -9.4179   20.0751  -32.8056 H   0  0  0  0  0  0  0  0  0  0  0  0
   -6.8860   18.7360  -34.4480 H   0  0  0  0  0  0  0  0  0  0  0  0
   -7.1418   17.6784  -31.6280 H   0  0  0  0  0  0  0  0  0  0  0  0
   -7.9650   16.8981  -33.0354 H   0  0  0  0  0  0  0  0  0  0  0  0
   -5.1951   16.6441  -32.1192 H   0  0  0  0  0  0  0  0  0  0  0  0
   -6.1120   15.6768  -33.3405 H   0  0  0  0  0  0  0  0  0  0  0  0
   -4.1138   18.2857  -32.4854 H   0  0  0  0  0  0  0  0  0  0  0  0
   -3.0800   18.0587  -33.9368 H   0  0  0  0  0  0  0  0  0  0  0  0
   -4.3651   19.3138  -33.9368 H   0  0  0  0  0  0  0  0  0  0  0  0
   -3.8376   15.6027  -34.2286 H   0  0  0  0  0  0  0  0  0  0  0  0
   -5.0535   15.7686  -35.5404 H   0  0  0  0  0  0  0  0  0  0  0  0
   -3.5854   16.8037  -35.5404 H   0  0  0  0  0  0  0  0  0  0  0  0
   -5.0698   20.3616  -32.6804 H   0  0  0  0  0  0  0  0  0  0  0  0
  1  2  1  0
  2  3  2  0
  2  4  1  0
  4  5  1  0
  5  6  1  0
  6  7  1  0
  6  8  2  0
  5  9  2  0
  9 10  1  0
 10 11  2  0
 11 12  1  0
 12 13  2  0
 13 14  1  0
 14 15  1  0
 15 16  1  0
 16 17  1  0
 17 18  1  0
 17 19  1  0
 13 20  1  0
 20 21  2  0
 21  4  1  0
 21 10  1  0
  1 22  1  0
  1 23  1  0
  1 24  1  0
  7 25  1  0
  9 26  1  0
 11 27  1  0
 12 28  1  0
 14 29  1  0
 15 30  1  0
 15 31  1  0
 16 32  1  0
 16 33  1  0
 18 34  1  0
 18 35  1  0
 18 36  1  0
 19 37  1  0
 19 38  1  0
 19 39  1  0
 20 40  1  0
M  CHG  1   7  -1
M  END
>  <UniqueID>  (43) 
43

>  <SMILES>  (43) 
CC(=O)n1c(C([NH-])=O)cc2ccc(NCCN(C)C)cc21

>  <Energy>  (43) 
77.09858847743261

>  <Genealogy>  (43) 
CC(=O)n1c(C([NH-])=O)cc2ccc(NCCN(C)C)cc21 (protonated)
CC(=O)n1c(C([NH-])=O)cc2ccc(NCCN(C)C)cc21 (3D coordinates assigned)
CC(=O)n1c(C([NH-])=O)cc2ccc(NCCN(C)C)cc21 (optimized conformer: 77.09858847743261 kcal/mol)

>  <smiles>  (43) 
CC(=O)n1c(C(N)=O)cc2ccc(NCCN(C)C)cc21

>  <score_type>  (43) 
oracle

>  <origin>  (43) 
adg

>  <m_score__min__energy>  (43) 
-10.130000000000001

>  <m_primary>  (43) 
energy

$$$$
43:0
     RDKit          3D

 45 47  0  0  0  0  0  0  0  0999 V2000
   -0.7630   21.7420  -29.1260 C   0  0  0  0  0  0  0  0  0  0  0  0
   -1.3020   22.4780  -30.2200 O   0  0  0  0  0  0  0  0  0  0  0  0
   -1.8110   21.9040  -31.3970 C   0  0  0  0  0  0  0  0  0  0  0  0
   -0.9560   21.4580  -32.4260 C   0  0  0  0  0  0  0  0  0  0  0  0
   -1.4790   20.8680  -33.5770 C   0  0  0  0  0  0  0  0  0  0  0  0
   -2.8570   20.7170  -33.7210 C   0  0  0  0  0  0  0  0  0  0  0  0
   -3.7170   21.1580  -32.7160 C   0  0  0  0  0  0  0  0  0  0  0  0
   -3.2090   21.7540  -31.5460 C   0  0  0  0  0  0  0  0  0  0  0  0
   -4.1540   22.2010  -30.4900 C   0  0  0  0  0  0  0  0  0  0  0  0
   -3.7960   22.2060  -29.2800 O   0  0  0  0  0  0  0  0  0  0  0  0
   -5.4830   22.6330  -30.8280 N   0  0  0  0  0  0  0  0  0  0  0  0
   -6.0000   23.8920  -30.7490 C   0  0  0  0  0  0  0  0  0  0  0  0
   -5.2540   25.1080  -30.3630 C   0  0  0  0  0  0  0  0  0  0  0  0
   -3.8710   25.2260  -30.6880 N   0  0  0  0  0  0  0  0  0  0  0  0
   -5.8200   26.0390  -29.7300 O   0  0  0  0  0  0  0  0  0  0  0  0
   -7.3330   23.8970  -31.1560 C   0  0  0  0  0  0  0  0  0  0  0  0
   -7.6170   22.5920  -31.4920 C   0  0  0  0  0  0  0  0  0  0  0  0
   -8.7910   22.0250  -31.9800 C   0  0  0  0  0  0  0  0  0  0  0  0
   -8.7940   20.6450  -32.2490 C   0  0  0  0  0  0  0  0  0  0  0  0
   -7.6390   19.8600  -32.0070 C   0  0  0  0  0  0  0  0  0  0  0  0
   -7.6410   18.3890  -32.3320 C   0  0  0  0  0  0  0  0  0  0  0  0
   -6.2590   17.9010  -32.7940 C   0  0  0  0  0  0  0  0  0  0  0  0
   -6.1360   17.7730  -34.3170 C   0  0  0  0  0  0  0  0  0  0  0  0
   -6.0060   19.0380  -34.9020 O   0  0  0  0  0  0  0  0  0  0  0  0
   -6.4690   20.4700  -31.5070 C   0  0  0  0  0  0  0  0  0  0  0  0
   -6.4860   21.8500  -31.2760 C   0  0  0  0  0  0  0  0  0  0  0  0
   -1.0949   22.1952  -28.1802 H   0  0  0  0  0  0  0  0  0  0  0  0
   -1.1136   20.7006  -29.1765 H   0  0  0  0  0  0  0  0  0  0  0  0
    0.3357   21.7619  -29.1765 H   0  0  0  0  0  0  0  0  0  0  0  0
    0.1325   21.5763  -32.3202 H   0  0  0  0  0  0  0  0  0  0  0  0
   -0.8026   20.5214  -34.3722 H   0  0  0  0  0  0  0  0  0  0  0  0
   -3.2666   20.2494  -34.6285 H   0  0  0  0  0  0  0  0  0  0  0  0
   -4.8037   21.0390  -32.8385 H   0  0  0  0  0  0  0  0  0  0  0  0
   -3.5160   26.0440  -31.2300 H   0  0  0  0  0  0  0  0  0  0  0  0
   -8.0137   24.7600  -31.1996 H   0  0  0  0  0  0  0  0  0  0  0  0
   -9.6886   22.6377  -32.1499 H   0  0  0  0  0  0  0  0  0  0  0  0
   -9.7012   20.1702  -32.6510 H   0  0  0  0  0  0  0  0  0  0  0  0
   -7.9342   17.8268  -31.4331 H   0  0  0  0  0  0  0  0  0  0  0  0
   -8.3528   18.2230  -33.1540 H   0  0  0  0  0  0  0  0  0  0  0  0
   -5.5011   18.6162  -32.4419 H   0  0  0  0  0  0  0  0  0  0  0  0
   -6.1112   16.8965  -32.3708 H   0  0  0  0  0  0  0  0  0  0  0  0
   -5.2500   17.1681  -34.5599 H   0  0  0  0  0  0  0  0  0  0  0  0
   -7.0422   17.2887  -34.7097 H   0  0  0  0  0  0  0  0  0  0  0  0
   -6.8730   19.2290  -35.3430 H   0  0  0  0  0  0  0  0  0  0  0  0
   -5.5660   19.8755  -31.3039 H   0  0  0  0  0  0  0  0  0  0  0  0
  1  2  1  0
  2  3  1  0
  3  4  2  0
  4  5  1  0
  5  6  2  0
  6  7  1  0
  7  8  2  0
  8  9  1  0
  9 10  2  0
  9 11  1  0
 11 12  1  0
 12 13  1  0
 13 14  1  0
 13 15  2  0
 12 16  2  0
 16 17  1  0
 17 18  2  0
 18 19  1  0
 19 20  2  0
 20 21  1  0
 21 22  1  0
 22 23  1  0
 23 24  1  0
 20 25  1  0
 25 26  2  0
  8  3  1  0
 26 11  1  0
 26 17  1  0
  1 27  1  0
  1 28  1  0
  1 29  1  0
  4 30  1  0
  5 31  1  0
  6 32  1  0
  7 33  1  0
 14 34  1  0
 16 35  1  0
 18 36  1  0
 19 37  1  0
 21 38  1  0
 21 39  1  0
 22 40  1  0
 22 41  1  0
 23 42  1  0
 23 43  1  0
 24 44  1  0
 25 45  1  0
M  CHG  1  14  -1
M  END
>  <UniqueID>  (44) 
44

>  <SMILES>  (44) 
COc1ccccc1C(=O)n1c(C([NH-])=O)cc2ccc(CCCO)cc21

>  <Energy>  (44) 
82.13239795372445

>  <Genealogy>  (44) 
COc1ccccc1C(=O)n1c(C([NH-])=O)cc2ccc(CCCO)cc21 (protonated)
COc1ccccc1C(=O)n1c(C([NH-])=O)cc2ccc(CCCO)cc21 (3D coordinates assigned)
COc1ccccc1C(=O)n1c(C([NH-])=O)cc2ccc(CCCO)cc21 (optimized conformer: 82.13239795372445 kcal/mol)

>  <smiles>  (44) 
COc1ccccc1C(=O)n1c(C(N)=O)cc2ccc(CCCO)cc21

>  <score_type>  (44) 
oracle

>  <origin>  (44) 
adg

>  <m_score__min__energy>  (44) 
-11.119999999999999

>  <m_primary>  (44) 
energy

$$$$
44:0
     RDKit          3D

 45 47  0  0  0  0  0  0  0  0999 V2000
   -0.8780   27.2470  -25.9340 C   0  0  0  0  0  0  0  0  0  0  0  0
   -0.4910   26.9220  -27.3720 C   0  0  0  0  0  0  0  0  0  0  0  0
   -1.1150   25.6700  -27.7900 N   0  0  0  0  0  0  0  0  0  0  0  0
   -2.1830   25.0830  -27.2160 C   0  0  0  0  0  0  0  0  0  0  0  0
   -2.3980   23.8660  -27.8350 C   0  0  0  0  0  0  0  0  0  0  0  0
   -1.3980   23.7830  -28.7890 C   0  0  0  0  0  0  0  0  0  0  0  0
   -1.0950   22.5960  -29.6470 C   0  0  0  0  0  0  0  0  0  0  0  0
   -2.3580   21.7850  -29.9440 C   0  0  0  0  0  0  0  0  0  0  0  0
   -3.0410   22.3110  -31.0790 O   0  0  0  0  0  0  0  0  0  0  0  0
   -3.9530   23.3700  -31.0130 C   0  0  0  0  0  0  0  0  0  0  0  0
   -3.5270   24.5430  -30.8290 O   0  0  0  0  0  0  0  0  0  0  0  0
   -5.3750   23.1130  -31.1240 N   0  0  0  0  0  0  0  0  0  0  0  0
   -6.3850   23.9460  -30.7580 C   0  0  0  0  0  0  0  0  0  0  0  0
   -6.2410   25.2060  -30.0140 C   0  0  0  0  0  0  0  0  0  0  0  0
   -5.3560   26.2200  -30.4930 N   0  0  0  0  0  0  0  0  0  0  0  0
   -6.9730   25.4420  -29.0140 O   0  0  0  0  0  0  0  0  0  0  0  0
   -7.6200   23.4180  -31.1050 C   0  0  0  0  0  0  0  0  0  0  0  0
   -7.3480   22.2170  -31.7070 C   0  0  0  0  0  0  0  0  0  0  0  0
   -8.2250   21.2900  -32.2660 C   0  0  0  0  0  0  0  0  0  0  0  0
   -7.6740   20.1450  -32.8580 C   0  0  0  0  0  0  0  0  0  0  0  0
   -6.2720   19.9340  -32.8620 C   0  0  0  0  0  0  0  0  0  0  0  0
   -5.6980   18.7330  -33.5760 C   0  0  0  0  0  0  0  0  0  0  0  0
   -4.3430   18.6010  -33.3110 F   0  0  0  0  0  0  0  0  0  0  0  0
   -6.3340   17.5750  -33.1540 F   0  0  0  0  0  0  0  0  0  0  0  0
   -5.8800   18.8820  -34.9400 F   0  0  0  0  0  0  0  0  0  0  0  0
   -5.4160   20.9140  -32.3080 C   0  0  0  0  0  0  0  0  0  0  0  0
   -5.9860   22.0510  -31.7180 C   0  0  0  0  0  0  0  0  0  0  0  0
   -0.6170   24.8820  -28.7320 N   0  0  0  0  0  0  0  0  0  0  0  0
   -0.2218   26.6960  -25.2442 H   0  0  0  0  0  0  0  0  0  0  0  0
   -0.7681   28.3276  -25.7600 H   0  0  0  0  0  0  0  0  0  0  0  0
   -1.9233   26.9520  -25.7600 H   0  0  0  0  0  0  0  0  0  0  0  0
   -0.8287   27.7347  -28.0320 H   0  0  0  0  0  0  0  0  0  0  0  0
    0.6022   26.8175  -27.4352 H   0  0  0  0  0  0  0  0  0  0  0  0
   -2.7824   25.5013  -26.3940 H   0  0  0  0  0  0  0  0  0  0  0  0
   -3.1859   23.1295  -27.6185 H   0  0  0  0  0  0  0  0  0  0  0  0
   -0.6605   22.9422  -30.5964 H   0  0  0  0  0  0  0  0  0  0  0  0
   -0.3876   21.9497  -29.1067 H   0  0  0  0  0  0  0  0  0  0  0  0
   -2.0773   20.7404  -30.1440 H   0  0  0  0  0  0  0  0  0  0  0  0
   -3.0266   21.8412  -29.0724 H   0  0  0  0  0  0  0  0  0  0  0  0
   -5.2560   27.1230  -29.9700 H   0  0  0  0  0  0  0  0  0  0  0  0
   -4.7390   26.0460  -31.3160 H   0  0  0  0  0  0  0  0  0  0  0  0
   -8.6089   23.8681  -30.9333 H   0  0  0  0  0  0  0  0  0  0  0  0
   -9.3129   21.4511  -32.2436 H   0  0  0  0  0  0  0  0  0  0  0  0
   -8.3370   19.4017  -33.3248 H   0  0  0  0  0  0  0  0  0  0  0  0
   -4.3238   20.7866  -32.3394 H   0  0  0  0  0  0  0  0  0  0  0  0
  1  2  1  0
  2  3  1  0
  3  4  1  0
  4  5  2  0
  5  6  1  0
  6  7  1  0
  7  8  1  0
  8  9  1  0
  9 10  1  0
 10 11  2  0
 10 12  1  0
 12 13  1  0
 13 14  1  0
 14 15  1  0
 14 16  2  0
 13 17  2  0
 17 18  1  0
 18 19  2  0
 19 20  1  0
 20 21  2  0
 21 22  1  0
 22 23  1  0
 22 24  1  0
 22 25  1  0
 21 26  1  0
 26 27  2  0
  6 28  2  0
 28  3  1  0
 27 12  1  0
 27 18  1  0
  1 29  1  0
  1 30  1  0
  1 31  1  0
  2 32  1  0
  2 33  1  0
  4 34  1  0
  5 35  1  0
  7 36  1  0
  7 37  1  0
  8 38  1  0
  8 39  1  0
 15 40  1  0
 15 41  1  0
 17 42  1  0
 19 43  1  0
 20 44  1  0
 26 45  1  0
M  END
>  <UniqueID>  (45) 
45

>  <SMILES>  (45) 
CCn1ccc(CCOC(=O)n2c(C(N)=O)cc3ccc(C(F)(F)F)cc32)n1

>  <Energy>  (45) 
107.5741344275774

>  <Genealogy>  (45) 
CCn1ccc(CCOC(=O)n2c(C(N)=O)cc3ccc(C(F)(F)F)cc32)n1 (3D coordinates assigned)
CCn1ccc(CCOC(=O)n2c(C(N)=O)cc3ccc(C(F)(F)F)cc32)n1 (optimized conformer: 107.5741344275774 kcal/mol)

>  <smiles>  (45) 
CCn1ccc(CCOC(=O)n2c(C(N)=O)cc3ccc(C(F)(F)F)cc32)n1

>  <score_type>  (45) 
oracle

>  <origin>  (45) 
adg

>  <m_score__min__energy>  (45) 
-9.1500000000000004

>  <m_primary>  (45) 
energy

$$$$
45:0
     RDKit          3D

 45 47  0  0  0  0  0  0  0  0999 V2000
   -4.4480   13.6790  -31.6300 C   0  0  0  0  0  0  0  0  0  0  0  0
   -4.9290   14.9010  -32.1760 O   0  0  0  0  0  0  0  0  0  0  0  0
   -4.5620   15.3540  -33.4470 C   0  0  0  0  0  0  0  0  0  0  0  0
   -3.3850   15.1830  -33.8690 O   0  0  0  0  0  0  0  0  0  0  0  0
   -5.5780   16.0800  -34.2920 C   0  0  2  0  0  0  0  0  0  0  0  0
   -4.9880   17.3590  -34.9510 C   0  0  0  0  0  0  0  0  0  0  0  0
   -5.6330   18.6650  -34.4560 C   0  0  0  0  0  0  0  0  0  0  0  0
   -5.7980   18.6530  -32.9250 C   0  0  1  0  0  0  0  0  0  0  0  0
   -6.3190   19.9890  -32.4260 C   0  0  0  0  0  0  0  0  0  0  0  0
   -7.7130   20.2500  -32.4280 C   0  0  0  0  0  0  0  0  0  0  0  0
   -8.2160   21.4730  -31.9550 C   0  0  0  0  0  0  0  0  0  0  0  0
   -7.3060   22.4210  -31.4960 C   0  0  0  0  0  0  0  0  0  0  0  0
   -7.5250   23.6700  -30.9650 C   0  0  0  0  0  0  0  0  0  0  0  0
   -6.2590   24.1720  -30.6670 C   0  0  0  0  0  0  0  0  0  0  0  0
   -6.0110   25.5350  -30.1480 C   0  0  0  0  0  0  0  0  0  0  0  0
   -6.5000   25.9280  -28.8640 N   0  0  0  0  0  0  0  0  0  0  0  0
   -5.3890   26.3770  -30.8500 O   0  0  0  0  0  0  0  0  0  0  0  0
   -5.2960   23.2650  -31.0020 N   0  0  0  0  0  0  0  0  0  0  0  0
   -3.8780   23.3820  -30.8010 C   0  0  0  0  0  0  0  0  0  0  0  0
   -3.3000   24.6410  -30.4610 N   0  0  0  0  0  0  0  0  0  0  0  0
   -3.1340   22.3730  -30.9260 O   0  0  0  0  0  0  0  0  0  0  0  0
   -5.9540   22.1970  -31.5070 C   0  0  0  0  0  0  0  0  0  0  0  0
   -5.4260   20.9800  -31.9510 C   0  0  0  0  0  0  0  0  0  0  0  0
   -6.6840   17.4760  -32.4360 C   0  0  0  0  0  0  0  0  0  0  0  0
   -6.8620   16.3590  -33.4820 C   0  0  0  0  0  0  0  0  0  0  0  0
   -4.4698   13.7344  -30.5316 H   0  0  0  0  0  0  0  0  0  0  0  0
   -5.0868   12.8498  -31.9680 H   0  0  0  0  0  0  0  0  0  0  0  0
   -3.4153   13.5077  -31.9680 H   0  0  0  0  0  0  0  0  0  0  0  0
   -5.8576   15.4211  -35.1273 H   0  0  0  0  0  0  0  0  0  0  0  0
   -3.9112   17.3982  -34.7298 H   0  0  0  0  0  0  0  0  0  0  0  0
   -5.1933   17.2883  -36.0293 H   0  0  0  0  0  0  0  0  0  0  0  0
   -4.9936   19.5131  -34.7423 H   0  0  0  0  0  0  0  0  0  0  0  0
   -6.6280   18.7605  -34.9151 H   0  0  0  0  0  0  0  0  0  0  0  0
   -4.7999   18.4929  -32.4913 H   0  0  0  0  0  0  0  0  0  0  0  0
   -8.4085   19.4855  -32.8045 H   0  0  0  0  0  0  0  0  0  0  0  0
   -9.2971   21.6757  -31.9475 H   0  0  0  0  0  0  0  0  0  0  0  0
   -8.4935   24.1676  -30.8085 H   0  0  0  0  0  0  0  0  0  0  0  0
   -6.3560   26.9050  -28.5260 H   0  0  0  0  0  0  0  0  0  0  0  0
   -6.9650   25.2440  -28.2280 H   0  0  0  0  0  0  0  0  0  0  0  0
   -3.4320   25.4750  -31.0750 H   0  0  0  0  0  0  0  0  0  0  0  0
   -4.3415   20.7970  -31.9316 H   0  0  0  0  0  0  0  0  0  0  0  0
   -6.2194   17.0409  -31.5389 H   0  0  0  0  0  0  0  0  0  0  0  0
   -7.6833   17.8885  -32.2329 H   0  0  0  0  0  0  0  0  0  0  0  0
   -7.1557   15.4354  -32.9618 H   0  0  0  0  0  0  0  0  0  0  0  0
   -7.6325   16.6935  -34.1922 H   0  0  0  0  0  0  0  0  0  0  0  0
  1  2  1  0
  2  3  1  0
  3  4  2  0
  3  5  1  0
  5  6  1  0
  6  7  1  0
  7  8  1  0
  8  9  1  0
  9 10  2  0
 10 11  1  0
 11 12  2  0
 12 13  1  0
 13 14  2  0
 14 15  1  0
 15 16  1  0
 15 17  2  0
 14 18  1  0
 18 19  1  0
 19 20  1  0
 19 21  2  0
 18 22  1  0
 22 23  2  0
  8 24  1  0
 24 25  1  0
 25  5  1  0
 23  9  1  0
 22 12  1  0
  1 26  1  0
  1 27  1  0
  1 28  1  0
  5 29  1  6
  6 30  1  0
  6 31  1  0
  7 32  1  0
  7 33  1  0
  8 34  1  1
 10 35  1  0
 11 36  1  0
 13 37  1  0
 16 38  1  0
 16 39  1  0
 20 40  1  0
 23 41  1  0
 24 42  1  0
 24 43  1  0
 25 44  1  0
 25 45  1  0
M  CHG  1  20  -1
M  END
>  <UniqueID>  (46) 
46

>  <SMILES>  (46) 
COC(=O)C1CCC(c2ccc3cc(C(N)=O)n(C([NH-])=O)c3c2)CC1

>  <Energy>  (46) 
87.7084642829417

>  <Genealogy>  (46) 
COC(=O)C1CCC(c2ccc3cc(C(N)=O)n(C([NH-])=O)c3c2)CC1 (protonated)
COC(=O)C1CCC(c2ccc3cc(C(N)=O)n(C([NH-])=O)c3c2)CC1 (3D coordinates assigned)
COC(=O)C1CCC(c2ccc3cc(C(N)=O)n(C([NH-])=O)c3c2)CC1 (nonaromatic ring conformer: 87.7084642829417 kcal/mol)

>  <smiles>  (46) 
COC(=O)C1CCC(c2ccc3cc(C(N)=O)n(C(N)=O)c3c2)CC1

>  <score_type>  (46) 
oracle

>  <origin>  (46) 
adg

>  <m_score__min__energy>  (46) 
-10.15

>  <m_primary>  (46) 
energy

$$$$
46:0
     RDKit          3D

 36 37  0  0  0  0  0  0  0  0999 V2000
   -7.4730   23.4080  -31.9400 C   0  0  0  0  0  0  0  0  0  0  0  0
   -7.0680   22.2720  -32.6930 O   0  0  0  0  0  0  0  0  0  0  0  0
   -7.2110   20.9630  -32.2220 C   0  0  0  0  0  0  0  0  0  0  0  0
   -8.2790   20.6110  -31.6460 O   0  0  0  0  0  0  0  0  0  0  0  0
   -6.0970   19.9600  -32.4680 C   0  0  0  0  0  0  0  0  0  0  0  0
   -6.4150   18.6040  -31.7990 C   0  0  0  0  0  0  0  0  0  0  0  0
   -6.0220   19.7450  -33.9960 C   0  0  0  0  0  0  0  0  0  0  0  0
   -4.7870   20.4970  -31.8650 C   0  0  0  0  0  0  0  0  0  0  0  0
   -3.6100   19.6980  -31.9440 C   0  0  0  0  0  0  0  0  0  0  0  0
   -2.3800   20.1600  -31.4510 C   0  0  0  0  0  0  0  0  0  0  0  0
   -2.3380   21.4270  -30.8860 C   0  0  0  0  0  0  0  0  0  0  0  0
   -1.2760   22.1250  -30.3610 C   0  0  0  0  0  0  0  0  0  0  0  0
   -1.8020   23.3500  -29.9570 C   0  0  0  0  0  0  0  0  0  0  0  0
   -1.0110   24.3850  -29.2580 C   0  0  0  0  0  0  0  0  0  0  0  0
   -1.5890   25.6610  -28.9940 N   0  0  0  0  0  0  0  0  0  0  0  0
    0.1840   24.1680  -28.9240 O   0  0  0  0  0  0  0  0  0  0  0  0
   -3.1380   23.4090  -30.2300 N   0  0  0  0  0  0  0  0  0  0  0  0
   -4.0320   24.5140  -30.0230 C   0  0  0  0  0  0  0  0  0  0  0  0
   -4.9230   24.4560  -29.1360 O   0  0  0  0  0  0  0  0  0  0  0  0
   -3.9060   25.6700  -30.7840 O   0  0  0  0  0  0  0  0  0  0  0  0
   -3.4500   22.2210  -30.7950 C   0  0  0  0  0  0  0  0  0  0  0  0
   -4.6850   21.7970  -31.2970 C   0  0  0  0  0  0  0  0  0  0  0  0
   -7.3930   23.1836  -30.8661 H   0  0  0  0  0  0  0  0  0  0  0  0
   -6.8237   24.2612  -32.1857 H   0  0  0  0  0  0  0  0  0  0  0  0
   -8.5157   23.6580  -32.1857 H   0  0  0  0  0  0  0  0  0  0  0  0
   -6.3879   18.7194  -30.7054 H   0  0  0  0  0  0  0  0  0  0  0  0
   -7.4161   18.2687  -32.1077 H   0  0  0  0  0  0  0  0  0  0  0  0
   -5.6673   17.8586  -32.1077 H   0  0  0  0  0  0  0  0  0  0  0  0
   -5.6663   18.7254  -34.2058 H   0  0  0  0  0  0  0  0  0  0  0  0
   -7.0212   19.8824  -34.4351 H   0  0  0  0  0  0  0  0  0  0  0  0
   -5.3251   20.4741  -34.4351 H   0  0  0  0  0  0  0  0  0  0  0  0
   -3.6666   18.6989  -32.4006 H   0  0  0  0  0  0  0  0  0  0  0  0
   -1.4758   19.5364  -31.5106 H   0  0  0  0  0  0  0  0  0  0  0  0
   -0.2323   21.7876  -30.2777 H   0  0  0  0  0  0  0  0  0  0  0  0
   -2.6240   25.7960  -29.0190 H   0  0  0  0  0  0  0  0  0  0  0  0
   -5.5630   22.4583  -31.2532 H   0  0  0  0  0  0  0  0  0  0  0  0
  1  2  1  0
  2  3  1  0
  3  4  2  0
  3  5  1  0
  5  6  1  0
  5  7  1  0
  5  8  1  0
  8  9  2  0
  9 10  1  0
 10 11  2  0
 11 12  1  0
 12 13  2  0
 13 14  1  0
 14 15  1  0
 14 16  2  0
 13 17  1  0
 17 18  1  0
 18 19  2  0
 18 20  1  0
 17 21  1  0
 21 22  2  0
 22  8  1  0
 21 11  1  0
  1 23  1  0
  1 24  1  0
  1 25  1  0
  6 26  1  0
  6 27  1  0
  6 28  1  0
  7 29  1  0
  7 30  1  0
  7 31  1  0
  9 32  1  0
 10 33  1  0
 12 34  1  0
 15 35  1  0
 22 36  1  0
M  CHG  2  15  -1  20  -1
M  END
>  <UniqueID>  (47) 
47

>  <SMILES>  (47) 
COC(=O)C(C)(C)c1ccc2cc(C([NH-])=O)n(C(=O)[O-])c2c1

>  <Energy>  (47) 
76.05933560506567

>  <Genealogy>  (47) 
COC(=O)C(C)(C)c1ccc2cc(C([NH-])=O)n(C(=O)[O-])c2c1 (protonated)
COC(=O)C(C)(C)c1ccc2cc(C([NH-])=O)n(C(=O)[O-])c2c1 (3D coordinates assigned)
COC(=O)C(C)(C)c1ccc2cc(C([NH-])=O)n(C(=O)[O-])c2c1 (optimized conformer: 76.05933560506567 kcal/mol)

>  <smiles>  (47) 
COC(=O)C(C)(C)c1ccc2cc(C(N)=O)n(C(=O)O)c2c1

>  <score_type>  (47) 
oracle

>  <origin>  (47) 
adg

>  <m_score__min__energy>  (47) 
-10.85

>  <m_primary>  (47) 
energy

$$$$
47:0
     RDKit          3D

 39 40  0  0  0  0  0  0  0  0999 V2000
   -3.0590   25.2920  -30.2680 H   0  0  0  0  0  0  0  0  0  0  0  0
   -3.8660   25.5710  -30.8700 N   0  0  0  0  0  0  0  0  0  0  0  0
   -5.2080   25.3390  -30.4470 C   0  0  0  0  0  0  0  0  0  0  0  0
   -5.7780   26.1890  -29.7130 O   0  0  0  0  0  0  0  0  0  0  0  0
   -5.8960   24.0910  -30.8370 C   0  0  0  0  0  0  0  0  0  0  0  0
   -7.2810   23.9460  -30.8390 C   0  0  0  0  0  0  0  0  0  0  0  0
   -8.0284   24.6820  -30.5078 H   0  0  0  0  0  0  0  0  0  0  0  0
   -7.5170   22.6870  -31.3430 C   0  0  0  0  0  0  0  0  0  0  0  0
   -8.7180   22.0160  -31.5510 C   0  0  0  0  0  0  0  0  0  0  0  0
   -9.6816   22.4963  -31.3259 H   0  0  0  0  0  0  0  0  0  0  0  0
   -8.6630   20.7070  -32.0570 C   0  0  0  0  0  0  0  0  0  0  0  0
   -9.5959   20.1516  -32.2338 H   0  0  0  0  0  0  0  0  0  0  0  0
   -7.4170   20.0950  -32.3420 C   0  0  0  0  0  0  0  0  0  0  0  0
   -7.3640   18.6770  -32.8380 C   0  0  0  0  0  0  0  0  0  0  0  0
   -7.8330   18.0165  -32.0939 H   0  0  0  0  0  0  0  0  0  0  0  0
   -7.9026   18.6170  -33.7952 H   0  0  0  0  0  0  0  0  0  0  0  0
   -5.9420   18.2430  -33.0560 C   0  0  0  0  0  0  0  0  0  0  0  0
   -5.5232   17.4404  -32.4312 H   0  0  0  0  0  0  0  0  0  0  0  0
   -5.1720   18.8120  -33.9950 C   0  0  0  0  0  0  0  0  0  0  0  0
   -5.5885   19.6158  -34.6198 H   0  0  0  0  0  0  0  0  0  0  0  0
   -3.7520   18.3730  -34.2100 C   0  0  0  0  0  0  0  0  0  0  0  0
   -3.5347   17.5160  -33.5555 H   0  0  0  0  0  0  0  0  0  0  0  0
   -3.6233   18.0863  -35.2641 H   0  0  0  0  0  0  0  0  0  0  0  0
   -2.8660   19.4180  -33.9120 O   0  0  0  0  0  0  0  0  0  0  0  0
   -3.3900   20.1050  -33.4230 H   0  0  0  0  0  0  0  0  0  0  0  0
   -6.2170   20.8040  -32.1100 C   0  0  0  0  0  0  0  0  0  0  0  0
   -5.2400   20.3386  -32.3070 H   0  0  0  0  0  0  0  0  0  0  0  0
   -6.3030   22.1140  -31.6230 C   0  0  0  0  0  0  0  0  0  0  0  0
   -5.2970   22.9620  -31.3130 N   0  0  0  0  0  0  0  0  0  0  0  0
   -3.8920   22.6840  -31.4170 C   0  0  0  0  0  0  0  0  0  0  0  0
   -3.4480   22.0580  -32.4200 O   0  0  0  0  0  0  0  0  0  0  0  0
   -3.0190   23.1320  -30.4200 O   0  0  0  0  0  0  0  0  0  0  0  0
   -2.9200   22.5270  -29.1320 C   0  0  0  0  0  0  0  0  0  0  0  0
   -1.8928   22.6433  -28.7560 H   0  0  0  0  0  0  0  0  0  0  0  0
   -3.1745   21.4605  -29.2208 H   0  0  0  0  0  0  0  0  0  0  0  0
   -3.8880   23.1830  -28.1550 C   0  0  0  0  0  0  0  0  0  0  0  0
   -3.5705   22.9678  -27.1240 H   0  0  0  0  0  0  0  0  0  0  0  0
   -3.8923   24.2709  -28.3178 H   0  0  0  0  0  0  0  0  0  0  0  0
   -4.9000   22.7839  -28.3178 H   0  0  0  0  0  0  0  0  0  0  0  0
  1  2  1  0
  2  3  1  0
  3  4  2  0
  3  5  1  0
  5  6  2  0
  6  7  1  0
  6  8  1  0
  8  9  2  0
  9 10  1  0
  9 11  1  0
 11 12  1  0
 11 13  2  0
 13 14  1  0
 14 15  1  0
 14 16  1  0
 14 17  1  0
 17 18  1  0
 17 19  2  0
 19 20  1  0
 19 21  1  0
 21 22  1  0
 21 23  1  0
 21 24  1  0
 24 25  1  0
 13 26  1  0
 26 27  1  0
 26 28  2  0
 28 29  1  0
 29 30  1  0
 30 31  2  0
 30 32  1  0
 32 33  1  0
 33 34  1  0
 33 35  1  0
 33 36  1  0
 36 37  1  0
 36 38  1  0
 36 39  1  0
 29  5  1  0
 28  8  1  0
M  CHG  1   2  -1
M  END
>  <UniqueID>  (48) 
48

>  <SMILES>  (48) 
CCOC(=O)n1c(C([NH-])=O)cc2ccc(C/C=C/CO)cc21

>  <Energy>  (48) 
68.04295765276356

>  <Genealogy>  (48) 
CCOC(=O)n1c(C([NH-])=O)cc2ccc(C/C=C/CO)cc21 (protonated)
CCOC(=O)n1c(C([NH-])=O)cc2ccc(C/C=C/CO)cc21 (cis-trans isomerization)
CCOC(=O)n1c(C([NH-])=O)cc2ccc(C/C=C/CO)cc21 (3D coordinates assigned)
CCOC(=O)n1c(C([NH-])=O)cc2ccc(C/C=C/CO)cc21 (optimized conformer: 68.04295765276356 kcal/mol)

>  <smiles>  (48) 
CCOC(=O)n1c(C(N)=O)cc2ccc(C/C=C/CO)cc21

>  <score_type>  (48) 
oracle

>  <origin>  (48) 
adg

>  <m_score__min__energy>  (48) 
-9.7300000000000004

>  <m_primary>  (48) 
energy

$$$$
48:0
     RDKit          3D

 41 43  0  0  0  0  0  0  0  0999 V2000
   -3.8580   23.1080  -28.2530 C   0  0  0  0  0  0  0  0  0  0  0  0
   -2.8710   22.4740  -29.2270 C   0  0  0  0  0  0  0  0  0  0  0  0
   -2.9420   23.1110  -30.5010 O   0  0  0  0  0  0  0  0  0  0  0  0
   -3.8410   22.7320  -31.5050 C   0  0  0  0  0  0  0  0  0  0  0  0
   -3.4180   22.2160  -32.5760 O   0  0  0  0  0  0  0  0  0  0  0  0
   -5.2480   22.9500  -31.3220 N   0  0  0  0  0  0  0  0  0  0  0  0
   -5.8700   24.0960  -30.9220 C   0  0  0  0  0  0  0  0  0  0  0  0
   -5.1990   25.3220  -30.4410 C   0  0  0  0  0  0  0  0  0  0  0  0
   -3.8670   25.6110  -30.8570 N   0  0  0  0  0  0  0  0  0  0  0  0
   -5.8040   26.1380  -29.6970 O   0  0  0  0  0  0  0  0  0  0  0  0
   -7.2530   23.9360  -30.9470 C   0  0  0  0  0  0  0  0  0  0  0  0
   -7.4630   22.6440  -31.3720 C   0  0  0  0  0  0  0  0  0  0  0  0
   -8.6520   21.9570  -31.5900 C   0  0  0  0  0  0  0  0  0  0  0  0
   -8.5730   20.6350  -32.0600 C   0  0  0  0  0  0  0  0  0  0  0  0
   -7.3130   20.0270  -32.3130 C   0  0  0  0  0  0  0  0  0  0  0  0
   -7.2000   18.6060  -32.8330 C   0  0  2  0  0  0  0  0  0  0  0  0
   -6.4170   17.6520  -31.9340 C   0  0  0  0  0  0  0  0  0  0  0  0
   -5.3560   17.4710  -32.9380 N   0  0  1  0  0  0  0  0  0  0  0  0
   -5.2590   16.0940  -33.4430 C   0  0  0  0  0  0  0  0  0  0  0  0
   -6.0780   18.3770  -33.8440 C   0  0  0  0  0  0  0  0  0  0  0  0
   -6.1300   20.7620  -32.0780 C   0  0  0  0  0  0  0  0  0  0  0  0
   -6.2380   22.0710  -31.5920 C   0  0  0  0  0  0  0  0  0  0  0  0
   -3.5379   22.9024  -27.2209 H   0  0  0  0  0  0  0  0  0  0  0  0
   -3.8887   24.1952  -28.4177 H   0  0  0  0  0  0  0  0  0  0  0  0
   -4.8595   22.6838  -28.4177 H   0  0  0  0  0  0  0  0  0  0  0  0
   -1.8515   22.5782  -28.8273 H   0  0  0  0  0  0  0  0  0  0  0  0
   -3.1261   21.4109  -29.3479 H   0  0  0  0  0  0  0  0  0  0  0  0
   -3.0470   25.2700  -30.3060 H   0  0  0  0  0  0  0  0  0  0  0  0
   -8.0157   24.6835  -30.6831 H   0  0  0  0  0  0  0  0  0  0  0  0
   -9.6250   22.4338  -31.4003 H   0  0  0  0  0  0  0  0  0  0  0  0
   -9.4969   20.0639  -32.2342 H   0  0  0  0  0  0  0  0  0  0  0  0
   -8.2625   18.4594  -33.0773 H   0  0  0  0  0  0  0  0  0  0  0  0
   -6.0643   18.1175  -31.0018 H   0  0  0  0  0  0  0  0  0  0  0  0
   -6.9242   16.7645  -31.5277 H   0  0  0  0  0  0  0  0  0  0  0  0
   -4.4360   17.8640  -32.6250 H   0  0  0  0  0  0  0  0  0  0  0  0
   -5.2098   15.3951  -32.5950 H   0  0  0  0  0  0  0  0  0  0  0  0
   -6.1432   15.8651  -34.0560 H   0  0  0  0  0  0  0  0  0  0  0  0
   -4.3514   15.9913  -34.0560 H   0  0  0  0  0  0  0  0  0  0  0  0
   -5.5165   19.2901  -34.0907 H   0  0  0  0  0  0  0  0  0  0  0  0
   -6.3341   18.0277  -34.8551 H   0  0  0  0  0  0  0  0  0  0  0  0
   -5.1438   20.3153  -32.2728 H   0  0  0  0  0  0  0  0  0  0  0  0
  1  2  1  0
  2  3  1  0
  3  4  1  0
  4  5  2  0
  4  6  1  0
  6  7  1  0
  7  8  1  0
  8  9  1  0
  8 10  2  0
  7 11  2  0
 11 12  1  0
 12 13  2  0
 13 14  1  0
 14 15  2  0
 15 16  1  0
 16 17  1  0
 17 18  1  0
 18 19  1  0
 18 20  1  0
 15 21  1  0
 21 22  2  0
 22  6  1  0
 22 12  1  0
 20 16  1  0
  1 23  1  0
  1 24  1  0
  1 25  1  0
  2 26  1  0
  2 27  1  0
  9 28  1  0
 11 29  1  0
 13 30  1  0
 14 31  1  0
 16 32  1  6
 17 33  1  0
 17 34  1  0
 18 35  1  1
 19 36  1  0
 19 37  1  0
 19 38  1  0
 20 39  1  0
 20 40  1  0
 21 41  1  0
M  CHG  2   9  -1  18   1
M  END
>  <UniqueID>  (49) 
49

>  <SMILES>  (49) 
CCOC(=O)n1c(C([NH-])=O)cc2ccc(C3C[NH+](C)C3)cc21

>  <Energy>  (49) 
150.76582385463828

>  <Genealogy>  (49) 
CCOC(=O)n1c(C([NH-])=O)cc2ccc(C3C[NH+](C)C3)cc21 (protonated)
CCOC(=O)n1c(C([NH-])=O)cc2ccc(C3C[NH+](C)C3)cc21 (3D coordinates assigned)
CCOC(=O)n1c(C([NH-])=O)cc2ccc(C3C[NH+](C)C3)cc21 (nonaromatic ring conformer: 150.76582385463828 kcal/mol)

>  <smiles>  (49) 
CCOC(=O)n1c(C(N)=O)cc2ccc(C3CN(C)C3)cc21

>  <score_type>  (49) 
oracle

>  <origin>  (49) 
adg

>  <m_score__min__energy>  (49) 
-10.130000000000001

>  <m_primary>  (49) 
energy

$$$$
49:0
     RDKit          3D

 30 31  0  0  0  0  0  0  0  0999 V2000
   -3.2790   23.9880  -30.8010 N   0  0  0  0  0  0  0  0  0  0  0  0
   -4.0320   22.8620  -31.2450 C   0  0  0  0  0  0  0  0  0  0  0  0
   -3.4290   21.8190  -31.6150 O   0  0  0  0  0  0  0  0  0  0  0  0
   -5.4690   22.9030  -31.2440 N   0  0  0  0  0  0  0  0  0  0  0  0
   -6.2720   23.8960  -30.7640 C   0  0  0  0  0  0  0  0  0  0  0  0
   -5.8120   25.2190  -30.2880 C   0  0  0  0  0  0  0  0  0  0  0  0
   -6.0780   25.6480  -28.9520 N   0  0  0  0  0  0  0  0  0  0  0  0
   -5.2070   25.9980  -31.0730 O   0  0  0  0  0  0  0  0  0  0  0  0
   -7.6140   23.5360  -30.8770 C   0  0  0  0  0  0  0  0  0  0  0  0
   -7.6090   22.2830  -31.4470 C   0  0  0  0  0  0  0  0  0  0  0  0
   -8.6710   21.4500  -31.7840 C   0  0  0  0  0  0  0  0  0  0  0  0
   -8.3730   20.1970  -32.3450 C   0  0  0  0  0  0  0  0  0  0  0  0
   -7.0270   19.7980  -32.5460 C   0  0  0  0  0  0  0  0  0  0  0  0
   -6.7180   18.4610  -33.1670 C   0  0  0  0  0  0  0  0  0  0  0  0
   -5.5940   18.5700  -34.2000 C   0  0  0  0  0  0  0  0  0  0  0  0
   -6.1090   18.8920  -35.4640 O   0  0  0  0  0  0  0  0  0  0  0  0
   -5.9750   20.6760  -32.2000 C   0  0  0  0  0  0  0  0  0  0  0  0
   -6.3030   21.9240  -31.6590 C   0  0  0  0  0  0  0  0  0  0  0  0
   -3.4200   24.9300  -31.2280 H   0  0  0  0  0  0  0  0  0  0  0  0
   -5.7840   26.5990  -28.6390 H   0  0  0  0  0  0  0  0  0  0  0  0
   -6.5300   25.0120  -28.2590 H   0  0  0  0  0  0  0  0  0  0  0  0
   -8.4908   24.1276  -30.5748 H   0  0  0  0  0  0  0  0  0  0  0  0
   -9.7122   21.7629  -31.6163 H   0  0  0  0  0  0  0  0  0  0  0  0
   -9.1909   19.5193  -32.6309 H   0  0  0  0  0  0  0  0  0  0  0  0
   -6.4099   17.7617  -32.3757 H   0  0  0  0  0  0  0  0  0  0  0  0
   -7.6228   18.0997  -33.6776 H   0  0  0  0  0  0  0  0  0  0  0  0
   -4.8908   19.3555  -33.8863 H   0  0  0  0  0  0  0  0  0  0  0  0
   -5.0799   17.5998  -34.2654 H   0  0  0  0  0  0  0  0  0  0  0  0
   -6.9340   19.4210  -35.3110 H   0  0  0  0  0  0  0  0  0  0  0  0
   -4.9250   20.3856  -32.3521 H   0  0  0  0  0  0  0  0  0  0  0  0
  1  2  1  0
  2  3  2  0
  2  4  1  0
  4  5  1  0
  5  6  1  0
  6  7  1  0
  6  8  2  0
  5  9  2  0
  9 10  1  0
 10 11  2  0
 11 12  1  0
 12 13  2  0
 13 14  1  0
 14 15  1  0
 15 16  1  0
 13 17  1  0
 17 18  2  0
 18  4  1  0
 18 10  1  0
  1 19  1  0
  7 20  1  0
  7 21  1  0
  9 22  1  0
 11 23  1  0
 12 24  1  0
 14 25  1  0
 14 26  1  0
 15 27  1  0
 15 28  1  0
 16 29  1  0
 17 30  1  0
M  CHG  1   1  -1
M  END
>  <UniqueID>  (50) 
50

>  <SMILES>  (50) 
[NH-]C(=O)n1c(C(N)=O)cc2ccc(CCO)cc21

>  <Energy>  (50) 
66.33822486299822

>  <Genealogy>  (50) 
[NH-]C(=O)n1c(C(N)=O)cc2ccc(CCO)cc21 (protonated)
[NH-]C(=O)n1c(C(N)=O)cc2ccc(CCO)cc21 (3D coordinates assigned)
[NH-]C(=O)n1c(C(N)=O)cc2ccc(CCO)cc21 (optimized conformer: 66.33822486299822 kcal/mol)

>  <smiles>  (50) 
NC(=O)c1cc2ccc(CCO)cc2n1C(N)=O

>  <score_type>  (50) 
oracle

>  <origin>  (50) 
adg

>  <m_score__min__energy>  (50) 
-8.4900000000000002

>  <m_primary>  (50) 
energy

$$$$
50:0
     RDKit          3D

 33 34  0  0  0  0  0  0  0  0999 V2000
   -8.6700   18.5520  -31.2460 C   0  0  0  0  0  0  0  0  0  0  0  0
   -8.9200   19.5180  -32.3650 C   0  0  0  0  0  0  0  0  0  0  0  0
   -9.8800   19.3570  -33.1030 O   0  0  0  0  0  0  0  0  0  0  0  0
   -8.0020   20.6930  -32.5760 C   0  0  0  0  0  0  0  0  0  0  0  0
   -6.8120   20.3310  -33.4740 C   0  0  0  0  0  0  0  0  0  0  0  0
   -5.5000   20.6910  -32.8270 C   0  0  0  0  0  0  0  0  0  0  0  0
   -4.3850   19.8220  -32.9430 C   0  0  0  0  0  0  0  0  0  0  0  0
   -3.1680   20.1330  -32.3140 C   0  0  0  0  0  0  0  0  0  0  0  0
   -3.0990   21.3070  -31.5700 C   0  0  0  0  0  0  0  0  0  0  0  0
   -2.0440   21.8540  -30.8770 C   0  0  0  0  0  0  0  0  0  0  0  0
   -2.5390   23.0330  -30.3220 C   0  0  0  0  0  0  0  0  0  0  0  0
   -1.7540   23.8950  -29.4140 C   0  0  0  0  0  0  0  0  0  0  0  0
   -2.0010   25.2960  -29.3390 N   0  0  0  0  0  0  0  0  0  0  0  0
   -0.8890   23.3790  -28.6570 O   0  0  0  0  0  0  0  0  0  0  0  0
   -3.8460   23.2130  -30.6660 N   0  0  0  0  0  0  0  0  0  0  0  0
   -4.6870   24.3400  -30.3760 C   0  0  0  0  0  0  0  0  0  0  0  0
   -4.3420   25.6360  -30.8590 N   0  0  0  0  0  0  0  0  0  0  0  0
   -5.7510   24.1830  -29.7190 O   0  0  0  0  0  0  0  0  0  0  0  0
   -4.1750   22.1450  -31.4280 C   0  0  0  0  0  0  0  0  0  0  0  0
   -5.3940   21.8700  -32.0570 C   0  0  0  0  0  0  0  0  0  0  0  0
   -8.8028   19.0651  -30.2821 H   0  0  0  0  0  0  0  0  0  0  0  0
   -9.3814   17.7160  -31.3174 H   0  0  0  0  0  0  0  0  0  0  0  0
   -7.6424   18.1661  -31.3174 H   0  0  0  0  0  0  0  0  0  0  0  0
   -8.5697   21.5083  -33.0483 H   0  0  0  0  0  0  0  0  0  0  0  0
   -7.6097   21.0013  -31.5957 H   0  0  0  0  0  0  0  0  0  0  0  0
   -6.8285   19.2487  -33.6696 H   0  0  0  0  0  0  0  0  0  0  0  0
   -6.9017   20.9007  -34.4107 H   0  0  0  0  0  0  0  0  0  0  0  0
   -4.4740   18.8964  -33.5307 H   0  0  0  0  0  0  0  0  0  0  0  0
   -2.2961   19.4687  -32.4067 H   0  0  0  0  0  0  0  0  0  0  0  0
   -1.0264   21.4475  -30.7812 H   0  0  0  0  0  0  0  0  0  0  0  0
   -2.9750   25.6710  -29.3350 H   0  0  0  0  0  0  0  0  0  0  0  0
   -3.3440   25.9080  -31.0010 H   0  0  0  0  0  0  0  0  0  0  0  0
   -6.2485   22.5550  -31.9543 H   0  0  0  0  0  0  0  0  0  0  0  0
  1  2  1  0
  2  3  2  0
  2  4  1  0
  4  5  1  0
  5  6  1  0
  6  7  2  0
  7  8  1  0
  8  9  2  0
  9 10  1  0
 10 11  2  0
 11 12  1  0
 12 13  1  0
 12 14  2  0
 11 15  1  0
 15 16  1  0
 16 17  1  0
 16 18  2  0
 15 19  1  0
 19 20  2  0
 20  6  1  0
 19  9  1  0
  1 21  1  0
  1 22  1  0
  1 23  1  0
  4 24  1  0
  4 25  1  0
  5 26  1  0
  5 27  1  0
  7 28  1  0
  8 29  1  0
 10 30  1  0
 13 31  1  0
 17 32  1  0
 20 33  1  0
M  CHG  2  13  -1  17  -1
M  END
>  <UniqueID>  (51) 
51

>  <SMILES>  (51) 
CC(=O)CCc1ccc2cc(C([NH-])=O)n(C([NH-])=O)c2c1

>  <Energy>  (51) 
66.41885096799918

>  <Genealogy>  (51) 
CC(=O)CCc1ccc2cc(C([NH-])=O)n(C([NH-])=O)c2c1 (protonated)
CC(=O)CCc1ccc2cc(C([NH-])=O)n(C([NH-])=O)c2c1 (3D coordinates assigned)
CC(=O)CCc1ccc2cc(C([NH-])=O)n(C([NH-])=O)c2c1 (optimized conformer: 66.41885096799918 kcal/mol)

>  <smiles>  (51) 
CC(=O)CCc1ccc2cc(C(N)=O)n(C(N)=O)c2c1

>  <score_type>  (51) 
oracle

>  <origin>  (51) 
adg

>  <m_score__min__energy>  (51) 
-10.75

>  <m_primary>  (51) 
energy

$$$$
51:0
     RDKit          3D

 44 46  0  0  0  0  0  0  0  0999 V2000
   -4.2310   24.1310  -27.3790 C   0  0  0  0  0  0  0  0  0  0  0  0
   -4.8200   23.9620  -28.6620 O   0  0  0  0  0  0  0  0  0  0  0  0
   -4.1050   24.1320  -29.8510 C   0  0  0  0  0  0  0  0  0  0  0  0
   -4.3490   25.1140  -30.6040 O   0  0  0  0  0  0  0  0  0  0  0  0
   -3.1090   23.1680  -30.2260 N   0  0  0  0  0  0  0  0  0  0  0  0
   -1.7590   23.2370  -30.0410 C   0  0  0  0  0  0  0  0  0  0  0  0
   -1.0360   24.2890  -29.2950 C   0  0  0  0  0  0  0  0  0  0  0  0
   -1.6630   25.5470  -29.0560 N   0  0  0  0  0  0  0  0  0  0  0  0
    0.1440   24.1020  -28.8970 O   0  0  0  0  0  0  0  0  0  0  0  0
   -1.1360   22.1190  -30.5890 C   0  0  0  0  0  0  0  0  0  0  0  0
   -2.1520   21.3520  -31.1100 C   0  0  0  0  0  0  0  0  0  0  0  0
   -2.1010   20.1400  -31.7830 C   0  0  0  0  0  0  0  0  0  0  0  0
   -3.3070   19.5800  -32.2370 C   0  0  0  0  0  0  0  0  0  0  0  0
   -4.5620   20.2310  -32.0060 C   0  0  0  0  0  0  0  0  0  0  0  0
   -5.8410   19.6990  -32.5140 N   0  0  0  0  0  0  0  0  0  0  0  0
   -6.1940   18.3740  -31.9390 C   0  0  0  0  0  0  0  0  0  0  0  0
   -5.6740   19.5240  -33.9800 C   0  0  0  0  0  0  0  0  0  0  0  0
   -6.9380   20.6200  -32.1560 C   0  0  0  0  0  0  0  0  0  0  0  0
   -6.9410   21.9400  -32.6750 C   0  0  0  0  0  0  0  0  0  0  0  0
   -7.9520   22.8460  -32.3480 C   0  0  0  0  0  0  0  0  0  0  0  0
   -8.9750   22.4690  -31.4790 C   0  0  0  0  0  0  0  0  0  0  0  0
   -8.9850   21.1880  -30.9310 C   0  0  0  0  0  0  0  0  0  0  0  0
   -7.9780   20.2730  -31.2530 C   0  0  0  0  0  0  0  0  0  0  0  0
   -4.5450   21.4910  -31.3410 C   0  0  0  0  0  0  0  0  0  0  0  0
   -3.3300   22.0060  -30.8800 C   0  0  0  0  0  0  0  0  0  0  0  0
   -4.9786   23.9165  -26.6012 H   0  0  0  0  0  0  0  0  0  0  0  0
   -3.3816   23.4403  -27.2716 H   0  0  0  0  0  0  0  0  0  0  0  0
   -3.8770   25.1669  -27.2716 H   0  0  0  0  0  0  0  0  0  0  0  0
   -2.6840   25.6800  -29.2360 H   0  0  0  0  0  0  0  0  0  0  0  0
   -0.0589   21.8962  -30.6025 H   0  0  0  0  0  0  0  0  0  0  0  0
   -1.1416   19.6307  -31.9567 H   0  0  0  0  0  0  0  0  0  0  0  0
   -3.2871   18.6236  -32.7801 H   0  0  0  0  0  0  0  0  0  0  0  0
   -6.1778   18.4348  -30.8408 H   0  0  0  0  0  0  0  0  0  0  0  0
   -7.2005   18.0847  -32.2754 H   0  0  0  0  0  0  0  0  0  0  0  0
   -5.4648   17.6223  -32.2754 H   0  0  0  0  0  0  0  0  0  0  0  0
   -4.9264   18.7405  -34.1729 H   0  0  0  0  0  0  0  0  0  0  0  0
   -6.6358   19.2309  -34.4262 H   0  0  0  0  0  0  0  0  0  0  0  0
   -5.3362   20.4710  -34.4262 H   0  0  0  0  0  0  0  0  0  0  0  0
   -6.1308   22.2563  -33.3485 H   0  0  0  0  0  0  0  0  0  0  0  0
   -7.9413   23.8589  -32.7768 H   0  0  0  0  0  0  0  0  0  0  0  0
   -9.7734   23.1822  -31.2263 H   0  0  0  0  0  0  0  0  0  0  0  0
   -9.7899   20.8948  -30.2409 H   0  0  0  0  0  0  0  0  0  0  0  0
   -7.9914   19.2704  -30.8007 H   0  0  0  0  0  0  0  0  0  0  0  0
   -5.4788   22.0529  -31.1918 H   0  0  0  0  0  0  0  0  0  0  0  0
  1  2  1  0
  2  3  1  0
  3  4  2  0
  3  5  1  0
  5  6  1  0
  6  7  1  0
  7  8  1  0
  7  9  2  0
  6 10  2  0
 10 11  1  0
 11 12  2  0
 12 13  1  0
 13 14  2  0
 14 15  1  0
 15 16  1  0
 15 17  1  0
 15 18  1  0
 18 19  2  0
 19 20  1  0
 20 21  2  0
 21 22  1  0
 22 23  2  0
 14 24  1  0
 24 25  2  0
 25  5  1  0
 25 11  1  0
 23 18  1  0
  1 26  1  0
  1 27  1  0
  1 28  1  0
  8 29  1  0
 10 30  1  0
 12 31  1  0
 13 32  1  0
 16 33  1  0
 16 34  1  0
 16 35  1  0
 17 36  1  0
 17 37  1  0
 17 38  1  0
 19 39  1  0
 20 40  1  0
 21 41  1  0
 22 42  1  0
 23 43  1  0
 24 44  1  0
M  CHG  2   8  -1  15   1
M  END
>  <UniqueID>  (52) 
52

>  <SMILES>  (52) 
COC(=O)n1c(C([NH-])=O)cc2ccc([N+](C)(C)c3ccccc3)cc21

>  <Energy>  (52) 
102.94941624455956

>  <Genealogy>  (52) 
COC(=O)n1c(C([NH-])=O)cc2ccc([N+](C)(C)c3ccccc3)cc21 (protonated)
COC(=O)n1c(C([NH-])=O)cc2ccc([N+](C)(C)c3ccccc3)cc21 (3D coordinates assigned)
COC(=O)n1c(C([NH-])=O)cc2ccc([N+](C)(C)c3ccccc3)cc21 (optimized conformer: 102.94941624455956 kcal/mol)

>  <smiles>  (52) 
COC(=O)n1c(C(N)=O)cc2ccc([N+](C)(C)c3ccccc3)cc21

>  <score_type>  (52) 
oracle

>  <origin>  (52) 
adg

>  <m_score__min__energy>  (52) 
-10.109999999999999

>  <m_primary>  (52) 
energy

$$$$
52:0
     RDKit          3D

 36 37  0  0  0  0  0  0  0  0999 V2000
   -9.0670   21.6120  -31.1200 C   0  0  0  0  0  0  0  0  0  0  0  0
   -9.1900   20.6520  -32.3050 C   0  0  0  0  0  0  0  0  0  0  0  0
   -8.5690   19.2790  -32.0090 C   0  0  0  0  0  0  0  0  0  0  0  0
   -7.2090   19.0690  -32.7160 C   0  0  0  0  0  0  0  0  0  0  0  0
   -6.6310   20.3690  -33.2970 C   0  0  0  0  0  0  0  0  0  0  0  0
   -5.2990   20.7120  -32.6790 C   0  0  0  0  0  0  0  0  0  0  0  0
   -4.2100   19.8120  -32.7800 C   0  0  0  0  0  0  0  0  0  0  0  0
   -2.9770   20.1100  -32.1770 C   0  0  0  0  0  0  0  0  0  0  0  0
   -2.8670   21.3070  -31.4750 C   0  0  0  0  0  0  0  0  0  0  0  0
   -1.7890   21.8470  -30.8120 C   0  0  0  0  0  0  0  0  0  0  0  0
   -2.2420   23.0590  -30.2960 C   0  0  0  0  0  0  0  0  0  0  0  0
   -1.4220   23.9290  -29.4280 C   0  0  0  0  0  0  0  0  0  0  0  0
   -1.7140   25.3180  -29.2940 N   0  0  0  0  0  0  0  0  0  0  0  0
   -0.4810   23.4300  -28.7550 O   0  0  0  0  0  0  0  0  0  0  0  0
   -3.5470   23.2660  -30.6340 N   0  0  0  0  0  0  0  0  0  0  0  0
   -4.3490   24.4280  -30.3720 C   0  0  0  0  0  0  0  0  0  0  0  0
   -5.4310   24.3250  -29.7360 O   0  0  0  0  0  0  0  0  0  0  0  0
   -3.9520   25.6740  -30.8410 O   0  0  0  0  0  0  0  0  0  0  0  0
   -3.9140   22.1830  -31.3540 C   0  0  0  0  0  0  0  0  0  0  0  0
   -5.1470   21.9210  -31.9640 C   0  0  0  0  0  0  0  0  0  0  0  0
   -9.1396   21.0453  -30.1800 H   0  0  0  0  0  0  0  0  0  0  0  0
   -8.0956   22.1263  -31.1640 H   0  0  0  0  0  0  0  0  0  0  0  0
   -9.8773   22.3546  -31.1640 H   0  0  0  0  0  0  0  0  0  0  0  0
  -10.2558   20.5150  -32.5402 H   0  0  0  0  0  0  0  0  0  0  0  0
   -8.6450   21.0923  -33.1530 H   0  0  0  0  0  0  0  0  0  0  0  0
   -8.4179   19.1887  -30.9232 H   0  0  0  0  0  0  0  0  0  0  0  0
   -9.2613   18.5141  -32.3906 H   0  0  0  0  0  0  0  0  0  0  0  0
   -6.4933   18.6616  -31.9867 H   0  0  0  0  0  0  0  0  0  0  0  0
   -7.3760   18.3776  -33.5551 H   0  0  0  0  0  0  0  0  0  0  0  0
   -6.4997   20.2470  -34.3823 H   0  0  0  0  0  0  0  0  0  0  0  0
   -7.3330   21.1861  -33.0744 H   0  0  0  0  0  0  0  0  0  0  0  0
   -4.3311   18.8706  -33.3360 H   0  0  0  0  0  0  0  0  0  0  0  0
   -2.1248   19.4190  -32.2570 H   0  0  0  0  0  0  0  0  0  0  0  0
   -0.7830   21.4136  -30.7109 H   0  0  0  0  0  0  0  0  0  0  0  0
   -2.6980   25.6650  -29.3280 H   0  0  0  0  0  0  0  0  0  0  0  0
   -5.9769   22.6390  -31.8883 H   0  0  0  0  0  0  0  0  0  0  0  0
  1  2  1  0
  2  3  1  0
  3  4  1  0
  4  5  1  0
  5  6  1  0
  6  7  2  0
  7  8  1  0
  8  9  2  0
  9 10  1  0
 10 11  2  0
 11 12  1  0
 12 13  1  0
 12 14  2  0
 11 15  1  0
 15 16  1  0
 16 17  2  0
 16 18  1  0
 15 19  1  0
 19 20  2  0
 20  6  1  0
 19  9  1  0
  1 21  1  0
  1 22  1  0
  1 23  1  0
  2 24  1  0
  2 25  1  0
  3 26  1  0
  3 27  1  0
  4 28  1  0
  4 29  1  0
  5 30  1  0
  5 31  1  0
  7 32  1  0
  8 33  1  0
 10 34  1  0
 13 35  1  0
 20 36  1  0
M  CHG  2  13  -1  18  -1
M  END
>  <UniqueID>  (53) 
53

>  <SMILES>  (53) 
CCCCCc1ccc2cc(C([NH-])=O)n(C(=O)[O-])c2c1

>  <Energy>  (53) 
69.67920885099072

>  <Genealogy>  (53) 
CCCCCc1ccc2cc(C([NH-])=O)n(C(=O)[O-])c2c1 (protonated)
CCCCCc1ccc2cc(C([NH-])=O)n(C(=O)[O-])c2c1 (3D coordinates assigned)
CCCCCc1ccc2cc(C([NH-])=O)n(C(=O)[O-])c2c1 (optimized conformer: 69.67920885099072 kcal/mol)

>  <smiles>  (53) 
CCCCCc1ccc2cc(C(N)=O)n(C(=O)O)c2c1

>  <score_type>  (53) 
oracle

>  <origin>  (53) 
adg

>  <m_score__min__energy>  (53) 
-11.039999999999999

>  <m_primary>  (53) 
energy

$$$$
53:0
     RDKit          3D

 32 34  0  0  0  0  0  0  0  0999 V2000
   -1.6090   25.6570  -29.2660 N   0  0  0  0  0  0  0  0  0  0  0  0
   -0.8980   24.4270  -29.1640 C   0  0  0  0  0  0  0  0  0  0  0  0
    0.1760   24.3870  -28.5060 O   0  0  0  0  0  0  0  0  0  0  0  0
   -1.3710   23.2160  -29.8650 C   0  0  0  0  0  0  0  0  0  0  0  0
   -0.5330   22.1610  -30.2230 C   0  0  0  0  0  0  0  0  0  0  0  0
   -1.3280   21.2880  -30.9310 C   0  0  0  0  0  0  0  0  0  0  0  0
   -1.0130   20.0670  -31.5190 C   0  0  0  0  0  0  0  0  0  0  0  0
   -2.0410   19.3640  -32.1680 C   0  0  0  0  0  0  0  0  0  0  0  0
   -3.3610   19.8830  -32.2150 C   0  0  0  0  0  0  0  0  0  0  0  0
   -4.4420   19.1250  -32.8940 C   0  0  0  0  0  0  0  0  0  0  0  0
   -4.2390   18.5860  -34.1780 C   0  0  0  0  0  0  0  0  0  0  0  0
   -5.2580   17.8730  -34.8170 C   0  0  0  0  0  0  0  0  0  0  0  0
   -6.4890   17.6880  -34.1820 C   0  0  0  0  0  0  0  0  0  0  0  0
   -6.7020   18.2160  -32.9070 C   0  0  0  0  0  0  0  0  0  0  0  0
   -7.8950   18.0320  -32.2890 F   0  0  0  0  0  0  0  0  0  0  0  0
   -5.6870   18.9320  -32.2640 C   0  0  0  0  0  0  0  0  0  0  0  0
   -3.6390   21.1300  -31.6030 C   0  0  0  0  0  0  0  0  0  0  0  0
   -2.5910   21.8160  -30.9790 C   0  0  0  0  0  0  0  0  0  0  0  0
   -2.6360   22.9990  -30.3260 N   0  0  0  0  0  0  0  0  0  0  0  0
   -3.8080   23.7950  -30.0890 C   0  0  0  0  0  0  0  0  0  0  0  0
   -3.9220   25.0930  -30.6680 N   0  0  0  0  0  0  0  0  0  0  0  0
   -4.7280   23.3620  -29.3460 O   0  0  0  0  0  0  0  0  0  0  0  0
   -2.6510   25.6710  -29.3240 H   0  0  0  0  0  0  0  0  0  0  0  0
    0.5361   22.0497  -29.9894 H   0  0  0  0  0  0  0  0  0  0  0  0
    0.0099   19.6646  -31.4768 H   0  0  0  0  0  0  0  0  0  0  0  0
   -1.8201   18.3983  -32.6462 H   0  0  0  0  0  0  0  0  0  0  0  0
   -3.2717   18.7266  -34.6826 H   0  0  0  0  0  0  0  0  0  0  0  0
   -5.0904   17.4569  -35.8214 H   0  0  0  0  0  0  0  0  0  0  0  0
   -7.2896   17.1269  -34.6862 H   0  0  0  0  0  0  0  0  0  0  0  0
   -5.8620   19.3468  -31.2604 H   0  0  0  0  0  0  0  0  0  0  0  0
   -4.6557   21.5496  -31.6180 H   0  0  0  0  0  0  0  0  0  0  0  0
   -3.0720   25.6610  -30.8810 H   0  0  0  0  0  0  0  0  0  0  0  0
  1  2  1  0
  2  3  2  0
  2  4  1  0
  4  5  2  0
  5  6  1  0
  6  7  2  0
  7  8  1  0
  8  9  2  0
  9 10  1  0
 10 11  2  0
 11 12  1  0
 12 13  2  0
 13 14  1  0
 14 15  1  0
 14 16  2  0
  9 17  1  0
 17 18  2  0
 18 19  1  0
 19 20  1  0
 20 21  1  0
 20 22  2  0
 19  4  1  0
 18  6  1  0
 16 10  1  0
  1 23  1  0
  5 24  1  0
  7 25  1  0
  8 26  1  0
 11 27  1  0
 12 28  1  0
 13 29  1  0
 16 30  1  0
 17 31  1  0
 21 32  1  0
M  CHG  2   1  -1  21  -1
M  END
>  <UniqueID>  (54) 
54

>  <SMILES>  (54) 
[NH-]C(=O)c1cc2ccc(-c3cccc(F)c3)cc2n1C([NH-])=O

>  <Energy>  (54) 
79.72447820091305

>  <Genealogy>  (54) 
[NH-]C(=O)c1cc2ccc(-c3cccc(F)c3)cc2n1C([NH-])=O (protonated)
[NH-]C(=O)c1cc2ccc(-c3cccc(F)c3)cc2n1C([NH-])=O (3D coordinates assigned)
[NH-]C(=O)c1cc2ccc(-c3cccc(F)c3)cc2n1C([NH-])=O (optimized conformer: 79.72447820091305 kcal/mol)

>  <smiles>  (54) 
NC(=O)c1cc2ccc(-c3cccc(F)c3)cc2n1C(N)=O

>  <score_type>  (54) 
oracle

>  <origin>  (54) 
adg

>  <m_score__min__energy>  (54) 
-11.19

>  <m_primary>  (54) 
energy

$$$$
54:0
     RDKit          3D

 44 46  0  0  0  0  0  0  0  0999 V2000
   -1.4820   25.8740  -28.9640 N   0  0  0  0  0  0  0  0  0  0  0  0
   -2.2460   24.7410  -28.5570 C   0  0  0  0  0  0  0  0  0  0  0  0
   -2.7250   24.7050  -27.3940 O   0  0  0  0  0  0  0  0  0  0  0  0
   -2.4920   23.6410  -29.5130 C   0  0  0  0  0  0  0  0  0  0  0  0
   -1.6230   22.5660  -29.6940 C   0  0  0  0  0  0  0  0  0  0  0  0
   -2.1790   21.8130  -30.7030 C   0  0  0  0  0  0  0  0  0  0  0  0
   -1.7460   20.6180  -31.2720 C   0  0  0  0  0  0  0  0  0  0  0  0
   -2.5430   20.0390  -32.2730 C   0  0  0  0  0  0  0  0  0  0  0  0
   -3.7480   20.6590  -32.6860 C   0  0  0  0  0  0  0  0  0  0  0  0
   -4.6190   20.0010  -33.7230 C   0  0  0  0  0  0  0  0  0  0  0  0
   -5.4610   18.8850  -33.0920 C   0  0  0  0  0  0  0  0  0  0  0  0
   -6.8730   19.2980  -32.9360 N   0  0  0  0  0  0  0  0  0  0  0  0
   -6.9700   20.4440  -32.0100 C   0  0  0  0  0  0  0  0  0  0  0  0
   -8.3860   21.0490  -32.0450 C   0  0  0  0  0  0  0  0  0  0  0  0
   -9.4590   20.0150  -32.4190 C   0  0  0  0  0  0  0  0  0  0  0  0
   -9.0810   18.6270  -31.9010 C   0  0  0  0  0  0  0  0  0  0  0  0
   -7.7210   18.1690  -32.4720 C   0  0  0  0  0  0  0  0  0  0  0  0
   -4.1620   21.8650  -32.0770 C   0  0  0  0  0  0  0  0  0  0  0  0
   -3.3390   22.4290  -31.0960 C   0  0  0  0  0  0  0  0  0  0  0  0
   -3.5440   23.5530  -30.3760 N   0  0  0  0  0  0  0  0  0  0  0  0
   -4.6790   24.4290  -30.4720 C   0  0  0  0  0  0  0  0  0  0  0  0
   -5.0410   25.2650  -29.3730 N   0  0  0  0  0  0  0  0  0  0  0  0
   -5.3560   24.4680  -31.5330 O   0  0  0  0  0  0  0  0  0  0  0  0
   -1.2370   26.0230  -29.9680 H   0  0  0  0  0  0  0  0  0  0  0  0
   -0.6908   22.3628  -29.1466 H   0  0  0  0  0  0  0  0  0  0  0  0
   -0.8088   20.1423  -30.9475 H   0  0  0  0  0  0  0  0  0  0  0  0
   -2.2284   19.0946  -32.7411 H   0  0  0  0  0  0  0  0  0  0  0  0
   -5.2889   20.7543  -34.1631 H   0  0  0  0  0  0  0  0  0  0  0  0
   -3.9755   19.5632  -34.5003 H   0  0  0  0  0  0  0  0  0  0  0  0
   -5.4174   17.9952  -33.7372 H   0  0  0  0  0  0  0  0  0  0  0  0
   -5.0523   18.6640  -32.0949 H   0  0  0  0  0  0  0  0  0  0  0  0
   -6.7473   20.1032  -30.9881 H   0  0  0  0  0  0  0  0  0  0  0  0
   -6.2473   21.2132  -32.3198 H   0  0  0  0  0  0  0  0  0  0  0  0
   -8.6202   21.4563  -31.0504 H   0  0  0  0  0  0  0  0  0  0  0  0
   -8.3951   21.8336  -32.8159 H   0  0  0  0  0  0  0  0  0  0  0  0
  -10.4196   20.3159  -31.9755 H   0  0  0  0  0  0  0  0  0  0  0  0
   -9.5395   19.9718  -33.5152 H   0  0  0  0  0  0  0  0  0  0  0  0
   -9.0169   18.6589  -30.8033 H   0  0  0  0  0  0  0  0  0  0  0  0
   -9.8527   17.9127  -32.2239 H   0  0  0  0  0  0  0  0  0  0  0  0
   -7.1777   17.6229  -31.6867 H   0  0  0  0  0  0  0  0  0  0  0  0
   -7.9294   17.5347  -33.3462 H   0  0  0  0  0  0  0  0  0  0  0  0
   -5.1069   22.3480  -32.3667 H   0  0  0  0  0  0  0  0  0  0  0  0
   -5.8470   25.9240  -29.4560 H   0  0  0  0  0  0  0  0  0  0  0  0
   -4.5330   25.1960  -28.4640 H   0  0  0  0  0  0  0  0  0  0  0  0
  1  2  1  0
  2  3  2  0
  2  4  1  0
  4  5  2  0
  5  6  1  0
  6  7  2  0
  7  8  1  0
  8  9  2  0
  9 10  1  0
 10 11  1  0
 11 12  1  0
 12 13  1  0
 13 14  1  0
 14 15  1  0
 15 16  1  0
 16 17  1  0
  9 18  1  0
 18 19  2  0
 19 20  1  0
 20 21  1  0
 21 22  1  0
 21 23  2  0
 20  4  1  0
 19  6  1  0
 17 12  1  0
  1 24  1  0
  5 25  1  0
  7 26  1  0
  8 27  1  0
 10 28  1  0
 10 29  1  0
 11 30  1  0
 11 31  1  0
 13 32  1  0
 13 33  1  0
 14 34  1  0
 14 35  1  0
 15 36  1  0
 15 37  1  0
 16 38  1  0
 16 39  1  0
 17 40  1  0
 17 41  1  0
 18 42  1  0
 22 43  1  0
 22 44  1  0
M  CHG  1   1  -1
M  END
>  <UniqueID>  (55) 
55

>  <SMILES>  (55) 
[NH-]C(=O)c1cc2ccc(CCN3CCCCC3)cc2n1C(N)=O

>  <Energy>  (55) 
86.13322580947668

>  <Genealogy>  (55) 
[NH-]C(=O)c1cc2ccc(CCN3CCCCC3)cc2n1C(N)=O (protonated)
[NH-]C(=O)c1cc2ccc(CCN3CCCCC3)cc2n1C(N)=O (3D coordinates assigned)
[NH-]C(=O)c1cc2ccc(CCN3CCCCC3)cc2n1C(N)=O (nonaromatic ring conformer: 86.13322580947668 kcal/mol)

>  <smiles>  (55) 
NC(=O)c1cc2ccc(CCN3CCCCC3)cc2n1C(N)=O

>  <score_type>  (55) 
oracle

>  <origin>  (55) 
adg

>  <m_score__min__energy>  (55) 
-11.48

>  <m_primary>  (55) 
energy

$$$$
55:0
     RDKit          3D

 28 29  0  0  0  0  0  0  0  0999 V2000
   -5.8500   18.5340  -35.5600 N   0  0  0  0  0  0  0  0  0  0  0  0
   -5.4440   18.1690  -34.2420 C   0  0  0  0  0  0  0  0  0  0  0  0
   -5.5610   16.9710  -33.8720 O   0  0  0  0  0  0  0  0  0  0  0  0
   -4.9220   19.1990  -33.3200 C   0  0  0  0  0  0  0  0  0  0  0  0
   -3.5640   19.4610  -33.1440 C   0  0  0  0  0  0  0  0  0  0  0  0
   -3.5080   20.5170  -32.2640 C   0  0  0  0  0  0  0  0  0  0  0  0
   -2.4070   21.1820  -31.7300 C   0  0  0  0  0  0  0  0  0  0  0  0
   -2.6450   22.2250  -30.8190 C   0  0  0  0  0  0  0  0  0  0  0  0
   -3.9680   22.5690  -30.4450 C   0  0  0  0  0  0  0  0  0  0  0  0
   -4.2110   23.6990  -29.4840 C   0  0  0  0  0  0  0  0  0  0  0  0
   -3.4780   24.9210  -29.9340 C   0  0  0  0  0  0  0  0  0  0  0  0
   -3.9290   25.6180  -30.8810 O   0  0  0  0  0  0  0  0  0  0  0  0
   -2.2700   25.2650  -29.3410 O   0  0  0  0  0  0  0  0  0  0  0  0
   -5.0610   21.8780  -31.0140 C   0  0  0  0  0  0  0  0  0  0  0  0
   -4.7940   20.8590  -31.9360 C   0  0  0  0  0  0  0  0  0  0  0  0
   -5.6740   20.0600  -32.5770 N   0  0  0  0  0  0  0  0  0  0  0  0
   -7.1030   20.0900  -32.4460 C   0  0  0  0  0  0  0  0  0  0  0  0
   -7.9330   19.4870  -33.4390 N   0  0  0  0  0  0  0  0  0  0  0  0
   -7.6330   20.6540  -31.4510 O   0  0  0  0  0  0  0  0  0  0  0  0
   -6.7560   19.0220  -35.7270 H   0  0  0  0  0  0  0  0  0  0  0  0
   -2.7174   18.9352  -33.6097 H   0  0  0  0  0  0  0  0  0  0  0  0
   -1.3822   20.8993  -32.0128 H   0  0  0  0  0  0  0  0  0  0  0  0
   -1.7965   22.7797  -30.3921 H   0  0  0  0  0  0  0  0  0  0  0  0
   -5.2886   23.9157  -29.4419 H   0  0  0  0  0  0  0  0  0  0  0  0
   -3.8490   23.4083  -28.4868 H   0  0  0  0  0  0  0  0  0  0  0  0
   -6.0950   22.1340  -30.7397 H   0  0  0  0  0  0  0  0  0  0  0  0
   -7.5110   18.9570  -34.2330 H   0  0  0  0  0  0  0  0  0  0  0  0
   -8.9730   19.5370  -33.3580 H   0  0  0  0  0  0  0  0  0  0  0  0
  1  2  1  0
  2  3  2  0
  2  4  1  0
  4  5  2  0
  5  6  1  0
  6  7  2  0
  7  8  1  0
  8  9  2  0
  9 10  1  0
 10 11  1  0
 11 12  2  0
 11 13  1  0
  9 14  1  0
 14 15  2  0
 15 16  1  0
 16 17  1  0
 17 18  1  0
 17 19  2  0
 16  4  1  0
 15  6  1  0
  1 20  1  0
  5 21  1  0
  7 22  1  0
  8 23  1  0
 10 24  1  0
 10 25  1  0
 14 26  1  0
 18 27  1  0
 18 28  1  0
M  CHG  2   1  -1  13  -1
M  END
>  <UniqueID>  (56) 
56

>  <SMILES>  (56) 
[NH-]C(=O)c1cc2ccc(CC(=O)[O-])cc2n1C(N)=O

>  <Energy>  (56) 
64.84143061901756

>  <Genealogy>  (56) 
[NH-]C(=O)c1cc2ccc(CC(=O)[O-])cc2n1C(N)=O (protonated)
[NH-]C(=O)c1cc2ccc(CC(=O)[O-])cc2n1C(N)=O (3D coordinates assigned)
[NH-]C(=O)c1cc2ccc(CC(=O)[O-])cc2n1C(N)=O (optimized conformer: 64.84143061901756 kcal/mol)

>  <smiles>  (56) 
NC(=O)c1cc2ccc(CC(=O)O)cc2n1C(N)=O

>  <score_type>  (56) 
oracle

>  <origin>  (56) 
adg

>  <m_score__min__energy>  (56) 
-9.8399999999999999

>  <m_primary>  (56) 
energy

$$$$
56:0
     RDKit          3D

 26 27  0  0  0  0  0  0  0  0999 V2000
   -5.3850   18.3950  -34.9670 N   0  0  0  0  0  0  0  0  0  0  0  0
   -6.0730   18.4440  -34.0370 C   0  0  0  0  0  0  0  0  0  0  0  0
   -6.9430   18.5040  -32.8600 C   0  0  0  0  0  0  0  0  0  0  0  0
   -7.0800   19.9260  -32.3950 C   0  0  0  0  0  0  0  0  0  0  0  0
   -8.3660   20.4870  -32.1950 C   0  0  0  0  0  0  0  0  0  0  0  0
   -8.5070   21.8100  -31.7410 C   0  0  0  0  0  0  0  0  0  0  0  0
   -7.3490   22.5380  -31.4840 C   0  0  0  0  0  0  0  0  0  0  0  0
   -7.1970   23.8370  -31.0550 C   0  0  0  0  0  0  0  0  0  0  0  0
   -5.8210   24.0400  -30.9680 C   0  0  0  0  0  0  0  0  0  0  0  0
   -5.2130   25.2840  -30.4550 C   0  0  0  0  0  0  0  0  0  0  0  0
   -3.8910   25.6420  -30.8510 N   0  0  0  0  0  0  0  0  0  0  0  0
   -5.8610   26.0550  -29.7000 O   0  0  0  0  0  0  0  0  0  0  0  0
   -5.1480   22.9120  -31.3370 N   0  0  0  0  0  0  0  0  0  0  0  0
   -3.7280   22.7310  -31.4520 C   0  0  0  0  0  0  0  0  0  0  0  0
   -2.8630   23.1430  -30.3950 N   0  0  0  0  0  0  0  0  0  0  0  0
   -3.2350   22.2350  -32.5000 O   0  0  0  0  0  0  0  0  0  0  0  0
   -6.0980   22.0010  -31.6460 C   0  0  0  0  0  0  0  0  0  0  0  0
   -5.9280   20.6930  -32.1100 C   0  0  0  0  0  0  0  0  0  0  0  0
   -7.9359   18.1085  -33.1202 H   0  0  0  0  0  0  0  0  0  0  0  0
   -6.5013   17.9009  -32.0530 H   0  0  0  0  0  0  0  0  0  0  0  0
   -9.2620   19.8817  -32.3969 H   0  0  0  0  0  0  0  0  0  0  0  0
   -9.5017   22.2560  -31.5935 H   0  0  0  0  0  0  0  0  0  0  0  0
   -7.9931   24.5615  -30.8287 H   0  0  0  0  0  0  0  0  0  0  0  0
   -3.0590   25.2950  -30.3230 H   0  0  0  0  0  0  0  0  0  0  0  0
   -2.4550   24.1040  -30.3820 H   0  0  0  0  0  0  0  0  0  0  0  0
   -4.9217   20.2713  -32.2498 H   0  0  0  0  0  0  0  0  0  0  0  0
  1  2  3  0
  2  3  1  0
  3  4  1  0
  4  5  2  0
  5  6  1  0
  6  7  2  0
  7  8  1  0
  8  9  2  0
  9 10  1  0
 10 11  1  0
 10 12  2  0
  9 13  1  0
 13 14  1  0
 14 15  1  0
 14 16  2  0
 13 17  1  0
 17 18  2  0
 18  4  1  0
 17  7  1  0
  3 19  1  0
  3 20  1  0
  5 21  1  0
  6 22  1  0
  8 23  1  0
 11 24  1  0
 15 25  1  0
 18 26  1  0
M  CHG  2  11  -1  15  -1
M  END
>  <UniqueID>  (57) 
57

>  <SMILES>  (57) 
N#CCc1ccc2cc(C([NH-])=O)n(C([NH-])=O)c2c1

>  <Energy>  (57) 
63.603245934672

>  <Genealogy>  (57) 
N#CCc1ccc2cc(C([NH-])=O)n(C([NH-])=O)c2c1 (protonated)
N#CCc1ccc2cc(C([NH-])=O)n(C([NH-])=O)c2c1 (3D coordinates assigned)
N#CCc1ccc2cc(C([NH-])=O)n(C([NH-])=O)c2c1 (optimized conformer: 63.603245934672 kcal/mol)

>  <smiles>  (57) 
N#CCc1ccc2cc(C(N)=O)n(C(N)=O)c2c1

>  <score_type>  (57) 
oracle

>  <origin>  (57) 
adg

>  <m_score__min__energy>  (57) 
-10.08

>  <m_primary>  (57) 
energy

$$$$
57:0
     RDKit          3D

 45 47  0  0  0  0  0  0  0  0999 V2000
   -3.8500   21.9050  -33.2210 C   0  0  0  0  0  0  0  0  0  0  0  0
   -4.1290   22.4470  -31.8560 C   0  0  0  0  0  0  0  0  0  0  0  0
   -3.1810   22.5550  -31.0320 O   0  0  0  0  0  0  0  0  0  0  0  0
   -5.4600   22.8250  -31.4640 N   0  0  0  0  0  0  0  0  0  0  0  0
   -5.8540   24.0210  -30.9420 C   0  0  0  0  0  0  0  0  0  0  0  0
   -4.9610   25.1300  -30.5490 C   0  0  0  0  0  0  0  0  0  0  0  0
   -3.6850   24.8810  -29.9570 N   0  0  0  0  0  0  0  0  0  0  0  0
   -5.3500   26.3180  -30.6950 O   0  0  0  0  0  0  0  0  0  0  0  0
   -7.2390   24.0620  -30.8000 C   0  0  0  0  0  0  0  0  0  0  0  0
   -7.6860   22.8410  -31.2490 C   0  0  0  0  0  0  0  0  0  0  0  0
   -8.9820   22.3460  -31.3510 C   0  0  0  0  0  0  0  0  0  0  0  0
   -9.1560   21.0620  -31.8920 C   0  0  0  0  0  0  0  0  0  0  0  0
   -8.0450   20.3010  -32.3360 C   0  0  0  0  0  0  0  0  0  0  0  0
   -8.2740   18.9880  -32.8840 N   0  0  0  0  0  0  0  0  0  0  0  0
   -7.9010   17.7350  -32.2260 C   0  0  0  0  0  0  0  0  0  0  0  0
   -6.4080   17.6970  -31.8690 C   0  0  0  0  0  0  0  0  0  0  0  0
   -5.6380   16.9900  -32.9230 N   0  0  0  0  0  0  0  0  0  0  0  0
   -6.2670   17.1320  -34.2450 C   0  0  0  0  0  0  0  0  0  0  0  0
   -5.7070   18.3890  -34.8840 C   0  0  0  0  0  0  0  0  0  0  0  0
   -4.3660   18.6070  -34.2100 C   0  0  0  0  0  0  0  0  0  0  0  0
   -4.2950   17.5680  -33.0970 C   0  0  0  0  0  0  0  0  0  0  0  0
   -6.7420   20.8490  -32.2280 C   0  0  0  0  0  0  0  0  0  0  0  0
   -6.5950   22.1150  -31.6520 C   0  0  0  0  0  0  0  0  0  0  0  0
   -3.3482   20.9301  -33.1329 H   0  0  0  0  0  0  0  0  0  0  0  0
   -4.7968   21.7820  -33.7672 H   0  0  0  0  0  0  0  0  0  0  0  0
   -3.1997   22.6041  -33.7672 H   0  0  0  0  0  0  0  0  0  0  0  0
   -3.0470   25.6780  -29.7360 H   0  0  0  0  0  0  0  0  0  0  0  0
   -3.4090   23.9240  -29.6460 H   0  0  0  0  0  0  0  0  0  0  0  0
   -7.8458   24.8933  -30.4117 H   0  0  0  0  0  0  0  0  0  0  0  0
   -9.8443   22.9423  -31.0180 H   0  0  0  0  0  0  0  0  0  0  0  0
  -10.1688   20.6404  -31.9725 H   0  0  0  0  0  0  0  0  0  0  0  0
   -8.7260   18.9150  -33.8240 H   0  0  0  0  0  0  0  0  0  0  0  0
   -8.4900   17.6292  -31.3030 H   0  0  0  0  0  0  0  0  0  0  0  0
   -8.1053   16.9098  -32.9241 H   0  0  0  0  0  0  0  0  0  0  0  0
   -6.0321   18.7265  -31.7754 H   0  0  0  0  0  0  0  0  0  0  0  0
   -6.2839   17.1594  -30.9174 H   0  0  0  0  0  0  0  0  0  0  0  0
   -6.0319   16.2569  -34.8687 H   0  0  0  0  0  0  0  0  0  0  0  0
   -7.3606   17.2008  -34.1483 H   0  0  0  0  0  0  0  0  0  0  0  0
   -5.5770   18.2473  -35.9671 H   0  0  0  0  0  0  0  0  0  0  0  0
   -6.3782   19.2513  -34.7578 H   0  0  0  0  0  0  0  0  0  0  0  0
   -3.5462   18.4576  -34.9281 H   0  0  0  0  0  0  0  0  0  0  0  0
   -4.2677   19.6305  -33.8192 H   0  0  0  0  0  0  0  0  0  0  0  0
   -3.5814   16.7769  -33.3707 H   0  0  0  0  0  0  0  0  0  0  0  0
   -3.9577   18.0360  -32.1604 H   0  0  0  0  0  0  0  0  0  0  0  0
   -5.8658   20.2907  -32.5893 H   0  0  0  0  0  0  0  0  0  0  0  0
  1  2  1  0
  2  3  2  0
  2  4  1  0
  4  5  1  0
  5  6  1  0
  6  7  1  0
  6  8  2  0
  5  9  2  0
  9 10  1  0
 10 11  2  0
 11 12  1  0
 12 13  2  0
 13 14  1  0
 14 15  1  0
 15 16  1  0
 16 17  1  0
 17 18  1  0
 18 19  1  0
 19 20  1  0
 20 21  1  0
 13 22  1  0
 22 23  2  0
 23  4  1  0
 23 10  1  0
 21 17  1  0
  1 24  1  0
  1 25  1  0
  1 26  1  0
  7 27  1  0
  7 28  1  0
  9 29  1  0
 11 30  1  0
 12 31  1  0
 14 32  1  0
 15 33  1  0
 15 34  1  0
 16 35  1  0
 16 36  1  0
 18 37  1  0
 18 38  1  0
 19 39  1  0
 19 40  1  0
 20 41  1  0
 20 42  1  0
 21 43  1  0
 21 44  1  0
 22 45  1  0
M  END
>  <UniqueID>  (58) 
58

>  <SMILES>  (58) 
CC(=O)n1c(C(N)=O)cc2ccc(NCCN3CCCC3)cc21

>  <Energy>  (58) 
86.73800814307486

>  <Genealogy>  (58) 
CC(=O)n1c(C(N)=O)cc2ccc(NCCN3CCCC3)cc21 (3D coordinates assigned)
CC(=O)n1c(C(N)=O)cc2ccc(NCCN3CCCC3)cc21 (nonaromatic ring conformer: 86.73800814307486 kcal/mol)

>  <smiles>  (58) 
CC(=O)n1c(C(N)=O)cc2ccc(NCCN3CCCC3)cc21

>  <score_type>  (58) 
oracle

>  <origin>  (58) 
adg

>  <m_score__min__energy>  (58) 
-8.8100000000000005

>  <m_primary>  (58) 
energy

$$$$
58:0
     RDKit          3D

 34 35  0  0  0  0  0  0  0  0999 V2000
   -7.2110   18.6010  -32.8620 C   0  0  0  0  0  0  0  0  0  0  0  0
   -7.2880   19.9900  -32.3010 C   0  0  0  0  0  0  0  0  0  0  0  0
   -8.5480   20.5830  -32.0450 C   0  0  0  0  0  0  0  0  0  0  0  0
   -8.6350   21.9010  -31.5660 C   0  0  0  0  0  0  0  0  0  0  0  0
   -7.4490   22.5980  -31.3580 C   0  0  0  0  0  0  0  0  0  0  0  0
   -7.2440   23.8900  -30.9320 C   0  0  0  0  0  0  0  0  0  0  0  0
   -5.8620   24.0650  -30.9260 C   0  0  0  0  0  0  0  0  0  0  0  0
   -5.2000   25.2970  -30.4480 C   0  0  0  0  0  0  0  0  0  0  0  0
   -3.8700   25.6160  -30.8450 N   0  0  0  0  0  0  0  0  0  0  0  0
   -5.8010   26.0520  -29.6390 O   0  0  0  0  0  0  0  0  0  0  0  0
   -5.2360   22.9260  -31.3410 N   0  0  0  0  0  0  0  0  0  0  0  0
   -3.8310   22.7160  -31.5550 C   0  0  0  0  0  0  0  0  0  0  0  0
   -2.9960   23.1370  -30.7080 O   0  0  0  0  0  0  0  0  0  0  0  0
   -3.3990   22.0640  -32.7140 O   0  0  0  0  0  0  0  0  0  0  0  0
   -2.5740   20.8990  -32.7040 C   0  0  0  0  0  0  0  0  0  0  0  0
   -1.2240   21.2040  -33.3590 C   0  0  0  0  0  0  0  0  0  0  0  0
   -3.2910   19.7800  -33.4560 C   0  0  0  0  0  0  0  0  0  0  0  0
   -6.2210   22.0370  -31.5980 C   0  0  0  0  0  0  0  0  0  0  0  0
   -6.1050   20.7330  -32.0940 C   0  0  0  0  0  0  0  0  0  0  0  0
   -7.1707   17.8742  -32.0373 H   0  0  0  0  0  0  0  0  0  0  0  0
   -8.0997   18.4054  -33.4800 H   0  0  0  0  0  0  0  0  0  0  0  0
   -6.3061   18.5048  -33.4800 H   0  0  0  0  0  0  0  0  0  0  0  0
   -9.4676   20.0063  -32.2228 H   0  0  0  0  0  0  0  0  0  0  0  0
   -9.6102   22.3672  -31.3619 H   0  0  0  0  0  0  0  0  0  0  0  0
   -8.0100   24.6291  -30.6546 H   0  0  0  0  0  0  0  0  0  0  0  0
   -3.0490   25.2650  -30.3050 H   0  0  0  0  0  0  0  0  0  0  0  0
   -2.3886   20.5830  -31.6668 H   0  0  0  0  0  0  0  0  0  0  0  0
   -0.4680   21.3748  -32.5784 H   0  0  0  0  0  0  0  0  0  0  0  0
   -0.9192   20.3521  -33.9846 H   0  0  0  0  0  0  0  0  0  0  0  0
   -1.3150   22.1042  -33.9846 H   0  0  0  0  0  0  0  0  0  0  0  0
   -3.7387   19.0813  -32.7340 H   0  0  0  0  0  0  0  0  0  0  0  0
   -4.0816   20.2109  -34.0879 H   0  0  0  0  0  0  0  0  0  0  0  0
   -2.5692   19.2418  -34.0879 H   0  0  0  0  0  0  0  0  0  0  0  0
   -5.1191   20.2989  -32.3165 H   0  0  0  0  0  0  0  0  0  0  0  0
  1  2  1  0
  2  3  2  0
  3  4  1  0
  4  5  2  0
  5  6  1  0
  6  7  2  0
  7  8  1  0
  8  9  1  0
  8 10  2  0
  7 11  1  0
 11 12  1  0
 12 13  2  0
 12 14  1  0
 14 15  1  0
 15 16  1  0
 15 17  1  0
 11 18  1  0
 18 19  2  0
 19  2  1  0
 18  5  1  0
  1 20  1  0
  1 21  1  0
  1 22  1  0
  3 23  1  0
  4 24  1  0
  6 25  1  0
  9 26  1  0
 15 27  1  0
 16 28  1  0
 16 29  1  0
 16 30  1  0
 17 31  1  0
 17 32  1  0
 17 33  1  0
 19 34  1  0
M  CHG  1   9  -1
M  END
>  <UniqueID>  (59) 
59

>  <SMILES>  (59) 
Cc1ccc2cc(C([NH-])=O)n(C(=O)OC(C)C)c2c1

>  <Energy>  (59) 
66.2875137845457

>  <Genealogy>  (59) 
Cc1ccc2cc(C([NH-])=O)n(C(=O)OC(C)C)c2c1 (protonated)
Cc1ccc2cc(C([NH-])=O)n(C(=O)OC(C)C)c2c1 (3D coordinates assigned)
Cc1ccc2cc(C([NH-])=O)n(C(=O)OC(C)C)c2c1 (optimized conformer: 66.2875137845457 kcal/mol)

>  <smiles>  (59) 
Cc1ccc2cc(C(N)=O)n(C(=O)OC(C)C)c2c1

>  <score_type>  (59) 
oracle

>  <origin>  (59) 
adg

>  <m_score__min__energy>  (59) 
-9.6699999999999999

>  <m_primary>  (59) 
energy

$$$$
59:0
     RDKit          3D

 31 33  0  0  0  0  0  0  0  0999 V2000
   -3.9020   16.3830  -35.2600 C   0  0  0  0  0  0  0  0  0  0  0  0
   -5.0720   16.8640  -34.4730 C   0  0  0  0  0  0  0  0  0  0  0  0
   -5.2040   18.1320  -34.0300 N   0  0  0  0  0  0  0  0  0  0  0  0
   -6.3270   18.3050  -33.2760 C   0  0  0  0  0  0  0  0  0  0  0  0
   -6.6670   19.6280  -32.6890 C   0  0  0  0  0  0  0  0  0  0  0  0
   -8.0180   20.0150  -32.4760 C   0  0  0  0  0  0  0  0  0  0  0  0
   -8.3300   21.2630  -31.9100 C   0  0  0  0  0  0  0  0  0  0  0  0
   -7.2790   22.1090  -31.5770 C   0  0  0  0  0  0  0  0  0  0  0  0
   -7.2980   23.3580  -30.9990 C   0  0  0  0  0  0  0  0  0  0  0  0
   -5.9620   23.7360  -30.8880 C   0  0  0  0  0  0  0  0  0  0  0  0
   -5.5190   25.0600  -30.3980 C   0  0  0  0  0  0  0  0  0  0  0  0
   -4.1780   25.5050  -30.6110 N   0  0  0  0  0  0  0  0  0  0  0  0
   -6.3140   25.7960  -29.7580 O   0  0  0  0  0  0  0  0  0  0  0  0
   -5.1470   22.7580  -31.3790 N   0  0  0  0  0  0  0  0  0  0  0  0
   -3.7100   22.7400  -31.3950 C   0  0  0  0  0  0  0  0  0  0  0  0
   -3.0570   23.2090  -30.4260 O   0  0  0  0  0  0  0  0  0  0  0  0
   -3.0250   22.1920  -32.4720 O   0  0  0  0  0  0  0  0  0  0  0  0
   -5.9700   21.7700  -31.7970 C   0  0  0  0  0  0  0  0  0  0  0  0
   -5.6290   20.5250  -32.3410 C   0  0  0  0  0  0  0  0  0  0  0  0
   -7.0870   17.1440  -33.1020 C   0  0  0  0  0  0  0  0  0  0  0  0
   -6.3210   15.8890  -33.9180 S   0  0  0  0  0  0  0  0  0  0  0  0
   -3.1074   16.0563  -34.5731 H   0  0  0  0  0  0  0  0  0  0  0  0
   -4.2089   15.5381  -35.8940 H   0  0  0  0  0  0  0  0  0  0  0  0
   -3.5259   17.1995  -35.8940 H   0  0  0  0  0  0  0  0  0  0  0  0
   -8.8301   19.3286  -32.7579 H   0  0  0  0  0  0  0  0  0  0  0  0
   -9.3744   21.5611  -31.7359 H   0  0  0  0  0  0  0  0  0  0  0  0
   -8.1816   23.9357  -30.6900 H   0  0  0  0  0  0  0  0  0  0  0  0
   -3.5060   24.9490  -31.1830 H   0  0  0  0  0  0  0  0  0  0  0  0
   -3.8640   26.4240  -30.2270 H   0  0  0  0  0  0  0  0  0  0  0  0
   -4.5751   20.2499  -32.4947 H   0  0  0  0  0  0  0  0  0  0  0  0
   -8.0235   17.0654  -32.5304 H   0  0  0  0  0  0  0  0  0  0  0  0
  1  2  1  0
  2  3  2  0
  3  4  1  0
  4  5  1  0
  5  6  2  0
  6  7  1  0
  7  8  2  0
  8  9  1  0
  9 10  2  0
 10 11  1  0
 11 12  1  0
 11 13  2  0
 10 14  1  0
 14 15  1  0
 15 16  2  0
 15 17  1  0
 14 18  1  0
 18 19  2  0
  4 20  2  0
 20 21  1  0
 21  2  1  0
 19  5  1  0
 18  8  1  0
  1 22  1  0
  1 23  1  0
  1 24  1  0
  6 25  1  0
  7 26  1  0
  9 27  1  0
 12 28  1  0
 12 29  1  0
 19 30  1  0
 20 31  1  0
M  CHG  1  17  -1
M  END
>  <UniqueID>  (60) 
60

>  <SMILES>  (60) 
Cc1nc(-c2ccc3cc(C(N)=O)n(C(=O)[O-])c3c2)cs1

>  <Energy>  (60) 
103.05151712944945

>  <Genealogy>  (60) 
Cc1nc(-c2ccc3cc(C(N)=O)n(C(=O)[O-])c3c2)cs1 (protonated)
Cc1nc(-c2ccc3cc(C(N)=O)n(C(=O)[O-])c3c2)cs1 (3D coordinates assigned)
Cc1nc(-c2ccc3cc(C(N)=O)n(C(=O)[O-])c3c2)cs1 (optimized conformer: 103.05151712944945 kcal/mol)

>  <smiles>  (60) 
Cc1nc(-c2ccc3cc(C(N)=O)n(C(=O)O)c3c2)cs1

>  <score_type>  (60) 
oracle

>  <origin>  (60) 
adg

>  <m_score__min__energy>  (60) 
-9.7300000000000004

>  <m_primary>  (60) 
energy

$$$$
60:0
     RDKit          3D

 37 38  0  0  0  0  0  0  0  0999 V2000
   -4.1740   23.0430  -27.9310 C   0  0  0  0  0  0  0  0  0  0  0  0
   -3.1140   22.1510  -28.6050 C   0  0  0  0  0  0  0  0  0  0  0  0
   -2.7240   20.9800  -27.6830 C   0  0  0  0  0  0  0  0  0  0  0  0
   -1.8630   22.9940  -28.8920 C   0  0  0  0  0  0  0  0  0  0  0  0
   -3.5930   21.6620  -29.8660 O   0  0  0  0  0  0  0  0  0  0  0  0
   -3.9890   22.4390  -30.9640 C   0  0  0  0  0  0  0  0  0  0  0  0
   -3.1600   22.7810  -31.8490 O   0  0  0  0  0  0  0  0  0  0  0  0
   -5.3540   22.8690  -31.0650 N   0  0  0  0  0  0  0  0  0  0  0  0
   -5.8630   24.1110  -30.8260 C   0  0  0  0  0  0  0  0  0  0  0  0
   -5.0790   25.3350  -30.5600 C   0  0  0  0  0  0  0  0  0  0  0  0
   -3.6570   25.2890  -30.4600 N   0  0  0  0  0  0  0  0  0  0  0  0
   -5.6670   26.4440  -30.4660 O   0  0  0  0  0  0  0  0  0  0  0  0
   -7.2510   24.1020  -30.9520 C   0  0  0  0  0  0  0  0  0  0  0  0
   -7.5790   22.8080  -31.2850 C   0  0  0  0  0  0  0  0  0  0  0  0
   -8.8220   22.2350  -31.5330 C   0  0  0  0  0  0  0  0  0  0  0  0
   -8.8660   20.8640  -31.8390 C   0  0  0  0  0  0  0  0  0  0  0  0
   -7.6790   20.0870  -31.8660 C   0  0  0  0  0  0  0  0  0  0  0  0
   -7.7360   18.6260  -32.2330 C   0  0  0  0  0  0  0  0  0  0  0  0
   -7.0630   17.8600  -31.2970 F   0  0  0  0  0  0  0  0  0  0  0  0
   -9.0570   18.2200  -32.2800 F   0  0  0  0  0  0  0  0  0  0  0  0
   -7.1540   18.4090  -33.4690 F   0  0  0  0  0  0  0  0  0  0  0  0
   -6.4330   20.7130  -31.6310 C   0  0  0  0  0  0  0  0  0  0  0  0
   -6.4170   22.0840  -31.3470 C   0  0  0  0  0  0  0  0  0  0  0  0
   -4.0791   22.9632  -26.8380 H   0  0  0  0  0  0  0  0  0  0  0  0
   -4.0216   24.0886  -28.2369 H   0  0  0  0  0  0  0  0  0  0  0  0
   -5.1781   22.7142  -28.2369 H   0  0  0  0  0  0  0  0  0  0  0  0
   -2.8273   21.2902  -26.6327 H   0  0  0  0  0  0  0  0  0  0  0  0
   -3.3852   20.1231  -27.8790 H   0  0  0  0  0  0  0  0  0  0  0  0
   -1.6810   20.6907  -27.8790 H   0  0  0  0  0  0  0  0  0  0  0  0
   -1.4035   23.3036  -27.9417 H   0  0  0  0  0  0  0  0  0  0  0  0
   -1.1428   22.3963  -29.4699 H   0  0  0  0  0  0  0  0  0  0  0  0
   -2.1466   23.8860  -29.4699 H   0  0  0  0  0  0  0  0  0  0  0  0
   -3.0800   24.8530  -31.2130 H   0  0  0  0  0  0  0  0  0  0  0  0
   -7.9384   24.9497  -30.8144 H   0  0  0  0  0  0  0  0  0  0  0  0
   -9.7421   22.8364  -31.4909 H   0  0  0  0  0  0  0  0  0  0  0  0
   -9.8324   20.3875  -32.0603 H   0  0  0  0  0  0  0  0  0  0  0  0
   -5.4974   20.1359  -31.6704 H   0  0  0  0  0  0  0  0  0  0  0  0
  1  2  1  0
  2  3  1  0
  2  4  1  0
  2  5  1  0
  5  6  1  0
  6  7  2  0
  6  8  1  0
  8  9  1  0
  9 10  1  0
 10 11  1  0
 10 12  2  0
  9 13  2  0
 13 14  1  0
 14 15  2  0
 15 16  1  0
 16 17  2  0
 17 18  1  0
 18 19  1  0
 18 20  1  0
 18 21  1  0
 17 22  1  0
 22 23  2  0
 23  8  1  0
 23 14  1  0
  1 24  1  0
  1 25  1  0
  1 26  1  0
  3 27  1  0
  3 28  1  0
  3 29  1  0
  4 30  1  0
  4 31  1  0
  4 32  1  0
 11 33  1  0
 13 34  1  0
 15 35  1  0
 16 36  1  0
 22 37  1  0
M  CHG  1  11  -1
M  END
>  <UniqueID>  (61) 
61

>  <SMILES>  (61) 
CC(C)(C)OC(=O)n1c(C([NH-])=O)cc2ccc(C(F)(F)F)cc21

>  <Energy>  (61) 
71.88827244815865

>  <Genealogy>  (61) 
CC(C)(C)OC(=O)n1c(C([NH-])=O)cc2ccc(C(F)(F)F)cc21 (protonated)
CC(C)(C)OC(=O)n1c(C([NH-])=O)cc2ccc(C(F)(F)F)cc21 (3D coordinates assigned)
CC(C)(C)OC(=O)n1c(C([NH-])=O)cc2ccc(C(F)(F)F)cc21 (optimized conformer: 71.88827244815865 kcal/mol)

>  <smiles>  (61) 
CC(C)(C)OC(=O)n1c(C(N)=O)cc2ccc(C(F)(F)F)cc21

>  <score_type>  (61) 
oracle

>  <origin>  (61) 
adg

>  <m_score__min__energy>  (61) 
-9.5999999999999996

>  <m_primary>  (61) 
energy

$$$$
61:0
     RDKit          3D

 43 45  0  0  0  0  0  0  0  0999 V2000
   -7.8460   12.2800  -33.8990 C   0  0  0  0  0  0  0  0  0  0  0  0
   -7.5290   13.4800  -34.7960 C   0  0  0  0  0  0  0  0  0  0  0  0
   -8.2770   13.3670  -36.1220 C   0  0  0  0  0  0  0  0  0  0  0  0
   -6.1270   13.5400  -35.0610 O   0  0  0  0  0  0  0  0  0  0  0  0
   -5.2110   14.2190  -34.2470 C   0  0  0  0  0  0  0  0  0  0  0  0
   -4.1380   13.6560  -33.8930 O   0  0  0  0  0  0  0  0  0  0  0  0
   -5.5080   15.5960  -33.7960 C   0  0  0  0  0  0  0  0  0  0  0  0
   -5.6530   16.6420  -34.7240 C   0  0  0  0  0  0  0  0  0  0  0  0
   -5.9350   17.9400  -34.2920 C   0  0  0  0  0  0  0  0  0  0  0  0
   -6.0780   18.2230  -32.9230 C   0  0  0  0  0  0  0  0  0  0  0  0
   -6.3770   19.6030  -32.4630 C   0  0  0  0  0  0  0  0  0  0  0  0
   -7.7190   20.0630  -32.3960 C   0  0  0  0  0  0  0  0  0  0  0  0
   -8.0110   21.3700  -31.9730 C   0  0  0  0  0  0  0  0  0  0  0  0
   -6.9480   22.1940  -31.6170 C   0  0  0  0  0  0  0  0  0  0  0  0
   -6.9480   23.5050  -31.1990 C   0  0  0  0  0  0  0  0  0  0  0  0
   -5.6080   23.8260  -30.9930 C   0  0  0  0  0  0  0  0  0  0  0  0
   -5.1590   25.1270  -30.4550 C   0  0  0  0  0  0  0  0  0  0  0  0
   -3.8930   25.6570  -30.8430 N   0  0  0  0  0  0  0  0  0  0  0  0
   -5.8950   25.7960  -29.6830 O   0  0  0  0  0  0  0  0  0  0  0  0
   -4.8100   22.7580  -31.2790 N   0  0  0  0  0  0  0  0  0  0  0  0
   -3.3750   22.6950  -31.2530 C   0  0  0  0  0  0  0  0  0  0  0  0
   -2.7360   23.1370  -30.2620 O   0  0  0  0  0  0  0  0  0  0  0  0
   -2.6760   22.1670  -32.3320 O   0  0  0  0  0  0  0  0  0  0  0  0
   -5.6470   21.7650  -31.6560 C   0  0  0  0  0  0  0  0  0  0  0  0
   -5.3250   20.4740  -32.0910 C   0  0  0  0  0  0  0  0  0  0  0  0
   -5.9320   17.1770  -31.9950 C   0  0  0  0  0  0  0  0  0  0  0  0
   -5.6520   15.8770  -32.4270 C   0  0  0  0  0  0  0  0  0  0  0  0
   -7.7667   12.5800  -32.8437 H   0  0  0  0  0  0  0  0  0  0  0  0
   -8.8678   11.9284  -34.1045 H   0  0  0  0  0  0  0  0  0  0  0  0
   -7.1311   11.4696  -34.1045 H   0  0  0  0  0  0  0  0  0  0  0  0
   -7.8477   14.3930  -34.2717 H   0  0  0  0  0  0  0  0  0  0  0  0
   -9.3474   13.2053  -35.9266 H   0  0  0  0  0  0  0  0  0  0  0  0
   -8.1455   14.2952  -36.6974 H   0  0  0  0  0  0  0  0  0  0  0  0
   -7.8771   12.5191  -36.6974 H   0  0  0  0  0  0  0  0  0  0  0  0
   -5.5435   16.4366  -35.7991 H   0  0  0  0  0  0  0  0  0  0  0  0
   -6.0462   18.7480  -35.0301 H   0  0  0  0  0  0  0  0  0  0  0  0
   -8.5397   19.3874  -32.6789 H   0  0  0  0  0  0  0  0  0  0  0  0
   -9.0488   21.7313  -31.9246 H   0  0  0  0  0  0  0  0  0  0  0  0
   -7.8203   24.1601  -31.0576 H   0  0  0  0  0  0  0  0  0  0  0  0
   -3.0060   25.2710  -30.4510 H   0  0  0  0  0  0  0  0  0  0  0  0
   -4.2771   20.1435  -32.1426 H   0  0  0  0  0  0  0  0  0  0  0  0
   -6.0390   17.3831  -30.9198 H   0  0  0  0  0  0  0  0  0  0  0  0
   -5.5436   15.0682  -31.6894 H   0  0  0  0  0  0  0  0  0  0  0  0
  1  2  1  0
  2  3  1  0
  2  4  1  0
  4  5  1  0
  5  6  2  0
  5  7  1  0
  7  8  2  0
  8  9  1  0
  9 10  2  0
 10 11  1  0
 11 12  2  0
 12 13  1  0
 13 14  2  0
 14 15  1  0
 15 16  2  0
 16 17  1  0
 17 18  1  0
 17 19  2  0
 16 20  1  0
 20 21  1  0
 21 22  2  0
 21 23  1  0
 20 24  1  0
 24 25  2  0
 10 26  1  0
 26 27  2  0
 27  7  1  0
 25 11  1  0
 24 14  1  0
  1 28  1  0
  1 29  1  0
  1 30  1  0
  2 31  1  0
  3 32  1  0
  3 33  1  0
  3 34  1  0
  8 35  1  0
  9 36  1  0
 12 37  1  0
 13 38  1  0
 15 39  1  0
 18 40  1  0
 25 41  1  0
 26 42  1  0
 27 43  1  0
M  CHG  2  18  -1  23  -1
M  END
>  <UniqueID>  (62) 
62

>  <SMILES>  (62) 
CC(C)OC(=O)c1ccc(-c2ccc3cc(C([NH-])=O)n(C(=O)[O-])c3c2)cc1

>  <Energy>  (62) 
84.57478020973217

>  <Genealogy>  (62) 
CC(C)OC(=O)c1ccc(-c2ccc3cc(C([NH-])=O)n(C(=O)[O-])c3c2)cc1 (protonated)
CC(C)OC(=O)c1ccc(-c2ccc3cc(C([NH-])=O)n(C(=O)[O-])c3c2)cc1 (3D coordinates assigned)
CC(C)OC(=O)c1ccc(-c2ccc3cc(C([NH-])=O)n(C(=O)[O-])c3c2)cc1 (optimized conformer: 84.57478020973217 kcal/mol)

>  <smiles>  (62) 
CC(C)OC(=O)c1ccc(-c2ccc3cc(C(N)=O)n(C(=O)O)c3c2)cc1

>  <score_type>  (62) 
oracle

>  <origin>  (62) 
adg

>  <m_score__min__energy>  (62) 
-10.75

>  <m_primary>  (62) 
energy

$$$$
62:0
     RDKit          3D

 55 58  0  0  0  0  0  0  0  0999 V2000
   -6.0840   25.3690  -29.7910 C   0  0  0  0  0  0  0  0  0  0  0  0
   -5.4050   24.8920  -31.0700 C   0  0  0  0  0  0  0  0  0  0  0  0
   -4.0370   24.5770  -30.8250 O   0  0  0  0  0  0  0  0  0  0  0  0
   -3.6240   23.5000  -30.0320 C   0  0  0  0  0  0  0  0  0  0  0  0
   -4.3950   23.0170  -29.1590 O   0  0  0  0  0  0  0  0  0  0  0  0
   -2.3060   22.9540  -30.2020 N   0  0  0  0  0  0  0  0  0  0  0  0
   -1.1500   23.3710  -29.6140 C   0  0  0  0  0  0  0  0  0  0  0  0
   -0.9800   24.5940  -28.8010 C   0  0  0  0  0  0  0  0  0  0  0  0
   -1.8750   25.6940  -28.9390 N   0  0  0  0  0  0  0  0  0  0  0  0
   -0.0040   24.6880  -28.0110 O   0  0  0  0  0  0  0  0  0  0  0  0
   -0.0980   22.5210  -29.9470 C   0  0  0  0  0  0  0  0  0  0  0  0
   -0.6480   21.5660  -30.7720 C   0  0  0  0  0  0  0  0  0  0  0  0
   -0.0570   20.4660  -31.3860 C   0  0  0  0  0  0  0  0  0  0  0  0
   -0.8740   19.6260  -32.1590 C   0  0  0  0  0  0  0  0  0  0  0  0
   -2.2620   19.8900  -32.3010 C   0  0  0  0  0  0  0  0  0  0  0  0
   -3.1200   18.9870  -33.1100 C   0  0  0  0  0  0  0  0  0  0  0  0
   -2.5830   18.2760  -34.1960 C   0  0  0  0  0  0  0  0  0  0  0  0
   -3.3880   17.4230  -34.9500 C   0  0  0  0  0  0  0  0  0  0  0  0
   -4.7400   17.2720  -34.6380 C   0  0  0  0  0  0  0  0  0  0  0  0
   -5.3070   17.9810  -33.5630 C   0  0  0  0  0  0  0  0  0  0  0  0
   -6.7420   17.8310  -33.2060 C   0  0  0  0  0  0  0  0  0  0  0  0
   -7.4210   16.9380  -33.7880 O   0  0  0  0  0  0  0  0  0  0  0  0
   -7.3860   18.7050  -32.2400 N   0  0  2  0  0  0  0  0  0  0  0  0
   -8.7140   18.1870  -31.8510 C   0  0  0  0  0  0  0  0  0  0  0  0
   -9.7570   19.0200  -32.5700 C   0  0  0  0  0  0  0  0  0  0  0  0
   -9.1000   20.3710  -32.7200 C   0  0  0  0  0  0  0  0  0  0  0  0
   -7.6040   20.0600  -32.8130 C   0  0  1  0  0  0  0  0  0  0  0  0
   -6.7890   21.1120  -32.1030 C   0  0  0  0  0  0  0  0  0  0  0  0
   -6.9410   22.3290  -32.3870 O   0  0  0  0  0  0  0  0  0  0  0  0
   -5.8670   20.7470  -31.1280 O   0  0  0  0  0  0  0  0  0  0  0  0
   -4.4840   18.8310  -32.8010 C   0  0  0  0  0  0  0  0  0  0  0  0
   -2.8230   21.0190  -31.6590 C   0  0  0  0  0  0  0  0  0  0  0  0
   -1.9820   21.8490  -30.9110 C   0  0  0  0  0  0  0  0  0  0  0  0
   -5.5354   24.9836  -28.9189 H   0  0  0  0  0  0  0  0  0  0  0  0
   -6.0870   26.4687  -29.7656 H   0  0  0  0  0  0  0  0  0  0  0  0
   -7.1195   24.9989  -29.7656 H   0  0  0  0  0  0  0  0  0  0  0  0
   -5.9218   23.9944  -31.4403 H   0  0  0  0  0  0  0  0  0  0  0  0
   -5.4548   25.6963  -31.8187 H   0  0  0  0  0  0  0  0  0  0  0  0
   -2.8330   25.5610  -29.3310 H   0  0  0  0  0  0  0  0  0  0  0  0
    0.9496   22.5967  -29.6202 H   0  0  0  0  0  0  0  0  0  0  0  0
    1.0174   20.2610  -31.2692 H   0  0  0  0  0  0  0  0  0  0  0  0
   -0.4334   18.7521  -32.6611 H   0  0  0  0  0  0  0  0  0  0  0  0
   -1.5200   18.3930  -34.4534 H   0  0  0  0  0  0  0  0  0  0  0  0
   -2.9556   16.8665  -35.7946 H   0  0  0  0  0  0  0  0  0  0  0  0
   -5.3664   16.5942  -35.2365 H   0  0  0  0  0  0  0  0  0  0  0  0
   -6.8070   18.7400  -31.3680 H   0  0  0  0  0  0  0  0  0  0  0  0
   -8.8069   17.1317  -32.1471 H   0  0  0  0  0  0  0  0  0  0  0  0
   -8.8508   18.2513  -30.7614 H   0  0  0  0  0  0  0  0  0  0  0  0
   -9.9932   18.5880  -33.5536 H   0  0  0  0  0  0  0  0  0  0  0  0
  -10.7110   19.0697  -32.0246 H   0  0  0  0  0  0  0  0  0  0  0  0
   -9.4501   20.8746  -33.6331 H   0  0  0  0  0  0  0  0  0  0  0  0
   -9.3362   21.0466  -31.8847 H   0  0  0  0  0  0  0  0  0  0  0  0
   -7.2719   20.0720  -33.8616 H   0  0  0  0  0  0  0  0  0  0  0  0
   -4.9134   19.3817  -31.9511 H   0  0  0  0  0  0  0  0  0  0  0  0
   -3.8972   21.2391  -31.7463 H   0  0  0  0  0  0  0  0  0  0  0  0
  1  2  1  0
  2  3  1  0
  3  4  1  0
  4  5  2  0
  4  6  1  0
  6  7  1  0
  7  8  1  0
  8  9  1  0
  8 10  2  0
  7 11  2  0
 11 12  1  0
 12 13  2  0
 13 14  1  0
 14 15  2  0
 15 16  1  0
 16 17  2  0
 17 18  1  0
 18 19  2  0
 19 20  1  0
 20 21  1  0
 21 22  2  0
 21 23  1  0
 23 24  1  0
 24 25  1  0
 25 26  1  0
 26 27  1  0
 27 28  1  0
 28 29  2  0
 28 30  1  0
 20 31  2  0
 15 32  1  0
 32 33  2  0
 33  6  1  0
 33 12  1  0
 31 16  1  0
 27 23  1  0
  1 34  1  0
  1 35  1  0
  1 36  1  0
  2 37  1  0
  2 38  1  0
  9 39  1  0
 11 40  1  0
 13 41  1  0
 14 42  1  0
 17 43  1  0
 18 44  1  0
 19 45  1  0
 23 46  1  1
 24 47  1  0
 24 48  1  0
 25 49  1  0
 25 50  1  0
 26 51  1  0
 26 52  1  0
 27 53  1  6
 31 54  1  0
 32 55  1  0
M  CHG  3   9  -1  23   1  30  -1
M  END
>  <UniqueID>  (63) 
63

>  <SMILES>  (63) 
CCOC(=O)n1c(C([NH-])=O)cc2ccc(-c3cccc(C(=O)[N@@H+]4CCC[C@H]4C(=O)[O-])c3)cc21

>  <Energy>  (63) 
108.49650301358157

>  <Genealogy>  (63) 
CCOC(=O)n1c(C([NH-])=O)cc2ccc(-c3cccc(C(=O)[NH+]4CCC[C@H]4C(=O)[O-])c3)cc21 (protonated)
CCOC(=O)n1c(C([NH-])=O)cc2ccc(-c3cccc(C(=O)[N@@H+]4CCC[C@H]4C(=O)[O-])c3)cc21 (chirality)
CCOC(=O)n1c(C([NH-])=O)cc2ccc(-c3cccc(C(=O)[N@@H+]4CCC[C@H]4C(=O)[O-])c3)cc21 (3D coordinates assigned)
CCOC(=O)n1c(C([NH-])=O)cc2ccc(-c3cccc(C(=O)[N@@H+]4CCC[C@H]4C(=O)[O-])c3)cc21 (nonaromatic ring conformer: 108.49650301358157 kcal/mol)

>  <smiles>  (63) 
CCOC(=O)n1c(C(N)=O)cc2ccc(-c3cccc(C(=O)N4CCC[C@H]4C(=O)O)c3)cc21

>  <score_type>  (63) 
oracle

>  <origin>  (63) 
adg

>  <m_score__min__energy>  (63) 
-11.119999999999999

>  <m_primary>  (63) 
energy

$$$$
63:0
     RDKit          3D

 35 37  0  0  0  0  0  0  0  0999 V2000
   -3.9020   25.6710  -30.8760 N   0  0  0  0  0  0  0  0  0  0  0  0
   -5.1550   25.0930  -30.5190 C   0  0  0  0  0  0  0  0  0  0  0  0
   -5.9110   25.7030  -29.7180 O   0  0  0  0  0  0  0  0  0  0  0  0
   -5.5720   23.8110  -31.1240 C   0  0  0  0  0  0  0  0  0  0  0  0
   -6.8980   23.4920  -31.4080 C   0  0  0  0  0  0  0  0  0  0  0  0
   -6.8710   22.1940  -31.8640 C   0  0  0  0  0  0  0  0  0  0  0  0
   -7.9110   21.3760  -32.2950 C   0  0  0  0  0  0  0  0  0  0  0  0
   -7.5900   20.0820  -32.7360 C   0  0  0  0  0  0  0  0  0  0  0  0
   -6.2440   19.6310  -32.7490 C   0  0  0  0  0  0  0  0  0  0  0  0
   -5.9130   18.2640  -33.2190 C   0  0  0  0  0  0  0  0  0  0  0  0
   -6.8380   17.2210  -33.0430 C   0  0  0  0  0  0  0  0  0  0  0  0
   -6.5430   15.9290  -33.4840 C   0  0  0  0  0  0  0  0  0  0  0  0
   -5.3080   15.6460  -34.0910 C   0  0  0  0  0  0  0  0  0  0  0  0
   -5.0100   14.2630  -34.6120 C   0  0  0  0  0  0  0  0  0  0  0  0
   -4.4130   13.4900  -33.6310 F   0  0  0  0  0  0  0  0  0  0  0  0
   -6.1910   13.6590  -35.0030 F   0  0  0  0  0  0  0  0  0  0  0  0
   -4.1530   14.3230  -35.6970 F   0  0  0  0  0  0  0  0  0  0  0  0
   -4.3910   16.6930  -34.2860 C   0  0  0  0  0  0  0  0  0  0  0  0
   -4.6830   17.9880  -33.8460 C   0  0  0  0  0  0  0  0  0  0  0  0
   -3.7510   18.9610  -34.0070 F   0  0  0  0  0  0  0  0  0  0  0  0
   -5.2170   20.4920  -32.2970 C   0  0  0  0  0  0  0  0  0  0  0  0
   -5.5690   21.7710  -31.8480 C   0  0  0  0  0  0  0  0  0  0  0  0
   -4.7560   22.7540  -31.4000 N   0  0  0  0  0  0  0  0  0  0  0  0
   -3.3230   22.6980  -31.3110 C   0  0  0  0  0  0  0  0  0  0  0  0
   -2.6500   23.2600  -30.1860 N   0  0  0  0  0  0  0  0  0  0  0  0
   -2.6510   22.1810  -32.2420 O   0  0  0  0  0  0  0  0  0  0  0  0
   -3.0070   25.2910  -30.4940 H   0  0  0  0  0  0  0  0  0  0  0  0
   -7.7793   24.1400  -31.2923 H   0  0  0  0  0  0  0  0  0  0  0  0
   -8.9518   21.7318  -32.2904 H   0  0  0  0  0  0  0  0  0  0  0  0
   -8.3915   19.4095  -33.0756 H   0  0  0  0  0  0  0  0  0  0  0  0
   -7.8022   17.4237  -32.5540 H   0  0  0  0  0  0  0  0  0  0  0  0
   -7.2839   15.1262  -33.3550 H   0  0  0  0  0  0  0  0  0  0  0  0
   -3.4340   16.4919  -34.7897 H   0  0  0  0  0  0  0  0  0  0  0  0
   -4.1668   20.1648  -32.2981 H   0  0  0  0  0  0  0  0  0  0  0  0
   -2.3680   24.2650  -30.1770 H   0  0  0  0  0  0  0  0  0  0  0  0
  1  2  1  0
  2  3  2  0
  2  4  1  0
  4  5  2  0
  5  6  1  0
  6  7  2  0
  7  8  1  0
  8  9  2  0
  9 10  1  0
 10 11  2  0
 11 12  1  0
 12 13  2  0
 13 14  1  0
 14 15  1  0
 14 16  1  0
 14 17  1  0
 13 18  1  0
 18 19  2  0
 19 20  1  0
  9 21  1  0
 21 22  2  0
 22 23  1  0
 23 24  1  0
 24 25  1  0
 24 26  2  0
 23  4  1  0
 22  6  1  0
 19 10  1  0
  1 27  1  0
  5 28  1  0
  7 29  1  0
  8 30  1  0
 11 31  1  0
 12 32  1  0
 18 33  1  0
 21 34  1  0
 25 35  1  0
M  CHG  2   1  -1  25  -1
M  END
>  <UniqueID>  (64) 
64

>  <SMILES>  (64) 
[NH-]C(=O)c1cc2ccc(-c3ccc(C(F)(F)F)cc3F)cc2n1C([NH-])=O

>  <Energy>  (64) 
83.58254058185928

>  <Genealogy>  (64) 
[NH-]C(=O)c1cc2ccc(-c3ccc(C(F)(F)F)cc3F)cc2n1C([NH-])=O (protonated)
[NH-]C(=O)c1cc2ccc(-c3ccc(C(F)(F)F)cc3F)cc2n1C([NH-])=O (3D coordinates assigned)
[NH-]C(=O)c1cc2ccc(-c3ccc(C(F)(F)F)cc3F)cc2n1C([NH-])=O (optimized conformer: 83.58254058185928 kcal/mol)

>  <smiles>  (64) 
NC(=O)c1cc2ccc(-c3ccc(C(F)(F)F)cc3F)cc2n1C(N)=O

>  <score_type>  (64) 
oracle

>  <origin>  (64) 
adg

>  <m_score__min__energy>  (64) 
-10.68

>  <m_primary>  (64) 
energy

$$$$
64:0
     RDKit          3D

 36 38  0  0  0  0  0  0  0  0999 V2000
   -3.8590   18.9710  -34.1670 C   0  0  0  0  0  0  0  0  0  0  0  0
   -4.9210   17.9290  -33.9310 C   0  0  0  0  0  0  0  0  0  0  0  0
   -4.7190   16.6290  -34.4260 C   0  0  0  0  0  0  0  0  0  0  0  0
   -5.6690   15.6300  -34.2100 C   0  0  0  0  0  0  0  0  0  0  0  0
   -5.4570   14.3770  -34.6850 F   0  0  0  0  0  0  0  0  0  0  0  0
   -6.8360   15.9170  -33.5020 C   0  0  0  0  0  0  0  0  0  0  0  0
   -7.0640   17.2070  -33.0200 C   0  0  0  0  0  0  0  0  0  0  0  0
   -6.1240   18.2280  -33.2390 C   0  0  0  0  0  0  0  0  0  0  0  0
   -6.4240   19.5870  -32.7360 C   0  0  0  0  0  0  0  0  0  0  0  0
   -7.7600   20.0610  -32.7310 C   0  0  0  0  0  0  0  0  0  0  0  0
   -8.0600   21.3550  -32.2720 C   0  0  0  0  0  0  0  0  0  0  0  0
   -7.0080   22.1490  -31.8290 C   0  0  0  0  0  0  0  0  0  0  0  0
   -7.0100   23.4420  -31.3560 C   0  0  0  0  0  0  0  0  0  0  0  0
   -5.6770   23.7340  -31.0700 C   0  0  0  0  0  0  0  0  0  0  0  0
   -5.2360   24.9990  -30.4460 C   0  0  0  0  0  0  0  0  0  0  0  0
   -3.8700   25.4010  -30.4930 N   0  0  0  0  0  0  0  0  0  0  0  0
   -6.0680   25.7130  -29.8270 O   0  0  0  0  0  0  0  0  0  0  0  0
   -4.8810   22.6680  -31.3670 N   0  0  0  0  0  0  0  0  0  0  0  0
   -3.4490   22.5860  -31.2950 C   0  0  0  0  0  0  0  0  0  0  0  0
   -2.7510   23.1140  -30.1680 N   0  0  0  0  0  0  0  0  0  0  0  0
   -2.8000   22.0770  -32.2470 O   0  0  0  0  0  0  0  0  0  0  0  0
   -5.7110   21.7050  -31.8240 C   0  0  0  0  0  0  0  0  0  0  0  0
   -5.3800   20.4280  -32.2900 C   0  0  0  0  0  0  0  0  0  0  0  0
   -3.4845   19.3384  -33.2002 H   0  0  0  0  0  0  0  0  0  0  0  0
   -3.0295   18.5266  -34.7366 H   0  0  0  0  0  0  0  0  0  0  0  0
   -4.2875   19.8088  -34.7366 H   0  0  0  0  0  0  0  0  0  0  0  0
   -3.8030   16.3969  -34.9892 H   0  0  0  0  0  0  0  0  0  0  0  0
   -7.5782   15.1251  -33.3231 H   0  0  0  0  0  0  0  0  0  0  0  0
   -7.9875   17.4261  -32.4640 H   0  0  0  0  0  0  0  0  0  0  0  0
   -8.5702   19.4093  -33.0901 H   0  0  0  0  0  0  0  0  0  0  0  0
   -9.0948   21.7280  -32.2635 H   0  0  0  0  0  0  0  0  0  0  0  0
   -7.8792   24.1044  -31.2304 H   0  0  0  0  0  0  0  0  0  0  0  0
   -3.5240   26.0400  -31.2440 H   0  0  0  0  0  0  0  0  0  0  0  0
   -3.2670   23.6080  -29.4070 H   0  0  0  0  0  0  0  0  0  0  0  0
   -1.7110   23.0430  -30.1110 H   0  0  0  0  0  0  0  0  0  0  0  0
   -4.3342   20.0876  -32.3087 H   0  0  0  0  0  0  0  0  0  0  0  0
  1  2  1  0
  2  3  2  0
  3  4  1  0
  4  5  1  0
  4  6  2  0
  6  7  1  0
  7  8  2  0
  8  9  1  0
  9 10  2  0
 10 11  1  0
 11 12  2  0
 12 13  1  0
 13 14  2  0
 14 15  1  0
 15 16  1  0
 15 17  2  0
 14 18  1  0
 18 19  1  0
 19 20  1  0
 19 21  2  0
 18 22  1  0
 22 23  2  0
  8  2  1  0
 23  9  1  0
 22 12  1  0
  1 24  1  0
  1 25  1  0
  1 26  1  0
  3 27  1  0
  6 28  1  0
  7 29  1  0
 10 30  1  0
 11 31  1  0
 13 32  1  0
 16 33  1  0
 20 34  1  0
 20 35  1  0
 23 36  1  0
M  CHG  1  16  -1
M  END
>  <UniqueID>  (65) 
65

>  <SMILES>  (65) 
Cc1cc(F)ccc1-c1ccc2cc(C([NH-])=O)n(C(N)=O)c2c1

>  <Energy>  (65) 
84.35589296358437

>  <Genealogy>  (65) 
Cc1cc(F)ccc1-c1ccc2cc(C([NH-])=O)n(C(N)=O)c2c1 (protonated)
Cc1cc(F)ccc1-c1ccc2cc(C([NH-])=O)n(C(N)=O)c2c1 (3D coordinates assigned)
Cc1cc(F)ccc1-c1ccc2cc(C([NH-])=O)n(C(N)=O)c2c1 (optimized conformer: 84.35589296358437 kcal/mol)

>  <smiles>  (65) 
Cc1cc(F)ccc1-c1ccc2cc(C(N)=O)n(C(N)=O)c2c1

>  <score_type>  (65) 
oracle

>  <origin>  (65) 
adg

>  <m_score__min__energy>  (65) 
-10.630000000000001

>  <m_primary>  (65) 
energy

$$$$
65:0
     RDKit          3D

 30 32  0  0  0  0  0  0  0  0999 V2000
   -5.4910   26.5280  -30.3280 N   0  0  0  0  0  0  0  0  0  0  0  0
   -6.3430   25.4550  -29.9260 C   0  0  0  0  0  0  0  0  0  0  0  0
   -7.1450   25.6290  -28.9710 O   0  0  0  0  0  0  0  0  0  0  0  0
   -6.3500   24.1690  -30.6540 C   0  0  0  0  0  0  0  0  0  0  0  0
   -7.5150   23.5010  -31.0140 C   0  0  0  0  0  0  0  0  0  0  0  0
   -7.0960   22.3960  -31.7170 C   0  0  0  0  0  0  0  0  0  0  0  0
   -7.8390   21.3700  -32.2910 C   0  0  0  0  0  0  0  0  0  0  0  0
   -7.1450   20.3250  -32.9210 C   0  0  0  0  0  0  0  0  0  0  0  0
   -5.7260   20.3150  -32.9650 C   0  0  0  0  0  0  0  0  0  0  0  0
   -5.0190   19.1850  -33.6190 C   0  0  0  0  0  0  0  0  0  0  0  0
   -3.6350   18.9920  -33.4810 C   0  0  0  0  0  0  0  0  0  0  0  0
   -3.0260   17.9160  -34.1230 C   0  0  0  0  0  0  0  0  0  0  0  0
   -3.8040   17.0540  -34.8930 C   0  0  0  0  0  0  0  0  0  0  0  0
   -3.0750   15.6920  -35.7170 Cl  0  0  0  0  0  0  0  0  0  0  0  0
   -5.1370   17.2830  -35.0090 N   0  0  0  0  0  0  0  0  0  0  0  0
   -5.7230   18.3120  -34.3950 N   0  0  0  0  0  0  0  0  0  0  0  0
   -5.0060   21.3740  -32.3560 C   0  0  0  0  0  0  0  0  0  0  0  0
   -5.7260   22.4150  -31.7570 C   0  0  0  0  0  0  0  0  0  0  0  0
   -5.2510   23.4990  -31.1020 N   0  0  0  0  0  0  0  0  0  0  0  0
   -3.8710   23.8070  -30.8370 C   0  0  0  0  0  0  0  0  0  0  0  0
   -2.9940   22.9080  -30.9140 O   0  0  0  0  0  0  0  0  0  0  0  0
   -3.4910   25.0990  -30.4950 O   0  0  0  0  0  0  0  0  0  0  0  0
   -4.9420   26.4770  -31.2150 H   0  0  0  0  0  0  0  0  0  0  0  0
   -5.4720   27.4150  -29.7800 H   0  0  0  0  0  0  0  0  0  0  0  0
   -8.5504   23.7938  -30.7854 H   0  0  0  0  0  0  0  0  0  0  0  0
   -8.9383   21.3772  -32.2525 H   0  0  0  0  0  0  0  0  0  0  0  0
   -7.7082   19.5029  -33.3868 H   0  0  0  0  0  0  0  0  0  0  0  0
   -3.0366   19.6847  -32.8710 H   0  0  0  0  0  0  0  0  0  0  0  0
   -1.9434   17.7489  -34.0231 H   0  0  0  0  0  0  0  0  0  0  0  0
   -3.9060   21.3777  -32.3542 H   0  0  0  0  0  0  0  0  0  0  0  0
  1  2  1  0
  2  3  2  0
  2  4  1  0
  4  5  2  0
  5  6  1  0
  6  7  2  0
  7  8  1  0
  8  9  2  0
  9 10  1  0
 10 11  2  0
 11 12  1  0
 12 13  2  0
 13 14  1  0
 13 15  1  0
 15 16  2  0
  9 17  1  0
 17 18  2  0
 18 19  1  0
 19 20  1  0
 20 21  2  0
 20 22  1  0
 19  4  1  0
 18  6  1  0
 16 10  1  0
  1 23  1  0
  1 24  1  0
  5 25  1  0
  7 26  1  0
  8 27  1  0
 11 28  1  0
 12 29  1  0
 17 30  1  0
M  CHG  1  22  -1
M  END
>  <UniqueID>  (66) 
66

>  <SMILES>  (66) 
NC(=O)c1cc2ccc(-c3ccc(Cl)nn3)cc2n1C(=O)[O-]

>  <Energy>  (66) 
78.16152570899035

>  <Genealogy>  (66) 
NC(=O)c1cc2ccc(-c3ccc(Cl)nn3)cc2n1C(=O)[O-] (protonated)
NC(=O)c1cc2ccc(-c3ccc(Cl)nn3)cc2n1C(=O)[O-] (3D coordinates assigned)
NC(=O)c1cc2ccc(-c3ccc(Cl)nn3)cc2n1C(=O)[O-] (optimized conformer: 78.16152570899035 kcal/mol)

>  <smiles>  (66) 
NC(=O)c1cc2ccc(-c3ccc(Cl)nn3)cc2n1C(=O)O

>  <score_type>  (66) 
oracle

>  <origin>  (66) 
adg

>  <m_score__min__energy>  (66) 
-9.6199999999999992

>  <m_primary>  (66) 
energy

$$$$
66:0
     RDKit          3D

 36 37  0  0  0  0  0  0  0  0999 V2000
   -8.7700   22.8010  -31.9330 C   0  0  0  0  0  0  0  0  0  0  0  0
   -9.1850   21.4870  -31.2920 C   0  0  0  0  0  0  0  0  0  0  0  0
   -9.0760   20.4360  -32.2460 O   0  0  0  0  0  0  0  0  0  0  0  0
   -7.8700   19.7810  -32.5110 C   0  0  0  0  0  0  0  0  0  0  0  0
   -7.6140   18.6640  -31.9850 O   0  0  0  0  0  0  0  0  0  0  0  0
   -6.8990   20.3930  -33.4680 C   0  0  0  0  0  0  0  0  0  0  0  0
   -5.6090   20.7030  -32.7620 C   0  0  0  0  0  0  0  0  0  0  0  0
   -4.5560   19.7540  -32.7550 C   0  0  0  0  0  0  0  0  0  0  0  0
   -3.3570   20.0210  -32.0750 C   0  0  0  0  0  0  0  0  0  0  0  0
   -3.2440   21.2340  -31.4000 C   0  0  0  0  0  0  0  0  0  0  0  0
   -2.1980   21.7500  -30.6700 C   0  0  0  0  0  0  0  0  0  0  0  0
   -2.6400   22.9930  -30.2190 C   0  0  0  0  0  0  0  0  0  0  0  0
   -1.8590   23.8600  -29.3150 C   0  0  0  0  0  0  0  0  0  0  0  0
   -2.0470   25.2730  -29.3470 N   0  0  0  0  0  0  0  0  0  0  0  0
   -1.0010   23.3700  -28.5340 O   0  0  0  0  0  0  0  0  0  0  0  0
   -3.9070   23.2360  -30.6620 N   0  0  0  0  0  0  0  0  0  0  0  0
   -4.7020   24.4160  -30.4680 C   0  0  0  0  0  0  0  0  0  0  0  0
   -6.0030   24.3530  -29.7320 C   0  0  0  0  0  0  0  0  0  0  0  0
   -4.2750   25.5320  -30.8690 O   0  0  0  0  0  0  0  0  0  0  0  0
   -4.2630   22.1500  -31.3770 C   0  0  0  0  0  0  0  0  0  0  0  0
   -5.4640   21.9180  -32.0550 C   0  0  0  0  0  0  0  0  0  0  0  0
   -8.5381   23.5351  -31.1473 H   0  0  0  0  0  0  0  0  0  0  0  0
   -7.8793   22.6390  -32.5578 H   0  0  0  0  0  0  0  0  0  0  0  0
   -9.5922   23.1800  -32.5578 H   0  0  0  0  0  0  0  0  0  0  0  0
   -8.5285   21.2738  -30.4356 H   0  0  0  0  0  0  0  0  0  0  0  0
  -10.2269   21.5613  -30.9471 H   0  0  0  0  0  0  0  0  0  0  0  0
   -6.7044   19.6886  -34.2901 H   0  0  0  0  0  0  0  0  0  0  0  0
   -7.3248   21.3248  -33.8687 H   0  0  0  0  0  0  0  0  0  0  0  0
   -4.6794   18.7994  -33.2874 H   0  0  0  0  0  0  0  0  0  0  0  0
   -2.5316   19.2939  -32.0754 H   0  0  0  0  0  0  0  0  0  0  0  0
   -1.2207   21.2814  -30.4822 H   0  0  0  0  0  0  0  0  0  0  0  0
   -3.0050   25.6870  -29.3120 H   0  0  0  0  0  0  0  0  0  0  0  0
   -5.8122   24.3622  -28.6487 H   0  0  0  0  0  0  0  0  0  0  0  0
   -6.6201   25.2223  -30.0031 H   0  0  0  0  0  0  0  0  0  0  0  0
   -6.5332   23.4281  -30.0031 H   0  0  0  0  0  0  0  0  0  0  0  0
   -6.2744   22.6616  -32.0384 H   0  0  0  0  0  0  0  0  0  0  0  0
  1  2  1  0
  2  3  1  0
  3  4  1  0
  4  5  2  0
  4  6  1  0
  6  7  1  0
  7  8  2  0
  8  9  1  0
  9 10  2  0
 10 11  1  0
 11 12  2  0
 12 13  1  0
 13 14  1  0
 13 15  2  0
 12 16  1  0
 16 17  1  0
 17 18  1  0
 17 19  2  0
 16 20  1  0
 20 21  2  0
 21  7  1  0
 20 10  1  0
  1 22  1  0
  1 23  1  0
  1 24  1  0
  2 25  1  0
  2 26  1  0
  6 27  1  0
  6 28  1  0
  8 29  1  0
  9 30  1  0
 11 31  1  0
 14 32  1  0
 18 33  1  0
 18 34  1  0
 18 35  1  0
 21 36  1  0
M  CHG  1  14  -1
M  END
>  <UniqueID>  (67) 
67

>  <SMILES>  (67) 
CCOC(=O)Cc1ccc2cc(C([NH-])=O)n(C(C)=O)c2c1

>  <Energy>  (67) 
67.52398596331697

>  <Genealogy>  (67) 
CCOC(=O)Cc1ccc2cc(C([NH-])=O)n(C(C)=O)c2c1 (protonated)
CCOC(=O)Cc1ccc2cc(C([NH-])=O)n(C(C)=O)c2c1 (3D coordinates assigned)
CCOC(=O)Cc1ccc2cc(C([NH-])=O)n(C(C)=O)c2c1 (optimized conformer: 67.52398596331697 kcal/mol)

>  <smiles>  (67) 
CCOC(=O)Cc1ccc2cc(C(N)=O)n(C(C)=O)c2c1

>  <score_type>  (67) 
oracle

>  <origin>  (67) 
adg

>  <m_score__min__energy>  (67) 
-9.8599999999999994

>  <m_primary>  (67) 
energy

$$$$
67:0
     RDKit          3D

 46 49  0  0  0  0  0  0  0  0999 V2000
   -5.8920   23.4720  -32.3720 C   0  0  0  0  0  0  0  0  0  0  0  0
   -4.7620   23.0970  -31.4560 C   0  0  0  0  0  0  0  0  0  0  0  0
   -3.9580   24.0960  -30.9790 N   0  0  0  0  0  0  0  0  0  0  0  0
   -2.9450   23.7940  -30.1330 C   0  0  0  0  0  0  0  0  0  0  0  0
   -2.0840   24.6640  -29.5850 N   0  0  0  0  0  0  0  0  0  0  0  0
   -1.2650   23.9100  -28.8160 C   0  0  0  0  0  0  0  0  0  0  0  0
    0.0560   24.5660  -27.8710 Cl  0  0  0  0  0  0  0  0  0  0  0  0
   -1.6090   22.5620  -28.8790 C   0  0  0  0  0  0  0  0  0  0  0  0
   -2.6900   22.5170  -29.7300 C   0  0  0  0  0  0  0  0  0  0  0  0
   -3.4610   21.4550  -30.1820 C   0  0  0  0  0  0  0  0  0  0  0  0
   -4.5150   21.7380  -31.0780 C   0  0  0  0  0  0  0  0  0  0  0  0
   -5.3370   20.6180  -31.5850 C   0  0  0  0  0  0  0  0  0  0  0  0
   -6.7480   20.6490  -31.4540 C   0  0  0  0  0  0  0  0  0  0  0  0
   -7.5340   19.5870  -31.9310 C   0  0  0  0  0  0  0  0  0  0  0  0
   -6.8860   18.5220  -32.5490 C   0  0  0  0  0  0  0  0  0  0  0  0
   -7.4010   17.3570  -33.0700 C   0  0  0  0  0  0  0  0  0  0  0  0
   -6.3000   16.6520  -33.5480 C   0  0  0  0  0  0  0  0  0  0  0  0
   -6.4100   15.3560  -34.2480 C   0  0  0  0  0  0  0  0  0  0  0  0
   -5.2500   14.5810  -34.5580 N   0  0  0  0  0  0  0  0  0  0  0  0
   -7.5410   14.9520  -34.6280 O   0  0  0  0  0  0  0  0  0  0  0  0
   -5.1480   17.3430  -33.3240 N   0  0  0  0  0  0  0  0  0  0  0  0
   -3.8040   16.8920  -33.5640 C   0  0  0  0  0  0  0  0  0  0  0  0
   -2.9960   16.7690  -32.6040 O   0  0  0  0  0  0  0  0  0  0  0  0
   -3.3980   16.5900  -34.8680 O   0  0  0  0  0  0  0  0  0  0  0  0
   -2.0850   16.1380  -35.1810 C   0  0  0  0  0  0  0  0  0  0  0  0
   -2.0650   14.6140  -35.2310 C   0  0  0  0  0  0  0  0  0  0  0  0
   -2.7440   14.0750  -34.1280 O   0  0  0  0  0  0  0  0  0  0  0  0
   -5.5240   18.4900  -32.7120 C   0  0  0  0  0  0  0  0  0  0  0  0
   -4.7150   19.5240  -32.2270 C   0  0  0  0  0  0  0  0  0  0  0  0
   -6.7680   23.7627  -31.7736 H   0  0  0  0  0  0  0  0  0  0  0  0
   -5.5848   24.3164  -33.0066 H   0  0  0  0  0  0  0  0  0  0  0  0
   -6.1506   22.6115  -33.0066 H   0  0  0  0  0  0  0  0  0  0  0  0
   -2.0530   25.6990  -29.7210 H   0  0  0  0  0  0  0  0  0  0  0  0
   -1.1244   21.7200  -28.3631 H   0  0  0  0  0  0  0  0  0  0  0  0
   -3.2574   20.4254  -29.8526 H   0  0  0  0  0  0  0  0  0  0  0  0
   -7.2319   21.5126  -30.9744 H   0  0  0  0  0  0  0  0  0  0  0  0
   -8.6283   19.5970  -31.8194 H   0  0  0  0  0  0  0  0  0  0  0  0
   -8.4565   17.0489  -33.1019 H   0  0  0  0  0  0  0  0  0  0  0  0
   -5.3500   13.6480  -35.0160 H   0  0  0  0  0  0  0  0  0  0  0  0
   -4.2910   14.9630  -34.4060 H   0  0  0  0  0  0  0  0  0  0  0  0
   -1.7833   16.5400  -36.1594 H   0  0  0  0  0  0  0  0  0  0  0  0
   -1.3853   16.4866  -34.4071 H   0  0  0  0  0  0  0  0  0  0  0  0
   -2.5537   14.2762  -36.1568 H   0  0  0  0  0  0  0  0  0  0  0  0
   -1.0198   14.2720  -35.2059 H   0  0  0  0  0  0  0  0  0  0  0  0
   -3.0430   14.8420  -33.5740 H   0  0  0  0  0  0  0  0  0  0  0  0
   -3.6218   19.4858  -32.3428 H   0  0  0  0  0  0  0  0  0  0  0  0
  1  2  1  0
  2  3  2  0
  3  4  1  0
  4  5  1  0
  5  6  1  0
  6  7  1  0
  6  8  2  0
  8  9  1  0
  9 10  1  0
 10 11  2  0
 11 12  1  0
 12 13  2  0
 13 14  1  0
 14 15  2  0
 15 16  1  0
 16 17  2  0
 17 18  1  0
 18 19  1  0
 18 20  2  0
 17 21  1  0
 21 22  1  0
 22 23  2  0
 22 24  1  0
 24 25  1  0
 25 26  1  0
 26 27  1  0
 21 28  1  0
 28 29  2  0
 11  2  1  0
 29 12  1  0
  9  4  2  0
 28 15  1  0
  1 30  1  0
  1 31  1  0
  1 32  1  0
  5 33  1  0
  8 34  1  0
 10 35  1  0
 13 36  1  0
 14 37  1  0
 16 38  1  0
 19 39  1  0
 19 40  1  0
 25 41  1  0
 25 42  1  0
 26 43  1  0
 26 44  1  0
 27 45  1  0
 29 46  1  0
M  END
>  <UniqueID>  (68) 
68

>  <SMILES>  (68) 
Cc1nc2[nH]c(Cl)cc2cc1-c1ccc2cc(C(N)=O)n(C(=O)OCCO)c2c1

>  <Energy>  (68) 
125.55304939693275

>  <Genealogy>  (68) 
Cc1nc2[nH]c(Cl)cc2cc1-c1ccc2cc(C(N)=O)n(C(=O)OCCO)c2c1 (3D coordinates assigned)
Cc1nc2[nH]c(Cl)cc2cc1-c1ccc2cc(C(N)=O)n(C(=O)OCCO)c2c1 (optimized conformer: 125.55304939693275 kcal/mol)

>  <smiles>  (68) 
Cc1nc2[nH]c(Cl)cc2cc1-c1ccc2cc(C(N)=O)n(C(=O)OCCO)c2c1

>  <score_type>  (68) 
oracle

>  <origin>  (68) 
adg

>  <m_score__min__energy>  (68) 
-10.1

>  <m_primary>  (68) 
energy

$$$$
68:0
     RDKit          3D

 37 39  0  0  0  0  0  0  0  0999 V2000
   -1.6110   25.7650  -29.0000 N   0  0  0  0  0  0  0  0  0  0  0  0
   -1.7430   24.3730  -29.2770 C   0  0  0  0  0  0  0  0  0  0  0  0
   -0.7340   23.6260  -29.1790 O   0  0  0  0  0  0  0  0  0  0  0  0
   -3.0470   23.8290  -29.7100 C   0  0  0  0  0  0  0  0  0  0  0  0
   -4.2710   24.4190  -29.3960 C   0  0  0  0  0  0  0  0  0  0  0  0
   -5.2160   23.6720  -30.0610 C   0  0  0  0  0  0  0  0  0  0  0  0
   -6.6010   23.8030  -30.0960 C   0  0  0  0  0  0  0  0  0  0  0  0
   -7.3320   22.8720  -30.8500 C   0  0  0  0  0  0  0  0  0  0  0  0
   -6.6750   21.8310  -31.5550 C   0  0  0  0  0  0  0  0  0  0  0  0
   -7.4380   20.8670  -32.3080 N   0  0  0  0  0  0  0  0  0  0  0  0
   -6.7820   19.9470  -33.2440 C   0  0  0  0  0  0  0  0  0  0  0  0
   -7.2110   18.4920  -32.9620 C   0  0  0  0  0  0  0  0  0  0  0  0
   -8.5480   18.3710  -32.3460 N   0  0  0  0  0  0  0  0  0  0  0  0
   -9.4400   19.4790  -32.7120 C   0  0  0  0  0  0  0  0  0  0  0  0
   -8.8980   20.8080  -32.1670 C   0  0  0  0  0  0  0  0  0  0  0  0
   -5.2660   21.7270  -31.4880 C   0  0  0  0  0  0  0  0  0  0  0  0
   -4.5630   22.6770  -30.7400 C   0  0  0  0  0  0  0  0  0  0  0  0
   -3.2320   22.7540  -30.5290 N   0  0  0  0  0  0  0  0  0  0  0  0
   -2.2390   21.8450  -31.0300 C   0  0  0  0  0  0  0  0  0  0  0  0
   -1.2440   21.3090  -30.1600 N   0  0  0  0  0  0  0  0  0  0  0  0
   -2.2660   21.4890  -32.2380 O   0  0  0  0  0  0  0  0  0  0  0  0
   -1.2180   26.4180  -29.7140 H   0  0  0  0  0  0  0  0  0  0  0  0
   -4.4441   25.2950  -28.7536 H   0  0  0  0  0  0  0  0  0  0  0  0
   -7.1076   24.6119  -29.5491 H   0  0  0  0  0  0  0  0  0  0  0  0
   -8.4283   22.9505  -30.8949 H   0  0  0  0  0  0  0  0  0  0  0  0
   -7.0647   20.2148  -34.2728 H   0  0  0  0  0  0  0  0  0  0  0  0
   -5.6923   20.0275  -33.1169 H   0  0  0  0  0  0  0  0  0  0  0  0
   -7.2175   17.9420  -33.9146 H   0  0  0  0  0  0  0  0  0  0  0  0
   -6.4890   18.0802  -32.2415 H   0  0  0  0  0  0  0  0  0  0  0  0
   -8.4400   18.3640  -31.3030 H   0  0  0  0  0  0  0  0  0  0  0  0
   -9.5114   19.5394  -33.8080 H   0  0  0  0  0  0  0  0  0  0  0  0
  -10.4333   19.2947  -32.2769 H   0  0  0  0  0  0  0  0  0  0  0  0
   -9.3493   21.6397  -32.7279 H   0  0  0  0  0  0  0  0  0  0  0  0
   -9.1547   20.8850  -31.1002 H   0  0  0  0  0  0  0  0  0  0  0  0
   -4.7356   20.9181  -32.0118 H   0  0  0  0  0  0  0  0  0  0  0  0
   -1.2580   21.5270  -29.1390 H   0  0  0  0  0  0  0  0  0  0  0  0
   -0.5140   20.6600  -30.5290 H   0  0  0  0  0  0  0  0  0  0  0  0
  1  2  1  0
  2  3  2  0
  2  4  1  0
  4  5  2  0
  5  6  1  0
  6  7  2  0
  7  8  1  0
  8  9  2  0
  9 10  1  0
 10 11  1  0
 11 12  1  0
 12 13  1  0
 13 14  1  0
 14 15  1  0
  9 16  1  0
 16 17  2  0
 17 18  1  0
 18 19  1  0
 19 20  1  0
 19 21  2  0
 18  4  1  0
 17  6  1  0
 15 10  1  0
  1 22  1  0
  5 23  1  0
  7 24  1  0
  8 25  1  0
 11 26  1  0
 11 27  1  0
 12 28  1  0
 12 29  1  0
 13 30  1  0
 14 31  1  0
 14 32  1  0
 15 33  1  0
 15 34  1  0
 16 35  1  0
 20 36  1  0
 20 37  1  0
M  CHG  1   1  -1
M  END
>  <UniqueID>  (69) 
69

>  <SMILES>  (69) 
[NH-]C(=O)c1cc2ccc(N3CCNCC3)cc2n1C(N)=O

>  <Energy>  (69) 
84.82195857914215

>  <Genealogy>  (69) 
[NH-]C(=O)c1cc2ccc(N3CCNCC3)cc2n1C(N)=O (protonated)
[NH-]C(=O)c1cc2ccc(N3CCNCC3)cc2n1C(N)=O (3D coordinates assigned)
[NH-]C(=O)c1cc2ccc(N3CCNCC3)cc2n1C(N)=O (nonaromatic ring conformer: 84.82195857914215 kcal/mol)

>  <smiles>  (69) 
NC(=O)c1cc2ccc(N3CCNCC3)cc2n1C(N)=O

>  <score_type>  (69) 
oracle

>  <origin>  (69) 
adg

>  <m_score__min__energy>  (69) 
-10.33

>  <m_primary>  (69) 
energy

$$$$
69:0
     RDKit          3D

 34 36  0  0  0  0  0  0  0  0999 V2000
   -7.0030   21.5520  -32.1900 C   0  0  0  0  0  0  0  0  0  0  0  0
   -6.4170   20.4320  -32.9900 C   0  0  0  0  0  0  0  0  0  0  0  0
   -7.1270   19.6520  -33.8250 N   0  0  0  0  0  0  0  0  0  0  0  0
   -6.3210   18.7840  -34.3590 O   0  0  0  0  0  0  0  0  0  0  0  0
   -5.0940   18.9620  -33.9220 C   0  0  0  0  0  0  0  0  0  0  0  0
   -3.9310   18.1290  -34.3500 C   0  0  0  0  0  0  0  0  0  0  0  0
   -5.0910   20.0240  -33.0250 C   0  0  0  0  0  0  0  0  0  0  0  0
   -3.9430   20.5870  -32.2840 C   0  0  0  0  0  0  0  0  0  0  0  0
   -2.7230   19.8690  -32.2080 C   0  0  0  0  0  0  0  0  0  0  0  0
   -1.6300   20.3870  -31.4930 C   0  0  0  0  0  0  0  0  0  0  0  0
   -1.7820   21.6240  -30.8750 C   0  0  0  0  0  0  0  0  0  0  0  0
   -0.8980   22.3410  -30.1010 C   0  0  0  0  0  0  0  0  0  0  0  0
   -1.5810   23.4980  -29.7360 C   0  0  0  0  0  0  0  0  0  0  0  0
   -0.9620   24.5950  -28.9630 C   0  0  0  0  0  0  0  0  0  0  0  0
   -1.5370   25.8990  -28.9490 N   0  0  0  0  0  0  0  0  0  0  0  0
    0.1180   24.3910  -28.3470 O   0  0  0  0  0  0  0  0  0  0  0  0
   -2.8420   23.4950  -30.2560 N   0  0  0  0  0  0  0  0  0  0  0  0
   -3.8880   24.4570  -30.0430 C   0  0  0  0  0  0  0  0  0  0  0  0
   -4.8270   24.2070  -29.2430 O   0  0  0  0  0  0  0  0  0  0  0  0
   -3.8860   25.6600  -30.7360 O   0  0  0  0  0  0  0  0  0  0  0  0
   -2.9480   22.3410  -30.9530 C   0  0  0  0  0  0  0  0  0  0  0  0
   -4.0580   21.8390  -31.6420 C   0  0  0  0  0  0  0  0  0  0  0  0
   -6.8895   21.3351  -31.1176 H   0  0  0  0  0  0  0  0  0  0  0  0
   -6.4794   22.4886  -32.4321 H   0  0  0  0  0  0  0  0  0  0  0  0
   -8.0710   21.6559  -32.4321 H   0  0  0  0  0  0  0  0  0  0  0  0
   -8.1510   19.7120  -34.0180 H   0  0  0  0  0  0  0  0  0  0  0  0
   -3.4038   17.7514  -33.4615 H   0  0  0  0  0  0  0  0  0  0  0  0
   -4.2892   17.2808  -34.9519 H   0  0  0  0  0  0  0  0  0  0  0  0
   -3.2433   18.7412  -34.9519 H   0  0  0  0  0  0  0  0  0  0  0  0
   -2.6311   18.8966  -32.7139 H   0  0  0  0  0  0  0  0  0  0  0  0
   -0.6831   19.8314  -31.4240 H   0  0  0  0  0  0  0  0  0  0  0  0
    0.1299   22.0596  -29.8286 H   0  0  0  0  0  0  0  0  0  0  0  0
   -2.5730   26.0290  -28.9680 H   0  0  0  0  0  0  0  0  0  0  0  0
   -4.9990   22.4073  -31.6824 H   0  0  0  0  0  0  0  0  0  0  0  0
  1  2  1  0
  2  3  2  0
  3  4  1  0
  4  5  1  0
  5  6  1  0
  5  7  2  0
  7  8  1  0
  8  9  2  0
  9 10  1  0
 10 11  2  0
 11 12  1  0
 12 13  2  0
 13 14  1  0
 14 15  1  0
 14 16  2  0
 13 17  1  0
 17 18  1  0
 18 19  2  0
 18 20  1  0
 17 21  1  0
 21 22  2  0
  7  2  1  0
 22  8  1  0
 21 11  1  0
  1 23  1  0
  1 24  1  0
  1 25  1  0
  3 26  1  0
  6 27  1  0
  6 28  1  0
  6 29  1  0
  9 30  1  0
 10 31  1  0
 12 32  1  0
 15 33  1  0
 22 34  1  0
M  CHG  3   3   1  15  -1  20  -1
M  END
>  <UniqueID>  (70) 
70

>  <SMILES>  (70) 
Cc1[nH+]oc(C)c1-c1ccc2cc(C([NH-])=O)n(C(=O)[O-])c2c1

>  <Energy>  (70) 
110.32520320755226

>  <Genealogy>  (70) 
Cc1[nH+]oc(C)c1-c1ccc2cc(C([NH-])=O)n(C(=O)[O-])c2c1 (protonated)
Cc1[nH+]oc(C)c1-c1ccc2cc(C([NH-])=O)n(C(=O)[O-])c2c1 (3D coordinates assigned)
Cc1[nH+]oc(C)c1-c1ccc2cc(C([NH-])=O)n(C(=O)[O-])c2c1 (optimized conformer: 110.32520320755226 kcal/mol)

>  <smiles>  (70) 
Cc1noc(C)c1-c1ccc2cc(C(N)=O)n(C(=O)O)c2c1

>  <score_type>  (70) 
oracle

>  <origin>  (70) 
adg

>  <m_score__min__energy>  (70) 
-11.91

>  <m_primary>  (70) 
energy

$$$$
70:0
     RDKit          3D

 32 33  0  0  0  0  0  0  0  0999 V2000
   -8.7390   18.5650  -31.6170 C   0  0  0  0  0  0  0  0  0  0  0  0
   -7.5760   18.7360  -32.2530 C   0  0  0  0  0  0  0  0  0  0  0  0
   -7.0810   20.1020  -32.6460 C   0  0  0  0  0  0  0  0  0  0  0  0
   -5.8100   20.0370  -33.5060 C   0  0  0  0  0  0  0  0  0  0  0  0
   -4.6010   20.5230  -32.7490 C   0  0  0  0  0  0  0  0  0  0  0  0
   -3.3870   19.7910  -32.7980 C   0  0  0  0  0  0  0  0  0  0  0  0
   -2.2490   20.2450  -32.1120 C   0  0  0  0  0  0  0  0  0  0  0  0
   -2.3500   21.4360  -31.3990 C   0  0  0  0  0  0  0  0  0  0  0  0
   -1.4140   22.0880  -30.6290 C   0  0  0  0  0  0  0  0  0  0  0  0
   -2.0580   23.2260  -30.1480 C   0  0  0  0  0  0  0  0  0  0  0  0
   -1.3830   24.2570  -29.3330 C   0  0  0  0  0  0  0  0  0  0  0  0
   -2.0570   25.4560  -28.9600 N   0  0  0  0  0  0  0  0  0  0  0  0
   -0.1790   24.0980  -28.9980 O   0  0  0  0  0  0  0  0  0  0  0  0
   -3.3440   23.2720  -30.5970 N   0  0  0  0  0  0  0  0  0  0  0  0
   -4.3580   24.2350  -30.2640 C   0  0  0  0  0  0  0  0  0  0  0  0
   -4.2330   25.5870  -30.6960 N   0  0  0  0  0  0  0  0  0  0  0  0
   -5.3700   23.8850  -29.6010 O   0  0  0  0  0  0  0  0  0  0  0  0
   -3.5070   22.1700  -31.3620 C   0  0  0  0  0  0  0  0  0  0  0  0
   -4.6620   21.7310  -32.0200 C   0  0  0  0  0  0  0  0  0  0  0  0
   -9.0727   17.5532  -31.3435 H   0  0  0  0  0  0  0  0  0  0  0  0
   -9.3625   19.4361  -31.3671 H   0  0  0  0  0  0  0  0  0  0  0  0
   -6.9641   17.8547  -32.4958 H   0  0  0  0  0  0  0  0  0  0  0  0
   -7.8695   20.6127  -33.2183 H   0  0  0  0  0  0  0  0  0  0  0  0
   -6.8353   20.6488  -31.7237 H   0  0  0  0  0  0  0  0  0  0  0  0
   -5.6418   18.9950  -33.8158 H   0  0  0  0  0  0  0  0  0  0  0  0
   -5.9530   20.6892  -34.3801 H   0  0  0  0  0  0  0  0  0  0  0  0
   -3.3365   18.8584  -33.3792 H   0  0  0  0  0  0  0  0  0  0  0  0
   -1.3072   19.6772  -32.1373 H   0  0  0  0  0  0  0  0  0  0  0  0
   -0.3771   21.7766  -30.4345 H   0  0  0  0  0  0  0  0  0  0  0  0
   -3.0120   25.6710  -29.3240 H   0  0  0  0  0  0  0  0  0  0  0  0
   -3.8690   26.3240  -30.0510 H   0  0  0  0  0  0  0  0  0  0  0  0
   -5.5943   22.3127  -31.9704 H   0  0  0  0  0  0  0  0  0  0  0  0
  1  2  2  0
  2  3  1  0
  3  4  1  0
  4  5  1  0
  5  6  2  0
  6  7  1  0
  7  8  2  0
  8  9  1  0
  9 10  2  0
 10 11  1  0
 11 12  1  0
 11 13  2  0
 10 14  1  0
 14 15  1  0
 15 16  1  0
 15 17  2  0
 14 18  1  0
 18 19  2  0
 19  5  1  0
 18  8  1  0
  1 20  1  0
  1 21  1  0
  2 22  1  0
  3 23  1  0
  3 24  1  0
  4 25  1  0
  4 26  1  0
  6 27  1  0
  7 28  1  0
  9 29  1  0
 12 30  1  0
 16 31  1  0
 19 32  1  0
M  CHG  2  12  -1  16  -1
M  END
>  <UniqueID>  (71) 
71

>  <SMILES>  (71) 
C=CCCc1ccc2cc(C([NH-])=O)n(C([NH-])=O)c2c1

>  <Energy>  (71) 
66.08719145343058

>  <Genealogy>  (71) 
C=CCCc1ccc2cc(C([NH-])=O)n(C([NH-])=O)c2c1 (protonated)
C=CCCc1ccc2cc(C([NH-])=O)n(C([NH-])=O)c2c1 (3D coordinates assigned)
C=CCCc1ccc2cc(C([NH-])=O)n(C([NH-])=O)c2c1 (optimized conformer: 66.08719145343058 kcal/mol)

>  <smiles>  (71) 
C=CCCc1ccc2cc(C(N)=O)n(C(N)=O)c2c1

>  <score_type>  (71) 
oracle

>  <origin>  (71) 
adg

>  <m_score__min__energy>  (71) 
-10.5

>  <m_primary>  (71) 
energy

$$$$
71:0
     RDKit          3D

 40 41  0  0  0  0  0  0  0  0999 V2000
   -0.8430   20.8740  -33.1010 C   0  0  0  0  0  0  0  0  0  0  0  0
   -2.0830   21.5750  -32.5400 C   0  0  0  0  0  0  0  0  0  0  0  0
   -2.2810   21.2200  -31.0680 C   0  0  0  0  0  0  0  0  0  0  0  0
   -3.2410   21.1750  -33.2720 O   0  0  0  0  0  0  0  0  0  0  0  0
   -3.9500   19.9960  -33.0140 C   0  0  0  0  0  0  0  0  0  0  0  0
   -3.3490   18.8900  -32.9750 O   0  0  0  0  0  0  0  0  0  0  0  0
   -5.3710   20.0520  -32.8050 N   0  0  0  0  0  0  0  0  0  0  0  0
   -6.3210   19.2720  -33.3930 C   0  0  0  0  0  0  0  0  0  0  0  0
   -6.0660   18.0900  -34.2390 C   0  0  0  0  0  0  0  0  0  0  0  0
   -4.8890   17.9990  -35.0450 N   0  0  0  0  0  0  0  0  0  0  0  0
   -6.8720   17.1220  -34.2100 O   0  0  0  0  0  0  0  0  0  0  0  0
   -7.5980   19.7140  -33.0600 C   0  0  0  0  0  0  0  0  0  0  0  0
   -7.4050   20.7920  -32.2300 C   0  0  0  0  0  0  0  0  0  0  0  0
   -8.3360   21.6300  -31.6230 C   0  0  0  0  0  0  0  0  0  0  0  0
   -7.8550   22.7020  -30.8540 C   0  0  0  0  0  0  0  0  0  0  0  0
   -6.4620   22.9150  -30.7050 C   0  0  0  0  0  0  0  0  0  0  0  0
   -5.9610   24.0990  -29.9230 C   0  0  0  0  0  0  0  0  0  0  0  0
   -4.5310   23.8560  -29.4350 C   0  0  0  0  0  0  0  0  0  0  0  0
   -3.6140   24.9190  -29.9510 C   0  0  0  0  0  0  0  0  0  0  0  0
   -3.9750   25.6610  -30.9020 O   0  0  0  0  0  0  0  0  0  0  0  0
   -2.3810   25.1270  -29.3450 O   0  0  0  0  0  0  0  0  0  0  0  0
   -5.5470   22.0520  -31.3460 C   0  0  0  0  0  0  0  0  0  0  0  0
   -6.0520   20.9790  -32.0920 C   0  0  0  0  0  0  0  0  0  0  0  0
   -0.2152   20.5191  -32.2704 H   0  0  0  0  0  0  0  0  0  0  0  0
   -1.1534   20.0178  -33.7178 H   0  0  0  0  0  0  0  0  0  0  0  0
   -0.2694   21.5815  -33.7178 H   0  0  0  0  0  0  0  0  0  0  0  0
   -1.9363   22.6611  -32.6346 H   0  0  0  0  0  0  0  0  0  0  0  0
   -1.8416   22.0078  -30.4385 H   0  0  0  0  0  0  0  0  0  0  0  0
   -3.3564   21.1357  -30.8526 H   0  0  0  0  0  0  0  0  0  0  0  0
   -1.7876   20.2607  -30.8526 H   0  0  0  0  0  0  0  0  0  0  0  0
   -4.7360   17.1660  -35.6560 H   0  0  0  0  0  0  0  0  0  0  0  0
   -4.1340   18.7160  -34.9800 H   0  0  0  0  0  0  0  0  0  0  0  0
   -8.5578   19.2904  -33.3909 H   0  0  0  0  0  0  0  0  0  0  0  0
   -9.4159   21.4577  -31.7421 H   0  0  0  0  0  0  0  0  0  0  0  0
   -8.5660   23.3826  -30.3628 H   0  0  0  0  0  0  0  0  0  0  0  0
   -5.9766   24.9905  -30.5672 H   0  0  0  0  0  0  0  0  0  0  0  0
   -6.6130   24.2490  -29.0499 H   0  0  0  0  0  0  0  0  0  0  0  0
   -4.5168   23.8682  -28.3352 H   0  0  0  0  0  0  0  0  0  0  0  0
   -4.1889   22.8792  -29.8077 H   0  0  0  0  0  0  0  0  0  0  0  0
   -4.4629   22.2181  -31.2617 H   0  0  0  0  0  0  0  0  0  0  0  0
  1  2  1  0
  2  3  1  0
  2  4  1  0
  4  5  1  0
  5  6  2  0
  5  7  1  0
  7  8  1  0
  8  9  1  0
  9 10  1  0
  9 11  2  0
  8 12  2  0
 12 13  1  0
 13 14  2  0
 14 15  1  0
 15 16  2  0
 16 17  1  0
 17 18  1  0
 18 19  1  0
 19 20  2  0
 19 21  1  0
 16 22  1  0
 22 23  2  0
 23  7  1  0
 23 13  1  0
  1 24  1  0
  1 25  1  0
  1 26  1  0
  2 27  1  0
  3 28  1  0
  3 29  1  0
  3 30  1  0
 10 31  1  0
 10 32  1  0
 12 33  1  0
 14 34  1  0
 15 35  1  0
 17 36  1  0
 17 37  1  0
 18 38  1  0
 18 39  1  0
 22 40  1  0
M  CHG  1  21  -1
M  END
>  <UniqueID>  (72) 
72

>  <SMILES>  (72) 
CC(C)OC(=O)n1c(C(N)=O)cc2ccc(CCC(=O)[O-])cc21

>  <Energy>  (72) 
68.94620195398342

>  <Genealogy>  (72) 
CC(C)OC(=O)n1c(C(N)=O)cc2ccc(CCC(=O)[O-])cc21 (protonated)
CC(C)OC(=O)n1c(C(N)=O)cc2ccc(CCC(=O)[O-])cc21 (3D coordinates assigned)
CC(C)OC(=O)n1c(C(N)=O)cc2ccc(CCC(=O)[O-])cc21 (optimized conformer: 68.94620195398342 kcal/mol)

>  <smiles>  (72) 
CC(C)OC(=O)n1c(C(N)=O)cc2ccc(CCC(=O)O)cc21

>  <score_type>  (72) 
oracle

>  <origin>  (72) 
adg

>  <m_score__min__energy>  (72) 
-9.9399999999999995

>  <m_primary>  (72) 
energy

$$$$
72:0
     RDKit          3D

 41 43  0  0  0  0  0  0  0  0999 V2000
   -3.7480   25.2820  -30.5300 N   0  0  0  0  0  0  0  0  0  0  0  0
   -5.0700   24.7930  -30.3220 C   0  0  0  0  0  0  0  0  0  0  0  0
   -5.8170   25.3700  -29.4870 O   0  0  0  0  0  0  0  0  0  0  0  0
   -5.5570   23.5930  -31.0330 C   0  0  0  0  0  0  0  0  0  0  0  0
   -6.9070   23.3150  -31.2370 C   0  0  0  0  0  0  0  0  0  0  0  0
   -6.9380   22.0780  -31.8400 C   0  0  0  0  0  0  0  0  0  0  0  0
   -8.0210   21.3190  -32.2720 C   0  0  0  0  0  0  0  0  0  0  0  0
   -7.7570   20.0830  -32.8830 C   0  0  0  0  0  0  0  0  0  0  0  0
   -6.4230   19.6270  -33.0580 C   0  0  0  0  0  0  0  0  0  0  0  0
   -6.1400   18.2960  -33.7340 C   0  0  2  0  0  0  0  0  0  0  0  0
   -7.1990   17.2530  -33.3140 C   0  0  0  0  0  0  0  0  0  0  0  0
   -6.8260   15.8630  -33.8350 C   0  0  0  0  0  0  0  0  0  0  0  0
   -5.4640   15.3750  -33.2980 C   0  0  0  0  0  0  0  0  0  0  0  0
   -4.5950   16.4930  -32.6920 C   0  0  0  0  0  0  0  0  0  0  0  0
   -4.6680   17.8180  -33.4820 C   0  0  1  0  0  0  0  0  0  0  0  0
   -3.8890   17.7040  -34.7710 C   0  0  0  0  0  0  0  0  0  0  0  0
   -4.4890   17.4560  -35.8490 O   0  0  0  0  0  0  0  0  0  0  0  0
   -2.5120   17.8950  -34.7870 O   0  0  0  0  0  0  0  0  0  0  0  0
   -5.3500   20.4310  -32.6060 C   0  0  0  0  0  0  0  0  0  0  0  0
   -5.6460   21.6510  -31.9870 C   0  0  0  0  0  0  0  0  0  0  0  0
   -4.7850   22.5710  -31.5020 N   0  0  0  0  0  0  0  0  0  0  0  0
   -3.3520   22.5020  -31.5570 C   0  0  0  0  0  0  0  0  0  0  0  0
   -2.5620   22.9870  -30.4710 N   0  0  0  0  0  0  0  0  0  0  0  0
   -2.7820   22.0420  -32.5830 O   0  0  0  0  0  0  0  0  0  0  0  0
   -3.5590   26.0470  -31.2160 H   0  0  0  0  0  0  0  0  0  0  0  0
   -7.7658   23.9494  -30.9723 H   0  0  0  0  0  0  0  0  0  0  0  0
   -9.0527   21.6765  -32.1389 H   0  0  0  0  0  0  0  0  0  0  0  0
   -8.5939   19.4595  -33.2307 H   0  0  0  0  0  0  0  0  0  0  0  0
   -6.2230   18.4252  -34.8232 H   0  0  0  0  0  0  0  0  0  0  0  0
   -7.2603   17.2226  -32.2161 H   0  0  0  0  0  0  0  0  0  0  0  0
   -8.1698   17.5425  -33.7427 H   0  0  0  0  0  0  0  0  0  0  0  0
   -7.6035   15.1497  -33.5242 H   0  0  0  0  0  0  0  0  0  0  0  0
   -6.7493   15.9268  -34.9305 H   0  0  0  0  0  0  0  0  0  0  0  0
   -5.6490   14.6199  -32.5198 H   0  0  0  0  0  0  0  0  0  0  0  0
   -4.9091   14.9694  -34.1568 H   0  0  0  0  0  0  0  0  0  0  0  0
   -4.9350   16.6807  -31.6628 H   0  0  0  0  0  0  0  0  0  0  0  0
   -3.5506   16.1495  -32.7267 H   0  0  0  0  0  0  0  0  0  0  0  0
   -4.2027   18.5965  -32.8596 H   0  0  0  0  0  0  0  0  0  0  0  0
   -4.3078   20.1050  -32.7380 H   0  0  0  0  0  0  0  0  0  0  0  0
   -3.0140   23.4400  -29.6470 H   0  0  0  0  0  0  0  0  0  0  0  0
   -1.5200   22.9250  -30.5080 H   0  0  0  0  0  0  0  0  0  0  0  0
  1  2  1  0
  2  3  2  0
  2  4  1  0
  4  5  2  0
  5  6  1  0
  6  7  2  0
  7  8  1  0
  8  9  2  0
  9 10  1  0
 10 11  1  0
 11 12  1  0
 12 13  1  0
 13 14  1  0
 14 15  1  0
 15 16  1  0
 16 17  2  0
 16 18  1  0
  9 19  1  0
 19 20  2  0
 20 21  1  0
 21 22  1  0
 22 23  1  0
 22 24  2  0
 21  4  1  0
 20  6  1  0
 15 10  1  0
  1 25  1  0
  5 26  1  0
  7 27  1  0
  8 28  1  0
 10 29  1  6
 11 30  1  0
 11 31  1  0
 12 32  1  0
 12 33  1  0
 13 34  1  0
 13 35  1  0
 14 36  1  0
 14 37  1  0
 15 38  1  1
 19 39  1  0
 23 40  1  0
 23 41  1  0
M  CHG  2   1  -1  18  -1
M  END
>  <UniqueID>  (73) 
73

>  <SMILES>  (73) 
[NH-]C(=O)c1cc2ccc([C@@H]3CCCC[C@H]3C(=O)[O-])cc2n1C(N)=O

>  <Energy>  (73) 
86.63341269201003

>  <Genealogy>  (73) 
[NH-]C(=O)c1cc2ccc(C3CCCCC3C(=O)[O-])cc2n1C(N)=O (protonated)
[NH-]C(=O)c1cc2ccc([C@@H]3CCCC[C@H]3C(=O)[O-])cc2n1C(N)=O (chirality)
[NH-]C(=O)c1cc2ccc([C@@H]3CCCC[C@H]3C(=O)[O-])cc2n1C(N)=O (3D coordinates assigned)
[NH-]C(=O)c1cc2ccc([C@@H]3CCCC[C@H]3C(=O)[O-])cc2n1C(N)=O (nonaromatic ring conformer: 86.63341269201003 kcal/mol)

>  <smiles>  (73) 
NC(=O)c1cc2ccc(C3CCCCC3C(=O)O)cc2n1C(N)=O

>  <score_type>  (73) 
oracle

>  <origin>  (73) 
adg

>  <m_score__min__energy>  (73) 
-11.99

>  <m_primary>  (73) 
energy

$$$$
73:0
     RDKit          3D

 49 51  0  0  0  0  0  0  0  0999 V2000
   -3.8440   23.4390  -27.9880 C   0  0  0  0  0  0  0  0  0  0  0  0
   -3.0650   22.5160  -28.9200 C   0  0  0  0  0  0  0  0  0  0  0  0
   -2.8660   23.1340  -30.1890 O   0  0  0  0  0  0  0  0  0  0  0  0
   -3.5470   22.7480  -31.3500 C   0  0  0  0  0  0  0  0  0  0  0  0
   -2.9170   22.2570  -32.3260 O   0  0  0  0  0  0  0  0  0  0  0  0
   -4.9740   22.8950  -31.4200 N   0  0  0  0  0  0  0  0  0  0  0  0
   -5.7250   23.9480  -30.9900 C   0  0  0  0  0  0  0  0  0  0  0  0
   -5.2050   25.2390  -30.4930 C   0  0  0  0  0  0  0  0  0  0  0  0
   -3.9030   25.6740  -30.8750 N   0  0  0  0  0  0  0  0  0  0  0  0
   -5.8860   25.9460  -29.7040 O   0  0  0  0  0  0  0  0  0  0  0  0
   -7.0830   23.6790  -31.1580 C   0  0  0  0  0  0  0  0  0  0  0  0
   -7.1390   22.4210  -31.7130 C   0  0  0  0  0  0  0  0  0  0  0  0
   -8.2400   21.6540  -32.0760 C   0  0  0  0  0  0  0  0  0  0  0  0
   -8.0060   20.3720  -32.6000 C   0  0  0  0  0  0  0  0  0  0  0  0
   -6.6830   19.8710  -32.7480 C   0  0  0  0  0  0  0  0  0  0  0  0
   -6.4550   18.5430  -33.2760 N   0  0  0  0  0  0  0  0  0  0  0  0
   -6.9250   17.3240  -32.6360 C   0  0  0  0  0  0  0  0  0  0  0  0
   -6.6340   16.1990  -33.6170 C   0  0  0  0  0  0  0  0  0  0  0  0
   -5.5860   16.7480  -34.5980 C   0  0  2  0  0  0  0  0  0  0  0  0
   -4.1490   16.2990  -34.2230 C   0  0  0  0  0  0  0  0  0  0  0  0
   -3.7400   15.0600  -34.9180 N   0  0  0  0  0  0  0  0  0  0  0  0
   -2.7580   15.3200  -35.9760 C   0  0  0  0  0  0  0  0  0  0  0  0
   -5.7360   18.2730  -34.5130 C   0  0  0  0  0  0  0  0  0  0  0  0
   -5.5920   20.6900  -32.3630 C   0  0  0  0  0  0  0  0  0  0  0  0
   -5.8550   21.9690  -31.8610 C   0  0  0  0  0  0  0  0  0  0  0  0
   -3.6226   23.1767  -26.9429 H   0  0  0  0  0  0  0  0  0  0  0  0
   -3.5492   24.4822  -28.1745 H   0  0  0  0  0  0  0  0  0  0  0  0
   -4.9219   23.3236  -28.1745 H   0  0  0  0  0  0  0  0  0  0  0  0
   -2.0866   22.2907  -28.4705 H   0  0  0  0  0  0  0  0  0  0  0  0
   -3.6408   21.5898  -29.0636 H   0  0  0  0  0  0  0  0  0  0  0  0
   -3.0500   25.2810  -30.4200 H   0  0  0  0  0  0  0  0  0  0  0  0
   -7.9293   24.3332  -30.9015 H   0  0  0  0  0  0  0  0  0  0  0  0
   -9.2634   22.0393  -31.9565 H   0  0  0  0  0  0  0  0  0  0  0  0
   -8.8590   19.7458  -32.9005 H   0  0  0  0  0  0  0  0  0  0  0  0
   -6.3874   17.1562  -31.6911 H   0  0  0  0  0  0  0  0  0  0  0  0
   -7.9966   17.3821  -32.3946 H   0  0  0  0  0  0  0  0  0  0  0  0
   -6.2363   15.3222  -33.0850 H   0  0  0  0  0  0  0  0  0  0  0  0
   -7.5459   15.8781  -34.1418 H   0  0  0  0  0  0  0  0  0  0  0  0
   -5.7459   16.3694  -35.6183 H   0  0  0  0  0  0  0  0  0  0  0  0
   -3.4474   17.1021  -34.4929 H   0  0  0  0  0  0  0  0  0  0  0  0
   -4.1357   16.0942  -33.1423 H   0  0  0  0  0  0  0  0  0  0  0  0
   -3.2990   14.4180  -34.2200 H   0  0  0  0  0  0  0  0  0  0  0  0
   -4.5640   14.5680  -35.3330 H   0  0  0  0  0  0  0  0  0  0  0  0
   -1.7893   15.5765  -35.5222 H   0  0  0  0  0  0  0  0  0  0  0  0
   -2.6442   14.4210  -36.5996 H   0  0  0  0  0  0  0  0  0  0  0  0
   -3.1040   16.1575  -36.5996 H   0  0  0  0  0  0  0  0  0  0  0  0
   -4.7464   18.7527  -34.4911 H   0  0  0  0  0  0  0  0  0  0  0  0
   -6.2754   18.6716  -35.3849 H   0  0  0  0  0  0  0  0  0  0  0  0
   -4.5580   20.3267  -32.4572 H   0  0  0  0  0  0  0  0  0  0  0  0
  1  2  1  0
  2  3  1  0
  3  4  1  0
  4  5  2  0
  4  6  1  0
  6  7  1  0
  7  8  1  0
  8  9  1  0
  8 10  2  0
  7 11  2  0
 11 12  1  0
 12 13  2  0
 13 14  1  0
 14 15  2  0
 15 16  1  0
 16 17  1  0
 17 18  1  0
 18 19  1  0
 19 20  1  0
 20 21  1  0
 21 22  1  0
 19 23  1  0
 15 24  1  0
 24 25  2  0
 25  6  1  0
 25 12  1  0
 23 16  1  0
  1 26  1  0
  1 27  1  0
  1 28  1  0
  2 29  1  0
  2 30  1  0
  9 31  1  0
 11 32  1  0
 13 33  1  0
 14 34  1  0
 17 35  1  0
 17 36  1  0
 18 37  1  0
 18 38  1  0
 19 39  1  6
 20 40  1  0
 20 41  1  0
 21 42  1  0
 21 43  1  0
 22 44  1  0
 22 45  1  0
 22 46  1  0
 23 47  1  0
 23 48  1  0
 24 49  1  0
M  CHG  2   9  -1  21   1
M  END
>  <UniqueID>  (74) 
74

>  <SMILES>  (74) 
CCOC(=O)n1c(C([NH-])=O)cc2ccc(N3CC[C@H](C[NH2+]C)C3)cc21

>  <Energy>  (74) 
87.10149237885217

>  <Genealogy>  (74) 
CCOC(=O)n1c(C([NH-])=O)cc2ccc(N3CC[C@H](C[NH2+]C)C3)cc21 (protonated)
CCOC(=O)n1c(C([NH-])=O)cc2ccc(N3CC[C@H](C[NH2+]C)C3)cc21 (3D coordinates assigned)
CCOC(=O)n1c(C([NH-])=O)cc2ccc(N3CC[C@H](C[NH2+]C)C3)cc21 (nonaromatic ring conformer: 87.10149237885217 kcal/mol)

>  <smiles>  (74) 
CCOC(=O)n1c(C(N)=O)cc2ccc(N3CC[C@H](CNC)C3)cc21

>  <score_type>  (74) 
oracle

>  <origin>  (74) 
adg

>  <m_score__min__energy>  (74) 
-10.220000000000001

>  <m_primary>  (74) 
energy

$$$$
74:0
     RDKit          3D

 39 41  0  0  0  0  0  0  0  0999 V2000
   -4.6100   15.7070  -32.9400 C   0  0  0  0  0  0  0  0  0  0  0  0
   -5.4210   15.8870  -34.1570 N   0  0  0  0  0  0  0  0  0  0  0  0
   -4.9770   17.0170  -34.9790 C   0  0  0  0  0  0  0  0  0  0  0  0
   -5.1790   18.3770  -34.2960 C   0  0  0  0  0  0  0  0  0  0  0  0
   -6.3930   18.4790  -33.4560 N   0  0  0  0  0  0  0  0  0  0  0  0
   -6.7070   19.7630  -32.8270 C   0  0  0  0  0  0  0  0  0  0  0  0
   -8.0610   20.1600  -32.5960 C   0  0  0  0  0  0  0  0  0  0  0  0
   -8.3730   21.3860  -31.9880 C   0  0  0  0  0  0  0  0  0  0  0  0
   -7.3260   22.2150  -31.6120 C   0  0  0  0  0  0  0  0  0  0  0  0
   -7.3500   23.4400  -30.9890 C   0  0  0  0  0  0  0  0  0  0  0  0
   -6.0140   23.8060  -30.8500 C   0  0  0  0  0  0  0  0  0  0  0  0
   -5.5840   25.1040  -30.2970 C   0  0  0  0  0  0  0  0  0  0  0  0
   -6.1850   25.6370  -29.1160 N   0  0  0  0  0  0  0  0  0  0  0  0
   -4.6290   25.7220  -30.8390 O   0  0  0  0  0  0  0  0  0  0  0  0
   -5.1970   22.8360  -31.3480 N   0  0  0  0  0  0  0  0  0  0  0  0
   -3.7610   22.7660  -31.2880 C   0  0  0  0  0  0  0  0  0  0  0  0
   -3.0840   23.7330  -30.8490 O   0  0  0  0  0  0  0  0  0  0  0  0
   -6.0180   21.8720  -31.8200 C   0  0  0  0  0  0  0  0  0  0  0  0
   -5.6740   20.6510  -32.4110 C   0  0  0  0  0  0  0  0  0  0  0  0
   -7.2080   17.2950  -33.1070 C   0  0  0  0  0  0  0  0  0  0  0  0
   -6.8550   16.0150  -33.8770 C   0  0  0  0  0  0  0  0  0  0  0  0
   -5.2444   15.8478  -32.0525 H   0  0  0  0  0  0  0  0  0  0  0  0
   -4.1847   14.6926  -32.9295 H   0  0  0  0  0  0  0  0  0  0  0  0
   -3.7955   16.4462  -32.9295 H   0  0  0  0  0  0  0  0  0  0  0  0
   -3.9063   16.8910  -35.1977 H   0  0  0  0  0  0  0  0  0  0  0  0
   -5.5880   17.0163  -35.8937 H   0  0  0  0  0  0  0  0  0  0  0  0
   -4.3046   18.5718  -33.6577 H   0  0  0  0  0  0  0  0  0  0  0  0
   -5.3010   19.1128  -35.1045 H   0  0  0  0  0  0  0  0  0  0  0  0
   -8.8772   19.4890  -32.9019 H   0  0  0  0  0  0  0  0  0  0  0  0
   -9.4183   21.6813  -31.8145 H   0  0  0  0  0  0  0  0  0  0  0  0
   -8.2352   24.0092  -30.6689 H   0  0  0  0  0  0  0  0  0  0  0  0
   -6.8670   25.0750  -28.5610 H   0  0  0  0  0  0  0  0  0  0  0  0
   -5.8880   26.5690  -28.7520 H   0  0  0  0  0  0  0  0  0  0  0  0
   -3.2475   21.8554  -31.6303 H   0  0  0  0  0  0  0  0  0  0  0  0
   -4.6174   20.3800  -32.5527 H   0  0  0  0  0  0  0  0  0  0  0  0
   -7.0766   17.0947  -32.0334 H   0  0  0  0  0  0  0  0  0  0  0  0
   -8.2440   17.5431  -33.3813 H   0  0  0  0  0  0  0  0  0  0  0  0
   -7.1734   15.1482  -33.2793 H   0  0  0  0  0  0  0  0  0  0  0  0
   -7.3746   16.0619  -34.8454 H   0  0  0  0  0  0  0  0  0  0  0  0
  1  2  1  0
  2  3  1  0
  3  4  1  0
  4  5  1  0
  5  6  1  0
  6  7  2  0
  7  8  1  0
  8  9  2  0
  9 10  1  0
 10 11  2  0
 11 12  1  0
 12 13  1  0
 12 14  2  0
 11 15  1  0
 15 16  1  0
 16 17  2  0
 15 18  1  0
 18 19  2  0
  5 20  1  0
 20 21  1  0
 21  2  1  0
 19  6  1  0
 18  9  1  0
  1 22  1  0
  1 23  1  0
  1 24  1  0
  3 25  1  0
  3 26  1  0
  4 27  1  0
  4 28  1  0
  7 29  1  0
  8 30  1  0
 10 31  1  0
 13 32  1  0
 13 33  1  0
 16 34  1  0
 19 35  1  0
 20 36  1  0
 20 37  1  0
 21 38  1  0
 21 39  1  0
M  END
>  <UniqueID>  (75) 
75

>  <SMILES>  (75) 
CN1CCN(c2ccc3cc(C(N)=O)n(C=O)c3c2)CC1

>  <Energy>  (75) 
89.78549034804179

>  <Genealogy>  (75) 
CN1CCN(c2ccc3cc(C(N)=O)n(C=O)c3c2)CC1 (3D coordinates assigned)
CN1CCN(c2ccc3cc(C(N)=O)n(C=O)c3c2)CC1 (nonaromatic ring conformer: 89.78549034804179 kcal/mol)

>  <smiles>  (75) 
CN1CCN(c2ccc3cc(C(N)=O)n(C=O)c3c2)CC1

>  <score_type>  (75) 
oracle

>  <origin>  (75) 
adg

>  <m_score__min__energy>  (75) 
-9.0399999999999991

>  <m_primary>  (75) 
energy

$$$$
75:0
     RDKit          3D

 34 35  0  0  0  0  0  0  0  0999 V2000
   -3.5350   21.3760  -29.9350 C   0  0  0  0  0  0  0  0  0  0  0  0
   -3.9890   22.5300  -30.7710 C   0  0  0  0  0  0  0  0  0  0  0  0
   -3.1300   23.3190  -31.2460 O   0  0  0  0  0  0  0  0  0  0  0  0
   -5.3830   22.7390  -31.0520 N   0  0  0  0  0  0  0  0  0  0  0  0
   -6.1150   23.8570  -30.7850 C   0  0  0  0  0  0  0  0  0  0  0  0
   -5.5830   25.1380  -30.2770 C   0  0  0  0  0  0  0  0  0  0  0  0
   -4.2370   25.5400  -30.5410 N   0  0  0  0  0  0  0  0  0  0  0  0
   -6.3430   25.9130  -29.6390 O   0  0  0  0  0  0  0  0  0  0  0  0
   -7.4600   23.6450  -31.0730 C   0  0  0  0  0  0  0  0  0  0  0  0
   -7.5330   22.3510  -31.5380 C   0  0  0  0  0  0  0  0  0  0  0  0
   -8.6360   21.6090  -31.9450 C   0  0  0  0  0  0  0  0  0  0  0  0
   -8.4280   20.2740  -32.3270 C   0  0  0  0  0  0  0  0  0  0  0  0
   -7.1310   19.6990  -32.2840 C   0  0  0  0  0  0  0  0  0  0  0  0
   -6.9350   18.2500  -32.6830 C   0  0  0  0  0  0  0  0  0  0  0  0
   -6.3190   17.4400  -31.5360 C   0  0  0  0  0  0  0  0  0  0  0  0
   -6.0870   18.1360  -33.9560 C   0  0  0  0  0  0  0  0  0  0  0  0
   -6.0350   20.4890  -31.8560 C   0  0  0  0  0  0  0  0  0  0  0  0
   -6.2670   21.8230  -31.5090 C   0  0  0  0  0  0  0  0  0  0  0  0
   -3.6359   21.6325  -28.8701 H   0  0  0  0  0  0  0  0  0  0  0  0
   -4.1534   20.4945  -30.1600 H   0  0  0  0  0  0  0  0  0  0  0  0
   -2.4818   21.1521  -30.1600 H   0  0  0  0  0  0  0  0  0  0  0  0
   -3.6400   25.0200  -31.2200 H   0  0  0  0  0  0  0  0  0  0  0  0
   -3.8650   26.4240  -30.1280 H   0  0  0  0  0  0  0  0  0  0  0  0
   -8.2883   24.3591  -30.9544 H   0  0  0  0  0  0  0  0  0  0  0  0
   -9.6415   22.0544  -31.9671 H   0  0  0  0  0  0  0  0  0  0  0  0
   -9.2807   19.6662  -32.6638 H   0  0  0  0  0  0  0  0  0  0  0  0
   -7.9262   17.8255  -32.9008 H   0  0  0  0  0  0  0  0  0  0  0  0
   -6.6413   17.8638  -30.5734 H   0  0  0  0  0  0  0  0  0  0  0  0
   -6.6518   16.3939  -31.6059 H   0  0  0  0  0  0  0  0  0  0  0  0
   -5.2220   17.4812  -31.6059 H   0  0  0  0  0  0  0  0  0  0  0  0
   -5.0312   17.9941  -33.6818 H   0  0  0  0  0  0  0  0  0  0  0  0
   -6.4305   17.2760  -34.5496 H   0  0  0  0  0  0  0  0  0  0  0  0
   -6.1911   19.0562  -34.5496 H   0  0  0  0  0  0  0  0  0  0  0  0
   -5.0232   20.0614  -31.7981 H   0  0  0  0  0  0  0  0  0  0  0  0
  1  2  1  0
  2  3  2  0
  2  4  1  0
  4  5  1  0
  5  6  1  0
  6  7  1  0
  6  8  2  0
  5  9  2  0
  9 10  1  0
 10 11  2  0
 11 12  1  0
 12 13  2  0
 13 14  1  0
 14 15  1  0
 14 16  1  0
 13 17  1  0
 17 18  2  0
 18  4  1  0
 18 10  1  0
  1 19  1  0
  1 20  1  0
  1 21  1  0
  7 22  1  0
  7 23  1  0
  9 24  1  0
 11 25  1  0
 12 26  1  0
 14 27  1  0
 15 28  1  0
 15 29  1  0
 15 30  1  0
 16 31  1  0
 16 32  1  0
 16 33  1  0
 17 34  1  0
M  END
>  <UniqueID>  (76) 
76

>  <SMILES>  (76) 
CC(=O)n1c(C(N)=O)cc2ccc(C(C)C)cc21

>  <Energy>  (76) 
69.46586843323887

>  <Genealogy>  (76) 
CC(=O)n1c(C(N)=O)cc2ccc(C(C)C)cc21 (3D coordinates assigned)
CC(=O)n1c(C(N)=O)cc2ccc(C(C)C)cc21 (optimized conformer: 69.46586843323887 kcal/mol)

>  <smiles>  (76) 
CC(=O)n1c(C(N)=O)cc2ccc(C(C)C)cc21

>  <score_type>  (76) 
oracle

>  <origin>  (76) 
adg

>  <m_score__min__energy>  (76) 
-9.0199999999999996

>  <m_primary>  (76) 
energy

$$$$
76:0
     RDKit          3D

 28 29  0  0  0  0  0  0  0  0999 V2000
   -3.3160   21.3090  -30.0700 C   0  0  0  0  0  0  0  0  0  0  0  0
   -3.8350   22.5000  -30.8120 C   0  0  0  0  0  0  0  0  0  0  0  0
   -3.0190   23.3600  -31.2390 O   0  0  0  0  0  0  0  0  0  0  0  0
   -5.2420   22.6620  -31.0640 N   0  0  0  0  0  0  0  0  0  0  0  0
   -6.0300   23.7360  -30.7730 C   0  0  0  0  0  0  0  0  0  0  0  0
   -5.5580   25.0490  -30.2900 C   0  0  0  0  0  0  0  0  0  0  0  0
   -4.2350   25.5080  -30.5720 N   0  0  0  0  0  0  0  0  0  0  0  0
   -6.3520   25.8000  -29.6640 O   0  0  0  0  0  0  0  0  0  0  0  0
   -7.3640   23.4560  -31.0520 C   0  0  0  0  0  0  0  0  0  0  0  0
   -7.3700   22.1700  -31.5430 C   0  0  0  0  0  0  0  0  0  0  0  0
   -8.4310   21.3840  -31.9840 C   0  0  0  0  0  0  0  0  0  0  0  0
   -8.1460   20.0790  -32.4200 C   0  0  0  0  0  0  0  0  0  0  0  0
   -6.8210   19.5740  -32.3850 C   0  0  0  0  0  0  0  0  0  0  0  0
   -6.5240   18.1860  -32.8930 C   0  0  0  0  0  0  0  0  0  0  0  0
   -5.6800   17.5180  -32.0230 F   0  0  0  0  0  0  0  0  0  0  0  0
   -5.9170   18.2740  -34.1320 F   0  0  0  0  0  0  0  0  0  0  0  0
   -7.6910   17.4500  -33.0140 F   0  0  0  0  0  0  0  0  0  0  0  0
   -5.7680   20.4130  -31.9520 C   0  0  0  0  0  0  0  0  0  0  0  0
   -6.0780   21.7140  -31.5400 C   0  0  0  0  0  0  0  0  0  0  0  0
   -3.3943   21.4886  -28.9876 H   0  0  0  0  0  0  0  0  0  0  0  0
   -3.9094   20.4226  -30.3384 H   0  0  0  0  0  0  0  0  0  0  0  0
   -2.2627   21.1401  -30.3384 H   0  0  0  0  0  0  0  0  0  0  0  0
   -3.6120   24.9880  -31.2280 H   0  0  0  0  0  0  0  0  0  0  0  0
   -3.9050   26.4210  -30.1860 H   0  0  0  0  0  0  0  0  0  0  0  0
   -8.2292   24.1204  -30.9104 H   0  0  0  0  0  0  0  0  0  0  0  0
   -9.4601   21.7724  -31.9909 H   0  0  0  0  0  0  0  0  0  0  0  0
   -8.9607   19.4410  -32.7932 H   0  0  0  0  0  0  0  0  0  0  0  0
   -4.7293   20.0513  -31.9394 H   0  0  0  0  0  0  0  0  0  0  0  0
  1  2  1  0
  2  3  2  0
  2  4  1  0
  4  5  1  0
  5  6  1  0
  6  7  1  0
  6  8  2  0
  5  9  2  0
  9 10  1  0
 10 11  2  0
 11 12  1  0
 12 13  2  0
 13 14  1  0
 14 15  1  0
 14 16  1  0
 14 17  1  0
 13 18  1  0
 18 19  2  0
 19  4  1  0
 19 10  1  0
  1 20  1  0
  1 21  1  0
  1 22  1  0
  7 23  1  0
  7 24  1  0
  9 25  1  0
 11 26  1  0
 12 27  1  0
 18 28  1  0
M  END
>  <UniqueID>  (77) 
77

>  <SMILES>  (77) 
CC(=O)n1c(C(N)=O)cc2ccc(C(F)(F)F)cc21

>  <Energy>  (77) 
68.314514369821

>  <Genealogy>  (77) 
CC(=O)n1c(C(N)=O)cc2ccc(C(F)(F)F)cc21 (3D coordinates assigned)
CC(=O)n1c(C(N)=O)cc2ccc(C(F)(F)F)cc21 (optimized conformer: 68.314514369821 kcal/mol)

>  <smiles>  (77) 
CC(=O)n1c(C(N)=O)cc2ccc(C(F)(F)F)cc21

>  <score_type>  (77) 
oracle

>  <origin>  (77) 
adg

>  <m_score__min__energy>  (77) 
-7.4100000000000001

>  <m_primary>  (77) 
energy

$$$$
77:0
     RDKit          3D

 34 36  0  0  0  0  0  0  0  0999 V2000
   -4.9230   14.2690  -34.6650 C   0  0  0  0  0  0  0  0  0  0  0  0
   -5.2500   15.6350  -34.1390 C   0  0  0  0  0  0  0  0  0  0  0  0
   -6.5720   15.9650  -33.8040 C   0  0  0  0  0  0  0  0  0  0  0  0
   -6.8840   17.2490  -33.3480 C   0  0  0  0  0  0  0  0  0  0  0  0
   -5.8830   18.2300  -33.2340 C   0  0  0  0  0  0  0  0  0  0  0  0
   -6.2150   19.5950  -32.7500 C   0  0  0  0  0  0  0  0  0  0  0  0
   -7.5590   20.0510  -32.7540 C   0  0  0  0  0  0  0  0  0  0  0  0
   -7.8810   21.3440  -32.3090 C   0  0  0  0  0  0  0  0  0  0  0  0
   -6.8470   22.1560  -31.8590 C   0  0  0  0  0  0  0  0  0  0  0  0
   -6.8750   23.4530  -31.4030 C   0  0  0  0  0  0  0  0  0  0  0  0
   -5.5520   23.7690  -31.1010 C   0  0  0  0  0  0  0  0  0  0  0  0
   -5.1430   25.0530  -30.4950 C   0  0  0  0  0  0  0  0  0  0  0  0
   -3.9040   25.6650  -30.8400 N   0  0  0  0  0  0  0  0  0  0  0  0
   -5.8750   25.5930  -29.6230 O   0  0  0  0  0  0  0  0  0  0  0  0
   -4.7350   22.7110  -31.3680 N   0  0  0  0  0  0  0  0  0  0  0  0
   -3.3030   22.6560  -31.2750 C   0  0  0  0  0  0  0  0  0  0  0  0
   -2.7100   23.1650  -30.2880 O   0  0  0  0  0  0  0  0  0  0  0  0
   -2.5560   22.0630  -32.2850 O   0  0  0  0  0  0  0  0  0  0  0  0
   -5.5440   21.7300  -31.8290 C   0  0  0  0  0  0  0  0  0  0  0  0
   -5.1910   20.4550  -32.2840 C   0  0  0  0  0  0  0  0  0  0  0  0
   -4.5630   17.8990  -33.5890 C   0  0  0  0  0  0  0  0  0  0  0  0
   -4.2510   16.6140  -34.0430 C   0  0  0  0  0  0  0  0  0  0  0  0
   -4.7584   13.5813  -33.8224 H   0  0  0  0  0  0  0  0  0  0  0  0
   -5.7589   13.9028  -35.2792 H   0  0  0  0  0  0  0  0  0  0  0  0
   -4.0119   14.3210  -35.2792 H   0  0  0  0  0  0  0  0  0  0  0  0
   -7.3662   15.2101  -33.9006 H   0  0  0  0  0  0  0  0  0  0  0  0
   -7.9213   17.4941  -33.0760 H   0  0  0  0  0  0  0  0  0  0  0  0
   -8.3581   19.3840  -33.1098 H   0  0  0  0  0  0  0  0  0  0  0  0
   -8.9207   21.7030  -32.3165 H   0  0  0  0  0  0  0  0  0  0  0  0
   -7.7558   24.1036  -31.2987 H   0  0  0  0  0  0  0  0  0  0  0  0
   -2.9990   25.2900  -30.4740 H   0  0  0  0  0  0  0  0  0  0  0  0
   -4.1408   20.1277  -32.2799 H   0  0  0  0  0  0  0  0  0  0  0  0
   -3.7699   18.6570  -33.5088 H   0  0  0  0  0  0  0  0  0  0  0  0
   -3.2165   16.3699  -34.3263 H   0  0  0  0  0  0  0  0  0  0  0  0
  1  2  1  0
  2  3  2  0
  3  4  1  0
  4  5  2  0
  5  6  1  0
  6  7  2  0
  7  8  1  0
  8  9  2  0
  9 10  1  0
 10 11  2  0
 11 12  1  0
 12 13  1  0
 12 14  2  0
 11 15  1  0
 15 16  1  0
 16 17  2  0
 16 18  1  0
 15 19  1  0
 19 20  2  0
  5 21  1  0
 21 22  2  0
 22  2  1  0
 20  6  1  0
 19  9  1  0
  1 23  1  0
  1 24  1  0
  1 25  1  0
  3 26  1  0
  4 27  1  0
  7 28  1  0
  8 29  1  0
 10 30  1  0
 13 31  1  0
 20 32  1  0
 21 33  1  0
 22 34  1  0
M  CHG  2  13  -1  18  -1
M  END
>  <UniqueID>  (78) 
78

>  <SMILES>  (78) 
Cc1ccc(-c2ccc3cc(C([NH-])=O)n(C(=O)[O-])c3c2)cc1

>  <Energy>  (78) 
81.14662299152097

>  <Genealogy>  (78) 
Cc1ccc(-c2ccc3cc(C([NH-])=O)n(C(=O)[O-])c3c2)cc1 (protonated)
Cc1ccc(-c2ccc3cc(C([NH-])=O)n(C(=O)[O-])c3c2)cc1 (3D coordinates assigned)
Cc1ccc(-c2ccc3cc(C([NH-])=O)n(C(=O)[O-])c3c2)cc1 (optimized conformer: 81.14662299152097 kcal/mol)

>  <smiles>  (78) 
Cc1ccc(-c2ccc3cc(C(N)=O)n(C(=O)O)c3c2)cc1

>  <score_type>  (78) 
oracle

>  <origin>  (78) 
adg

>  <m_score__min__energy>  (78) 
-10.859999999999999

>  <m_primary>  (78) 
energy

$$$$
78:0
     RDKit          3D

 54 57  0  0  0  0  0  0  0  0999 V2000
   -3.8610   25.2900  -30.5870 N   0  0  0  0  0  0  0  0  0  0  0  0
   -5.2590   25.1400  -30.3540 C   0  0  0  0  0  0  0  0  0  0  0  0
   -5.8840   26.0470  -29.7430 O   0  0  0  0  0  0  0  0  0  0  0  0
   -5.9610   23.9320  -30.8350 C   0  0  0  0  0  0  0  0  0  0  0  0
   -7.3070   23.9040  -31.2010 C   0  0  0  0  0  0  0  0  0  0  0  0
   -7.5640   22.5930  -31.5420 C   0  0  0  0  0  0  0  0  0  0  0  0
   -8.7500   21.9850  -31.9430 C   0  0  0  0  0  0  0  0  0  0  0  0
   -8.7300   20.5990  -32.1840 C   0  0  0  0  0  0  0  0  0  0  0  0
   -7.5290   19.8600  -32.0420 C   0  0  0  0  0  0  0  0  0  0  0  0
   -7.5330   18.3630  -32.2070 C   0  0  0  0  0  0  0  0  0  0  0  0
   -6.2590   17.8910  -32.9260 C   0  0  1  0  0  0  0  0  0  0  0  0
   -6.1530   16.3450  -32.9220 C   0  0  0  0  0  0  0  0  0  0  0  0
   -5.5310   15.8400  -34.1600 N   0  0  0  0  0  0  0  0  0  0  0  0
   -4.4560   16.7250  -34.6240 C   0  0  0  0  0  0  0  0  0  0  0  0
   -4.9890   18.1580  -34.8520 C   0  0  0  0  0  0  0  0  0  0  0  0
   -6.2600   18.3670  -34.2590 O   0  0  0  0  0  0  0  0  0  0  0  0
   -6.3430   20.5170  -31.6490 C   0  0  0  0  0  0  0  0  0  0  0  0
   -6.4010   21.8870  -31.3870 C   0  0  0  0  0  0  0  0  0  0  0  0
   -5.4140   22.6910  -30.9430 N   0  0  0  0  0  0  0  0  0  0  0  0
   -4.0630   22.3060  -30.6470 C   0  0  0  0  0  0  0  0  0  0  0  0
   -3.7340   22.1030  -29.4470 O   0  0  0  0  0  0  0  0  0  0  0  0
   -3.0400   22.0690  -31.7400 C   0  0  0  0  0  0  0  0  0  0  0  0
   -1.7790   21.3290  -31.2430 C   0  0  0  0  0  0  0  0  0  0  0  0
   -0.7040   21.2360  -32.3440 C   0  0  0  0  0  0  0  0  0  0  0  0
   -1.2880   21.1370  -33.7690 C   0  0  0  0  0  0  0  0  0  0  0  0
   -2.6840   20.5070  -33.7710 C   0  0  0  0  0  0  0  0  0  0  0  0
   -3.6840   21.3440  -32.9500 C   0  0  0  0  0  0  0  0  0  0  0  0
   -3.4990   26.0370  -31.2210 H   0  0  0  0  0  0  0  0  0  0  0  0
   -8.0126   24.7478  -31.2146 H   0  0  0  0  0  0  0  0  0  0  0  0
   -9.6735   22.5694  -32.0675 H   0  0  0  0  0  0  0  0  0  0  0  0
   -9.6544   20.0845  -32.4852 H   0  0  0  0  0  0  0  0  0  0  0  0
   -7.5834   17.8907  -31.2148 H   0  0  0  0  0  0  0  0  0  0  0  0
   -8.4063   18.0767  -32.8115 H   0  0  0  0  0  0  0  0  0  0  0  0
   -5.3895   18.2958  -32.3874 H   0  0  0  0  0  0  0  0  0  0  0  0
   -5.5427   16.0313  -32.0623 H   0  0  0  0  0  0  0  0  0  0  0  0
   -7.1698   15.9307  -32.8542 H   0  0  0  0  0  0  0  0  0  0  0  0
   -6.2580   15.7590  -34.9100 H   0  0  0  0  0  0  0  0  0  0  0  0
   -5.1370   14.8850  -33.9840 H   0  0  0  0  0  0  0  0  0  0  0  0
   -3.6586   16.7524  -33.8668 H   0  0  0  0  0  0  0  0  0  0  0  0
   -4.0646   16.3373  -35.5761 H   0  0  0  0  0  0  0  0  0  0  0  0
   -4.2752   18.8729  -34.4169 H   0  0  0  0  0  0  0  0  0  0  0  0
   -5.0989   18.3043  -35.9367 H   0  0  0  0  0  0  0  0  0  0  0  0
   -5.3973   19.9636  -31.5517 H   0  0  0  0  0  0  0  0  0  0  0  0
   -2.6966   23.0607  -32.0695 H   0  0  0  0  0  0  0  0  0  0  0  0
   -1.3622   21.8726  -30.3823 H   0  0  0  0  0  0  0  0  0  0  0  0
   -2.0697   20.3068  -30.9591 H   0  0  0  0  0  0  0  0  0  0  0  0
   -0.0709   22.1339  -32.2890 H   0  0  0  0  0  0  0  0  0  0  0  0
   -0.1351   20.3121  -32.1630 H   0  0  0  0  0  0  0  0  0  0  0  0
   -1.3533   22.1479  -34.1977 H   0  0  0  0  0  0  0  0  0  0  0  0
   -0.6234   20.4955  -34.3663 H   0  0  0  0  0  0  0  0  0  0  0  0
   -3.0432   20.4378  -34.8084 H   0  0  0  0  0  0  0  0  0  0  0  0
   -2.6124   19.5093  -33.3133 H   0  0  0  0  0  0  0  0  0  0  0  0
   -4.1298   22.1010  -33.6120 H   0  0  0  0  0  0  0  0  0  0  0  0
   -4.4336   20.6471  -32.5470 H   0  0  0  0  0  0  0  0  0  0  0  0
  1  2  1  0
  2  3  2  0
  2  4  1  0
  4  5  2  0
  5  6  1  0
  6  7  2  0
  7  8  1  0
  8  9  2  0
  9 10  1  0
 10 11  1  0
 11 12  1  0
 12 13  1  0
 13 14  1  0
 14 15  1  0
 15 16  1  0
  9 17  1  0
 17 18  2  0
 18 19  1  0
 19 20  1  0
 20 21  2  0
 20 22  1  0
 22 23  1  0
 23 24  1  0
 24 25  1  0
 25 26  1  0
 26 27  1  0
 19  4  1  0
 27 22  1  0
 18  6  1  0
 16 11  1  0
  1 28  1  0
  5 29  1  0
  7 30  1  0
  8 31  1  0
 10 32  1  0
 10 33  1  0
 11 34  1  1
 12 35  1  0
 12 36  1  0
 13 37  1  0
 13 38  1  0
 14 39  1  0
 14 40  1  0
 15 41  1  0
 15 42  1  0
 17 43  1  0
 22 44  1  0
 23 45  1  0
 23 46  1  0
 24 47  1  0
 24 48  1  0
 25 49  1  0
 25 50  1  0
 26 51  1  0
 26 52  1  0
 27 53  1  0
 27 54  1  0
M  CHG  2   1  -1  13   1
M  END
>  <UniqueID>  (79) 
79

>  <SMILES>  (79) 
[NH-]C(=O)c1cc2ccc(C[C@H]3C[NH2+]CCO3)cc2n1C(=O)C1CCCCC1

>  <Energy>  (79) 
101.89440450582492

>  <Genealogy>  (79) 
[NH-]C(=O)c1cc2ccc(C[C@H]3C[NH2+]CCO3)cc2n1C(=O)C1CCCCC1 (protonated)
[NH-]C(=O)c1cc2ccc(C[C@H]3C[NH2+]CCO3)cc2n1C(=O)C1CCCCC1 (3D coordinates assigned)
[NH-]C(=O)c1cc2ccc(C[C@H]3C[NH2+]CCO3)cc2n1C(=O)C1CCCCC1 (nonaromatic ring conformer: 101.89440450582492 kcal/mol)

>  <smiles>  (79) 
NC(=O)c1cc2ccc(C[C@H]3CNCCO3)cc2n1C(=O)C1CCCCC1

>  <score_type>  (79) 
oracle

>  <origin>  (79) 
adg

>  <m_score__min__energy>  (79) 
-11.949999999999999

>  <m_primary>  (79) 
energy

$$$$
79:0
     RDKit          3D

 39 41  0  0  0  0  0  0  0  0999 V2000
   -6.5810   16.9480  -32.8720 C   0  0  0  0  0  0  0  0  0  0  0  0
   -6.8680   18.0520  -33.8060 N   0  0  0  0  0  0  0  0  0  0  0  0
   -5.7520   18.3400  -34.7120 C   0  0  0  0  0  0  0  0  0  0  0  0
   -4.5150   18.8930  -33.9910 C   0  0  0  0  0  0  0  0  0  0  0  0
   -4.8060   19.7740  -32.8390 N   0  0  0  0  0  0  0  0  0  0  0  0
   -3.6880   20.4090  -32.1380 C   0  0  0  0  0  0  0  0  0  0  0  0
   -2.4150   19.7660  -32.0420 C   0  0  0  0  0  0  0  0  0  0  0  0
   -1.3420   20.3620  -31.3630 C   0  0  0  0  0  0  0  0  0  0  0  0
   -1.5430   21.6080  -30.7860 C   0  0  0  0  0  0  0  0  0  0  0  0
   -0.6840   22.3840  -30.0420 C   0  0  0  0  0  0  0  0  0  0  0  0
   -1.4170   23.5150  -29.7010 C   0  0  0  0  0  0  0  0  0  0  0  0
   -0.8530   24.6480  -28.9410 C   0  0  0  0  0  0  0  0  0  0  0  0
   -1.5660   25.8790  -28.8100 N   0  0  0  0  0  0  0  0  0  0  0  0
    0.3010   24.5490  -28.4460 O   0  0  0  0  0  0  0  0  0  0  0  0
   -2.6830   23.4390  -30.2010 N   0  0  0  0  0  0  0  0  0  0  0  0
   -3.7680   24.3540  -29.9730 C   0  0  0  0  0  0  0  0  0  0  0  0
   -4.6070   24.1300  -29.0600 O   0  0  0  0  0  0  0  0  0  0  0  0
   -3.9050   25.4950  -30.7540 O   0  0  0  0  0  0  0  0  0  0  0  0
   -2.7420   22.2620  -30.8670 C   0  0  0  0  0  0  0  0  0  0  0  0
   -3.8380   21.6830  -31.5160 C   0  0  0  0  0  0  0  0  0  0  0  0
   -6.1680   19.9080  -32.2770 C   0  0  0  0  0  0  0  0  0  0  0  0
   -7.2830   19.2830  -33.1260 C   0  0  0  0  0  0  0  0  0  0  0  0
   -6.6749   17.3093  -31.8373 H   0  0  0  0  0  0  0  0  0  0  0  0
   -7.2962   16.1295  -33.0409 H   0  0  0  0  0  0  0  0  0  0  0  0
   -5.5577   16.5815  -33.0409 H   0  0  0  0  0  0  0  0  0  0  0  0
   -5.4700   17.4094  -35.2262 H   0  0  0  0  0  0  0  0  0  0  0  0
   -6.0934   19.1137  -35.4155 H   0  0  0  0  0  0  0  0  0  0  0  0
   -3.9220   18.0407  -33.6278 H   0  0  0  0  0  0  0  0  0  0  0  0
   -3.9818   19.5136  -34.7263 H   0  0  0  0  0  0  0  0  0  0  0  0
   -2.2736   18.7813  -32.5113 H   0  0  0  0  0  0  0  0  0  0  0  0
   -0.3682   19.8557  -31.2899 H   0  0  0  0  0  0  0  0  0  0  0  0
    0.3588   22.1580  -29.7745 H   0  0  0  0  0  0  0  0  0  0  0  0
   -2.4430   26.0540  -29.3480 H   0  0  0  0  0  0  0  0  0  0  0  0
   -1.1690   26.6560  -28.2350 H   0  0  0  0  0  0  0  0  0  0  0  0
   -4.8055   22.2055  -31.5460 H   0  0  0  0  0  0  0  0  0  0  0  0
   -6.1789   19.4241  -31.2892 H   0  0  0  0  0  0  0  0  0  0  0  0
   -6.3797   20.9867  -32.2365 H   0  0  0  0  0  0  0  0  0  0  0  0
   -8.1341   19.0501  -32.4692 H   0  0  0  0  0  0  0  0  0  0  0  0
   -7.5504   20.0129  -33.9042 H   0  0  0  0  0  0  0  0  0  0  0  0
  1  2  1  0
  2  3  1  0
  3  4  1  0
  4  5  1  0
  5  6  1  0
  6  7  2  0
  7  8  1  0
  8  9  2  0
  9 10  1  0
 10 11  2  0
 11 12  1  0
 12 13  1  0
 12 14  2  0
 11 15  1  0
 15 16  1  0
 16 17  2  0
 16 18  1  0
 15 19  1  0
 19 20  2  0
  5 21  1  0
 21 22  1  0
 22  2  1  0
 20  6  1  0
 19  9  1  0
  1 23  1  0
  1 24  1  0
  1 25  1  0
  3 26  1  0
  3 27  1  0
  4 28  1  0
  4 29  1  0
  7 30  1  0
  8 31  1  0
 10 32  1  0
 13 33  1  0
 13 34  1  0
 20 35  1  0
 21 36  1  0
 21 37  1  0
 22 38  1  0
 22 39  1  0
M  CHG  1  18  -1
M  END
>  <UniqueID>  (80) 
80

>  <SMILES>  (80) 
CN1CCN(c2ccc3cc(C(N)=O)n(C(=O)[O-])c3c2)CC1

>  <Energy>  (80) 
91.33455289648762

>  <Genealogy>  (80) 
CN1CCN(c2ccc3cc(C(N)=O)n(C(=O)[O-])c3c2)CC1 (protonated)
CN1CCN(c2ccc3cc(C(N)=O)n(C(=O)[O-])c3c2)CC1 (3D coordinates assigned)
CN1CCN(c2ccc3cc(C(N)=O)n(C(=O)[O-])c3c2)CC1 (nonaromatic ring conformer: 91.33455289648762 kcal/mol)

>  <smiles>  (80) 
CN1CCN(c2ccc3cc(C(N)=O)n(C(=O)O)c3c2)CC1

>  <score_type>  (80) 
oracle

>  <origin>  (80) 
adg

>  <m_score__min__energy>  (80) 
-9.0999999999999996

>  <m_primary>  (80) 
energy

$$$$
80:0
     RDKit          3D

 61 63  0  0  0  0  0  0  0  0999 V2000
   -3.5780   22.2970  -32.3930 C   0  0  0  0  0  0  0  0  0  0  0  0
   -3.4920   20.8070  -32.7820 C   0  0  0  0  0  0  0  0  0  0  0  0
   -2.0540   20.4350  -33.1980 C   0  0  0  0  0  0  0  0  0  0  0  0
   -3.8930   19.9550  -31.5680 C   0  0  0  0  0  0  0  0  0  0  0  0
   -4.4200   20.5050  -33.8370 O   0  0  0  0  0  0  0  0  0  0  0  0
   -5.0860   19.2850  -34.0340 C   0  0  0  0  0  0  0  0  0  0  0  0
   -4.6580   18.4400  -34.8640 O   0  0  0  0  0  0  0  0  0  0  0  0
   -6.2540   18.9850  -33.2540 N   0  0  0  0  0  0  0  0  0  0  0  0
   -6.8570   17.7740  -33.0860 C   0  0  0  0  0  0  0  0  0  0  0  0
   -6.3480   16.4770  -33.5740 C   0  0  0  0  0  0  0  0  0  0  0  0
   -4.9920   16.1070  -33.3310 N   0  0  0  0  0  0  0  0  0  0  0  0
   -7.0890   15.7010  -34.2360 O   0  0  0  0  0  0  0  0  0  0  0  0
   -8.0130   17.9070  -32.3170 C   0  0  0  0  0  0  0  0  0  0  0  0
   -8.1000   19.2490  -32.0180 C   0  0  0  0  0  0  0  0  0  0  0  0
   -9.0720   19.9470  -31.3050 C   0  0  0  0  0  0  0  0  0  0  0  0
   -8.9330   21.3420  -31.1950 C   0  0  0  0  0  0  0  0  0  0  0  0
   -7.8340   22.0070  -31.7960 C   0  0  0  0  0  0  0  0  0  0  0  0
   -7.7340   23.5110  -31.7460 C   0  0  0  0  0  0  0  0  0  0  0  0
   -6.2730   23.9660  -31.6710 C   0  0  0  0  0  0  0  0  0  0  0  0
   -5.8450   24.0950  -30.2790 N   0  0  0  0  0  0  0  0  0  0  0  0
   -4.5760   24.6420  -29.9070 C   0  0  0  0  0  0  0  0  0  0  0  0
   -3.8660   25.2410  -30.7590 O   0  0  0  0  0  0  0  0  0  0  0  0
   -4.1270   24.5160  -28.5560 N   0  0  0  0  0  0  0  0  0  0  0  0
   -2.4630   24.6380  -28.0900 S   0  0  0  0  0  0  0  0  0  0  0  0
   -1.7540   25.6290  -28.9730 O   0  0  0  0  0  0  0  0  0  0  0  0
   -2.3950   25.1280  -26.6700 O   0  0  0  0  0  0  0  0  0  0  0  0
   -1.6780   23.0280  -28.1930 C   0  0  0  0  0  0  0  0  0  0  0  0
   -0.9850   22.7990  -29.5380 C   0  0  0  0  0  0  0  0  0  0  0  0
   -1.2570   21.3420  -29.9260 C   0  0  0  0  0  0  0  0  0  0  0  0
   -2.0360   20.7220  -28.7730 C   0  0  0  0  0  0  0  0  0  0  0  0
   -2.6760   21.8880  -28.0430 C   0  0  0  0  0  0  0  0  0  0  0  0
   -6.8720   21.2650  -32.5140 C   0  0  0  0  0  0  0  0  0  0  0  0
   -7.0260   19.8770  -32.5940 C   0  0  0  0  0  0  0  0  0  0  0  0
   -3.5834   22.3901  -31.2970 H   0  0  0  0  0  0  0  0  0  0  0  0
   -2.7093   22.8335  -32.8023 H   0  0  0  0  0  0  0  0  0  0  0  0
   -4.5026   22.7300  -32.8023 H   0  0  0  0  0  0  0  0  0  0  0  0
   -1.4414   20.2765  -32.2982 H   0  0  0  0  0  0  0  0  0  0  0  0
   -2.0725   19.5121  -33.7962 H   0  0  0  0  0  0  0  0  0  0  0  0
   -1.6226   21.2511  -33.7962 H   0  0  0  0  0  0  0  0  0  0  0  0
   -3.6397   20.4931  -30.6426 H   0  0  0  0  0  0  0  0  0  0  0  0
   -4.9758   19.7634  -31.5961 H   0  0  0  0  0  0  0  0  0  0  0  0
   -3.3505   18.9985  -31.5961 H   0  0  0  0  0  0  0  0  0  0  0  0
   -4.2070   16.7510  -33.5800 H   0  0  0  0  0  0  0  0  0  0  0  0
   -8.7076   17.1098  -32.0137 H   0  0  0  0  0  0  0  0  0  0  0  0
   -9.9217   19.4234  -30.8425 H   0  0  0  0  0  0  0  0  0  0  0  0
   -9.6832   21.9224  -30.6380 H   0  0  0  0  0  0  0  0  0  0  0  0
   -8.1950   23.9317  -32.6518 H   0  0  0  0  0  0  0  0  0  0  0  0
   -8.2563   23.8655  -30.8451 H   0  0  0  0  0  0  0  0  0  0  0  0
   -5.6371   23.2250  -32.1775 H   0  0  0  0  0  0  0  0  0  0  0  0
   -6.1810   24.9458  -32.1625 H   0  0  0  0  0  0  0  0  0  0  0  0
   -6.4310   23.6550  -29.5350 H   0  0  0  0  0  0  0  0  0  0  0  0
   -0.9488   23.0292  -27.3694 H   0  0  0  0  0  0  0  0  0  0  0  0
   -1.3979   23.4781  -30.2985 H   0  0  0  0  0  0  0  0  0  0  0  0
    0.0948   22.9966  -29.4675 H   0  0  0  0  0  0  0  0  0  0  0  0
   -1.8508   21.3002  -30.8510 H   0  0  0  0  0  0  0  0  0  0  0  0
   -0.3182   20.7983  -30.1078 H   0  0  0  0  0  0  0  0  0  0  0  0
   -2.8076   20.0371  -29.1546 H   0  0  0  0  0  0  0  0  0  0  0  0
   -1.3846   20.1334  -28.1102 H   0  0  0  0  0  0  0  0  0  0  0  0
   -3.6398   22.1523  -28.5027 H   0  0  0  0  0  0  0  0  0  0  0  0
   -2.8885   21.6550  -26.9892 H   0  0  0  0  0  0  0  0  0  0  0  0
   -6.0214   21.7661  -32.9991 H   0  0  0  0  0  0  0  0  0  0  0  0
  1  2  1  0
  2  3  1  0
  2  4  1  0
  2  5  1  0
  5  6  1  0
  6  7  2  0
  6  8  1  0
  8  9  1  0
  9 10  1  0
 10 11  1  0
 10 12  2  0
  9 13  2  0
 13 14  1  0
 14 15  2  0
 15 16  1  0
 16 17  2  0
 17 18  1  0
 18 19  1  0
 19 20  1  0
 20 21  1  0
 21 22  2  0
 21 23  1  0
 23 24  1  0
 24 25  2  0
 24 26  2  0
 24 27  1  0
 27 28  1  0
 28 29  1  0
 29 30  1  0
 30 31  1  0
 17 32  1  0
 32 33  2  0
 33  8  1  0
 33 14  1  0
 31 27  1  0
  1 34  1  0
  1 35  1  0
  1 36  1  0
  3 37  1  0
  3 38  1  0
  3 39  1  0
  4 40  1  0
  4 41  1  0
  4 42  1  0
 11 43  1  0
 13 44  1  0
 15 45  1  0
 16 46  1  0
 18 47  1  0
 18 48  1  0
 19 49  1  0
 19 50  1  0
 20 51  1  0
 27 52  1  0
 28 53  1  0
 28 54  1  0
 29 55  1  0
 29 56  1  0
 30 57  1  0
 30 58  1  0
 31 59  1  0
 31 60  1  0
 32 61  1  0
M  CHG  2  11  -1  23  -1
M  END
>  <UniqueID>  (81) 
81

>  <SMILES>  (81) 
CC(C)(C)OC(=O)n1c(C([NH-])=O)cc2ccc(CCNC(=O)[N-]S(=O)(=O)C3CCCC3)cc21

>  <Energy>  (81) 
88.36629240191198

>  <Genealogy>  (81) 
CC(C)(C)OC(=O)n1c(C([NH-])=O)cc2ccc(CCNC(=O)[N-]S(=O)(=O)C3CCCC3)cc21 (protonated)
CC(C)(C)OC(=O)n1c(C([NH-])=O)cc2ccc(CCNC(=O)[N-]S(=O)(=O)C3CCCC3)cc21 (3D coordinates assigned)
CC(C)(C)OC(=O)n1c(C([NH-])=O)cc2ccc(CCNC(=O)[N-]S(=O)(=O)C3CCCC3)cc21 (nonaromatic ring conformer: 88.36629240191198 kcal/mol)

>  <smiles>  (81) 
CC(C)(C)OC(=O)n1c(C(N)=O)cc2ccc(CCNC(=O)NS(=O)(=O)C3CCCC3)cc21

>  <score_type>  (81) 
oracle

>  <origin>  (81) 
adg

>  <m_score__min__energy>  (81) 
-11.92

>  <m_primary>  (81) 
energy

$$$$
81:0
     RDKit          3D

 42 44  0  0  0  0  0  0  0  0999 V2000
   -4.5480   17.8040  -34.8930 C   0  0  0  0  0  0  0  0  0  0  0  0
   -5.9480   18.2130  -34.4210 C   0  0  0  0  0  0  0  0  0  0  0  0
   -6.6580   17.0470  -33.7210 C   0  0  0  0  0  0  0  0  0  0  0  0
   -5.8850   19.4330  -33.5230 C   0  0  0  0  0  0  0  0  0  0  0  0
   -7.0780   19.9660  -32.9690 C   0  0  0  0  0  0  0  0  0  0  0  0
   -7.0440   21.1030  -32.1450 C   0  0  0  0  0  0  0  0  0  0  0  0
   -5.8070   21.6820  -31.8820 C   0  0  0  0  0  0  0  0  0  0  0  0
   -5.4900   22.7990  -31.1420 C   0  0  0  0  0  0  0  0  0  0  0  0
   -4.1050   22.9220  -31.2340 C   0  0  0  0  0  0  0  0  0  0  0  0
   -3.3260   23.9620  -30.5290 C   0  0  0  0  0  0  0  0  0  0  0  0
   -3.8040   25.3050  -30.4940 N   0  0  0  0  0  0  0  0  0  0  0  0
   -2.2550   23.6730  -29.9330 O   0  0  0  0  0  0  0  0  0  0  0  0
   -3.5880   21.9230  -32.0030 N   0  0  0  0  0  0  0  0  0  0  0  0
   -2.2180   21.7210  -32.3820 C   0  0  0  0  0  0  0  0  0  0  0  0
   -1.3240   21.6960  -31.4930 O   0  0  0  0  0  0  0  0  0  0  0  0
   -1.8780   21.5480  -33.7680 N   0  0  0  0  0  0  0  0  0  0  0  0
   -0.5360   21.5210  -34.2790 C   0  0  0  0  0  0  0  0  0  0  0  0
    0.3430   20.5580  -33.8940 N   0  0  0  0  0  0  0  0  0  0  0  0
    1.6160   20.5360  -34.3670 C   0  0  0  0  0  0  0  0  0  0  0  0
    2.0490   21.5180  -35.2690 C   0  0  0  0  0  0  0  0  0  0  0  0
    3.4270   21.5190  -35.8010 C   0  0  0  0  0  0  0  0  0  0  0  0
    4.4140   21.4260  -35.0230 O   0  0  0  0  0  0  0  0  0  0  0  0
    3.6530   21.6220  -37.1690 O   0  0  0  0  0  0  0  0  0  0  0  0
    1.1270   22.5020  -35.6490 C   0  0  0  0  0  0  0  0  0  0  0  0
   -0.1360   22.4850  -35.1500 N   0  0  0  0  0  0  0  0  0  0  0  0
   -4.6420   21.1730  -32.3920 C   0  0  0  0  0  0  0  0  0  0  0  0
   -4.6460   20.0570  -33.2340 C   0  0  0  0  0  0  0  0  0  0  0  0
   -3.9066   17.6166  -34.0192 H   0  0  0  0  0  0  0  0  0  0  0  0
   -4.6183   16.8888  -35.4993 H   0  0  0  0  0  0  0  0  0  0  0  0
   -4.1145   18.6131  -35.4993 H   0  0  0  0  0  0  0  0  0  0  0  0
   -6.5385   18.4796  -35.3099 H   0  0  0  0  0  0  0  0  0  0  0  0
   -6.5816   17.1725  -32.6309 H   0  0  0  0  0  0  0  0  0  0  0  0
   -7.7179   17.0334  -34.0151 H   0  0  0  0  0  0  0  0  0  0  0  0
   -6.1836   16.0991  -34.0151 H   0  0  0  0  0  0  0  0  0  0  0  0
   -8.0415   19.4825  -33.1877 H   0  0  0  0  0  0  0  0  0  0  0  0
   -7.9678   21.5229  -31.7205 H   0  0  0  0  0  0  0  0  0  0  0  0
   -6.1828   23.4549  -30.5945 H   0  0  0  0  0  0  0  0  0  0  0  0
   -3.5140   25.9970  -31.2190 H   0  0  0  0  0  0  0  0  0  0  0  0
   -2.6600   21.4320  -34.4510 H   0  0  0  0  0  0  0  0  0  0  0  0
    2.3088   19.7459  -34.0416 H   0  0  0  0  0  0  0  0  0  0  0  0
    1.4271   23.2912  -36.3540 H   0  0  0  0  0  0  0  0  0  0  0  0
   -3.7088   19.6721  -33.6624 H   0  0  0  0  0  0  0  0  0  0  0  0
  1  2  1  0
  2  3  1  0
  2  4  1  0
  4  5  2  0
  5  6  1  0
  6  7  2  0
  7  8  1  0
  8  9  2  0
  9 10  1  0
 10 11  1  0
 10 12  2  0
  9 13  1  0
 13 14  1  0
 14 15  2  0
 14 16  1  0
 16 17  1  0
 17 18  2  0
 18 19  1  0
 19 20  2  0
 20 21  1  0
 21 22  2  0
 21 23  1  0
 20 24  1  0
 24 25  2  0
 13 26  1  0
 26 27  2  0
 27  4  1  0
 26  7  1  0
 25 17  1  0
  1 28  1  0
  1 29  1  0
  1 30  1  0
  2 31  1  0
  3 32  1  0
  3 33  1  0
  3 34  1  0
  5 35  1  0
  6 36  1  0
  8 37  1  0
 11 38  1  0
 16 39  1  0
 19 40  1  0
 24 41  1  0
 27 42  1  0
M  CHG  2  11  -1  23  -1
M  END
>  <UniqueID>  (82) 
82

>  <SMILES>  (82) 
CC(C)c1ccc2cc(C([NH-])=O)n(C(=O)Nc3ncc(C(=O)[O-])cn3)c2c1

>  <Energy>  (82) 
81.66142647230035

>  <Genealogy>  (82) 
CC(C)c1ccc2cc(C([NH-])=O)n(C(=O)Nc3ncc(C(=O)[O-])cn3)c2c1 (protonated)
CC(C)c1ccc2cc(C([NH-])=O)n(C(=O)Nc3ncc(C(=O)[O-])cn3)c2c1 (3D coordinates assigned)
CC(C)c1ccc2cc(C([NH-])=O)n(C(=O)Nc3ncc(C(=O)[O-])cn3)c2c1 (optimized conformer: 81.66142647230035 kcal/mol)

>  <smiles>  (82) 
CC(C)c1ccc2cc(C(N)=O)n(C(=O)Nc3ncc(C(=O)O)cn3)c2c1

>  <score_type>  (82) 
oracle

>  <origin>  (82) 
adg

>  <m_score__min__energy>  (82) 
-12.1

>  <m_primary>  (82) 
energy

$$$$
82:0
     RDKit          3D

 29 30  0  0  0  0  0  0  0  0999 V2000
   -3.8980   25.1990  -30.8430 N   0  0  0  0  0  0  0  0  0  0  0  0
   -5.3050   25.0780  -30.6430 C   0  0  0  0  0  0  0  0  0  0  0  0
   -5.9410   26.0420  -30.1420 O   0  0  0  0  0  0  0  0  0  0  0  0
   -6.0050   23.8460  -31.0590 C   0  0  0  0  0  0  0  0  0  0  0  0
   -7.3610   23.6160  -30.8330 C   0  0  0  0  0  0  0  0  0  0  0  0
   -7.5920   22.3330  -31.2770 C   0  0  0  0  0  0  0  0  0  0  0  0
   -8.7700   21.5930  -31.3010 C   0  0  0  0  0  0  0  0  0  0  0  0
   -8.7210   20.2960  -31.8400 C   0  0  0  0  0  0  0  0  0  0  0  0
   -7.5030   19.7660  -32.3390 C   0  0  0  0  0  0  0  0  0  0  0  0
   -7.4720   18.3890  -32.9490 C   0  0  0  0  0  0  0  0  0  0  0  0
   -6.2440   18.1980  -33.8410 C   0  0  0  0  0  0  0  0  0  0  0  0
   -6.1140   19.2650  -34.7130 F   0  0  0  0  0  0  0  0  0  0  0  0
   -6.3580   17.0250  -34.5680 F   0  0  0  0  0  0  0  0  0  0  0  0
   -5.1120   18.1250  -33.0520 F   0  0  0  0  0  0  0  0  0  0  0  0
   -6.3300   20.5520  -32.3040 C   0  0  0  0  0  0  0  0  0  0  0  0
   -6.4070   21.8340  -31.7500 C   0  0  0  0  0  0  0  0  0  0  0  0
   -5.4250   22.7530  -31.6290 N   0  0  0  0  0  0  0  0  0  0  0  0
   -4.0670   22.6040  -32.0750 C   0  0  0  0  0  0  0  0  0  0  0  0
   -3.7830   22.2780  -33.4340 N   0  0  0  0  0  0  0  0  0  0  0  0
   -3.1190   22.7300  -31.2540 O   0  0  0  0  0  0  0  0  0  0  0  0
   -3.4920   26.0430  -31.3020 H   0  0  0  0  0  0  0  0  0  0  0  0
   -8.0913   24.3113  -30.3935 H   0  0  0  0  0  0  0  0  0  0  0  0
   -9.7100   22.0100  -30.9104 H   0  0  0  0  0  0  0  0  0  0  0  0
   -9.6356   19.6859  -31.8754 H   0  0  0  0  0  0  0  0  0  0  0  0
   -7.4476   17.6414  -32.1425 H   0  0  0  0  0  0  0  0  0  0  0  0
   -8.3717   18.2664  -33.5699 H   0  0  0  0  0  0  0  0  0  0  0  0
   -5.3802   20.1658  -32.7023 H   0  0  0  0  0  0  0  0  0  0  0  0
   -4.5580   22.0870  -34.1070 H   0  0  0  0  0  0  0  0  0  0  0  0
   -2.7950   22.1850  -33.7600 H   0  0  0  0  0  0  0  0  0  0  0  0
  1  2  1  0
  2  3  2  0
  2  4  1  0
  4  5  2  0
  5  6  1  0
  6  7  2  0
  7  8  1  0
  8  9  2  0
  9 10  1  0
 10 11  1  0
 11 12  1  0
 11 13  1  0
 11 14  1  0
  9 15  1  0
 15 16  2  0
 16 17  1  0
 17 18  1  0
 18 19  1  0
 18 20  2  0
 17  4  1  0
 16  6  1  0
  1 21  1  0
  5 22  1  0
  7 23  1  0
  8 24  1  0
 10 25  1  0
 10 26  1  0
 15 27  1  0
 19 28  1  0
 19 29  1  0
M  CHG  1   1  -1
M  END
>  <UniqueID>  (83) 
83

>  <SMILES>  (83) 
[NH-]C(=O)c1cc2ccc(CC(F)(F)F)cc2n1C(N)=O

>  <Energy>  (83) 
64.8368636070858

>  <Genealogy>  (83) 
[NH-]C(=O)c1cc2ccc(CC(F)(F)F)cc2n1C(N)=O (protonated)
[NH-]C(=O)c1cc2ccc(CC(F)(F)F)cc2n1C(N)=O (3D coordinates assigned)
[NH-]C(=O)c1cc2ccc(CC(F)(F)F)cc2n1C(N)=O (optimized conformer: 64.8368636070858 kcal/mol)

>  <smiles>  (83) 
NC(=O)c1cc2ccc(CC(F)(F)F)cc2n1C(N)=O

>  <score_type>  (83) 
oracle

>  <origin>  (83) 
adg

>  <m_score__min__energy>  (83) 
-10.279999999999999

>  <m_primary>  (83) 
energy

$$$$
83:0
     RDKit          3D

 43 45  0  0  0  0  0  0  0  0999 V2000
   -5.4800   17.6920  -34.1570 C   0  0  0  0  0  0  0  0  0  0  0  0
   -5.4020   19.1140  -34.1960 O   0  0  0  0  0  0  0  0  0  0  0  0
   -5.5220   19.9020  -33.0450 C   0  0  0  0  0  0  0  0  0  0  0  0
   -6.7390   20.2020  -32.5300 C   0  0  0  0  0  0  0  0  0  0  0  0
   -8.0050   19.6220  -33.1120 C   0  0  0  0  0  0  0  0  0  0  0  0
   -9.0250   19.3550  -31.9920 C   0  0  0  0  0  0  0  0  0  0  0  0
   -9.2770   20.5100  -31.1040 N   0  0  0  0  0  0  0  0  0  0  0  0
   -8.3500   21.6430  -31.2700 C   0  0  0  0  0  0  0  0  0  0  0  0
   -6.8960   21.1740  -31.3820 C   0  0  0  0  0  0  0  0  0  0  0  0
   -4.2700   20.3560  -32.4050 C   0  0  0  0  0  0  0  0  0  0  0  0
   -3.0800   19.5990  -32.5420 C   0  0  0  0  0  0  0  0  0  0  0  0
   -1.8860   20.0280  -31.9420 C   0  0  0  0  0  0  0  0  0  0  0  0
   -1.9060   21.2250  -31.2330 C   0  0  0  0  0  0  0  0  0  0  0  0
   -0.9030   21.8540  -30.5330 C   0  0  0  0  0  0  0  0  0  0  0  0
   -1.4840   23.0090  -30.0160 C   0  0  0  0  0  0  0  0  0  0  0  0
   -0.7330   24.0200  -29.2470 C   0  0  0  0  0  0  0  0  0  0  0  0
   -1.1930   25.3690  -29.1520 N   0  0  0  0  0  0  0  0  0  0  0  0
    0.3620   23.7020  -28.7110 O   0  0  0  0  0  0  0  0  0  0  0  0
   -2.7980   23.0870  -30.3690 N   0  0  0  0  0  0  0  0  0  0  0  0
   -3.7650   24.0600  -29.9350 C   0  0  0  0  0  0  0  0  0  0  0  0
   -3.9030   25.2950  -30.6330 N   0  0  0  0  0  0  0  0  0  0  0  0
   -4.4870   23.8330  -28.9270 O   0  0  0  0  0  0  0  0  0  0  0  0
   -3.0410   21.9870  -31.1180 C   0  0  0  0  0  0  0  0  0  0  0  0
   -4.2500   21.5720  -31.6890 C   0  0  0  0  0  0  0  0  0  0  0  0
   -5.4985   17.3544  -33.1103 H   0  0  0  0  0  0  0  0  0  0  0  0
   -6.3976   17.3610  -34.6653 H   0  0  0  0  0  0  0  0  0  0  0  0
   -4.6041   17.2627  -34.6653 H   0  0  0  0  0  0  0  0  0  0  0  0
   -8.4337   20.3335  -33.8331 H   0  0  0  0  0  0  0  0  0  0  0  0
   -7.7685   18.6745  -33.6183 H   0  0  0  0  0  0  0  0  0  0  0  0
   -9.9785   19.0652  -32.4576 H   0  0  0  0  0  0  0  0  0  0  0  0
   -8.5962   18.5628  -31.3607 H   0  0  0  0  0  0  0  0  0  0  0  0
  -10.2470   20.8660  -31.2770 H   0  0  0  0  0  0  0  0  0  0  0  0
   -8.6187   22.1924  -32.1843 H   0  0  0  0  0  0  0  0  0  0  0  0
   -8.4348   22.2881  -30.3830 H   0  0  0  0  0  0  0  0  0  0  0  0
   -6.2470   22.0453  -31.5543 H   0  0  0  0  0  0  0  0  0  0  0  0
   -6.6126   20.6685  -30.4470 H   0  0  0  0  0  0  0  0  0  0  0  0
   -3.0922   18.6659  -33.1244 H   0  0  0  0  0  0  0  0  0  0  0  0
   -0.9629   19.4362  -32.0296 H   0  0  0  0  0  0  0  0  0  0  0  0
    0.1365   21.5166  -30.4082 H   0  0  0  0  0  0  0  0  0  0  0  0
   -2.0040   25.7030  -29.7180 H   0  0  0  0  0  0  0  0  0  0  0  0
   -0.6680   26.0620  -28.5740 H   0  0  0  0  0  0  0  0  0  0  0  0
   -3.9570   26.2000  -30.1150 H   0  0  0  0  0  0  0  0  0  0  0  0
   -5.1615   22.1785  -31.5823 H   0  0  0  0  0  0  0  0  0  0  0  0
  1  2  1  0
  2  3  1  0
  3  4  2  3
  4  5  1  0
  5  6  1  0
  6  7  1  0
  7  8  1  0
  8  9  1  0
  3 10  1  0
 10 11  2  0
 11 12  1  0
 12 13  2  0
 13 14  1  0
 14 15  2  0
 15 16  1  0
 16 17  1  0
 16 18  2  0
 15 19  1  0
 19 20  1  0
 20 21  1  0
 20 22  2  0
 19 23  1  0
 23 24  2  0
  9  4  1  0
 24 10  1  0
 23 13  1  0
  1 25  1  0
  1 26  1  0
  1 27  1  0
  5 28  1  0
  5 29  1  0
  6 30  1  0
  6 31  1  0
  7 32  1  0
  8 33  1  0
  8 34  1  0
  9 35  1  0
  9 36  1  0
 11 37  1  0
 12 38  1  0
 14 39  1  0
 17 40  1  0
 17 41  1  0
 21 42  1  0
 24 43  1  0
M  CHG  1  21  -1
M  END
>  <UniqueID>  (84) 
84

>  <SMILES>  (84) 
COC(=C1CCNCC1)c1ccc2cc(C(N)=O)n(C([NH-])=O)c2c1

>  <Energy>  (84) 
101.75665758626214

>  <Genealogy>  (84) 
COC(=C1CCNCC1)c1ccc2cc(C(N)=O)n(C([NH-])=O)c2c1 (protonated)
COC(=C1CCNCC1)c1ccc2cc(C(N)=O)n(C([NH-])=O)c2c1 (3D coordinates assigned)
COC(=C1CCNCC1)c1ccc2cc(C(N)=O)n(C([NH-])=O)c2c1 (nonaromatic ring conformer: 101.75665758626214 kcal/mol)

>  <smiles>  (84) 
COC(=C1CCNCC1)c1ccc2cc(C(N)=O)n(C(N)=O)c2c1

>  <score_type>  (84) 
oracle

>  <origin>  (84) 
adg

>  <m_score__min__energy>  (84) 
-9.8800000000000008

>  <m_primary>  (84) 
energy

$$$$
84:0
     RDKit          3D

 31 32  0  0  0  0  0  0  0  0999 V2000
   -3.1080   19.7830  -33.4710 C   0  0  0  0  0  0  0  0  0  0  0  0
   -2.4850   21.0110  -32.8150 C   0  0  0  0  0  0  0  0  0  0  0  0
   -3.4130   22.0930  -32.7930 O   0  0  0  0  0  0  0  0  0  0  0  0
   -3.8520   22.7070  -31.6140 C   0  0  0  0  0  0  0  0  0  0  0  0
   -3.0200   23.1230  -30.7620 O   0  0  0  0  0  0  0  0  0  0  0  0
   -5.2580   22.8910  -31.3890 N   0  0  0  0  0  0  0  0  0  0  0  0
   -5.8940   24.0070  -30.9310 C   0  0  0  0  0  0  0  0  0  0  0  0
   -5.2410   25.2270  -30.4120 C   0  0  0  0  0  0  0  0  0  0  0  0
   -3.9370   25.6030  -30.8450 N   0  0  0  0  0  0  0  0  0  0  0  0
   -5.8250   25.9220  -29.5370 O   0  0  0  0  0  0  0  0  0  0  0  0
   -7.2750   23.8180  -30.9330 C   0  0  0  0  0  0  0  0  0  0  0  0
   -7.4670   22.5380  -31.4010 C   0  0  0  0  0  0  0  0  0  0  0  0
   -8.6460   21.8290  -31.6090 C   0  0  0  0  0  0  0  0  0  0  0  0
   -8.5480   20.5250  -32.1250 C   0  0  0  0  0  0  0  0  0  0  0  0
   -7.2840   19.9670  -32.4400 C   0  0  0  0  0  0  0  0  0  0  0  0
   -7.1930   18.5660  -32.9650 C   0  0  0  0  0  0  0  0  0  0  0  0
   -6.1090   20.7100  -32.2010 C   0  0  0  0  0  0  0  0  0  0  0  0
   -6.2350   22.0000  -31.6690 C   0  0  0  0  0  0  0  0  0  0  0  0
   -3.4596   19.0900  -32.6924 H   0  0  0  0  0  0  0  0  0  0  0  0
   -3.9578   20.0930  -34.0968 H   0  0  0  0  0  0  0  0  0  0  0  0
   -2.3559   19.2803  -34.0968 H   0  0  0  0  0  0  0  0  0  0  0  0
   -2.1954   20.7621  -31.7834 H   0  0  0  0  0  0  0  0  0  0  0  0
   -1.6012   21.3135  -33.3958 H   0  0  0  0  0  0  0  0  0  0  0  0
   -3.0860   25.2530  -30.3530 H   0  0  0  0  0  0  0  0  0  0  0  0
   -8.0472   24.5387  -30.6258 H   0  0  0  0  0  0  0  0  0  0  0  0
   -9.6244   22.2750  -31.3769 H   0  0  0  0  0  0  0  0  0  0  0  0
   -9.4607   19.9324  -32.2857 H   0  0  0  0  0  0  0  0  0  0  0  0
   -7.1472   17.8608  -32.1220 H   0  0  0  0  0  0  0  0  0  0  0  0
   -8.0788   18.3463  -33.5791 H   0  0  0  0  0  0  0  0  0  0  0  0
   -6.2863   18.4627  -33.5791 H   0  0  0  0  0  0  0  0  0  0  0  0
   -5.1188   20.2873  -32.4266 H   0  0  0  0  0  0  0  0  0  0  0  0
  1  2  1  0
  2  3  1  0
  3  4  1  0
  4  5  2  0
  4  6  1  0
  6  7  1  0
  7  8  1  0
  8  9  1  0
  8 10  2  0
  7 11  2  0
 11 12  1  0
 12 13  2  0
 13 14  1  0
 14 15  2  0
 15 16  1  0
 15 17  1  0
 17 18  2  0
 18  6  1  0
 18 12  1  0
  1 19  1  0
  1 20  1  0
  1 21  1  0
  2 22  1  0
  2 23  1  0
  9 24  1  0
 11 25  1  0
 13 26  1  0
 14 27  1  0
 16 28  1  0
 16 29  1  0
 16 30  1  0
 17 31  1  0
M  CHG  1   9  -1
M  END
>  <UniqueID>  (85) 
85

>  <SMILES>  (85) 
CCOC(=O)n1c(C([NH-])=O)cc2ccc(C)cc21

>  <Energy>  (85) 
65.75609178409769

>  <Genealogy>  (85) 
CCOC(=O)n1c(C([NH-])=O)cc2ccc(C)cc21 (protonated)
CCOC(=O)n1c(C([NH-])=O)cc2ccc(C)cc21 (3D coordinates assigned)
CCOC(=O)n1c(C([NH-])=O)cc2ccc(C)cc21 (optimized conformer: 65.75609178409769 kcal/mol)

>  <smiles>  (85) 
CCOC(=O)n1c(C(N)=O)cc2ccc(C)cc21

>  <score_type>  (85) 
oracle

>  <origin>  (85) 
adg

>  <m_score__min__energy>  (85) 
-9.5600000000000005

>  <m_primary>  (85) 
energy

$$$$
85:0
     RDKit          3D

 34 35  0  0  0  0  0  0  0  0999 V2000
   -2.4960   20.8560  -32.4570 C   0  0  0  0  0  0  0  0  0  0  0  0
   -3.1200   22.1320  -32.5260 O   0  0  0  0  0  0  0  0  0  0  0  0
   -3.6940   22.7520  -31.4130 C   0  0  0  0  0  0  0  0  0  0  0  0
   -2.9720   23.1210  -30.4470 O   0  0  0  0  0  0  0  0  0  0  0  0
   -5.1160   22.9460  -31.3600 N   0  0  0  0  0  0  0  0  0  0  0  0
   -5.7980   24.0280  -30.8850 C   0  0  0  0  0  0  0  0  0  0  0  0
   -5.2010   25.3060  -30.4430 C   0  0  0  0  0  0  0  0  0  0  0  0
   -3.8750   25.6450  -30.8420 N   0  0  0  0  0  0  0  0  0  0  0  0
   -5.8350   26.0860  -29.6840 O   0  0  0  0  0  0  0  0  0  0  0  0
   -7.1720   23.8050  -30.9460 C   0  0  0  0  0  0  0  0  0  0  0  0
   -7.3140   22.5460  -31.4840 C   0  0  0  0  0  0  0  0  0  0  0  0
   -8.4640   21.8150  -31.7590 C   0  0  0  0  0  0  0  0  0  0  0  0
   -8.3150   20.5240  -32.2900 C   0  0  0  0  0  0  0  0  0  0  0  0
   -7.0230   19.9820  -32.5300 C   0  0  0  0  0  0  0  0  0  0  0  0
   -6.8600   18.5820  -33.0900 C   0  0  0  0  0  0  0  0  0  0  0  0
   -6.4990   17.5830  -31.9850 C   0  0  0  0  0  0  0  0  0  0  0  0
   -5.8220   18.5560  -34.2200 C   0  0  0  0  0  0  0  0  0  0  0  0
   -5.8780   20.7590  -32.2350 C   0  0  0  0  0  0  0  0  0  0  0  0
   -6.0590   22.0490  -31.7260 C   0  0  0  0  0  0  0  0  0  0  0  0
   -2.3572   20.5722  -31.4033 H   0  0  0  0  0  0  0  0  0  0  0  0
   -3.1309   20.1098  -32.9571 H   0  0  0  0  0  0  0  0  0  0  0  0
   -1.5172   20.8990  -32.9571 H   0  0  0  0  0  0  0  0  0  0  0  0
   -3.0480   25.2860  -30.3150 H   0  0  0  0  0  0  0  0  0  0  0  0
   -7.9732   24.4897  -30.6311 H   0  0  0  0  0  0  0  0  0  0  0  0
   -9.4618   22.2359  -31.5661 H   0  0  0  0  0  0  0  0  0  0  0  0
   -9.2079   19.9253  -32.5229 H   0  0  0  0  0  0  0  0  0  0  0  0
   -7.8272   18.2761  -33.5154 H   0  0  0  0  0  0  0  0  0  0  0  0
   -6.6667   18.0472  -31.0019 H   0  0  0  0  0  0  0  0  0  0  0  0
   -7.1303   16.6872  -32.0800 H   0  0  0  0  0  0  0  0  0  0  0  0
   -5.4409   17.2977  -32.0800 H   0  0  0  0  0  0  0  0  0  0  0  0
   -4.8106   18.5307  -33.7883 H   0  0  0  0  0  0  0  0  0  0  0  0
   -5.9782   17.6615  -34.8408 H   0  0  0  0  0  0  0  0  0  0  0  0
   -5.9332   19.4572  -34.8408 H   0  0  0  0  0  0  0  0  0  0  0  0
   -4.8677   20.3573  -32.4023 H   0  0  0  0  0  0  0  0  0  0  0  0
  1  2  1  0
  2  3  1  0
  3  4  2  0
  3  5  1  0
  5  6  1  0
  6  7  1  0
  7  8  1  0
  7  9  2  0
  6 10  2  0
 10 11  1  0
 11 12  2  0
 12 13  1  0
 13 14  2  0
 14 15  1  0
 15 16  1  0
 15 17  1  0
 14 18  1  0
 18 19  2  0
 19  5  1  0
 19 11  1  0
  1 20  1  0
  1 21  1  0
  1 22  1  0
  8 23  1  0
 10 24  1  0
 12 25  1  0
 13 26  1  0
 15 27  1  0
 16 28  1  0
 16 29  1  0
 16 30  1  0
 17 31  1  0
 17 32  1  0
 17 33  1  0
 18 34  1  0
M  CHG  1   8  -1
M  END
>  <UniqueID>  (86) 
86

>  <SMILES>  (86) 
COC(=O)n1c(C([NH-])=O)cc2ccc(C(C)C)cc21

>  <Energy>  (86) 
67.25959122878143

>  <Genealogy>  (86) 
COC(=O)n1c(C([NH-])=O)cc2ccc(C(C)C)cc21 (protonated)
COC(=O)n1c(C([NH-])=O)cc2ccc(C(C)C)cc21 (3D coordinates assigned)
COC(=O)n1c(C([NH-])=O)cc2ccc(C(C)C)cc21 (optimized conformer: 67.25959122878143 kcal/mol)

>  <smiles>  (86) 
COC(=O)n1c(C(N)=O)cc2ccc(C(C)C)cc21

>  <score_type>  (86) 
oracle

>  <origin>  (86) 
adg

>  <m_score__min__energy>  (86) 
-9.8599999999999994

>  <m_primary>  (86) 
energy

$$$$
86:0
     RDKit          3D

 32 34  0  0  0  0  0  0  0  0999 V2000
   -1.6450   25.7100  -28.9640 N   0  0  0  0  0  0  0  0  0  0  0  0
   -0.8640   24.5180  -29.0060 C   0  0  0  0  0  0  0  0  0  0  0  0
    0.2600   24.4980  -28.4360 O   0  0  0  0  0  0  0  0  0  0  0  0
   -1.3290   23.3280  -29.7480 C   0  0  0  0  0  0  0  0  0  0  0  0
   -0.4860   22.2880  -30.1340 C   0  0  0  0  0  0  0  0  0  0  0  0
   -1.2770   21.4290  -30.8620 C   0  0  0  0  0  0  0  0  0  0  0  0
   -0.9540   20.2230  -31.4770 C   0  0  0  0  0  0  0  0  0  0  0  0
   -1.9800   19.5270  -32.1380 C   0  0  0  0  0  0  0  0  0  0  0  0
   -3.3040   20.0370  -32.1670 C   0  0  0  0  0  0  0  0  0  0  0  0
   -4.3830   19.2840  -32.8580 C   0  0  0  0  0  0  0  0  0  0  0  0
   -4.1090   18.5610  -34.0330 C   0  0  0  0  0  0  0  0  0  0  0  0
   -5.1250   17.8540  -34.6830 C   0  0  0  0  0  0  0  0  0  0  0  0
   -6.4240   17.8600  -34.1670 C   0  0  0  0  0  0  0  0  0  0  0  0
   -6.7090   18.5750  -33.0000 C   0  0  0  0  0  0  0  0  0  0  0  0
   -8.3390   18.5770  -32.3510 Cl  0  0  0  0  0  0  0  0  0  0  0  0
   -5.6940   19.2840  -32.3480 C   0  0  0  0  0  0  0  0  0  0  0  0
   -3.5890   21.2680  -31.5290 C   0  0  0  0  0  0  0  0  0  0  0  0
   -2.5430   21.9500  -30.8950 C   0  0  0  0  0  0  0  0  0  0  0  0
   -2.5940   23.1170  -30.2150 N   0  0  0  0  0  0  0  0  0  0  0  0
   -3.7670   23.9070  -29.9660 C   0  0  0  0  0  0  0  0  0  0  0  0
   -3.8580   25.2370  -30.4720 N   0  0  0  0  0  0  0  0  0  0  0  0
   -4.7270   23.4250  -29.3070 O   0  0  0  0  0  0  0  0  0  0  0  0
   -2.6780   25.6810  -29.1110 H   0  0  0  0  0  0  0  0  0  0  0  0
    0.5843   22.1772  -29.9054 H   0  0  0  0  0  0  0  0  0  0  0  0
    0.0719   19.8273  -31.4465 H   0  0  0  0  0  0  0  0  0  0  0  0
   -1.7541   18.5744  -32.6395 H   0  0  0  0  0  0  0  0  0  0  0  0
   -3.0884   18.5518  -34.4433 H   0  0  0  0  0  0  0  0  0  0  0  0
   -4.9017   17.2921  -35.6019 H   0  0  0  0  0  0  0  0  0  0  0  0
   -7.2219   17.3022  -34.6791 H   0  0  0  0  0  0  0  0  0  0  0  0
   -5.9229   19.8453  -31.4301 H   0  0  0  0  0  0  0  0  0  0  0  0
   -4.6091   21.6796  -31.5311 H   0  0  0  0  0  0  0  0  0  0  0  0
   -3.6580   26.0590  -29.8590 H   0  0  0  0  0  0  0  0  0  0  0  0
  1  2  1  0
  2  3  2  0
  2  4  1  0
  4  5  2  0
  5  6  1  0
  6  7  2  0
  7  8  1  0
  8  9  2  0
  9 10  1  0
 10 11  2  0
 11 12  1  0
 12 13  2  0
 13 14  1  0
 14 15  1  0
 14 16  2  0
  9 17  1  0
 17 18  2  0
 18 19  1  0
 19 20  1  0
 20 21  1  0
 20 22  2  0
 19  4  1  0
 18  6  1  0
 16 10  1  0
  1 23  1  0
  5 24  1  0
  7 25  1  0
  8 26  1  0
 11 27  1  0
 12 28  1  0
 13 29  1  0
 16 30  1  0
 17 31  1  0
 21 32  1  0
M  CHG  2   1  -1  21  -1
M  END
>  <UniqueID>  (87) 
87

>  <SMILES>  (87) 
[NH-]C(=O)c1cc2ccc(-c3cccc(Cl)c3)cc2n1C([NH-])=O

>  <Energy>  (87) 
79.4546401053662

>  <Genealogy>  (87) 
[NH-]C(=O)c1cc2ccc(-c3cccc(Cl)c3)cc2n1C([NH-])=O (protonated)
[NH-]C(=O)c1cc2ccc(-c3cccc(Cl)c3)cc2n1C([NH-])=O (3D coordinates assigned)
[NH-]C(=O)c1cc2ccc(-c3cccc(Cl)c3)cc2n1C([NH-])=O (optimized conformer: 79.4546401053662 kcal/mol)

>  <smiles>  (87) 
NC(=O)c1cc2ccc(-c3cccc(Cl)c3)cc2n1C(N)=O

>  <score_type>  (87) 
oracle

>  <origin>  (87) 
adg

>  <m_score__min__energy>  (87) 
-11.98

>  <m_primary>  (87) 
energy

$$$$
87:0
     RDKit          3D

 51 54  0  0  0  0  0  0  0  0999 V2000
   -3.0690   12.9890  -31.6690 C   0  0  0  0  0  0  0  0  0  0  0  0
   -3.6620   13.3970  -33.0280 C   0  0  0  0  0  0  0  0  0  0  0  0
   -4.9460   14.1340  -32.9430 N   0  0  0  0  0  0  0  0  0  0  0  0
   -5.3420   14.7800  -34.2050 C   0  0  0  0  0  0  0  0  0  0  0  0
   -5.2460   16.2980  -34.0130 C   0  0  1  0  0  0  0  0  0  0  0  0
   -6.5730   17.0420  -34.1740 C   0  0  0  0  0  0  0  0  0  0  0  0
   -6.4830   18.2010  -33.1890 C   0  0  1  0  0  0  0  0  0  0  0  0
   -7.8710   18.7470  -32.8050 C   0  0  0  0  0  0  0  0  0  0  0  0
   -7.7730   20.1410  -32.2410 C   0  0  0  0  0  0  0  0  0  0  0  0
   -8.8970   20.7400  -31.6160 C   0  0  0  0  0  0  0  0  0  0  0  0
   -8.8020   22.0220  -31.0500 C   0  0  0  0  0  0  0  0  0  0  0  0
   -7.5770   22.6780  -31.1220 C   0  0  0  0  0  0  0  0  0  0  0  0
   -7.2020   23.9120  -30.6390 C   0  0  0  0  0  0  0  0  0  0  0  0
   -5.8590   24.0510  -30.9860 C   0  0  0  0  0  0  0  0  0  0  0  0
   -5.0740   25.2780  -30.7400 C   0  0  0  0  0  0  0  0  0  0  0  0
   -3.6790   25.1840  -30.4580 N   0  0  0  0  0  0  0  0  0  0  0  0
   -5.6270   26.4090  -30.7430 O   0  0  0  0  0  0  0  0  0  0  0  0
   -5.4200   22.9430  -31.6480 N   0  0  0  0  0  0  0  0  0  0  0  0
   -4.0910   22.6640  -32.1180 C   0  0  0  0  0  0  0  0  0  0  0  0
   -3.8670   22.2990  -33.4790 N   0  0  0  0  0  0  0  0  0  0  0  0
   -3.1110   22.7760  -31.3340 O   0  0  0  0  0  0  0  0  0  0  0  0
   -6.4840   22.1160  -31.7290 C   0  0  0  0  0  0  0  0  0  0  0  0
   -6.5450   20.8360  -32.2890 C   0  0  0  0  0  0  0  0  0  0  0  0
   -5.6980   17.6400  -32.0020 C   0  0  0  0  0  0  0  0  0  0  0  0
   -4.8120   16.5230  -32.5780 C   0  0  1  0  0  0  0  0  0  0  0  0
   -4.9740   15.1630  -31.8960 C   0  0  0  0  0  0  0  0  0  0  0  0
   -3.6826   13.4112  -30.8596 H   0  0  0  0  0  0  0  0  0  0  0  0
   -3.0592   11.8921  -31.5877 H   0  0  0  0  0  0  0  0  0  0  0  0
   -2.0410   13.3719  -31.5877 H   0  0  0  0  0  0  0  0  0  0  0  0
   -2.9314   14.0381  -33.5430 H   0  0  0  0  0  0  0  0  0  0  0  0
   -3.8728   12.4633  -33.5700 H   0  0  0  0  0  0  0  0  0  0  0  0
   -4.6674   14.4630  -35.0140 H   0  0  0  0  0  0  0  0  0  0  0  0
   -6.3696   14.4939  -34.4738 H   0  0  0  0  0  0  0  0  0  0  0  0
   -4.5561   16.6789  -34.7804 H   0  0  0  0  0  0  0  0  0  0  0  0
   -6.6877   17.4142  -35.2028 H   0  0  0  0  0  0  0  0  0  0  0  0
   -7.4413   16.3950  -33.9802 H   0  0  0  0  0  0  0  0  0  0  0  0
   -5.9760   19.0775  -33.6186 H   0  0  0  0  0  0  0  0  0  0  0  0
   -8.5089   18.7668  -33.7009 H   0  0  0  0  0  0  0  0  0  0  0  0
   -8.3022   18.0901  -32.0353 H   0  0  0  0  0  0  0  0  0  0  0  0
   -9.8518   20.1954  -31.5743 H   0  0  0  0  0  0  0  0  0  0  0  0
   -9.6695   22.4930  -30.5646 H   0  0  0  0  0  0  0  0  0  0  0  0
   -7.8287   24.6342  -30.0952 H   0  0  0  0  0  0  0  0  0  0  0  0
   -2.9960   24.9310  -31.2070 H   0  0  0  0  0  0  0  0  0  0  0  0
   -4.6570   22.2860  -34.1620 H   0  0  0  0  0  0  0  0  0  0  0  0
   -2.9030   22.0830  -33.8150 H   0  0  0  0  0  0  0  0  0  0  0  0
   -5.6582   20.3819  -32.7553 H   0  0  0  0  0  0  0  0  0  0  0  0
   -5.0769   18.4259  -31.5473 H   0  0  0  0  0  0  0  0  0  0  0  0
   -6.3675   17.2616  -31.2155 H   0  0  0  0  0  0  0  0  0  0  0  0
   -3.7726   16.8567  -32.4425 H   0  0  0  0  0  0  0  0  0  0  0  0
   -4.1494   14.9987  -31.1867 H   0  0  0  0  0  0  0  0  0  0  0  0
   -5.9216   15.1211  -31.3390 H   0  0  0  0  0  0  0  0  0  0  0  0
  1  2  1  0
  2  3  1  0
  3  4  1  0
  4  5  1  0
  5  6  1  0
  6  7  1  0
  7  8  1  0
  8  9  1  0
  9 10  2  0
 10 11  1  0
 11 12  2  0
 12 13  1  0
 13 14  2  0
 14 15  1  0
 15 16  1  0
 15 17  2  0
 14 18  1  0
 18 19  1  0
 19 20  1  0
 19 21  2  0
 18 22  1  0
 22 23  2  0
  7 24  1  0
 24 25  1  0
 25 26  1  0
 26  3  1  0
 25  5  1  0
 23  9  1  0
 22 12  1  0
  1 27  1  0
  1 28  1  0
  1 29  1  0
  2 30  1  0
  2 31  1  0
  4 32  1  0
  4 33  1  0
  5 34  1  6
  6 35  1  0
  6 36  1  0
  7 37  1  6
  8 38  1  0
  8 39  1  0
 10 40  1  0
 11 41  1  0
 13 42  1  0
 16 43  1  0
 20 44  1  0
 20 45  1  0
 23 46  1  0
 24 47  1  0
 24 48  1  0
 25 49  1  6
 26 50  1  0
 26 51  1  0
M  CHG  1  16  -1
M  END
>  <UniqueID>  (88) 
88

>  <SMILES>  (88) 
CCN1C[C@H]2C[C@@H](Cc3ccc4cc(C([NH-])=O)n(C(N)=O)c4c3)C[C@H]2C1

>  <Energy>  (88) 
97.17239921212315

>  <Genealogy>  (88) 
CCN1C[C@H]2CC(Cc3ccc4cc(C([NH-])=O)n(C(N)=O)c4c3)C[C@H]2C1 (protonated)
CCN1C[C@H]2C[C@@H](Cc3ccc4cc(C([NH-])=O)n(C(N)=O)c4c3)C[C@H]2C1 (chirality)
CCN1C[C@H]2C[C@@H](Cc3ccc4cc(C([NH-])=O)n(C(N)=O)c4c3)C[C@H]2C1 (3D coordinates assigned)
CCN1C[C@H]2C[C@@H](Cc3ccc4cc(C([NH-])=O)n(C(N)=O)c4c3)C[C@H]2C1 (nonaromatic ring conformer: 97.17239921212315 kcal/mol)

>  <smiles>  (88) 
CCN1C[C@H]2CC(Cc3ccc4cc(C(N)=O)n(C(N)=O)c4c3)C[C@H]2C1

>  <score_type>  (88) 
oracle

>  <origin>  (88) 
adg

>  <m_score__min__energy>  (88) 
-12.210000000000001

>  <m_primary>  (88) 
energy

$$$$
88:0
     RDKit          3D

 56 58  0  0  0  0  0  0  0  0999 V2000
   -7.3480   22.7570  -29.7420 C   0  0  0  0  0  0  0  0  0  0  0  0
   -6.4100   23.8290  -30.3190 C   0  0  0  0  0  0  0  0  0  0  0  0
   -6.5040   23.7960  -31.8560 C   0  0  0  0  0  0  0  0  0  0  0  0
   -6.8330   25.2090  -29.7770 C   0  0  0  0  0  0  0  0  0  0  0  0
   -5.0820   23.5030  -29.8890 O   0  0  0  0  0  0  0  0  0  0  0  0
   -3.8840   24.0270  -30.4000 C   0  0  0  0  0  0  0  0  0  0  0  0
   -3.8270   25.2060  -30.8390 O   0  0  0  0  0  0  0  0  0  0  0  0
   -2.7220   23.1870  -30.4510 N   0  0  0  0  0  0  0  0  0  0  0  0
   -1.4960   23.4020  -29.8920 C   0  0  0  0  0  0  0  0  0  0  0  0
   -1.1300   24.5280  -29.0080 C   0  0  0  0  0  0  0  0  0  0  0  0
   -1.9760   25.6750  -28.9350 N   0  0  0  0  0  0  0  0  0  0  0  0
   -0.0620   24.5070  -28.3420 O   0  0  0  0  0  0  0  0  0  0  0  0
   -0.6320   22.3490  -30.1930 C   0  0  0  0  0  0  0  0  0  0  0  0
   -1.3750   21.4720  -30.9500 C   0  0  0  0  0  0  0  0  0  0  0  0
   -1.0220   20.2450  -31.5090 C   0  0  0  0  0  0  0  0  0  0  0  0
   -1.9970   19.5520  -32.2480 C   0  0  0  0  0  0  0  0  0  0  0  0
   -3.2880   20.1050  -32.4320 C   0  0  0  0  0  0  0  0  0  0  0  0
   -4.3420   19.3550  -33.2010 C   0  0  0  0  0  0  0  0  0  0  0  0
   -5.5520   19.0610  -32.2980 C   0  0  0  0  0  0  0  0  0  0  0  0
   -6.8650   18.8090  -33.0830 C   0  0  0  0  0  0  0  0  0  0  0  0
   -7.8250   17.8810  -32.2810 C   0  0  0  0  0  0  0  0  0  0  0  0
   -9.0230   18.6130  -31.6400 C   0  0  0  0  0  0  0  0  0  0  0  0
   -8.6380   20.0110  -31.1450 C   0  0  0  0  0  0  0  0  0  0  0  0
   -8.1060   20.9080  -32.2830 C   0  0  0  0  0  0  0  0  0  0  0  0
   -7.5860   20.1140  -33.4960 C   0  0  0  0  0  0  0  0  0  0  0  0
   -3.6080   21.3510  -31.8500 C   0  0  0  0  0  0  0  0  0  0  0  0
   -2.6280   22.0030  -31.0940 C   0  0  0  0  0  0  0  0  0  0  0  0
   -7.3154   22.7943  -28.6431 H   0  0  0  0  0  0  0  0  0  0  0  0
   -8.3759   22.9462  -30.0850 H   0  0  0  0  0  0  0  0  0  0  0  0
   -7.0241   21.7633  -30.0850 H   0  0  0  0  0  0  0  0  0  0  0  0
   -7.5029   23.4453  -32.1548 H   0  0  0  0  0  0  0  0  0  0  0  0
   -6.3356   24.8070  -32.2554 H   0  0  0  0  0  0  0  0  0  0  0  0
   -5.7406   23.1121  -32.2554 H   0  0  0  0  0  0  0  0  0  0  0  0
   -6.8268   25.1886  -28.6772 H   0  0  0  0  0  0  0  0  0  0  0  0
   -6.1283   25.9747  -30.1335 H   0  0  0  0  0  0  0  0  0  0  0  0
   -7.8457   25.4483  -30.1335 H   0  0  0  0  0  0  0  0  0  0  0  0
   -2.9440   25.6520  -29.3250 H   0  0  0  0  0  0  0  0  0  0  0  0
    0.4200   22.2422  -29.8897 H   0  0  0  0  0  0  0  0  0  0  0  0
   -0.0114   19.8314  -31.3761 H   0  0  0  0  0  0  0  0  0  0  0  0
   -1.7553   18.5727  -32.6867 H   0  0  0  0  0  0  0  0  0  0  0  0
   -4.6677   19.9628  -34.0580 H   0  0  0  0  0  0  0  0  0  0  0  0
   -3.9187   18.4031  -33.5541 H   0  0  0  0  0  0  0  0  0  0  0  0
   -5.3287   18.1669  -31.6974 H   0  0  0  0  0  0  0  0  0  0  0  0
   -5.7144   19.9531  -31.6753 H   0  0  0  0  0  0  0  0  0  0  0  0
   -6.5740   18.3021  -34.0149 H   0  0  0  0  0  0  0  0  0  0  0  0
   -8.2156   17.1140  -32.9660 H   0  0  0  0  0  0  0  0  0  0  0  0
   -7.2363   17.4548  -31.4553 H   0  0  0  0  0  0  0  0  0  0  0  0
   -9.8236   18.7084  -32.3883 H   0  0  0  0  0  0  0  0  0  0  0  0
   -9.3591   18.0244  -30.7736 H   0  0  0  0  0  0  0  0  0  0  0  0
   -9.5261   20.4876  -30.7044 H   0  0  0  0  0  0  0  0  0  0  0  0
   -7.8345   19.8963  -30.4026 H   0  0  0  0  0  0  0  0  0  0  0  0
   -8.9219   21.5645  -32.6198 H   0  0  0  0  0  0  0  0  0  0  0  0
   -7.2554   21.4759  -31.8780 H   0  0  0  0  0  0  0  0  0  0  0  0
   -8.4387   19.8571  -34.1417 H   0  0  0  0  0  0  0  0  0  0  0  0
   -6.8569   20.7470  -34.0230 H   0  0  0  0  0  0  0  0  0  0  0  0
   -4.6036   21.7981  -31.9877 H   0  0  0  0  0  0  0  0  0  0  0  0
  1  2  1  0
  2  3  1  0
  2  4  1  0
  2  5  1  0
  5  6  1  0
  6  7  2  0
  6  8  1  0
  8  9  1  0
  9 10  1  0
 10 11  1  0
 10 12  2  0
  9 13  2  0
 13 14  1  0
 14 15  2  0
 15 16  1  0
 16 17  2  0
 17 18  1  0
 18 19  1  0
 19 20  1  0
 20 21  1  0
 21 22  1  0
 22 23  1  0
 23 24  1  0
 24 25  1  0
 17 26  1  0
 26 27  2  0
 27  8  1  0
 27 14  1  0
 25 20  1  0
  1 28  1  0
  1 29  1  0
  1 30  1  0
  3 31  1  0
  3 32  1  0
  3 33  1  0
  4 34  1  0
  4 35  1  0
  4 36  1  0
 11 37  1  0
 13 38  1  0
 15 39  1  0
 16 40  1  0
 18 41  1  0
 18 42  1  0
 19 43  1  0
 19 44  1  0
 20 45  1  0
 21 46  1  0
 21 47  1  0
 22 48  1  0
 22 49  1  0
 23 50  1  0
 23 51  1  0
 24 52  1  0
 24 53  1  0
 25 54  1  0
 25 55  1  0
 26 56  1  0
M  CHG  1  11  -1
M  END
>  <UniqueID>  (89) 
89

>  <SMILES>  (89) 
CC(C)(C)OC(=O)n1c(C([NH-])=O)cc2ccc(CCC3CCCCC3)cc21

>  <Energy>  (89) 
89.33682063741519

>  <Genealogy>  (89) 
CC(C)(C)OC(=O)n1c(C([NH-])=O)cc2ccc(CCC3CCCCC3)cc21 (protonated)
CC(C)(C)OC(=O)n1c(C([NH-])=O)cc2ccc(CCC3CCCCC3)cc21 (3D coordinates assigned)
CC(C)(C)OC(=O)n1c(C([NH-])=O)cc2ccc(CCC3CCCCC3)cc21 (nonaromatic ring conformer: 89.33682063741519 kcal/mol)

>  <smiles>  (89) 
CC(C)(C)OC(=O)n1c(C(N)=O)cc2ccc(CCC3CCCCC3)cc21

>  <score_type>  (89) 
oracle

>  <origin>  (89) 
adg

>  <m_score__min__energy>  (89) 
-12.42

>  <m_primary>  (89) 
energy

$$$$
89:0
     RDKit          3D

 29 30  0  0  0  0  0  0  0  0999 V2000
   -3.4490   22.4890  -28.9470 C   0  0  0  0  0  0  0  0  0  0  0  0
   -3.1550   23.0570  -30.2180 O   0  0  0  0  0  0  0  0  0  0  0  0
   -3.8520   22.7100  -31.3780 C   0  0  0  0  0  0  0  0  0  0  0  0
   -3.2270   22.3150  -32.4000 O   0  0  0  0  0  0  0  0  0  0  0  0
   -5.2860   22.8040  -31.4070 N   0  0  0  0  0  0  0  0  0  0  0  0
   -6.0610   23.8290  -30.9520 C   0  0  0  0  0  0  0  0  0  0  0  0
   -5.5710   25.1380  -30.4750 C   0  0  0  0  0  0  0  0  0  0  0  0
   -4.2040   25.5190  -30.6350 N   0  0  0  0  0  0  0  0  0  0  0  0
   -6.3850   25.9550  -29.9680 O   0  0  0  0  0  0  0  0  0  0  0  0
   -7.4110   23.5020  -31.0380 C   0  0  0  0  0  0  0  0  0  0  0  0
   -7.4440   22.2370  -31.5790 C   0  0  0  0  0  0  0  0  0  0  0  0
   -8.5320   21.4160  -31.8630 C   0  0  0  0  0  0  0  0  0  0  0  0
   -8.2720   20.1350  -32.3780 C   0  0  0  0  0  0  0  0  0  0  0  0
   -6.9420   19.7040  -32.6000 C   0  0  0  0  0  0  0  0  0  0  0  0
   -6.6780   18.3130  -33.0990 C   0  0  0  0  0  0  0  0  0  0  0  0
   -5.8630   20.5570  -32.2830 C   0  0  0  0  0  0  0  0  0  0  0  0
   -6.1500   21.8360  -31.7920 C   0  0  0  0  0  0  0  0  0  0  0  0
   -3.0989   23.1654  -28.1533 H   0  0  0  0  0  0  0  0  0  0  0  0
   -4.5353   22.3441  -28.8526 H   0  0  0  0  0  0  0  0  0  0  0  0
   -2.9401   21.5184  -28.8526 H   0  0  0  0  0  0  0  0  0  0  0  0
   -3.8680   26.4330  -30.2550 H   0  0  0  0  0  0  0  0  0  0  0  0
   -3.5450   24.9410  -31.2010 H   0  0  0  0  0  0  0  0  0  0  0  0
   -8.2685   24.1221  -30.7377 H   0  0  0  0  0  0  0  0  0  0  0  0
   -9.5625   21.7595  -31.6896 H   0  0  0  0  0  0  0  0  0  0  0  0
   -9.1095   19.4609  -32.6108 H   0  0  0  0  0  0  0  0  0  0  0  0
   -6.5492   17.6346  -32.2428 H   0  0  0  0  0  0  0  0  0  0  0  0
   -7.5281   17.9751  -33.7099 H   0  0  0  0  0  0  0  0  0  0  0  0
   -5.7633   18.3101  -33.7099 H   0  0  0  0  0  0  0  0  0  0  0  0
   -4.8230   20.2251  -32.4184 H   0  0  0  0  0  0  0  0  0  0  0  0
  1  2  1  0
  2  3  1  0
  3  4  2  0
  3  5  1  0
  5  6  1  0
  6  7  1  0
  7  8  1  0
  7  9  2  0
  6 10  2  0
 10 11  1  0
 11 12  2  0
 12 13  1  0
 13 14  2  0
 14 15  1  0
 14 16  1  0
 16 17  2  0
 17  5  1  0
 17 11  1  0
  1 18  1  0
  1 19  1  0
  1 20  1  0
  8 21  1  0
  8 22  1  0
 10 23  1  0
 12 24  1  0
 13 25  1  0
 15 26  1  0
 15 27  1  0
 15 28  1  0
 16 29  1  0
M  END
>  <UniqueID>  (90) 
90

>  <SMILES>  (90) 
COC(=O)n1c(C(N)=O)cc2ccc(C)cc21

>  <Energy>  (90) 
66.00630700852378

>  <Genealogy>  (90) 
COC(=O)n1c(C(N)=O)cc2ccc(C)cc21 (3D coordinates assigned)
COC(=O)n1c(C(N)=O)cc2ccc(C)cc21 (optimized conformer: 66.00630700852378 kcal/mol)

>  <smiles>  (90) 
COC(=O)n1c(C(N)=O)cc2ccc(C)cc21

>  <score_type>  (90) 
oracle

>  <origin>  (90) 
adg

>  <m_score__min__energy>  (90) 
-7.6299999999999999

>  <m_primary>  (90) 
energy

$$$$
90:0
     RDKit          3D

 34 36  0  0  0  0  0  0  0  0999 V2000
   -9.4250   21.4780  -31.4970 C   0  0  0  0  0  0  0  0  0  0  0  0
   -8.3980   20.5590  -32.0660 C   0  0  0  0  0  0  0  0  0  0  0  0
   -7.3200   20.9870  -32.7570 N   0  0  0  0  0  0  0  0  0  0  0  0
   -6.7060   19.8380  -33.0940 C   0  0  0  0  0  0  0  0  0  0  0  0
   -5.4020   19.7670  -33.8250 C   0  0  0  0  0  0  0  0  0  0  0  0
   -4.2870   20.2310  -32.9300 C   0  0  0  0  0  0  0  0  0  0  0  0
   -3.0850   19.4850  -32.8450 C   0  0  0  0  0  0  0  0  0  0  0  0
   -2.0280   19.9230  -32.0320 C   0  0  0  0  0  0  0  0  0  0  0  0
   -2.1910   21.1170  -31.3340 C   0  0  0  0  0  0  0  0  0  0  0  0
   -1.3400   21.7570  -30.4630 C   0  0  0  0  0  0  0  0  0  0  0  0
   -2.0170   22.9050  -30.0600 C   0  0  0  0  0  0  0  0  0  0  0  0
   -1.4240   23.9290  -29.1760 C   0  0  0  0  0  0  0  0  0  0  0  0
   -1.7350   25.3100  -29.3390 N   0  0  0  0  0  0  0  0  0  0  0  0
   -0.5940   23.5850  -28.2920 O   0  0  0  0  0  0  0  0  0  0  0  0
   -3.2440   22.9700  -30.6540 N   0  0  0  0  0  0  0  0  0  0  0  0
   -4.2730   23.9480  -30.4420 C   0  0  0  0  0  0  0  0  0  0  0  0
   -4.0730   25.3000  -30.8460 N   0  0  0  0  0  0  0  0  0  0  0  0
   -5.3640   23.6140  -29.9070 O   0  0  0  0  0  0  0  0  0  0  0  0
   -3.3340   21.8680  -31.4310 C   0  0  0  0  0  0  0  0  0  0  0  0
   -4.4130   21.4440  -32.2160 C   0  0  0  0  0  0  0  0  0  0  0  0
   -7.4140   18.7680  -32.5930 C   0  0  0  0  0  0  0  0  0  0  0  0
   -8.4600   19.2490  -31.9700 O   0  0  0  0  0  0  0  0  0  0  0  0
   -9.3826   21.4401  -30.3985 H   0  0  0  0  0  0  0  0  0  0  0  0
   -9.2261   22.5053  -31.8364 H   0  0  0  0  0  0  0  0  0  0  0  0
  -10.4239   21.1667  -31.8364 H   0  0  0  0  0  0  0  0  0  0  0  0
   -5.2133   18.7283  -34.1339 H   0  0  0  0  0  0  0  0  0  0  0  0
   -5.4484   20.4164  -34.7116 H   0  0  0  0  0  0  0  0  0  0  0  0
   -2.9795   18.5541  -33.4215 H   0  0  0  0  0  0  0  0  0  0  0  0
   -1.0986   19.3405  -31.9487 H   0  0  0  0  0  0  0  0  0  0  0  0
   -0.3369   21.4308  -30.1509 H   0  0  0  0  0  0  0  0  0  0  0  0
   -2.7240   25.6440  -29.3210 H   0  0  0  0  0  0  0  0  0  0  0  0
   -3.1110   25.6880  -30.9660 H   0  0  0  0  0  0  0  0  0  0  0  0
   -5.3356   22.0401  -32.2755 H   0  0  0  0  0  0  0  0  0  0  0  0
   -7.1493   17.7054  -32.6972 H   0  0  0  0  0  0  0  0  0  0  0  0
  1  2  1  0
  2  3  2  0
  3  4  1  0
  4  5  1  0
  5  6  1  0
  6  7  2  0
  7  8  1  0
  8  9  2  0
  9 10  1  0
 10 11  2  0
 11 12  1  0
 12 13  1  0
 12 14  2  0
 11 15  1  0
 15 16  1  0
 16 17  1  0
 16 18  2  0
 15 19  1  0
 19 20  2  0
  4 21  2  0
 21 22  1  0
 22  2  1  0
 20  6  1  0
 19  9  1  0
  1 23  1  0
  1 24  1  0
  1 25  1  0
  5 26  1  0
  5 27  1  0
  7 28  1  0
  8 29  1  0
 10 30  1  0
 13 31  1  0
 17 32  1  0
 20 33  1  0
 21 34  1  0
M  CHG  2  13  -1  17  -1
M  END
>  <UniqueID>  (91) 
91

>  <SMILES>  (91) 
Cc1nc(Cc2ccc3cc(C([NH-])=O)n(C([NH-])=O)c3c2)co1

>  <Energy>  (91) 
101.5659025390757

>  <Genealogy>  (91) 
Cc1nc(Cc2ccc3cc(C([NH-])=O)n(C([NH-])=O)c3c2)co1 (protonated)
Cc1nc(Cc2ccc3cc(C([NH-])=O)n(C([NH-])=O)c3c2)co1 (3D coordinates assigned)
Cc1nc(Cc2ccc3cc(C([NH-])=O)n(C([NH-])=O)c3c2)co1 (optimized conformer: 101.5659025390757 kcal/mol)

>  <smiles>  (91) 
Cc1nc(Cc2ccc3cc(C(N)=O)n(C(N)=O)c3c2)co1

>  <score_type>  (91) 
oracle

>  <origin>  (91) 
adg

>  <m_score__min__energy>  (91) 
-11.140000000000001

>  <m_primary>  (91) 
energy

$$$$
91:0
     RDKit          3D

 41 43  0  0  0  0  0  0  0  0999 V2000
   -2.6700   17.4590  -34.4480 C   0  0  0  0  0  0  0  0  0  0  0  0
   -3.7080   16.6800  -35.2830 C   0  0  0  0  0  0  0  0  0  0  0  0
   -5.1340   17.0560  -35.1080 N   0  0  0  0  0  0  0  0  0  0  0  0
   -5.7580   16.4730  -33.9130 C   0  0  0  0  0  0  0  0  0  0  0  0
   -5.9880   17.8390  -33.2740 C   0  0  0  0  0  0  0  0  0  0  0  0
   -7.4640   18.2160  -33.0730 C   0  0  0  0  0  0  0  0  0  0  0  0
   -7.5830   19.5810  -32.4510 C   0  0  0  0  0  0  0  0  0  0  0  0
   -8.8350   20.0400  -31.9690 C   0  0  0  0  0  0  0  0  0  0  0  0
   -8.9450   21.2960  -31.3490 C   0  0  0  0  0  0  0  0  0  0  0  0
   -7.7930   22.0660  -31.2260 C   0  0  0  0  0  0  0  0  0  0  0  0
   -7.6130   23.3020  -30.6460 C   0  0  0  0  0  0  0  0  0  0  0  0
   -6.2560   23.5850  -30.7940 C   0  0  0  0  0  0  0  0  0  0  0  0
   -5.6340   24.8670  -30.3970 C   0  0  0  0  0  0  0  0  0  0  0  0
   -5.8910   25.4370  -29.1110 N   0  0  0  0  0  0  0  0  0  0  0  0
   -4.8950   25.4890  -31.2060 O   0  0  0  0  0  0  0  0  0  0  0  0
   -5.6210   22.5630  -31.4370 N   0  0  0  0  0  0  0  0  0  0  0  0
   -4.2160   22.4400  -31.7160 C   0  0  0  0  0  0  0  0  0  0  0  0
   -3.2850   23.3520  -31.1390 N   0  0  0  0  0  0  0  0  0  0  0  0
   -3.7970   21.5090  -32.4560 O   0  0  0  0  0  0  0  0  0  0  0  0
   -6.5770   21.6420  -31.6950 C   0  0  0  0  0  0  0  0  0  0  0  0
   -6.4340   20.3890  -32.3010 C   0  0  0  0  0  0  0  0  0  0  0  0
   -5.3760   18.3970  -34.5530 C   0  0  0  0  0  0  0  0  0  0  0  0
   -2.8722   17.3073  -33.3774 H   0  0  0  0  0  0  0  0  0  0  0  0
   -1.6599   17.0942  -34.6857 H   0  0  0  0  0  0  0  0  0  0  0  0
   -2.7381   18.5309  -34.6857 H   0  0  0  0  0  0  0  0  0  0  0  0
   -3.4550   16.8229  -36.3439 H   0  0  0  0  0  0  0  0  0  0  0  0
   -3.6406   15.6418  -34.9257 H   0  0  0  0  0  0  0  0  0  0  0  0
   -6.6889   15.9275  -34.1271 H   0  0  0  0  0  0  0  0  0  0  0  0
   -5.2079   15.7073  -33.3464 H   0  0  0  0  0  0  0  0  0  0  0  0
   -5.6236   18.0924  -32.2675 H   0  0  0  0  0  0  0  0  0  0  0  0
   -7.9725   18.2178  -34.0484 H   0  0  0  0  0  0  0  0  0  0  0  0
   -7.9296   17.4792  -32.4020 H   0  0  0  0  0  0  0  0  0  0  0  0
   -9.7278   19.4073  -32.0814 H   0  0  0  0  0  0  0  0  0  0  0  0
   -9.9125   21.6594  -30.9724 H   0  0  0  0  0  0  0  0  0  0  0  0
   -8.3774   23.9320  -30.1677 H   0  0  0  0  0  0  0  0  0  0  0  0
   -5.4790   26.3610  -28.8570 H   0  0  0  0  0  0  0  0  0  0  0  0
   -6.4540   24.9270  -28.3960 H   0  0  0  0  0  0  0  0  0  0  0  0
   -3.1320   24.2970  -31.5550 H   0  0  0  0  0  0  0  0  0  0  0  0
   -5.4511   20.0416  -32.6520 H   0  0  0  0  0  0  0  0  0  0  0  0
   -6.0789   18.9974  -35.1492 H   0  0  0  0  0  0  0  0  0  0  0  0
   -4.5338   19.1004  -34.4763 H   0  0  0  0  0  0  0  0  0  0  0  0
  1  2  1  0
  2  3  1  0
  3  4  1  0
  4  5  1  0
  5  6  1  0
  6  7  1  0
  7  8  2  0
  8  9  1  0
  9 10  2  0
 10 11  1  0
 11 12  2  0
 12 13  1  0
 13 14  1  0
 13 15  2  0
 12 16  1  0
 16 17  1  0
 17 18  1  0
 17 19  2  0
 16 20  1  0
 20 21  2  0
  5 22  1  0
 22  3  1  0
 21  7  1  0
 20 10  1  0
  1 23  1  0
  1 24  1  0
  1 25  1  0
  2 26  1  0
  2 27  1  0
  4 28  1  0
  4 29  1  0
  5 30  1  0
  6 31  1  0
  6 32  1  0
  8 33  1  0
  9 34  1  0
 11 35  1  0
 14 36  1  0
 14 37  1  0
 18 38  1  0
 21 39  1  0
 22 40  1  0
 22 41  1  0
M  CHG  1  18  -1
M  END
>  <UniqueID>  (92) 
92

>  <SMILES>  (92) 
CCN1CC(Cc2ccc3cc(C(N)=O)n(C([NH-])=O)c3c2)C1

>  <Energy>  (92) 
153.61698940510675

>  <Genealogy>  (92) 
CCN1CC(Cc2ccc3cc(C(N)=O)n(C([NH-])=O)c3c2)C1 (protonated)
CCN1CC(Cc2ccc3cc(C(N)=O)n(C([NH-])=O)c3c2)C1 (3D coordinates assigned)
CCN1CC(Cc2ccc3cc(C(N)=O)n(C([NH-])=O)c3c2)C1 (nonaromatic ring conformer: 153.61698940510675 kcal/mol)

>  <smiles>  (92) 
CCN1CC(Cc2ccc3cc(C(N)=O)n(C(N)=O)c3c2)C1

>  <score_type>  (92) 
oracle

>  <origin>  (92) 
adg

>  <m_score__min__energy>  (92) 
-9.2899999999999991

>  <m_primary>  (92) 
energy

$$$$
92:0
     RDKit          3D

 45 47  0  0  0  0  0  0  0  0999 V2000
   -3.8000   24.1570  -28.6540 C   0  0  0  0  0  0  0  0  0  0  0  0
   -4.1730   24.2390  -30.3900 S   0  0  0  0  0  0  0  0  0  0  0  0
   -4.1800   25.6730  -30.8380 O   0  0  0  0  0  0  0  0  0  0  0  0
   -3.1220   23.4960  -31.1660 O   0  0  0  0  0  0  0  0  0  0  0  0
   -5.7520   23.5170  -30.6800 C   0  0  0  0  0  0  0  0  0  0  0  0
   -6.4580   23.8110  -31.8550 C   0  0  0  0  0  0  0  0  0  0  0  0
   -7.6990   23.2150  -32.0980 C   0  0  0  0  0  0  0  0  0  0  0  0
   -8.2490   22.3200  -31.1660 C   0  0  0  0  0  0  0  0  0  0  0  0
   -9.5550   21.6270  -31.4600 C   0  0  0  0  0  0  0  0  0  0  0  0
   -9.4580   20.7400  -32.7100 C   0  0  0  0  0  0  0  0  0  0  0  0
   -8.3090   19.7690  -32.6180 C   0  0  0  0  0  0  0  0  0  0  0  0
   -8.5520   18.4100  -32.2910 C   0  0  0  0  0  0  0  0  0  0  0  0
   -7.4960   17.4850  -32.2490 C   0  0  0  0  0  0  0  0  0  0  0  0
   -6.2160   17.9430  -32.5480 C   0  0  0  0  0  0  0  0  0  0  0  0
   -5.0190   17.2650  -32.5720 C   0  0  0  0  0  0  0  0  0  0  0  0
   -4.0660   18.2140  -32.9380 C   0  0  0  0  0  0  0  0  0  0  0  0
   -2.6410   17.8980  -33.1850 C   0  0  0  0  0  0  0  0  0  0  0  0
   -1.6160   18.8300  -32.8350 N   0  0  0  0  0  0  0  0  0  0  0  0
   -2.3170   16.7860  -33.6780 O   0  0  0  0  0  0  0  0  0  0  0  0
   -4.6510   19.4300  -33.1320 N   0  0  0  0  0  0  0  0  0  0  0  0
   -4.0060   20.6740  -33.4540 C   0  0  0  0  0  0  0  0  0  0  0  0
   -4.5800   21.9100  -33.0400 N   0  0  0  0  0  0  0  0  0  0  0  0
   -2.9390   20.6780  -34.1240 O   0  0  0  0  0  0  0  0  0  0  0  0
   -5.9680   19.2460  -32.8900 C   0  0  0  0  0  0  0  0  0  0  0  0
   -6.9990   20.1940  -32.9220 C   0  0  0  0  0  0  0  0  0  0  0  0
   -7.5340   22.0200  -29.9950 C   0  0  0  0  0  0  0  0  0  0  0  0
   -6.2930   22.6140  -29.7550 C   0  0  0  0  0  0  0  0  0  0  0  0
   -4.7123   24.3576  -28.0731 H   0  0  0  0  0  0  0  0  0  0  0  0
   -3.4213   23.1541  -28.4073 H   0  0  0  0  0  0  0  0  0  0  0  0
   -3.0356   24.9085  -28.4073 H   0  0  0  0  0  0  0  0  0  0  0  0
   -6.0341   24.5130  -32.5881 H   0  0  0  0  0  0  0  0  0  0  0  0
   -8.2469   23.4480  -33.0230 H   0  0  0  0  0  0  0  0  0  0  0  0
   -9.8279   21.0002  -30.5983 H   0  0  0  0  0  0  0  0  0  0  0  0
  -10.3183   22.3973  -31.6443 H   0  0  0  0  0  0  0  0  0  0  0  0
  -10.3949   20.1740  -32.8188 H   0  0  0  0  0  0  0  0  0  0  0  0
   -9.2870   21.3914  -33.5797 H   0  0  0  0  0  0  0  0  0  0  0  0
   -9.5767   18.0778  -32.0684 H   0  0  0  0  0  0  0  0  0  0  0  0
   -7.6749   16.4315  -31.9880 H   0  0  0  0  0  0  0  0  0  0  0  0
   -4.8501   16.2010  -32.3498 H   0  0  0  0  0  0  0  0  0  0  0  0
   -1.8480   19.7810  -32.4740 H   0  0  0  0  0  0  0  0  0  0  0  0
   -0.6120   18.5810  -32.9770 H   0  0  0  0  0  0  0  0  0  0  0  0
   -3.9870   22.7590  -32.9050 H   0  0  0  0  0  0  0  0  0  0  0  0
   -6.7920   21.2436  -33.1778 H   0  0  0  0  0  0  0  0  0  0  0  0
   -7.9535   21.3138  -29.2633 H   0  0  0  0  0  0  0  0  0  0  0  0
   -5.7382   22.3721  -28.8365 H   0  0  0  0  0  0  0  0  0  0  0  0
  1  2  1  0
  2  3  2  0
  2  4  2  0
  2  5  1  0
  5  6  2  0
  6  7  1  0
  7  8  2  0
  8  9  1  0
  9 10  1  0
 10 11  1  0
 11 12  2  0
 12 13  1  0
 13 14  2  0
 14 15  1  0
 15 16  2  0
 16 17  1  0
 17 18  1  0
 17 19  2  0
 16 20  1  0
 20 21  1  0
 21 22  1  0
 21 23  2  0
 20 24  1  0
 24 25  2  0
  8 26  1  0
 26 27  2  0
 27  5  1  0
 25 11  1  0
 24 14  1  0
  1 28  1  0
  1 29  1  0
  1 30  1  0
  6 31  1  0
  7 32  1  0
  9 33  1  0
  9 34  1  0
 10 35  1  0
 10 36  1  0
 12 37  1  0
 13 38  1  0
 15 39  1  0
 18 40  1  0
 18 41  1  0
 22 42  1  0
 25 43  1  0
 26 44  1  0
 27 45  1  0
M  CHG  1  22  -1
M  END
>  <UniqueID>  (93) 
93

>  <SMILES>  (93) 
CS(=O)(=O)c1ccc(CCc2ccc3cc(C(N)=O)n(C([NH-])=O)c3c2)cc1

>  <Energy>  (93) 
78.97689292090645

>  <Genealogy>  (93) 
CS(=O)(=O)c1ccc(CCc2ccc3cc(C(N)=O)n(C([NH-])=O)c3c2)cc1 (protonated)
CS(=O)(=O)c1ccc(CCc2ccc3cc(C(N)=O)n(C([NH-])=O)c3c2)cc1 (3D coordinates assigned)
CS(=O)(=O)c1ccc(CCc2ccc3cc(C(N)=O)n(C([NH-])=O)c3c2)cc1 (optimized conformer: 78.97689292090645 kcal/mol)

>  <smiles>  (93) 
CS(=O)(=O)c1ccc(CCc2ccc3cc(C(N)=O)n(C(N)=O)c3c2)cc1

>  <score_type>  (93) 
oracle

>  <origin>  (93) 
adg

>  <m_score__min__energy>  (93) 
-10.41

>  <m_primary>  (93) 
energy

$$$$
93:0
     RDKit          3D

 37 38  0  0  0  0  0  0  0  0999 V2000
   -2.9910   20.1520  -33.6430 C   0  0  0  0  0  0  0  0  0  0  0  0
   -3.1010   21.5640  -33.0780 C   0  0  0  0  0  0  0  0  0  0  0  0
   -3.1800   21.5320  -31.6560 O   0  0  0  0  0  0  0  0  0  0  0  0
   -3.8030   22.5280  -30.8940 C   0  0  0  0  0  0  0  0  0  0  0  0
   -3.1500   23.1720  -30.0290 O   0  0  0  0  0  0  0  0  0  0  0  0
   -5.1910   22.8280  -31.1130 N   0  0  0  0  0  0  0  0  0  0  0  0
   -5.8450   23.9910  -30.8300 C   0  0  0  0  0  0  0  0  0  0  0  0
   -5.2170   25.2570  -30.3990 C   0  0  0  0  0  0  0  0  0  0  0  0
   -3.9190   25.6250  -30.8550 N   0  0  0  0  0  0  0  0  0  0  0  0
   -5.8580   26.0480  -29.6550 O   0  0  0  0  0  0  0  0  0  0  0  0
   -7.2080   23.8570  -31.0830 C   0  0  0  0  0  0  0  0  0  0  0  0
   -7.3700   22.5690  -31.5400 C   0  0  0  0  0  0  0  0  0  0  0  0
   -8.5250   21.8970  -31.9270 C   0  0  0  0  0  0  0  0  0  0  0  0
   -8.4030   20.5560  -32.3250 C   0  0  0  0  0  0  0  0  0  0  0  0
   -7.1380   19.9080  -32.3240 C   0  0  0  0  0  0  0  0  0  0  0  0
   -7.0070   18.4560  -32.7410 C   0  0  0  0  0  0  0  0  0  0  0  0
   -6.4910   17.5930  -31.5840 C   0  0  0  0  0  0  0  0  0  0  0  0
   -6.1100   18.3150  -33.9770 C   0  0  0  0  0  0  0  0  0  0  0  0
   -5.9900   20.6280  -31.9220 C   0  0  0  0  0  0  0  0  0  0  0  0
   -6.1380   21.9690  -31.5480 C   0  0  0  0  0  0  0  0  0  0  0  0
   -2.9347   19.4293  -32.8156 H   0  0  0  0  0  0  0  0  0  0  0  0
   -3.8749   19.9343  -34.2605 H   0  0  0  0  0  0  0  0  0  0  0  0
   -2.0840   20.0738  -34.2605 H   0  0  0  0  0  0  0  0  0  0  0  0
   -2.2150   22.1430  -33.3776 H   0  0  0  0  0  0  0  0  0  0  0  0
   -4.0144   22.0330  -33.4727 H   0  0  0  0  0  0  0  0  0  0  0  0
   -3.0610   25.2950  -30.3590 H   0  0  0  0  0  0  0  0  0  0  0  0
   -7.9894   24.6191  -30.9465 H   0  0  0  0  0  0  0  0  0  0  0  0
   -9.5031   22.4004  -31.9214 H   0  0  0  0  0  0  0  0  0  0  0  0
   -9.2978   19.9999  -32.6416 H   0  0  0  0  0  0  0  0  0  0  0  0
   -8.0098   18.0926  -33.0099 H   0  0  0  0  0  0  0  0  0  0  0  0
   -6.7693   18.0584  -30.6270 H   0  0  0  0  0  0  0  0  0  0  0  0
   -6.9376   16.5897  -31.6474 H   0  0  0  0  0  0  0  0  0  0  0  0
   -5.3959   17.5115  -31.6474 H   0  0  0  0  0  0  0  0  0  0  0  0
   -5.0699   18.1515  -33.6585 H   0  0  0  0  0  0  0  0  0  0  0  0
   -6.4478   17.4589  -34.5795 H   0  0  0  0  0  0  0  0  0  0  0  0
   -6.1689   19.2334  -34.5795 H   0  0  0  0  0  0  0  0  0  0  0  0
   -5.0018   20.1452  -31.9034 H   0  0  0  0  0  0  0  0  0  0  0  0
  1  2  1  0
  2  3  1  0
  3  4  1  0
  4  5  2  0
  4  6  1  0
  6  7  1  0
  7  8  1  0
  8  9  1  0
  8 10  2  0
  7 11  2  0
 11 12  1  0
 12 13  2  0
 13 14  1  0
 14 15  2  0
 15 16  1  0
 16 17  1  0
 16 18  1  0
 15 19  1  0
 19 20  2  0
 20  6  1  0
 20 12  1  0
  1 21  1  0
  1 22  1  0
  1 23  1  0
  2 24  1  0
  2 25  1  0
  9 26  1  0
 11 27  1  0
 13 28  1  0
 14 29  1  0
 16 30  1  0
 17 31  1  0
 17 32  1  0
 17 33  1  0
 18 34  1  0
 18 35  1  0
 18 36  1  0
 19 37  1  0
M  CHG  1   9  -1
M  END
>  <UniqueID>  (94) 
94

>  <SMILES>  (94) 
CCOC(=O)n1c(C([NH-])=O)cc2ccc(C(C)C)cc21

>  <Energy>  (94) 
68.61938644521273

>  <Genealogy>  (94) 
CCOC(=O)n1c(C([NH-])=O)cc2ccc(C(C)C)cc21 (protonated)
CCOC(=O)n1c(C([NH-])=O)cc2ccc(C(C)C)cc21 (3D coordinates assigned)
CCOC(=O)n1c(C([NH-])=O)cc2ccc(C(C)C)cc21 (optimized conformer: 68.61938644521273 kcal/mol)

>  <smiles>  (94) 
CCOC(=O)n1c(C(N)=O)cc2ccc(C(C)C)cc21

>  <score_type>  (94) 
oracle

>  <origin>  (94) 
adg

>  <m_score__min__energy>  (94) 
-9.9900000000000002

>  <m_primary>  (94) 
energy

$$$$
94:0
     RDKit          3D

 35 37  0  0  0  0  0  0  0  0999 V2000
   -4.8720   14.8700  -34.3110 C   0  0  0  0  0  0  0  0  0  0  0  0
   -5.3450   16.2170  -33.8540 C   0  0  0  0  0  0  0  0  0  0  0  0
   -5.3590   17.3050  -34.7350 C   0  0  0  0  0  0  0  0  0  0  0  0
   -5.7650   18.5630  -34.2880 C   0  0  0  0  0  0  0  0  0  0  0  0
   -6.1520   18.7320  -32.9460 C   0  0  0  0  0  0  0  0  0  0  0  0
   -6.5880   20.0510  -32.4200 C   0  0  0  0  0  0  0  0  0  0  0  0
   -7.9710   20.3730  -32.3900 C   0  0  0  0  0  0  0  0  0  0  0  0
   -8.4120   21.6190  -31.9170 C   0  0  0  0  0  0  0  0  0  0  0  0
   -7.4550   22.5260  -31.4760 C   0  0  0  0  0  0  0  0  0  0  0  0
   -7.6060   23.8100  -31.0070 C   0  0  0  0  0  0  0  0  0  0  0  0
   -6.3160   24.2560  -30.7370 C   0  0  0  0  0  0  0  0  0  0  0  0
   -6.0210   25.5760  -30.1460 C   0  0  0  0  0  0  0  0  0  0  0  0
   -6.5010   25.9300  -28.8480 N   0  0  0  0  0  0  0  0  0  0  0  0
   -5.3820   26.4280  -30.8210 O   0  0  0  0  0  0  0  0  0  0  0  0
   -5.4000   23.2930  -31.0400 N   0  0  0  0  0  0  0  0  0  0  0  0
   -3.9670   23.4100  -31.0120 C   0  0  0  0  0  0  0  0  0  0  0  0
   -3.3510   24.5830  -30.4840 N   0  0  0  0  0  0  0  0  0  0  0  0
   -3.2450   22.4820  -31.4670 O   0  0  0  0  0  0  0  0  0  0  0  0
   -6.1160   22.2370  -31.4870 C   0  0  0  0  0  0  0  0  0  0  0  0
   -5.6450   21.0100  -31.9740 C   0  0  0  0  0  0  0  0  0  0  0  0
   -6.1020   17.6610  -32.1040 N   0  0  0  0  0  0  0  0  0  0  0  0
   -5.7100   16.4280  -32.5180 C   0  0  0  0  0  0  0  0  0  0  0  0
   -4.6515   14.2422  -33.4351 H   0  0  0  0  0  0  0  0  0  0  0  0
   -5.6561   14.3921  -34.9166 H   0  0  0  0  0  0  0  0  0  0  0  0
   -3.9613   14.9872  -34.9166 H   0  0  0  0  0  0  0  0  0  0  0  0
   -5.0494   17.1679  -35.7816 H   0  0  0  0  0  0  0  0  0  0  0  0
   -5.7824   19.4173  -34.9807 H   0  0  0  0  0  0  0  0  0  0  0  0
   -8.7071   19.6355  -32.7424 H   0  0  0  0  0  0  0  0  0  0  0  0
   -9.4827   21.8702  -31.8959 H   0  0  0  0  0  0  0  0  0  0  0  0
   -8.5459   24.3657  -30.8738 H   0  0  0  0  0  0  0  0  0  0  0  0
   -6.2510   26.8550  -28.4310 H   0  0  0  0  0  0  0  0  0  0  0  0
   -7.1670   25.3140  -28.3330 H   0  0  0  0  0  0  0  0  0  0  0  0
   -3.4290   25.4990  -30.9780 H   0  0  0  0  0  0  0  0  0  0  0  0
   -4.5666   20.7961  -32.0092 H   0  0  0  0  0  0  0  0  0  0  0  0
   -5.6791   15.5931  -31.8024 H   0  0  0  0  0  0  0  0  0  0  0  0
  1  2  1  0
  2  3  2  0
  3  4  1  0
  4  5  2  0
  5  6  1  0
  6  7  2  0
  7  8  1  0
  8  9  2  0
  9 10  1  0
 10 11  2  0
 11 12  1  0
 12 13  1  0
 12 14  2  0
 11 15  1  0
 15 16  1  0
 16 17  1  0
 16 18  2  0
 15 19  1  0
 19 20  2  0
  5 21  1  0
 21 22  2  0
 22  2  1  0
 20  6  1  0
 19  9  1  0
  1 23  1  0
  1 24  1  0
  1 25  1  0
  3 26  1  0
  4 27  1  0
  7 28  1  0
  8 29  1  0
 10 30  1  0
 13 31  1  0
 13 32  1  0
 17 33  1  0
 20 34  1  0
 22 35  1  0
M  CHG  1  17  -1
M  END
>  <UniqueID>  (95) 
95

>  <SMILES>  (95) 
Cc1ccc(-c2ccc3cc(C(N)=O)n(C([NH-])=O)c3c2)nc1

>  <Energy>  (95) 
81.08274606744067

>  <Genealogy>  (95) 
Cc1ccc(-c2ccc3cc(C(N)=O)n(C([NH-])=O)c3c2)nc1 (protonated)
Cc1ccc(-c2ccc3cc(C(N)=O)n(C([NH-])=O)c3c2)nc1 (3D coordinates assigned)
Cc1ccc(-c2ccc3cc(C(N)=O)n(C([NH-])=O)c3c2)nc1 (optimized conformer: 81.08274606744067 kcal/mol)

>  <smiles>  (95) 
Cc1ccc(-c2ccc3cc(C(N)=O)n(C(N)=O)c3c2)nc1

>  <score_type>  (95) 
oracle

>  <origin>  (95) 
adg

>  <m_score__min__energy>  (95) 
-9.6099999999999994

>  <m_primary>  (95) 
energy

$$$$
95:0
     RDKit          3D

 32 33  0  0  0  0  0  0  0  0999 V2000
   -4.6910   17.9120  -34.4970 C   0  0  0  0  0  0  0  0  0  0  0  0
   -4.9520   17.2010  -33.2940 O   0  0  0  0  0  0  0  0  0  0  0  0
   -6.0910   17.4290  -32.5160 C   0  0  0  0  0  0  0  0  0  0  0  0
   -6.1230   17.0850  -31.3030 O   0  0  0  0  0  0  0  0  0  0  0  0
   -7.2630   18.1350  -33.1180 C   0  0  0  0  0  0  0  0  0  0  0  0
   -7.4110   19.4990  -32.5040 C   0  0  0  0  0  0  0  0  0  0  0  0
   -8.6800   19.9430  -32.0580 C   0  0  0  0  0  0  0  0  0  0  0  0
   -8.8280   21.2080  -31.4660 C   0  0  0  0  0  0  0  0  0  0  0  0
   -7.6890   21.9940  -31.3140 C   0  0  0  0  0  0  0  0  0  0  0  0
   -7.5550   23.2650  -30.8050 C   0  0  0  0  0  0  0  0  0  0  0  0
   -6.1990   23.5600  -30.9050 C   0  0  0  0  0  0  0  0  0  0  0  0
   -5.6040   24.8210  -30.4180 C   0  0  0  0  0  0  0  0  0  0  0  0
   -5.8590   25.2990  -29.0970 N   0  0  0  0  0  0  0  0  0  0  0  0
   -4.9030   25.5160  -31.2010 O   0  0  0  0  0  0  0  0  0  0  0  0
   -5.5190   22.5190  -31.4630 N   0  0  0  0  0  0  0  0  0  0  0  0
   -4.1290   22.4840  -31.8330 C   0  0  0  0  0  0  0  0  0  0  0  0
   -3.1930   23.3530  -31.2010 N   0  0  0  0  0  0  0  0  0  0  0  0
   -3.7330   21.6890  -32.7270 O   0  0  0  0  0  0  0  0  0  0  0  0
   -6.4460   21.5660  -31.7080 C   0  0  0  0  0  0  0  0  0  0  0  0
   -6.2760   20.3200  -32.3250 C   0  0  0  0  0  0  0  0  0  0  0  0
   -4.3212   18.9193  -34.2547 H   0  0  0  0  0  0  0  0  0  0  0  0
   -3.9318   17.3739  -35.0836 H   0  0  0  0  0  0  0  0  0  0  0  0
   -5.6180   17.9930  -35.0836 H   0  0  0  0  0  0  0  0  0  0  0  0
   -7.1088   18.2381  -34.2022 H   0  0  0  0  0  0  0  0  0  0  0  0
   -8.1750   17.5509  -32.9253 H   0  0  0  0  0  0  0  0  0  0  0  0
   -9.5579   19.2909  -32.1764 H   0  0  0  0  0  0  0  0  0  0  0  0
   -9.8131   21.5665  -31.1328 H   0  0  0  0  0  0  0  0  0  0  0  0
   -8.3504   23.9105  -30.4043 H   0  0  0  0  0  0  0  0  0  0  0  0
   -6.5710   24.8420  -28.4860 H   0  0  0  0  0  0  0  0  0  0  0  0
   -5.3950   26.1700  -28.7570 H   0  0  0  0  0  0  0  0  0  0  0  0
   -3.1210   24.3570  -31.4790 H   0  0  0  0  0  0  0  0  0  0  0  0
   -5.2825   19.9891  -32.6619 H   0  0  0  0  0  0  0  0  0  0  0  0
  1  2  1  0
  2  3  1  0
  3  4  2  0
  3  5  1  0
  5  6  1  0
  6  7  2  0
  7  8  1  0
  8  9  2  0
  9 10  1  0
 10 11  2  0
 11 12  1  0
 12 13  1  0
 12 14  2  0
 11 15  1  0
 15 16  1  0
 16 17  1  0
 16 18  2  0
 15 19  1  0
 19 20  2  0
 20  6  1  0
 19  9  1  0
  1 21  1  0
  1 22  1  0
  1 23  1  0
  5 24  1  0
  5 25  1  0
  7 26  1  0
  8 27  1  0
 10 28  1  0
 13 29  1  0
 13 30  1  0
 17 31  1  0
 20 32  1  0
M  CHG  1  17  -1
M  END
>  <UniqueID>  (96) 
96

>  <SMILES>  (96) 
COC(=O)Cc1ccc2cc(C(N)=O)n(C([NH-])=O)c2c1

>  <Energy>  (96) 
67.68076993248621

>  <Genealogy>  (96) 
COC(=O)Cc1ccc2cc(C(N)=O)n(C([NH-])=O)c2c1 (protonated)
COC(=O)Cc1ccc2cc(C(N)=O)n(C([NH-])=O)c2c1 (3D coordinates assigned)
COC(=O)Cc1ccc2cc(C(N)=O)n(C([NH-])=O)c2c1 (optimized conformer: 67.68076993248621 kcal/mol)

>  <smiles>  (96) 
COC(=O)Cc1ccc2cc(C(N)=O)n(C(N)=O)c2c1

>  <score_type>  (96) 
oracle

>  <origin>  (96) 
adg

>  <m_score__min__energy>  (96) 
-8.3000000000000007

>  <m_primary>  (96) 
energy

$$$$
