0:0
     RDKit          3D

 52 54  0  0  0  0  0  0  0  0999 V2000
   -7.1960   17.0750  -32.7350 C   0  0  0  0  0  0  0  0  0  0  0  0
   -6.4240   18.2540  -33.1470 N   0  0  0  0  0  0  0  0  0  0  0  0
   -5.2700   18.0660  -34.0390 C   0  0  0  0  0  0  0  0  0  0  0  0
   -6.7910   19.5830  -32.6810 C   0  0  0  0  0  0  0  0  0  0  0  0
   -8.1460   20.0280  -32.7310 C   0  0  0  0  0  0  0  0  0  0  0  0
   -8.5100   21.3110  -32.2910 C   0  0  0  0  0  0  0  0  0  0  0  0
   -7.5110   22.1400  -31.7990 C   0  0  0  0  0  0  0  0  0  0  0  0
   -7.5850   23.4300  -31.3230 C   0  0  0  0  0  0  0  0  0  0  0  0
   -6.2800   23.7670  -30.9660 C   0  0  0  0  0  0  0  0  0  0  0  0
   -5.9010   25.0470  -30.3270 C   0  0  0  0  0  0  0  0  0  0  0  0
   -5.7140   25.1320  -28.9120 N   0  0  0  0  0  0  0  0  0  0  0  0
   -5.7200   26.0750  -31.0290 O   0  0  0  0  0  0  0  0  0  0  0  0
   -5.4360   22.7260  -31.2160 N   0  0  0  0  0  0  0  0  0  0  0  0
   -4.0090   22.6730  -31.0320 C   0  0  0  0  0  0  0  0  0  0  0  0
   -3.2640   22.6720  -32.0460 O   0  0  0  0  0  0  0  0  0  0  0  0
   -3.4270   22.7180  -29.6690 C   0  0  0  0  0  0  0  0  0  0  0  0
   -4.1800   23.0790  -28.7230 O   0  0  0  0  0  0  0  0  0  0  0  0
   -2.0400   22.3990  -29.3850 N   0  0  0  0  0  0  0  0  0  0  0  0
   -1.0720   23.5020  -29.2350 C   0  0  0  0  0  0  0  0  0  0  0  0
   -1.7050   24.7150  -28.5390 C   0  0  0  0  0  0  0  0  0  0  0  0
   -2.6920   25.2970  -29.3550 O   0  0  0  0  0  0  0  0  0  0  0  0
   -2.2450   24.3450  -27.2960 O   0  0  0  0  0  0  0  0  0  0  0  0
   -1.5780   21.0190  -29.1460 C   0  0  0  0  0  0  0  0  0  0  0  0
   -0.5730   20.5820  -30.2230 C   0  0  0  0  0  0  0  0  0  0  0  0
   -0.7330   21.2740  -31.5670 C   0  0  0  0  0  0  0  0  0  0  0  0
   -1.1520   19.8210  -31.4060 C   0  0  0  0  0  0  0  0  0  0  0  0
   -6.2060   21.7390  -31.7220 C   0  0  0  0  0  0  0  0  0  0  0  0
   -5.8090   20.4730  -32.1650 C   0  0  0  0  0  0  0  0  0  0  0  0
   -7.2294   17.0240  -31.6367 H   0  0  0  0  0  0  0  0  0  0  0  0
   -8.2199   17.1508  -33.1298 H   0  0  0  0  0  0  0  0  0  0  0  0
   -6.7171   16.1668  -33.1298 H   0  0  0  0  0  0  0  0  0  0  0  0
   -4.3614   17.9180  -33.4369 H   0  0  0  0  0  0  0  0  0  0  0  0
   -5.4371   17.1832  -34.6737 H   0  0  0  0  0  0  0  0  0  0  0  0
   -5.1483   18.9562  -34.6737 H   0  0  0  0  0  0  0  0  0  0  0  0
   -8.9210   19.3524  -33.1221 H   0  0  0  0  0  0  0  0  0  0  0  0
   -9.5558   21.6491  -32.3349 H   0  0  0  0  0  0  0  0  0  0  0  0
   -8.4827   24.0605  -31.2417 H   0  0  0  0  0  0  0  0  0  0  0  0
   -5.9220   24.3230  -28.2860 H   0  0  0  0  0  0  0  0  0  0  0  0
   -5.4150   26.0330  -28.4790 H   0  0  0  0  0  0  0  0  0  0  0  0
   -0.2195   23.1504  -28.6353 H   0  0  0  0  0  0  0  0  0  0  0  0
   -0.7437   23.8120  -30.2381 H   0  0  0  0  0  0  0  0  0  0  0  0
   -0.9174   25.4630  -28.3652 H   0  0  0  0  0  0  0  0  0  0  0  0
   -3.5640   25.1740  -28.8980 H   0  0  0  0  0  0  0  0  0  0  0  0
   -2.5740   23.4150  -27.4000 H   0  0  0  0  0  0  0  0  0  0  0  0
   -1.0939   20.9672  -28.1596 H   0  0  0  0  0  0  0  0  0  0  0  0
   -2.4475   20.3462  -29.1835 H   0  0  0  0  0  0  0  0  0  0  0  0
    0.2574   20.4076  -29.5230 H   0  0  0  0  0  0  0  0  0  0  0  0
   -1.4964   22.0554  -31.6958 H   0  0  0  0  0  0  0  0  0  0  0  0
   -0.0607   21.8188  -32.2461 H   0  0  0  0  0  0  0  0  0  0  0  0
   -2.2184   19.5514  -31.4180 H   0  0  0  0  0  0  0  0  0  0  0  0
   -0.9084   18.8795  -31.9200 H   0  0  0  0  0  0  0  0  0  0  0  0
   -4.7527   20.1702  -32.1150 H   0  0  0  0  0  0  0  0  0  0  0  0
  1  2  1  0
  2  3  1  0
  2  4  1  0
  4  5  2  0
  5  6  1  0
  6  7  2  0
  7  8  1  0
  8  9  2  0
  9 10  1  0
 10 11  1  0
 10 12  2  0
  9 13  1  0
 13 14  1  0
 14 15  2  0
 14 16  1  0
 16 17  2  0
 16 18  1  0
 18 19  1  0
 19 20  1  0
 20 21  1  0
 20 22  1  0
 18 23  1  0
 23 24  1  0
 24 25  1  0
 25 26  1  0
 13 27  1  0
 27 28  2  0
 28  4  1  0
 27  7  1  0
 26 24  1  0
  1 29  1  0
  1 30  1  0
  1 31  1  0
  3 32  1  0
  3 33  1  0
  3 34  1  0
  5 35  1  0
  6 36  1  0
  8 37  1  0
 11 38  1  0
 11 39  1  0
 19 40  1  0
 19 41  1  0
 20 42  1  0
 21 43  1  0
 22 44  1  0
 23 45  1  0
 23 46  1  0
 24 47  1  0
 25 48  1  0
 25 49  1  0
 26 50  1  0
 26 51  1  0
 28 52  1  0
M  END
>  <UniqueID>  (1) 
1

>  <SMILES>  (1) 
CN(C)c1ccc2cc(C(N)=O)n(C(=O)C(=O)N(CC(O)O)CC3CC3)c2c1

>  <Energy>  (1) 
356.45027913197566

>  <Genealogy>  (1) 
CN(C)c1ccc2cc(C(N)=O)n(C(=O)C(=O)N(CC(O)O)CC3CC3)c2c1 (3D coordinates assigned)
CN(C)c1ccc2cc(C(N)=O)n(C(=O)C(=O)N(CC(O)O)CC3CC3)c2c1 (nonaromatic ring conformer: 356.45027913197566 kcal/mol)

>  <smiles>  (1) 
CN(C)c1ccc2cc(C(N)=O)n(C(=O)C(=O)N(CC(O)O)CC3CC3)c2c1

>  <score_type>  (1) 
oracle

>  <origin>  (1) 
adg

>  <m_score__min__energy>  (1) 
-10.27

>  <m_primary>  (1) 
energy

$$$$
1:0
     RDKit          3D

 33 34  0  0  0  0  0  0  0  0999 V2000
   -5.6760   19.0660  -33.9730 C   0  0  0  0  0  0  0  0  0  0  0  0
   -5.7520   20.0940  -32.9280 N   0  0  0  0  0  0  0  0  0  0  0  0
   -7.0700   20.5930  -32.4990 C   0  0  0  0  0  0  0  0  0  0  0  0
   -8.0480   19.4400  -32.2680 C   0  0  0  0  0  0  0  0  0  0  0  0
   -9.1880   19.6160  -33.0630 O   0  0  0  0  0  0  0  0  0  0  0  0
   -4.5340   20.5850  -32.3210 C   0  0  0  0  0  0  0  0  0  0  0  0
   -3.3400   19.8180  -32.3930 C   0  0  0  0  0  0  0  0  0  0  0  0
   -2.1480   20.2830  -31.8130 C   0  0  0  0  0  0  0  0  0  0  0  0
   -2.1740   21.5100  -31.1620 C   0  0  0  0  0  0  0  0  0  0  0  0
   -1.1610   22.2030  -30.5390 C   0  0  0  0  0  0  0  0  0  0  0  0
   -1.7480   23.3770  -30.0750 C   0  0  0  0  0  0  0  0  0  0  0  0
   -1.0280   24.3800  -29.2620 C   0  0  0  0  0  0  0  0  0  0  0  0
   -1.6440   25.6350  -28.9770 N   0  0  0  0  0  0  0  0  0  0  0  0
    0.1390   24.1590  -28.8480 O   0  0  0  0  0  0  0  0  0  0  0  0
   -3.0710   23.4150  -30.4050 N   0  0  0  0  0  0  0  0  0  0  0  0
   -4.0060   24.4800  -30.1690 C   0  0  0  0  0  0  0  0  0  0  0  0
   -4.9390   24.3350  -29.3360 O   0  0  0  0  0  0  0  0  0  0  0  0
   -3.9060   25.6700  -30.8780 O   0  0  0  0  0  0  0  0  0  0  0  0
   -3.3160   22.2620  -31.0680 C   0  0  0  0  0  0  0  0  0  0  0  0
   -4.5120   21.8330  -31.6530 C   0  0  0  0  0  0  0  0  0  0  0  0
   -5.6026   18.0729  -33.5057 H   0  0  0  0  0  0  0  0  0  0  0  0
   -6.5799   19.1111  -34.5982 H   0  0  0  0  0  0  0  0  0  0  0  0
   -4.7885   19.2436  -34.5982 H   0  0  0  0  0  0  0  0  0  0  0  0
   -6.9527   21.1575  -31.5622 H   0  0  0  0  0  0  0  0  0  0  0  0
   -7.4736   21.2392  -33.2924 H   0  0  0  0  0  0  0  0  0  0  0  0
   -7.5612   18.4900  -32.5334 H   0  0  0  0  0  0  0  0  0  0  0  0
   -8.3440   19.4226  -31.2087 H   0  0  0  0  0  0  0  0  0  0  0  0
   -8.8600   19.7220  -33.9940 H   0  0  0  0  0  0  0  0  0  0  0  0
   -3.3492   18.8470  -32.9099 H   0  0  0  0  0  0  0  0  0  0  0  0
   -1.2215   19.6930  -31.8725 H   0  0  0  0  0  0  0  0  0  0  0  0
   -0.1107   21.8947  -30.4307 H   0  0  0  0  0  0  0  0  0  0  0  0
   -2.6690   25.7740  -29.1150 H   0  0  0  0  0  0  0  0  0  0  0  0
   -5.4183   22.4536  -31.5951 H   0  0  0  0  0  0  0  0  0  0  0  0
  1  2  1  0
  2  3  1  0
  3  4  1  0
  4  5  1  0
  2  6  1  0
  6  7  2  0
  7  8  1  0
  8  9  2  0
  9 10  1  0
 10 11  2  0
 11 12  1  0
 12 13  1  0
 12 14  2  0
 11 15  1  0
 15 16  1  0
 16 17  2  0
 16 18  1  0
 15 19  1  0
 19 20  2  0
 20  6  1  0
 19  9  1  0
  1 21  1  0
  1 22  1  0
  1 23  1  0
  3 24  1  0
  3 25  1  0
  4 26  1  0
  4 27  1  0
  5 28  1  0
  7 29  1  0
  8 30  1  0
 10 31  1  0
 13 32  1  0
 20 33  1  0
M  CHG  2  13  -1  18  -1
M  END
>  <UniqueID>  (2) 
2

>  <SMILES>  (2) 
CN(CCO)c1ccc2cc(C([NH-])=O)n(C(=O)[O-])c2c1

>  <Energy>  (2) 
72.20219391427898

>  <Genealogy>  (2) 
CN(CCO)c1ccc2cc(C([NH-])=O)n(C(=O)[O-])c2c1 (protonated)
CN(CCO)c1ccc2cc(C([NH-])=O)n(C(=O)[O-])c2c1 (3D coordinates assigned)
CN(CCO)c1ccc2cc(C([NH-])=O)n(C(=O)[O-])c2c1 (optimized conformer: 72.20219391427898 kcal/mol)

>  <smiles>  (2) 
CN(CCO)c1ccc2cc(C(N)=O)n(C(=O)O)c2c1

>  <score_type>  (2) 
oracle

>  <origin>  (2) 
adg

>  <m_score__min__energy>  (2) 
-10.58

>  <m_primary>  (2) 
energy

$$$$
2:0
     RDKit          3D

 43 45  0  0  0  0  0  0  0  0999 V2000
    0.1650   22.5300  -28.1340 C   0  0  0  0  0  0  0  0  0  0  0  0
   -0.5000   23.8510  -28.3360 C   0  0  0  0  0  0  0  0  0  0  0  0
   -0.0030   25.0040  -27.9590 O   0  0  0  0  0  0  0  0  0  0  0  0
   -0.8730   25.9120  -28.3400 C   0  0  0  0  0  0  0  0  0  0  0  0
   -0.7270   27.1460  -28.1410 O   0  0  0  0  0  0  0  0  0  0  0  0
   -1.9110   25.3920  -28.9530 O   0  0  0  0  0  0  0  0  0  0  0  0
   -1.7060   24.0960  -28.9710 C   0  0  0  0  0  0  0  0  0  0  0  0
   -2.6350   23.0940  -29.5820 C   0  0  0  0  0  0  0  0  0  0  0  0
   -2.9240   23.4410  -30.9340 O   0  0  0  0  0  0  0  0  0  0  0  0
   -3.7150   22.6520  -31.7760 C   0  0  0  0  0  0  0  0  0  0  0  0
   -3.1780   21.9410  -32.6700 O   0  0  0  0  0  0  0  0  0  0  0  0
   -5.1410   22.6410  -31.6130 N   0  0  0  0  0  0  0  0  0  0  0  0
   -5.9050   23.5530  -30.9500 C   0  0  0  0  0  0  0  0  0  0  0  0
   -5.4290   24.8320  -30.3860 C   0  0  0  0  0  0  0  0  0  0  0  0
   -5.8580   25.2790  -29.0990 N   0  0  0  0  0  0  0  0  0  0  0  0
   -4.5880   25.5150  -31.0280 O   0  0  0  0  0  0  0  0  0  0  0  0
   -7.2360   23.1470  -30.9180 C   0  0  0  0  0  0  0  0  0  0  0  0
   -7.2680   21.9550  -31.6050 C   0  0  0  0  0  0  0  0  0  0  0  0
   -8.3360   21.1080  -31.8730 C   0  0  0  0  0  0  0  0  0  0  0  0
   -8.0760   19.9220  -32.5800 C   0  0  0  0  0  0  0  0  0  0  0  0
   -6.7570   19.5900  -33.0000 C   0  0  0  0  0  0  0  0  0  0  0  0
   -6.4990   18.3560  -33.7210 N   0  0  0  0  0  0  0  0  0  0  0  0
   -6.9990   17.0740  -33.2100 C   0  0  0  0  0  0  0  0  0  0  0  0
   -5.7320   18.3710  -34.9730 C   0  0  0  0  0  0  0  0  0  0  0  0
   -5.6990   20.4860  -32.7000 C   0  0  0  0  0  0  0  0  0  0  0  0
   -5.9920   21.6710  -32.0140 C   0  0  0  0  0  0  0  0  0  0  0  0
    0.2652   22.3309  -27.0568 H   0  0  0  0  0  0  0  0  0  0  0  0
   -0.4423   21.7390  -28.5982 H   0  0  0  0  0  0  0  0  0  0  0  0
    1.1621   22.5467  -28.5982 H   0  0  0  0  0  0  0  0  0  0  0  0
   -2.1637   22.1004  -29.5561 H   0  0  0  0  0  0  0  0  0  0  0  0
   -3.5738   23.0833  -29.0089 H   0  0  0  0  0  0  0  0  0  0  0  0
   -5.5460   26.2070  -28.7360 H   0  0  0  0  0  0  0  0  0  0  0  0
   -6.4110   24.6590  -28.4680 H   0  0  0  0  0  0  0  0  0  0  0  0
   -8.0815   23.6676  -30.4447 H   0  0  0  0  0  0  0  0  0  0  0  0
   -9.3546   21.3583  -31.5417 H   0  0  0  0  0  0  0  0  0  0  0  0
   -8.9057   19.2384  -32.8129 H   0  0  0  0  0  0  0  0  0  0  0  0
   -6.9927   17.0901  -32.1101 H   0  0  0  0  0  0  0  0  0  0  0  0
   -8.0262   16.9119  -33.5685 H   0  0  0  0  0  0  0  0  0  0  0  0
   -6.3527   16.2592  -33.5685 H   0  0  0  0  0  0  0  0  0  0  0  0
   -4.6563   18.3920  -34.7438 H   0  0  0  0  0  0  0  0  0  0  0  0
   -5.9650   17.4681  -35.5566 H   0  0  0  0  0  0  0  0  0  0  0  0
   -6.0001   19.2641  -35.5566 H   0  0  0  0  0  0  0  0  0  0  0  0
   -4.6667   20.2540  -33.0009 H   0  0  0  0  0  0  0  0  0  0  0  0
  1  2  1  0
  2  3  1  0
  3  4  1  0
  4  5  2  0
  4  6  1  0
  6  7  1  0
  7  8  1  0
  8  9  1  0
  9 10  1  0
 10 11  2  0
 10 12  1  0
 12 13  1  0
 13 14  1  0
 14 15  1  0
 14 16  2  0
 13 17  2  0
 17 18  1  0
 18 19  2  0
 19 20  1  0
 20 21  2  0
 21 22  1  0
 22 23  1  0
 22 24  1  0
 21 25  1  0
 25 26  2  0
  7  2  2  0
 26 12  1  0
 26 18  1  0
  1 27  1  0
  1 28  1  0
  1 29  1  0
  8 30  1  0
  8 31  1  0
 15 32  1  0
 15 33  1  0
 17 34  1  0
 19 35  1  0
 20 36  1  0
 23 37  1  0
 23 38  1  0
 23 39  1  0
 24 40  1  0
 24 41  1  0
 24 42  1  0
 25 43  1  0
M  END
>  <UniqueID>  (3) 
3

>  <SMILES>  (3) 
Cc1oc(=O)oc1COC(=O)n1c(C(N)=O)cc2ccc(N(C)C)cc21

>  <Energy>  (3) 
114.2644020664523

>  <Genealogy>  (3) 
Cc1oc(=O)oc1COC(=O)n1c(C(N)=O)cc2ccc(N(C)C)cc21 (3D coordinates assigned)
Cc1oc(=O)oc1COC(=O)n1c(C(N)=O)cc2ccc(N(C)C)cc21 (optimized conformer: 114.2644020664523 kcal/mol)

>  <smiles>  (3) 
Cc1oc(=O)oc1COC(=O)n1c(C(N)=O)cc2ccc(N(C)C)cc21

>  <score_type>  (3) 
oracle

>  <origin>  (3) 
adg

>  <m_score__min__energy>  (3) 
-9.6699999999999999

>  <m_primary>  (3) 
energy

$$$$
3:0
     RDKit          3D

 43 44  0  0  0  0  0  0  0  0999 V2000
   -0.3470   22.2470  -28.7520 C   0  0  0  0  0  0  0  0  0  0  0  0
    0.3880   23.3210  -27.9590 C   0  0  0  0  0  0  0  0  0  0  0  0
   -0.2460   24.5890  -28.1190 O   0  0  0  0  0  0  0  0  0  0  0  0
   -1.6190   24.7380  -28.3440 C   0  0  0  0  0  0  0  0  0  0  0  0
   -2.0440   25.2960  -29.3920 O   0  0  0  0  0  0  0  0  0  0  0  0
   -2.5940   24.2550  -27.3120 C   0  0  0  0  0  0  0  0  0  0  0  0
   -3.9860   23.9990  -27.9090 C   0  0  0  0  0  0  0  0  0  0  0  0
   -4.0470   22.7310  -28.7730 C   0  0  0  0  0  0  0  0  0  0  0  0
   -3.3480   22.9020  -30.0050 O   0  0  0  0  0  0  0  0  0  0  0  0
   -3.9380   22.7350  -31.2620 C   0  0  0  0  0  0  0  0  0  0  0  0
   -3.2180   22.4670  -32.2600 O   0  0  0  0  0  0  0  0  0  0  0  0
   -5.3600   22.9130  -31.4170 N   0  0  0  0  0  0  0  0  0  0  0  0
   -6.1170   23.9540  -30.9630 C   0  0  0  0  0  0  0  0  0  0  0  0
   -5.6050   25.1830  -30.3370 C   0  0  0  0  0  0  0  0  0  0  0  0
   -4.2280   25.5400  -30.4470 N   0  0  0  0  0  0  0  0  0  0  0  0
   -6.4070   25.9640  -29.7580 O   0  0  0  0  0  0  0  0  0  0  0  0
   -7.4730   23.6830  -31.1040 C   0  0  0  0  0  0  0  0  0  0  0  0
   -7.5350   22.4400  -31.6870 C   0  0  0  0  0  0  0  0  0  0  0  0
   -8.6430   21.6810  -32.0500 C   0  0  0  0  0  0  0  0  0  0  0  0
   -8.4170   20.4220  -32.6290 C   0  0  0  0  0  0  0  0  0  0  0  0
   -7.0990   19.9530  -32.8370 C   0  0  0  0  0  0  0  0  0  0  0  0
   -6.8820   18.6730  -33.4380 N   0  0  0  0  0  0  0  0  0  0  0  0
   -5.9980   20.7480  -32.4570 C   0  0  0  0  0  0  0  0  0  0  0  0
   -6.2490   21.9960  -31.8680 C   0  0  0  0  0  0  0  0  0  0  0  0
   -0.8286   21.5433  -28.0572 H   0  0  0  0  0  0  0  0  0  0  0  0
   -1.1126   22.7185  -29.3856 H   0  0  0  0  0  0  0  0  0  0  0  0
    0.3697   21.7040  -29.3856 H   0  0  0  0  0  0  0  0  0  0  0  0
    0.3857   23.0481  -26.8934 H   0  0  0  0  0  0  0  0  0  0  0  0
    1.4201   23.3922  -28.3327 H   0  0  0  0  0  0  0  0  0  0  0  0
   -2.2161   23.3176  -26.8780 H   0  0  0  0  0  0  0  0  0  0  0  0
   -2.6923   25.0378  -26.5455 H   0  0  0  0  0  0  0  0  0  0  0  0
   -4.7069   23.8959  -27.0846 H   0  0  0  0  0  0  0  0  0  0  0  0
   -4.2252   24.8520  -28.5610 H   0  0  0  0  0  0  0  0  0  0  0  0
   -3.5924   21.8978  -28.2171 H   0  0  0  0  0  0  0  0  0  0  0  0
   -5.1021   22.5205  -29.0019 H   0  0  0  0  0  0  0  0  0  0  0  0
   -3.8710   26.4080  -29.9900 H   0  0  0  0  0  0  0  0  0  0  0  0
   -3.5740   24.9690  -31.0270 H   0  0  0  0  0  0  0  0  0  0  0  0
   -8.3162   24.3260  -30.8115 H   0  0  0  0  0  0  0  0  0  0  0  0
   -9.6645   22.0556  -31.8884 H   0  0  0  0  0  0  0  0  0  0  0  0
   -9.2719   19.7954  -32.9232 H   0  0  0  0  0  0  0  0  0  0  0  0
   -6.6230   17.8460  -32.8530 H   0  0  0  0  0  0  0  0  0  0  0  0
   -6.9720   18.5440  -34.4700 H   0  0  0  0  0  0  0  0  0  0  0  0
   -4.9677   20.3980  -32.6185 H   0  0  0  0  0  0  0  0  0  0  0  0
  1  2  1  0
  2  3  1  0
  3  4  1  0
  4  5  2  0
  4  6  1  0
  6  7  1  0
  7  8  1  0
  8  9  1  0
  9 10  1  0
 10 11  2  0
 10 12  1  0
 12 13  1  0
 13 14  1  0
 14 15  1  0
 14 16  2  0
 13 17  2  0
 17 18  1  0
 18 19  2  0
 19 20  1  0
 20 21  2  0
 21 22  1  0
 21 23  1  0
 23 24  2  0
 24 12  1  0
 24 18  1  0
  1 25  1  0
  1 26  1  0
  1 27  1  0
  2 28  1  0
  2 29  1  0
  6 30  1  0
  6 31  1  0
  7 32  1  0
  7 33  1  0
  8 34  1  0
  8 35  1  0
 15 36  1  0
 15 37  1  0
 17 38  1  0
 19 39  1  0
 20 40  1  0
 22 41  1  0
 22 42  1  0
 23 43  1  0
M  END
>  <UniqueID>  (4) 
4

>  <SMILES>  (4) 
CCOC(=O)CCCOC(=O)n1c(C(N)=O)cc2ccc(N)cc21

>  <Energy>  (4) 
70.73677055990329

>  <Genealogy>  (4) 
CCOC(=O)CCCOC(=O)n1c(C(N)=O)cc2ccc(N)cc21 (3D coordinates assigned)
CCOC(=O)CCCOC(=O)n1c(C(N)=O)cc2ccc(N)cc21 (optimized conformer: 70.73677055990329 kcal/mol)

>  <smiles>  (4) 
CCOC(=O)CCCOC(=O)n1c(C(N)=O)cc2ccc(N)cc21

>  <score_type>  (4) 
oracle

>  <origin>  (4) 
adg

>  <m_score__min__energy>  (4) 
-7.4000000000000004

>  <m_primary>  (4) 
energy

$$$$
4:0
     RDKit          3D

 43 44  0  0  0  0  0  0  0  0999 V2000
   -3.5090   16.3480  -33.1150 C   0  0  0  0  0  0  0  0  0  0  0  0
   -4.1850   16.9840  -34.2520 N   0  0  0  0  0  0  0  0  0  0  0  0
   -3.7410   16.6970  -35.6210 C   0  0  0  0  0  0  0  0  0  0  0  0
   -5.2810   17.9050  -34.0520 C   0  0  0  0  0  0  0  0  0  0  0  0
   -5.8010   18.4810  -35.0460 O   0  0  0  0  0  0  0  0  0  0  0  0
   -5.8770   18.1630  -32.6910 C   0  0  0  0  0  0  0  0  0  0  0  0
   -7.2600   18.6420  -32.8180 N   0  0  0  0  0  0  0  0  0  0  0  0
   -7.3530   20.0060  -32.3590 C   0  0  0  0  0  0  0  0  0  0  0  0
   -8.6090   20.6660  -32.3310 C   0  0  0  0  0  0  0  0  0  0  0  0
   -8.7050   22.0080  -31.9270 C   0  0  0  0  0  0  0  0  0  0  0  0
   -7.5360   22.6640  -31.5580 C   0  0  0  0  0  0  0  0  0  0  0  0
   -7.3410   23.9640  -31.1540 C   0  0  0  0  0  0  0  0  0  0  0  0
   -5.9710   24.0820  -30.9340 C   0  0  0  0  0  0  0  0  0  0  0  0
   -5.3350   25.3050  -30.3990 C   0  0  0  0  0  0  0  0  0  0  0  0
   -4.0280   25.6700  -30.8360 N   0  0  0  0  0  0  0  0  0  0  0  0
   -5.9470   26.0530  -29.5940 O   0  0  0  0  0  0  0  0  0  0  0  0
   -5.3400   22.9020  -31.1970 N   0  0  0  0  0  0  0  0  0  0  0  0
   -3.9280   22.6370  -31.1740 C   0  0  0  0  0  0  0  0  0  0  0  0
   -3.3740   22.0870  -32.1640 O   0  0  0  0  0  0  0  0  0  0  0  0
   -3.1690   23.0160  -30.0620 O   0  0  0  0  0  0  0  0  0  0  0  0
   -1.7480   22.9540  -30.0440 C   0  0  0  0  0  0  0  0  0  0  0  0
   -1.2080   24.1680  -29.3650 C   0  0  0  0  0  0  0  0  0  0  0  0
   -0.0350   24.1700  -28.9060 O   0  0  0  0  0  0  0  0  0  0  0  0
   -1.9870   25.3150  -29.2670 O   0  0  0  0  0  0  0  0  0  0  0  0
   -6.3140   22.0420  -31.5740 C   0  0  0  0  0  0  0  0  0  0  0  0
   -6.1850   20.7110  -31.9880 C   0  0  0  0  0  0  0  0  0  0  0  0
   -3.9253   16.7396  -32.1751 H   0  0  0  0  0  0  0  0  0  0  0  0
   -3.6630   15.2597  -33.1589 H   0  0  0  0  0  0  0  0  0  0  0  0
   -2.4321   16.5680  -33.1589 H   0  0  0  0  0  0  0  0  0  0  0  0
   -2.8176   16.1001  -35.5894 H   0  0  0  0  0  0  0  0  0  0  0  0
   -4.5239   16.1336  -36.1499 H   0  0  0  0  0  0  0  0  0  0  0  0
   -3.5487   17.6422  -36.1499 H   0  0  0  0  0  0  0  0  0  0  0  0
   -5.8691   17.2294  -32.1094 H   0  0  0  0  0  0  0  0  0  0  0  0
   -5.2792   18.9325  -32.1806 H   0  0  0  0  0  0  0  0  0  0  0  0
   -7.5630   18.5850  -33.8190 H   0  0  0  0  0  0  0  0  0  0  0  0
   -7.9030   18.0400  -32.2540 H   0  0  0  0  0  0  0  0  0  0  0  0
   -9.5169   20.1210  -32.6288 H   0  0  0  0  0  0  0  0  0  0  0  0
   -9.6760   22.5244  -31.9033 H   0  0  0  0  0  0  0  0  0  0  0  0
   -8.1054   24.7453  -31.0307 H   0  0  0  0  0  0  0  0  0  0  0  0
   -3.1840   25.1620  -30.4880 H   0  0  0  0  0  0  0  0  0  0  0  0
   -1.4267   22.0546  -29.4982 H   0  0  0  0  0  0  0  0  0  0  0  0
   -1.3688   22.9105  -31.0757 H   0  0  0  0  0  0  0  0  0  0  0  0
   -5.1987   20.2253  -32.0238 H   0  0  0  0  0  0  0  0  0  0  0  0
  1  2  1  0
  2  3  1  0
  2  4  1  0
  4  5  2  0
  4  6  1  0
  6  7  1  0
  7  8  1  0
  8  9  2  0
  9 10  1  0
 10 11  2  0
 11 12  1  0
 12 13  2  0
 13 14  1  0
 14 15  1  0
 14 16  2  0
 13 17  1  0
 17 18  1  0
 18 19  2  0
 18 20  1  0
 20 21  1  0
 21 22  1  0
 22 23  2  0
 22 24  1  0
 17 25  1  0
 25 26  2  0
 26  8  1  0
 25 11  1  0
  1 27  1  0
  1 28  1  0
  1 29  1  0
  3 30  1  0
  3 31  1  0
  3 32  1  0
  6 33  1  0
  6 34  1  0
  7 35  1  0
  7 36  1  0
  9 37  1  0
 10 38  1  0
 12 39  1  0
 15 40  1  0
 21 41  1  0
 21 42  1  0
 26 43  1  0
M  CHG  3   7   1  15  -1  24  -1
M  END
>  <UniqueID>  (5) 
5

>  <SMILES>  (5) 
CN(C)C(=O)C[NH2+]c1ccc2cc(C([NH-])=O)n(C(=O)OCC(=O)[O-])c2c1

>  <Energy>  (5) 
76.01971587822514

>  <Genealogy>  (5) 
CN(C)C(=O)C[NH2+]c1ccc2cc(C([NH-])=O)n(C(=O)OCC(=O)[O-])c2c1 (protonated)
CN(C)C(=O)C[NH2+]c1ccc2cc(C([NH-])=O)n(C(=O)OCC(=O)[O-])c2c1 (3D coordinates assigned)
CN(C)C(=O)C[NH2+]c1ccc2cc(C([NH-])=O)n(C(=O)OCC(=O)[O-])c2c1 (optimized conformer: 76.01971587822514 kcal/mol)

>  <smiles>  (5) 
CN(C)C(=O)CNc1ccc2cc(C(N)=O)n(C(=O)OCC(=O)O)c2c1

>  <score_type>  (5) 
oracle

>  <origin>  (5) 
adg

>  <m_score__min__energy>  (5) 
-11.83

>  <m_primary>  (5) 
energy

$$$$
5:0
     RDKit          3D

 44 47  0  0  0  0  0  0  0  0999 V2000
   -7.8980   18.4660  -31.9770 C   0  0  0  0  0  0  0  0  0  0  0  0
   -7.8060   19.9540  -31.7950 C   0  0  0  0  0  0  0  0  0  0  0  0
   -8.9130   20.7810  -32.1230 C   0  0  0  0  0  0  0  0  0  0  0  0
   -8.8480   22.1750  -31.9430 C   0  0  0  0  0  0  0  0  0  0  0  0
   -7.6750   22.7080  -31.4200 C   0  0  0  0  0  0  0  0  0  0  0  0
   -7.3330   24.0180  -31.1690 C   0  0  0  0  0  0  0  0  0  0  0  0
   -6.0410   23.9670  -30.6500 C   0  0  0  0  0  0  0  0  0  0  0  0
   -5.2570   25.1660  -30.3100 C   0  0  0  0  0  0  0  0  0  0  0  0
   -3.8750   25.2360  -30.6700 N   0  0  0  0  0  0  0  0  0  0  0  0
   -5.8030   26.1540  -29.7490 O   0  0  0  0  0  0  0  0  0  0  0  0
   -5.5930   22.6810  -30.5930 N   0  0  0  0  0  0  0  0  0  0  0  0
   -4.2920   22.2170  -30.1850 C   0  0  0  0  0  0  0  0  0  0  0  0
   -4.0280   22.1140  -28.9510 O   0  0  0  0  0  0  0  0  0  0  0  0
   -3.2530   21.8590  -31.1800 C   0  0  0  0  0  0  0  0  0  0  0  0
   -3.6140   21.5450  -32.5020 C   0  0  0  0  0  0  0  0  0  0  0  0
   -2.6380   21.2100  -33.4440 C   0  0  0  0  0  0  0  0  0  0  0  0
   -1.2790   21.1750  -33.0900 C   0  0  0  0  0  0  0  0  0  0  0  0
   -0.2550   20.7950  -34.0990 C   0  0  0  0  0  0  0  0  0  0  0  0
   -0.2050   21.2820  -35.2920 N   0  0  0  0  0  0  0  0  0  0  0  0
    0.9560   20.7750  -36.0100 C   0  0  0  0  0  0  0  0  0  0  0  0
    1.6730   19.8660  -34.9980 C   0  0  0  0  0  0  0  0  0  0  0  0
    0.8300   19.9240  -33.8160 N   0  0  0  0  0  0  0  0  0  0  0  0
   -0.9170   21.4910  -31.7600 C   0  0  0  0  0  0  0  0  0  0  0  0
   -1.8960   21.8210  -30.8170 C   0  0  0  0  0  0  0  0  0  0  0  0
   -6.6030   21.9200  -31.0760 C   0  0  0  0  0  0  0  0  0  0  0  0
   -6.6450   20.5280  -31.2360 C   0  0  0  0  0  0  0  0  0  0  0  0
   -7.9282   17.9773  -30.9920 H   0  0  0  0  0  0  0  0  0  0  0  0
   -8.8130   18.2209  -32.5362 H   0  0  0  0  0  0  0  0  0  0  0  0
   -7.0201   18.1100  -32.5362 H   0  0  0  0  0  0  0  0  0  0  0  0
   -9.8317   20.3266  -32.5223 H   0  0  0  0  0  0  0  0  0  0  0  0
   -9.6974   22.8220  -32.2074 H   0  0  0  0  0  0  0  0  0  0  0  0
   -7.9483   24.9134  -31.3414 H   0  0  0  0  0  0  0  0  0  0  0  0
   -3.5090   26.0480  -31.2190 H   0  0  0  0  0  0  0  0  0  0  0  0
   -4.6735   21.5632  -32.7971 H   0  0  0  0  0  0  0  0  0  0  0  0
   -2.9373   20.9708  -34.4751 H   0  0  0  0  0  0  0  0  0  0  0  0
   -0.8790   21.9710  -35.6950 H   0  0  0  0  0  0  0  0  0  0  0  0
    0.6447   20.2007  -36.8950 H   0  0  0  0  0  0  0  0  0  0  0  0
    1.6052   21.5839  -36.3765 H   0  0  0  0  0  0  0  0  0  0  0  0
    1.7431   18.8362  -35.3783 H   0  0  0  0  0  0  0  0  0  0  0  0
    2.7060   20.1867  -34.7979 H   0  0  0  0  0  0  0  0  0  0  0  0
    0.9550   19.3360  -32.9630 H   0  0  0  0  0  0  0  0  0  0  0  0
    0.1426   21.4772  -31.4648 H   0  0  0  0  0  0  0  0  0  0  0  0
   -1.6012   22.0526  -29.7829 H   0  0  0  0  0  0  0  0  0  0  0  0
   -5.7945   19.8994  -30.9334 H   0  0  0  0  0  0  0  0  0  0  0  0
  1  2  1  0
  2  3  2  0
  3  4  1  0
  4  5  2  0
  5  6  1  0
  6  7  2  0
  7  8  1  0
  8  9  1  0
  8 10  2  0
  7 11  1  0
 11 12  1  0
 12 13  2  0
 12 14  1  0
 14 15  2  0
 15 16  1  0
 16 17  2  0
 17 18  1  0
 18 19  2  0
 19 20  1  0
 20 21  1  0
 21 22  1  0
 17 23  1  0
 23 24  2  0
 11 25  1  0
 25 26  2  0
 26  2  1  0
 25  5  1  0
 24 14  1  0
 22 18  1  0
  1 27  1  0
  1 28  1  0
  1 29  1  0
  3 30  1  0
  4 31  1  0
  6 32  1  0
  9 33  1  0
 15 34  1  0
 16 35  1  0
 19 36  1  0
 20 37  1  0
 20 38  1  0
 21 39  1  0
 21 40  1  0
 22 41  1  0
 23 42  1  0
 24 43  1  0
 26 44  1  0
M  CHG  2   9  -1  19   1
M  END
>  <UniqueID>  (6) 
6

>  <SMILES>  (6) 
Cc1ccc2cc(C([NH-])=O)n(C(=O)c3ccc(C4=[NH+]CCN4)cc3)c2c1

>  <Energy>  (6) 
104.2442492312948

>  <Genealogy>  (6) 
Cc1ccc2cc(C([NH-])=O)n(C(=O)c3ccc(C4=[NH+]CCN4)cc3)c2c1 (protonated)
Cc1ccc2cc(C([NH-])=O)n(C(=O)c3ccc(C4=[NH+]CCN4)cc3)c2c1 (3D coordinates assigned)
Cc1ccc2cc(C([NH-])=O)n(C(=O)c3ccc(C4=[NH+]CCN4)cc3)c2c1 (nonaromatic ring conformer: 104.2442492312948 kcal/mol)

>  <smiles>  (6) 
Cc1ccc2cc(C(N)=O)n(C(=O)c3ccc(C4=NCCN4)cc3)c2c1

>  <score_type>  (6) 
oracle

>  <origin>  (6) 
adg

>  <m_score__min__energy>  (6) 
-11.15

>  <m_primary>  (6) 
energy

$$$$
6:0
     RDKit          3D

 45 46  0  0  0  0  0  0  0  0999 V2000
   -4.1760   17.0320  -35.3000 C   0  0  0  0  0  0  0  0  0  0  0  0
   -4.8690   17.1440  -34.0140 N   0  0  0  0  0  0  0  0  0  0  0  0
   -4.5240   16.2370  -32.9130 C   0  0  0  0  0  0  0  0  0  0  0  0
   -5.8870   18.1600  -33.8560 C   0  0  0  0  0  0  0  0  0  0  0  0
   -6.0680   19.0060  -34.7740 O   0  0  0  0  0  0  0  0  0  0  0  0
   -6.7800   18.2240  -32.6450 C   0  0  0  0  0  0  0  0  0  0  0  0
   -7.0360   19.6520  -32.2400 C   0  0  0  0  0  0  0  0  0  0  0  0
   -8.3610   20.1590  -32.2190 C   0  0  0  0  0  0  0  0  0  0  0  0
   -8.6150   21.4880  -31.8400 C   0  0  0  0  0  0  0  0  0  0  0  0
   -7.5280   22.2890  -31.5020 C   0  0  0  0  0  0  0  0  0  0  0  0
   -7.4860   23.5990  -31.0770 C   0  0  0  0  0  0  0  0  0  0  0  0
   -6.1340   23.8770  -30.8670 C   0  0  0  0  0  0  0  0  0  0  0  0
   -5.6000   25.1870  -30.4250 C   0  0  0  0  0  0  0  0  0  0  0  0
   -4.2370   25.5470  -30.6640 N   0  0  0  0  0  0  0  0  0  0  0  0
   -6.3490   26.0020  -29.8220 O   0  0  0  0  0  0  0  0  0  0  0  0
   -5.3780   22.7860  -31.1680 N   0  0  0  0  0  0  0  0  0  0  0  0
   -3.9580   22.6360  -31.0110 C   0  0  0  0  0  0  0  0  0  0  0  0
   -3.2000   22.9440  -31.9720 O   0  0  0  0  0  0  0  0  0  0  0  0
   -3.3950   22.1470  -29.7760 N   0  0  0  0  0  0  0  0  0  0  0  0
   -3.2860   20.7000  -29.5680 C   0  0  0  0  0  0  0  0  0  0  0  0
   -3.0000   23.0780  -28.7080 C   0  0  0  0  0  0  0  0  0  0  0  0
   -1.9820   24.0490  -29.2140 C   0  0  0  0  0  0  0  0  0  0  0  0
   -2.2840   25.2630  -29.3600 O   0  0  0  0  0  0  0  0  0  0  0  0
   -0.7040   23.6120  -29.5440 O   0  0  0  0  0  0  0  0  0  0  0  0
   -6.2430   21.8210  -31.5390 C   0  0  0  0  0  0  0  0  0  0  0  0
   -5.9580   20.4990  -31.8960 C   0  0  0  0  0  0  0  0  0  0  0  0
   -3.1039   16.8587  -35.1249 H   0  0  0  0  0  0  0  0  0  0  0  0
   -4.5952   16.1899  -35.8703 H   0  0  0  0  0  0  0  0  0  0  0  0
   -4.3086   17.9632  -35.8703 H   0  0  0  0  0  0  0  0  0  0  0  0
   -4.7144   16.7376  -31.9522 H   0  0  0  0  0  0  0  0  0  0  0  0
   -5.1390   15.3275  -32.9808 H   0  0  0  0  0  0  0  0  0  0  0  0
   -3.4600   15.9661  -32.9808 H   0  0  0  0  0  0  0  0  0  0  0  0
   -7.7390   17.7386  -32.8788 H   0  0  0  0  0  0  0  0  0  0  0  0
   -6.2803   17.7071  -31.8125 H   0  0  0  0  0  0  0  0  0  0  0  0
   -9.1985   19.5046  -32.5025 H   0  0  0  0  0  0  0  0  0  0  0  0
   -9.6412   21.8832  -31.8113 H   0  0  0  0  0  0  0  0  0  0  0  0
   -8.3370   24.2810  -30.9336 H   0  0  0  0  0  0  0  0  0  0  0  0
   -3.5940   24.9310  -31.2090 H   0  0  0  0  0  0  0  0  0  0  0  0
   -3.8730   26.4650  -30.3280 H   0  0  0  0  0  0  0  0  0  0  0  0
   -3.2698   20.4848  -28.4894 H   0  0  0  0  0  0  0  0  0  0  0  0
   -4.1488   20.1972  -30.0293 H   0  0  0  0  0  0  0  0  0  0  0  0
   -2.3576   20.3322  -30.0293 H   0  0  0  0  0  0  0  0  0  0  0  0
   -3.8865   23.6296  -28.3617 H   0  0  0  0  0  0  0  0  0  0  0  0
   -2.5639   22.5040  -27.8771 H   0  0  0  0  0  0  0  0  0  0  0  0
   -4.9224   20.1283  -31.9087 H   0  0  0  0  0  0  0  0  0  0  0  0
  1  2  1  0
  2  3  1  0
  2  4  1  0
  4  5  2  0
  4  6  1  0
  6  7  1  0
  7  8  2  0
  8  9  1  0
  9 10  2  0
 10 11  1  0
 11 12  2  0
 12 13  1  0
 13 14  1  0
 13 15  2  0
 12 16  1  0
 16 17  1  0
 17 18  2  0
 17 19  1  0
 19 20  1  0
 19 21  1  0
 21 22  1  0
 22 23  2  0
 22 24  1  0
 16 25  1  0
 25 26  2  0
 26  7  1  0
 25 10  1  0
  1 27  1  0
  1 28  1  0
  1 29  1  0
  3 30  1  0
  3 31  1  0
  3 32  1  0
  6 33  1  0
  6 34  1  0
  8 35  1  0
  9 36  1  0
 11 37  1  0
 14 38  1  0
 14 39  1  0
 20 40  1  0
 20 41  1  0
 20 42  1  0
 21 43  1  0
 21 44  1  0
 26 45  1  0
M  CHG  1  24  -1
M  END
>  <UniqueID>  (7) 
7

>  <SMILES>  (7) 
CN(C)C(=O)Cc1ccc2cc(C(N)=O)n(C(=O)N(C)CC(=O)[O-])c2c1

>  <Energy>  (7) 
76.98009791305313

>  <Genealogy>  (7) 
CN(C)C(=O)Cc1ccc2cc(C(N)=O)n(C(=O)N(C)CC(=O)[O-])c2c1 (protonated)
CN(C)C(=O)Cc1ccc2cc(C(N)=O)n(C(=O)N(C)CC(=O)[O-])c2c1 (3D coordinates assigned)
CN(C)C(=O)Cc1ccc2cc(C(N)=O)n(C(=O)N(C)CC(=O)[O-])c2c1 (optimized conformer: 76.98009791305313 kcal/mol)

>  <smiles>  (7) 
CN(C)C(=O)Cc1ccc2cc(C(N)=O)n(C(=O)N(C)CC(=O)O)c2c1

>  <score_type>  (7) 
oracle

>  <origin>  (7) 
adg

>  <m_score__min__energy>  (7) 
-11.48

>  <m_primary>  (7) 
energy

$$$$
7:0
     RDKit          3D

 40 41  0  0  0  0  0  0  0  0999 V2000
   -7.0310   16.9980  -33.0890 C   0  0  0  0  0  0  0  0  0  0  0  0
   -6.4750   18.2200  -33.6850 N   0  0  0  0  0  0  0  0  0  0  0  0
   -5.7390   18.1200  -34.9510 C   0  0  0  0  0  0  0  0  0  0  0  0
   -6.6510   19.5040  -33.0320 C   0  0  0  0  0  0  0  0  0  0  0  0
   -7.9510   20.0640  -32.8700 C   0  0  0  0  0  0  0  0  0  0  0  0
   -8.1310   21.3110  -32.2490 C   0  0  0  0  0  0  0  0  0  0  0  0
   -7.0040   21.9800  -31.7880 C   0  0  0  0  0  0  0  0  0  0  0  0
   -6.8940   23.2110  -31.1810 C   0  0  0  0  0  0  0  0  0  0  0  0
   -5.5330   23.3830  -30.9460 C   0  0  0  0  0  0  0  0  0  0  0  0
   -4.9690   24.5520  -30.2430 C   0  0  0  0  0  0  0  0  0  0  0  0
   -5.3500   24.8620  -28.9010 N   0  0  0  0  0  0  0  0  0  0  0  0
   -4.1820   25.3220  -30.8550 O   0  0  0  0  0  0  0  0  0  0  0  0
   -4.8270   22.3110  -31.4040 N   0  0  0  0  0  0  0  0  0  0  0  0
   -3.4000   22.1560  -31.4400 C   0  0  0  0  0  0  0  0  0  0  0  0
   -2.7830   22.2820  -32.5330 O   0  0  0  0  0  0  0  0  0  0  0  0
   -2.7020   21.8690  -30.2630 O   0  0  0  0  0  0  0  0  0  0  0  0
   -1.6810   22.7100  -29.7270 C   0  0  0  0  0  0  0  0  0  0  0  0
   -2.2670   23.7530  -28.7660 C   0  0  0  0  0  0  0  0  0  0  0  0
   -1.2490   24.8290  -28.3890 C   0  0  0  0  0  0  0  0  0  0  0  0
   -1.6060   26.0460  -28.9420 F   0  0  0  0  0  0  0  0  0  0  0  0
   -5.7450   21.4570  -31.9130 C   0  0  0  0  0  0  0  0  0  0  0  0
   -5.5310   20.2280  -32.5470 C   0  0  0  0  0  0  0  0  0  0  0  0
   -6.9955   17.0760  -31.9923 H   0  0  0  0  0  0  0  0  0  0  0  0
   -8.0744   16.8734  -33.4142 H   0  0  0  0  0  0  0  0  0  0  0  0
   -6.4394   16.1295  -33.4142 H   0  0  0  0  0  0  0  0  0  0  0  0
   -4.6688   17.9746  -34.7424 H   0  0  0  0  0  0  0  0  0  0  0  0
   -6.1192   17.2653  -35.5297 H   0  0  0  0  0  0  0  0  0  0  0  0
   -5.8774   19.0452  -35.5297 H   0  0  0  0  0  0  0  0  0  0  0  0
   -8.8280   19.5108  -33.2372 H   0  0  0  0  0  0  0  0  0  0  0  0
   -9.1348   21.7451  -32.1311 H   0  0  0  0  0  0  0  0  0  0  0  0
   -7.7076   23.9091  -30.9346 H   0  0  0  0  0  0  0  0  0  0  0  0
   -4.9080   25.6670  -28.4050 H   0  0  0  0  0  0  0  0  0  0  0  0
   -6.1280   24.3530  -28.4290 H   0  0  0  0  0  0  0  0  0  0  0  0
   -0.9542   22.0892  -29.1826 H   0  0  0  0  0  0  0  0  0  0  0  0
   -1.1937   23.2390  -30.5593 H   0  0  0  0  0  0  0  0  0  0  0  0
   -3.1291   24.2353  -29.2499 H   0  0  0  0  0  0  0  0  0  0  0  0
   -2.5643   23.2323  -27.8438 H   0  0  0  0  0  0  0  0  0  0  0  0
   -1.2123   24.9254  -27.2938 H   0  0  0  0  0  0  0  0  0  0  0  0
   -0.2616   24.5372  -28.7762 H   0  0  0  0  0  0  0  0  0  0  0  0
   -4.5126   19.8301  -32.6673 H   0  0  0  0  0  0  0  0  0  0  0  0
  1  2  1  0
  2  3  1  0
  2  4  1  0
  4  5  2  0
  5  6  1  0
  6  7  2  0
  7  8  1  0
  8  9  2  0
  9 10  1  0
 10 11  1  0
 10 12  2  0
  9 13  1  0
 13 14  1  0
 14 15  2  0
 14 16  1  0
 16 17  1  0
 17 18  1  0
 18 19  1  0
 19 20  1  0
 13 21  1  0
 21 22  2  0
 22  4  1  0
 21  7  1  0
  1 23  1  0
  1 24  1  0
  1 25  1  0
  3 26  1  0
  3 27  1  0
  3 28  1  0
  5 29  1  0
  6 30  1  0
  8 31  1  0
 11 32  1  0
 11 33  1  0
 17 34  1  0
 17 35  1  0
 18 36  1  0
 18 37  1  0
 19 38  1  0
 19 39  1  0
 22 40  1  0
M  END
>  <UniqueID>  (8) 
8

>  <SMILES>  (8) 
CN(C)c1ccc2cc(C(N)=O)n(C(=O)OCCCF)c2c1

>  <Energy>  (8) 
74.51471857179227

>  <Genealogy>  (8) 
CN(C)c1ccc2cc(C(N)=O)n(C(=O)OCCCF)c2c1 (3D coordinates assigned)
CN(C)c1ccc2cc(C(N)=O)n(C(=O)OCCCF)c2c1 (optimized conformer: 74.51471857179227 kcal/mol)

>  <smiles>  (8) 
CN(C)c1ccc2cc(C(N)=O)n(C(=O)OCCCF)c2c1

>  <score_type>  (8) 
oracle

>  <origin>  (8) 
adg

>  <m_score__min__energy>  (8) 
-8.4100000000000001

>  <m_primary>  (8) 
energy

$$$$
8:0
     RDKit          3D

 46 47  0  0  0  0  0  0  0  0999 V2000
   -3.8670   25.4350  -30.8520 N   0  0  0  0  0  0  0  0  0  0  0  0
   -5.2360   25.2100  -30.5250 C   0  0  0  0  0  0  0  0  0  0  0  0
   -5.8360   26.0340  -29.7840 O   0  0  0  0  0  0  0  0  0  0  0  0
   -5.9410   23.9980  -30.9910 C   0  0  0  0  0  0  0  0  0  0  0  0
   -7.3190   23.8200  -30.8600 C   0  0  0  0  0  0  0  0  0  0  0  0
   -7.5630   22.5300  -31.2760 C   0  0  0  0  0  0  0  0  0  0  0  0
   -8.7540   21.8090  -31.3190 C   0  0  0  0  0  0  0  0  0  0  0  0
   -8.7060   20.4810  -31.7810 C   0  0  0  0  0  0  0  0  0  0  0  0
   -7.4800   19.9120  -32.2130 C   0  0  0  0  0  0  0  0  0  0  0  0
   -7.4220   18.4860  -32.6900 C   0  0  0  0  0  0  0  0  0  0  0  0
   -6.3970   18.3400  -33.8220 C   0  0  0  0  0  0  0  0  0  0  0  0
   -4.9710   18.2500  -33.2730 C   0  0  0  0  0  0  0  0  0  0  0  0
   -4.1720   19.2530  -33.8410 O   0  0  0  0  0  0  0  0  0  0  0  0
   -6.2950   20.6770  -32.1540 C   0  0  0  0  0  0  0  0  0  0  0  0
   -6.3660   21.9810  -31.6550 C   0  0  0  0  0  0  0  0  0  0  0  0
   -5.3600   22.8680  -31.4870 N   0  0  0  0  0  0  0  0  0  0  0  0
   -3.9720   22.6300  -31.7720 C   0  0  0  0  0  0  0  0  0  0  0  0
   -3.6290   22.1140  -32.8700 O   0  0  0  0  0  0  0  0  0  0  0  0
   -3.0110   22.9460  -30.8080 O   0  0  0  0  0  0  0  0  0  0  0  0
   -3.1620   22.6530  -29.4250 C   0  0  0  0  0  0  0  0  0  0  0  0
   -2.5430   23.6800  -28.6580 O   0  0  0  0  0  0  0  0  0  0  0  0
   -3.2040   24.3610  -27.6290 C   0  0  0  0  0  0  0  0  0  0  0  0
   -4.4490   24.5550  -27.6820 O   0  0  0  0  0  0  0  0  0  0  0  0
   -2.4250   24.8480  -26.4450 C   0  0  0  0  0  0  0  0  0  0  0  0
   -1.5240   26.0330  -26.8110 C   0  0  0  0  0  0  0  0  0  0  0  0
   -0.7060   25.7470  -28.0350 C   0  0  0  0  0  0  0  0  0  0  0  0
    0.4700   25.3090  -27.9250 O   0  0  0  0  0  0  0  0  0  0  0  0
   -1.2310   26.0020  -29.2960 O   0  0  0  0  0  0  0  0  0  0  0  0
   -3.1020   25.1210  -30.2130 H   0  0  0  0  0  0  0  0  0  0  0  0
   -8.0546   24.5546  -30.5005 H   0  0  0  0  0  0  0  0  0  0  0  0
   -9.7036   22.2643  -31.0013 H   0  0  0  0  0  0  0  0  0  0  0  0
   -9.6262   19.8790  -31.8075 H   0  0  0  0  0  0  0  0  0  0  0  0
   -7.1312   17.8354  -31.8520 H   0  0  0  0  0  0  0  0  0  0  0  0
   -8.4136   18.1965  -33.0681 H   0  0  0  0  0  0  0  0  0  0  0  0
   -6.6200   17.4258  -34.3916 H   0  0  0  0  0  0  0  0  0  0  0  0
   -6.4648   19.2275  -34.4683 H   0  0  0  0  0  0  0  0  0  0  0  0
   -4.9929   18.3773  -32.1806 H   0  0  0  0  0  0  0  0  0  0  0  0
   -4.5488   17.2664  -33.5267 H   0  0  0  0  0  0  0  0  0  0  0  0
   -4.2080   20.0290  -33.2230 H   0  0  0  0  0  0  0  0  0  0  0  0
   -5.3369   20.2563  -32.4932 H   0  0  0  0  0  0  0  0  0  0  0  0
   -4.2319   22.6012  -29.1747 H   0  0  0  0  0  0  0  0  0  0  0  0
   -2.6882   21.6864  -29.1984 H   0  0  0  0  0  0  0  0  0  0  0  0
   -3.1283   25.1633  -25.6602 H   0  0  0  0  0  0  0  0  0  0  0  0
   -1.7854   24.0256  -26.0920 H   0  0  0  0  0  0  0  0  0  0  0  0
   -2.1535   26.9150  -27.0004 H   0  0  0  0  0  0  0  0  0  0  0  0
   -0.8361   26.2142  -25.9720 H   0  0  0  0  0  0  0  0  0  0  0  0
  1  2  1  0
  2  3  2  0
  2  4  1  0
  4  5  2  0
  5  6  1  0
  6  7  2  0
  7  8  1  0
  8  9  2  0
  9 10  1  0
 10 11  1  0
 11 12  1  0
 12 13  1  0
  9 14  1  0
 14 15  2  0
 15 16  1  0
 16 17  1  0
 17 18  2  0
 17 19  1  0
 19 20  1  0
 20 21  1  0
 21 22  1  0
 22 23  2  0
 22 24  1  0
 24 25  1  0
 25 26  1  0
 26 27  2  0
 26 28  1  0
 16  4  1  0
 15  6  1  0
  1 29  1  0
  5 30  1  0
  7 31  1  0
  8 32  1  0
 10 33  1  0
 10 34  1  0
 11 35  1  0
 11 36  1  0
 12 37  1  0
 12 38  1  0
 13 39  1  0
 14 40  1  0
 20 41  1  0
 20 42  1  0
 24 43  1  0
 24 44  1  0
 25 45  1  0
 25 46  1  0
M  CHG  2   1  -1  28  -1
M  END
>  <UniqueID>  (9) 
9

>  <SMILES>  (9) 
[NH-]C(=O)c1cc2ccc(CCCO)cc2n1C(=O)OCOC(=O)CCC(=O)[O-]

>  <Energy>  (9) 
71.22375080418361

>  <Genealogy>  (9) 
[NH-]C(=O)c1cc2ccc(CCCO)cc2n1C(=O)OCOC(=O)CCC(=O)[O-] (protonated)
[NH-]C(=O)c1cc2ccc(CCCO)cc2n1C(=O)OCOC(=O)CCC(=O)[O-] (3D coordinates assigned)
[NH-]C(=O)c1cc2ccc(CCCO)cc2n1C(=O)OCOC(=O)CCC(=O)[O-] (optimized conformer: 71.22375080418361 kcal/mol)

>  <smiles>  (9) 
NC(=O)c1cc2ccc(CCCO)cc2n1C(=O)OCOC(=O)CCC(=O)O

>  <score_type>  (9) 
oracle

>  <origin>  (9) 
adg

>  <m_score__min__energy>  (9) 
-12.449999999999999

>  <m_primary>  (9) 
energy

$$$$
9:0
     RDKit          3D

 47 51  0  0  0  0  0  0  0  0999 V2000
   -1.5990   26.1110  -28.5940 N   0  0  0  0  0  0  0  0  0  0  0  0
   -0.7740   24.9500  -28.5440 C   0  0  0  0  0  0  0  0  0  0  0  0
    0.1830   24.9070  -27.7260 O   0  0  0  0  0  0  0  0  0  0  0  0
   -1.0610   23.7760  -29.3960 C   0  0  0  0  0  0  0  0  0  0  0  0
   -0.1220   22.7880  -29.6780 C   0  0  0  0  0  0  0  0  0  0  0  0
   -0.7990   21.8400  -30.4100 C   0  0  0  0  0  0  0  0  0  0  0  0
   -0.3470   20.6490  -30.9630 C   0  0  0  0  0  0  0  0  0  0  0  0
   -1.2580   19.8740  -31.6990 C   0  0  0  0  0  0  0  0  0  0  0  0
   -2.6030   20.3010  -31.8830 C   0  0  0  0  0  0  0  0  0  0  0  0
   -3.5310   19.5010  -32.6530 N   0  0  0  0  0  0  0  0  0  0  0  0
   -3.3410   18.0830  -32.9240 C   0  0  0  0  0  0  0  0  0  0  0  0
   -4.5860   17.6070  -33.6610 C   0  0  0  0  0  0  0  0  0  0  0  0
   -5.3670   18.8770  -34.0550 C   0  0  1  0  0  0  0  0  0  0  0  0
   -6.8490   18.7860  -33.9170 N   0  0  2  0  0  0  0  0  0  0  0  0
   -7.5340   20.0270  -33.4990 C   0  0  0  0  0  0  0  0  0  0  0  0
   -8.7100   19.6410  -32.6160 C   0  0  2  0  0  0  0  0  0  0  0  0
   -8.3900   19.2010  -31.1980 C   0  0  0  0  0  0  0  0  0  0  0  0
   -8.5490   18.1710  -32.3050 C   0  0  2  0  0  0  0  0  0  0  0  0
   -7.2740   17.7160  -32.9950 C   0  0  0  0  0  0  0  0  0  0  0  0
   -4.7600   20.0230  -33.2320 C   0  0  0  0  0  0  0  0  0  0  0  0
   -3.0180   21.5270  -31.3010 C   0  0  0  0  0  0  0  0  0  0  0  0
   -2.0910   22.2670  -30.5560 C   0  0  0  0  0  0  0  0  0  0  0  0
   -2.2690   23.4570  -29.9400 N   0  0  0  0  0  0  0  0  0  0  0  0
   -3.4630   24.2560  -29.9530 C   0  0  0  0  0  0  0  0  0  0  0  0
   -3.5410   25.2730  -30.6900 O   0  0  0  0  0  0  0  0  0  0  0  0
   -4.5340   23.9280  -29.1300 O   0  0  0  0  0  0  0  0  0  0  0  0
   -2.5890   26.0520  -28.9190 H   0  0  0  0  0  0  0  0  0  0  0  0
    0.9364   22.7692  -29.3791 H   0  0  0  0  0  0  0  0  0  0  0  0
    0.6946   20.3221  -30.8284 H   0  0  0  0  0  0  0  0  0  0  0  0
   -0.9268   18.9223  -32.1401 H   0  0  0  0  0  0  0  0  0  0  0  0
   -2.4492   17.9330  -33.5503 H   0  0  0  0  0  0  0  0  0  0  0  0
   -3.1934   17.5185  -31.9915 H   0  0  0  0  0  0  0  0  0  0  0  0
   -4.3030   17.0395  -34.5598 H   0  0  0  0  0  0  0  0  0  0  0  0
   -5.1948   16.9425  -33.0302 H   0  0  0  0  0  0  0  0  0  0  0  0
   -5.2542   19.0463  -35.1360 H   0  0  0  0  0  0  0  0  0  0  0  0
   -7.2250   18.5340  -34.8650 H   0  0  0  0  0  0  0  0  0  0  0  0
   -7.8949   20.5704  -34.3847 H   0  0  0  0  0  0  0  0  0  0  0  0
   -6.8404   20.6788  -32.9476 H   0  0  0  0  0  0  0  0  0  0  0  0
   -9.4659   20.3400  -33.0032 H   0  0  0  0  0  0  0  0  0  0  0  0
   -9.1526   19.2849  -30.4097 H   0  0  0  0  0  0  0  0  0  0  0  0
   -7.6070   19.4429  -30.4642 H   0  0  0  0  0  0  0  0  0  0  0  0
   -9.1279   17.2369  -32.3522 H   0  0  0  0  0  0  0  0  0  0  0  0
   -7.4642   16.7909  -33.5589 H   0  0  0  0  0  0  0  0  0  0  0  0
   -6.4875   17.5163  -32.2523 H   0  0  0  0  0  0  0  0  0  0  0  0
   -4.5402   20.8836  -33.8809 H   0  0  0  0  0  0  0  0  0  0  0  0
   -5.4550   20.3683  -32.4525 H   0  0  0  0  0  0  0  0  0  0  0  0
   -4.0483   21.8893  -31.4325 H   0  0  0  0  0  0  0  0  0  0  0  0
  1  2  1  0
  2  3  2  0
  2  4  1  0
  4  5  2  0
  5  6  1  0
  6  7  2  0
  7  8  1  0
  8  9  2  0
  9 10  1  0
 10 11  1  0
 11 12  1  0
 12 13  1  0
 13 14  1  0
 14 15  1  0
 15 16  1  0
 16 17  1  0
 17 18  1  0
 18 19  1  0
 13 20  1  0
  9 21  1  0
 21 22  2  0
 22 23  1  0
 23 24  1  0
 24 25  2  0
 24 26  1  0
 23  4  1  0
 22  6  1  0
 20 10  1  0
 19 14  1  0
 18 16  1  0
  1 27  1  0
  5 28  1  0
  7 29  1  0
  8 30  1  0
 11 31  1  0
 11 32  1  0
 12 33  1  0
 12 34  1  0
 13 35  1  6
 14 36  1  6
 15 37  1  0
 15 38  1  0
 16 39  1  1
 17 40  1  0
 17 41  1  0
 18 42  1  1
 19 43  1  0
 19 44  1  0
 20 45  1  0
 20 46  1  0
 21 47  1  0
M  CHG  3   1  -1  14   1  26  -1
M  END
>  <UniqueID>  (10) 
10

>  <SMILES>  (10) 
[NH-]C(=O)c1cc2ccc(N3CC[C@@H]([NH+]4CC5C[C@H]5C4)C3)cc2n1C(=O)[O-]

>  <Energy>  (10) 
367.97714696077514

>  <Genealogy>  (10) 
[NH-]C(=O)c1cc2ccc(N3CCC([NH+]4CC5CC5C4)C3)cc2n1C(=O)[O-] (protonated)
[NH-]C(=O)c1cc2ccc(N3CC[C@@H]([NH+]4CC5C[C@H]5C4)C3)cc2n1C(=O)[O-] (chirality)
[NH-]C(=O)c1cc2ccc(N3CC[C@@H]([NH+]4CC5C[C@H]5C4)C3)cc2n1C(=O)[O-] (3D coordinates assigned)
[NH-]C(=O)c1cc2ccc(N3CC[C@@H]([NH+]4CC5C[C@H]5C4)C3)cc2n1C(=O)[O-] (nonaromatic ring conformer: 367.97714696077514 kcal/mol)

>  <smiles>  (10) 
NC(=O)c1cc2ccc(N3CCC(N4CC5CC5C4)C3)cc2n1C(=O)O

>  <score_type>  (10) 
oracle

>  <origin>  (10) 
adg

>  <m_score__min__energy>  (10) 
-11.619999999999999

>  <m_primary>  (10) 
energy

$$$$
10:0
     RDKit          3D

 37 38  0  0  0  0  0  0  0  0999 V2000
   -3.8540   25.2700  -30.4610 N   0  0  0  0  0  0  0  0  0  0  0  0
   -5.2590   25.0890  -30.6320 C   0  0  0  0  0  0  0  0  0  0  0  0
   -6.0380   26.0480  -30.3850 O   0  0  0  0  0  0  0  0  0  0  0  0
   -5.8120   23.7860  -31.0570 C   0  0  0  0  0  0  0  0  0  0  0  0
   -7.0860   23.6280  -31.6010 C   0  0  0  0  0  0  0  0  0  0  0  0
   -7.2250   22.2750  -31.8150 C   0  0  0  0  0  0  0  0  0  0  0  0
   -8.2910   21.5540  -32.3490 C   0  0  0  0  0  0  0  0  0  0  0  0
   -8.1440   20.1640  -32.4860 C   0  0  0  0  0  0  0  0  0  0  0  0
   -6.9410   19.5230  -32.0950 C   0  0  0  0  0  0  0  0  0  0  0  0
   -6.7950   18.0380  -32.2650 C   0  0  0  0  0  0  0  0  0  0  0  0
   -6.1570   17.7640  -33.4600 F   0  0  0  0  0  0  0  0  0  0  0  0
   -6.0500   17.5200  -31.2200 F   0  0  0  0  0  0  0  0  0  0  0  0
   -5.8850   20.2860  -31.5520 C   0  0  0  0  0  0  0  0  0  0  0  0
   -6.0670   21.6650  -31.4090 C   0  0  0  0  0  0  0  0  0  0  0  0
   -5.1900   22.5790  -30.9400 N   0  0  0  0  0  0  0  0  0  0  0  0
   -3.8540   22.3230  -30.4810 C   0  0  0  0  0  0  0  0  0  0  0  0
   -3.0510   21.6930  -31.2210 O   0  0  0  0  0  0  0  0  0  0  0  0
   -3.4280   22.8060  -29.1980 N   0  0  0  0  0  0  0  0  0  0  0  0
   -2.0250   22.7950  -28.7810 C   0  0  0  0  0  0  0  0  0  0  0  0
   -1.6550   24.0330  -27.9460 C   0  0  2  0  0  0  0  0  0  0  0  0
   -2.8090   24.7670  -27.6230 O   0  0  0  0  0  0  0  0  0  0  0  0
   -0.6200   24.9280  -28.6530 C   0  0  0  0  0  0  0  0  0  0  0  0
   -1.2350   26.0030  -29.3100 O   0  0  0  0  0  0  0  0  0  0  0  0
   -3.4670   25.6490  -29.5690 H   0  0  0  0  0  0  0  0  0  0  0  0
   -7.8230   24.4163  -31.8139 H   0  0  0  0  0  0  0  0  0  0  0  0
   -9.2198   22.0583  -32.6541 H   0  0  0  0  0  0  0  0  0  0  0  0
   -8.9697   19.5670  -32.9005 H   0  0  0  0  0  0  0  0  0  0  0  0
   -7.7939   17.5774  -32.2690 H   0  0  0  0  0  0  0  0  0  0  0  0
   -4.9420   19.8076  -31.2488 H   0  0  0  0  0  0  0  0  0  0  0  0
   -4.1070   23.3550  -28.6240 H   0  0  0  0  0  0  0  0  0  0  0  0
   -1.8423   21.8936  -28.1775 H   0  0  0  0  0  0  0  0  0  0  0  0
   -1.4038   22.8031  -29.6888 H   0  0  0  0  0  0  0  0  0  0  0  0
   -1.1865   23.6739  -27.0178 H   0  0  0  0  0  0  0  0  0  0  0  0
   -3.0700   25.2680  -28.4410 H   0  0  0  0  0  0  0  0  0  0  0  0
    0.0833   25.3215  -27.9043 H   0  0  0  0  0  0  0  0  0  0  0  0
   -0.0930   24.3204  -29.4033 H   0  0  0  0  0  0  0  0  0  0  0  0
   -2.0700   25.6530  -29.7170 H   0  0  0  0  0  0  0  0  0  0  0  0
  1  2  1  0
  2  3  2  0
  2  4  1  0
  4  5  2  0
  5  6  1  0
  6  7  2  0
  7  8  1  0
  8  9  2  0
  9 10  1  0
 10 11  1  0
 10 12  1  0
  9 13  1  0
 13 14  2  0
 14 15  1  0
 15 16  1  0
 16 17  2  0
 16 18  1  0
 18 19  1  0
 19 20  1  0
 20 21  1  0
 20 22  1  0
 22 23  1  0
 15  4  1  0
 14  6  1  0
  1 24  1  0
  5 25  1  0
  7 26  1  0
  8 27  1  0
 10 28  1  0
 13 29  1  0
 18 30  1  0
 19 31  1  0
 19 32  1  0
 20 33  1  1
 21 34  1  0
 22 35  1  0
 22 36  1  0
 23 37  1  0
M  CHG  1   1  -1
M  END
>  <UniqueID>  (11) 
11

>  <SMILES>  (11) 
[NH-]C(=O)c1cc2ccc(C(F)F)cc2n1C(=O)NC[C@H](O)CO

>  <Energy>  (11) 
72.21546945790674

>  <Genealogy>  (11) 
[NH-]C(=O)c1cc2ccc(C(F)F)cc2n1C(=O)NCC(O)CO (protonated)
[NH-]C(=O)c1cc2ccc(C(F)F)cc2n1C(=O)NC[C@H](O)CO (chirality)
[NH-]C(=O)c1cc2ccc(C(F)F)cc2n1C(=O)NC[C@H](O)CO (3D coordinates assigned)
[NH-]C(=O)c1cc2ccc(C(F)F)cc2n1C(=O)NC[C@H](O)CO (optimized conformer: 72.21546945790674 kcal/mol)

>  <smiles>  (11) 
NC(=O)c1cc2ccc(C(F)F)cc2n1C(=O)NCC(O)CO

>  <score_type>  (11) 
oracle

>  <origin>  (11) 
adg

>  <m_score__min__energy>  (11) 
-9.5299999999999994

>  <m_primary>  (11) 
energy

$$$$
11:0
     RDKit          3D

 39 40  0  0  0  0  0  0  0  0999 V2000
   -6.4200   17.3320  -33.4520 C   0  0  0  0  0  0  0  0  0  0  0  0
   -6.8190   18.5060  -32.6670 N   0  0  0  0  0  0  0  0  0  0  0  0
   -7.6780   18.3420  -31.4850 C   0  0  0  0  0  0  0  0  0  0  0  0
   -9.0130   19.0600  -31.6980 C   0  0  0  0  0  0  0  0  0  0  0  0
   -9.3480   19.0690  -33.0590 O   0  0  0  0  0  0  0  0  0  0  0  0
   -6.3920   19.8280  -33.0610 C   0  0  0  0  0  0  0  0  0  0  0  0
   -7.0620   20.8340  -32.7030 O   0  0  0  0  0  0  0  0  0  0  0  0
   -5.1220   20.0510  -33.8370 C   0  0  0  0  0  0  0  0  0  0  0  0
   -4.0290   20.5700  -32.9390 C   0  0  0  0  0  0  0  0  0  0  0  0
   -2.8060   19.8630  -32.8180 C   0  0  0  0  0  0  0  0  0  0  0  0
   -1.7780   20.3440  -31.9910 C   0  0  0  0  0  0  0  0  0  0  0  0
   -1.9980   21.5310  -31.2990 C   0  0  0  0  0  0  0  0  0  0  0  0
   -1.1700   22.2250  -30.4470 C   0  0  0  0  0  0  0  0  0  0  0  0
   -1.9010   23.3430  -30.0490 C   0  0  0  0  0  0  0  0  0  0  0  0
   -1.4250   24.3230  -29.0480 C   0  0  0  0  0  0  0  0  0  0  0  0
   -2.3120   25.3090  -28.5140 N   0  0  0  0  0  0  0  0  0  0  0  0
   -0.2210   24.3180  -28.6800 O   0  0  0  0  0  0  0  0  0  0  0  0
   -3.1320   23.3420  -30.6340 N   0  0  0  0  0  0  0  0  0  0  0  0
   -4.1540   24.3470  -30.5250 C   0  0  0  0  0  0  0  0  0  0  0  0
   -5.3230   24.0330  -30.1800 O   0  0  0  0  0  0  0  0  0  0  0  0
   -3.8660   25.6750  -30.8150 O   0  0  0  0  0  0  0  0  0  0  0  0
   -3.1760   22.2260  -31.3970 C   0  0  0  0  0  0  0  0  0  0  0  0
   -4.2080   21.7820  -32.2330 C   0  0  0  0  0  0  0  0  0  0  0  0
   -6.1418   16.5134  -32.7719 H   0  0  0  0  0  0  0  0  0  0  0  0
   -7.2599   17.0123  -34.0863 H   0  0  0  0  0  0  0  0  0  0  0  0
   -5.5592   17.5903  -34.0863 H   0  0  0  0  0  0  0  0  0  0  0  0
   -7.8642   17.2710  -31.3169 H   0  0  0  0  0  0  0  0  0  0  0  0
   -7.1720   18.7770  -30.6105 H   0  0  0  0  0  0  0  0  0  0  0  0
   -9.8000   18.5380  -31.1339 H   0  0  0  0  0  0  0  0  0  0  0  0
   -8.9219   20.0977  -31.3447 H   0  0  0  0  0  0  0  0  0  0  0  0
   -8.6090   19.5370  -33.5290 H   0  0  0  0  0  0  0  0  0  0  0  0
   -4.8001   19.0984  -34.2829 H   0  0  0  0  0  0  0  0  0  0  0  0
   -5.3157   20.7961  -34.6227 H   0  0  0  0  0  0  0  0  0  0  0  0
   -2.6608   18.9275  -33.3781 H   0  0  0  0  0  0  0  0  0  0  0  0
   -0.8276   19.7989  -31.8932 H   0  0  0  0  0  0  0  0  0  0  0  0
   -0.1476   21.9547  -30.1441 H   0  0  0  0  0  0  0  0  0  0  0  0
   -3.3280   25.3110  -28.7540 H   0  0  0  0  0  0  0  0  0  0  0  0
   -1.9580   26.0200  -27.8380 H   0  0  0  0  0  0  0  0  0  0  0  0
   -5.1364   22.3626  -32.3380 H   0  0  0  0  0  0  0  0  0  0  0  0
  1  2  1  0
  2  3  1  0
  3  4  1  0
  4  5  1  0
  2  6  1  0
  6  7  2  0
  6  8  1  0
  8  9  1  0
  9 10  2  0
 10 11  1  0
 11 12  2  0
 12 13  1  0
 13 14  2  0
 14 15  1  0
 15 16  1  0
 15 17  2  0
 14 18  1  0
 18 19  1  0
 19 20  2  0
 19 21  1  0
 18 22  1  0
 22 23  2  0
 23  9  1  0
 22 12  1  0
  1 24  1  0
  1 25  1  0
  1 26  1  0
  3 27  1  0
  3 28  1  0
  4 29  1  0
  4 30  1  0
  5 31  1  0
  8 32  1  0
  8 33  1  0
 10 34  1  0
 11 35  1  0
 13 36  1  0
 16 37  1  0
 16 38  1  0
 23 39  1  0
M  CHG  1  21  -1
M  END
>  <UniqueID>  (12) 
12

>  <SMILES>  (12) 
CN(CCO)C(=O)Cc1ccc2cc(C(N)=O)n(C(=O)[O-])c2c1

>  <Energy>  (12) 
72.37208637234446

>  <Genealogy>  (12) 
CN(CCO)C(=O)Cc1ccc2cc(C(N)=O)n(C(=O)[O-])c2c1 (protonated)
CN(CCO)C(=O)Cc1ccc2cc(C(N)=O)n(C(=O)[O-])c2c1 (3D coordinates assigned)
CN(CCO)C(=O)Cc1ccc2cc(C(N)=O)n(C(=O)[O-])c2c1 (optimized conformer: 72.37208637234446 kcal/mol)

>  <smiles>  (12) 
CN(CCO)C(=O)Cc1ccc2cc(C(N)=O)n(C(=O)O)c2c1

>  <score_type>  (12) 
oracle

>  <origin>  (12) 
adg

>  <m_score__min__energy>  (12) 
-8.6500000000000004

>  <m_primary>  (12) 
energy

$$$$
12:0
     RDKit          3D

 45 48  0  0  0  0  0  0  0  0999 V2000
   -3.8780   25.6460  -30.8480 N   0  0  0  0  0  0  0  0  0  0  0  0
   -5.0950   25.1020  -30.3480 C   0  0  0  0  0  0  0  0  0  0  0  0
   -5.7520   25.7390  -29.4800 O   0  0  0  0  0  0  0  0  0  0  0  0
   -5.6400   23.8530  -30.9050 C   0  0  0  0  0  0  0  0  0  0  0  0
   -7.0020   23.5790  -30.9220 C   0  0  0  0  0  0  0  0  0  0  0  0
   -7.1220   22.3690  -31.5580 C   0  0  0  0  0  0  0  0  0  0  0  0
   -8.2660   21.6420  -31.8700 C   0  0  0  0  0  0  0  0  0  0  0  0
   -8.1080   20.4260  -32.5520 C   0  0  0  0  0  0  0  0  0  0  0  0
   -6.8180   19.9580  -32.9090 C   0  0  0  0  0  0  0  0  0  0  0  0
   -6.6690   18.7200  -33.6330 N   0  0  0  0  0  0  0  0  0  0  0  0
   -7.1140   17.4540  -33.0240 C   0  0  0  0  0  0  0  0  0  0  0  0
   -6.3600   16.2490  -33.6130 C   0  0  0  0  0  0  0  0  0  0  0  0
   -4.9150   16.6470  -33.9850 C   0  0  0  0  0  0  0  0  0  0  0  0
   -4.8530   17.7900  -35.0370 C   0  0  0  0  0  0  0  0  0  0  0  0
   -6.0940   18.6990  -34.9840 C   0  0  0  0  0  0  0  0  0  0  0  0
   -4.0000   15.4600  -34.3020 C   0  0  0  0  0  0  0  0  0  0  0  0
   -3.1570   15.7030  -33.1200 N   0  0  0  0  0  0  0  0  0  0  0  0
   -1.7940   16.0650  -33.4380 C   0  0  0  0  0  0  0  0  0  0  0  0
   -0.9250   16.1960  -32.5320 O   0  0  0  0  0  0  0  0  0  0  0  0
   -1.4290   16.2630  -34.7650 O   0  0  0  0  0  0  0  0  0  0  0  0
   -4.0010   16.8520  -32.7650 C   0  0  0  0  0  0  0  0  0  0  0  0
   -5.6810   20.7330  -32.5820 C   0  0  0  0  0  0  0  0  0  0  0  0
   -5.8610   21.9400  -31.8890 C   0  0  0  0  0  0  0  0  0  0  0  0
   -4.9260   22.8380  -31.4770 N   0  0  0  0  0  0  0  0  0  0  0  0
   -3.4890   22.6800  -31.4990 C   0  0  0  0  0  0  0  0  0  0  0  0
   -2.9240   22.0760  -32.4490 O   0  0  0  0  0  0  0  0  0  0  0  0
   -2.7020   23.1480  -30.4540 O   0  0  0  0  0  0  0  0  0  0  0  0
   -2.9540   25.2930  -30.5110 H   0  0  0  0  0  0  0  0  0  0  0  0
   -7.8122   24.2002  -30.5125 H   0  0  0  0  0  0  0  0  0  0  0  0
   -9.2645   22.0093  -31.5905 H   0  0  0  0  0  0  0  0  0  0  0  0
   -8.9946   19.8292  -32.8126 H   0  0  0  0  0  0  0  0  0  0  0  0
   -6.9310   17.4951  -31.9401 H   0  0  0  0  0  0  0  0  0  0  0  0
   -8.1860   17.3273  -33.2357 H   0  0  0  0  0  0  0  0  0  0  0  0
   -6.3327   15.4396  -32.8686 H   0  0  0  0  0  0  0  0  0  0  0  0
   -6.8816   15.9108  -34.5205 H   0  0  0  0  0  0  0  0  0  0  0  0
   -3.9586   18.4005  -34.8440 H   0  0  0  0  0  0  0  0  0  0  0  0
   -4.8159   17.3282  -36.0347 H   0  0  0  0  0  0  0  0  0  0  0  0
   -5.8043   19.7214  -35.2684 H   0  0  0  0  0  0  0  0  0  0  0  0
   -6.8483   18.3061  -35.6816 H   0  0  0  0  0  0  0  0  0  0  0  0
   -4.5174   14.4896  -34.2791 H   0  0  0  0  0  0  0  0  0  0  0  0
   -3.5244   15.4045  -35.2923 H   0  0  0  0  0  0  0  0  0  0  0  0
   -3.2220   14.9270  -32.4190 H   0  0  0  0  0  0  0  0  0  0  0  0
   -4.5207   16.7340  -31.8027 H   0  0  0  0  0  0  0  0  0  0  0  0
   -3.5286   17.8335  -32.6115 H   0  0  0  0  0  0  0  0  0  0  0  0
   -4.6732   20.3956  -32.8659 H   0  0  0  0  0  0  0  0  0  0  0  0
  1  2  1  0
  2  3  2  0
  2  4  1  0
  4  5  2  0
  5  6  1  0
  6  7  2  0
  7  8  1  0
  8  9  2  0
  9 10  1  0
 10 11  1  0
 11 12  1  0
 12 13  1  0
 13 14  1  0
 14 15  1  0
 13 16  1  0
 16 17  1  0
 17 18  1  0
 18 19  2  0
 18 20  1  0
 17 21  1  0
  9 22  1  0
 22 23  2  0
 23 24  1  0
 24 25  1  0
 25 26  2  0
 25 27  1  0
 24  4  1  0
 23  6  1  0
 15 10  1  0
 21 13  1  0
  1 28  1  0
  5 29  1  0
  7 30  1  0
  8 31  1  0
 11 32  1  0
 11 33  1  0
 12 34  1  0
 12 35  1  0
 14 36  1  0
 14 37  1  0
 15 38  1  0
 15 39  1  0
 16 40  1  0
 16 41  1  0
 17 42  1  0
 21 43  1  0
 21 44  1  0
 22 45  1  0
M  CHG  4   1  -1  17   1  20  -1  27  -1
M  END
>  <UniqueID>  (13) 
13

>  <SMILES>  (13) 
[NH-]C(=O)c1cc2ccc(N3CCC4(CC3)C[NH+](C(=O)[O-])C4)cc2n1C(=O)[O-]

>  <Energy>  (13) 
173.91062862470406

>  <Genealogy>  (13) 
[NH-]C(=O)c1cc2ccc(N3CCC4(CC3)C[NH+](C(=O)[O-])C4)cc2n1C(=O)[O-] (protonated)
[NH-]C(=O)c1cc2ccc(N3CCC4(CC3)C[NH+](C(=O)[O-])C4)cc2n1C(=O)[O-] (3D coordinates assigned)
[NH-]C(=O)c1cc2ccc(N3CCC4(CC3)C[NH+](C(=O)[O-])C4)cc2n1C(=O)[O-] (nonaromatic ring conformer: 173.91062862470406 kcal/mol)

>  <smiles>  (13) 
NC(=O)c1cc2ccc(N3CCC4(CC3)CN(C(=O)O)C4)cc2n1C(=O)O

>  <score_type>  (13) 
oracle

>  <origin>  (13) 
adg

>  <m_score__min__energy>  (13) 
-11.56

>  <m_primary>  (13) 
energy

$$$$
13:0
     RDKit          3D

 35 36  0  0  0  0  0  0  0  0999 V2000
   -1.4030   25.7690  -28.9570 N   0  0  0  0  0  0  0  0  0  0  0  0
   -0.8850   24.4510  -29.1210 C   0  0  0  0  0  0  0  0  0  0  0  0
    0.2220   24.1540  -28.5980 O   0  0  0  0  0  0  0  0  0  0  0  0
   -1.5990   23.4490  -29.9400 C   0  0  0  0  0  0  0  0  0  0  0  0
   -0.9950   22.2940  -30.4310 C   0  0  0  0  0  0  0  0  0  0  0  0
   -1.9520   21.6840  -31.2080 C   0  0  0  0  0  0  0  0  0  0  0  0
   -1.8940   20.4960  -31.9290 C   0  0  0  0  0  0  0  0  0  0  0  0
   -3.0450   20.0900  -32.6240 C   0  0  0  0  0  0  0  0  0  0  0  0
   -4.2310   20.8720  -32.5850 C   0  0  0  0  0  0  0  0  0  0  0  0
   -5.4180   20.4800  -33.3030 N   0  0  0  0  0  0  0  0  0  0  0  0
   -6.7490   20.3880  -32.7010 C   0  0  0  0  0  0  0  0  0  0  0  0
   -7.2610   18.9810  -32.7710 C   0  0  0  0  0  0  0  0  0  0  0  0
   -8.2780   18.6560  -32.0990 O   0  0  0  0  0  0  0  0  0  0  0  0
   -6.5990   18.0110  -33.5950 N   0  0  0  0  0  0  0  0  0  0  0  0
   -6.8290   16.5780  -33.4460 C   0  0  0  0  0  0  0  0  0  0  0  0
   -5.7760   15.8140  -34.1850 C   0  0  0  0  0  0  0  0  0  0  0  0
   -4.8670   16.4230  -34.8070 O   0  0  0  0  0  0  0  0  0  0  0  0
   -5.8200   14.4260  -34.2160 O   0  0  0  0  0  0  0  0  0  0  0  0
   -4.2490   22.0660  -31.8320 C   0  0  0  0  0  0  0  0  0  0  0  0
   -3.0820   22.4570  -31.1650 C   0  0  0  0  0  0  0  0  0  0  0  0
   -2.8840   23.5450  -30.3880 N   0  0  0  0  0  0  0  0  0  0  0  0
   -3.8650   24.5380  -30.0470 C   0  0  0  0  0  0  0  0  0  0  0  0
   -3.8680   25.6540  -30.6280 O   0  0  0  0  0  0  0  0  0  0  0  0
   -4.8030   24.2840  -29.0550 O   0  0  0  0  0  0  0  0  0  0  0  0
   -2.4310   25.9490  -28.9820 H   0  0  0  0  0  0  0  0  0  0  0  0
    0.0299   21.9440  -30.2383 H   0  0  0  0  0  0  0  0  0  0  0  0
   -0.9745   19.8927  -31.9541 H   0  0  0  0  0  0  0  0  0  0  0  0
   -3.0283   19.1562  -33.2051 H   0  0  0  0  0  0  0  0  0  0  0  0
   -5.3180   20.1610  -34.2940 H   0  0  0  0  0  0  0  0  0  0  0  0
   -6.6923   20.7006  -31.6479 H   0  0  0  0  0  0  0  0  0  0  0  0
   -7.4361   21.0445  -33.2551 H   0  0  0  0  0  0  0  0  0  0  0  0
   -5.8650   18.3320  -34.2680 H   0  0  0  0  0  0  0  0  0  0  0  0
   -6.7921   16.3116  -32.3794 H   0  0  0  0  0  0  0  0  0  0  0  0
   -7.8169   16.3248  -33.8584 H   0  0  0  0  0  0  0  0  0  0  0  0
   -5.1617   22.6769  -31.7706 H   0  0  0  0  0  0  0  0  0  0  0  0
  1  2  1  0
  2  3  2  0
  2  4  1  0
  4  5  2  0
  5  6  1  0
  6  7  2  0
  7  8  1  0
  8  9  2  0
  9 10  1  0
 10 11  1  0
 11 12  1  0
 12 13  2  0
 12 14  1  0
 14 15  1  0
 15 16  1  0
 16 17  2  0
 16 18  1  0
  9 19  1  0
 19 20  2  0
 20 21  1  0
 21 22  1  0
 22 23  2  0
 22 24  1  0
 21  4  1  0
 20  6  1  0
  1 25  1  0
  5 26  1  0
  7 27  1  0
  8 28  1  0
 10 29  1  0
 11 30  1  0
 11 31  1  0
 14 32  1  0
 15 33  1  0
 15 34  1  0
 19 35  1  0
M  CHG  3   1  -1  18  -1  24  -1
M  END
>  <UniqueID>  (14) 
14

>  <SMILES>  (14) 
[NH-]C(=O)c1cc2ccc(NCC(=O)NCC(=O)[O-])cc2n1C(=O)[O-]

>  <Energy>  (14) 
69.9982880873261

>  <Genealogy>  (14) 
[NH-]C(=O)c1cc2ccc(NCC(=O)NCC(=O)[O-])cc2n1C(=O)[O-] (protonated)
[NH-]C(=O)c1cc2ccc(NCC(=O)NCC(=O)[O-])cc2n1C(=O)[O-] (3D coordinates assigned)
[NH-]C(=O)c1cc2ccc(NCC(=O)NCC(=O)[O-])cc2n1C(=O)[O-] (optimized conformer: 69.9982880873261 kcal/mol)

>  <smiles>  (14) 
NC(=O)c1cc2ccc(NCC(=O)NCC(=O)O)cc2n1C(=O)O

>  <score_type>  (14) 
oracle

>  <origin>  (14) 
adg

>  <m_score__min__energy>  (14) 
-11

>  <m_primary>  (14) 
energy

$$$$
14:0
     RDKit          3D

 36 37  0  0  0  0  0  0  0  0999 V2000
   -6.8540   16.8540  -33.4940 C   0  0  0  0  0  0  0  0  0  0  0  0
   -7.0010   17.9780  -33.0870 C   0  0  0  0  0  0  0  0  0  0  0  0
   -7.1760   19.3220  -32.5990 C   0  0  0  0  0  0  0  0  0  0  0  0
   -8.4750   19.8730  -32.5030 C   0  0  0  0  0  0  0  0  0  0  0  0
   -8.6590   21.1780  -32.0160 C   0  0  0  0  0  0  0  0  0  0  0  0
   -7.5290   21.9010  -31.6420 C   0  0  0  0  0  0  0  0  0  0  0  0
   -7.4240   23.1680  -31.1150 C   0  0  0  0  0  0  0  0  0  0  0  0
   -6.0590   23.3740  -30.9190 C   0  0  0  0  0  0  0  0  0  0  0  0
   -5.4760   24.6460  -30.4390 C   0  0  0  0  0  0  0  0  0  0  0  0
   -5.7510   25.1260  -29.1220 N   0  0  0  0  0  0  0  0  0  0  0  0
   -4.7490   25.3360  -31.2030 O   0  0  0  0  0  0  0  0  0  0  0  0
   -5.3500   22.2790  -31.3120 N   0  0  0  0  0  0  0  0  0  0  0  0
   -3.9340   22.0680  -31.1990 C   0  0  0  0  0  0  0  0  0  0  0  0
   -3.2670   21.7190  -32.2110 O   0  0  0  0  0  0  0  0  0  0  0  0
   -3.3040   22.2370  -29.9600 O   0  0  0  0  0  0  0  0  0  0  0  0
   -2.1320   23.0280  -29.7620 C   0  0  0  0  0  0  0  0  0  0  0  0
   -2.3630   24.1130  -28.6940 C   0  0  1  0  0  0  0  0  0  0  0  0
   -2.8040   25.2980  -29.3040 O   0  0  0  0  0  0  0  0  0  0  0  0
   -3.3880   23.6880  -27.6310 C   0  0  0  0  0  0  0  0  0  0  0  0
   -4.2690   24.7370  -27.3330 O   0  0  0  0  0  0  0  0  0  0  0  0
   -6.2640   21.3840  -31.7500 C   0  0  0  0  0  0  0  0  0  0  0  0
   -6.0510   20.0800  -32.2150 C   0  0  0  0  0  0  0  0  0  0  0  0
   -6.7197   15.8274  -33.8657 H   0  0  0  0  0  0  0  0  0  0  0  0
   -9.3462   19.2765  -32.8114 H   0  0  0  0  0  0  0  0  0  0  0  0
   -9.6649   21.6153  -31.9327 H   0  0  0  0  0  0  0  0  0  0  0  0
   -8.2427   23.8690  -30.8952 H   0  0  0  0  0  0  0  0  0  0  0  0
   -5.3660   26.0440  -28.8070 H   0  0  0  0  0  0  0  0  0  0  0  0
   -6.3030   24.5570  -28.4410 H   0  0  0  0  0  0  0  0  0  0  0  0
   -1.3093   22.3743  -29.4366 H   0  0  0  0  0  0  0  0  0  0  0  0
   -1.8830   23.5235  -30.7120 H   0  0  0  0  0  0  0  0  0  0  0  0
   -1.3993   24.2719  -28.1881 H   0  0  0  0  0  0  0  0  0  0  0  0
   -3.7940   25.3110  -29.2270 H   0  0  0  0  0  0  0  0  0  0  0  0
   -3.9644   22.8311  -28.0098 H   0  0  0  0  0  0  0  0  0  0  0  0
   -2.8471   23.4140  -26.7132 H   0  0  0  0  0  0  0  0  0  0  0  0
   -3.7830   25.5810  -27.5260 H   0  0  0  0  0  0  0  0  0  0  0  0
   -5.0364   19.6599  -32.2787 H   0  0  0  0  0  0  0  0  0  0  0  0
  1  2  3  0
  2  3  1  0
  3  4  2  0
  4  5  1  0
  5  6  2  0
  6  7  1  0
  7  8  2  0
  8  9  1  0
  9 10  1  0
  9 11  2  0
  8 12  1  0
 12 13  1  0
 13 14  2  0
 13 15  1  0
 15 16  1  0
 16 17  1  0
 17 18  1  0
 17 19  1  0
 19 20  1  0
 12 21  1  0
 21 22  2  0
 22  3  1  0
 21  6  1  0
  1 23  1  0
  4 24  1  0
  5 25  1  0
  7 26  1  0
 10 27  1  0
 10 28  1  0
 16 29  1  0
 16 30  1  0
 17 31  1  1
 18 32  1  0
 19 33  1  0
 19 34  1  0
 20 35  1  0
 22 36  1  0
M  END
>  <UniqueID>  (15) 
15

>  <SMILES>  (15) 
C#Cc1ccc2cc(C(N)=O)n(C(=O)OC[C@@H](O)CO)c2c1

>  <Energy>  (15) 
69.50023838851806

>  <Genealogy>  (15) 
C#Cc1ccc2cc(C(N)=O)n(C(=O)OC[C@@H](O)CO)c2c1 (3D coordinates assigned)
C#Cc1ccc2cc(C(N)=O)n(C(=O)OC[C@@H](O)CO)c2c1 (optimized conformer: 69.50023838851806 kcal/mol)

>  <smiles>  (15) 
C#Cc1ccc2cc(C(N)=O)n(C(=O)OC[C@@H](O)CO)c2c1

>  <score_type>  (15) 
oracle

>  <origin>  (15) 
adg

>  <m_score__min__energy>  (15) 
-9.0199999999999996

>  <m_primary>  (15) 
energy

$$$$
15:0
     RDKit          3D

 43 45  0  0  0  0  0  0  0  0999 V2000
   -5.7400   18.2240  -34.9010 C   0  0  0  0  0  0  0  0  0  0  0  0
   -6.4870   18.2580  -33.6370 N   0  0  0  0  0  0  0  0  0  0  0  0
   -6.9870   16.9980  -33.0720 C   0  0  0  0  0  0  0  0  0  0  0  0
   -6.7250   19.5160  -32.9530 C   0  0  0  0  0  0  0  0  0  0  0  0
   -8.0520   19.9610  -32.6870 C   0  0  0  0  0  0  0  0  0  0  0  0
   -8.2900   21.1770  -32.0240 C   0  0  0  0  0  0  0  0  0  0  0  0
   -7.1930   21.9400  -31.6440 C   0  0  0  0  0  0  0  0  0  0  0  0
   -7.1380   23.1390  -30.9700 C   0  0  0  0  0  0  0  0  0  0  0  0
   -5.7800   23.4320  -30.8460 C   0  0  0  0  0  0  0  0  0  0  0  0
   -5.2410   24.6660  -30.2300 C   0  0  0  0  0  0  0  0  0  0  0  0
   -5.7680   25.1620  -28.9970 N   0  0  0  0  0  0  0  0  0  0  0  0
   -4.3170   25.3050  -30.7980 O   0  0  0  0  0  0  0  0  0  0  0  0
   -5.0310   22.4540  -31.4300 N   0  0  0  0  0  0  0  0  0  0  0  0
   -3.5980   22.3570  -31.4680 C   0  0  0  0  0  0  0  0  0  0  0  0
   -3.0110   22.2100  -32.5750 O   0  0  0  0  0  0  0  0  0  0  0  0
   -2.8030   22.4340  -30.2340 C   0  0  0  0  0  0  0  0  0  0  0  0
   -1.5850   22.7560  -30.2910 O   0  0  0  0  0  0  0  0  0  0  0  0
   -3.4200   22.1970  -29.0000 O   0  0  0  0  0  0  0  0  0  0  0  0
   -2.8110   21.5150  -27.9590 N   0  0  0  0  0  0  0  0  0  0  0  0
   -3.1160   20.1960  -27.7930 C   0  0  0  0  0  0  0  0  0  0  0  0
   -2.5090   19.4470  -26.7810 C   0  0  0  0  0  0  0  0  0  0  0  0
   -1.5690   20.0550  -25.9500 C   0  0  0  0  0  0  0  0  0  0  0  0
   -1.2390   21.3960  -26.1460 C   0  0  0  0  0  0  0  0  0  0  0  0
   -1.8660   22.1140  -27.1670 C   0  0  0  0  0  0  0  0  0  0  0  0
   -5.9100   21.5460  -31.9040 C   0  0  0  0  0  0  0  0  0  0  0  0
   -5.6390   20.3290  -32.5380 C   0  0  0  0  0  0  0  0  0  0  0  0
   -4.6618   18.1749  -34.6885 H   0  0  0  0  0  0  0  0  0  0  0  0
   -6.0402   17.3386  -35.4806 H   0  0  0  0  0  0  0  0  0  0  0  0
   -5.9585   19.1330  -35.4806 H   0  0  0  0  0  0  0  0  0  0  0  0
   -6.9647   17.0543  -31.9737 H   0  0  0  0  0  0  0  0  0  0  0  0
   -8.0202   16.8293  -33.4096 H   0  0  0  0  0  0  0  0  0  0  0  0
   -6.3506   16.1667  -33.4096 H   0  0  0  0  0  0  0  0  0  0  0  0
   -8.9041   19.3427  -33.0058 H   0  0  0  0  0  0  0  0  0  0  0  0
   -9.3151   21.5149  -31.8121 H   0  0  0  0  0  0  0  0  0  0  0  0
   -7.9853   23.7388  -30.6063 H   0  0  0  0  0  0  0  0  0  0  0  0
   -6.4870   24.6320  -28.4570 H   0  0  0  0  0  0  0  0  0  0  0  0
   -5.4040   26.0530  -28.5940 H   0  0  0  0  0  0  0  0  0  0  0  0
   -3.8465   19.7173  -28.4618 H   0  0  0  0  0  0  0  0  0  0  0  0
   -2.7705   18.3877  -26.6415 H   0  0  0  0  0  0  0  0  0  0  0  0
   -1.0900   19.4800  -25.1438 H   0  0  0  0  0  0  0  0  0  0  0  0
   -0.4919   21.8836  -25.5025 H   0  0  0  0  0  0  0  0  0  0  0  0
   -1.5995   23.1677  -27.3367 H   0  0  0  0  0  0  0  0  0  0  0  0
   -4.6014   20.0078  -32.7119 H   0  0  0  0  0  0  0  0  0  0  0  0
  1  2  1  0
  2  3  1  0
  2  4  1  0
  4  5  2  0
  5  6  1  0
  6  7  2  0
  7  8  1  0
  8  9  2  0
  9 10  1  0
 10 11  1  0
 10 12  2  0
  9 13  1  0
 13 14  1  0
 14 15  2  0
 14 16  1  0
 16 17  2  0
 16 18  1  0
 18 19  1  0
 19 20  2  0
 20 21  1  0
 21 22  2  0
 22 23  1  0
 23 24  2  0
 13 25  1  0
 25 26  2  0
 26  4  1  0
 25  7  1  0
 24 19  1  0
  1 27  1  0
  1 28  1  0
  1 29  1  0
  3 30  1  0
  3 31  1  0
  3 32  1  0
  5 33  1  0
  6 34  1  0
  8 35  1  0
 11 36  1  0
 11 37  1  0
 20 38  1  0
 21 39  1  0
 22 40  1  0
 23 41  1  0
 24 42  1  0
 26 43  1  0
M  CHG  1  19   1
M  END
>  <UniqueID>  (16) 
16

>  <SMILES>  (16) 
CN(C)c1ccc2cc(C(N)=O)n(C(=O)C(=O)O[n+]3ccccc3)c2c1

>  <Energy>  (16) 
90.0311182973384

>  <Genealogy>  (16) 
CN(C)c1ccc2cc(C(N)=O)n(C(=O)C(=O)O[n+]3ccccc3)c2c1 (3D coordinates assigned)
CN(C)c1ccc2cc(C(N)=O)n(C(=O)C(=O)O[n+]3ccccc3)c2c1 (optimized conformer: 90.0311182973384 kcal/mol)

>  <smiles>  (16) 
CN(C)c1ccc2cc(C(N)=O)n(C(=O)C(=O)O[n+]3ccccc3)c2c1

>  <score_type>  (16) 
oracle

>  <origin>  (16) 
adg

>  <m_score__min__energy>  (16) 
-8.7599999999999998

>  <m_primary>  (16) 
energy

$$$$
16:0
     RDKit          3D

 43 46  0  0  0  0  0  0  0  0999 V2000
   -7.1270   14.2330  -34.3250 C   0  0  0  0  0  0  0  0  0  0  0  0
   -6.6250   15.5880  -34.1460 N   0  0  0  0  0  0  0  0  0  0  0  0
   -7.2340   16.5660  -33.4520 C   0  0  0  0  0  0  0  0  0  0  0  0
   -6.4090   17.6780  -33.4630 C   0  0  0  0  0  0  0  0  0  0  0  0
   -6.6610   18.9980  -32.8340 C   0  0  0  0  0  0  0  0  0  0  0  0
   -7.9890   19.4330  -32.5750 C   0  0  0  0  0  0  0  0  0  0  0  0
   -8.2350   20.6810  -31.9790 C   0  0  0  0  0  0  0  0  0  0  0  0
   -7.1410   21.4700  -31.6380 C   0  0  0  0  0  0  0  0  0  0  0  0
   -7.0940   22.7290  -31.0830 C   0  0  0  0  0  0  0  0  0  0  0  0
   -5.7390   23.0360  -30.9840 C   0  0  0  0  0  0  0  0  0  0  0  0
   -5.2240   24.3000  -30.4220 C   0  0  0  0  0  0  0  0  0  0  0  0
   -5.4470   24.6520  -29.0540 N   0  0  0  0  0  0  0  0  0  0  0  0
   -4.6150   25.1080  -31.1730 O   0  0  0  0  0  0  0  0  0  0  0  0
   -4.9800   22.0090  -31.4590 N   0  0  0  0  0  0  0  0  0  0  0  0
   -3.5550   21.9990  -31.6550 C   0  0  0  0  0  0  0  0  0  0  0  0
   -3.0970   21.8570  -32.8220 O   0  0  0  0  0  0  0  0  0  0  0  0
   -2.6230   22.1650  -30.5150 C   0  0  0  0  0  0  0  0  0  0  0  0
   -2.1540   21.0440  -29.8110 C   0  0  0  0  0  0  0  0  0  0  0  0
   -1.2840   21.2180  -28.7340 C   0  0  0  0  0  0  0  0  0  0  0  0
   -0.8900   22.4670  -28.3710 N   0  0  0  0  0  0  0  0  0  0  0  0
   -1.3140   23.5780  -29.0330 C   0  0  0  0  0  0  0  0  0  0  0  0
   -0.8500   24.9050  -28.5910 C   0  0  0  0  0  0  0  0  0  0  0  0
    0.1920   25.0090  -27.8910 O   0  0  0  0  0  0  0  0  0  0  0  0
   -1.5530   26.0530  -28.9380 O   0  0  0  0  0  0  0  0  0  0  0  0
   -2.1840   23.4420  -30.1240 C   0  0  0  0  0  0  0  0  0  0  0  0
   -5.8530   21.0620  -31.8640 C   0  0  0  0  0  0  0  0  0  0  0  0
   -5.5780   19.8380  -32.4820 C   0  0  0  0  0  0  0  0  0  0  0  0
   -5.2930   17.2810  -34.1880 C   0  0  0  0  0  0  0  0  0  0  0  0
   -5.4460   16.0020  -34.5830 N   0  0  0  0  0  0  0  0  0  0  0  0
   -7.2977   13.7722  -33.3409 H   0  0  0  0  0  0  0  0  0  0  0  0
   -8.0735   14.2636  -34.8847 H   0  0  0  0  0  0  0  0  0  0  0  0
   -6.3891   13.6395  -34.8847 H   0  0  0  0  0  0  0  0  0  0  0  0
   -8.2159   16.4949  -32.9614 H   0  0  0  0  0  0  0  0  0  0  0  0
   -8.8352   18.7840  -32.8448 H   0  0  0  0  0  0  0  0  0  0  0  0
   -9.2624   21.0243  -31.7875 H   0  0  0  0  0  0  0  0  0  0  0  0
   -7.9447   23.3581  -30.7821 H   0  0  0  0  0  0  0  0  0  0  0  0
   -6.1080   24.1090  -28.4570 H   0  0  0  0  0  0  0  0  0  0  0  0
   -5.0250   25.5230  -28.6640 H   0  0  0  0  0  0  0  0  0  0  0  0
   -2.4711   20.0332  -30.1073 H   0  0  0  0  0  0  0  0  0  0  0  0
   -0.9165   20.3429  -28.1780 H   0  0  0  0  0  0  0  0  0  0  0  0
   -2.5225   24.3330  -30.6731 H   0  0  0  0  0  0  0  0  0  0  0  0
   -4.5414   19.5345  -32.6901 H   0  0  0  0  0  0  0  0  0  0  0  0
   -4.4194   17.9129  -34.4060 H   0  0  0  0  0  0  0  0  0  0  0  0
  1  2  1  0
  2  3  1  0
  3  4  2  0
  4  5  1  0
  5  6  2  0
  6  7  1  0
  7  8  2  0
  8  9  1  0
  9 10  2  0
 10 11  1  0
 11 12  1  0
 11 13  2  0
 10 14  1  0
 14 15  1  0
 15 16  2  0
 15 17  1  0
 17 18  2  0
 18 19  1  0
 19 20  2  0
 20 21  1  0
 21 22  1  0
 22 23  2  0
 22 24  1  0
 21 25  2  0
 14 26  1  0
 26 27  2  0
  4 28  1  0
 28 29  2  0
 29  2  1  0
 27  5  1  0
 26  8  1  0
 25 17  1  0
  1 30  1  0
  1 31  1  0
  1 32  1  0
  3 33  1  0
  6 34  1  0
  7 35  1  0
  9 36  1  0
 12 37  1  0
 12 38  1  0
 18 39  1  0
 19 40  1  0
 25 41  1  0
 27 42  1  0
 28 43  1  0
M  CHG  1  24  -1
M  END
>  <UniqueID>  (17) 
17

>  <SMILES>  (17) 
Cn1cc(-c2ccc3cc(C(N)=O)n(C(=O)c4ccnc(C(=O)[O-])c4)c3c2)cn1

>  <Energy>  (17) 
119.95680986135736

>  <Genealogy>  (17) 
Cn1cc(-c2ccc3cc(C(N)=O)n(C(=O)c4ccnc(C(=O)[O-])c4)c3c2)cn1 (protonated)
Cn1cc(-c2ccc3cc(C(N)=O)n(C(=O)c4ccnc(C(=O)[O-])c4)c3c2)cn1 (3D coordinates assigned)
Cn1cc(-c2ccc3cc(C(N)=O)n(C(=O)c4ccnc(C(=O)[O-])c4)c3c2)cn1 (optimized conformer: 119.95680986135736 kcal/mol)

>  <smiles>  (17) 
Cn1cc(-c2ccc3cc(C(N)=O)n(C(=O)c4ccnc(C(=O)O)c4)c3c2)cn1

>  <score_type>  (17) 
oracle

>  <origin>  (17) 
adg

>  <m_score__min__energy>  (17) 
-12.220000000000001

>  <m_primary>  (17) 
energy

$$$$
17:0
     RDKit          3D

 48 49  0  0  0  0  0  0  0  0999 V2000
   -2.8560   16.8220  -34.6260 C   0  0  0  0  0  0  0  0  0  0  0  0
   -4.2320   17.0940  -35.2110 C   0  0  0  0  0  0  0  0  0  0  0  0
   -5.1920   16.2530  -34.5790 O   0  0  0  0  0  0  0  0  0  0  0  0
   -5.8670   16.6250  -33.4110 C   0  0  0  0  0  0  0  0  0  0  0  0
   -5.6220   16.0490  -32.3140 O   0  0  0  0  0  0  0  0  0  0  0  0
   -6.8520   17.7530  -33.4520 C   0  0  0  0  0  0  0  0  0  0  0  0
   -6.9790   18.3760  -32.1350 N   0  0  0  0  0  0  0  0  0  0  0  0
   -7.1180   19.7930  -31.9140 C   0  0  0  0  0  0  0  0  0  0  0  0
   -8.3530   20.4670  -32.1340 C   0  0  0  0  0  0  0  0  0  0  0  0
   -8.4680   21.8470  -31.9020 C   0  0  0  0  0  0  0  0  0  0  0  0
   -7.3400   22.5310  -31.4620 C   0  0  0  0  0  0  0  0  0  0  0  0
   -7.1790   23.8600  -31.1380 C   0  0  0  0  0  0  0  0  0  0  0  0
   -5.8460   23.9880  -30.7510 C   0  0  0  0  0  0  0  0  0  0  0  0
   -5.2230   25.2810  -30.3980 C   0  0  0  0  0  0  0  0  0  0  0  0
   -3.9120   25.6140  -30.8520 N   0  0  0  0  0  0  0  0  0  0  0  0
   -5.8730   26.1230  -29.7220 O   0  0  0  0  0  0  0  0  0  0  0  0
   -5.2110   22.7840  -30.8260 N   0  0  0  0  0  0  0  0  0  0  0  0
   -3.8590   22.4710  -30.4600 C   0  0  0  0  0  0  0  0  0  0  0  0
   -3.2140   23.2600  -29.7180 O   0  0  0  0  0  0  0  0  0  0  0  0
   -3.2870   21.2740  -30.9130 O   0  0  0  0  0  0  0  0  0  0  0  0
   -2.7550   21.0260  -32.2220 C   0  0  0  0  0  0  0  0  0  0  0  0
   -1.2620   21.4000  -32.2810 C   0  0  0  0  0  0  0  0  0  0  0  0
   -2.9630   19.5520  -32.6190 C   0  0  0  0  0  0  0  0  0  0  0  0
   -3.5300   21.9180  -33.2030 C   0  0  0  0  0  0  0  0  0  0  0  0
   -6.1380   21.9050  -31.2640 C   0  0  0  0  0  0  0  0  0  0  0  0
   -5.9990   20.5270  -31.4660 C   0  0  0  0  0  0  0  0  0  0  0  0
   -2.9157   16.8338  -33.5277 H   0  0  0  0  0  0  0  0  0  0  0  0
   -2.5024   15.8366  -34.9634 H   0  0  0  0  0  0  0  0  0  0  0  0
   -2.1540   17.5988  -34.9634 H   0  0  0  0  0  0  0  0  0  0  0  0
   -4.5002   18.1474  -35.0426 H   0  0  0  0  0  0  0  0  0  0  0  0
   -4.2183   16.8870  -36.2913 H   0  0  0  0  0  0  0  0  0  0  0  0
   -6.5085   18.5063  -34.1763 H   0  0  0  0  0  0  0  0  0  0  0  0
   -7.8330   17.3554  -33.7514 H   0  0  0  0  0  0  0  0  0  0  0  0
   -6.9350   17.7440  -31.3030 H   0  0  0  0  0  0  0  0  0  0  0  0
   -9.2263   19.9004  -32.4895 H   0  0  0  0  0  0  0  0  0  0  0  0
   -9.4215   22.3712  -32.0634 H   0  0  0  0  0  0  0  0  0  0  0  0
   -7.9409   24.6525  -31.1765 H   0  0  0  0  0  0  0  0  0  0  0  0
   -3.0670   25.2890  -30.3330 H   0  0  0  0  0  0  0  0  0  0  0  0
   -0.8681   21.4987  -31.2587 H   0  0  0  0  0  0  0  0  0  0  0  0
   -0.7076   20.6130  -32.8132 H   0  0  0  0  0  0  0  0  0  0  0  0
   -1.1441   22.3554  -32.8132 H   0  0  0  0  0  0  0  0  0  0  0  0
   -3.0498   18.9366  -31.7114 H   0  0  0  0  0  0  0  0  0  0  0  0
   -3.8832   19.4590  -33.2145 H   0  0  0  0  0  0  0  0  0  0  0  0
   -2.1045   19.2080  -33.2145 H   0  0  0  0  0  0  0  0  0  0  0  0
   -4.1495   22.6310  -32.6393 H   0  0  0  0  0  0  0  0  0  0  0  0
   -2.8198   22.4700  -33.8362 H   0  0  0  0  0  0  0  0  0  0  0  0
   -4.1758   21.2919  -33.8362 H   0  0  0  0  0  0  0  0  0  0  0  0
   -5.0374   20.0265  -31.2794 H   0  0  0  0  0  0  0  0  0  0  0  0
  1  2  1  0
  2  3  1  0
  3  4  1  0
  4  5  2  0
  4  6  1  0
  6  7  1  0
  7  8  1  0
  8  9  2  0
  9 10  1  0
 10 11  2  0
 11 12  1  0
 12 13  2  0
 13 14  1  0
 14 15  1  0
 14 16  2  0
 13 17  1  0
 17 18  1  0
 18 19  2  0
 18 20  1  0
 20 21  1  0
 21 22  1  0
 21 23  1  0
 21 24  1  0
 17 25  1  0
 25 26  2  0
 26  8  1  0
 25 11  1  0
  1 27  1  0
  1 28  1  0
  1 29  1  0
  2 30  1  0
  2 31  1  0
  6 32  1  0
  6 33  1  0
  7 34  1  0
  9 35  1  0
 10 36  1  0
 12 37  1  0
 15 38  1  0
 22 39  1  0
 22 40  1  0
 22 41  1  0
 23 42  1  0
 23 43  1  0
 23 44  1  0
 24 45  1  0
 24 46  1  0
 24 47  1  0
 26 48  1  0
M  CHG  1  15  -1
M  END
>  <UniqueID>  (18) 
18

>  <SMILES>  (18) 
CCOC(=O)CNc1ccc2cc(C([NH-])=O)n(C(=O)OC(C)(C)C)c2c1

>  <Energy>  (18) 
75.17686021830382

>  <Genealogy>  (18) 
CCOC(=O)CNc1ccc2cc(C([NH-])=O)n(C(=O)OC(C)(C)C)c2c1 (protonated)
CCOC(=O)CNc1ccc2cc(C([NH-])=O)n(C(=O)OC(C)(C)C)c2c1 (3D coordinates assigned)
CCOC(=O)CNc1ccc2cc(C([NH-])=O)n(C(=O)OC(C)(C)C)c2c1 (optimized conformer: 75.17686021830382 kcal/mol)

>  <smiles>  (18) 
CCOC(=O)CNc1ccc2cc(C(N)=O)n(C(=O)OC(C)(C)C)c2c1

>  <score_type>  (18) 
oracle

>  <origin>  (18) 
adg

>  <m_score__min__energy>  (18) 
-9.9299999999999997

>  <m_primary>  (18) 
energy

$$$$
18:0
     RDKit          3D

 38 40  0  0  0  0  0  0  0  0999 V2000
   -6.9480   14.8800  -34.2220 C   0  0  0  0  0  0  0  0  0  0  0  0
   -6.5340   16.0380  -33.4410 N   0  0  0  0  0  0  0  0  0  0  0  0
   -7.1090   17.2530  -33.4710 C   0  0  0  0  0  0  0  0  0  0  0  0
   -6.4770   18.0530  -32.5340 C   0  0  0  0  0  0  0  0  0  0  0  0
   -6.7660   19.4730  -32.2090 C   0  0  0  0  0  0  0  0  0  0  0  0
   -8.0900   19.9800  -32.3090 C   0  0  0  0  0  0  0  0  0  0  0  0
   -8.3710   21.3240  -32.0180 C   0  0  0  0  0  0  0  0  0  0  0  0
   -7.3190   22.1400  -31.6160 C   0  0  0  0  0  0  0  0  0  0  0  0
   -7.3100   23.4810  -31.3060 C   0  0  0  0  0  0  0  0  0  0  0  0
   -5.9870   23.7730  -30.9880 C   0  0  0  0  0  0  0  0  0  0  0  0
   -5.5370   25.1030  -30.5310 C   0  0  0  0  0  0  0  0  0  0  0  0
   -4.2140   25.5710  -30.8020 N   0  0  0  0  0  0  0  0  0  0  0  0
   -6.3140   25.8180  -29.8420 O   0  0  0  0  0  0  0  0  0  0  0  0
   -5.2060   22.6640  -31.1090 N   0  0  0  0  0  0  0  0  0  0  0  0
   -3.7780   22.5830  -30.9760 C   0  0  0  0  0  0  0  0  0  0  0  0
   -3.0370   22.8970  -31.9480 O   0  0  0  0  0  0  0  0  0  0  0  0
   -3.2150   22.1580  -29.7670 O   0  0  0  0  0  0  0  0  0  0  0  0
   -2.8910   23.0450  -28.6990 C   0  0  0  0  0  0  0  0  0  0  0  0
   -1.9680   24.1200  -29.1790 C   0  0  0  0  0  0  0  0  0  0  0  0
   -2.3920   25.2940  -29.3450 O   0  0  0  0  0  0  0  0  0  0  0  0
   -0.6300   23.8300  -29.4140 O   0  0  0  0  0  0  0  0  0  0  0  0
   -6.0390   21.6700  -31.4930 C   0  0  0  0  0  0  0  0  0  0  0  0
   -5.7240   20.3410  -31.8000 C   0  0  0  0  0  0  0  0  0  0  0  0
   -5.5180   17.2270  -31.9590 C   0  0  0  0  0  0  0  0  0  0  0  0
   -5.5810   16.0050  -32.5240 N   0  0  0  0  0  0  0  0  0  0  0  0
   -7.2394   14.0650  -33.5431 H   0  0  0  0  0  0  0  0  0  0  0  0
   -7.8043   15.1527  -34.8563 H   0  0  0  0  0  0  0  0  0  0  0  0
   -6.1129   14.5480  -34.8563 H   0  0  0  0  0  0  0  0  0  0  0  0
   -7.9379   17.5586  -34.1264 H   0  0  0  0  0  0  0  0  0  0  0  0
   -8.9056   19.3100  -32.6187 H   0  0  0  0  0  0  0  0  0  0  0  0
   -9.3934   21.7203  -32.1053 H   0  0  0  0  0  0  0  0  0  0  0  0
   -8.1649   24.1732  -31.3090 H   0  0  0  0  0  0  0  0  0  0  0  0
   -3.9270   26.5300  -30.5070 H   0  0  0  0  0  0  0  0  0  0  0  0
   -3.4930   24.9390  -31.2140 H   0  0  0  0  0  0  0  0  0  0  0  0
   -3.8143   23.5039  -28.3156 H   0  0  0  0  0  0  0  0  0  0  0  0
   -2.3930   22.4762  -27.8999 H   0  0  0  0  0  0  0  0  0  0  0  0
   -4.6883   19.9781  -31.7251 H   0  0  0  0  0  0  0  0  0  0  0  0
   -4.8164   17.5247  -31.1658 H   0  0  0  0  0  0  0  0  0  0  0  0
  1  2  1  0
  2  3  1  0
  3  4  2  0
  4  5  1  0
  5  6  2  0
  6  7  1  0
  7  8  2  0
  8  9  1  0
  9 10  2  0
 10 11  1  0
 11 12  1  0
 11 13  2  0
 10 14  1  0
 14 15  1  0
 15 16  2  0
 15 17  1  0
 17 18  1  0
 18 19  1  0
 19 20  2  0
 19 21  1  0
 14 22  1  0
 22 23  2  0
  4 24  1  0
 24 25  2  0
 25  2  1  0
 23  5  1  0
 22  8  1  0
  1 26  1  0
  1 27  1  0
  1 28  1  0
  3 29  1  0
  6 30  1  0
  7 31  1  0
  9 32  1  0
 12 33  1  0
 12 34  1  0
 18 35  1  0
 18 36  1  0
 23 37  1  0
 24 38  1  0
M  CHG  1  21  -1
M  END
>  <UniqueID>  (19) 
19

>  <SMILES>  (19) 
Cn1cc(-c2ccc3cc(C(N)=O)n(C(=O)OCC(=O)[O-])c3c2)cn1

>  <Energy>  (19) 
108.35666699513922

>  <Genealogy>  (19) 
Cn1cc(-c2ccc3cc(C(N)=O)n(C(=O)OCC(=O)[O-])c3c2)cn1 (protonated)
Cn1cc(-c2ccc3cc(C(N)=O)n(C(=O)OCC(=O)[O-])c3c2)cn1 (3D coordinates assigned)
Cn1cc(-c2ccc3cc(C(N)=O)n(C(=O)OCC(=O)[O-])c3c2)cn1 (optimized conformer: 108.35666699513922 kcal/mol)

>  <smiles>  (19) 
Cn1cc(-c2ccc3cc(C(N)=O)n(C(=O)OCC(=O)O)c3c2)cn1

>  <score_type>  (19) 
oracle

>  <origin>  (19) 
adg

>  <m_score__min__energy>  (19) 
-11.220000000000001

>  <m_primary>  (19) 
energy

$$$$
19:0
     RDKit          3D

 35 36  0  0  0  0  0  0  0  0999 V2000
   -3.0570   25.0380  -30.8410 H   0  0  0  0  0  0  0  0  0  0  0  0
   -3.8860   25.6740  -30.8410 N   0  0  0  0  0  0  0  0  0  0  0  0
   -5.1980   25.1670  -30.6120 C   0  0  0  0  0  0  0  0  0  0  0  0
   -6.0530   25.8980  -30.0470 O   0  0  0  0  0  0  0  0  0  0  0  0
   -5.5380   23.7890  -31.0260 C   0  0  0  0  0  0  0  0  0  0  0  0
   -6.7770   23.4160  -31.5450 C   0  0  0  0  0  0  0  0  0  0  0  0
   -7.6580   24.0574  -31.6949 H   0  0  0  0  0  0  0  0  0  0  0  0
   -6.6630   22.0740  -31.8300 C   0  0  0  0  0  0  0  0  0  0  0  0
   -7.6020   21.1840  -32.3440 C   0  0  0  0  0  0  0  0  0  0  0  0
   -8.6119   21.5218  -32.6195 H   0  0  0  0  0  0  0  0  0  0  0  0
   -7.2200   19.8410  -32.5000 C   0  0  0  0  0  0  0  0  0  0  0  0
   -7.9386   19.1156  -32.9092 H   0  0  0  0  0  0  0  0  0  0  0  0
   -5.9180   19.4090  -32.1360 C   0  0  0  0  0  0  0  0  0  0  0  0
   -5.5520   18.0190  -32.2610 N   0  0  0  0  0  0  0  0  0  0  0  0
   -4.7620   17.9330  -32.9410 H   0  0  0  0  0  0  0  0  0  0  0  0
   -5.2110   17.6430  -31.3440 H   0  0  0  0  0  0  0  0  0  0  0  0
   -6.6820   17.2090  -32.7460 C   0  0  0  0  0  0  0  0  0  0  0  0
   -6.8696   16.3949  -32.0304 H   0  0  0  0  0  0  0  0  0  0  0  0
   -7.5597   17.8659  -32.8365 H   0  0  0  0  0  0  0  0  0  0  0  0
   -6.4030   16.6150  -34.0950 C   0  0  0  0  0  0  0  0  0  0  0  0
   -5.4590   17.0600  -34.8010 O   0  0  0  0  0  0  0  0  0  0  0  0
   -7.2050   15.5910  -34.5840 O   0  0  0  0  0  0  0  0  0  0  0  0
   -4.9950   20.3450  -31.6110 C   0  0  0  0  0  0  0  0  0  0  0  0
   -3.9853   20.0310  -31.3079 H   0  0  0  0  0  0  0  0  0  0  0  0
   -5.3970   21.6770  -31.4870 C   0  0  0  0  0  0  0  0  0  0  0  0
   -4.6930   22.7210  -30.9970 N   0  0  0  0  0  0  0  0  0  0  0  0
   -3.3450   22.6870  -30.5050 C   0  0  0  0  0  0  0  0  0  0  0  0
   -2.3910   22.7350  -31.3250 O   0  0  0  0  0  0  0  0  0  0  0  0
   -3.0990   22.6680  -29.0450 C   0  0  0  0  0  0  0  0  0  0  0  0
   -3.6685   21.9350  -28.4547 H   0  0  0  0  0  0  0  0  0  0  0  0
   -2.2480   23.4590  -28.3720 C   0  0  0  0  0  0  0  0  0  0  0  0
   -2.3084   23.4333  -27.2740 H   0  0  0  0  0  0  0  0  0  0  0  0
   -1.2400   24.3590  -28.9630 C   0  0  0  0  0  0  0  0  0  0  0  0
   -0.0290   24.0240  -29.0480 O   0  0  0  0  0  0  0  0  0  0  0  0
   -1.6170   25.6410  -29.3420 O   0  0  0  0  0  0  0  0  0  0  0  0
  1  2  1  0
  2  3  1  0
  3  4  2  0
  3  5  1  0
  5  6  2  0
  6  7  1  0
  6  8  1  0
  8  9  2  0
  9 10  1  0
  9 11  1  0
 11 12  1  0
 11 13  2  0
 13 14  1  0
 14 15  1  0
 14 16  1  0
 14 17  1  0
 17 18  1  0
 17 19  1  0
 17 20  1  0
 20 21  2  0
 20 22  1  0
 13 23  1  0
 23 24  1  0
 23 25  2  0
 25 26  1  0
 26 27  1  0
 27 28  2  0
 27 29  1  0
 29 30  1  0
 29 31  2  0
 31 32  1  0
 31 33  1  0
 33 34  2  0
 33 35  1  0
 26  5  1  0
 25  8  1  0
M  CHG  4   2  -1  14   1  22  -1  35  -1
M  END
>  <UniqueID>  (20) 
20

>  <SMILES>  (20) 
[NH-]C(=O)c1cc2ccc([NH2+]CC(=O)[O-])cc2n1C(=O)/C=C\C(=O)[O-]

>  <Energy>  (20) 
81.15689530925371

>  <Genealogy>  (20) 
[NH-]C(=O)c1cc2ccc([NH2+]CC(=O)[O-])cc2n1C(=O)/C=C\C(=O)[O-] (protonated)
[NH-]C(=O)c1cc2ccc([NH2+]CC(=O)[O-])cc2n1C(=O)/C=C\C(=O)[O-] (cis-trans isomerization)
[NH-]C(=O)c1cc2ccc([NH2+]CC(=O)[O-])cc2n1C(=O)/C=C\C(=O)[O-] (3D coordinates assigned)
[NH-]C(=O)c1cc2ccc([NH2+]CC(=O)[O-])cc2n1C(=O)/C=C\C(=O)[O-] (optimized conformer: 81.15689530925371 kcal/mol)

>  <smiles>  (20) 
NC(=O)c1cc2ccc(NCC(=O)O)cc2n1C(=O)/C=C\C(=O)O

>  <score_type>  (20) 
oracle

>  <origin>  (20) 
adg

>  <m_score__min__energy>  (20) 
-11.369999999999999

>  <m_primary>  (20) 
energy

$$$$
20:0
     RDKit          3D

 43 44  0  0  0  0  0  0  0  0999 V2000
   -7.2020   23.2420  -32.3120 C   0  0  0  0  0  0  0  0  0  0  0  0
   -6.9500   22.1010  -31.3180 C   0  0  0  0  0  0  0  0  0  0  0  0
   -7.6040   22.3750  -29.9570 C   0  0  0  0  0  0  0  0  0  0  0  0
   -7.3770   20.7960  -31.8730 N   0  0  0  0  0  0  0  0  0  0  0  0
   -8.7920   20.6020  -32.2180 C   0  0  0  0  0  0  0  0  0  0  0  0
   -6.4360   19.7110  -32.0800 C   0  0  0  0  0  0  0  0  0  0  0  0
   -6.2600   18.8400  -31.1870 O   0  0  0  0  0  0  0  0  0  0  0  0
   -5.6760   19.5520  -33.3720 C   0  0  0  0  0  0  0  0  0  0  0  0
   -4.8080   20.7080  -33.6070 N   0  0  0  0  0  0  0  0  0  0  0  0
   -3.7240   21.0720  -32.7310 C   0  0  0  0  0  0  0  0  0  0  0  0
   -2.5130   20.3300  -32.6940 C   0  0  0  0  0  0  0  0  0  0  0  0
   -1.4640   20.7100  -31.8420 C   0  0  0  0  0  0  0  0  0  0  0  0
   -1.6500   21.8250  -31.0330 C   0  0  0  0  0  0  0  0  0  0  0  0
   -0.7920   22.4220  -30.1380 C   0  0  0  0  0  0  0  0  0  0  0  0
   -1.4940   23.5070  -29.6190 C   0  0  0  0  0  0  0  0  0  0  0  0
   -0.9770   24.3830  -28.5440 C   0  0  0  0  0  0  0  0  0  0  0  0
   -1.8490   25.2730  -27.8450 N   0  0  0  0  0  0  0  0  0  0  0  0
    0.2500   24.3760  -28.2570 O   0  0  0  0  0  0  0  0  0  0  0  0
   -2.7390   23.5800  -30.1730 N   0  0  0  0  0  0  0  0  0  0  0  0
   -3.7420   24.5850  -29.9470 C   0  0  0  0  0  0  0  0  0  0  0  0
   -4.5120   24.5040  -28.9540 O   0  0  0  0  0  0  0  0  0  0  0  0
   -3.8670   25.6610  -30.8160 O   0  0  0  0  0  0  0  0  0  0  0  0
   -2.8180   22.5430  -31.0370 C   0  0  0  0  0  0  0  0  0  0  0  0
   -3.8730   22.1980  -31.8910 C   0  0  0  0  0  0  0  0  0  0  0  0
   -7.4072   24.1709  -31.7596 H   0  0  0  0  0  0  0  0  0  0  0  0
   -6.3128   23.3803  -32.9446 H   0  0  0  0  0  0  0  0  0  0  0  0
   -8.0668   22.9929  -32.9446 H   0  0  0  0  0  0  0  0  0  0  0  0
   -5.8641   22.0501  -31.1501 H   0  0  0  0  0  0  0  0  0  0  0  0
   -6.9120   22.0851  -29.1526 H   0  0  0  0  0  0  0  0  0  0  0  0
   -7.8374   23.4466  -29.8714 H   0  0  0  0  0  0  0  0  0  0  0  0
   -8.5315   21.7898  -29.8714 H   0  0  0  0  0  0  0  0  0  0  0  0
   -9.3864   20.5205  -31.2960 H   0  0  0  0  0  0  0  0  0  0  0  0
   -9.1465   21.4599  -32.8081 H   0  0  0  0  0  0  0  0  0  0  0  0
   -8.9025   19.6803  -32.8081 H   0  0  0  0  0  0  0  0  0  0  0  0
   -5.0597   18.6424  -33.3189 H   0  0  0  0  0  0  0  0  0  0  0  0
   -6.3967   19.4766  -34.1996 H   0  0  0  0  0  0  0  0  0  0  0  0
   -4.9790   21.3020  -34.4510 H   0  0  0  0  0  0  0  0  0  0  0  0
   -2.3960   19.4477  -33.3404 H   0  0  0  0  0  0  0  0  0  0  0  0
   -0.5224   20.1420  -31.8153 H   0  0  0  0  0  0  0  0  0  0  0  0
    0.2318   22.1085  -29.8858 H   0  0  0  0  0  0  0  0  0  0  0  0
   -1.4660   25.9140  -27.1150 H   0  0  0  0  0  0  0  0  0  0  0  0
   -2.8800   25.2650  -28.0130 H   0  0  0  0  0  0  0  0  0  0  0  0
   -4.7989   22.7917  -31.9074 H   0  0  0  0  0  0  0  0  0  0  0  0
  1  2  1  0
  2  3  1  0
  2  4  1  0
  4  5  1  0
  4  6  1  0
  6  7  2  0
  6  8  1  0
  8  9  1  0
  9 10  1  0
 10 11  2  0
 11 12  1  0
 12 13  2  0
 13 14  1  0
 14 15  2  0
 15 16  1  0
 16 17  1  0
 16 18  2  0
 15 19  1  0
 19 20  1  0
 20 21  2  0
 20 22  1  0
 19 23  1  0
 23 24  2  0
 24 10  1  0
 23 13  1  0
  1 25  1  0
  1 26  1  0
  1 27  1  0
  2 28  1  0
  3 29  1  0
  3 30  1  0
  3 31  1  0
  5 32  1  0
  5 33  1  0
  5 34  1  0
  8 35  1  0
  8 36  1  0
  9 37  1  0
 11 38  1  0
 12 39  1  0
 14 40  1  0
 17 41  1  0
 17 42  1  0
 24 43  1  0
M  CHG  1  22  -1
M  END
>  <UniqueID>  (21) 
21

>  <SMILES>  (21) 
CC(C)N(C)C(=O)CNc1ccc2cc(C(N)=O)n(C(=O)[O-])c2c1

>  <Energy>  (21) 
77.49983303922208

>  <Genealogy>  (21) 
CC(C)N(C)C(=O)CNc1ccc2cc(C(N)=O)n(C(=O)[O-])c2c1 (protonated)
CC(C)N(C)C(=O)CNc1ccc2cc(C(N)=O)n(C(=O)[O-])c2c1 (3D coordinates assigned)
CC(C)N(C)C(=O)CNc1ccc2cc(C(N)=O)n(C(=O)[O-])c2c1 (optimized conformer: 77.49983303922208 kcal/mol)

>  <smiles>  (21) 
CC(C)N(C)C(=O)CNc1ccc2cc(C(N)=O)n(C(=O)O)c2c1

>  <score_type>  (21) 
oracle

>  <origin>  (21) 
adg

>  <m_score__min__energy>  (21) 
-9.0500000000000007

>  <m_primary>  (21) 
energy

$$$$
21:0
     RDKit          3D

 34 35  0  0  0  0  0  0  0  0999 V2000
   -3.1610   19.0430  -34.3070 H   0  0  0  0  0  0  0  0  0  0  0  0
   -2.6030   18.8450  -33.5090 O   0  0  0  0  0  0  0  0  0  0  0  0
   -1.9760   20.0460  -33.1510 C   0  0  0  0  0  0  0  0  0  0  0  0
   -1.9205   20.7027  -34.0317 H   0  0  0  0  0  0  0  0  0  0  0  0
   -0.9641   19.8243  -32.7811 H   0  0  0  0  0  0  0  0  0  0  0  0
   -2.7500   20.7360  -32.0680 C   0  0  0  0  0  0  0  0  0  0  0  0
   -2.9022   20.2312  -31.1026 H   0  0  0  0  0  0  0  0  0  0  0  0
   -3.2570   21.9570  -32.2620 C   0  0  0  0  0  0  0  0  0  0  0  0
   -3.0992   22.4465  -33.2344 H   0  0  0  0  0  0  0  0  0  0  0  0
   -4.0200   22.6740  -31.2230 C   0  0  0  0  0  0  0  0  0  0  0  0
   -3.4010   23.1480  -30.2330 O   0  0  0  0  0  0  0  0  0  0  0  0
   -5.4440   22.8510  -31.3150 N   0  0  0  0  0  0  0  0  0  0  0  0
   -6.1720   23.9170  -30.8820 C   0  0  0  0  0  0  0  0  0  0  0  0
   -5.6200   25.1850  -30.3620 C   0  0  0  0  0  0  0  0  0  0  0  0
   -6.3810   25.9920  -29.7670 O   0  0  0  0  0  0  0  0  0  0  0  0
   -4.2490   25.5370  -30.5630 N   0  0  0  0  0  0  0  0  0  0  0  0
   -3.6410   24.9980  -31.2150 H   0  0  0  0  0  0  0  0  0  0  0  0
   -3.8670   26.4110  -30.1360 H   0  0  0  0  0  0  0  0  0  0  0  0
   -7.5360   23.6600  -31.0000 C   0  0  0  0  0  0  0  0  0  0  0  0
   -8.3669   24.3290  -30.7317 H   0  0  0  0  0  0  0  0  0  0  0  0
   -7.6220   22.3900  -31.5240 C   0  0  0  0  0  0  0  0  0  0  0  0
   -8.7400   21.6220  -31.8370 C   0  0  0  0  0  0  0  0  0  0  0  0
   -9.7564   22.0194  -31.6994 H   0  0  0  0  0  0  0  0  0  0  0  0
   -8.5320   20.3240  -32.3340 C   0  0  0  0  0  0  0  0  0  0  0  0
   -9.3954   19.7000  -32.6081 H   0  0  0  0  0  0  0  0  0  0  0  0
   -7.2180   19.8120  -32.4850 C   0  0  0  0  0  0  0  0  0  0  0  0
   -7.0030   18.4330  -33.0390 C   0  0  0  0  0  0  0  0  0  0  0  0
   -7.9461   18.0600  -33.4649 H   0  0  0  0  0  0  0  0  0  0  0  0
   -6.6705   17.7657  -32.2302 H   0  0  0  0  0  0  0  0  0  0  0  0
   -5.9780   18.4700  -34.0860 C   0  0  0  0  0  0  0  0  0  0  0  0
   -5.1680   18.5010  -34.9120 N   0  0  0  0  0  0  0  0  0  0  0  0
   -6.1080   20.6210  -32.1570 C   0  0  0  0  0  0  0  0  0  0  0  0
   -5.0817   20.2396  -32.2628 H   0  0  0  0  0  0  0  0  0  0  0  0
   -6.3460   21.9200  -31.6940 C   0  0  0  0  0  0  0  0  0  0  0  0
  1  2  1  0
  2  3  1  0
  3  4  1  0
  3  5  1  0
  3  6  1  0
  6  7  1  0
  6  8  2  0
  8  9  1  0
  8 10  1  0
 10 11  2  0
 10 12  1  0
 12 13  1  0
 13 14  1  0
 14 15  2  0
 14 16  1  0
 16 17  1  0
 16 18  1  0
 13 19  2  0
 19 20  1  0
 19 21  1  0
 21 22  2  0
 22 23  1  0
 22 24  1  0
 24 25  1  0
 24 26  2  0
 26 27  1  0
 27 28  1  0
 27 29  1  0
 27 30  1  0
 30 31  3  0
 26 32  1  0
 32 33  1  0
 32 34  2  0
 34 12  1  0
 34 21  1  0
M  END
>  <UniqueID>  (22) 
22

>  <SMILES>  (22) 
N#CCc1ccc2cc(C(N)=O)n(C(=O)/C=C/CO)c2c1

>  <Energy>  (22) 
69.11023082818839

>  <Genealogy>  (22) 
N#CCc1ccc2cc(C(N)=O)n(C(=O)/C=C/CO)c2c1 (cis-trans isomerization)
N#CCc1ccc2cc(C(N)=O)n(C(=O)/C=C/CO)c2c1 (3D coordinates assigned)
N#CCc1ccc2cc(C(N)=O)n(C(=O)/C=C/CO)c2c1 (optimized conformer: 69.11023082818839 kcal/mol)

>  <smiles>  (22) 
N#CCc1ccc2cc(C(N)=O)n(C(=O)/C=C/CO)c2c1

>  <score_type>  (22) 
oracle

>  <origin>  (22) 
adg

>  <m_score__min__energy>  (22) 
-9.5199999999999996

>  <m_primary>  (22) 
energy

$$$$
22:0
     RDKit          3D

 46 47  0  0  0  0  0  0  0  0999 V2000
   -8.4560   18.2810  -32.2950 C   0  0  0  0  0  0  0  0  0  0  0  0
   -7.1310   17.6750  -32.1360 N   0  0  0  0  0  0  0  0  0  0  0  0
   -6.3990   17.7900  -30.8750 C   0  0  0  0  0  0  0  0  0  0  0  0
   -6.5520   16.9260  -33.2180 C   0  0  0  0  0  0  0  0  0  0  0  0
   -7.2290   16.6920  -34.2580 O   0  0  0  0  0  0  0  0  0  0  0  0
   -5.2360   16.4590  -33.1110 O   0  0  0  0  0  0  0  0  0  0  0  0
   -4.1050   17.3040  -32.8940 C   0  0  0  0  0  0  0  0  0  0  0  0
   -3.6730   18.0170  -34.2010 C   0  0  1  0  0  0  0  0  0  0  0  0
   -2.5710   17.2060  -34.9190 C   0  0  0  0  0  0  0  0  0  0  0  0
   -4.7930   18.1360  -35.0460 O   0  0  0  0  0  0  0  0  0  0  0  0
   -3.1660   19.4430  -33.8560 C   0  0  0  0  0  0  0  0  0  0  0  0
   -4.2350   20.3310  -33.2650 C   0  0  0  0  0  0  0  0  0  0  0  0
   -5.6010   20.0900  -33.5540 C   0  0  0  0  0  0  0  0  0  0  0  0
   -6.6020   20.9160  -33.0190 C   0  0  0  0  0  0  0  0  0  0  0  0
   -6.2100   21.9660  -32.1940 C   0  0  0  0  0  0  0  0  0  0  0  0
   -6.9710   22.9200  -31.5590 C   0  0  0  0  0  0  0  0  0  0  0  0
   -6.0610   23.7120  -30.8650 C   0  0  0  0  0  0  0  0  0  0  0  0
   -6.4650   24.8090  -29.9640 C   0  0  0  0  0  0  0  0  0  0  0  0
   -5.5760   25.3000  -28.9590 N   0  0  0  0  0  0  0  0  0  0  0  0
   -7.6310   25.2760  -30.0420 O   0  0  0  0  0  0  0  0  0  0  0  0
   -4.7850   23.2830  -31.0760 N   0  0  0  0  0  0  0  0  0  0  0  0
   -3.5710   23.9060  -30.6230 C   0  0  0  0  0  0  0  0  0  0  0  0
   -2.5690   23.2100  -30.3140 O   0  0  0  0  0  0  0  0  0  0  0  0
   -3.4890   25.2910  -30.5170 O   0  0  0  0  0  0  0  0  0  0  0  0
   -4.8940   22.2060  -31.8910 C   0  0  0  0  0  0  0  0  0  0  0  0
   -3.8740   21.4120  -32.4310 C   0  0  0  0  0  0  0  0  0  0  0  0
   -8.8898   18.4794  -31.3038 H   0  0  0  0  0  0  0  0  0  0  0  0
   -8.3628   19.2260  -32.8503 H   0  0  0  0  0  0  0  0  0  0  0  0
   -9.1099   17.5924  -32.8503 H   0  0  0  0  0  0  0  0  0  0  0  0
   -7.0988   17.6801  -30.0335 H   0  0  0  0  0  0  0  0  0  0  0  0
   -5.6344   17.0010  -30.8216 H   0  0  0  0  0  0  0  0  0  0  0  0
   -5.9132   18.7755  -30.8216 H   0  0  0  0  0  0  0  0  0  0  0  0
   -4.3644   18.0629  -32.1412 H   0  0  0  0  0  0  0  0  0  0  0  0
   -3.2681   16.6802  -32.5469 H   0  0  0  0  0  0  0  0  0  0  0  0
   -1.9214   16.7279  -34.1710 H   0  0  0  0  0  0  0  0  0  0  0  0
   -3.0359   16.4330  -35.5485 H   0  0  0  0  0  0  0  0  0  0  0  0
   -1.9712   17.8797  -35.5485 H   0  0  0  0  0  0  0  0  0  0  0  0
   -5.2850   17.2730  -35.0290 H   0  0  0  0  0  0  0  0  0  0  0  0
   -2.3445   19.3551  -33.1298 H   0  0  0  0  0  0  0  0  0  0  0  0
   -2.8395   19.9090  -34.7974 H   0  0  0  0  0  0  0  0  0  0  0  0
   -5.8798   19.2475  -34.2039 H   0  0  0  0  0  0  0  0  0  0  0  0
   -7.6638   20.7387  -33.2450 H   0  0  0  0  0  0  0  0  0  0  0  0
   -8.0647   23.0327  -31.5926 H   0  0  0  0  0  0  0  0  0  0  0  0
   -5.8620   26.1030  -28.3560 H   0  0  0  0  0  0  0  0  0  0  0  0
   -4.6640   24.8290  -28.7690 H   0  0  0  0  0  0  0  0  0  0  0  0
   -2.8176   21.6253  -32.2108 H   0  0  0  0  0  0  0  0  0  0  0  0
  1  2  1  0
  2  3  1  0
  2  4  1  0
  4  5  2  0
  4  6  1  0
  6  7  1  0
  7  8  1  0
  8  9  1  0
  8 10  1  6
  8 11  1  0
 11 12  1  0
 12 13  2  0
 13 14  1  0
 14 15  2  0
 15 16  1  0
 16 17  2  0
 17 18  1  0
 18 19  1  0
 18 20  2  0
 17 21  1  0
 21 22  1  0
 22 23  2  0
 22 24  1  0
 21 25  1  0
 25 26  2  0
 26 12  1  0
 25 15  1  0
  1 27  1  0
  1 28  1  0
  1 29  1  0
  3 30  1  0
  3 31  1  0
  3 32  1  0
  7 33  1  0
  7 34  1  0
  9 35  1  0
  9 36  1  0
  9 37  1  0
 10 38  1  0
 11 39  1  0
 11 40  1  0
 13 41  1  0
 14 42  1  0
 16 43  1  0
 19 44  1  0
 19 45  1  0
 26 46  1  0
M  CHG  1  24  -1
M  END
>  <UniqueID>  (23) 
23

>  <SMILES>  (23) 
CN(C)C(=O)OC[C@@](C)(O)Cc1ccc2cc(C(N)=O)n(C(=O)[O-])c2c1

>  <Energy>  (23) 
79.55658191880748

>  <Genealogy>  (23) 
CN(C)C(=O)OCC(C)(O)Cc1ccc2cc(C(N)=O)n(C(=O)[O-])c2c1 (protonated)
CN(C)C(=O)OC[C@@](C)(O)Cc1ccc2cc(C(N)=O)n(C(=O)[O-])c2c1 (chirality)
CN(C)C(=O)OC[C@@](C)(O)Cc1ccc2cc(C(N)=O)n(C(=O)[O-])c2c1 (3D coordinates assigned)
CN(C)C(=O)OC[C@@](C)(O)Cc1ccc2cc(C(N)=O)n(C(=O)[O-])c2c1 (optimized conformer: 79.55658191880748 kcal/mol)

>  <smiles>  (23) 
CN(C)C(=O)OCC(C)(O)Cc1ccc2cc(C(N)=O)n(C(=O)O)c2c1

>  <score_type>  (23) 
oracle

>  <origin>  (23) 
adg

>  <m_score__min__energy>  (23) 
-9.2400000000000002

>  <m_primary>  (23) 
energy

$$$$
24:0
     RDKit          3D

 44 45  0  0  0  0  0  0  0  0999 V2000
   -3.0630   25.0920  -30.3210 H   0  0  0  0  0  0  0  0  0  0  0  0
   -3.8850   25.4640  -30.8450 N   0  0  0  0  0  0  0  0  0  0  0  0
   -5.2160   25.1460  -30.4440 C   0  0  0  0  0  0  0  0  0  0  0  0
   -5.8970   26.0080  -29.8290 O   0  0  0  0  0  0  0  0  0  0  0  0
   -5.8230   23.8440  -30.7900 C   0  0  0  0  0  0  0  0  0  0  0  0
   -7.1720   23.5510  -30.5970 C   0  0  0  0  0  0  0  0  0  0  0  0
   -7.9316   24.1895  -30.1223 H   0  0  0  0  0  0  0  0  0  0  0  0
   -7.3520   22.2940  -31.1260 C   0  0  0  0  0  0  0  0  0  0  0  0
   -8.4990   21.5080  -31.1960 C   0  0  0  0  0  0  0  0  0  0  0  0
   -9.4622   21.8740  -30.8108 H   0  0  0  0  0  0  0  0  0  0  0  0
   -8.3870   20.2310  -31.7750 C   0  0  0  0  0  0  0  0  0  0  0  0
   -9.2748   19.5861  -31.8517 H   0  0  0  0  0  0  0  0  0  0  0  0
   -7.1410   19.7710  -32.2590 C   0  0  0  0  0  0  0  0  0  0  0  0
   -7.0370   18.4580  -32.8380 C   0  0  0  0  0  0  0  0  0  0  0  0
   -6.9480   17.3570  -33.3220 C   0  0  0  0  0  0  0  0  0  0  0  0
   -6.8400   16.0200  -33.9120 C   0  0  0  0  0  0  0  0  0  0  0  0
   -7.2013   15.2730  -33.1899 H   0  0  0  0  0  0  0  0  0  0  0  0
   -7.4486   15.9792  -34.8274 H   0  0  0  0  0  0  0  0  0  0  0  0
   -5.5050   15.7450  -34.2350 O   0  0  0  0  0  0  0  0  0  0  0  0
   -5.0400   15.5450  -33.3810 H   0  0  0  0  0  0  0  0  0  0  0  0
   -5.9980   20.5910  -32.1730 C   0  0  0  0  0  0  0  0  0  0  0  0
   -5.0213   20.2407  -32.5382 H   0  0  0  0  0  0  0  0  0  0  0  0
   -6.1420   21.8650  -31.6090 C   0  0  0  0  0  0  0  0  0  0  0  0
   -5.1920   22.8040  -31.4060 N   0  0  0  0  0  0  0  0  0  0  0  0
   -3.7910   22.6750  -31.6970 C   0  0  0  0  0  0  0  0  0  0  0  0
   -3.4200   22.3310  -32.8500 O   0  0  0  0  0  0  0  0  0  0  0  0
   -2.8500   22.9110  -30.6870 O   0  0  0  0  0  0  0  0  0  0  0  0
   -1.5040   22.4460  -30.7390 C   0  0  0  0  0  0  0  0  0  0  0  0
   -0.9270   23.0822  -31.4263 H   0  0  0  0  0  0  0  0  0  0  0  0
   -1.4996   21.4049  -31.0941 H   0  0  0  0  0  0  0  0  0  0  0  0
   -0.8780   22.4980  -29.3720 C   0  0  0  0  0  0  0  0  0  0  0  0
   -0.1305   21.7247  -29.1413 H   0  0  0  0  0  0  0  0  0  0  0  0
   -1.1390   23.3930  -28.4040 C   0  0  0  0  0  0  0  0  0  0  0  0
   -0.6647   23.2167  -27.4273 H   0  0  0  0  0  0  0  0  0  0  0  0
   -1.9970   24.5880  -28.5180 C   0  0  0  0  0  0  0  0  0  0  0  0
   -1.4840   25.6620  -28.9340 O   0  0  0  0  0  0  0  0  0  0  0  0
   -3.3670   24.5260  -28.2510 O   0  0  0  0  0  0  0  0  0  0  0  0
   -3.9000   24.5090  -26.9320 C   0  0  0  0  0  0  0  0  0  0  0  0
   -3.9597   23.4706  -26.5739 H   0  0  0  0  0  0  0  0  0  0  0  0
   -4.9063   24.9533  -26.9372 H   0  0  0  0  0  0  0  0  0  0  0  0
   -2.9960   25.3120  -26.0100 C   0  0  0  0  0  0  0  0  0  0  0  0
   -3.2482   25.0880  -24.9630 H   0  0  0  0  0  0  0  0  0  0  0  0
   -1.9465   25.0430  -26.2000 H   0  0  0  0  0  0  0  0  0  0  0  0
   -3.1394   26.3859  -26.2000 H   0  0  0  0  0  0  0  0  0  0  0  0
  1  2  1  0
  2  3  1  0
  3  4  2  0
  3  5  1  0
  5  6  2  0
  6  7  1  0
  6  8  1  0
  8  9  2  0
  9 10  1  0
  9 11  1  0
 11 12  1  0
 11 13  2  0
 13 14  1  0
 14 15  3  0
 15 16  1  0
 16 17  1  0
 16 18  1  0
 16 19  1  0
 19 20  1  0
 13 21  1  0
 21 22  1  0
 21 23  2  0
 23 24  1  0
 24 25  1  0
 25 26  2  0
 25 27  1  0
 27 28  1  0
 28 29  1  0
 28 30  1  0
 28 31  1  0
 31 32  1  0
 31 33  2  0
 33 34  1  0
 33 35  1  0
 35 36  2  0
 35 37  1  0
 37 38  1  0
 38 39  1  0
 38 40  1  0
 38 41  1  0
 41 42  1  0
 41 43  1  0
 41 44  1  0
 24  5  1  0
 23  8  1  0
M  CHG  1   2  -1
M  END
>  <UniqueID>  (24) 
24

>  <SMILES>  (24) 
CCOC(=O)/C=C\COC(=O)n1c(C([NH-])=O)cc2ccc(C#CCO)cc21

>  <Energy>  (24) 
75.0300731932907

>  <Genealogy>  (24) 
CCOC(=O)/C=C\COC(=O)n1c(C([NH-])=O)cc2ccc(C#CCO)cc21 (protonated)
CCOC(=O)/C=C\COC(=O)n1c(C([NH-])=O)cc2ccc(C#CCO)cc21 (cis-trans isomerization)
CCOC(=O)/C=C\COC(=O)n1c(C([NH-])=O)cc2ccc(C#CCO)cc21 (3D coordinates assigned)
CCOC(=O)/C=C\COC(=O)n1c(C([NH-])=O)cc2ccc(C#CCO)cc21 (optimized conformer: 75.0300731932907 kcal/mol)

>  <smiles>  (24) 
CCOC(=O)/C=C\COC(=O)n1c(C(N)=O)cc2ccc(C#CCO)cc21

>  <score_type>  (24) 
oracle

>  <origin>  (24) 
adg

>  <m_score__min__energy>  (24) 
-10.710000000000001

>  <m_primary>  (24) 
energy

$$$$
25:0
     RDKit          3D

 47 48  0  0  0  0  0  0  0  0999 V2000
   -7.2420   18.3260  -32.8280 C   0  0  0  0  0  0  0  0  0  0  0  0
   -7.3820   19.7680  -32.4380 C   0  0  0  0  0  0  0  0  0  0  0  0
   -8.6650   20.3660  -32.4010 C   0  0  0  0  0  0  0  0  0  0  0  0
   -8.8240   21.6930  -31.9720 C   0  0  0  0  0  0  0  0  0  0  0  0
   -7.6840   22.3950  -31.5940 C   0  0  0  0  0  0  0  0  0  0  0  0
   -7.5630   23.6700  -31.0910 C   0  0  0  0  0  0  0  0  0  0  0  0
   -6.2030   23.8410  -30.8490 C   0  0  0  0  0  0  0  0  0  0  0  0
   -5.6200   25.0990  -30.3430 C   0  0  0  0  0  0  0  0  0  0  0  0
   -6.1540   25.7470  -29.1890 N   0  0  0  0  0  0  0  0  0  0  0  0
   -4.6000   25.5780  -30.9040 O   0  0  0  0  0  0  0  0  0  0  0  0
   -5.5090   22.7110  -31.1710 N   0  0  0  0  0  0  0  0  0  0  0  0
   -4.1150   22.4490  -30.9290 C   0  0  0  0  0  0  0  0  0  0  0  0
   -3.7260   22.1180  -29.7770 O   0  0  0  0  0  0  0  0  0  0  0  0
   -3.1910   22.5690  -31.9760 O   0  0  0  0  0  0  0  0  0  0  0  0
   -2.2400   21.5580  -32.3020 C   0  0  0  0  0  0  0  0  0  0  0  0
   -1.1380   21.5120  -31.2860 C   0  0  0  0  0  0  0  0  0  0  0  0
   -0.1670   20.7300  -31.4650 O   0  0  0  0  0  0  0  0  0  0  0  0
   -1.1690   22.3860  -30.1470 N   0  0  0  0  0  0  0  0  0  0  0  0
   -0.3270   22.2050  -28.9950 C   0  0  0  0  0  0  0  0  0  0  0  0
    0.2310   21.0880  -28.8040 O   0  0  0  0  0  0  0  0  0  0  0  0
   -0.1360   23.2670  -28.0350 N   0  0  0  0  0  0  0  0  0  0  0  0
    0.6810   23.0080  -26.8450 C   0  0  0  0  0  0  0  0  0  0  0  0
   -0.6960   24.6120  -28.2390 C   0  0  0  0  0  0  0  0  0  0  0  0
   -2.2150   24.5600  -28.4090 C   0  0  0  0  0  0  0  0  0  0  0  0
   -2.5720   24.9390  -29.7120 O   0  0  0  0  0  0  0  0  0  0  0  0
   -6.4320   21.8340  -31.6280 C   0  0  0  0  0  0  0  0  0  0  0  0
   -6.2500   20.5020  -32.0260 C   0  0  0  0  0  0  0  0  0  0  0  0
   -7.1817   17.7053  -31.9219 H   0  0  0  0  0  0  0  0  0  0  0  0
   -8.1148   18.0210  -33.4240 H   0  0  0  0  0  0  0  0  0  0  0  0
   -6.3269   18.1945  -33.4240 H   0  0  0  0  0  0  0  0  0  0  0  0
   -9.5458   19.7849  -32.7115 H   0  0  0  0  0  0  0  0  0  0  0  0
   -9.8180   22.1627  -31.9359 H   0  0  0  0  0  0  0  0  0  0  0  0
   -8.3688   24.3984  -30.9173 H   0  0  0  0  0  0  0  0  0  0  0  0
   -5.7640   26.6610  -28.8710 H   0  0  0  0  0  0  0  0  0  0  0  0
   -6.8650   25.2710  -28.5910 H   0  0  0  0  0  0  0  0  0  0  0  0
   -2.7467   20.5820  -32.3281 H   0  0  0  0  0  0  0  0  0  0  0  0
   -1.8028   21.7905  -33.2842 H   0  0  0  0  0  0  0  0  0  0  0  0
   -1.8700   23.1600  -30.1510 H   0  0  0  0  0  0  0  0  0  0  0  0
    0.0831   23.1976  -25.9414 H   0  0  0  0  0  0  0  0  0  0  0  0
    1.0150   21.9599  -26.8505 H   0  0  0  0  0  0  0  0  0  0  0  0
    1.5578   23.6722  -26.8505 H   0  0  0  0  0  0  0  0  0  0  0  0
   -0.4540   25.2373  -27.3669 H   0  0  0  0  0  0  0  0  0  0  0  0
   -0.2579   25.0360  -29.1546 H   0  0  0  0  0  0  0  0  0  0  0  0
   -2.5665   23.5350  -28.2200 H   0  0  0  0  0  0  0  0  0  0  0  0
   -2.6793   25.2552  -27.6940 H   0  0  0  0  0  0  0  0  0  0  0  0
   -3.1280   24.2000  -30.0740 H   0  0  0  0  0  0  0  0  0  0  0  0
   -5.2510   20.0416  -32.0172 H   0  0  0  0  0  0  0  0  0  0  0  0
  1  2  1  0
  2  3  2  0
  3  4  1  0
  4  5  2  0
  5  6  1  0
  6  7  2  0
  7  8  1  0
  8  9  1  0
  8 10  2  0
  7 11  1  0
 11 12  1  0
 12 13  2  0
 12 14  1  0
 14 15  1  0
 15 16  1  0
 16 17  2  0
 16 18  1  0
 18 19  1  0
 19 20  2  0
 19 21  1  0
 21 22  1  0
 21 23  1  0
 23 24  1  0
 24 25  1  0
 11 26  1  0
 26 27  2  0
 27  2  1  0
 26  5  1  0
  1 28  1  0
  1 29  1  0
  1 30  1  0
  3 31  1  0
  4 32  1  0
  6 33  1  0
  9 34  1  0
  9 35  1  0
 15 36  1  0
 15 37  1  0
 18 38  1  0
 22 39  1  0
 22 40  1  0
 22 41  1  0
 23 42  1  0
 23 43  1  0
 24 44  1  0
 24 45  1  0
 25 46  1  0
 27 47  1  0
M  END
>  <UniqueID>  (25) 
25

>  <SMILES>  (25) 
Cc1ccc2cc(C(N)=O)n(C(=O)OCC(=O)NC(=O)N(C)CCO)c2c1

>  <Energy>  (25) 
80.38803043607851

>  <Genealogy>  (25) 
Cc1ccc2cc(C(N)=O)n(C(=O)OCC(=O)NC(=O)N(C)CCO)c2c1 (3D coordinates assigned)
Cc1ccc2cc(C(N)=O)n(C(=O)OCC(=O)NC(=O)N(C)CCO)c2c1 (optimized conformer: 80.38803043607851 kcal/mol)

>  <smiles>  (25) 
Cc1ccc2cc(C(N)=O)n(C(=O)OCC(=O)NC(=O)N(C)CCO)c2c1

>  <score_type>  (25) 
oracle

>  <origin>  (25) 
adg

>  <m_score__min__energy>  (25) 
-8.9800000000000004

>  <m_primary>  (25) 
energy

$$$$
26:0
     RDKit          3D

 48 49  0  0  0  0  0  0  0  0999 V2000
   -7.5900   18.1830  -32.6840 C   0  0  0  0  0  0  0  0  0  0  0  0
   -7.6640   19.6310  -32.2910 C   0  0  0  0  0  0  0  0  0  0  0  0
   -8.9160   20.2050  -31.9600 C   0  0  0  0  0  0  0  0  0  0  0  0
   -9.0020   21.5450  -31.5440 C   0  0  0  0  0  0  0  0  0  0  0  0
   -7.8210   22.2750  -31.4450 C   0  0  0  0  0  0  0  0  0  0  0  0
   -7.6110   23.5730  -31.0410 C   0  0  0  0  0  0  0  0  0  0  0  0
   -6.2300   23.7610  -31.1000 C   0  0  0  0  0  0  0  0  0  0  0  0
   -5.5570   25.0240  -30.7230 C   0  0  0  0  0  0  0  0  0  0  0  0
   -4.2270   25.3030  -31.1530 N   0  0  0  0  0  0  0  0  0  0  0  0
   -6.1540   25.8560  -29.9880 O   0  0  0  0  0  0  0  0  0  0  0  0
   -5.6140   22.6170  -31.5080 N   0  0  0  0  0  0  0  0  0  0  0  0
   -4.2110   22.4080  -31.7350 C   0  0  0  0  0  0  0  0  0  0  0  0
   -3.7370   22.6510  -32.8760 O   0  0  0  0  0  0  0  0  0  0  0  0
   -3.3600   21.9120  -30.6780 N   0  0  0  0  0  0  0  0  0  0  0  0
   -3.4980   20.5310  -30.2040 C   0  0  0  0  0  0  0  0  0  0  0  0
   -2.2920   22.7150  -30.1360 C   0  0  0  0  0  0  0  0  0  0  0  0
   -1.0900   22.3420  -30.2460 O   0  0  0  0  0  0  0  0  0  0  0  0
   -2.6010   23.9090  -29.4690 O   0  0  0  0  0  0  0  0  0  0  0  0
   -3.6610   24.0280  -28.5230 C   0  0  0  0  0  0  0  0  0  0  0  0
   -3.1120   23.9020  -27.0960 C   0  0  0  0  0  0  0  0  0  0  0  0
   -2.8540   25.2620  -26.4290 C   0  0  0  0  0  0  0  0  0  0  0  0
   -1.3640   25.5290  -26.1830 C   0  0  0  0  0  0  0  0  0  0  0  0
   -0.4820   25.7760  -27.7550 P   0  0  2  0  0  0  0  0  0  0  0  0
    0.6370   26.7770  -27.5660 O   0  0  0  0  0  0  0  0  0  0  0  0
   -1.5640   26.3690  -28.9100 O   0  0  0  0  0  0  0  0  0  0  0  0
    0.1620   24.3080  -28.2920 O   0  0  0  0  0  0  0  0  0  0  0  0
   -6.5990   21.7210  -31.7240 C   0  0  0  0  0  0  0  0  0  0  0  0
   -6.4850   20.3970  -32.1650 C   0  0  0  0  0  0  0  0  0  0  0  0
   -7.5581   17.5586  -31.7789 H   0  0  0  0  0  0  0  0  0  0  0  0
   -8.4758   17.9192  -33.2804 H   0  0  0  0  0  0  0  0  0  0  0  0
   -6.6819   18.0109  -33.2804 H   0  0  0  0  0  0  0  0  0  0  0  0
   -9.8297   19.5964  -32.0291 H   0  0  0  0  0  0  0  0  0  0  0  0
   -9.9730   22.0027  -31.3040 H   0  0  0  0  0  0  0  0  0  0  0  0
   -8.3711   24.3073  -30.7360 H   0  0  0  0  0  0  0  0  0  0  0  0
   -3.5140   24.5410  -31.2190 H   0  0  0  0  0  0  0  0  0  0  0  0
   -3.4992   20.5193  -29.1041 H   0  0  0  0  0  0  0  0  0  0  0  0
   -4.4429   20.1083  -30.5762 H   0  0  0  0  0  0  0  0  0  0  0  0
   -2.6555   19.9297  -30.5762 H   0  0  0  0  0  0  0  0  0  0  0  0
   -4.1454   25.0085  -28.6410 H   0  0  0  0  0  0  0  0  0  0  0  0
   -4.3921   23.2252  -28.6992 H   0  0  0  0  0  0  0  0  0  0  0  0
   -3.8409   23.3462  -26.4879 H   0  0  0  0  0  0  0  0  0  0  0  0
   -2.1465   23.3789  -27.1602 H   0  0  0  0  0  0  0  0  0  0  0  0
   -3.2502   26.0543  -27.0811 H   0  0  0  0  0  0  0  0  0  0  0  0
   -3.3551   25.2515  -25.4498 H   0  0  0  0  0  0  0  0  0  0  0  0
   -1.2571   26.4320  -25.5641 H   0  0  0  0  0  0  0  0  0  0  0  0
   -0.9305   24.6583  -25.6692 H   0  0  0  0  0  0  0  0  0  0  0  0
   -0.5330   23.9310  -28.8900 H   0  0  0  0  0  0  0  0  0  0  0  0
   -5.5027   19.9651  -32.4069 H   0  0  0  0  0  0  0  0  0  0  0  0
  1  2  1  0
  2  3  2  0
  3  4  1  0
  4  5  2  0
  5  6  1  0
  6  7  2  0
  7  8  1  0
  8  9  1  0
  8 10  2  0
  7 11  1  0
 11 12  1  0
 12 13  2  0
 12 14  1  0
 14 15  1  0
 14 16  1  0
 16 17  2  0
 16 18  1  0
 18 19  1  0
 19 20  1  0
 20 21  1  0
 21 22  1  0
 22 23  1  0
 23 24  2  0
 23 25  1  6
 23 26  1  0
 11 27  1  0
 27 28  2  0
 28  2  1  0
 27  5  1  0
  1 29  1  0
  1 30  1  0
  1 31  1  0
  3 32  1  0
  4 33  1  0
  6 34  1  0
  9 35  1  0
 15 36  1  0
 15 37  1  0
 15 38  1  0
 19 39  1  0
 19 40  1  0
 20 41  1  0
 20 42  1  0
 21 43  1  0
 21 44  1  0
 22 45  1  0
 22 46  1  0
 26 47  1  0
 28 48  1  0
M  CHG  2   9  -1  25  -1
M  END
>  <UniqueID>  (26) 
26

>  <SMILES>  (26) 
Cc1ccc2cc(C([NH-])=O)n(C(=O)N(C)C(=O)OCCCC[P@](=O)([O-])O)c2c1

>  <Energy>  (26) 
77.17770682315275

>  <Genealogy>  (26) 
Cc1ccc2cc(C([NH-])=O)n(C(=O)N(C)C(=O)OCCCCP(=O)([O-])O)c2c1 (protonated)
Cc1ccc2cc(C([NH-])=O)n(C(=O)N(C)C(=O)OCCCC[P@](=O)([O-])O)c2c1 (chirality)
Cc1ccc2cc(C([NH-])=O)n(C(=O)N(C)C(=O)OCCCC[P@](=O)([O-])O)c2c1 (3D coordinates assigned)
Cc1ccc2cc(C([NH-])=O)n(C(=O)N(C)C(=O)OCCCC[P@](=O)([O-])O)c2c1 (optimized conformer: 77.17770682315275 kcal/mol)

>  <smiles>  (26) 
Cc1ccc2cc(C(N)=O)n(C(=O)N(C)C(=O)OCCCCP(=O)(O)O)c2c1

>  <score_type>  (26) 
oracle

>  <origin>  (26) 
adg

>  <m_score__min__energy>  (26) 
-12.609999999999999

>  <m_primary>  (26) 
energy

$$$$
27:0
     RDKit          3D

 42 43  0  0  0  0  0  0  0  0999 V2000
   -6.0160   17.7470  -34.5470 C   0  0  0  0  0  0  0  0  0  0  0  0
   -6.3620   18.6330  -33.8620 N   0  0  0  0  0  0  0  0  0  0  0  0
   -6.7840   19.6750  -33.0770 C   0  0  0  0  0  0  0  0  0  0  0  0
   -8.1010   19.7700  -32.7570 C   0  0  0  0  0  0  0  0  0  0  0  0
   -8.5420   20.8050  -31.9720 C   0  0  0  0  0  0  0  0  0  0  0  0
   -7.6340   21.7360  -31.5200 C   0  0  0  0  0  0  0  0  0  0  0  0
   -7.8000   22.8470  -30.7380 C   0  0  0  0  0  0  0  0  0  0  0  0
   -6.5530   23.4730  -30.5580 C   0  0  0  0  0  0  0  0  0  0  0  0
   -6.4440   24.6810  -29.7640 C   0  0  0  0  0  0  0  0  0  0  0  0
   -5.3080   24.8550  -28.8750 N   0  0  0  0  0  0  0  0  0  0  0  0
   -7.2400   25.6380  -29.7460 O   0  0  0  0  0  0  0  0  0  0  0  0
   -5.6460   22.7440  -31.2260 N   0  0  0  0  0  0  0  0  0  0  0  0
   -4.2690   23.0310  -31.3010 C   0  0  0  0  0  0  0  0  0  0  0  0
   -3.8050   24.1910  -31.0210 O   0  0  0  0  0  0  0  0  0  0  0  0
   -3.1980   22.0720  -31.7010 C   0  0  0  0  0  0  0  0  0  0  0  0
   -2.7520   21.4460  -30.3520 C   0  0  0  0  0  0  0  0  0  0  0  0
   -1.6850   22.2420  -29.7280 C   0  0  0  0  0  0  0  0  0  0  0  0
   -0.8720   22.8870  -30.4680 O   0  0  0  0  0  0  0  0  0  0  0  0
   -1.4750   22.3580  -28.3310 N   0  0  0  0  0  0  0  0  0  0  0  0
   -1.4050   21.1260  -27.5670 C   0  0  0  0  0  0  0  0  0  0  0  0
   -1.3290   23.6050  -27.6310 C   0  0  0  0  0  0  0  0  0  0  0  0
   -2.3410   24.6090  -28.0650 C   0  0  0  0  0  0  0  0  0  0  0  0
   -3.3370   24.9160  -27.3380 O   0  0  0  0  0  0  0  0  0  0  0  0
   -2.1900   25.2170  -29.2890 O   0  0  0  0  0  0  0  0  0  0  0  0
   -6.2810   21.6890  -31.8140 C   0  0  0  0  0  0  0  0  0  0  0  0
   -5.8850   20.6310  -32.6050 C   0  0  0  0  0  0  0  0  0  0  0  0
   -8.8131   19.0176  -33.1271 H   0  0  0  0  0  0  0  0  0  0  0  0
   -9.6063   20.8899  -31.7074 H   0  0  0  0  0  0  0  0  0  0  0  0
   -8.7552   23.1947  -30.3177 H   0  0  0  0  0  0  0  0  0  0  0  0
   -4.3530   25.0270  -29.2750 H   0  0  0  0  0  0  0  0  0  0  0  0
   -5.4610   24.8070  -27.8380 H   0  0  0  0  0  0  0  0  0  0  0  0
   -3.5928   21.3023  -32.3805 H   0  0  0  0  0  0  0  0  0  0  0  0
   -2.3718   22.5537  -32.2444 H   0  0  0  0  0  0  0  0  0  0  0  0
   -3.6153   21.4056  -29.6715 H   0  0  0  0  0  0  0  0  0  0  0  0
   -2.3661   20.4344  -30.5461 H   0  0  0  0  0  0  0  0  0  0  0  0
   -1.4183   21.3598  -26.4922 H   0  0  0  0  0  0  0  0  0  0  0  0
   -2.2685   20.4913  -27.8149 H   0  0  0  0  0  0  0  0  0  0  0  0
   -0.4751   20.5932  -27.8149 H   0  0  0  0  0  0  0  0  0  0  0  0
   -1.4483   23.4233  -26.5527 H   0  0  0  0  0  0  0  0  0  0  0  0
   -0.3309   24.0078  -27.8578 H   0  0  0  0  0  0  0  0  0  0  0  0
   -1.9000   24.6240  -30.0820 H   0  0  0  0  0  0  0  0  0  0  0  0
   -4.8223   20.5378  -32.8732 H   0  0  0  0  0  0  0  0  0  0  0  0
  1  2  3  0
  2  3  1  0
  3  4  2  0
  4  5  1  0
  5  6  2  0
  6  7  1  0
  7  8  2  0
  8  9  1  0
  9 10  1  0
  9 11  2  0
  8 12  1  0
 12 13  1  0
 13 14  2  0
 13 15  1  0
 15 16  1  0
 16 17  1  0
 17 18  2  0
 17 19  1  0
 19 20  1  0
 19 21  1  0
 21 22  1  0
 22 23  2  0
 22 24  1  0
 12 25  1  0
 25 26  2  0
 26  3  1  0
 25  6  1  0
  4 27  1  0
  5 28  1  0
  7 29  1  0
 10 30  1  0
 10 31  1  0
 15 32  1  0
 15 33  1  0
 16 34  1  0
 16 35  1  0
 20 36  1  0
 20 37  1  0
 20 38  1  0
 21 39  1  0
 21 40  1  0
 24 41  1  0
 26 42  1  0
M  CHG  2   1  -1   2   1
M  END
>  <smiles>  (27) 
[C-]#[N+]c1ccc2cc(C(N)=O)n(C(=O)CCC(=O)N(C)CC(=O)O)c2c1

>  <score_type>  (27) 
oracle

>  <origin>  (27) 
adg

>  <m_score__min__energy>  (27) 
-9.8200000000000003

>  <m_primary>  (27) 
energy

$$$$
28:0
     RDKit          3D

 39 40  0  0  0  0  0  0  0  0999 V2000
   -2.7840   20.1300  -31.3560 C   0  0  0  0  0  0  0  0  0  0  0  0
   -2.4740   20.9190  -32.6370 C   0  0  0  0  0  0  0  0  0  0  0  0
   -2.7750   20.0280  -33.8570 C   0  0  0  0  0  0  0  0  0  0  0  0
   -0.9910   21.3340  -32.6180 C   0  0  0  0  0  0  0  0  0  0  0  0
   -3.3210   22.0760  -32.6350 O   0  0  0  0  0  0  0  0  0  0  0  0
   -3.8150   22.7450  -31.5050 C   0  0  0  0  0  0  0  0  0  0  0  0
   -3.0410   23.1220  -30.5840 O   0  0  0  0  0  0  0  0  0  0  0  0
   -5.2270   22.9730  -31.3850 N   0  0  0  0  0  0  0  0  0  0  0  0
   -5.8590   24.0570  -30.8530 C   0  0  0  0  0  0  0  0  0  0  0  0
   -5.2150   25.3180  -30.4280 C   0  0  0  0  0  0  0  0  0  0  0  0
   -3.8930   25.6430  -30.8460 N   0  0  0  0  0  0  0  0  0  0  0  0
   -5.8590   26.1410  -29.7240 O   0  0  0  0  0  0  0  0  0  0  0  0
   -7.2390   23.8580  -30.8360 C   0  0  0  0  0  0  0  0  0  0  0  0
   -7.4340   22.6110  -31.3870 C   0  0  0  0  0  0  0  0  0  0  0  0
   -8.6120   21.8990  -31.5980 C   0  0  0  0  0  0  0  0  0  0  0  0
   -8.5130   20.6140  -32.1550 C   0  0  0  0  0  0  0  0  0  0  0  0
   -7.2480   20.0670  -32.4900 C   0  0  0  0  0  0  0  0  0  0  0  0
   -7.1520   18.6720  -33.0420 C   0  0  0  0  0  0  0  0  0  0  0  0
   -5.8540   18.4930  -33.7610 C   0  0  0  0  0  0  0  0  0  0  0  0
   -5.7200   18.9160  -34.9400 O   0  0  0  0  0  0  0  0  0  0  0  0
   -4.7760   17.9030  -33.1140 O   0  0  0  0  0  0  0  0  0  0  0  0
   -6.0750   20.8140  -32.2490 C   0  0  0  0  0  0  0  0  0  0  0  0
   -6.2040   22.0990  -31.7100 C   0  0  0  0  0  0  0  0  0  0  0  0
   -2.5417   20.7466  -30.4779 H   0  0  0  0  0  0  0  0  0  0  0  0
   -3.8521   19.8676  -31.3364 H   0  0  0  0  0  0  0  0  0  0  0  0
   -2.1802   19.2107  -31.3364 H   0  0  0  0  0  0  0  0  0  0  0  0
   -3.1095   19.0378  -33.5142 H   0  0  0  0  0  0  0  0  0  0  0  0
   -3.5661   20.4924  -34.4640 H   0  0  0  0  0  0  0  0  0  0  0  0
   -1.8643   19.9175  -34.4640 H   0  0  0  0  0  0  0  0  0  0  0  0
   -0.6503   21.4294  -31.5765 H   0  0  0  0  0  0  0  0  0  0  0  0
   -0.3897   20.5696  -33.1320 H   0  0  0  0  0  0  0  0  0  0  0  0
   -0.8738   22.2994  -33.1320 H   0  0  0  0  0  0  0  0  0  0  0  0
   -3.0610   25.2880  -30.3250 H   0  0  0  0  0  0  0  0  0  0  0  0
   -8.0082   24.5498  -30.4621 H   0  0  0  0  0  0  0  0  0  0  0  0
   -9.5897   22.3299  -31.3364 H   0  0  0  0  0  0  0  0  0  0  0  0
   -9.4253   20.0258  -32.3333 H   0  0  0  0  0  0  0  0  0  0  0  0
   -7.2130   17.9486  -32.2156 H   0  0  0  0  0  0  0  0  0  0  0  0
   -7.9801   18.5056  -33.7466 H   0  0  0  0  0  0  0  0  0  0  0  0
   -5.0837   20.3964  -32.4792 H   0  0  0  0  0  0  0  0  0  0  0  0
  1  2  1  0
  2  3  1  0
  2  4  1  0
  2  5  1  0
  5  6  1  0
  6  7  2  0
  6  8  1  0
  8  9  1  0
  9 10  1  0
 10 11  1  0
 10 12  2  0
  9 13  2  0
 13 14  1  0
 14 15  2  0
 15 16  1  0
 16 17  2  0
 17 18  1  0
 18 19  1  0
 19 20  2  0
 19 21  1  0
 17 22  1  0
 22 23  2  0
 23  8  1  0
 23 14  1  0
  1 24  1  0
  1 25  1  0
  1 26  1  0
  3 27  1  0
  3 28  1  0
  3 29  1  0
  4 30  1  0
  4 31  1  0
  4 32  1  0
 11 33  1  0
 13 34  1  0
 15 35  1  0
 16 36  1  0
 18 37  1  0
 18 38  1  0
 22 39  1  0
M  CHG  2  11  -1  21  -1
M  END
>  <UniqueID>  (28) 
27

>  <SMILES>  (28) 
CC(C)(C)OC(=O)n1c(C([NH-])=O)cc2ccc(CC(=O)[O-])cc21

>  <Energy>  (28) 
71.43050332758398

>  <Genealogy>  (28) 
CC(C)(C)OC(=O)n1c(C([NH-])=O)cc2ccc(CC(=O)[O-])cc21 (protonated)
CC(C)(C)OC(=O)n1c(C([NH-])=O)cc2ccc(CC(=O)[O-])cc21 (3D coordinates assigned)
CC(C)(C)OC(=O)n1c(C([NH-])=O)cc2ccc(CC(=O)[O-])cc21 (optimized conformer: 71.43050332758398 kcal/mol)

>  <smiles>  (28) 
CC(C)(C)OC(=O)n1c(C(N)=O)cc2ccc(CC(=O)O)cc21

>  <score_type>  (28) 
oracle

>  <origin>  (28) 
adg

>  <m_score__min__energy>  (28) 
-9.9600000000000009

>  <m_primary>  (28) 
energy

$$$$
29:0
     RDKit          3D

 41 42  0  0  0  0  0  0  0  0999 V2000
   -5.5260   17.8360  -34.8210 C   0  0  0  0  0  0  0  0  0  0  0  0
   -5.9620   18.6860  -34.0850 C   0  0  0  0  0  0  0  0  0  0  0  0
   -6.4800   19.7020  -33.2060 C   0  0  0  0  0  0  0  0  0  0  0  0
   -7.8440   19.6800  -32.8330 C   0  0  0  0  0  0  0  0  0  0  0  0
   -8.3600   20.6580  -31.9650 C   0  0  0  0  0  0  0  0  0  0  0  0
   -7.4910   21.6420  -31.5010 C   0  0  0  0  0  0  0  0  0  0  0  0
   -7.7180   22.6850  -30.6320 C   0  0  0  0  0  0  0  0  0  0  0  0
   -6.4950   23.3390  -30.5150 C   0  0  0  0  0  0  0  0  0  0  0  0
   -6.3030   24.5700  -29.7210 C   0  0  0  0  0  0  0  0  0  0  0  0
   -5.0870   24.8110  -29.0100 N   0  0  0  0  0  0  0  0  0  0  0  0
   -7.2070   25.4470  -29.7120 O   0  0  0  0  0  0  0  0  0  0  0  0
   -5.5430   22.7190  -31.2680 N   0  0  0  0  0  0  0  0  0  0  0  0
   -4.1420   23.0270  -31.3310 C   0  0  0  0  0  0  0  0  0  0  0  0
   -3.7550   24.2210  -31.2060 O   0  0  0  0  0  0  0  0  0  0  0  0
   -3.2120   22.0040  -31.5400 O   0  0  0  0  0  0  0  0  0  0  0  0
   -2.3930   21.4840  -30.5000 C   0  0  0  0  0  0  0  0  0  0  0  0
   -3.2010   21.1720  -29.3710 O   0  0  0  0  0  0  0  0  0  0  0  0
   -3.3940   22.0570  -28.3050 C   0  0  0  0  0  0  0  0  0  0  0  0
   -4.5620   22.4090  -27.9790 O   0  0  0  0  0  0  0  0  0  0  0  0
   -2.2560   22.5640  -27.5850 N   0  0  0  0  0  0  0  0  0  0  0  0
   -1.2730   21.6180  -27.0520 C   0  0  0  0  0  0  0  0  0  0  0  0
   -2.0950   24.0060  -27.3640 C   0  0  0  0  0  0  0  0  0  0  0  0
   -1.6210   24.6700  -28.6160 C   0  0  0  0  0  0  0  0  0  0  0  0
   -2.4340   25.2980  -29.3450 O   0  0  0  0  0  0  0  0  0  0  0  0
   -0.2900   24.5660  -29.0000 O   0  0  0  0  0  0  0  0  0  0  0  0
   -6.1690   21.6830  -31.8710 C   0  0  0  0  0  0  0  0  0  0  0  0
   -5.6250   20.7090  -32.7170 C   0  0  0  0  0  0  0  0  0  0  0  0
   -5.1283   17.0607  -35.4923 H   0  0  0  0  0  0  0  0  0  0  0  0
   -8.5052   18.8928  -33.2245 H   0  0  0  0  0  0  0  0  0  0  0  0
   -9.4173   20.6463  -31.6618 H   0  0  0  0  0  0  0  0  0  0  0  0
   -8.6643   22.9460  -30.1357 H   0  0  0  0  0  0  0  0  0  0  0  0
   -4.2540   24.1950  -29.1390 H   0  0  0  0  0  0  0  0  0  0  0  0
   -4.9880   25.6650  -28.4160 H   0  0  0  0  0  0  0  0  0  0  0  0
   -1.8876   20.5727  -30.8522 H   0  0  0  0  0  0  0  0  0  0  0  0
   -1.6404   22.2343  -30.2161 H   0  0  0  0  0  0  0  0  0  0  0  0
   -1.2988   21.6429  -25.9526 H   0  0  0  0  0  0  0  0  0  0  0  0
   -1.5137   20.6032  -27.4016 H   0  0  0  0  0  0  0  0  0  0  0  0
   -0.2682   21.8975  -27.4016 H   0  0  0  0  0  0  0  0  0  0  0  0
   -3.0619   24.4383  -27.0671 H   0  0  0  0  0  0  0  0  0  0  0  0
   -1.3519   24.1666  -26.5690 H   0  0  0  0  0  0  0  0  0  0  0  0
   -4.5601   20.7296  -32.9920 H   0  0  0  0  0  0  0  0  0  0  0  0
  1  2  3  0
  2  3  1  0
  3  4  2  0
  4  5  1  0
  5  6  2  0
  6  7  1  0
  7  8  2  0
  8  9  1  0
  9 10  1  0
  9 11  2  0
  8 12  1  0
 12 13  1  0
 13 14  2  0
 13 15  1  0
 15 16  1  0
 16 17  1  0
 17 18  1  0
 18 19  2  0
 18 20  1  0
 20 21  1  0
 20 22  1  0
 22 23  1  0
 23 24  2  0
 23 25  1  0
 12 26  1  0
 26 27  2  0
 27  3  1  0
 26  6  1  0
  1 28  1  0
  4 29  1  0
  5 30  1  0
  7 31  1  0
 10 32  1  0
 10 33  1  0
 16 34  1  0
 16 35  1  0
 21 36  1  0
 21 37  1  0
 21 38  1  0
 22 39  1  0
 22 40  1  0
 27 41  1  0
M  CHG  1  25  -1
M  END
>  <UniqueID>  (29) 
28

>  <SMILES>  (29) 
C#Cc1ccc2cc(C(N)=O)n(C(=O)OCOC(=O)N(C)CC(=O)[O-])c2c1

>  <Energy>  (29) 
71.17361252241457

>  <Genealogy>  (29) 
C#Cc1ccc2cc(C(N)=O)n(C(=O)OCOC(=O)N(C)CC(=O)[O-])c2c1 (protonated)
C#Cc1ccc2cc(C(N)=O)n(C(=O)OCOC(=O)N(C)CC(=O)[O-])c2c1 (3D coordinates assigned)
C#Cc1ccc2cc(C(N)=O)n(C(=O)OCOC(=O)N(C)CC(=O)[O-])c2c1 (optimized conformer: 71.17361252241457 kcal/mol)

>  <smiles>  (29) 
C#Cc1ccc2cc(C(N)=O)n(C(=O)OCOC(=O)N(C)CC(=O)O)c2c1

>  <score_type>  (29) 
oracle

>  <origin>  (29) 
adg

>  <m_score__min__energy>  (29) 
-10.49

>  <m_primary>  (29) 
energy

$$$$
30:0
     RDKit          3D

 45 46  0  0  0  0  0  0  0  0999 V2000
   -5.7470   18.5210  -34.4690 C   0  0  0  0  0  0  0  0  0  0  0  0
   -6.4470   17.5230  -33.5400 C   0  0  1  0  0  0  0  0  0  0  0  0
   -5.6490   16.2240  -33.3540 C   0  0  0  0  0  0  0  0  0  0  0  0
   -5.3540   16.0370  -31.9970 O   0  0  0  0  0  0  0  0  0  0  0  0
   -6.8300   18.1450  -32.2610 N   0  0  0  0  0  0  0  0  0  0  0  0
   -7.0110   19.5510  -31.9850 C   0  0  0  0  0  0  0  0  0  0  0  0
   -8.3030   20.1130  -32.1500 C   0  0  0  0  0  0  0  0  0  0  0  0
   -8.5370   21.4780  -31.9190 C   0  0  0  0  0  0  0  0  0  0  0  0
   -7.4610   22.2640  -31.5240 C   0  0  0  0  0  0  0  0  0  0  0  0
   -7.4010   23.6140  -31.2630 C   0  0  0  0  0  0  0  0  0  0  0  0
   -6.0710   23.8670  -30.9300 C   0  0  0  0  0  0  0  0  0  0  0  0
   -5.5650   25.1860  -30.4890 C   0  0  0  0  0  0  0  0  0  0  0  0
   -4.2210   25.5800  -30.7650 N   0  0  0  0  0  0  0  0  0  0  0  0
   -6.3290   25.9880  -29.8880 O   0  0  0  0  0  0  0  0  0  0  0  0
   -5.3400   22.7180  -30.9830 N   0  0  0  0  0  0  0  0  0  0  0  0
   -3.9260   22.5710  -30.7750 C   0  0  0  0  0  0  0  0  0  0  0  0
   -3.1280   22.7370  -31.7370 O   0  0  0  0  0  0  0  0  0  0  0  0
   -3.4430   22.2510  -29.5010 O   0  0  0  0  0  0  0  0  0  0  0  0
   -2.1260   21.7570  -29.2630 C   0  0  0  0  0  0  0  0  0  0  0  0
   -1.2600   22.8360  -28.6030 C   0  0  0  0  0  0  0  0  0  0  0  0
   -2.0580   24.1140  -28.3240 C   0  0  0  0  0  0  0  0  0  0  0  0
   -2.2890   24.8280  -29.5080 O   0  0  0  0  0  0  0  0  0  0  0  0
   -6.2060   21.7460  -31.3500 C   0  0  0  0  0  0  0  0  0  0  0  0
   -5.9400   20.3930  -31.5950 C   0  0  0  0  0  0  0  0  0  0  0  0
   -5.2186   19.2744  -33.8664 H   0  0  0  0  0  0  0  0  0  0  0  0
   -5.0247   17.9867  -35.1037 H   0  0  0  0  0  0  0  0  0  0  0  0
   -6.4953   19.0182  -35.1037 H   0  0  0  0  0  0  0  0  0  0  0  0
   -7.3809   17.2262  -34.0398 H   0  0  0  0  0  0  0  0  0  0  0  0
   -6.2449   15.3742  -33.7184 H   0  0  0  0  0  0  0  0  0  0  0  0
   -4.7102   16.2904  -33.9234 H   0  0  0  0  0  0  0  0  0  0  0  0
   -5.0470   16.9180  -31.6570 H   0  0  0  0  0  0  0  0  0  0  0  0
   -6.8160   17.5060  -31.4330 H   0  0  0  0  0  0  0  0  0  0  0  0
   -9.1365   19.4678  -32.4646 H   0  0  0  0  0  0  0  0  0  0  0  0
   -9.5399   21.9115  -32.0466 H   0  0  0  0  0  0  0  0  0  0  0  0
   -8.2269   24.3392  -31.3076 H   0  0  0  0  0  0  0  0  0  0  0  0
   -3.5420   24.9240  -31.2100 H   0  0  0  0  0  0  0  0  0  0  0  0
   -3.8850   26.5280  -30.4820 H   0  0  0  0  0  0  0  0  0  0  0  0
   -2.1820   20.8815  -28.5994 H   0  0  0  0  0  0  0  0  0  0  0  0
   -1.6722   21.4750  -30.2245 H   0  0  0  0  0  0  0  0  0  0  0  0
   -0.8685   22.4459  -27.6519 H   0  0  0  0  0  0  0  0  0  0  0  0
   -0.4418   23.0877  -29.2938 H   0  0  0  0  0  0  0  0  0  0  0  0
   -3.0238   23.8441  -27.8720 H   0  0  0  0  0  0  0  0  0  0  0  0
   -1.4770   24.7485  -27.6386 H   0  0  0  0  0  0  0  0  0  0  0  0
   -2.5350   24.1600  -30.1990 H   0  0  0  0  0  0  0  0  0  0  0  0
   -4.9213   19.9924  -31.4870 H   0  0  0  0  0  0  0  0  0  0  0  0
  1  2  1  0
  2  3  1  0
  3  4  1  0
  2  5  1  0
  5  6  1  0
  6  7  2  0
  7  8  1  0
  8  9  2  0
  9 10  1  0
 10 11  2  0
 11 12  1  0
 12 13  1  0
 12 14  2  0
 11 15  1  0
 15 16  1  0
 16 17  2  0
 16 18  1  0
 18 19  1  0
 19 20  1  0
 20 21  1  0
 21 22  1  0
 15 23  1  0
 23 24  2  0
 24  6  1  0
 23  9  1  0
  1 25  1  0
  1 26  1  0
  1 27  1  0
  2 28  1  6
  3 29  1  0
  3 30  1  0
  4 31  1  0
  5 32  1  0
  7 33  1  0
  8 34  1  0
 10 35  1  0
 13 36  1  0
 13 37  1  0
 19 38  1  0
 19 39  1  0
 20 40  1  0
 20 41  1  0
 21 42  1  0
 21 43  1  0
 22 44  1  0
 24 45  1  0
M  END
>  <UniqueID>  (30) 
29

>  <SMILES>  (30) 
C[C@@H](CO)Nc1ccc2cc(C(N)=O)n(C(=O)OCCCO)c2c1

>  <Energy>  (30) 
77.9902067032516

>  <Genealogy>  (30) 
C[C@@H](CO)Nc1ccc2cc(C(N)=O)n(C(=O)OCCCO)c2c1 (chirality)
C[C@@H](CO)Nc1ccc2cc(C(N)=O)n(C(=O)OCCCO)c2c1 (3D coordinates assigned)
C[C@@H](CO)Nc1ccc2cc(C(N)=O)n(C(=O)OCCCO)c2c1 (optimized conformer: 77.9902067032516 kcal/mol)

>  <smiles>  (30) 
CC(CO)Nc1ccc2cc(C(N)=O)n(C(=O)OCCCO)c2c1

>  <score_type>  (30) 
oracle

>  <origin>  (30) 
adg

>  <m_score__min__energy>  (30) 
-8.3599999999999994

>  <m_primary>  (30) 
energy

$$$$
31:0
     RDKit          3D

 42 43  0  0  0  0  0  0  0  0999 V2000
   -2.8940   25.6770  -29.3100 H   0  0  0  0  0  0  0  0  0  0  0  0
   -1.9130   25.6140  -28.9600 N   0  0  0  0  0  0  0  0  0  0  0  0
   -1.1380   24.4340  -29.1550 C   0  0  0  0  0  0  0  0  0  0  0  0
   -0.0650   24.2880  -28.5110 O   0  0  0  0  0  0  0  0  0  0  0  0
   -1.6000   23.3600  -30.0580 C   0  0  0  0  0  0  0  0  0  0  0  0
   -0.7890   22.3080  -30.4790 C   0  0  0  0  0  0  0  0  0  0  0  0
    0.2808   22.1646  -30.2668 H   0  0  0  0  0  0  0  0  0  0  0  0
   -1.6110   21.4860  -31.2170 C   0  0  0  0  0  0  0  0  0  0  0  0
   -1.3260   20.2970  -31.8790 C   0  0  0  0  0  0  0  0  0  0  0  0
   -0.3171   19.8596  -31.8494 H   0  0  0  0  0  0  0  0  0  0  0  0
   -2.3660   19.6710  -32.5870 C   0  0  0  0  0  0  0  0  0  0  0  0
   -2.1713   18.7246  -33.1128 H   0  0  0  0  0  0  0  0  0  0  0  0
   -3.6620   20.2420  -32.6330 C   0  0  0  0  0  0  0  0  0  0  0  0
   -4.6940   19.5670  -33.3790 N   0  0  0  0  0  0  0  0  0  0  0  0
   -5.3090   20.1390  -34.0030 H   0  0  0  0  0  0  0  0  0  0  0  0
   -4.9450   18.1260  -33.3400 C   0  0  0  0  0  0  0  0  0  0  0  0
   -4.0009   17.5918  -33.5224 H   0  0  0  0  0  0  0  0  0  0  0  0
   -5.3499   17.8686  -32.3502 H   0  0  0  0  0  0  0  0  0  0  0  0
   -5.9660   17.7150  -34.4050 C   0  0  0  0  0  0  0  0  0  0  0  0
   -5.6237   16.7931  -34.8980 H   0  0  0  0  0  0  0  0  0  0  0  0
   -6.9385   17.5467  -33.9193 H   0  0  0  0  0  0  0  0  0  0  0  0
   -6.1080   18.7270  -35.3660 O   0  0  0  0  0  0  0  0  0  0  0  0
   -6.8950   19.2690  -35.0950 H   0  0  0  0  0  0  0  0  0  0  0  0
   -3.9120   21.4530  -31.9400 C   0  0  0  0  0  0  0  0  0  0  0  0
   -4.9092   21.9169  -31.9597 H   0  0  0  0  0  0  0  0  0  0  0  0
   -2.8610   22.0450  -31.2300 C   0  0  0  0  0  0  0  0  0  0  0  0
   -2.8710   23.1990  -30.5270 N   0  0  0  0  0  0  0  0  0  0  0  0
   -3.9810   24.0950  -30.3830 C   0  0  0  0  0  0  0  0  0  0  0  0
   -3.9090   25.2640  -30.8510 O   0  0  0  0  0  0  0  0  0  0  0  0
   -5.1470   23.6600  -29.7420 O   0  0  0  0  0  0  0  0  0  0  0  0
   -6.4320   23.6800  -30.3560 C   0  0  0  0  0  0  0  0  0  0  0  0
   -7.1759   24.0437  -29.6319 H   0  0  0  0  0  0  0  0  0  0  0  0
   -6.4038   24.3475  -31.2298 H   0  0  0  0  0  0  0  0  0  0  0  0
   -6.8100   22.2960  -30.8050 C   0  0  0  0  0  0  0  0  0  0  0  0
   -6.6164   21.4451  -30.1353 H   0  0  0  0  0  0  0  0  0  0  0  0
   -7.3760   22.0700  -31.9980 C   0  0  0  0  0  0  0  0  0  0  0  0
   -7.5371   22.9122  -32.6870 H   0  0  0  0  0  0  0  0  0  0  0  0
   -7.7940   20.6910  -32.4120 C   0  0  0  0  0  0  0  0  0  0  0  0
   -7.4321   19.9615  -31.6725 H   0  0  0  0  0  0  0  0  0  0  0  0
   -8.8915   20.6443  -32.4695 H   0  0  0  0  0  0  0  0  0  0  0  0
   -7.2500   20.3910  -33.6670 O   0  0  0  0  0  0  0  0  0  0  0  0
   -7.6170   19.5050  -33.9210 H   0  0  0  0  0  0  0  0  0  0  0  0
  1  2  1  0
  2  3  1  0
  3  4  2  0
  3  5  1  0
  5  6  2  0
  6  7  1  0
  6  8  1  0
  8  9  2  0
  9 10  1  0
  9 11  1  0
 11 12  1  0
 11 13  2  0
 13 14  1  0
 14 15  1  0
 14 16  1  0
 16 17  1  0
 16 18  1  0
 16 19  1  0
 19 20  1  0
 19 21  1  0
 19 22  1  0
 22 23  1  0
 13 24  1  0
 24 25  1  0
 24 26  2  0
 26 27  1  0
 27 28  1  0
 28 29  2  0
 28 30  1  0
 30 31  1  0
 31 32  1  0
 31 33  1  0
 31 34  1  0
 34 35  1  0
 34 36  2  0
 36 37  1  0
 36 38  1  0
 38 39  1  0
 38 40  1  0
 38 41  1  0
 41 42  1  0
 27  5  1  0
 26  8  1  0
M  CHG  1   2  -1
M  END
>  <UniqueID>  (31) 
30

>  <SMILES>  (31) 
[NH-]C(=O)c1cc2ccc(NCCO)cc2n1C(=O)OC/C=C/CO

>  <Energy>  (31) 
72.20194062408166

>  <Genealogy>  (31) 
[NH-]C(=O)c1cc2ccc(NCCO)cc2n1C(=O)OC/C=C/CO (protonated)
[NH-]C(=O)c1cc2ccc(NCCO)cc2n1C(=O)OC/C=C/CO (cis-trans isomerization)
[NH-]C(=O)c1cc2ccc(NCCO)cc2n1C(=O)OC/C=C/CO (3D coordinates assigned)
[NH-]C(=O)c1cc2ccc(NCCO)cc2n1C(=O)OC/C=C/CO (optimized conformer: 72.20194062408166 kcal/mol)

>  <smiles>  (31) 
NC(=O)c1cc2ccc(NCCO)cc2n1C(=O)OC/C=C/CO

>  <score_type>  (31) 
oracle

>  <origin>  (31) 
adg

>  <m_score__min__energy>  (31) 
-9.9399999999999995

>  <m_primary>  (31) 
energy

$$$$
32:0
     RDKit          3D

 38 39  0  0  0  0  0  0  0  0999 V2000
   -2.4540   21.1330  -30.3140 C   0  0  0  0  0  0  0  0  0  0  0  0
   -2.8350   21.8100  -31.5870 C   0  0  0  0  0  0  0  0  0  0  0  0
   -3.1090   23.0400  -31.5830 O   0  0  0  0  0  0  0  0  0  0  0  0
   -2.8360   21.0810  -32.7800 O   0  0  0  0  0  0  0  0  0  0  0  0
   -2.2480   19.7910  -32.8900 C   0  0  0  0  0  0  0  0  0  0  0  0
   -3.2570   18.8050  -32.7150 O   0  0  0  0  0  0  0  0  0  0  0  0
   -4.3260   18.6500  -33.6020 C   0  0  0  0  0  0  0  0  0  0  0  0
   -4.1100   18.5130  -34.8380 O   0  0  0  0  0  0  0  0  0  0  0  0
   -5.6740   18.6510  -33.1060 N   0  0  0  0  0  0  0  0  0  0  0  0
   -6.6140   17.6730  -33.2490 C   0  0  0  0  0  0  0  0  0  0  0  0
   -6.3800   16.3280  -33.8120 C   0  0  0  0  0  0  0  0  0  0  0  0
   -5.0800   15.9160  -34.2340 N   0  0  0  0  0  0  0  0  0  0  0  0
   -7.3360   15.5080  -33.8710 O   0  0  0  0  0  0  0  0  0  0  0  0
   -7.8400   18.0890  -32.7420 C   0  0  0  0  0  0  0  0  0  0  0  0
   -7.6240   19.3610  -32.2650 C   0  0  0  0  0  0  0  0  0  0  0  0
   -8.5090   20.2540  -31.6670 C   0  0  0  0  0  0  0  0  0  0  0  0
   -8.0220   21.5220  -31.3070 C   0  0  0  0  0  0  0  0  0  0  0  0
   -6.6750   21.8700  -31.5610 C   0  0  0  0  0  0  0  0  0  0  0  0
   -6.1930   23.1780  -31.2040 C   0  0  0  0  0  0  0  0  0  0  0  0
   -5.7870   24.2730  -30.9060 C   0  0  0  0  0  0  0  0  0  0  0  0
   -5.2930   25.6050  -30.5440 C   0  0  0  0  0  0  0  0  0  0  0  0
   -3.8940   25.6320  -30.6160 O   0  0  0  0  0  0  0  0  0  0  0  0
   -5.8050   20.9440  -32.1700 C   0  0  0  0  0  0  0  0  0  0  0  0
   -6.3090   19.6790  -32.4980 C   0  0  0  0  0  0  0  0  0  0  0  0
   -2.7945   21.7380  -29.4608 H   0  0  0  0  0  0  0  0  0  0  0  0
   -2.9259   20.1403  -30.2711 H   0  0  0  0  0  0  0  0  0  0  0  0
   -1.3605   21.0213  -30.2711 H   0  0  0  0  0  0  0  0  0  0  0  0
   -1.7906   19.6779  -33.8840 H   0  0  0  0  0  0  0  0  0  0  0  0
   -1.4726   19.6695  -32.1193 H   0  0  0  0  0  0  0  0  0  0  0  0
   -4.9420   14.9780  -34.6690 H   0  0  0  0  0  0  0  0  0  0  0  0
   -4.2390   16.5040  -34.0370 H   0  0  0  0  0  0  0  0  0  0  0  0
   -8.7822   17.5216  -32.7258 H   0  0  0  0  0  0  0  0  0  0  0  0
   -9.5570   19.9756  -31.4821 H   0  0  0  0  0  0  0  0  0  0  0  0
   -8.6926   22.2484  -30.8247 H   0  0  0  0  0  0  0  0  0  0  0  0
   -5.7082   26.3492  -31.2396 H   0  0  0  0  0  0  0  0  0  0  0  0
   -5.6067   25.8400  -29.5162 H   0  0  0  0  0  0  0  0  0  0  0  0
   -3.6280   24.9290  -31.2640 H   0  0  0  0  0  0  0  0  0  0  0  0
   -4.7583   21.2074  -32.3821 H   0  0  0  0  0  0  0  0  0  0  0  0
  1  2  1  0
  2  3  2  0
  2  4  1  0
  4  5  1  0
  5  6  1  0
  6  7  1  0
  7  8  2  0
  7  9  1  0
  9 10  1  0
 10 11  1  0
 11 12  1  0
 11 13  2  0
 10 14  2  0
 14 15  1  0
 15 16  2  0
 16 17  1  0
 17 18  2  0
 18 19  1  0
 19 20  3  0
 20 21  1  0
 21 22  1  0
 18 23  1  0
 23 24  2  0
 24  9  1  0
 24 15  1  0
  1 25  1  0
  1 26  1  0
  1 27  1  0
  5 28  1  0
  5 29  1  0
 12 30  1  0
 12 31  1  0
 14 32  1  0
 16 33  1  0
 17 34  1  0
 21 35  1  0
 21 36  1  0
 22 37  1  0
 23 38  1  0
M  END
>  <UniqueID>  (32) 
31

>  <SMILES>  (32) 
CC(=O)OCOC(=O)n1c(C(N)=O)cc2ccc(C#CCO)cc21

>  <Energy>  (32) 
67.37570848984902

>  <Genealogy>  (32) 
CC(=O)OCOC(=O)n1c(C(N)=O)cc2ccc(C#CCO)cc21 (3D coordinates assigned)
CC(=O)OCOC(=O)n1c(C(N)=O)cc2ccc(C#CCO)cc21 (optimized conformer: 67.37570848984902 kcal/mol)

>  <smiles>  (32) 
CC(=O)OCOC(=O)n1c(C(N)=O)cc2ccc(C#CCO)cc21

>  <score_type>  (32) 
oracle

>  <origin>  (32) 
adg

>  <m_score__min__energy>  (32) 
-7.7699999999999996

>  <m_primary>  (32) 
energy

$$$$
33:0
     RDKit          3D

 49 50  0  0  0  0  0  0  0  0999 V2000
   -8.0110   18.7310  -32.2850 C   0  0  0  0  0  0  0  0  0  0  0  0
   -7.8750   20.1980  -32.0010 C   0  0  0  0  0  0  0  0  0  0  0  0
   -9.0290   21.0200  -31.9440 C   0  0  0  0  0  0  0  0  0  0  0  0
   -8.9190   22.3850  -31.6310 C   0  0  0  0  0  0  0  0  0  0  0  0
   -7.6480   22.8950  -31.3770 C   0  0  0  0  0  0  0  0  0  0  0  0
   -7.2620   24.1680  -31.0210 C   0  0  0  0  0  0  0  0  0  0  0  0
   -5.8770   24.1050  -30.8730 C   0  0  0  0  0  0  0  0  0  0  0  0
   -5.0390   25.2860  -30.5760 C   0  0  0  0  0  0  0  0  0  0  0  0
   -3.6240   25.1710  -30.4580 N   0  0  0  0  0  0  0  0  0  0  0  0
   -5.5780   26.4220  -30.4760 O   0  0  0  0  0  0  0  0  0  0  0  0
   -5.4260   22.8420  -31.1190 N   0  0  0  0  0  0  0  0  0  0  0  0
   -4.0860   22.3430  -30.9870 C   0  0  0  0  0  0  0  0  0  0  0  0
   -3.7870   21.5940  -30.0160 O   0  0  0  0  0  0  0  0  0  0  0  0
   -3.1240   22.6700  -31.9480 O   0  0  0  0  0  0  0  0  0  0  0  0
   -2.8220   21.8280  -33.0590 C   0  0  0  0  0  0  0  0  0  0  0  0
   -3.9250   20.9700  -33.3390 O   0  0  0  0  0  0  0  0  0  0  0  0
   -3.8280   19.5740  -33.3130 C   0  0  0  0  0  0  0  0  0  0  0  0
   -2.7710   19.0100  -32.9190 O   0  0  0  0  0  0  0  0  0  0  0  0
   -4.9730   18.7420  -33.7980 C   0  0  0  0  0  0  0  0  0  0  0  0
   -4.7110   17.3210  -33.5690 N   0  0  0  0  0  0  0  0  0  0  0  0
   -5.7070   16.3100  -33.7600 C   0  0  0  0  0  0  0  0  0  0  0  0
   -6.8690   16.6250  -34.1420 O   0  0  0  0  0  0  0  0  0  0  0  0
   -5.3720   14.9710  -33.5270 O   0  0  0  0  0  0  0  0  0  0  0  0
   -4.5900   14.5240  -32.4170 C   0  0  1  0  0  0  0  0  0  0  0  0
   -4.9510   13.0660  -32.1270 C   0  0  0  0  0  0  0  0  0  0  0  0
   -3.0910   14.6510  -32.7310 C   0  0  0  0  0  0  0  0  0  0  0  0
   -2.8960   15.2140  -34.0030 O   0  0  0  0  0  0  0  0  0  0  0  0
   -6.5220   22.1140  -31.4280 C   0  0  0  0  0  0  0  0  0  0  0  0
   -6.6050   20.7470  -31.7170 C   0  0  0  0  0  0  0  0  0  0  0  0
   -8.0624   18.1770  -31.3361 H   0  0  0  0  0  0  0  0  0  0  0  0
   -8.9295   18.5531  -32.8636 H   0  0  0  0  0  0  0  0  0  0  0  0
   -7.1409   18.3873  -32.8636 H   0  0  0  0  0  0  0  0  0  0  0  0
  -10.0188   20.5851  -32.1466 H   0  0  0  0  0  0  0  0  0  0  0  0
   -9.8085   23.0307  -31.5879 H   0  0  0  0  0  0  0  0  0  0  0  0
   -7.9085   25.0472  -30.8828 H   0  0  0  0  0  0  0  0  0  0  0  0
   -3.0600   24.7020  -31.2020 H   0  0  0  0  0  0  0  0  0  0  0  0
   -2.6129   22.4510  -33.9411 H   0  0  0  0  0  0  0  0  0  0  0  0
   -1.9419   21.2144  -32.8162 H   0  0  0  0  0  0  0  0  0  0  0  0
   -5.8857   19.0329  -33.2573 H   0  0  0  0  0  0  0  0  0  0  0  0
   -5.1003   18.9094  -34.8777 H   0  0  0  0  0  0  0  0  0  0  0  0
   -3.7630   17.0320  -33.2380 H   0  0  0  0  0  0  0  0  0  0  0  0
   -4.8044   15.1456  -31.5352 H   0  0  0  0  0  0  0  0  0  0  0  0
   -4.9903   12.9074  -31.0392 H   0  0  0  0  0  0  0  0  0  0  0  0
   -5.9330   12.8370  -32.5666 H   0  0  0  0  0  0  0  0  0  0  0  0
   -4.1893   12.4053  -32.5666 H   0  0  0  0  0  0  0  0  0  0  0  0
   -2.6170   15.2942  -31.9749 H   0  0  0  0  0  0  0  0  0  0  0  0
   -2.6403   13.6477  -32.7155 H   0  0  0  0  0  0  0  0  0  0  0  0
   -3.7290   15.0540  -34.5210 H   0  0  0  0  0  0  0  0  0  0  0  0
   -5.7039   20.1162  -31.7228 H   0  0  0  0  0  0  0  0  0  0  0  0
  1  2  1  0
  2  3  2  0
  3  4  1  0
  4  5  2  0
  5  6  1  0
  6  7  2  0
  7  8  1  0
  8  9  1  0
  8 10  2  0
  7 11  1  0
 11 12  1  0
 12 13  2  0
 12 14  1  0
 14 15  1  0
 15 16  1  0
 16 17  1  0
 17 18  2  0
 17 19  1  0
 19 20  1  0
 20 21  1  0
 21 22  2  0
 21 23  1  0
 23 24  1  0
 24 25  1  0
 24 26  1  0
 26 27  1  0
 11 28  1  0
 28 29  2  0
 29  2  1  0
 28  5  1  0
  1 30  1  0
  1 31  1  0
  1 32  1  0
  3 33  1  0
  4 34  1  0
  6 35  1  0
  9 36  1  0
 15 37  1  0
 15 38  1  0
 19 39  1  0
 19 40  1  0
 20 41  1  0
 24 42  1  1
 25 43  1  0
 25 44  1  0
 25 45  1  0
 26 46  1  0
 26 47  1  0
 27 48  1  0
 29 49  1  0
M  CHG  1   9  -1
M  END
>  <UniqueID>  (33) 
32

>  <SMILES>  (33) 
Cc1ccc2cc(C([NH-])=O)n(C(=O)OCOC(=O)CNC(=O)O[C@@H](C)CO)c2c1

>  <Energy>  (33) 
75.46245763243911

>  <Genealogy>  (33) 
Cc1ccc2cc(C([NH-])=O)n(C(=O)OCOC(=O)CNC(=O)OC(C)CO)c2c1 (protonated)
Cc1ccc2cc(C([NH-])=O)n(C(=O)OCOC(=O)CNC(=O)O[C@@H](C)CO)c2c1 (chirality)
Cc1ccc2cc(C([NH-])=O)n(C(=O)OCOC(=O)CNC(=O)O[C@@H](C)CO)c2c1 (3D coordinates assigned)
Cc1ccc2cc(C([NH-])=O)n(C(=O)OCOC(=O)CNC(=O)O[C@@H](C)CO)c2c1 (optimized conformer: 75.46245763243911 kcal/mol)

>  <smiles>  (33) 
Cc1ccc2cc(C(N)=O)n(C(=O)OCOC(=O)CNC(=O)OC(C)CO)c2c1

>  <score_type>  (33) 
oracle

>  <origin>  (33) 
adg

>  <m_score__min__energy>  (33) 
-9.8499999999999996

>  <m_primary>  (33) 
energy

$$$$
34:0
     RDKit          3D

 52 55  0  0  0  0  0  0  0  0999 V2000
   -3.9260   16.6020  -32.7220 C   0  0  0  0  0  0  0  0  0  0  0  0
   -4.7160   16.4210  -33.9530 N   0  0  0  0  0  0  0  0  0  0  0  0
   -6.1340   16.1230  -33.6550 C   0  0  0  0  0  0  0  0  0  0  0  0
   -6.8550   17.3310  -33.0330 C   0  0  0  0  0  0  0  0  0  0  0  0
   -6.4050   18.5820  -33.6550 N   0  0  0  0  0  0  0  0  0  0  0  0
   -6.6230   19.8420  -32.9910 C   0  0  0  0  0  0  0  0  0  0  0  0
   -7.9420   20.3020  -32.7350 C   0  0  0  0  0  0  0  0  0  0  0  0
   -8.1620   21.5290  -32.0880 C   0  0  0  0  0  0  0  0  0  0  0  0
   -7.0520   22.2830  -31.7220 C   0  0  0  0  0  0  0  0  0  0  0  0
   -6.9760   23.4860  -31.0580 C   0  0  0  0  0  0  0  0  0  0  0  0
   -5.6160   23.7640  -30.9500 C   0  0  0  0  0  0  0  0  0  0  0  0
   -5.0830   25.0100  -30.3580 C   0  0  0  0  0  0  0  0  0  0  0  0
   -3.8820   25.5990  -30.8470 N   0  0  0  0  0  0  0  0  0  0  0  0
   -5.7200   25.5840  -29.4340 O   0  0  0  0  0  0  0  0  0  0  0  0
   -4.8790   22.7700  -31.5200 N   0  0  0  0  0  0  0  0  0  0  0  0
   -3.4500   22.6350  -31.5460 C   0  0  0  0  0  0  0  0  0  0  0  0
   -2.7520   23.1440  -30.6290 O   0  0  0  0  0  0  0  0  0  0  0  0
   -2.8230   21.9100  -32.6120 N   0  0  0  0  0  0  0  0  0  0  0  0
   -1.4990   21.3060  -32.5090 C   0  0  0  0  0  0  0  0  0  0  0  0
   -1.2030   20.4390  -33.7460 C   0  0  1  0  0  0  0  0  0  0  0  0
   -2.3410   20.3000  -34.5600 O   0  0  0  0  0  0  0  0  0  0  0  0
   -0.0580   21.0150  -34.5310 C   0  0  0  0  0  0  0  0  0  0  0  0
   -0.0360   22.2930  -34.9630 N   0  0  0  0  0  0  0  0  0  0  0  0
    1.1170   22.3810  -35.6480 C   0  0  0  0  0  0  0  0  0  0  0  0
    1.7530   21.1640  -35.6240 C   0  0  0  0  0  0  0  0  0  0  0  0
    1.0120   20.2890  -34.9230 N   0  0  0  0  0  0  0  0  0  0  0  0
   -5.7730   21.8700  -31.9870 C   0  0  0  0  0  0  0  0  0  0  0  0
   -5.5220   20.6430  -32.6110 C   0  0  0  0  0  0  0  0  0  0  0  0
   -5.7420   18.5110  -34.9610 C   0  0  0  0  0  0  0  0  0  0  0  0
   -4.5370   17.5550  -34.8970 C   0  0  0  0  0  0  0  0  0  0  0  0
   -4.5738   16.4536  -31.8455 H   0  0  0  0  0  0  0  0  0  0  0  0
   -3.1067   15.8683  -32.7009 H   0  0  0  0  0  0  0  0  0  0  0  0
   -3.5079   17.6192  -32.7009 H   0  0  0  0  0  0  0  0  0  0  0  0
   -6.6437   15.8473  -34.5900 H   0  0  0  0  0  0  0  0  0  0  0  0
   -6.1637   15.2971  -32.9290 H   0  0  0  0  0  0  0  0  0  0  0  0
   -7.9389   17.2219  -33.1851 H   0  0  0  0  0  0  0  0  0  0  0  0
   -6.6215   17.3668  -31.9587 H   0  0  0  0  0  0  0  0  0  0  0  0
   -8.8013   19.6902  -33.0471 H   0  0  0  0  0  0  0  0  0  0  0  0
   -9.1818   21.8832  -31.8770 H   0  0  0  0  0  0  0  0  0  0  0  0
   -7.8126   24.0983  -30.6904 H   0  0  0  0  0  0  0  0  0  0  0  0
   -2.9490   25.2890  -30.4940 H   0  0  0  0  0  0  0  0  0  0  0  0
   -0.7431   22.1017  -32.4356 H   0  0  0  0  0  0  0  0  0  0  0  0
   -1.4679   20.6688  -31.6129 H   0  0  0  0  0  0  0  0  0  0  0  0
   -0.9192   19.4362  -33.3939 H   0  0  0  0  0  0  0  0  0  0  0  0
   -2.7620   21.1940  -34.6500 H   0  0  0  0  0  0  0  0  0  0  0  0
    1.4922   23.2855  -36.1490 H   0  0  0  0  0  0  0  0  0  0  0  0
    2.7175   20.9405  -36.1033 H   0  0  0  0  0  0  0  0  0  0  0  0
   -4.4913   20.3093  -32.8015 H   0  0  0  0  0  0  0  0  0  0  0  0
   -6.4573   18.1436  -35.7116 H   0  0  0  0  0  0  0  0  0  0  0  0
   -5.3880   19.5150  -35.2377 H   0  0  0  0  0  0  0  0  0  0  0  0
   -4.3672   17.1442  -35.9032 H   0  0  0  0  0  0  0  0  0  0  0  0
   -3.6826   18.1430  -34.5305 H   0  0  0  0  0  0  0  0  0  0  0  0
  1  2  1  0
  2  3  1  0
  3  4  1  0
  4  5  1  0
  5  6  1  0
  6  7  2  0
  7  8  1  0
  8  9  2  0
  9 10  1  0
 10 11  2  0
 11 12  1  0
 12 13  1  0
 12 14  2  0
 11 15  1  0
 15 16  1  0
 16 17  2  0
 16 18  1  0
 18 19  1  0
 19 20  1  0
 20 21  1  0
 20 22  1  0
 22 23  2  0
 23 24  1  0
 24 25  2  0
 25 26  1  0
 15 27  1  0
 27 28  2  0
  5 29  1  0
 29 30  1  0
 30  2  1  0
 28  6  1  0
 27  9  1  0
 26 22  1  0
  1 31  1  0
  1 32  1  0
  1 33  1  0
  3 34  1  0
  3 35  1  0
  4 36  1  0
  4 37  1  0
  7 38  1  0
  8 39  1  0
 10 40  1  0
 13 41  1  0
 19 42  1  0
 19 43  1  0
 20 44  1  1
 21 45  1  0
 24 46  1  0
 25 47  1  0
 28 48  1  0
 29 49  1  0
 29 50  1  0
 30 51  1  0
 30 52  1  0
M  CHG  3  13  -1  18  -1  26  -1
M  END
>  <UniqueID>  (34) 
33

>  <SMILES>  (34) 
CN1CCN(c2ccc3cc(C([NH-])=O)n(C(=O)[N-]C[C@@H](O)c4ncc[n-]4)c3c2)CC1

>  <Energy>  (34) 
129.15827001026912

>  <Genealogy>  (34) 
CN1CCN(c2ccc3cc(C([NH-])=O)n(C(=O)[N-]CC(O)c4ncc[n-]4)c3c2)CC1 (protonated)
CN1CCN(c2ccc3cc(C([NH-])=O)n(C(=O)[N-]C[C@@H](O)c4ncc[n-]4)c3c2)CC1 (chirality)
CN1CCN(c2ccc3cc(C([NH-])=O)n(C(=O)[N-]C[C@@H](O)c4ncc[n-]4)c3c2)CC1 (3D coordinates assigned)
CN1CCN(c2ccc3cc(C([NH-])=O)n(C(=O)[N-]C[C@@H](O)c4ncc[n-]4)c3c2)CC1 (nonaromatic ring conformer: 129.15827001026912 kcal/mol)

>  <smiles>  (34) 
CN1CCN(c2ccc3cc(C(N)=O)n(C(=O)NCC(O)c4ncc[nH]4)c3c2)CC1

>  <score_type>  (34) 
oracle

>  <origin>  (34) 
adg

>  <m_score__min__energy>  (34) 
-12.9

>  <m_primary>  (34) 
energy

$$$$
35:0
     RDKit          3D

 33 34  0  0  0  0  0  0  0  0999 V2000
   -5.5500   24.0290  -31.5740 N   0  0  0  0  0  0  0  0  0  0  0  0
   -6.7780   23.3020  -31.6440 C   0  0  0  0  0  0  0  0  0  0  0  0
   -7.8590   23.8880  -31.3720 O   0  0  0  0  0  0  0  0  0  0  0  0
   -6.7960   21.8610  -31.9660 C   0  0  0  0  0  0  0  0  0  0  0  0
   -7.9590   21.0970  -32.0050 C   0  0  0  0  0  0  0  0  0  0  0  0
   -7.5410   19.8120  -32.2650 C   0  0  0  0  0  0  0  0  0  0  0  0
   -8.2820   18.6440  -32.4080 C   0  0  0  0  0  0  0  0  0  0  0  0
   -7.5910   17.4580  -32.7010 C   0  0  0  0  0  0  0  0  0  0  0  0
   -6.1820   17.4610  -32.8740 C   0  0  0  0  0  0  0  0  0  0  0  0
   -5.4470   16.1750  -33.1530 C   0  0  0  0  0  0  0  0  0  0  0  0
   -4.2790   16.4580  -33.8350 F   0  0  0  0  0  0  0  0  0  0  0  0
   -6.2250   15.3250  -33.9220 F   0  0  0  0  0  0  0  0  0  0  0  0
   -5.1350   15.5230  -31.9720 F   0  0  0  0  0  0  0  0  0  0  0  0
   -5.4630   18.6670  -32.6980 C   0  0  0  0  0  0  0  0  0  0  0  0
   -6.1750   19.8300  -32.3850 C   0  0  0  0  0  0  0  0  0  0  0  0
   -5.7020   21.0840  -32.2090 N   0  0  0  0  0  0  0  0  0  0  0  0
   -4.3400   21.5160  -32.3550 C   0  0  0  0  0  0  0  0  0  0  0  0
   -3.9840   22.1330  -33.3960 O   0  0  0  0  0  0  0  0  0  0  0  0
   -3.4170   21.2570  -31.3370 O   0  0  0  0  0  0  0  0  0  0  0  0
   -3.2140   22.1340  -30.2300 C   0  0  0  0  0  0  0  0  0  0  0  0
   -2.5030   23.2850  -30.6280 O   0  0  0  0  0  0  0  0  0  0  0  0
   -3.1030   24.6360  -29.7750 P   0  0  0  0  0  0  0  0  0  0  0  0
   -4.0210   24.1810  -28.6620 O   0  0  0  0  0  0  0  0  0  0  0  0
   -3.9460   25.6740  -30.8130 O   0  0  0  0  0  0  0  0  0  0  0  0
   -1.8010   25.4790  -29.1020 O   0  0  0  0  0  0  0  0  0  0  0  0
   -4.6290   23.5410  -31.6210 H   0  0  0  0  0  0  0  0  0  0  0  0
   -5.5600   25.0570  -31.3860 H   0  0  0  0  0  0  0  0  0  0  0  0
   -8.9919   21.4461  -31.8591 H   0  0  0  0  0  0  0  0  0  0  0  0
   -9.3762   18.6494  -32.2950 H   0  0  0  0  0  0  0  0  0  0  0  0
   -8.1481   16.5145  -32.7978 H   0  0  0  0  0  0  0  0  0  0  0  0
   -4.3684   18.6896  -32.8049 H   0  0  0  0  0  0  0  0  0  0  0  0
   -4.1911   22.4356  -29.8247 H   0  0  0  0  0  0  0  0  0  0  0  0
   -2.6288   21.6051  -29.4633 H   0  0  0  0  0  0  0  0  0  0  0  0
  1  2  1  0
  2  3  2  0
  2  4  1  0
  4  5  2  0
  5  6  1  0
  6  7  2  0
  7  8  1  0
  8  9  2  0
  9 10  1  0
 10 11  1  0
 10 12  1  0
 10 13  1  0
  9 14  1  0
 14 15  2  0
 15 16  1  0
 16 17  1  0
 17 18  2  0
 17 19  1  0
 19 20  1  0
 20 21  1  0
 21 22  1  0
 22 23  2  0
 22 24  1  0
 22 25  1  0
 16  4  1  0
 15  6  1  0
  1 26  1  0
  1 27  1  0
  5 28  1  0
  7 29  1  0
  8 30  1  0
 14 31  1  0
 20 32  1  0
 20 33  1  0
M  CHG  2  24  -1  25  -1
M  END
>  <UniqueID>  (35) 
34

>  <SMILES>  (35) 
NC(=O)c1cc2ccc(C(F)(F)F)cc2n1C(=O)OCOP(=O)([O-])[O-]

>  <Energy>  (35) 
71.2397295183916

>  <Genealogy>  (35) 
NC(=O)c1cc2ccc(C(F)(F)F)cc2n1C(=O)OCOP(=O)([O-])[O-] (protonated)
NC(=O)c1cc2ccc(C(F)(F)F)cc2n1C(=O)OCOP(=O)([O-])[O-] (3D coordinates assigned)
NC(=O)c1cc2ccc(C(F)(F)F)cc2n1C(=O)OCOP(=O)([O-])[O-] (optimized conformer: 71.2397295183916 kcal/mol)

>  <smiles>  (35) 
NC(=O)c1cc2ccc(C(F)(F)F)cc2n1C(=O)OCOP(=O)(O)O

>  <score_type>  (35) 
oracle

>  <origin>  (35) 
adg

>  <m_score__min__energy>  (35) 
-12.109999999999999

>  <m_primary>  (35) 
energy

$$$$
36:0
     RDKit          3D

 41 42  0  0  0  0  0  0  0  0999 V2000
   -6.7930   17.5920  -33.6170 C   0  0  0  0  0  0  0  0  0  0  0  0
   -6.6020   18.1570  -32.2760 N   0  0  0  0  0  0  0  0  0  0  0  0
   -6.1930   17.2670  -31.1830 C   0  0  0  0  0  0  0  0  0  0  0  0
   -6.8130   19.5730  -32.0360 C   0  0  0  0  0  0  0  0  0  0  0  0
   -8.0950   20.1610  -32.2320 C   0  0  0  0  0  0  0  0  0  0  0  0
   -8.3060   21.5330  -32.0130 C   0  0  0  0  0  0  0  0  0  0  0  0
   -7.2280   22.3000  -31.5910 C   0  0  0  0  0  0  0  0  0  0  0  0
   -7.1500   23.6490  -31.3300 C   0  0  0  0  0  0  0  0  0  0  0  0
   -5.8290   23.8760  -30.9520 C   0  0  0  0  0  0  0  0  0  0  0  0
   -5.3280   25.1890  -30.4950 C   0  0  0  0  0  0  0  0  0  0  0  0
   -4.0180   25.6350  -30.8380 N   0  0  0  0  0  0  0  0  0  0  0  0
   -6.0500   25.9090  -29.7530 O   0  0  0  0  0  0  0  0  0  0  0  0
   -5.1160   22.7140  -30.9890 N   0  0  0  0  0  0  0  0  0  0  0  0
   -3.7140   22.5330  -30.7440 C   0  0  0  0  0  0  0  0  0  0  0  0
   -2.8670   23.0590  -31.5190 O   0  0  0  0  0  0  0  0  0  0  0  0
   -3.2930   21.7490  -29.6640 O   0  0  0  0  0  0  0  0  0  0  0  0
   -1.9230   21.5410  -29.3290 C   0  0  0  0  0  0  0  0  0  0  0  0
   -1.5680   22.2890  -28.0380 C   0  0  0  0  0  0  0  0  0  0  0  0
   -2.1030   23.7260  -28.0310 C   0  0  0  0  0  0  0  0  0  0  0  0
   -1.1610   24.6750  -28.7060 C   0  0  0  0  0  0  0  0  0  0  0  0
   -1.6070   25.6740  -29.3280 O   0  0  0  0  0  0  0  0  0  0  0  0
    0.2110   24.4760  -28.6170 O   0  0  0  0  0  0  0  0  0  0  0  0
   -5.9890   21.7580  -31.3780 C   0  0  0  0  0  0  0  0  0  0  0  0
   -5.7430   20.4000  -31.6070 C   0  0  0  0  0  0  0  0  0  0  0  0
   -7.1442   16.5532  -33.5306 H   0  0  0  0  0  0  0  0  0  0  0  0
   -7.5398   18.1873  -34.1628 H   0  0  0  0  0  0  0  0  0  0  0  0
   -5.8381   17.6121  -34.1628 H   0  0  0  0  0  0  0  0  0  0  0  0
   -6.4133   17.7464  -30.2178 H   0  0  0  0  0  0  0  0  0  0  0  0
   -6.7457   16.3187  -31.2560 H   0  0  0  0  0  0  0  0  0  0  0  0
   -5.1135   17.0688  -31.2560 H   0  0  0  0  0  0  0  0  0  0  0  0
   -8.9345   19.5306  -32.5604 H   0  0  0  0  0  0  0  0  0  0  0  0
   -9.2958   21.9860  -32.1712 H   0  0  0  0  0  0  0  0  0  0  0  0
   -7.9592   24.3904  -31.4042 H   0  0  0  0  0  0  0  0  0  0  0  0
   -3.1820   25.0360  -30.6590 H   0  0  0  0  0  0  0  0  0  0  0  0
   -1.7445   20.4652  -29.1852 H   0  0  0  0  0  0  0  0  0  0  0  0
   -1.2941   21.9229  -30.1467 H   0  0  0  0  0  0  0  0  0  0  0  0
   -2.0008   21.7464  -27.1846 H   0  0  0  0  0  0  0  0  0  0  0  0
   -0.4713   22.3383  -27.9689 H   0  0  0  0  0  0  0  0  0  0  0  0
   -3.0687   23.7487  -28.5572 H   0  0  0  0  0  0  0  0  0  0  0  0
   -2.2151   24.0434  -26.9838 H   0  0  0  0  0  0  0  0  0  0  0  0
   -4.7372   19.9806  -31.4570 H   0  0  0  0  0  0  0  0  0  0  0  0
  1  2  1  0
  2  3  1  0
  2  4  1  0
  4  5  2  0
  5  6  1  0
  6  7  2  0
  7  8  1  0
  8  9  2  0
  9 10  1  0
 10 11  1  0
 10 12  2  0
  9 13  1  0
 13 14  1  0
 14 15  2  0
 14 16  1  0
 16 17  1  0
 17 18  1  0
 18 19  1  0
 19 20  1  0
 20 21  2  0
 20 22  1  0
 13 23  1  0
 23 24  2  0
 24  4  1  0
 23  7  1  0
  1 25  1  0
  1 26  1  0
  1 27  1  0
  3 28  1  0
  3 29  1  0
  3 30  1  0
  5 31  1  0
  6 32  1  0
  8 33  1  0
 11 34  1  0
 17 35  1  0
 17 36  1  0
 18 37  1  0
 18 38  1  0
 19 39  1  0
 19 40  1  0
 24 41  1  0
M  CHG  2  11  -1  22  -1
M  END
>  <UniqueID>  (36) 
35

>  <SMILES>  (36) 
CN(C)c1ccc2cc(C([NH-])=O)n(C(=O)OCCCC(=O)[O-])c2c1

>  <Energy>  (36) 
75.62420898545135

>  <Genealogy>  (36) 
CN(C)c1ccc2cc(C([NH-])=O)n(C(=O)OCCCC(=O)[O-])c2c1 (protonated)
CN(C)c1ccc2cc(C([NH-])=O)n(C(=O)OCCCC(=O)[O-])c2c1 (3D coordinates assigned)
CN(C)c1ccc2cc(C([NH-])=O)n(C(=O)OCCCC(=O)[O-])c2c1 (optimized conformer: 75.62420898545135 kcal/mol)

>  <smiles>  (36) 
CN(C)c1ccc2cc(C(N)=O)n(C(=O)OCCCC(=O)O)c2c1

>  <score_type>  (36) 
oracle

>  <origin>  (36) 
adg

>  <m_score__min__energy>  (36) 
-12.56

>  <m_primary>  (36) 
energy

$$$$
37:0
     RDKit          3D

 45 47  0  0  0  0  0  0  0  0999 V2000
   -6.5050   16.5050  -34.2330 C   0  0  0  0  0  0  0  0  0  0  0  0
   -5.9650   17.7990  -33.8360 N   0  0  0  0  0  0  0  0  0  0  0  0
   -4.8870   18.0000  -33.0540 C   0  0  0  0  0  0  0  0  0  0  0  0
   -4.6500   19.3670  -32.9830 C   0  0  0  0  0  0  0  0  0  0  0  0
   -3.5680   20.0600  -32.2380 C   0  0  0  0  0  0  0  0  0  0  0  0
   -2.2970   19.4460  -32.0780 C   0  0  0  0  0  0  0  0  0  0  0  0
   -1.2710   20.0880  -31.3650 C   0  0  0  0  0  0  0  0  0  0  0  0
   -1.5330   21.3440  -30.8310 C   0  0  0  0  0  0  0  0  0  0  0  0
   -0.7320   22.1680  -30.0750 C   0  0  0  0  0  0  0  0  0  0  0  0
   -1.5120   23.2900  -29.8010 C   0  0  0  0  0  0  0  0  0  0  0  0
   -1.0070   24.4730  -29.0720 C   0  0  0  0  0  0  0  0  0  0  0  0
   -1.7940   25.6550  -28.9600 N   0  0  0  0  0  0  0  0  0  0  0  0
    0.1540   24.4550  -28.5840 O   0  0  0  0  0  0  0  0  0  0  0  0
   -2.7480   23.1620  -30.3600 N   0  0  0  0  0  0  0  0  0  0  0  0
   -3.8670   24.0510  -30.2250 C   0  0  0  0  0  0  0  0  0  0  0  0
   -3.7630   25.2480  -30.6020 O   0  0  0  0  0  0  0  0  0  0  0  0
   -5.0720   23.5640  -29.6950 O   0  0  0  0  0  0  0  0  0  0  0  0
   -6.3850   23.7770  -30.2330 C   0  0  0  0  0  0  0  0  0  0  0  0
   -6.3460   23.8000  -31.7730 C   0  0  0  0  0  0  0  0  0  0  0  0
   -7.3590   22.6970  -29.7300 C   0  0  0  0  0  0  0  0  0  0  0  0
   -6.8620   25.1490  -29.7300 C   0  0  0  0  0  0  0  0  0  0  0  0
   -2.7440   21.9650  -30.9890 C   0  0  0  0  0  0  0  0  0  0  0  0
   -3.7920   21.3410  -31.6770 C   0  0  0  0  0  0  0  0  0  0  0  0
   -5.6370   19.9410  -33.7750 C   0  0  0  0  0  0  0  0  0  0  0  0
   -6.4080   18.9620  -34.2810 N   0  0  0  0  0  0  0  0  0  0  0  0
   -6.7497   15.9187  -33.3350 H   0  0  0  0  0  0  0  0  0  0  0  0
   -7.4153   16.6557  -34.8318 H   0  0  0  0  0  0  0  0  0  0  0  0
   -5.7576   15.9639  -34.8318 H   0  0  0  0  0  0  0  0  0  0  0  0
   -4.2960   17.2166  -32.5571 H   0  0  0  0  0  0  0  0  0  0  0  0
   -2.1138   18.4547  -32.5183 H   0  0  0  0  0  0  0  0  0  0  0  0
   -0.2888   19.6105  -31.2332 H   0  0  0  0  0  0  0  0  0  0  0  0
    0.3037   21.9812  -29.7549 H   0  0  0  0  0  0  0  0  0  0  0  0
   -2.7840   25.6750  -29.2900 H   0  0  0  0  0  0  0  0  0  0  0  0
   -5.4438   24.3321  -32.1090 H   0  0  0  0  0  0  0  0  0  0  0  0
   -6.3270   22.7685  -32.1547 H   0  0  0  0  0  0  0  0  0  0  0  0
   -7.2394   24.3158  -32.1547 H   0  0  0  0  0  0  0  0  0  0  0  0
   -7.3640   22.6914  -28.6300 H   0  0  0  0  0  0  0  0  0  0  0  0
   -8.3716   22.9153  -30.1002 H   0  0  0  0  0  0  0  0  0  0  0  0
   -7.0376   21.7123  -30.1002 H   0  0  0  0  0  0  0  0  0  0  0  0
   -6.8643   25.1557  -28.6300 H   0  0  0  0  0  0  0  0  0  0  0  0
   -6.1832   25.9315  -30.1000 H   0  0  0  0  0  0  0  0  0  0  0  0
   -7.8798   25.3416  -30.1000 H   0  0  0  0  0  0  0  0  0  0  0  0
   -4.7691   21.8356  -31.7796 H   0  0  0  0  0  0  0  0  0  0  0  0
   -5.7663   21.0180  -33.9579 H   0  0  0  0  0  0  0  0  0  0  0  0
   -7.2170   19.0880  -34.9300 H   0  0  0  0  0  0  0  0  0  0  0  0
  1  2  1  0
  2  3  1  0
  3  4  2  0
  4  5  1  0
  5  6  2  0
  6  7  1  0
  7  8  2  0
  8  9  1  0
  9 10  2  0
 10 11  1  0
 11 12  1  0
 11 13  2  0
 10 14  1  0
 14 15  1  0
 15 16  2  0
 15 17  1  0
 17 18  1  0
 18 19  1  0
 18 20  1  0
 18 21  1  0
 14 22  1  0
 22 23  2  0
  4 24  1  0
 24 25  2  0
 25  2  1  0
 23  5  1  0
 22  8  1  0
  1 26  1  0
  1 27  1  0
  1 28  1  0
  3 29  1  0
  6 30  1  0
  7 31  1  0
  9 32  1  0
 12 33  1  0
 19 34  1  0
 19 35  1  0
 19 36  1  0
 20 37  1  0
 20 38  1  0
 20 39  1  0
 21 40  1  0
 21 41  1  0
 21 42  1  0
 23 43  1  0
 24 44  1  0
 25 45  1  0
M  CHG  2  12  -1  25   1
M  END
>  <UniqueID>  (37) 
36

>  <SMILES>  (37) 
Cn1cc(-c2ccc3cc(C([NH-])=O)n(C(=O)OC(C)(C)C)c3c2)c[nH+]1

>  <Energy>  (37) 
112.63161438558393

>  <Genealogy>  (37) 
Cn1cc(-c2ccc3cc(C([NH-])=O)n(C(=O)OC(C)(C)C)c3c2)c[nH+]1 (protonated)
Cn1cc(-c2ccc3cc(C([NH-])=O)n(C(=O)OC(C)(C)C)c3c2)c[nH+]1 (3D coordinates assigned)
Cn1cc(-c2ccc3cc(C([NH-])=O)n(C(=O)OC(C)(C)C)c3c2)c[nH+]1 (optimized conformer: 112.63161438558393 kcal/mol)

>  <smiles>  (37) 
Cn1cc(-c2ccc3cc(C(N)=O)n(C(=O)OC(C)(C)C)c3c2)cn1

>  <score_type>  (37) 
oracle

>  <origin>  (37) 
adg

>  <m_score__min__energy>  (37) 
-10.84

>  <m_primary>  (37) 
energy

$$$$
38:0
     RDKit          3D

 45 47  0  0  0  0  0  0  0  0999 V2000
   -3.7710   13.3370  -31.2130 C   0  0  0  0  0  0  0  0  0  0  0  0
   -3.4160   13.9850  -32.4150 O   0  0  0  0  0  0  0  0  0  0  0  0
   -2.0090   14.0110  -32.5630 C   0  0  0  0  0  0  0  0  0  0  0  0
   -1.5310   15.4390  -32.8350 C   0  0  0  0  0  0  0  0  0  0  0  0
   -2.6300   16.3470  -32.8240 O   0  0  0  0  0  0  0  0  0  0  0  0
   -3.5230   16.4870  -33.8930 C   0  0  0  0  0  0  0  0  0  0  0  0
   -3.0980   16.4990  -35.0800 O   0  0  0  0  0  0  0  0  0  0  0  0
   -4.9300   16.6190  -33.6350 N   0  0  0  0  0  0  0  0  0  0  0  0
   -5.9200   15.7420  -33.9660 C   0  0  0  0  0  0  0  0  0  0  0  0
   -5.7240   14.3870  -34.5170 C   0  0  0  0  0  0  0  0  0  0  0  0
   -4.4200   13.8960  -34.8310 N   0  0  0  0  0  0  0  0  0  0  0  0
   -6.7200   13.6290  -34.6630 O   0  0  0  0  0  0  0  0  0  0  0  0
   -7.1690   16.2740  -33.6640 C   0  0  0  0  0  0  0  0  0  0  0  0
   -6.9150   17.5120  -33.1180 C   0  0  0  0  0  0  0  0  0  0  0  0
   -7.7970   18.4810  -32.6500 C   0  0  0  0  0  0  0  0  0  0  0  0
   -7.2600   19.6860  -32.1720 C   0  0  0  0  0  0  0  0  0  0  0  0
   -5.8580   19.9100  -32.1770 C   0  0  0  0  0  0  0  0  0  0  0  0
   -5.3020   21.1950  -31.6830 C   0  0  0  0  0  0  0  0  0  0  0  0
   -6.1570   22.2260  -31.2560 C   0  0  0  0  0  0  0  0  0  0  0  0
   -5.6350   23.4360  -30.7890 C   0  0  0  0  0  0  0  0  0  0  0  0
   -4.2470   23.6410  -30.7380 C   0  0  0  0  0  0  0  0  0  0  0  0
   -3.6990   24.9220  -30.2430 C   0  0  0  0  0  0  0  0  0  0  0  0
   -4.3010   26.0070  -30.4670 O   0  0  0  0  0  0  0  0  0  0  0  0
   -2.5100   24.9510  -29.5230 O   0  0  0  0  0  0  0  0  0  0  0  0
   -3.3910   22.6110  -31.1640 C   0  0  0  0  0  0  0  0  0  0  0  0
   -3.9130   21.4010  -31.6310 C   0  0  0  0  0  0  0  0  0  0  0  0
   -4.9940   18.8990  -32.6640 C   0  0  0  0  0  0  0  0  0  0  0  0
   -5.5570   17.6980  -33.1140 C   0  0  0  0  0  0  0  0  0  0  0  0
   -3.4388   13.9435  -30.3575 H   0  0  0  0  0  0  0  0  0  0  0  0
   -4.8632   13.2127  -31.1722 H   0  0  0  0  0  0  0  0  0  0  0  0
   -3.2878   12.3496  -31.1722 H   0  0  0  0  0  0  0  0  0  0  0  0
   -1.5399   13.6408  -31.6395 H   0  0  0  0  0  0  0  0  0  0  0  0
   -1.7261   13.3707  -33.4116 H   0  0  0  0  0  0  0  0  0  0  0  0
   -0.8110   15.7335  -32.0572 H   0  0  0  0  0  0  0  0  0  0  0  0
   -1.0549   15.4707  -33.8261 H   0  0  0  0  0  0  0  0  0  0  0  0
   -3.5640   14.4270  -34.5610 H   0  0  0  0  0  0  0  0  0  0  0  0
   -4.3060   12.9510  -35.2610 H   0  0  0  0  0  0  0  0  0  0  0  0
   -8.1508   15.8054  -33.8268 H   0  0  0  0  0  0  0  0  0  0  0  0
   -8.8832   18.3076  -32.6546 H   0  0  0  0  0  0  0  0  0  0  0  0
   -7.9335   20.4667  -31.7887 H   0  0  0  0  0  0  0  0  0  0  0  0
   -7.2467   22.0794  -31.2896 H   0  0  0  0  0  0  0  0  0  0  0  0
   -6.3170   24.2335  -30.4590 H   0  0  0  0  0  0  0  0  0  0  0  0
   -2.3014   22.7580  -31.1297 H   0  0  0  0  0  0  0  0  0  0  0  0
   -3.2307   20.6036  -31.9605 H   0  0  0  0  0  0  0  0  0  0  0  0
   -3.9052   19.0535  -32.6883 H   0  0  0  0  0  0  0  0  0  0  0  0
  1  2  1  0
  2  3  1  0
  3  4  1  0
  4  5  1  0
  5  6  1  0
  6  7  2  0
  6  8  1  0
  8  9  1  0
  9 10  1  0
 10 11  1  0
 10 12  2  0
  9 13  2  0
 13 14  1  0
 14 15  2  0
 15 16  1  0
 16 17  2  0
 17 18  1  0
 18 19  2  0
 19 20  1  0
 20 21  2  0
 21 22  1  0
 22 23  2  0
 22 24  1  0
 21 25  1  0
 25 26  2  0
 17 27  1  0
 27 28  2  0
 28  8  1  0
 28 14  1  0
 26 18  1  0
  1 29  1  0
  1 30  1  0
  1 31  1  0
  3 32  1  0
  3 33  1  0
  4 34  1  0
  4 35  1  0
 11 36  1  0
 11 37  1  0
 13 38  1  0
 15 39  1  0
 16 40  1  0
 19 41  1  0
 20 42  1  0
 25 43  1  0
 26 44  1  0
 27 45  1  0
M  CHG  1  24  -1
M  END
>  <UniqueID>  (38) 
37

>  <SMILES>  (38) 
COCCOC(=O)n1c(C(N)=O)cc2ccc(-c3ccc(C(=O)[O-])cc3)cc21

>  <Energy>  (38) 
91.3059935687684

>  <Genealogy>  (38) 
COCCOC(=O)n1c(C(N)=O)cc2ccc(-c3ccc(C(=O)[O-])cc3)cc21 (protonated)
COCCOC(=O)n1c(C(N)=O)cc2ccc(-c3ccc(C(=O)[O-])cc3)cc21 (3D coordinates assigned)
COCCOC(=O)n1c(C(N)=O)cc2ccc(-c3ccc(C(=O)[O-])cc3)cc21 (optimized conformer: 91.3059935687684 kcal/mol)

>  <smiles>  (38) 
COCCOC(=O)n1c(C(N)=O)cc2ccc(-c3ccc(C(=O)O)cc3)cc21

>  <score_type>  (38) 
oracle

>  <origin>  (38) 
adg

>  <m_score__min__energy>  (38) 
-8.5999999999999996

>  <m_primary>  (38) 
energy

$$$$
40:0
     RDKit          3D

 40 41  0  0  0  0  0  0  0  0999 V2000
   -5.7680   18.3380  -34.5620 C   0  0  0  0  0  0  0  0  0  0  0  0
   -6.6010   18.5180  -33.3660 N   0  0  0  0  0  0  0  0  0  0  0  0
   -7.2450   17.3410  -32.7670 C   0  0  0  0  0  0  0  0  0  0  0  0
   -6.7850   19.8350  -32.7860 C   0  0  0  0  0  0  0  0  0  0  0  0
   -8.0940   20.3590  -32.5750 C   0  0  0  0  0  0  0  0  0  0  0  0
   -8.2840   21.6370  -32.0250 C   0  0  0  0  0  0  0  0  0  0  0  0
   -7.1580   22.3760  -31.6830 C   0  0  0  0  0  0  0  0  0  0  0  0
   -7.0570   23.6460  -31.1640 C   0  0  0  0  0  0  0  0  0  0  0  0
   -5.6900   23.8840  -31.0360 C   0  0  0  0  0  0  0  0  0  0  0  0
   -5.1330   25.1130  -30.4340 C   0  0  0  0  0  0  0  0  0  0  0  0
   -3.8780   25.6360  -30.8640 N   0  0  0  0  0  0  0  0  0  0  0  0
   -5.7500   25.6850  -29.4960 O   0  0  0  0  0  0  0  0  0  0  0  0
   -4.9760   22.8060  -31.4650 N   0  0  0  0  0  0  0  0  0  0  0  0
   -3.5500   22.6930  -31.5880 C   0  0  0  0  0  0  0  0  0  0  0  0
   -3.0450   22.2460  -32.6530 O   0  0  0  0  0  0  0  0  0  0  0  0
   -2.7290   23.0950  -30.5280 O   0  0  0  0  0  0  0  0  0  0  0  0
   -2.8190   22.5470  -29.2130 C   0  0  0  0  0  0  0  0  0  0  0  0
   -1.8900   23.3020  -28.2560 C   0  0  0  0  0  0  0  0  0  0  0  0
   -2.1830   24.8050  -28.2380 C   0  0  0  0  0  0  0  0  0  0  0  0
   -1.5920   25.4390  -29.3410 O   0  0  0  0  0  0  0  0  0  0  0  0
   -5.8900   21.8910  -31.8590 C   0  0  0  0  0  0  0  0  0  0  0  0
   -5.6670   20.6300  -32.4210 C   0  0  0  0  0  0  0  0  0  0  0  0
   -4.7345   18.1147  -34.2588 H   0  0  0  0  0  0  0  0  0  0  0  0
   -6.1625   17.5044  -35.1615 H   0  0  0  0  0  0  0  0  0  0  0  0
   -5.7831   19.2601  -35.1615 H   0  0  0  0  0  0  0  0  0  0  0  0
   -7.2028   17.4182  -31.6705 H   0  0  0  0  0  0  0  0  0  0  0  0
   -8.2951   17.2929  -33.0910 H   0  0  0  0  0  0  0  0  0  0  0  0
   -6.7193   16.4307  -33.0910 H   0  0  0  0  0  0  0  0  0  0  0  0
   -8.9699   19.7520  -32.8476 H   0  0  0  0  0  0  0  0  0  0  0  0
   -9.2950   22.0415  -31.8694 H   0  0  0  0  0  0  0  0  0  0  0  0
   -7.8801   24.3283  -30.9052 H   0  0  0  0  0  0  0  0  0  0  0  0
   -2.9820   25.2620  -30.4820 H   0  0  0  0  0  0  0  0  0  0  0  0
   -3.8555   22.6322  -28.8548 H   0  0  0  0  0  0  0  0  0  0  0  0
   -2.5164   21.4899  -29.2450 H   0  0  0  0  0  0  0  0  0  0  0  0
   -2.0252   22.9017  -27.2404 H   0  0  0  0  0  0  0  0  0  0  0  0
   -0.8563   23.1617  -28.6049 H   0  0  0  0  0  0  0  0  0  0  0  0
   -3.2713   24.9611  -28.2723 H   0  0  0  0  0  0  0  0  0  0  0  0
   -1.7643   25.2357  -27.3165 H   0  0  0  0  0  0  0  0  0  0  0  0
   -1.8500   24.9180  -30.1460 H   0  0  0  0  0  0  0  0  0  0  0  0
   -4.6428   20.2605  -32.5775 H   0  0  0  0  0  0  0  0  0  0  0  0
  1  2  1  0
  2  3  1  0
  2  4  1  0
  4  5  2  0
  5  6  1  0
  6  7  2  0
  7  8  1  0
  8  9  2  0
  9 10  1  0
 10 11  1  0
 10 12  2  0
  9 13  1  0
 13 14  1  0
 14 15  2  0
 14 16  1  0
 16 17  1  0
 17 18  1  0
 18 19  1  0
 19 20  1  0
 13 21  1  0
 21 22  2  0
 22  4  1  0
 21  7  1  0
  1 23  1  0
  1 24  1  0
  1 25  1  0
  3 26  1  0
  3 27  1  0
  3 28  1  0
  5 29  1  0
  6 30  1  0
  8 31  1  0
 11 32  1  0
 17 33  1  0
 17 34  1  0
 18 35  1  0
 18 36  1  0
 19 37  1  0
 19 38  1  0
 20 39  1  0
 22 40  1  0
M  CHG  1  11  -1
M  END
>  <UniqueID>  (39) 
38

>  <SMILES>  (39) 
CN(C)c1ccc2cc(C([NH-])=O)n(C(=O)OCCCO)c2c1

>  <Energy>  (39) 
75.21899481874884

>  <Genealogy>  (39) 
CN(C)c1ccc2cc(C([NH-])=O)n(C(=O)OCCCO)c2c1 (protonated)
CN(C)c1ccc2cc(C([NH-])=O)n(C(=O)OCCCO)c2c1 (3D coordinates assigned)
CN(C)c1ccc2cc(C([NH-])=O)n(C(=O)OCCCO)c2c1 (optimized conformer: 75.21899481874884 kcal/mol)

>  <smiles>  (39) 
CN(C)c1ccc2cc(C(N)=O)n(C(=O)OCCCO)c2c1

>  <score_type>  (39) 
oracle

>  <origin>  (39) 
adg

>  <m_score__min__energy>  (39) 
-10.32

>  <m_primary>  (39) 
energy

$$$$
41:0
     RDKit          3D

 45 46  0  0  0  0  0  0  0  0999 V2000
   -9.4820   18.1870  -31.5990 C   0  0  0  0  0  0  0  0  0  0  0  0
   -8.8160   19.3820  -32.1330 N   0  0  0  0  0  0  0  0  0  0  0  0
   -9.6060   20.6010  -32.3460 C   0  0  0  0  0  0  0  0  0  0  0  0
   -7.4000   19.3560  -32.4520 C   0  0  0  0  0  0  0  0  0  0  0  0
   -6.7930   18.1780  -32.9700 C   0  0  0  0  0  0  0  0  0  0  0  0
   -5.4260   18.1470  -33.2860 C   0  0  0  0  0  0  0  0  0  0  0  0
   -4.6780   19.2960  -33.0690 C   0  0  0  0  0  0  0  0  0  0  0  0
   -3.3440   19.5380  -33.3030 C   0  0  0  0  0  0  0  0  0  0  0  0
   -3.1320   20.8510  -32.8960 C   0  0  0  0  0  0  0  0  0  0  0  0
   -1.8020   21.4910  -32.8920 C   0  0  0  0  0  0  0  0  0  0  0  0
   -1.3100   22.1630  -31.7320 N   0  0  0  0  0  0  0  0  0  0  0  0
   -1.0640   21.3910  -33.9080 O   0  0  0  0  0  0  0  0  0  0  0  0
   -4.2910   21.4100  -32.4460 N   0  0  0  0  0  0  0  0  0  0  0  0
   -4.4980   22.7670  -32.0130 C   0  0  0  0  0  0  0  0  0  0  0  0
   -5.4350   23.4530  -32.5030 O   0  0  0  0  0  0  0  0  0  0  0  0
   -3.6580   23.3190  -31.0430 O   0  0  0  0  0  0  0  0  0  0  0  0
   -4.1340   23.9940  -29.8840 C   0  0  0  0  0  0  0  0  0  0  0  0
   -3.7950   23.1860  -28.6260 C   0  0  1  0  0  0  0  0  0  0  0  0
   -2.9240   22.1380  -28.9670 O   0  0  0  0  0  0  0  0  0  0  0  0
   -3.1680   24.0640  -27.5300 C   0  0  0  0  0  0  0  0  0  0  0  0
   -1.8100   23.7250  -27.3640 O   0  0  0  0  0  0  0  0  0  0  0  0
   -0.9010   24.4960  -28.5820 P   0  0  0  0  0  0  0  0  0  0  0  0
    0.3090   25.1710  -27.9760 O   0  0  0  0  0  0  0  0  0  0  0  0
   -1.8690   25.6660  -29.3270 O   0  0  0  0  0  0  0  0  0  0  0  0
   -0.4010   23.3720  -29.7440 O   0  0  0  0  0  0  0  0  0  0  0  0
   -5.2300   20.4410  -32.5540 C   0  0  0  0  0  0  0  0  0  0  0  0
   -6.5960   20.5080  -32.2540 C   0  0  0  0  0  0  0  0  0  0  0  0
   -9.4647   18.2180  -30.4996 H   0  0  0  0  0  0  0  0  0  0  0  0
  -10.5246   18.1612  -31.9487 H   0  0  0  0  0  0  0  0  0  0  0  0
   -8.9555   17.2867  -31.9487 H   0  0  0  0  0  0  0  0  0  0  0  0
   -9.8851   21.0317  -31.3731 H   0  0  0  0  0  0  0  0  0  0  0  0
   -9.0087   21.3308  -32.9123 H   0  0  0  0  0  0  0  0  0  0  0  0
  -10.5161   20.3539  -32.9123 H   0  0  0  0  0  0  0  0  0  0  0  0
   -7.4050   17.2772  -33.1253 H   0  0  0  0  0  0  0  0  0  0  0  0
   -4.9604   17.2378  -33.6941 H   0  0  0  0  0  0  0  0  0  0  0  0
   -2.6031   18.8416  -33.7225 H   0  0  0  0  0  0  0  0  0  0  0  0
   -0.3810   22.6400  -31.7570 H   0  0  0  0  0  0  0  0  0  0  0  0
   -1.8270   22.1220  -30.8260 H   0  0  0  0  0  0  0  0  0  0  0  0
   -3.6592   24.9841  -29.8191 H   0  0  0  0  0  0  0  0  0  0  0  0
   -5.2259   24.1059  -29.9561 H   0  0  0  0  0  0  0  0  0  0  0  0
   -4.7316   22.7774  -28.2188 H   0  0  0  0  0  0  0  0  0  0  0  0
   -2.0600   22.5540  -29.2220 H   0  0  0  0  0  0  0  0  0  0  0  0
   -3.2472   25.1221  -27.8201 H   0  0  0  0  0  0  0  0  0  0  0  0
   -3.7018   23.8980  -26.5826 H   0  0  0  0  0  0  0  0  0  0  0  0
   -7.0388   21.4392  -31.8708 H   0  0  0  0  0  0  0  0  0  0  0  0
  1  2  1  0
  2  3  1  0
  2  4  1  0
  4  5  2  0
  5  6  1  0
  6  7  2  0
  7  8  1  0
  8  9  2  0
  9 10  1  0
 10 11  1  0
 10 12  2  0
  9 13  1  0
 13 14  1  0
 14 15  2  0
 14 16  1  0
 16 17  1  0
 17 18  1  0
 18 19  1  0
 18 20  1  0
 20 21  1  0
 21 22  1  0
 22 23  2  0
 22 24  1  0
 22 25  1  0
 13 26  1  0
 26 27  2  0
 27  4  1  0
 26  7  1  0
  1 28  1  0
  1 29  1  0
  1 30  1  0
  3 31  1  0
  3 32  1  0
  3 33  1  0
  5 34  1  0
  6 35  1  0
  8 36  1  0
 11 37  1  0
 11 38  1  0
 17 39  1  0
 17 40  1  0
 18 41  1  1
 19 42  1  0
 20 43  1  0
 20 44  1  0
 27 45  1  0
M  CHG  2  24  -1  25  -1
M  END
>  <UniqueID>  (40) 
39

>  <SMILES>  (40) 
CN(C)c1ccc2cc(C(N)=O)n(C(=O)OC[C@@H](O)COP(=O)([O-])[O-])c2c1

>  <Energy>  (40) 
77.06750195740634

>  <Genealogy>  (40) 
CN(C)c1ccc2cc(C(N)=O)n(C(=O)OCC(O)COP(=O)([O-])[O-])c2c1 (protonated)
CN(C)c1ccc2cc(C(N)=O)n(C(=O)OC[C@@H](O)COP(=O)([O-])[O-])c2c1 (chirality)
CN(C)c1ccc2cc(C(N)=O)n(C(=O)OC[C@@H](O)COP(=O)([O-])[O-])c2c1 (3D coordinates assigned)
CN(C)c1ccc2cc(C(N)=O)n(C(=O)OC[C@@H](O)COP(=O)([O-])[O-])c2c1 (optimized conformer: 77.06750195740634 kcal/mol)

>  <smiles>  (40) 
CN(C)c1ccc2cc(C(N)=O)n(C(=O)OCC(O)COP(=O)(O)O)c2c1

>  <score_type>  (40) 
oracle

>  <origin>  (40) 
adg

>  <m_score__min__energy>  (40) 
-11.69

>  <m_primary>  (40) 
energy

$$$$
42:0
     RDKit          3D

 40 41  0  0  0  0  0  0  0  0999 V2000
   -6.8630   16.5930  -33.6010 C   0  0  0  0  0  0  0  0  0  0  0  0
   -7.0340   17.6880  -33.1270 C   0  0  0  0  0  0  0  0  0  0  0  0
   -7.2350   18.9960  -32.5600 C   0  0  0  0  0  0  0  0  0  0  0  0
   -8.5310   19.4030  -32.1640 C   0  0  0  0  0  0  0  0  0  0  0  0
   -8.7380   20.6780  -31.6070 C   0  0  0  0  0  0  0  0  0  0  0  0
   -7.6330   21.5140  -31.4650 C   0  0  0  0  0  0  0  0  0  0  0  0
   -7.5400   22.7860  -30.9460 C   0  0  0  0  0  0  0  0  0  0  0  0
   -6.1900   23.1340  -31.0500 C   0  0  0  0  0  0  0  0  0  0  0  0
   -5.6070   24.4210  -30.5980 C   0  0  0  0  0  0  0  0  0  0  0  0
   -5.5690   24.7740  -29.2110 N   0  0  0  0  0  0  0  0  0  0  0  0
   -5.1300   25.2270  -31.4400 O   0  0  0  0  0  0  0  0  0  0  0  0
   -5.4890   22.1150  -31.6190 N   0  0  0  0  0  0  0  0  0  0  0  0
   -4.0850   22.0630  -31.9030 C   0  0  0  0  0  0  0  0  0  0  0  0
   -3.6800   21.4040  -32.8960 O   0  0  0  0  0  0  0  0  0  0  0  0
   -3.0840   22.7250  -30.9960 C   0  0  0  0  0  0  0  0  0  0  0  0
   -2.9660   22.0160  -29.7160 N   0  0  0  0  0  0  0  0  0  0  0  0
   -2.3090   20.7060  -29.6620 C   0  0  0  0  0  0  0  0  0  0  0  0
   -3.5190   22.5810  -28.5120 C   0  0  0  0  0  0  0  0  0  0  0  0
   -4.7200   22.3500  -28.2010 O   0  0  0  0  0  0  0  0  0  0  0  0
   -2.7280   23.3980  -27.6960 O   0  0  0  0  0  0  0  0  0  0  0  0
   -1.5570   24.0710  -28.1520 C   0  0  0  0  0  0  0  0  0  0  0  0
   -1.9180   25.2730  -28.9650 C   0  0  0  0  0  0  0  0  0  0  0  0
   -1.1630   26.2820  -28.9710 O   0  0  0  0  0  0  0  0  0  0  0  0
   -3.1020   25.2970  -29.6900 O   0  0  0  0  0  0  0  0  0  0  0  0
   -6.3770   21.1300  -31.8530 C   0  0  0  0  0  0  0  0  0  0  0  0
   -6.1380   19.8650  -32.3980 C   0  0  0  0  0  0  0  0  0  0  0  0
   -6.7069   15.5937  -34.0336 H   0  0  0  0  0  0  0  0  0  0  0  0
   -9.3821   18.7180  -32.2925 H   0  0  0  0  0  0  0  0  0  0  0  0
   -9.7406   21.0044  -31.2936 H   0  0  0  0  0  0  0  0  0  0  0  0
   -8.3560   23.3992  -30.5359 H   0  0  0  0  0  0  0  0  0  0  0  0
   -5.9130   24.1300  -28.4670 H   0  0  0  0  0  0  0  0  0  0  0  0
   -5.1770   25.6960  -28.9200 H   0  0  0  0  0  0  0  0  0  0  0  0
   -2.1023   22.7325  -31.4922 H   0  0  0  0  0  0  0  0  0  0  0  0
   -3.4279   23.7498  -30.7923 H   0  0  0  0  0  0  0  0  0  0  0  0
   -2.1619   20.4126  -28.6121 H   0  0  0  0  0  0  0  0  0  0  0  0
   -2.9390   19.9588  -30.1667 H   0  0  0  0  0  0  0  0  0  0  0  0
   -1.3333   20.7640  -30.1667 H   0  0  0  0  0  0  0  0  0  0  0  0
   -0.9622   24.3888  -27.2830 H   0  0  0  0  0  0  0  0  0  0  0  0
   -0.9763   23.3808  -28.7817 H   0  0  0  0  0  0  0  0  0  0  0  0
   -5.1236   19.5573  -32.6916 H   0  0  0  0  0  0  0  0  0  0  0  0
  1  2  3  0
  2  3  1  0
  3  4  2  0
  4  5  1  0
  5  6  2  0
  6  7  1  0
  7  8  2  0
  8  9  1  0
  9 10  1  0
  9 11  2  0
  8 12  1  0
 12 13  1  0
 13 14  2  0
 13 15  1  0
 15 16  1  0
 16 17  1  0
 16 18  1  0
 18 19  2  0
 18 20  1  0
 20 21  1  0
 21 22  1  0
 22 23  2  0
 22 24  1  0
 12 25  1  0
 25 26  2  0
 26  3  1  0
 25  6  1  0
  1 27  1  0
  4 28  1  0
  5 29  1  0
  7 30  1  0
 10 31  1  0
 10 32  1  0
 15 33  1  0
 15 34  1  0
 17 35  1  0
 17 36  1  0
 17 37  1  0
 21 38  1  0
 21 39  1  0
 26 40  1  0
M  CHG  1  24  -1
M  END
>  <UniqueID>  (41) 
40

>  <SMILES>  (41) 
C#Cc1ccc2cc(C(N)=O)n(C(=O)CN(C)C(=O)OCC(=O)[O-])c2c1

>  <Energy>  (41) 
70.22033864891101

>  <Genealogy>  (41) 
C#Cc1ccc2cc(C(N)=O)n(C(=O)CN(C)C(=O)OCC(=O)[O-])c2c1 (protonated)
C#Cc1ccc2cc(C(N)=O)n(C(=O)CN(C)C(=O)OCC(=O)[O-])c2c1 (3D coordinates assigned)
C#Cc1ccc2cc(C(N)=O)n(C(=O)CN(C)C(=O)OCC(=O)[O-])c2c1 (optimized conformer: 70.22033864891101 kcal/mol)

>  <smiles>  (41) 
C#Cc1ccc2cc(C(N)=O)n(C(=O)CN(C)C(=O)OCC(=O)O)c2c1

>  <score_type>  (41) 
oracle

>  <origin>  (41) 
adg

>  <m_score__min__energy>  (41) 
-11.59

>  <m_primary>  (41) 
energy

$$$$
43:0
     RDKit          3D

 32 33  0  0  0  0  0  0  0  0999 V2000
   -3.8690   25.5500  -30.8430 N   0  0  0  0  0  0  0  0  0  0  0  0
   -5.2170   25.2720  -30.4750 C   0  0  0  0  0  0  0  0  0  0  0  0
   -5.8060   26.0380  -29.6660 O   0  0  0  0  0  0  0  0  0  0  0  0
   -5.9120   24.0710  -30.9830 C   0  0  0  0  0  0  0  0  0  0  0  0
   -7.2960   23.9160  -30.9490 C   0  0  0  0  0  0  0  0  0  0  0  0
   -7.5330   22.6460  -31.4220 C   0  0  0  0  0  0  0  0  0  0  0  0
   -8.7350   21.9720  -31.6110 C   0  0  0  0  0  0  0  0  0  0  0  0
   -8.6850   20.6740  -32.1450 C   0  0  0  0  0  0  0  0  0  0  0  0
   -7.4470   20.0750  -32.4880 C   0  0  0  0  0  0  0  0  0  0  0  0
   -7.4420   18.7460  -33.0440 N   0  0  0  0  0  0  0  0  0  0  0  0
   -6.2710   17.8670  -33.0090 C   0  0  0  0  0  0  0  0  0  0  0  0
   -5.5030   17.9090  -34.3330 C   0  0  0  0  0  0  0  0  0  0  0  0
   -6.1400   18.7560  -35.2500 O   0  0  0  0  0  0  0  0  0  0  0  0
   -6.2450   20.7960  -32.2820 C   0  0  0  0  0  0  0  0  0  0  0  0
   -6.3230   22.0810  -31.7300 C   0  0  0  0  0  0  0  0  0  0  0  0
   -5.3170   22.9450  -31.4690 N   0  0  0  0  0  0  0  0  0  0  0  0
   -3.9230   22.7290  -31.7380 C   0  0  0  0  0  0  0  0  0  0  0  0
   -3.5690   22.1590  -32.8060 O   0  0  0  0  0  0  0  0  0  0  0  0
   -2.9670   23.1290  -30.8040 O   0  0  0  0  0  0  0  0  0  0  0  0
   -3.2740   23.0800  -29.0700 P   0  0  0  0  0  0  0  0  0  0  0  0
   -3.1450   24.3750  -28.2240 O   0  0  0  0  0  0  0  0  0  0  0  0
   -3.0730   25.2390  -30.2430 H   0  0  0  0  0  0  0  0  0  0  0  0
   -8.0413   24.6528  -30.6148 H   0  0  0  0  0  0  0  0  0  0  0  0
   -9.6951   22.4412  -31.3502 H   0  0  0  0  0  0  0  0  0  0  0  0
   -9.6195   20.1145  -32.2992 H   0  0  0  0  0  0  0  0  0  0  0  0
   -8.3230   18.3970  -33.4870 H   0  0  0  0  0  0  0  0  0  0  0  0
   -5.6035   18.1918  -32.1973 H   0  0  0  0  0  0  0  0  0  0  0  0
   -6.6160   16.8362  -32.8407 H   0  0  0  0  0  0  0  0  0  0  0  0
   -4.4839   18.2793  -34.1474 H   0  0  0  0  0  0  0  0  0  0  0  0
   -5.4700   16.8934  -34.7544 H   0  0  0  0  0  0  0  0  0  0  0  0
   -6.8350   19.2520  -34.7420 H   0  0  0  0  0  0  0  0  0  0  0  0
   -5.2726   20.3567  -32.5494 H   0  0  0  0  0  0  0  0  0  0  0  0
  1  2  1  0
  2  3  2  0
  2  4  1  0
  4  5  2  0
  5  6  1  0
  6  7  2  0
  7  8  1  0
  8  9  2  0
  9 10  1  0
 10 11  1  0
 11 12  1  0
 12 13  1  0
  9 14  1  0
 14 15  2  0
 15 16  1  0
 16 17  1  0
 17 18  2  0
 17 19  1  0
 19 20  1  0
 20 21  2  0
 16  4  1  0
 15  6  1  0
  1 22  1  0
  5 23  1  0
  7 24  1  0
  8 25  1  0
 10 26  1  0
 11 27  1  0
 11 28  1  0
 12 29  1  0
 12 30  1  0
 13 31  1  0
 14 32  1  0
M  CHG  1   1  -1
M  END
>  <UniqueID>  (42) 
41

>  <SMILES>  (42) 
[NH-]C(=O)c1cc2ccc(NCCO)cc2n1C(=O)OP=O

>  <Energy>  (42) 
68.04697652593684

>  <Genealogy>  (42) 
[NH-]C(=O)c1cc2ccc(NCCO)cc2n1C(=O)OP=O (protonated)
[NH-]C(=O)c1cc2ccc(NCCO)cc2n1C(=O)OP=O (3D coordinates assigned)
[NH-]C(=O)c1cc2ccc(NCCO)cc2n1C(=O)OP=O (optimized conformer: 68.04697652593684 kcal/mol)

>  <smiles>  (42) 
NC(=O)c1cc2ccc(NCCO)cc2n1C(=O)OP=O

>  <score_type>  (42) 
oracle

>  <origin>  (42) 
adg

>  <m_score__min__energy>  (42) 
-9.6699999999999999

>  <m_primary>  (42) 
energy

$$$$
44:0
     RDKit          3D

 37 38  0  0  0  0  0  0  0  0999 V2000
   -6.7610   17.0280  -33.5300 C   0  0  0  0  0  0  0  0  0  0  0  0
   -6.8930   18.1410  -33.0870 C   0  0  0  0  0  0  0  0  0  0  0  0
   -7.0510   19.4720  -32.5580 C   0  0  0  0  0  0  0  0  0  0  0  0
   -8.3380   20.0550  -32.4890 C   0  0  0  0  0  0  0  0  0  0  0  0
   -8.5080   21.3470  -31.9630 C   0  0  0  0  0  0  0  0  0  0  0  0
   -7.3730   22.0260  -31.5220 C   0  0  0  0  0  0  0  0  0  0  0  0
   -7.2520   23.2760  -30.9580 C   0  0  0  0  0  0  0  0  0  0  0  0
   -5.8890   23.4410  -30.7130 C   0  0  0  0  0  0  0  0  0  0  0  0
   -5.2910   24.6930  -30.2000 C   0  0  0  0  0  0  0  0  0  0  0  0
   -5.7720   25.2940  -28.9970 N   0  0  0  0  0  0  0  0  0  0  0  0
   -4.3690   25.2620  -30.8430 O   0  0  0  0  0  0  0  0  0  0  0  0
   -5.1950   22.3330  -31.1080 N   0  0  0  0  0  0  0  0  0  0  0  0
   -3.7870   22.0770  -30.9700 C   0  0  0  0  0  0  0  0  0  0  0  0
   -3.0170   22.2130  -31.9580 O   0  0  0  0  0  0  0  0  0  0  0  0
   -3.2450   21.6200  -29.7180 C   0  0  0  0  0  0  0  0  0  0  0  0
   -2.8040   21.2410  -28.6620 C   0  0  0  0  0  0  0  0  0  0  0  0
   -2.2830   20.7720  -27.3730 C   0  0  0  0  0  0  0  0  0  0  0  0
   -2.3740   19.3010  -27.2880 N   0  0  0  0  0  0  0  0  0  0  0  0
   -1.0230   18.7150  -27.2630 C   0  0  0  0  0  0  0  0  0  0  0  0
   -3.1070   18.8890  -26.0750 C   0  0  0  0  0  0  0  0  0  0  0  0
   -6.1170   21.4770  -31.6010 C   0  0  0  0  0  0  0  0  0  0  0  0
   -5.9220   20.1850  -32.1050 C   0  0  0  0  0  0  0  0  0  0  0  0
   -6.6405   16.0121  -33.9343 H   0  0  0  0  0  0  0  0  0  0  0  0
   -9.2121   19.4930  -32.8497 H   0  0  0  0  0  0  0  0  0  0  0  0
   -9.5049   21.8079  -31.9012 H   0  0  0  0  0  0  0  0  0  0  0  0
   -8.0591   23.9926  -30.7456 H   0  0  0  0  0  0  0  0  0  0  0  0
   -5.3660   26.1960  -28.6630 H   0  0  0  0  0  0  0  0  0  0  0  0
   -6.5040   24.8290  -28.4140 H   0  0  0  0  0  0  0  0  0  0  0  0
   -1.2307   21.0767  -27.2744 H   0  0  0  0  0  0  0  0  0  0  0  0
   -2.8811   21.2148  -26.5629 H   0  0  0  0  0  0  0  0  0  0  0  0
   -0.7028   18.5761  -26.2198 H   0  0  0  0  0  0  0  0  0  0  0  0
   -1.0360   17.7416  -27.7752 H   0  0  0  0  0  0  0  0  0  0  0  0
   -0.3212   19.3896  -27.7752 H   0  0  0  0  0  0  0  0  0  0  0  0
   -2.5461   19.2043  -25.1828 H   0  0  0  0  0  0  0  0  0  0  0  0
   -4.1007   19.3608  -26.0691 H   0  0  0  0  0  0  0  0  0  0  0  0
   -3.2205   17.7949  -26.0691 H   0  0  0  0  0  0  0  0  0  0  0  0
   -4.9172   19.7393  -32.1463 H   0  0  0  0  0  0  0  0  0  0  0  0
  1  2  3  0
  2  3  1  0
  3  4  2  0
  4  5  1  0
  5  6  2  0
  6  7  1  0
  7  8  2  0
  8  9  1  0
  9 10  1  0
  9 11  2  0
  8 12  1  0
 12 13  1  0
 13 14  2  0
 13 15  1  0
 15 16  3  0
 16 17  1  0
 17 18  1  0
 18 19  1  0
 18 20  1  0
 12 21  1  0
 21 22  2  0
 22  3  1  0
 21  6  1  0
  1 23  1  0
  4 24  1  0
  5 25  1  0
  7 26  1  0
 10 27  1  0
 10 28  1  0
 17 29  1  0
 17 30  1  0
 19 31  1  0
 19 32  1  0
 19 33  1  0
 20 34  1  0
 20 35  1  0
 20 36  1  0
 22 37  1  0
M  END
>  <UniqueID>  (43) 
42

>  <SMILES>  (43) 
C#Cc1ccc2cc(C(N)=O)n(C(=O)C#CCN(C)C)c2c1

>  <Energy>  (43) 
69.93086536130546

>  <Genealogy>  (43) 
C#Cc1ccc2cc(C(N)=O)n(C(=O)C#CCN(C)C)c2c1 (3D coordinates assigned)
C#Cc1ccc2cc(C(N)=O)n(C(=O)C#CCN(C)C)c2c1 (optimized conformer: 69.93086536130546 kcal/mol)

>  <smiles>  (43) 
C#Cc1ccc2cc(C(N)=O)n(C(=O)C#CCN(C)C)c2c1

>  <score_type>  (43) 
oracle

>  <origin>  (43) 
adg

>  <m_score__min__energy>  (43) 
-9.4900000000000002

>  <m_primary>  (43) 
energy

$$$$
45:0
     RDKit          3D

 37 38  0  0  0  0  0  0  0  0999 V2000
   -6.1140   17.1070  -31.6090 C   0  0  0  0  0  0  0  0  0  0  0  0
   -6.1320   18.1460  -32.6460 N   0  0  0  0  0  0  0  0  0  0  0  0
   -5.8590   17.7530  -34.0380 C   0  0  0  0  0  0  0  0  0  0  0  0
   -5.9490   16.2660  -34.1950 C   0  0  0  0  0  0  0  0  0  0  0  0
   -4.9000   15.5740  -34.2660 O   0  0  0  0  0  0  0  0  0  0  0  0
   -7.1870   15.6370  -34.2160 O   0  0  0  0  0  0  0  0  0  0  0  0
   -6.4340   19.5220  -32.2970 C   0  0  0  0  0  0  0  0  0  0  0  0
   -7.7680   20.0130  -32.3550 C   0  0  0  0  0  0  0  0  0  0  0  0
   -8.0660   21.3460  -32.0250 C   0  0  0  0  0  0  0  0  0  0  0  0
   -7.0200   22.1710  -31.6330 C   0  0  0  0  0  0  0  0  0  0  0  0
   -7.0260   23.5010  -31.2840 C   0  0  0  0  0  0  0  0  0  0  0  0
   -5.7000   23.8120  -30.9900 C   0  0  0  0  0  0  0  0  0  0  0  0
   -5.2680   25.1300  -30.4810 C   0  0  0  0  0  0  0  0  0  0  0  0
   -4.0020   25.6770  -30.8430 N   0  0  0  0  0  0  0  0  0  0  0  0
   -6.0060   25.7620  -29.6770 O   0  0  0  0  0  0  0  0  0  0  0  0
   -4.9050   22.7170  -31.1590 N   0  0  0  0  0  0  0  0  0  0  0  0
   -3.4770   22.6360  -31.0330 C   0  0  0  0  0  0  0  0  0  0  0  0
   -2.8090   21.9690  -31.8710 O   0  0  0  0  0  0  0  0  0  0  0  0
   -2.8380   23.2760  -29.9650 O   0  0  0  0  0  0  0  0  0  0  0  0
   -1.4440   23.1510  -29.7000 C   0  0  0  0  0  0  0  0  0  0  0  0
   -0.9030   24.4320  -29.1520 C   0  0  0  0  0  0  0  0  0  0  0  0
    0.2170   24.4550  -28.5760 O   0  0  0  0  0  0  0  0  0  0  0  0
   -1.6210   25.6100  -29.3050 O   0  0  0  0  0  0  0  0  0  0  0  0
   -5.7300   21.7200  -31.5490 C   0  0  0  0  0  0  0  0  0  0  0  0
   -5.4000   20.4040  -31.8890 C   0  0  0  0  0  0  0  0  0  0  0  0
   -6.1222   17.5800  -30.6159 H   0  0  0  0  0  0  0  0  0  0  0  0
   -7.0012   16.4657  -31.7170 H   0  0  0  0  0  0  0  0  0  0  0  0
   -5.2051   16.4968  -31.7170 H   0  0  0  0  0  0  0  0  0  0  0  0
   -6.5962   18.2314  -34.6996 H   0  0  0  0  0  0  0  0  0  0  0  0
   -4.8417   18.0761  -34.3040 H   0  0  0  0  0  0  0  0  0  0  0  0
   -8.5798   19.3378  -32.6634 H   0  0  0  0  0  0  0  0  0  0  0  0
   -9.0975   21.7248  -32.0757 H   0  0  0  0  0  0  0  0  0  0  0  0
   -7.8935   24.1762  -31.2452 H   0  0  0  0  0  0  0  0  0  0  0  0
   -3.1160   25.2830  -30.4550 H   0  0  0  0  0  0  0  0  0  0  0  0
   -1.2848   22.3467  -28.9667 H   0  0  0  0  0  0  0  0  0  0  0  0
   -0.9213   22.9144  -30.6385 H   0  0  0  0  0  0  0  0  0  0  0  0
   -4.3567   20.0587  -31.8409 H   0  0  0  0  0  0  0  0  0  0  0  0
  1  2  1  0
  2  3  1  0
  3  4  1  0
  4  5  2  0
  4  6  1  0
  2  7  1  0
  7  8  2  0
  8  9  1  0
  9 10  2  0
 10 11  1  0
 11 12  2  0
 12 13  1  0
 13 14  1  0
 13 15  2  0
 12 16  1  0
 16 17  1  0
 17 18  2  0
 17 19  1  0
 19 20  1  0
 20 21  1  0
 21 22  2  0
 21 23  1  0
 16 24  1  0
 24 25  2  0
 25  7  1  0
 24 10  1  0
  1 26  1  0
  1 27  1  0
  1 28  1  0
  3 29  1  0
  3 30  1  0
  8 31  1  0
  9 32  1  0
 11 33  1  0
 14 34  1  0
 20 35  1  0
 20 36  1  0
 25 37  1  0
M  CHG  3   6  -1  14  -1  23  -1
M  END
>  <UniqueID>  (44) 
43

>  <SMILES>  (44) 
CN(CC(=O)[O-])c1ccc2cc(C([NH-])=O)n(C(=O)OCC(=O)[O-])c2c1

>  <Energy>  (44) 
75.61645379592069

>  <Genealogy>  (44) 
CN(CC(=O)[O-])c1ccc2cc(C([NH-])=O)n(C(=O)OCC(=O)[O-])c2c1 (protonated)
CN(CC(=O)[O-])c1ccc2cc(C([NH-])=O)n(C(=O)OCC(=O)[O-])c2c1 (3D coordinates assigned)
CN(CC(=O)[O-])c1ccc2cc(C([NH-])=O)n(C(=O)OCC(=O)[O-])c2c1 (optimized conformer: 75.61645379592069 kcal/mol)

>  <smiles>  (44) 
CN(CC(=O)O)c1ccc2cc(C(N)=O)n(C(=O)OCC(=O)O)c2c1

>  <score_type>  (44) 
oracle

>  <origin>  (44) 
adg

>  <m_score__min__energy>  (44) 
-12.16

>  <m_primary>  (44) 
energy

$$$$
46:0
     RDKit          3D

 42 44  0  0  0  0  0  0  0  0999 V2000
   -3.0120   20.6740  -29.6050 C   0  0  0  0  0  0  0  0  0  0  0  0
   -3.1790   22.1160  -29.8100 N   0  0  0  0  0  0  0  0  0  0  0  0
   -2.8840   23.0430  -28.7110 C   0  0  0  0  0  0  0  0  0  0  0  0
   -1.8860   24.0650  -29.1520 C   0  0  0  0  0  0  0  0  0  0  0  0
   -2.2430   25.2570  -29.3410 O   0  0  0  0  0  0  0  0  0  0  0  0
   -0.5710   23.6940  -29.3990 O   0  0  0  0  0  0  0  0  0  0  0  0
   -3.7760   22.6000  -31.0290 C   0  0  0  0  0  0  0  0  0  0  0  0
   -3.0470   22.9540  -31.9960 O   0  0  0  0  0  0  0  0  0  0  0  0
   -5.2020   22.6940  -31.1600 N   0  0  0  0  0  0  0  0  0  0  0  0
   -5.9850   23.7840  -30.9270 C   0  0  0  0  0  0  0  0  0  0  0  0
   -5.5060   25.0730  -30.3780 C   0  0  0  0  0  0  0  0  0  0  0  0
   -4.1810   25.5410  -30.6430 N   0  0  0  0  0  0  0  0  0  0  0  0
   -6.2730   25.7830  -29.6730 O   0  0  0  0  0  0  0  0  0  0  0  0
   -7.3160   23.4920  -31.2340 C   0  0  0  0  0  0  0  0  0  0  0  0
   -7.3120   22.1880  -31.6740 C   0  0  0  0  0  0  0  0  0  0  0  0
   -8.3580   21.3890  -32.1250 C   0  0  0  0  0  0  0  0  0  0  0  0
   -8.0560   20.0820  -32.5430 C   0  0  0  0  0  0  0  0  0  0  0  0
   -6.7210   19.5940  -32.5100 C   0  0  0  0  0  0  0  0  0  0  0  0
   -6.4110   18.2120  -32.9570 C   0  0  0  0  0  0  0  0  0  0  0  0
   -7.2380   17.0980  -32.9080 C   0  0  0  0  0  0  0  0  0  0  0  0
   -6.5780   16.0290  -33.3970 N   0  0  0  0  0  0  0  0  0  0  0  0
   -5.3740   16.4350  -33.7620 N   0  0  0  0  0  0  0  0  0  0  0  0
   -4.3390   15.5480  -34.2750 C   0  0  0  0  0  0  0  0  0  0  0  0
   -5.2270   17.7460  -33.5020 C   0  0  0  0  0  0  0  0  0  0  0  0
   -5.6890   20.4430  -32.0470 C   0  0  0  0  0  0  0  0  0  0  0  0
   -6.0240   21.7320  -31.6230 C   0  0  0  0  0  0  0  0  0  0  0  0
   -2.9869   20.4574  -28.5268 H   0  0  0  0  0  0  0  0  0  0  0  0
   -3.8541   20.1380  -30.0672 H   0  0  0  0  0  0  0  0  0  0  0  0
   -2.0697   20.3446  -30.0672 H   0  0  0  0  0  0  0  0  0  0  0  0
   -3.8110   23.5492  -28.4038 H   0  0  0  0  0  0  0  0  0  0  0  0
   -2.4678   22.4763  -27.8651 H   0  0  0  0  0  0  0  0  0  0  0  0
   -3.4900   24.9610  -31.1660 H   0  0  0  0  0  0  0  0  0  0  0  0
   -3.8720   26.4680  -30.2740 H   0  0  0  0  0  0  0  0  0  0  0  0
   -8.1835   24.1622  -31.1433 H   0  0  0  0  0  0  0  0  0  0  0  0
   -9.3899   21.7690  -32.1534 H   0  0  0  0  0  0  0  0  0  0  0  0
   -8.8640   19.4270  -32.9009 H   0  0  0  0  0  0  0  0  0  0  0  0
   -8.2707   17.0890  -32.5293 H   0  0  0  0  0  0  0  0  0  0  0  0
   -3.8011   15.0870  -33.4335 H   0  0  0  0  0  0  0  0  0  0  0  0
   -4.8016   14.7616  -34.8895 H   0  0  0  0  0  0  0  0  0  0  0  0
   -3.6327   16.1255  -34.8895 H   0  0  0  0  0  0  0  0  0  0  0  0
   -4.3231   18.3441  -33.6897 H   0  0  0  0  0  0  0  0  0  0  0  0
   -4.6454   20.0964  -32.0211 H   0  0  0  0  0  0  0  0  0  0  0  0
  1  2  1  0
  2  3  1  0
  3  4  1  0
  4  5  2  0
  4  6  1  0
  2  7  1  0
  7  8  2  0
  7  9  1  0
  9 10  1  0
 10 11  1  0
 11 12  1  0
 11 13  2  0
 10 14  2  0
 14 15  1  0
 15 16  2  0
 16 17  1  0
 17 18  2  0
 18 19  1  0
 19 20  1  0
 20 21  2  0
 21 22  1  0
 22 23  1  0
 22 24  1  0
 18 25  1  0
 25 26  2  0
 26  9  1  0
 26 15  1  0
 24 19  2  0
  1 27  1  0
  1 28  1  0
  1 29  1  0
  3 30  1  0
  3 31  1  0
 12 32  1  0
 12 33  1  0
 14 34  1  0
 16 35  1  0
 17 36  1  0
 20 37  1  0
 23 38  1  0
 23 39  1  0
 23 40  1  0
 24 41  1  0
 25 42  1  0
M  CHG  1   6  -1
M  END
>  <UniqueID>  (45) 
44

>  <SMILES>  (45) 
CN(CC(=O)[O-])C(=O)n1c(C(N)=O)cc2ccc(-c3cnn(C)c3)cc21

>  <Energy>  (45) 
111.19301037140076

>  <Genealogy>  (45) 
CN(CC(=O)[O-])C(=O)n1c(C(N)=O)cc2ccc(-c3cnn(C)c3)cc21 (protonated)
CN(CC(=O)[O-])C(=O)n1c(C(N)=O)cc2ccc(-c3cnn(C)c3)cc21 (3D coordinates assigned)
CN(CC(=O)[O-])C(=O)n1c(C(N)=O)cc2ccc(-c3cnn(C)c3)cc21 (optimized conformer: 111.19301037140076 kcal/mol)

>  <smiles>  (45) 
CN(CC(=O)O)C(=O)n1c(C(N)=O)cc2ccc(-c3cnn(C)c3)cc21

>  <score_type>  (45) 
oracle

>  <origin>  (45) 
adg

>  <m_score__min__energy>  (45) 
-11.43

>  <m_primary>  (45) 
energy

$$$$
47:0
     RDKit          3D

 43 44  0  0  0  0  0  0  0  0999 V2000
   -7.5450   18.4350  -32.6250 C   0  0  0  0  0  0  0  0  0  0  0  0
   -7.5670   19.8780  -32.2170 C   0  0  0  0  0  0  0  0  0  0  0  0
   -8.8040   20.5480  -32.0460 C   0  0  0  0  0  0  0  0  0  0  0  0
   -8.8390   21.8910  -31.6320 C   0  0  0  0  0  0  0  0  0  0  0  0
   -7.6270   22.5270  -31.3780 C   0  0  0  0  0  0  0  0  0  0  0  0
   -7.3660   23.8200  -30.9800 C   0  0  0  0  0  0  0  0  0  0  0  0
   -5.9770   23.9050  -30.8870 C   0  0  0  0  0  0  0  0  0  0  0  0
   -5.2550   25.1190  -30.4490 C   0  0  0  0  0  0  0  0  0  0  0  0
   -3.8920   25.3320  -30.8100 N   0  0  0  0  0  0  0  0  0  0  0  0
   -5.8400   25.9680  -29.7270 O   0  0  0  0  0  0  0  0  0  0  0  0
   -5.4070   22.7100  -31.2070 N   0  0  0  0  0  0  0  0  0  0  0  0
   -4.0080   22.4060  -31.3190 C   0  0  0  0  0  0  0  0  0  0  0  0
   -3.2630   23.2060  -31.9470 O   0  0  0  0  0  0  0  0  0  0  0  0
   -3.4650   21.1790  -30.7810 N   0  0  0  0  0  0  0  0  0  0  0  0
   -3.4450   19.9540  -31.5350 C   0  0  0  0  0  0  0  0  0  0  0  0
   -3.4160   19.9590  -32.7940 O   0  0  0  0  0  0  0  0  0  0  0  0
   -2.9110   21.1510  -29.4570 C   0  0  0  0  0  0  0  0  0  0  0  0
   -3.1450   20.1670  -28.7050 O   0  0  0  0  0  0  0  0  0  0  0  0
   -2.1030   22.3050  -28.9300 C   0  0  0  0  0  0  0  0  0  0  0  0
   -2.9710   23.4570  -28.6100 N   0  0  0  0  0  0  0  0  0  0  0  0
   -4.2230   23.0060  -27.9800 C   0  0  0  0  0  0  0  0  0  0  0  0
   -2.2950   24.5010  -27.8030 C   0  0  0  0  0  0  0  0  0  0  0  0
   -1.1340   25.1530  -28.5040 C   0  0  0  0  0  0  0  0  0  0  0  0
   -0.0590   24.5200  -28.6750 O   0  0  0  0  0  0  0  0  0  0  0  0
   -1.2440   26.4570  -28.9690 O   0  0  0  0  0  0  0  0  0  0  0  0
   -6.4260   21.8810  -31.5130 C   0  0  0  0  0  0  0  0  0  0  0  0
   -6.3580   20.5510  -31.9380 C   0  0  0  0  0  0  0  0  0  0  0  0
   -7.5353   17.8001  -31.7268 H   0  0  0  0  0  0  0  0  0  0  0  0
   -8.4398   18.2096  -33.2237 H   0  0  0  0  0  0  0  0  0  0  0  0
   -6.6437   18.2369  -33.2237 H   0  0  0  0  0  0  0  0  0  0  0  0
   -9.7452   20.0124  -32.2389 H   0  0  0  0  0  0  0  0  0  0  0  0
   -9.7944   22.4228  -31.5125 H   0  0  0  0  0  0  0  0  0  0  0  0
   -8.0977   24.6162  -30.7784 H   0  0  0  0  0  0  0  0  0  0  0  0
   -3.1300   24.7440  -30.4050 H   0  0  0  0  0  0  0  0  0  0  0  0
   -3.4553   18.9926  -31.0005 H   0  0  0  0  0  0  0  0  0  0  0  0
   -1.5754   21.9880  -28.0183 H   0  0  0  0  0  0  0  0  0  0  0  0
   -1.3845   22.6121  -29.7042 H   0  0  0  0  0  0  0  0  0  0  0  0
   -4.1173   23.0441  -26.8858 H   0  0  0  0  0  0  0  0  0  0  0  0
   -5.0479   23.6635  -28.2918 H   0  0  0  0  0  0  0  0  0  0  0  0
   -4.4392   21.9735  -28.2918 H   0  0  0  0  0  0  0  0  0  0  0  0
   -3.0319   25.2791  -27.5551 H   0  0  0  0  0  0  0  0  0  0  0  0
   -1.8913   24.0036  -26.9088 H   0  0  0  0  0  0  0  0  0  0  0  0
   -5.3890   20.0429  -32.0519 H   0  0  0  0  0  0  0  0  0  0  0  0
  1  2  1  0
  2  3  2  0
  3  4  1  0
  4  5  2  0
  5  6  1  0
  6  7  2  0
  7  8  1  0
  8  9  1  0
  8 10  2  0
  7 11  1  0
 11 12  1  0
 12 13  2  0
 12 14  1  0
 14 15  1  0
 15 16  2  0
 14 17  1  0
 17 18  2  0
 17 19  1  0
 19 20  1  0
 20 21  1  0
 20 22  1  0
 22 23  1  0
 23 24  2  0
 23 25  1  0
 11 26  1  0
 26 27  2  0
 27  2  1  0
 26  5  1  0
  1 28  1  0
  1 29  1  0
  1 30  1  0
  3 31  1  0
  4 32  1  0
  6 33  1  0
  9 34  1  0
 15 35  1  0
 19 36  1  0
 19 37  1  0
 21 38  1  0
 21 39  1  0
 21 40  1  0
 22 41  1  0
 22 42  1  0
 27 43  1  0
M  CHG  2   9  -1  25  -1
M  END
>  <UniqueID>  (46) 
45

>  <SMILES>  (46) 
Cc1ccc2cc(C([NH-])=O)n(C(=O)N(C=O)C(=O)CN(C)CC(=O)[O-])c2c1

>  <Energy>  (46) 
90.61146776392289

>  <Genealogy>  (46) 
Cc1ccc2cc(C([NH-])=O)n(C(=O)N(C=O)C(=O)CN(C)CC(=O)[O-])c2c1 (protonated)
Cc1ccc2cc(C([NH-])=O)n(C(=O)N(C=O)C(=O)CN(C)CC(=O)[O-])c2c1 (3D coordinates assigned)
Cc1ccc2cc(C([NH-])=O)n(C(=O)N(C=O)C(=O)CN(C)CC(=O)[O-])c2c1 (optimized conformer: 90.61146776392289 kcal/mol)

>  <smiles>  (46) 
Cc1ccc2cc(C(N)=O)n(C(=O)N(C=O)C(=O)CN(C)CC(=O)O)c2c1

>  <score_type>  (46) 
oracle

>  <origin>  (46) 
adg

>  <m_score__min__energy>  (46) 
-12.16

>  <m_primary>  (46) 
energy

$$$$
48:0
     RDKit          3D

 45 46  0  0  0  0  0  0  0  0999 V2000
   -7.3280   23.0040  -31.2740 C   0  0  0  0  0  0  0  0  0  0  0  0
   -8.0580   21.8450  -30.8930 O   0  0  0  0  0  0  0  0  0  0  0  0
   -8.8560   21.1310  -31.7910 C   0  0  0  0  0  0  0  0  0  0  0  0
  -10.0920   21.3740  -31.8810 O   0  0  0  0  0  0  0  0  0  0  0  0
   -8.2340   20.0570  -32.6450 C   0  0  2  0  0  0  0  0  0  0  0  0
   -8.6620   18.6520  -32.1790 C   0  0  0  0  0  0  0  0  0  0  0  0
   -7.4820   17.7380  -32.0370 C   0  0  0  0  0  0  0  0  0  0  0  0
   -6.6900   17.8700  -31.0680 O   0  0  0  0  0  0  0  0  0  0  0  0
   -7.2460   16.7540  -32.9900 O   0  0  0  0  0  0  0  0  0  0  0  0
   -6.7730   20.1770  -32.6090 N   0  0  0  0  0  0  0  0  0  0  0  0
   -5.9430   19.8110  -33.7200 C   0  0  0  0  0  0  0  0  0  0  0  0
   -6.4430   19.2490  -34.7340 O   0  0  0  0  0  0  0  0  0  0  0  0
   -4.4890   20.1860  -33.7270 C   0  0  0  0  0  0  0  0  0  0  0  0
   -3.6910   19.3490  -32.7180 C   0  0  0  0  0  0  0  0  0  0  0  0
   -2.7030   20.1890  -31.9490 C   0  0  0  0  0  0  0  0  0  0  0  0
   -1.4170   19.6760  -31.6480 C   0  0  0  0  0  0  0  0  0  0  0  0
   -0.5170   20.4160  -30.8640 C   0  0  0  0  0  0  0  0  0  0  0  0
   -0.9290   21.6610  -30.3950 C   0  0  0  0  0  0  0  0  0  0  0  0
   -0.2750   22.5640  -29.5910 C   0  0  0  0  0  0  0  0  0  0  0  0
   -1.1660   23.6230  -29.4230 C   0  0  0  0  0  0  0  0  0  0  0  0
   -0.8300   24.8550  -28.6840 C   0  0  0  0  0  0  0  0  0  0  0  0
   -1.5640   26.0590  -28.8920 N   0  0  0  0  0  0  0  0  0  0  0  0
    0.1520   24.8610  -27.8930 O   0  0  0  0  0  0  0  0  0  0  0  0
   -2.3300   23.3780  -30.0880 N   0  0  0  0  0  0  0  0  0  0  0  0
   -3.5300   24.1680  -30.0830 C   0  0  0  0  0  0  0  0  0  0  0  0
   -3.5570   25.2880  -30.6580 O   0  0  0  0  0  0  0  0  0  0  0  0
   -4.6810   23.6920  -29.4680 O   0  0  0  0  0  0  0  0  0  0  0  0
   -2.1660   22.1760  -30.6850 C   0  0  0  0  0  0  0  0  0  0  0  0
   -3.0870   21.4550  -31.4530 C   0  0  0  0  0  0  0  0  0  0  0  0
   -6.9916   23.5381  -30.3731 H   0  0  0  0  0  0  0  0  0  0  0  0
   -6.4538   22.7067  -31.8718 H   0  0  0  0  0  0  0  0  0  0  0  0
   -7.9738   23.6640  -31.8718 H   0  0  0  0  0  0  0  0  0  0  0  0
   -8.5873   20.1923  -33.6779 H   0  0  0  0  0  0  0  0  0  0  0  0
   -9.1679   18.7367  -31.2059 H   0  0  0  0  0  0  0  0  0  0  0  0
   -9.3383   18.2281  -32.9359 H   0  0  0  0  0  0  0  0  0  0  0  0
   -6.3130   20.6050  -31.7720 H   0  0  0  0  0  0  0  0  0  0  0  0
   -4.0806   20.0175  -34.7344 H   0  0  0  0  0  0  0  0  0  0  0  0
   -4.4029   21.2454  -33.4436 H   0  0  0  0  0  0  0  0  0  0  0  0
   -4.3913   18.8844  -32.0083 H   0  0  0  0  0  0  0  0  0  0  0  0
   -3.1287   18.5861  -33.2764 H   0  0  0  0  0  0  0  0  0  0  0  0
   -1.1207   18.6887  -32.0321 H   0  0  0  0  0  0  0  0  0  0  0  0
    0.4832   20.0241  -30.6275 H   0  0  0  0  0  0  0  0  0  0  0  0
    0.7368   22.4708  -29.1696 H   0  0  0  0  0  0  0  0  0  0  0  0
   -2.6080   26.0520  -28.9290 H   0  0  0  0  0  0  0  0  0  0  0  0
   -4.0858   21.8639  -31.6654 H   0  0  0  0  0  0  0  0  0  0  0  0
  1  2  1  0
  2  3  1  0
  3  4  2  0
  3  5  1  0
  5  6  1  0
  6  7  1  0
  7  8  2  0
  7  9  1  0
  5 10  1  0
 10 11  1  0
 11 12  2  0
 11 13  1  0
 13 14  1  0
 14 15  1  0
 15 16  2  0
 16 17  1  0
 17 18  2  0
 18 19  1  0
 19 20  2  0
 20 21  1  0
 21 22  1  0
 21 23  2  0
 20 24  1  0
 24 25  1  0
 25 26  2  0
 25 27  1  0
 24 28  1  0
 28 29  2  0
 29 15  1  0
 28 18  1  0
  1 30  1  0
  1 31  1  0
  1 32  1  0
  5 33  1  6
  6 34  1  0
  6 35  1  0
 10 36  1  0
 13 37  1  0
 13 38  1  0
 14 39  1  0
 14 40  1  0
 16 41  1  0
 17 42  1  0
 19 43  1  0
 22 44  1  0
 29 45  1  0
M  CHG  3   9  -1  22  -1  27  -1
M  END
>  <UniqueID>  (47) 
46

>  <SMILES>  (47) 
COC(=O)[C@H](CC(=O)[O-])NC(=O)CCc1ccc2cc(C([NH-])=O)n(C(=O)[O-])c2c1

>  <Energy>  (47) 
70.33999089025984

>  <Genealogy>  (47) 
COC(=O)C(CC(=O)[O-])NC(=O)CCc1ccc2cc(C([NH-])=O)n(C(=O)[O-])c2c1 (protonated)
COC(=O)[C@H](CC(=O)[O-])NC(=O)CCc1ccc2cc(C([NH-])=O)n(C(=O)[O-])c2c1 (chirality)
COC(=O)[C@H](CC(=O)[O-])NC(=O)CCc1ccc2cc(C([NH-])=O)n(C(=O)[O-])c2c1 (3D coordinates assigned)
COC(=O)[C@H](CC(=O)[O-])NC(=O)CCc1ccc2cc(C([NH-])=O)n(C(=O)[O-])c2c1 (optimized conformer: 70.33999089025984 kcal/mol)

>  <smiles>  (47) 
COC(=O)C(CC(=O)O)NC(=O)CCc1ccc2cc(C(N)=O)n(C(=O)O)c2c1

>  <score_type>  (47) 
oracle

>  <origin>  (47) 
adg

>  <m_score__min__energy>  (47) 
-11.24

>  <m_primary>  (47) 
energy

$$$$
49:0
     RDKit          3D

 39 40  0  0  0  0  0  0  0  0999 V2000
   -2.0440   24.9090  -28.0250 C   0  0  0  0  0  0  0  0  0  0  0  0
   -1.5070   24.8050  -29.3250 O   0  0  0  0  0  0  0  0  0  0  0  0
   -1.5750   23.4640  -29.7660 C   0  0  0  0  0  0  0  0  0  0  0  0
   -2.9290   23.0220  -29.8340 O   0  0  0  0  0  0  0  0  0  0  0  0
   -3.5580   22.6700  -31.0330 C   0  0  0  0  0  0  0  0  0  0  0  0
   -2.8860   22.2000  -31.9920 O   0  0  0  0  0  0  0  0  0  0  0  0
   -4.9810   22.8220  -31.1620 N   0  0  0  0  0  0  0  0  0  0  0  0
   -5.7160   23.9640  -31.0400 C   0  0  0  0  0  0  0  0  0  0  0  0
   -5.2130   25.2770  -30.5860 C   0  0  0  0  0  0  0  0  0  0  0  0
   -3.8670   25.6720  -30.8310 N   0  0  0  0  0  0  0  0  0  0  0  0
   -5.9710   26.0410  -29.9290 O   0  0  0  0  0  0  0  0  0  0  0  0
   -7.0560   23.7120  -31.3250 C   0  0  0  0  0  0  0  0  0  0  0  0
   -7.1220   22.3690  -31.6160 C   0  0  0  0  0  0  0  0  0  0  0  0
   -8.2090   21.5840  -31.9790 C   0  0  0  0  0  0  0  0  0  0  0  0
   -7.9820   20.2240  -32.2510 C   0  0  0  0  0  0  0  0  0  0  0  0
   -6.6750   19.6670  -32.1630 C   0  0  0  0  0  0  0  0  0  0  0  0
   -6.4510   18.2630  -32.4560 N   0  0  0  0  0  0  0  0  0  0  0  0
   -6.2020   17.3110  -31.3670 C   0  0  0  0  0  0  0  0  0  0  0  0
   -6.4920   17.7570  -33.8370 C   0  0  0  0  0  0  0  0  0  0  0  0
   -5.2610   18.1600  -34.5880 C   0  0  0  0  0  0  0  0  0  0  0  0
   -4.5300   19.0900  -34.1530 O   0  0  0  0  0  0  0  0  0  0  0  0
   -4.8950   17.4860  -35.7470 O   0  0  0  0  0  0  0  0  0  0  0  0
   -5.5970   20.5100  -31.7920 C   0  0  0  0  0  0  0  0  0  0  0  0
   -5.8570   21.8540  -31.5100 C   0  0  0  0  0  0  0  0  0  0  0  0
   -1.2451   24.7543  -27.2848 H   0  0  0  0  0  0  0  0  0  0  0  0
   -2.4821   25.9087  -27.8881 H   0  0  0  0  0  0  0  0  0  0  0  0
   -2.8236   24.1452  -27.8881 H   0  0  0  0  0  0  0  0  0  0  0  0
   -1.1205   23.3893  -30.7649 H   0  0  0  0  0  0  0  0  0  0  0  0
   -1.0321   22.8292  -29.0502 H   0  0  0  0  0  0  0  0  0  0  0  0
   -3.0660   25.1070  -30.4710 H   0  0  0  0  0  0  0  0  0  0  0  0
   -7.8858   24.4340  -31.3187 H   0  0  0  0  0  0  0  0  0  0  0  0
   -9.2186   22.0146  -32.0515 H   0  0  0  0  0  0  0  0  0  0  0  0
   -8.8271   19.5802  -32.5362 H   0  0  0  0  0  0  0  0  0  0  0  0
   -6.3345   17.8176  -30.3996 H   0  0  0  0  0  0  0  0  0  0  0  0
   -6.9114   16.4737  -31.4426 H   0  0  0  0  0  0  0  0  0  0  0  0
   -5.1735   16.9282  -31.4426 H   0  0  0  0  0  0  0  0  0  0  0  0
   -6.5589   16.6592  -33.8170 H   0  0  0  0  0  0  0  0  0  0  0  0
   -7.3697   18.1851  -34.3433 H   0  0  0  0  0  0  0  0  0  0  0  0
   -4.5732   20.1129  -31.7272 H   0  0  0  0  0  0  0  0  0  0  0  0
  1  2  1  0
  2  3  1  0
  3  4  1  0
  4  5  1  0
  5  6  2  0
  5  7  1  0
  7  8  1  0
  8  9  1  0
  9 10  1  0
  9 11  2  0
  8 12  2  0
 12 13  1  0
 13 14  2  0
 14 15  1  0
 15 16  2  0
 16 17  1  0
 17 18  1  0
 17 19  1  0
 19 20  1  0
 20 21  2  0
 20 22  1  0
 16 23  1  0
 23 24  2  0
 24  7  1  0
 24 13  1  0
  1 25  1  0
  1 26  1  0
  1 27  1  0
  3 28  1  0
  3 29  1  0
 10 30  1  0
 12 31  1  0
 14 32  1  0
 15 33  1  0
 18 34  1  0
 18 35  1  0
 18 36  1  0
 19 37  1  0
 19 38  1  0
 23 39  1  0
M  CHG  2  10  -1  22  -1
M  END
>  <UniqueID>  (48) 
47

>  <SMILES>  (48) 
COCOC(=O)n1c(C([NH-])=O)cc2ccc(N(C)CC(=O)[O-])cc21

>  <Energy>  (48) 
79.10824928390942

>  <Genealogy>  (48) 
COCOC(=O)n1c(C([NH-])=O)cc2ccc(N(C)CC(=O)[O-])cc21 (protonated)
COCOC(=O)n1c(C([NH-])=O)cc2ccc(N(C)CC(=O)[O-])cc21 (3D coordinates assigned)
COCOC(=O)n1c(C([NH-])=O)cc2ccc(N(C)CC(=O)[O-])cc21 (optimized conformer: 79.10824928390942 kcal/mol)

>  <smiles>  (48) 
COCOC(=O)n1c(C(N)=O)cc2ccc(N(C)CC(=O)O)cc21

>  <score_type>  (48) 
oracle

>  <origin>  (48) 
adg

>  <m_score__min__energy>  (48) 
-9.2699999999999996

>  <m_primary>  (48) 
energy

$$$$
50:0
     RDKit          3D

 36 37  0  0  0  0  0  0  0  0999 V2000
   -6.8270   17.4680  -33.3820 C   0  0  0  0  0  0  0  0  0  0  0  0
   -6.9380   18.5940  -32.9630 C   0  0  0  0  0  0  0  0  0  0  0  0
   -7.0700   19.9360  -32.4620 C   0  0  0  0  0  0  0  0  0  0  0  0
   -8.3550   20.4900  -32.2610 C   0  0  0  0  0  0  0  0  0  0  0  0
   -8.4960   21.8050  -31.7840 C   0  0  0  0  0  0  0  0  0  0  0  0
   -7.3380   22.5280  -31.5140 C   0  0  0  0  0  0  0  0  0  0  0  0
   -7.1850   23.8220  -31.0680 C   0  0  0  0  0  0  0  0  0  0  0  0
   -5.8090   24.0240  -30.9830 C   0  0  0  0  0  0  0  0  0  0  0  0
   -5.1990   25.2640  -30.4590 C   0  0  0  0  0  0  0  0  0  0  0  0
   -3.8710   25.6170  -30.8420 N   0  0  0  0  0  0  0  0  0  0  0  0
   -5.8490   26.0360  -29.7060 O   0  0  0  0  0  0  0  0  0  0  0  0
   -5.1360   22.9020  -31.3700 N   0  0  0  0  0  0  0  0  0  0  0  0
   -3.7180   22.7150  -31.4810 C   0  0  0  0  0  0  0  0  0  0  0  0
   -3.2390   22.1520  -32.5020 O   0  0  0  0  0  0  0  0  0  0  0  0
   -2.8840   23.1430  -30.4360 O   0  0  0  0  0  0  0  0  0  0  0  0
   -2.7950   22.5660  -29.1270 C   0  0  0  0  0  0  0  0  0  0  0  0
   -2.8270   21.0410  -29.3010 C   0  0  0  0  0  0  0  0  0  0  0  0
   -1.4680   22.9610  -28.4500 C   0  0  0  0  0  0  0  0  0  0  0  0
   -3.9960   22.9940  -28.2620 C   0  0  0  0  0  0  0  0  0  0  0  0
   -6.0860   21.9950  -31.6880 C   0  0  0  0  0  0  0  0  0  0  0  0
   -5.9160   20.6940  -32.1800 C   0  0  0  0  0  0  0  0  0  0  0  0
   -6.7258   16.4414  -33.7640 H   0  0  0  0  0  0  0  0  0  0  0  0
   -9.2499   19.8886  -32.4791 H   0  0  0  0  0  0  0  0  0  0  0  0
   -9.4906   22.2485  -31.6291 H   0  0  0  0  0  0  0  0  0  0  0  0
   -7.9805   24.5432  -30.8294 H   0  0  0  0  0  0  0  0  0  0  0  0
   -3.0490   25.2870  -30.2900 H   0  0  0  0  0  0  0  0  0  0  0  0
   -2.8371   20.5593  -28.3121 H   0  0  0  0  0  0  0  0  0  0  0  0
   -3.7314   20.7544  -29.8578 H   0  0  0  0  0  0  0  0  0  0  0  0
   -1.9355   20.7167  -29.8578 H   0  0  0  0  0  0  0  0  0  0  0  0
   -1.5889   22.9250  -27.3573 H   0  0  0  0  0  0  0  0  0  0  0  0
   -0.6777   22.2591  -28.7548 H   0  0  0  0  0  0  0  0  0  0  0  0
   -1.1902   23.9808  -28.7548 H   0  0  0  0  0  0  0  0  0  0  0  0
   -3.7334   22.9004  -27.1979 H   0  0  0  0  0  0  0  0  0  0  0  0
   -4.2546   24.0396  -28.4853 H   0  0  0  0  0  0  0  0  0  0  0  0
   -4.8576   22.3476  -28.4853 H   0  0  0  0  0  0  0  0  0  0  0  0
   -4.9111   20.2766  -32.3414 H   0  0  0  0  0  0  0  0  0  0  0  0
  1  2  3  0
  2  3  1  0
  3  4  2  0
  4  5  1  0
  5  6  2  0
  6  7  1  0
  7  8  2  0
  8  9  1  0
  9 10  1  0
  9 11  2  0
  8 12  1  0
 12 13  1  0
 13 14  2  0
 13 15  1  0
 15 16  1  0
 16 17  1  0
 16 18  1  0
 16 19  1  0
 12 20  1  0
 20 21  2  0
 21  3  1  0
 20  6  1  0
  1 22  1  0
  4 23  1  0
  5 24  1  0
  7 25  1  0
 10 26  1  0
 17 27  1  0
 17 28  1  0
 17 29  1  0
 18 30  1  0
 18 31  1  0
 18 32  1  0
 19 33  1  0
 19 34  1  0
 19 35  1  0
 21 36  1  0
M  CHG  1  10  -1
M  END
>  <UniqueID>  (49) 
48

>  <SMILES>  (49) 
C#Cc1ccc2cc(C([NH-])=O)n(C(=O)OC(C)(C)C)c2c1

>  <Energy>  (49) 
68.11993511872804

>  <Genealogy>  (49) 
C#Cc1ccc2cc(C([NH-])=O)n(C(=O)OC(C)(C)C)c2c1 (protonated)
C#Cc1ccc2cc(C([NH-])=O)n(C(=O)OC(C)(C)C)c2c1 (3D coordinates assigned)
C#Cc1ccc2cc(C([NH-])=O)n(C(=O)OC(C)(C)C)c2c1 (optimized conformer: 68.11993511872804 kcal/mol)

>  <smiles>  (49) 
C#Cc1ccc2cc(C(N)=O)n(C(=O)OC(C)(C)C)c2c1

>  <score_type>  (49) 
oracle

>  <origin>  (49) 
adg

>  <m_score__min__energy>  (49) 
-10.25

>  <m_primary>  (49) 
energy

$$$$
51:0
     RDKit          3D

 41 42  0  0  0  0  0  0  0  0999 V2000
   -1.8570   21.6990  -27.3920 C   0  0  0  0  0  0  0  0  0  0  0  0
   -2.5030   22.8200  -28.0970 N   0  0  0  0  0  0  0  0  0  0  0  0
   -3.9750   22.6980  -28.0070 C   0  0  0  0  0  0  0  0  0  0  0  0
   -4.6780   23.7900  -28.8300 C   0  0  0  0  0  0  0  0  0  0  0  0
   -4.2890   23.7290  -30.2830 C   0  0  0  0  0  0  0  0  0  0  0  0
   -3.7800   24.7420  -30.8330 O   0  0  0  0  0  0  0  0  0  0  0  0
   -4.4000   22.5020  -31.0180 N   0  0  0  0  0  0  0  0  0  0  0  0
   -3.3960   21.7550  -31.5550 C   0  0  0  0  0  0  0  0  0  0  0  0
   -1.9550   21.9530  -31.2920 C   0  0  0  0  0  0  0  0  0  0  0  0
   -1.4970   23.0500  -30.5030 N   0  0  0  0  0  0  0  0  0  0  0  0
   -1.1130   21.1580  -31.7870 O   0  0  0  0  0  0  0  0  0  0  0  0
   -3.9240   20.7210  -32.3310 C   0  0  0  0  0  0  0  0  0  0  0  0
   -5.2910   20.8670  -32.2500 C   0  0  0  0  0  0  0  0  0  0  0  0
   -6.3100   20.1320  -32.8500 C   0  0  0  0  0  0  0  0  0  0  0  0
   -7.6370   20.5400  -32.6230 C   0  0  0  0  0  0  0  0  0  0  0  0
   -7.9160   21.6690  -31.8110 C   0  0  0  0  0  0  0  0  0  0  0  0
   -9.3340   22.0880  -31.5620 C   0  0  0  0  0  0  0  0  0  0  0  0
  -10.1900   21.2560  -32.2620 F   0  0  0  0  0  0  0  0  0  0  0  0
   -6.8580   22.3720  -31.1990 C   0  0  0  0  0  0  0  0  0  0  0  0
   -5.5500   21.9440  -31.4460 C   0  0  0  0  0  0  0  0  0  0  0  0
   -2.0310   24.1110  -27.5560 C   0  0  0  0  0  0  0  0  0  0  0  0
   -1.1500   24.7940  -28.5550 C   0  0  0  0  0  0  0  0  0  0  0  0
   -1.6190   25.6810  -29.3130 O   0  0  0  0  0  0  0  0  0  0  0  0
    0.1980   24.4660  -28.6290 O   0  0  0  0  0  0  0  0  0  0  0  0
   -1.9440   21.8500  -26.3059 H   0  0  0  0  0  0  0  0  0  0  0  0
   -2.3505   20.7566  -27.6719 H   0  0  0  0  0  0  0  0  0  0  0  0
   -0.7942   21.6535  -27.6719 H   0  0  0  0  0  0  0  0  0  0  0  0
   -4.2767   21.7115  -28.3889 H   0  0  0  0  0  0  0  0  0  0  0  0
   -4.2690   22.8143  -26.9534 H   0  0  0  0  0  0  0  0  0  0  0  0
   -5.7664   23.6544  -28.7463 H   0  0  0  0  0  0  0  0  0  0  0  0
   -4.3712   24.7692  -28.4336 H   0  0  0  0  0  0  0  0  0  0  0  0
   -0.4750   23.1830  -30.3330 H   0  0  0  0  0  0  0  0  0  0  0  0
   -2.1650   23.7140  -30.0530 H   0  0  0  0  0  0  0  0  0  0  0  0
   -3.3668   19.9535  -32.8882 H   0  0  0  0  0  0  0  0  0  0  0  0
   -6.0846   19.2600  -33.4815 H   0  0  0  0  0  0  0  0  0  0  0  0
   -8.4656   19.9785  -33.0793 H   0  0  0  0  0  0  0  0  0  0  0  0
   -9.5534   22.0187  -30.4863 H   0  0  0  0  0  0  0  0  0  0  0  0
   -9.4744   23.1258  -31.8985 H   0  0  0  0  0  0  0  0  0  0  0  0
   -7.0563   23.2339  -30.5449 H   0  0  0  0  0  0  0  0  0  0  0  0
   -2.8973   24.7522  -27.3359 H   0  0  0  0  0  0  0  0  0  0  0  0
   -1.4581   23.9284  -26.6349 H   0  0  0  0  0  0  0  0  0  0  0  0
  1  2  1  0
  2  3  1  0
  3  4  1  0
  4  5  1  0
  5  6  2  0
  5  7  1  0
  7  8  1  0
  8  9  1  0
  9 10  1  0
  9 11  2  0
  8 12  2  0
 12 13  1  0
 13 14  2  0
 14 15  1  0
 15 16  2  0
 16 17  1  0
 17 18  1  0
 16 19  1  0
 19 20  2  0
  2 21  1  0
 21 22  1  0
 22 23  2  0
 22 24  1  0
 20  7  1  0
 20 13  1  0
  1 25  1  0
  1 26  1  0
  1 27  1  0
  3 28  1  0
  3 29  1  0
  4 30  1  0
  4 31  1  0
 10 32  1  0
 10 33  1  0
 12 34  1  0
 14 35  1  0
 15 36  1  0
 17 37  1  0
 17 38  1  0
 19 39  1  0
 21 40  1  0
 21 41  1  0
M  CHG  1  24  -1
M  END
>  <UniqueID>  (50) 
49

>  <SMILES>  (50) 
CN(CCC(=O)n1c(C(N)=O)cc2ccc(CF)cc21)CC(=O)[O-]

>  <Energy>  (50) 
76.40248816587305

>  <Genealogy>  (50) 
CN(CCC(=O)n1c(C(N)=O)cc2ccc(CF)cc21)CC(=O)[O-] (protonated)
CN(CCC(=O)n1c(C(N)=O)cc2ccc(CF)cc21)CC(=O)[O-] (3D coordinates assigned)
CN(CCC(=O)n1c(C(N)=O)cc2ccc(CF)cc21)CC(=O)[O-] (optimized conformer: 76.40248816587305 kcal/mol)

>  <smiles>  (50) 
CN(CCC(=O)n1c(C(N)=O)cc2ccc(CF)cc21)CC(=O)O

>  <score_type>  (50) 
oracle

>  <origin>  (50) 
adg

>  <m_score__min__energy>  (50) 
-10.789999999999999

>  <m_primary>  (50) 
energy

$$$$
52:0
     RDKit          3D

 48 49  0  0  0  0  0  0  0  0999 V2000
   -5.0030   15.5920  -32.4360 C   0  0  0  0  0  0  0  0  0  0  0  0
   -5.6110   15.5880  -33.8290 C   0  0  0  0  0  0  0  0  0  0  0  0
   -6.2030   16.8570  -34.0890 O   0  0  0  0  0  0  0  0  0  0  0  0
   -5.4780   17.9480  -34.5690 C   0  0  0  0  0  0  0  0  0  0  0  0
   -6.0430   18.8560  -35.2330 O   0  0  0  0  0  0  0  0  0  0  0  0
   -4.0030   18.0110  -34.3090 C   0  0  0  0  0  0  0  0  0  0  0  0
   -3.6880   19.0220  -33.2040 C   0  0  0  0  0  0  0  0  0  0  0  0
   -4.3580   20.2940  -33.4610 N   0  0  0  0  0  0  0  0  0  0  0  0
   -3.8400   21.5410  -32.9820 C   0  0  0  0  0  0  0  0  0  0  0  0
   -3.8590   22.5370  -33.7440 O   0  0  0  0  0  0  0  0  0  0  0  0
   -3.3680   21.6880  -31.6310 N   0  0  0  0  0  0  0  0  0  0  0  0
   -2.0010   21.2610  -31.3070 C   0  0  0  0  0  0  0  0  0  0  0  0
   -4.2290   22.1930  -30.5870 C   0  0  0  0  0  0  0  0  0  0  0  0
   -3.8000   22.2710  -29.4050 O   0  0  0  0  0  0  0  0  0  0  0  0
   -5.5650   22.6420  -30.8800 N   0  0  0  0  0  0  0  0  0  0  0  0
   -6.0420   23.9190  -30.8560 C   0  0  0  0  0  0  0  0  0  0  0  0
   -5.2830   25.1250  -30.4660 C   0  0  0  0  0  0  0  0  0  0  0  0
   -3.8900   25.2100  -30.7580 N   0  0  0  0  0  0  0  0  0  0  0  0
   -5.8480   26.0840  -29.8800 O   0  0  0  0  0  0  0  0  0  0  0  0
   -7.3850   23.9440  -31.2280 C   0  0  0  0  0  0  0  0  0  0  0  0
   -7.7150   22.6350  -31.4950 C   0  0  0  0  0  0  0  0  0  0  0  0
   -8.9200   22.0850  -31.9180 C   0  0  0  0  0  0  0  0  0  0  0  0
   -8.9670   20.6990  -32.1450 C   0  0  0  0  0  0  0  0  0  0  0  0
   -7.8120   19.8990  -31.9630 C   0  0  0  0  0  0  0  0  0  0  0  0
   -7.8840   18.4210  -32.2060 C   0  0  0  0  0  0  0  0  0  0  0  0
   -9.1600   17.9670  -31.9340 F   0  0  0  0  0  0  0  0  0  0  0  0
   -6.9810   17.7730  -31.3820 F   0  0  0  0  0  0  0  0  0  0  0  0
   -6.6070   20.4950  -31.5400 C   0  0  0  0  0  0  0  0  0  0  0  0
   -6.5980   21.8730  -31.2900 C   0  0  0  0  0  0  0  0  0  0  0  0
   -5.8068   15.5867  -31.6851 H   0  0  0  0  0  0  0  0  0  0  0  0
   -4.3752   14.6980  -32.3074 H   0  0  0  0  0  0  0  0  0  0  0  0
   -4.3870   16.4942  -32.3074 H   0  0  0  0  0  0  0  0  0  0  0  0
   -4.8246   15.3904  -34.5724 H   0  0  0  0  0  0  0  0  0  0  0  0
   -6.3794   14.8034  -33.8929 H   0  0  0  0  0  0  0  0  0  0  0  0
   -3.6487   17.0167  -33.9996 H   0  0  0  0  0  0  0  0  0  0  0  0
   -3.4958   18.3284  -35.2320 H   0  0  0  0  0  0  0  0  0  0  0  0
   -4.0322   18.6212  -32.2392 H   0  0  0  0  0  0  0  0  0  0  0  0
   -2.6016   19.1932  -33.1808 H   0  0  0  0  0  0  0  0  0  0  0  0
   -5.0760   20.3210  -34.2230 H   0  0  0  0  0  0  0  0  0  0  0  0
   -1.8781   21.2226  -30.2146 H   0  0  0  0  0  0  0  0  0  0  0  0
   -1.8182   20.2630  -31.7319 H   0  0  0  0  0  0  0  0  0  0  0  0
   -1.2826   21.9775  -31.7319 H   0  0  0  0  0  0  0  0  0  0  0  0
   -3.4990   26.0350  -31.2620 H   0  0  0  0  0  0  0  0  0  0  0  0
   -8.0420   24.8238  -31.2942 H   0  0  0  0  0  0  0  0  0  0  0  0
   -9.8087   22.7151  -32.0702 H   0  0  0  0  0  0  0  0  0  0  0  0
   -9.9090   20.2310  -32.4669 H   0  0  0  0  0  0  0  0  0  0  0  0
   -7.6382   18.2132  -33.2579 H   0  0  0  0  0  0  0  0  0  0  0  0
   -5.6959   19.8927  -31.4094 H   0  0  0  0  0  0  0  0  0  0  0  0
  1  2  1  0
  2  3  1  0
  3  4  1  0
  4  5  2  0
  4  6  1  0
  6  7  1  0
  7  8  1  0
  8  9  1  0
  9 10  2  0
  9 11  1  0
 11 12  1  0
 11 13  1  0
 13 14  2  0
 13 15  1  0
 15 16  1  0
 16 17  1  0
 17 18  1  0
 17 19  2  0
 16 20  2  0
 20 21  1  0
 21 22  2  0
 22 23  1  0
 23 24  2  0
 24 25  1  0
 25 26  1  0
 25 27  1  0
 24 28  1  0
 28 29  2  0
 29 15  1  0
 29 21  1  0
  1 30  1  0
  1 31  1  0
  1 32  1  0
  2 33  1  0
  2 34  1  0
  6 35  1  0
  6 36  1  0
  7 37  1  0
  7 38  1  0
  8 39  1  0
 12 40  1  0
 12 41  1  0
 12 42  1  0
 18 43  1  0
 20 44  1  0
 22 45  1  0
 23 46  1  0
 25 47  1  0
 28 48  1  0
M  CHG  1  18  -1
M  END
>  <UniqueID>  (51) 
50

>  <SMILES>  (51) 
CCOC(=O)CCNC(=O)N(C)C(=O)n1c(C([NH-])=O)cc2ccc(C(F)F)cc21

>  <Energy>  (51) 
79.69853541274895

>  <Genealogy>  (51) 
CCOC(=O)CCNC(=O)N(C)C(=O)n1c(C([NH-])=O)cc2ccc(C(F)F)cc21 (protonated)
CCOC(=O)CCNC(=O)N(C)C(=O)n1c(C([NH-])=O)cc2ccc(C(F)F)cc21 (3D coordinates assigned)
CCOC(=O)CCNC(=O)N(C)C(=O)n1c(C([NH-])=O)cc2ccc(C(F)F)cc21 (optimized conformer: 79.69853541274895 kcal/mol)

>  <smiles>  (51) 
CCOC(=O)CCNC(=O)N(C)C(=O)n1c(C(N)=O)cc2ccc(C(F)F)cc21

>  <score_type>  (51) 
oracle

>  <origin>  (51) 
adg

>  <m_score__min__energy>  (51) 
-10.43

>  <m_primary>  (51) 
energy

$$$$
53:0
     RDKit          3D

 39 40  0  0  0  0  0  0  0  0999 V2000
   -3.2790   20.6060  -29.6830 C   0  0  0  0  0  0  0  0  0  0  0  0
   -3.2990   22.0760  -29.7860 N   0  0  1  0  0  0  0  0  0  0  0  0
   -2.0000   22.7240  -29.4560 C   0  0  0  0  0  0  0  0  0  0  0  0
   -2.0460   23.7630  -28.3070 C   0  0  2  0  0  0  0  0  0  0  0  0
   -3.3570   24.2450  -28.1540 O   0  0  0  0  0  0  0  0  0  0  0  0
   -1.1360   24.9150  -28.6280 C   0  0  0  0  0  0  0  0  0  0  0  0
   -1.6190   26.0310  -28.9550 O   0  0  0  0  0  0  0  0  0  0  0  0
    0.2420   24.7680  -28.5190 O   0  0  0  0  0  0  0  0  0  0  0  0
   -3.8180   22.4750  -31.0780 C   0  0  0  0  0  0  0  0  0  0  0  0
   -3.0680   22.5060  -32.0910 O   0  0  0  0  0  0  0  0  0  0  0  0
   -5.2260   22.7100  -31.2480 N   0  0  0  0  0  0  0  0  0  0  0  0
   -5.9250   23.8530  -31.0030 C   0  0  0  0  0  0  0  0  0  0  0  0
   -5.3430   25.1590  -30.6320 C   0  0  0  0  0  0  0  0  0  0  0  0
   -3.9270   25.3190  -30.5860 N   0  0  0  0  0  0  0  0  0  0  0  0
   -6.0840   26.1300  -30.3270 O   0  0  0  0  0  0  0  0  0  0  0  0
   -7.2860   23.6480  -31.2230 C   0  0  0  0  0  0  0  0  0  0  0  0
   -7.3960   22.3340  -31.6220 C   0  0  0  0  0  0  0  0  0  0  0  0
   -8.5230   21.5910  -31.9560 C   0  0  0  0  0  0  0  0  0  0  0  0
   -8.3410   20.2410  -32.3070 C   0  0  0  0  0  0  0  0  0  0  0  0
   -7.0420   19.6660  -32.3340 C   0  0  0  0  0  0  0  0  0  0  0  0
   -6.8640   18.2050  -32.6550 C   0  0  0  0  0  0  0  0  0  0  0  0
   -5.8290   17.6620  -31.9130 F   0  0  0  0  0  0  0  0  0  0  0  0
   -6.5740   18.0660  -34.0000 F   0  0  0  0  0  0  0  0  0  0  0  0
   -8.0190   17.4980  -32.3670 F   0  0  0  0  0  0  0  0  0  0  0  0
   -5.9260   20.4520  -31.9650 C   0  0  0  0  0  0  0  0  0  0  0  0
   -6.1380   21.7930  -31.6300 C   0  0  0  0  0  0  0  0  0  0  0  0
   -3.2750   20.3127  -28.6228 H   0  0  0  0  0  0  0  0  0  0  0  0
   -4.1716   20.1918  -30.1747 H   0  0  0  0  0  0  0  0  0  0  0  0
   -2.3755   20.2162  -30.1747 H   0  0  0  0  0  0  0  0  0  0  0  0
   -3.9820   22.4070  -29.0640 H   0  0  0  0  0  0  0  0  0  0  0  0
   -1.2900   21.9339  -29.1703 H   0  0  0  0  0  0  0  0  0  0  0  0
   -1.7034   23.2821  -30.3563 H   0  0  0  0  0  0  0  0  0  0  0  0
   -1.7181   23.2793  -27.3751 H   0  0  0  0  0  0  0  0  0  0  0  0
   -3.3640   25.1770  -28.4960 H   0  0  0  0  0  0  0  0  0  0  0  0
   -3.4540   25.6700  -29.7230 H   0  0  0  0  0  0  0  0  0  0  0  0
   -8.0989   24.3794  -31.1035 H   0  0  0  0  0  0  0  0  0  0  0  0
   -9.5251   22.0446  -31.9460 H   0  0  0  0  0  0  0  0  0  0  0  0
   -9.2144   19.6234  -32.5635 H   0  0  0  0  0  0  0  0  0  0  0  0
   -4.9151   20.0189  -31.9420 H   0  0  0  0  0  0  0  0  0  0  0  0
  1  2  1  0
  2  3  1  0
  3  4  1  0
  4  5  1  0
  4  6  1  0
  6  7  2  0
  6  8  1  0
  2  9  1  0
  9 10  2  0
  9 11  1  0
 11 12  1  0
 12 13  1  0
 13 14  1  0
 13 15  2  0
 12 16  2  0
 16 17  1  0
 17 18  2  0
 18 19  1  0
 19 20  2  0
 20 21  1  0
 21 22  1  0
 21 23  1  0
 21 24  1  0
 20 25  1  0
 25 26  2  0
 26 11  1  0
 26 17  1  0
  1 27  1  0
  1 28  1  0
  1 29  1  0
  2 30  1  1
  3 31  1  0
  3 32  1  0
  4 33  1  1
  5 34  1  0
 14 35  1  0
 16 36  1  0
 18 37  1  0
 19 38  1  0
 25 39  1  0
M  CHG  3   2   1   8  -1  14  -1
M  END
>  <UniqueID>  (52) 
51

>  <SMILES>  (52) 
C[N@@H+](C[C@H](O)C(=O)[O-])C(=O)n1c(C([NH-])=O)cc2ccc(C(F)(F)F)cc21

>  <Energy>  (52) 
85.12902947315409

>  <Genealogy>  (52) 
C[NH+](CC(O)C(=O)[O-])C(=O)n1c(C([NH-])=O)cc2ccc(C(F)(F)F)cc21 (protonated)
C[N@@H+](C[C@H](O)C(=O)[O-])C(=O)n1c(C([NH-])=O)cc2ccc(C(F)(F)F)cc21 (chirality)
C[N@@H+](C[C@H](O)C(=O)[O-])C(=O)n1c(C([NH-])=O)cc2ccc(C(F)(F)F)cc21 (3D coordinates assigned)
C[N@@H+](C[C@H](O)C(=O)[O-])C(=O)n1c(C([NH-])=O)cc2ccc(C(F)(F)F)cc21 (optimized conformer: 85.12902947315409 kcal/mol)

>  <smiles>  (52) 
CN(CC(O)C(=O)O)C(=O)n1c(C(N)=O)cc2ccc(C(F)(F)F)cc21

>  <score_type>  (52) 
oracle

>  <origin>  (52) 
adg

>  <m_score__min__energy>  (52) 
-11.31

>  <m_primary>  (52) 
energy

$$$$
54:0
     RDKit          3D

 37 38  0  0  0  0  0  0  0  0999 V2000
   -3.0460   24.8870  -26.7630 C   0  0  0  0  0  0  0  0  0  0  0  0
   -2.7940   23.8610  -27.7660 N   0  0  0  0  0  0  0  0  0  0  0  0
   -2.0670   24.1430  -28.9680 C   0  0  0  0  0  0  0  0  0  0  0  0
   -1.6530   25.3110  -29.2000 O   0  0  0  0  0  0  0  0  0  0  0  0
   -1.7480   23.0430  -29.9380 C   0  0  0  0  0  0  0  0  0  0  0  0
   -2.9140   22.7740  -30.9010 C   0  0  0  0  0  0  0  0  0  0  0  0
   -4.1920   22.3960  -30.1980 C   0  0  0  0  0  0  0  0  0  0  0  0
   -4.1550   21.9360  -29.0260 O   0  0  0  0  0  0  0  0  0  0  0  0
   -5.4630   22.6860  -30.8010 N   0  0  0  0  0  0  0  0  0  0  0  0
   -6.0810   23.8970  -30.8840 C   0  0  0  0  0  0  0  0  0  0  0  0
   -5.5100   25.1890  -30.4470 C   0  0  0  0  0  0  0  0  0  0  0  0
   -4.1220   25.4530  -30.6360 N   0  0  0  0  0  0  0  0  0  0  0  0
   -6.2320   26.0580  -29.8900 O   0  0  0  0  0  0  0  0  0  0  0  0
   -7.3320   23.7670  -31.4850 C   0  0  0  0  0  0  0  0  0  0  0  0
   -7.4600   22.4260  -31.7690 C   0  0  0  0  0  0  0  0  0  0  0  0
   -8.5200   21.7290  -32.3420 C   0  0  0  0  0  0  0  0  0  0  0  0
   -8.3960   20.3360  -32.4780 C   0  0  0  0  0  0  0  0  0  0  0  0
   -7.2180   19.6670  -32.0530 C   0  0  0  0  0  0  0  0  0  0  0  0
   -7.1210   18.1660  -32.1450 C   0  0  0  0  0  0  0  0  0  0  0  0
   -6.3980   17.6580  -31.0810 F   0  0  0  0  0  0  0  0  0  0  0  0
   -8.3810   17.5920  -32.1260 F   0  0  0  0  0  0  0  0  0  0  0  0
   -6.4890   17.8230  -33.3260 F   0  0  0  0  0  0  0  0  0  0  0  0
   -6.1750   20.4110  -31.4560 C   0  0  0  0  0  0  0  0  0  0  0  0
   -6.3190   21.7960  -31.3460 C   0  0  0  0  0  0  0  0  0  0  0  0
   -2.9391   24.4518  -25.7584 H   0  0  0  0  0  0  0  0  0  0  0  0
   -2.3224   25.7062  -26.8866 H   0  0  0  0  0  0  0  0  0  0  0  0
   -4.0668   25.2777  -26.8866 H   0  0  0  0  0  0  0  0  0  0  0  0
   -3.1460   22.8920  -27.5920 H   0  0  0  0  0  0  0  0  0  0  0  0
   -0.8622   23.3306  -30.5233 H   0  0  0  0  0  0  0  0  0  0  0  0
   -1.5614   22.1241  -29.3628 H   0  0  0  0  0  0  0  0  0  0  0  0
   -3.0963   23.6840  -31.4915 H   0  0  0  0  0  0  0  0  0  0  0  0
   -2.6249   21.9212  -31.5327 H   0  0  0  0  0  0  0  0  0  0  0  0
   -3.5020   25.6720  -29.8250 H   0  0  0  0  0  0  0  0  0  0  0  0
   -8.0610   24.5652  -31.6888 H   0  0  0  0  0  0  0  0  0  0  0  0
   -9.4270   22.2528  -32.6781 H   0  0  0  0  0  0  0  0  0  0  0  0
   -9.2210   19.7572  -32.9188 H   0  0  0  0  0  0  0  0  0  0  0  0
   -5.2686   19.9097  -31.0857 H   0  0  0  0  0  0  0  0  0  0  0  0
  1  2  1  0
  2  3  1  0
  3  4  2  0
  3  5  1  0
  5  6  1  0
  6  7  1  0
  7  8  2  0
  7  9  1  0
  9 10  1  0
 10 11  1  0
 11 12  1  0
 11 13  2  0
 10 14  2  0
 14 15  1  0
 15 16  2  0
 16 17  1  0
 17 18  2  0
 18 19  1  0
 19 20  1  0
 19 21  1  0
 19 22  1  0
 18 23  1  0
 23 24  2  0
 24  9  1  0
 24 15  1  0
  1 25  1  0
  1 26  1  0
  1 27  1  0
  2 28  1  0
  5 29  1  0
  5 30  1  0
  6 31  1  0
  6 32  1  0
 12 33  1  0
 14 34  1  0
 16 35  1  0
 17 36  1  0
 23 37  1  0
M  CHG  1  12  -1
M  END
>  <UniqueID>  (53) 
52

>  <SMILES>  (53) 
CNC(=O)CCC(=O)n1c(C([NH-])=O)cc2ccc(C(F)(F)F)cc21

>  <Energy>  (53) 
69.8832005291037

>  <Genealogy>  (53) 
CNC(=O)CCC(=O)n1c(C([NH-])=O)cc2ccc(C(F)(F)F)cc21 (protonated)
CNC(=O)CCC(=O)n1c(C([NH-])=O)cc2ccc(C(F)(F)F)cc21 (3D coordinates assigned)
CNC(=O)CCC(=O)n1c(C([NH-])=O)cc2ccc(C(F)(F)F)cc21 (optimized conformer: 69.8832005291037 kcal/mol)

>  <smiles>  (53) 
CNC(=O)CCC(=O)n1c(C(N)=O)cc2ccc(C(F)(F)F)cc21

>  <score_type>  (53) 
oracle

>  <origin>  (53) 
adg

>  <m_score__min__energy>  (53) 
-9.9800000000000004

>  <m_primary>  (53) 
energy

$$$$
55:0
     RDKit          3D

 43 45  0  0  0  0  0  0  0  0999 V2000
    0.9750   25.0200  -27.2630 C   0  0  0  0  0  0  0  0  0  0  0  0
    0.2950   24.5790  -28.4710 N   0  0  0  0  0  0  0  0  0  0  0  0
   -1.0850   24.8480  -28.7280 C   0  0  0  0  0  0  0  0  0  0  0  0
   -1.4710   26.0270  -28.9620 O   0  0  0  0  0  0  0  0  0  0  0  0
   -2.0740   23.7240  -28.7470 C   0  0  0  0  0  0  0  0  0  0  0  0
   -2.2400   23.2370  -30.0680 O   0  0  0  0  0  0  0  0  0  0  0  0
   -3.2590   22.2560  -30.1330 C   0  0  0  0  0  0  0  0  0  0  0  0
   -4.1010   22.4580  -31.3610 C   0  0  0  0  0  0  0  0  0  0  0  0
   -3.5990   22.2540  -32.4990 O   0  0  0  0  0  0  0  0  0  0  0  0
   -5.4880   22.8060  -31.2450 N   0  0  0  0  0  0  0  0  0  0  0  0
   -6.0140   24.0050  -30.8690 C   0  0  0  0  0  0  0  0  0  0  0  0
   -5.2410   25.2160  -30.5190 C   0  0  0  0  0  0  0  0  0  0  0  0
   -3.8620   25.3050  -30.8730 N   0  0  0  0  0  0  0  0  0  0  0  0
   -5.7820   26.1690  -29.8970 O   0  0  0  0  0  0  0  0  0  0  0  0
   -7.4070   23.9660  -30.9280 C   0  0  0  0  0  0  0  0  0  0  0  0
   -7.7170   22.6950  -31.3580 C   0  0  0  0  0  0  0  0  0  0  0  0
   -8.9550   22.1120  -31.6150 C   0  0  0  0  0  0  0  0  0  0  0  0
   -8.9750   20.7770  -32.0580 C   0  0  0  0  0  0  0  0  0  0  0  0
   -7.7680   20.0510  -32.2100 C   0  0  0  0  0  0  0  0  0  0  0  0
   -7.7900   18.6360  -32.7170 C   0  0  0  0  0  0  0  0  0  0  0  0
   -6.5250   18.3280  -33.3760 N   0  0  0  0  0  0  0  0  0  0  0  0
   -6.0590   18.8630  -34.5160 C   0  0  0  0  0  0  0  0  0  0  0  0
   -4.8210   18.4110  -34.7930 N   0  0  0  0  0  0  0  0  0  0  0  0
   -4.5730   17.5870  -33.7510 C   0  0  0  0  0  0  0  0  0  0  0  0
   -5.5970   17.5330  -32.8780 N   0  0  0  0  0  0  0  0  0  0  0  0
   -6.5330   20.6760  -31.9410 C   0  0  0  0  0  0  0  0  0  0  0  0
   -6.5420   22.0130  -31.5340 C   0  0  0  0  0  0  0  0  0  0  0  0
    0.4238   24.6626  -26.3807 H   0  0  0  0  0  0  0  0  0  0  0  0
    1.9964   24.6119  -27.2474 H   0  0  0  0  0  0  0  0  0  0  0  0
    1.0190   26.1190  -27.2474 H   0  0  0  0  0  0  0  0  0  0  0  0
   -1.7103   22.9097  -28.1031 H   0  0  0  0  0  0  0  0  0  0  0  0
   -3.0421   24.0929  -28.3774 H   0  0  0  0  0  0  0  0  0  0  0  0
   -2.7993   21.2573  -30.1687 H   0  0  0  0  0  0  0  0  0  0  0  0
   -3.8985   22.3454  -29.2425 H   0  0  0  0  0  0  0  0  0  0  0  0
   -3.1180   25.2800  -30.1410 H   0  0  0  0  0  0  0  0  0  0  0  0
   -8.1083   24.7773  -30.6833 H   0  0  0  0  0  0  0  0  0  0  0  0
   -9.8882   22.6776  -31.4760 H   0  0  0  0  0  0  0  0  0  0  0  0
   -9.9355   20.2929  -32.2882 H   0  0  0  0  0  0  0  0  0  0  0  0
   -7.9389   17.9475  -31.8721 H   0  0  0  0  0  0  0  0  0  0  0  0
   -8.6128   18.5210  -33.4379 H   0  0  0  0  0  0  0  0  0  0  0  0
   -6.6153   19.5767  -35.1414 H   0  0  0  0  0  0  0  0  0  0  0  0
   -3.6370   17.0221  -33.6292 H   0  0  0  0  0  0  0  0  0  0  0  0
   -5.5868   20.1254  -32.0487 H   0  0  0  0  0  0  0  0  0  0  0  0
  1  2  1  0
  2  3  1  0
  3  4  2  0
  3  5  1  0
  5  6  1  0
  6  7  1  0
  7  8  1  0
  8  9  2  0
  8 10  1  0
 10 11  1  0
 11 12  1  0
 12 13  1  0
 12 14  2  0
 11 15  2  0
 15 16  1  0
 16 17  2  0
 17 18  1  0
 18 19  2  0
 19 20  1  0
 20 21  1  0
 21 22  1  0
 22 23  2  0
 23 24  1  0
 24 25  2  0
 19 26  1  0
 26 27  2  0
 27 10  1  0
 27 16  1  0
 25 21  1  0
  1 28  1  0
  1 29  1  0
  1 30  1  0
  5 31  1  0
  5 32  1  0
  7 33  1  0
  7 34  1  0
 13 35  1  0
 15 36  1  0
 17 37  1  0
 18 38  1  0
 20 39  1  0
 20 40  1  0
 22 41  1  0
 24 42  1  0
 26 43  1  0
M  CHG  2   2  -1  13  -1
M  END
>  <UniqueID>  (54) 
53

>  <SMILES>  (54) 
C[N-]C(=O)COCC(=O)n1c(C([NH-])=O)cc2ccc(Cn3cncn3)cc21

>  <Energy>  (54) 
113.25862663551739

>  <Genealogy>  (54) 
C[N-]C(=O)COCC(=O)n1c(C([NH-])=O)cc2ccc(Cn3cncn3)cc21 (protonated)
C[N-]C(=O)COCC(=O)n1c(C([NH-])=O)cc2ccc(Cn3cncn3)cc21 (3D coordinates assigned)
C[N-]C(=O)COCC(=O)n1c(C([NH-])=O)cc2ccc(Cn3cncn3)cc21 (optimized conformer: 113.25862663551739 kcal/mol)

>  <smiles>  (54) 
CNC(=O)COCC(=O)n1c(C(N)=O)cc2ccc(Cn3cncn3)cc21

>  <score_type>  (54) 
oracle

>  <origin>  (54) 
adg

>  <m_score__min__energy>  (54) 
-12.52

>  <m_primary>  (54) 
energy

$$$$
57:0
     RDKit          3D

 41 43  0  0  0  0  0  0  0  0999 V2000
   -4.0490   25.6740  -30.4710 N   0  0  0  0  0  0  0  0  0  0  0  0
   -5.3890   25.2630  -30.2210 C   0  0  0  0  0  0  0  0  0  0  0  0
   -6.1600   26.0270  -29.5790 O   0  0  0  0  0  0  0  0  0  0  0  0
   -5.9050   23.9830  -30.7510 C   0  0  0  0  0  0  0  0  0  0  0  0
   -7.2520   23.7510  -31.0150 C   0  0  0  0  0  0  0  0  0  0  0  0
   -7.3030   22.4960  -31.5780 C   0  0  0  0  0  0  0  0  0  0  0  0
   -8.3950   21.7620  -32.0260 C   0  0  0  0  0  0  0  0  0  0  0  0
   -8.1590   20.4770  -32.5420 C   0  0  0  0  0  0  0  0  0  0  0  0
   -6.8430   19.9400  -32.5950 C   0  0  0  0  0  0  0  0  0  0  0  0
   -6.6110   18.6110  -33.1210 N   0  0  0  0  0  0  0  0  0  0  0  0
   -5.7460   18.3260  -34.2570 C   0  0  0  0  0  0  0  0  0  0  0  0
   -5.6560   16.8090  -34.3420 C   0  0  0  0  0  0  0  0  0  0  0  0
   -6.8230   16.2780  -33.5190 C   0  0  0  0  0  0  0  0  0  0  0  0
   -7.2070   17.4030  -32.5690 C   0  0  0  0  0  0  0  0  0  0  0  0
   -5.7610   20.7250  -32.1240 C   0  0  0  0  0  0  0  0  0  0  0  0
   -6.0250   22.0090  -31.6350 C   0  0  0  0  0  0  0  0  0  0  0  0
   -5.1530   22.9090  -31.1280 N   0  0  0  0  0  0  0  0  0  0  0  0
   -3.7410   22.7150  -30.9540 C   0  0  0  0  0  0  0  0  0  0  0  0
   -2.9420   23.0230  -31.8810 O   0  0  0  0  0  0  0  0  0  0  0  0
   -3.2540   22.2130  -29.7430 O   0  0  0  0  0  0  0  0  0  0  0  0
   -3.4300   22.8870  -28.5020 C   0  0  0  0  0  0  0  0  0  0  0  0
   -2.2200   23.7730  -28.2310 C   0  0  0  0  0  0  0  0  0  0  0  0
   -1.9520   24.5850  -29.3420 O   0  0  0  0  0  0  0  0  0  0  0  0
   -3.3390   25.0010  -30.8370 H   0  0  0  0  0  0  0  0  0  0  0  0
   -8.0965   24.4272  -30.8159 H   0  0  0  0  0  0  0  0  0  0  0  0
   -9.4134   22.1750  -31.9779 H   0  0  0  0  0  0  0  0  0  0  0  0
   -9.0043   19.8773  -32.9105 H   0  0  0  0  0  0  0  0  0  0  0  0
   -6.1801   18.7360  -35.1809 H   0  0  0  0  0  0  0  0  0  0  0  0
   -4.7532   18.7834  -34.1336 H   0  0  0  0  0  0  0  0  0  0  0  0
   -5.7424   16.4780  -35.3874 H   0  0  0  0  0  0  0  0  0  0  0  0
   -4.6918   16.4385  -33.9639 H   0  0  0  0  0  0  0  0  0  0  0  0
   -7.6695   16.0243  -34.1741 H   0  0  0  0  0  0  0  0  0  0  0  0
   -6.5498   15.3629  -32.9731 H   0  0  0  0  0  0  0  0  0  0  0  0
   -8.3011   17.5046  -32.5185 H   0  0  0  0  0  0  0  0  0  0  0  0
   -6.8515   17.2077  -31.5465 H   0  0  0  0  0  0  0  0  0  0  0  0
   -4.7336   20.3324  -32.1426 H   0  0  0  0  0  0  0  0  0  0  0  0
   -4.3368   23.5080  -28.5470 H   0  0  0  0  0  0  0  0  0  0  0  0
   -3.5325   22.1479  -27.6938 H   0  0  0  0  0  0  0  0  0  0  0  0
   -2.4248   24.4095  -27.3575 H   0  0  0  0  0  0  0  0  0  0  0  0
   -1.3459   23.1344  -28.0358 H   0  0  0  0  0  0  0  0  0  0  0  0
   -2.4930   24.2250  -30.0930 H   0  0  0  0  0  0  0  0  0  0  0  0
  1  2  1  0
  2  3  2  0
  2  4  1  0
  4  5  2  0
  5  6  1  0
  6  7  2  0
  7  8  1  0
  8  9  2  0
  9 10  1  0
 10 11  1  0
 11 12  1  0
 12 13  1  0
 13 14  1  0
  9 15  1  0
 15 16  2  0
 16 17  1  0
 17 18  1  0
 18 19  2  0
 18 20  1  0
 20 21  1  0
 21 22  1  0
 22 23  1  0
 17  4  1  0
 16  6  1  0
 14 10  1  0
  1 24  1  0
  5 25  1  0
  7 26  1  0
  8 27  1  0
 11 28  1  0
 11 29  1  0
 12 30  1  0
 12 31  1  0
 13 32  1  0
 13 33  1  0
 14 34  1  0
 14 35  1  0
 15 36  1  0
 21 37  1  0
 21 38  1  0
 22 39  1  0
 22 40  1  0
 23 41  1  0
M  CHG  1   1  -1
M  END
>  <UniqueID>  (55) 
54

>  <SMILES>  (55) 
[NH-]C(=O)c1cc2ccc(N3CCCC3)cc2n1C(=O)OCCO

>  <Energy>  (55) 
77.6183313205638

>  <Genealogy>  (55) 
[NH-]C(=O)c1cc2ccc(N3CCCC3)cc2n1C(=O)OCCO (protonated)
[NH-]C(=O)c1cc2ccc(N3CCCC3)cc2n1C(=O)OCCO (3D coordinates assigned)
[NH-]C(=O)c1cc2ccc(N3CCCC3)cc2n1C(=O)OCCO (nonaromatic ring conformer: 77.6183313205638 kcal/mol)

>  <smiles>  (55) 
NC(=O)c1cc2ccc(N3CCCC3)cc2n1C(=O)OCCO

>  <score_type>  (55) 
oracle

>  <origin>  (55) 
adg

>  <m_score__min__energy>  (55) 
-11.109999999999999

>  <m_primary>  (55) 
energy

$$$$
58:0
     RDKit          3D

 49 51  0  0  0  0  0  0  0  0999 V2000
   -4.3930   13.8100  -34.1150 C   0  0  0  0  0  0  0  0  0  0  0  0
   -5.0320   14.8400  -34.8600 O   0  0  0  0  0  0  0  0  0  0  0  0
   -5.3800   16.0960  -34.3380 C   0  0  0  0  0  0  0  0  0  0  0  0
   -4.6650   17.2670  -34.6500 C   0  0  0  0  0  0  0  0  0  0  0  0
   -5.0520   18.4950  -34.1050 C   0  0  0  0  0  0  0  0  0  0  0  0
   -6.1580   18.5780  -33.2430 C   0  0  0  0  0  0  0  0  0  0  0  0
   -6.5620   19.8890  -32.6800 C   0  0  0  0  0  0  0  0  0  0  0  0
   -7.9350   20.2100  -32.5250 C   0  0  0  0  0  0  0  0  0  0  0  0
   -8.3290   21.4410  -31.9750 C   0  0  0  0  0  0  0  0  0  0  0  0
   -7.3330   22.3360  -31.5980 C   0  0  0  0  0  0  0  0  0  0  0  0
   -7.4330   23.5770  -31.0120 C   0  0  0  0  0  0  0  0  0  0  0  0
   -6.1220   24.0120  -30.8440 C   0  0  0  0  0  0  0  0  0  0  0  0
   -5.7670   25.3380  -30.3010 C   0  0  0  0  0  0  0  0  0  0  0  0
   -6.4080   25.8570  -29.1350 N   0  0  0  0  0  0  0  0  0  0  0  0
   -4.8420   26.0000  -30.8430 O   0  0  0  0  0  0  0  0  0  0  0  0
   -5.2430   23.0720  -31.2910 N   0  0  0  0  0  0  0  0  0  0  0  0
   -3.8100   23.0980  -31.2060 C   0  0  0  0  0  0  0  0  0  0  0  0
   -3.1290   22.2800  -31.8830 O   0  0  0  0  0  0  0  0  0  0  0  0
   -3.1860   24.0370  -30.3720 O   0  0  0  0  0  0  0  0  0  0  0  0
   -2.7150   23.8120  -29.0360 C   0  0  0  0  0  0  0  0  0  0  0  0
   -1.7270   24.9170  -28.6160 C   0  0  0  0  0  0  0  0  0  0  0  0
   -3.8980   23.7360  -28.0510 C   0  0  0  0  0  0  0  0  0  0  0  0
   -1.9820   22.4620  -29.0360 C   0  0  0  0  0  0  0  0  0  0  0  0
   -6.0010   22.0520  -31.7530 C   0  0  0  0  0  0  0  0  0  0  0  0
   -5.5800   20.8220  -32.2730 C   0  0  0  0  0  0  0  0  0  0  0  0
   -6.8680   17.4030  -32.9280 C   0  0  0  0  0  0  0  0  0  0  0  0
   -7.9160   17.4320  -32.0660 F   0  0  0  0  0  0  0  0  0  0  0  0
   -6.4770   16.1770  -33.4760 C   0  0  0  0  0  0  0  0  0  0  0  0
   -4.5146   14.0060  -33.0395 H   0  0  0  0  0  0  0  0  0  0  0  0
   -4.8484   12.8403  -34.3648 H   0  0  0  0  0  0  0  0  0  0  0  0
   -3.3220   13.7873  -34.3648 H   0  0  0  0  0  0  0  0  0  0  0  0
   -3.7982   17.2161  -35.3253 H   0  0  0  0  0  0  0  0  0  0  0  0
   -4.4852   19.4044  -34.3535 H   0  0  0  0  0  0  0  0  0  0  0  0
   -8.7009   19.4857  -32.8395 H   0  0  0  0  0  0  0  0  0  0  0  0
   -9.3928   21.6897  -31.8463 H   0  0  0  0  0  0  0  0  0  0  0  0
   -8.3537   24.1116  -30.7352 H   0  0  0  0  0  0  0  0  0  0  0  0
   -7.0490   25.2650  -28.5620 H   0  0  0  0  0  0  0  0  0  0  0  0
   -6.1720   26.8140  -28.7910 H   0  0  0  0  0  0  0  0  0  0  0  0
   -1.6803   24.9692  -27.5182 H   0  0  0  0  0  0  0  0  0  0  0  0
   -0.7281   24.6867  -29.0149 H   0  0  0  0  0  0  0  0  0  0  0  0
   -2.0672   25.8840  -29.0149 H   0  0  0  0  0  0  0  0  0  0  0  0
   -3.5180   23.7604  -27.0190 H   0  0  0  0  0  0  0  0  0  0  0  0
   -4.5677   24.5930  -28.2155 H   0  0  0  0  0  0  0  0  0  0  0  0
   -4.4526   22.8004  -28.2155 H   0  0  0  0  0  0  0  0  0  0  0  0
   -1.8070   22.1398  -27.9989 H   0  0  0  0  0  0  0  0  0  0  0  0
   -2.5963   21.7112  -29.5545 H   0  0  0  0  0  0  0  0  0  0  0  0
   -1.0177   22.5683  -29.5545 H   0  0  0  0  0  0  0  0  0  0  0  0
   -4.5093   20.5865  -32.3630 H   0  0  0  0  0  0  0  0  0  0  0  0
   -7.0397   15.2656  -33.2255 H   0  0  0  0  0  0  0  0  0  0  0  0
  1  2  1  0
  2  3  1  0
  3  4  2  0
  4  5  1  0
  5  6  2  0
  6  7  1  0
  7  8  2  0
  8  9  1  0
  9 10  2  0
 10 11  1  0
 11 12  2  0
 12 13  1  0
 13 14  1  0
 13 15  2  0
 12 16  1  0
 16 17  1  0
 17 18  2  0
 17 19  1  0
 19 20  1  0
 20 21  1  0
 20 22  1  0
 20 23  1  0
 16 24  1  0
 24 25  2  0
  6 26  1  0
 26 27  1  0
 26 28  2  0
 28  3  1  0
 25  7  1  0
 24 10  1  0
  1 29  1  0
  1 30  1  0
  1 31  1  0
  4 32  1  0
  5 33  1  0
  8 34  1  0
  9 35  1  0
 11 36  1  0
 14 37  1  0
 14 38  1  0
 21 39  1  0
 21 40  1  0
 21 41  1  0
 22 42  1  0
 22 43  1  0
 22 44  1  0
 23 45  1  0
 23 46  1  0
 23 47  1  0
 25 48  1  0
 28 49  1  0
M  END
>  <UniqueID>  (56) 
55

>  <SMILES>  (56) 
COc1ccc(-c2ccc3cc(C(N)=O)n(C(=O)OC(C)(C)C)c3c2)c(F)c1

>  <Energy>  (56) 
90.5838280577163

>  <Genealogy>  (56) 
COc1ccc(-c2ccc3cc(C(N)=O)n(C(=O)OC(C)(C)C)c3c2)c(F)c1 (3D coordinates assigned)
COc1ccc(-c2ccc3cc(C(N)=O)n(C(=O)OC(C)(C)C)c3c2)c(F)c1 (optimized conformer: 90.5838280577163 kcal/mol)

>  <smiles>  (56) 
COc1ccc(-c2ccc3cc(C(N)=O)n(C(=O)OC(C)(C)C)c3c2)c(F)c1

>  <score_type>  (56) 
oracle

>  <origin>  (56) 
adg

>  <m_score__min__energy>  (56) 
-9.7699999999999996

>  <m_primary>  (56) 
energy

$$$$
59:0
     RDKit          3D

 39 40  0  0  0  0  0  0  0  0999 V2000
   -6.8610   24.6970  -30.4660 C   0  0  0  0  0  0  0  0  0  0  0  0
   -7.1070   23.5690  -30.8130 C   0  0  0  0  0  0  0  0  0  0  0  0
   -7.3980   22.2220  -31.2280 C   0  0  0  0  0  0  0  0  0  0  0  0
   -8.6940   21.6880  -31.0380 C   0  0  0  0  0  0  0  0  0  0  0  0
   -8.9950   20.3830  -31.4640 C   0  0  0  0  0  0  0  0  0  0  0  0
   -7.9790   19.6420  -32.0640 C   0  0  0  0  0  0  0  0  0  0  0  0
   -8.0110   18.3810  -32.6150 C   0  0  0  0  0  0  0  0  0  0  0  0
   -6.7260   18.1610  -33.1040 C   0  0  0  0  0  0  0  0  0  0  0  0
   -6.3040   16.9020  -33.7490 C   0  0  0  0  0  0  0  0  0  0  0  0
   -4.9280   16.5250  -33.8090 N   0  0  0  0  0  0  0  0  0  0  0  0
   -7.1780   16.1190  -34.2090 O   0  0  0  0  0  0  0  0  0  0  0  0
   -5.9310   19.2440  -32.8740 N   0  0  0  0  0  0  0  0  0  0  0  0
   -4.5940   19.4650  -33.3450 C   0  0  0  0  0  0  0  0  0  0  0  0
   -4.2030   18.9120  -34.4090 O   0  0  0  0  0  0  0  0  0  0  0  0
   -3.7300   20.3000  -32.6260 O   0  0  0  0  0  0  0  0  0  0  0  0
   -3.3730   21.6050  -33.0710 C   0  0  0  0  0  0  0  0  0  0  0  0
   -3.4540   22.5260  -31.9870 O   0  0  0  0  0  0  0  0  0  0  0  0
   -2.6510   22.4250  -30.8470 C   0  0  0  0  0  0  0  0  0  0  0  0
   -1.3980   22.3160  -30.9470 O   0  0  0  0  0  0  0  0  0  0  0  0
   -3.2900   22.4110  -29.4920 C   0  0  0  0  0  0  0  0  0  0  0  0
   -4.0580   23.7090  -29.2190 C   0  0  0  0  0  0  0  0  0  0  0  0
   -3.3560   24.9080  -29.7820 C   0  0  0  0  0  0  0  0  0  0  0  0
   -2.2660   25.2970  -29.2850 O   0  0  0  0  0  0  0  0  0  0  0  0
   -3.9110   25.6030  -30.8490 O   0  0  0  0  0  0  0  0  0  0  0  0
   -6.7130   20.1420  -32.2340 C   0  0  0  0  0  0  0  0  0  0  0  0
   -6.3930   21.4460  -31.8370 C   0  0  0  0  0  0  0  0  0  0  0  0
   -6.6365   25.7263  -30.1494 H   0  0  0  0  0  0  0  0  0  0  0  0
   -9.4710   22.2979  -30.5539 H   0  0  0  0  0  0  0  0  0  0  0  0
  -10.0012   19.9598  -31.3280 H   0  0  0  0  0  0  0  0  0  0  0  0
   -8.8687   17.6937  -32.6595 H   0  0  0  0  0  0  0  0  0  0  0  0
   -4.6450   15.6540  -34.3110 H   0  0  0  0  0  0  0  0  0  0  0  0
   -4.1980   17.0580  -33.2870 H   0  0  0  0  0  0  0  0  0  0  0  0
   -2.3442   21.5890  -33.4599 H   0  0  0  0  0  0  0  0  0  0  0  0
   -4.0660   21.9189  -33.8655 H   0  0  0  0  0  0  0  0  0  0  0  0
   -3.9890   21.5636  -29.4353 H   0  0  0  0  0  0  0  0  0  0  0  0
   -2.4957   22.3150  -28.7371 H   0  0  0  0  0  0  0  0  0  0  0  0
   -5.0553   23.6342  -29.6771 H   0  0  0  0  0  0  0  0  0  0  0  0
   -4.1285   23.8383  -28.1289 H   0  0  0  0  0  0  0  0  0  0  0  0
   -5.3837   21.8533  -31.9965 H   0  0  0  0  0  0  0  0  0  0  0  0
  1  2  3  0
  2  3  1  0
  3  4  2  0
  4  5  1  0
  5  6  2  0
  6  7  1  0
  7  8  2  0
  8  9  1  0
  9 10  1  0
  9 11  2  0
  8 12  1  0
 12 13  1  0
 13 14  2  0
 13 15  1  0
 15 16  1  0
 16 17  1  0
 17 18  1  0
 18 19  2  0
 18 20  1  0
 20 21  1  0
 21 22  1  0
 22 23  2  0
 22 24  1  0
 12 25  1  0
 25 26  2  0
 26  3  1  0
 25  6  1  0
  1 27  1  0
  4 28  1  0
  5 29  1  0
  7 30  1  0
 10 31  1  0
 10 32  1  0
 16 33  1  0
 16 34  1  0
 20 35  1  0
 20 36  1  0
 21 37  1  0
 21 38  1  0
 26 39  1  0
M  CHG  1  24  -1
M  END
>  <UniqueID>  (57) 
56

>  <SMILES>  (57) 
C#Cc1ccc2cc(C(N)=O)n(C(=O)OCOC(=O)CCC(=O)[O-])c2c1

>  <Energy>  (57) 
67.48871973360527

>  <Genealogy>  (57) 
C#Cc1ccc2cc(C(N)=O)n(C(=O)OCOC(=O)CCC(=O)[O-])c2c1 (protonated)
C#Cc1ccc2cc(C(N)=O)n(C(=O)OCOC(=O)CCC(=O)[O-])c2c1 (3D coordinates assigned)
C#Cc1ccc2cc(C(N)=O)n(C(=O)OCOC(=O)CCC(=O)[O-])c2c1 (optimized conformer: 67.48871973360527 kcal/mol)

>  <smiles>  (57) 
C#Cc1ccc2cc(C(N)=O)n(C(=O)OCOC(=O)CCC(=O)O)c2c1

>  <score_type>  (57) 
oracle

>  <origin>  (57) 
adg

>  <m_score__min__energy>  (57) 
-11.43

>  <m_primary>  (57) 
energy

$$$$
60:0
     RDKit          3D

 43 45  0  0  0  0  0  0  0  0999 V2000
   -4.1770   25.5080  -30.6370 N   0  0  0  0  0  0  0  0  0  0  0  0
   -5.5290   25.0830  -30.4540 C   0  0  0  0  0  0  0  0  0  0  0  0
   -6.3360   25.8480  -29.8640 O   0  0  0  0  0  0  0  0  0  0  0  0
   -5.9790   23.7550  -30.9270 C   0  0  0  0  0  0  0  0  0  0  0  0
   -7.2730   23.4720  -31.3660 C   0  0  0  0  0  0  0  0  0  0  0  0
   -7.2340   22.1650  -31.7980 C   0  0  0  0  0  0  0  0  0  0  0  0
   -8.2390   21.3670  -32.3300 C   0  0  0  0  0  0  0  0  0  0  0  0
   -7.9180   20.0430  -32.6770 C   0  0  0  0  0  0  0  0  0  0  0  0
   -6.6040   19.5370  -32.4830 C   0  0  0  0  0  0  0  0  0  0  0  0
   -6.2770   18.1330  -32.8440 C   0  0  0  0  0  0  0  0  0  0  0  0
   -6.0860   17.6210  -34.1160 C   0  0  0  0  0  0  0  0  0  0  0  0
   -5.8040   16.2820  -33.9470 C   0  0  0  0  0  0  0  0  0  0  0  0
   -5.8230   15.9830  -32.6690 O   0  0  0  0  0  0  0  0  0  0  0  0
   -6.1020   17.0640  -31.9800 C   0  0  0  0  0  0  0  0  0  0  0  0
   -5.6100   20.3860  -31.9390 C   0  0  0  0  0  0  0  0  0  0  0  0
   -5.9600   21.7010  -31.6150 C   0  0  0  0  0  0  0  0  0  0  0  0
   -5.1790   22.6620  -31.0800 N   0  0  0  0  0  0  0  0  0  0  0  0
   -3.7990   22.5190  -30.7080 C   0  0  0  0  0  0  0  0  0  0  0  0
   -2.9010   23.0160  -31.4390 O   0  0  0  0  0  0  0  0  0  0  0  0
   -3.4090   21.7130  -29.5090 C   0  0  0  0  0  0  0  0  0  0  0  0
   -2.6510   22.5290  -28.6420 O   0  0  0  0  0  0  0  0  0  0  0  0
   -3.4750   22.9970  -27.5960 C   0  0  0  0  0  0  0  0  0  0  0  0
   -3.2430   24.4980  -27.4150 C   0  0  0  0  0  0  0  0  0  0  0  0
   -1.9240   24.9390  -28.0540 C   0  0  0  0  0  0  0  0  0  0  0  0
   -2.1090   25.1900  -29.4200 O   0  0  0  0  0  0  0  0  0  0  0  0
   -3.8650   26.4330  -30.2650 H   0  0  0  0  0  0  0  0  0  0  0  0
   -3.4930   24.9330  -31.1750 H   0  0  0  0  0  0  0  0  0  0  0  0
   -8.1400   24.1490  -31.3668 H   0  0  0  0  0  0  0  0  0  0  0  0
   -9.2562   21.7596  -32.4755 H   0  0  0  0  0  0  0  0  0  0  0  0
   -8.6936   19.3903  -33.1041 H   0  0  0  0  0  0  0  0  0  0  0  0
   -6.1468   18.1702  -35.0671 H   0  0  0  0  0  0  0  0  0  0  0  0
   -5.5947   15.5716  -34.7603 H   0  0  0  0  0  0  0  0  0  0  0  0
   -6.1844   17.1141  -30.8842 H   0  0  0  0  0  0  0  0  0  0  0  0
   -4.5858   20.0198  -31.7749 H   0  0  0  0  0  0  0  0  0  0  0  0
   -4.3126   21.3607  -28.9900 H   0  0  0  0  0  0  0  0  0  0  0  0
   -2.8132   20.8423  -29.8204 H   0  0  0  0  0  0  0  0  0  0  0  0
   -4.5302   22.8143  -27.8475 H   0  0  0  0  0  0  0  0  0  0  0  0
   -3.2299   22.4673  -26.6636 H   0  0  0  0  0  0  0  0  0  0  0  0
   -4.0708   25.0478  -27.8866 H   0  0  0  0  0  0  0  0  0  0  0  0
   -3.1955   24.7141  -26.3375 H   0  0  0  0  0  0  0  0  0  0  0  0
   -1.5698   25.8561  -27.5606 H   0  0  0  0  0  0  0  0  0  0  0  0
   -1.1807   24.1371  -27.9335 H   0  0  0  0  0  0  0  0  0  0  0  0
   -2.1650   24.3060  -29.8670 H   0  0  0  0  0  0  0  0  0  0  0  0
  1  2  1  0
  2  3  2  0
  2  4  1  0
  4  5  2  0
  5  6  1  0
  6  7  2  0
  7  8  1  0
  8  9  2  0
  9 10  1  0
 10 11  1  0
 11 12  2  0
 12 13  1  0
 13 14  1  0
  9 15  1  0
 15 16  2  0
 16 17  1  0
 17 18  1  0
 18 19  2  0
 18 20  1  0
 20 21  1  0
 21 22  1  0
 22 23  1  0
 23 24  1  0
 24 25  1  0
 17  4  1  0
 16  6  1  0
 14 10  2  0
  1 26  1  0
  1 27  1  0
  5 28  1  0
  7 29  1  0
  8 30  1  0
 11 31  1  0
 12 32  1  0
 14 33  1  0
 15 34  1  0
 20 35  1  0
 20 36  1  0
 22 37  1  0
 22 38  1  0
 23 39  1  0
 23 40  1  0
 24 41  1  0
 24 42  1  0
 25 43  1  0
M  END
>  <UniqueID>  (58) 
57

>  <SMILES>  (58) 
NC(=O)c1cc2ccc(-c3ccoc3)cc2n1C(=O)COCCCO

>  <Energy>  (58) 
108.51037633188487

>  <Genealogy>  (58) 
NC(=O)c1cc2ccc(-c3ccoc3)cc2n1C(=O)COCCCO (3D coordinates assigned)
NC(=O)c1cc2ccc(-c3ccoc3)cc2n1C(=O)COCCCO (optimized conformer: 108.51037633188487 kcal/mol)

>  <smiles>  (58) 
NC(=O)c1cc2ccc(-c3ccoc3)cc2n1C(=O)COCCCO

>  <score_type>  (58) 
oracle

>  <origin>  (58) 
adg

>  <m_score__min__energy>  (58) 
-9.0099999999999998

>  <m_primary>  (58) 
energy

$$$$
61:0
     RDKit          3D

 39 40  0  0  0  0  0  0  0  0999 V2000
   -4.0060   25.6020  -30.7580 N   0  0  0  0  0  0  0  0  0  0  0  0
   -4.8160   24.7800  -29.9210 C   0  0  0  0  0  0  0  0  0  0  0  0
   -4.7570   24.9220  -28.6720 O   0  0  0  0  0  0  0  0  0  0  0  0
   -5.7390   23.7980  -30.5250 C   0  0  0  0  0  0  0  0  0  0  0  0
   -7.1270   23.8720  -30.4160 C   0  0  0  0  0  0  0  0  0  0  0  0
   -7.6040   22.7390  -31.0350 C   0  0  0  0  0  0  0  0  0  0  0  0
   -8.9110   22.2990  -31.2190 C   0  0  0  0  0  0  0  0  0  0  0  0
   -9.1070   21.0890  -31.9070 C   0  0  0  0  0  0  0  0  0  0  0  0
   -8.0020   20.3510  -32.4080 C   0  0  0  0  0  0  0  0  0  0  0  0
   -8.2140   19.0990  -33.0910 N   0  0  0  0  0  0  0  0  0  0  0  0
   -8.0170   17.9790  -32.1590 C   0  0  0  0  0  0  0  0  0  0  0  0
   -6.8750   17.0680  -32.6190 C   0  0  0  0  0  0  0  0  0  0  0  0
   -6.7620   17.1040  -34.0140 O   0  0  0  0  0  0  0  0  0  0  0  0
   -6.6880   20.8280  -32.1900 C   0  0  0  0  0  0  0  0  0  0  0  0
   -6.5250   22.0280  -31.4920 C   0  0  0  0  0  0  0  0  0  0  0  0
   -5.3750   22.6660  -31.1910 N   0  0  0  0  0  0  0  0  0  0  0  0
   -4.0550   22.2410  -31.5650 C   0  0  0  0  0  0  0  0  0  0  0  0
   -3.1120   23.0760  -31.5630 O   0  0  0  0  0  0  0  0  0  0  0  0
   -3.7660   20.7830  -31.8000 C   0  0  0  0  0  0  0  0  0  0  0  0
   -3.6310   20.4570  -33.2910 C   0  0  0  0  0  0  0  0  0  0  0  0
   -4.4380   19.2460  -33.6360 C   0  0  0  0  0  0  0  0  0  0  0  0
   -4.0480   18.1020  -33.2810 O   0  0  0  0  0  0  0  0  0  0  0  0
   -5.5950   19.3740  -34.3920 O   0  0  0  0  0  0  0  0  0  0  0  0
   -3.1140   25.2410  -31.1630 H   0  0  0  0  0  0  0  0  0  0  0  0
   -7.7162   24.6676  -29.9367 H   0  0  0  0  0  0  0  0  0  0  0  0
   -9.7641   22.8797  -30.8381 H   0  0  0  0  0  0  0  0  0  0  0  0
  -10.1281   20.7094  -32.0591 H   0  0  0  0  0  0  0  0  0  0  0  0
   -9.1870   19.0740  -33.4790 H   0  0  0  0  0  0  0  0  0  0  0  0
   -7.5450   19.0170  -33.8920 H   0  0  0  0  0  0  0  0  0  0  0  0
   -7.7772   18.3794  -31.1629 H   0  0  0  0  0  0  0  0  0  0  0  0
   -8.9431   17.3863  -32.1270 H   0  0  0  0  0  0  0  0  0  0  0  0
   -5.9319   17.4114  -32.1688 H   0  0  0  0  0  0  0  0  0  0  0  0
   -7.0878   16.0364  -32.3019 H   0  0  0  0  0  0  0  0  0  0  0  0
   -5.9390   17.6220  -34.2100 H   0  0  0  0  0  0  0  0  0  0  0  0
   -5.8164   20.2685  -32.5605 H   0  0  0  0  0  0  0  0  0  0  0  0
   -2.8257   20.5212  -31.2928 H   0  0  0  0  0  0  0  0  0  0  0  0
   -4.6095   20.2010  -31.4003 H   0  0  0  0  0  0  0  0  0  0  0  0
   -3.9898   21.3121  -33.8827 H   0  0  0  0  0  0  0  0  0  0  0  0
   -2.5734   20.2570  -33.5178 H   0  0  0  0  0  0  0  0  0  0  0  0
  1  2  1  0
  2  3  2  0
  2  4  1  0
  4  5  2  0
  5  6  1  0
  6  7  2  0
  7  8  1  0
  8  9  2  0
  9 10  1  0
 10 11  1  0
 11 12  1  0
 12 13  1  0
  9 14  1  0
 14 15  2  0
 15 16  1  0
 16 17  1  0
 17 18  2  0
 17 19  1  0
 19 20  1  0
 20 21  1  0
 21 22  2  0
 21 23  1  0
 16  4  1  0
 15  6  1  0
  1 24  1  0
  5 25  1  0
  7 26  1  0
  8 27  1  0
 10 28  1  0
 10 29  1  0
 11 30  1  0
 11 31  1  0
 12 32  1  0
 12 33  1  0
 13 34  1  0
 14 35  1  0
 19 36  1  0
 19 37  1  0
 20 38  1  0
 20 39  1  0
M  CHG  3   1  -1  10   1  23  -1
M  END
>  <UniqueID>  (59) 
58

>  <SMILES>  (59) 
[NH-]C(=O)c1cc2ccc([NH2+]CCO)cc2n1C(=O)CCC(=O)[O-]

>  <Energy>  (59) 
73.53059832752085

>  <Genealogy>  (59) 
[NH-]C(=O)c1cc2ccc([NH2+]CCO)cc2n1C(=O)CCC(=O)[O-] (protonated)
[NH-]C(=O)c1cc2ccc([NH2+]CCO)cc2n1C(=O)CCC(=O)[O-] (3D coordinates assigned)
[NH-]C(=O)c1cc2ccc([NH2+]CCO)cc2n1C(=O)CCC(=O)[O-] (optimized conformer: 73.53059832752085 kcal/mol)

>  <smiles>  (59) 
NC(=O)c1cc2ccc(NCCO)cc2n1C(=O)CCC(=O)O

>  <score_type>  (59) 
oracle

>  <origin>  (59) 
adg

>  <m_score__min__energy>  (59) 
-9.2599999999999998

>  <m_primary>  (59) 
energy

$$$$
62:0
     RDKit          3D

 38 39  0  0  0  0  0  0  0  0999 V2000
   -9.0940   18.5160  -31.5760 C   0  0  0  0  0  0  0  0  0  0  0  0
   -8.2200   19.1890  -32.5300 N   0  0  0  0  0  0  0  0  0  0  0  0
   -7.3640   20.2680  -32.1370 C   0  0  0  0  0  0  0  0  0  0  0  0
   -7.3570   20.6740  -30.9430 O   0  0  0  0  0  0  0  0  0  0  0  0
   -6.4460   20.8970  -33.1380 C   0  0  0  0  0  0  0  0  0  0  0  0
   -5.1720   20.1680  -33.1810 N   0  0  0  0  0  0  0  0  0  0  0  0
   -5.0440   18.9360  -33.9720 C   0  0  0  0  0  0  0  0  0  0  0  0
   -5.6980   17.7910  -33.2610 C   0  0  0  0  0  0  0  0  0  0  0  0
   -6.7250   17.3040  -33.7030 O   0  0  0  0  0  0  0  0  0  0  0  0
   -4.0340   20.6730  -32.4580 C   0  0  0  0  0  0  0  0  0  0  0  0
   -2.8280   19.9290  -32.4220 C   0  0  0  0  0  0  0  0  0  0  0  0
   -1.7170   20.4000  -31.7030 C   0  0  0  0  0  0  0  0  0  0  0  0
   -1.8380   21.6160  -31.0380 C   0  0  0  0  0  0  0  0  0  0  0  0
   -0.9320   22.2870  -30.2500 C   0  0  0  0  0  0  0  0  0  0  0  0
   -1.5890   23.4430  -29.8340 C   0  0  0  0  0  0  0  0  0  0  0  0
   -0.9400   24.5010  -29.0340 C   0  0  0  0  0  0  0  0  0  0  0  0
   -1.5030   25.8090  -28.9510 N   0  0  0  0  0  0  0  0  0  0  0  0
    0.1540   24.2650  -28.4560 O   0  0  0  0  0  0  0  0  0  0  0  0
   -2.8560   23.4820  -30.3370 N   0  0  0  0  0  0  0  0  0  0  0  0
   -3.8790   24.4530  -30.0660 C   0  0  0  0  0  0  0  0  0  0  0  0
   -4.7710   24.2150  -29.2100 O   0  0  0  0  0  0  0  0  0  0  0  0
   -3.8770   25.6760  -30.7250 O   0  0  0  0  0  0  0  0  0  0  0  0
   -2.9910   22.3560  -31.0750 C   0  0  0  0  0  0  0  0  0  0  0  0
   -4.1200   21.9020  -31.7670 C   0  0  0  0  0  0  0  0  0  0  0  0
   -8.7762   18.7607  -30.5517 H   0  0  0  0  0  0  0  0  0  0  0  0
  -10.1305   18.8515  -31.7284 H   0  0  0  0  0  0  0  0  0  0  0  0
   -9.0345   17.4282  -31.7284 H   0  0  0  0  0  0  0  0  0  0  0  0
   -8.2120   18.8640  -33.5230 H   0  0  0  0  0  0  0  0  0  0  0  0
   -6.9161   20.8673  -34.1320 H   0  0  0  0  0  0  0  0  0  0  0  0
   -6.2547   21.9401  -32.8460 H   0  0  0  0  0  0  0  0  0  0  0  0
   -5.5280   19.0803  -34.9492 H   0  0  0  0  0  0  0  0  0  0  0  0
   -3.9766   18.7087  -34.1099 H   0  0  0  0  0  0  0  0  0  0  0  0
   -5.2515   17.3892  -32.3395 H   0  0  0  0  0  0  0  0  0  0  0  0
   -2.7615   18.9733  -32.9625 H   0  0  0  0  0  0  0  0  0  0  0  0
   -0.7800   19.8250  -31.6668 H   0  0  0  0  0  0  0  0  0  0  0  0
    0.0936   21.9767  -30.0011 H   0  0  0  0  0  0  0  0  0  0  0  0
   -2.5360   25.9500  -28.9670 H   0  0  0  0  0  0  0  0  0  0  0  0
   -5.0510   22.4878  -31.7725 H   0  0  0  0  0  0  0  0  0  0  0  0
  1  2  1  0
  2  3  1  0
  3  4  2  0
  3  5  1  0
  5  6  1  0
  6  7  1  0
  7  8  1  0
  8  9  2  0
  6 10  1  0
 10 11  2  0
 11 12  1  0
 12 13  2  0
 13 14  1  0
 14 15  2  0
 15 16  1  0
 16 17  1  0
 16 18  2  0
 15 19  1  0
 19 20  1  0
 20 21  2  0
 20 22  1  0
 19 23  1  0
 23 24  2  0
 24 10  1  0
 23 13  1  0
  1 25  1  0
  1 26  1  0
  1 27  1  0
  2 28  1  0
  5 29  1  0
  5 30  1  0
  7 31  1  0
  7 32  1  0
  8 33  1  0
 11 34  1  0
 12 35  1  0
 14 36  1  0
 17 37  1  0
 24 38  1  0
M  CHG  2  17  -1  22  -1
M  END
>  <UniqueID>  (60) 
59

>  <SMILES>  (60) 
CNC(=O)CN(CC=O)c1ccc2cc(C([NH-])=O)n(C(=O)[O-])c2c1

>  <Energy>  (60) 
75.23975798866779

>  <Genealogy>  (60) 
CNC(=O)CN(CC=O)c1ccc2cc(C([NH-])=O)n(C(=O)[O-])c2c1 (protonated)
CNC(=O)CN(CC=O)c1ccc2cc(C([NH-])=O)n(C(=O)[O-])c2c1 (3D coordinates assigned)
CNC(=O)CN(CC=O)c1ccc2cc(C([NH-])=O)n(C(=O)[O-])c2c1 (optimized conformer: 75.23975798866779 kcal/mol)

>  <smiles>  (60) 
CNC(=O)CN(CC=O)c1ccc2cc(C(N)=O)n(C(=O)O)c2c1

>  <score_type>  (60) 
oracle

>  <origin>  (60) 
adg

>  <m_score__min__energy>  (60) 
-10.960000000000001

>  <m_primary>  (60) 
energy

$$$$
63:0
     RDKit          3D

 42 44  0  0  0  0  0  0  0  0999 V2000
   -5.2590   15.2140  -33.1290 C   0  0  0  0  0  0  0  0  0  0  0  0
   -4.8940   16.5960  -32.7790 N   0  0  0  0  0  0  0  0  0  0  0  0
   -5.9300   17.1950  -31.9060 C   0  0  0  0  0  0  0  0  0  0  0  0
   -5.8230   18.7220  -31.8920 C   0  0  0  0  0  0  0  0  0  0  0  0
   -6.1070   19.3080  -33.2970 C   0  0  0  0  0  0  0  0  0  0  0  0
   -5.3960   20.5810  -33.4810 N   0  0  0  0  0  0  0  0  0  0  0  0
   -4.2640   21.0070  -32.6930 C   0  0  0  0  0  0  0  0  0  0  0  0
   -3.0880   20.2150  -32.7030 C   0  0  0  0  0  0  0  0  0  0  0  0
   -1.9620   20.5810  -31.9480 C   0  0  0  0  0  0  0  0  0  0  0  0
   -2.0400   21.7370  -31.1810 C   0  0  0  0  0  0  0  0  0  0  0  0
   -1.0920   22.3190  -30.3720 C   0  0  0  0  0  0  0  0  0  0  0  0
   -1.7080   23.4460  -29.8430 C   0  0  0  0  0  0  0  0  0  0  0  0
   -1.0630   24.3330  -28.8550 C   0  0  0  0  0  0  0  0  0  0  0  0
   -1.8340   25.3120  -28.1450 N   0  0  0  0  0  0  0  0  0  0  0  0
    0.1680   24.1920  -28.5990 O   0  0  0  0  0  0  0  0  0  0  0  0
   -2.9810   23.5720  -30.3130 N   0  0  0  0  0  0  0  0  0  0  0  0
   -3.8850   24.6640  -30.0750 C   0  0  0  0  0  0  0  0  0  0  0  0
   -3.8690   25.6640  -30.8420 O   0  0  0  0  0  0  0  0  0  0  0  0
   -4.7890   24.6330  -28.9910 O   0  0  0  0  0  0  0  0  0  0  0  0
   -3.1700   22.5120  -31.1350 C   0  0  0  0  0  0  0  0  0  0  0  0
   -4.2990   22.1840  -31.9020 C   0  0  0  0  0  0  0  0  0  0  0  0
   -5.7300   18.3130  -34.4210 C   0  0  0  0  0  0  0  0  0  0  0  0
   -4.5750   17.3970  -33.9920 C   0  0  0  0  0  0  0  0  0  0  0  0
   -5.4129   14.6312  -32.2089 H   0  0  0  0  0  0  0  0  0  0  0  0
   -6.1868   15.2182  -33.7199 H   0  0  0  0  0  0  0  0  0  0  0  0
   -4.4501   14.7596  -33.7199 H   0  0  0  0  0  0  0  0  0  0  0  0
   -6.9242   16.9079  -32.2791 H   0  0  0  0  0  0  0  0  0  0  0  0
   -5.7801   16.8248  -30.8811 H   0  0  0  0  0  0  0  0  0  0  0  0
   -6.5545   19.1279  -31.1778 H   0  0  0  0  0  0  0  0  0  0  0  0
   -4.8011   19.0003  -31.5948 H   0  0  0  0  0  0  0  0  0  0  0  0
   -7.1894   19.4923  -33.3634 H   0  0  0  0  0  0  0  0  0  0  0  0
   -5.7320   21.2400  -34.2230 H   0  0  0  0  0  0  0  0  0  0  0  0
   -3.0572   19.2994  -33.3118 H   0  0  0  0  0  0  0  0  0  0  0  0
   -1.0465   19.9714  -31.9633 H   0  0  0  0  0  0  0  0  0  0  0  0
   -0.0667   21.9676  -30.1843 H   0  0  0  0  0  0  0  0  0  0  0  0
   -1.3630   26.0060  -27.5150 H   0  0  0  0  0  0  0  0  0  0  0  0
   -2.8760   25.3180  -28.2150 H   0  0  0  0  0  0  0  0  0  0  0  0
   -5.1920   22.8261  -31.8899 H   0  0  0  0  0  0  0  0  0  0  0  0
   -6.6074   17.6945  -34.6610 H   0  0  0  0  0  0  0  0  0  0  0  0
   -5.4072   18.8894  -35.3006 H   0  0  0  0  0  0  0  0  0  0  0  0
   -4.3476   16.7077  -34.8185 H   0  0  0  0  0  0  0  0  0  0  0  0
   -3.7160   18.0394  -33.7481 H   0  0  0  0  0  0  0  0  0  0  0  0
  1  2  1  0
  2  3  1  0
  3  4  1  0
  4  5  1  0
  5  6  1  0
  6  7  1  0
  7  8  2  0
  8  9  1  0
  9 10  2  0
 10 11  1  0
 11 12  2  0
 12 13  1  0
 13 14  1  0
 13 15  2  0
 12 16  1  0
 16 17  1  0
 17 18  2  0
 17 19  1  0
 16 20  1  0
 20 21  2  0
  5 22  1  0
 22 23  1  0
 23  2  1  0
 21  7  1  0
 20 10  1  0
  1 24  1  0
  1 25  1  0
  1 26  1  0
  3 27  1  0
  3 28  1  0
  4 29  1  0
  4 30  1  0
  5 31  1  0
  6 32  1  0
  8 33  1  0
  9 34  1  0
 11 35  1  0
 14 36  1  0
 14 37  1  0
 21 38  1  0
 22 39  1  0
 22 40  1  0
 23 41  1  0
 23 42  1  0
M  CHG  1  19  -1
M  END
>  <UniqueID>  (61) 
60

>  <SMILES>  (61) 
CN1CCC(Nc2ccc3cc(C(N)=O)n(C(=O)[O-])c3c2)CC1

>  <Energy>  (61) 
92.34392986922268

>  <Genealogy>  (61) 
CN1CCC(Nc2ccc3cc(C(N)=O)n(C(=O)[O-])c3c2)CC1 (protonated)
CN1CCC(Nc2ccc3cc(C(N)=O)n(C(=O)[O-])c3c2)CC1 (3D coordinates assigned)
CN1CCC(Nc2ccc3cc(C(N)=O)n(C(=O)[O-])c3c2)CC1 (nonaromatic ring conformer: 92.34392986922268 kcal/mol)

>  <smiles>  (61) 
CN1CCC(Nc2ccc3cc(C(N)=O)n(C(=O)O)c3c2)CC1

>  <score_type>  (61) 
oracle

>  <origin>  (61) 
adg

>  <m_score__min__energy>  (61) 
-9.6300000000000008

>  <m_primary>  (61) 
energy

$$$$
64:0
     RDKit          3D

 40 41  0  0  0  0  0  0  0  0999 V2000
   -3.8480   25.2720  -30.5840 N   0  0  0  0  0  0  0  0  0  0  0  0
   -5.2090   24.8700  -30.7220 C   0  0  0  0  0  0  0  0  0  0  0  0
   -6.1230   25.6970  -30.4650 O   0  0  0  0  0  0  0  0  0  0  0  0
   -5.5300   23.4900  -31.1440 C   0  0  0  0  0  0  0  0  0  0  0  0
   -6.5030   23.1750  -32.0910 C   0  0  0  0  0  0  0  0  0  0  0  0
   -6.4480   21.8070  -32.2320 C   0  0  0  0  0  0  0  0  0  0  0  0
   -7.2040   20.9560  -33.0330 C   0  0  0  0  0  0  0  0  0  0  0  0
   -6.9440   19.5770  -32.9560 C   0  0  0  0  0  0  0  0  0  0  0  0
   -5.9450   19.0760  -32.0820 C   0  0  0  0  0  0  0  0  0  0  0  0
   -5.6950   17.5970  -32.0040 C   0  0  0  0  0  0  0  0  0  0  0  0
   -6.3940   16.9530  -33.0100 F   0  0  0  0  0  0  0  0  0  0  0  0
   -6.1150   17.1180  -30.7770 F   0  0  0  0  0  0  0  0  0  0  0  0
   -5.2020   19.9710  -31.2820 C   0  0  0  0  0  0  0  0  0  0  0  0
   -5.4700   21.3390  -31.3930 C   0  0  0  0  0  0  0  0  0  0  0  0
   -4.8960   22.3600  -30.7210 N   0  0  0  0  0  0  0  0  0  0  0  0
   -3.8440   22.2560  -29.7510 C   0  0  0  0  0  0  0  0  0  0  0  0
   -4.1220   22.2630  -28.5220 O   0  0  0  0  0  0  0  0  0  0  0  0
   -2.4070   22.2020  -30.1850 C   0  0  0  0  0  0  0  0  0  0  0  0
   -1.8010   23.5350  -30.0800 N   0  0  0  0  0  0  0  0  0  0  0  0
   -0.9370   23.6360  -28.8940 C   0  0  0  0  0  0  0  0  0  0  0  0
   -1.2770   24.9100  -28.1000 C   0  0  1  0  0  0  0  0  0  0  0  0
   -1.5100   25.9900  -28.9690 O   0  0  0  0  0  0  0  0  0  0  0  0
   -2.4890   24.7030  -27.1750 C   0  0  0  0  0  0  0  0  0  0  0  0
   -3.6720   24.5970  -27.9230 O   0  0  0  0  0  0  0  0  0  0  0  0
   -3.4880   25.6470  -29.6780 H   0  0  0  0  0  0  0  0  0  0  0  0
   -7.1732   23.8724  -32.6149 H   0  0  0  0  0  0  0  0  0  0  0  0
   -7.9804   21.3503  -33.7051 H   0  0  0  0  0  0  0  0  0  0  0  0
   -7.5211   18.8787  -33.5800 H   0  0  0  0  0  0  0  0  0  0  0  0
   -4.6183   17.4061  -32.1240 H   0  0  0  0  0  0  0  0  0  0  0  0
   -4.4318   19.6016  -30.5889 H   0  0  0  0  0  0  0  0  0  0  0  0
   -1.8577   21.5002  -29.5402 H   0  0  0  0  0  0  0  0  0  0  0  0
   -2.3578   21.8640  -31.2306 H   0  0  0  0  0  0  0  0  0  0  0  0
   -2.5780   24.2280  -29.9660 H   0  0  0  0  0  0  0  0  0  0  0  0
   -1.0934   22.7554  -28.2536 H   0  0  0  0  0  0  0  0  0  0  0  0
    0.1137   23.6819  -29.2164 H   0  0  0  0  0  0  0  0  0  0  0  0
   -0.4072   25.1402  -27.4673 H   0  0  0  0  0  0  0  0  0  0  0  0
   -2.0790   25.6590  -29.7120 H   0  0  0  0  0  0  0  0  0  0  0  0
   -2.3458   23.7805  -26.5933 H   0  0  0  0  0  0  0  0  0  0  0  0
   -2.5724   25.5694  -26.5024 H   0  0  0  0  0  0  0  0  0  0  0  0
   -3.4100   24.3330  -28.8440 H   0  0  0  0  0  0  0  0  0  0  0  0
  1  2  1  0
  2  3  2  0
  2  4  1  0
  4  5  2  0
  5  6  1  0
  6  7  2  0
  7  8  1  0
  8  9  2  0
  9 10  1  0
 10 11  1  0
 10 12  1  0
  9 13  1  0
 13 14  2  0
 14 15  1  0
 15 16  1  0
 16 17  2  0
 16 18  1  0
 18 19  1  0
 19 20  1  0
 20 21  1  0
 21 22  1  0
 21 23  1  0
 23 24  1  0
 15  4  1  0
 14  6  1  0
  1 25  1  0
  5 26  1  0
  7 27  1  0
  8 28  1  0
 10 29  1  0
 13 30  1  0
 18 31  1  0
 18 32  1  0
 19 33  1  0
 20 34  1  0
 20 35  1  0
 21 36  1  1
 22 37  1  0
 23 38  1  0
 23 39  1  0
 24 40  1  0
M  CHG  1   1  -1
M  END
>  <UniqueID>  (62) 
61

>  <SMILES>  (62) 
[NH-]C(=O)c1cc2ccc(C(F)F)cc2n1C(=O)CNC[C@@H](O)CO

>  <Energy>  (62) 
73.83024126035502

>  <Genealogy>  (62) 
[NH-]C(=O)c1cc2ccc(C(F)F)cc2n1C(=O)CNC[C@@H](O)CO (protonated)
[NH-]C(=O)c1cc2ccc(C(F)F)cc2n1C(=O)CNC[C@@H](O)CO (3D coordinates assigned)
[NH-]C(=O)c1cc2ccc(C(F)F)cc2n1C(=O)CNC[C@@H](O)CO (optimized conformer: 73.83024126035502 kcal/mol)

>  <smiles>  (62) 
NC(=O)c1cc2ccc(C(F)F)cc2n1C(=O)CNC[C@@H](O)CO

>  <score_type>  (62) 
oracle

>  <origin>  (62) 
adg

>  <m_score__min__energy>  (62) 
-10.07

>  <m_primary>  (62) 
energy

$$$$
65:0
     RDKit          3D

 50 51  0  0  0  0  0  0  0  0999 V2000
   -3.2080   19.1560  -26.7170 C   0  0  0  0  0  0  0  0  0  0  0  0
   -1.9890   19.3330  -27.5150 N   0  0  0  0  0  0  0  0  0  0  0  0
   -0.7560   18.6360  -27.1330 C   0  0  0  0  0  0  0  0  0  0  0  0
   -1.9880   20.1620  -28.6990 C   0  0  0  0  0  0  0  0  0  0  0  0
   -0.9890   20.1370  -29.4700 O   0  0  0  0  0  0  0  0  0  0  0  0
   -3.1910   20.9880  -29.0880 C   0  0  0  0  0  0  0  0  0  0  0  0
   -2.8300   22.1160  -29.9710 N   0  0  0  0  0  0  0  0  0  0  0  0
   -1.8360   23.1130  -29.5260 C   0  0  0  0  0  0  0  0  0  0  0  0
   -2.3390   23.9740  -28.3500 C   0  0  1  0  0  0  0  0  0  0  0  0
   -2.4690   25.2990  -28.7980 O   0  0  0  0  0  0  0  0  0  0  0  0
   -3.7010   23.4940  -27.8130 C   0  0  0  0  0  0  0  0  0  0  0  0
   -4.3920   24.5380  -27.1790 O   0  0  0  0  0  0  0  0  0  0  0  0
   -3.5920   22.3520  -31.1770 C   0  0  0  0  0  0  0  0  0  0  0  0
   -3.0070   22.3970  -32.2950 O   0  0  0  0  0  0  0  0  0  0  0  0
   -5.0160   22.5610  -31.1190 N   0  0  0  0  0  0  0  0  0  0  0  0
   -5.6880   23.6780  -30.7260 C   0  0  0  0  0  0  0  0  0  0  0  0
   -5.0770   24.9470  -30.2750 C   0  0  0  0  0  0  0  0  0  0  0  0
   -3.8780   25.4140  -30.8890 N   0  0  0  0  0  0  0  0  0  0  0  0
   -5.5950   25.6230  -29.3500 O   0  0  0  0  0  0  0  0  0  0  0  0
   -7.0650   23.4830  -30.8480 C   0  0  0  0  0  0  0  0  0  0  0  0
   -7.2140   22.1950  -31.3110 C   0  0  0  0  0  0  0  0  0  0  0  0
   -8.3660   21.4680  -31.6010 C   0  0  0  0  0  0  0  0  0  0  0  0
   -8.2140   20.1360  -32.0270 C   0  0  0  0  0  0  0  0  0  0  0  0
   -6.9240   19.5520  -32.1410 C   0  0  0  0  0  0  0  0  0  0  0  0
   -6.7820   18.1210  -32.5980 C   0  0  0  0  0  0  0  0  0  0  0  0
   -7.9720   17.4510  -32.3820 F   0  0  0  0  0  0  0  0  0  0  0  0
   -6.4690   18.0600  -33.9460 F   0  0  0  0  0  0  0  0  0  0  0  0
   -5.7740   17.4890  -31.8900 F   0  0  0  0  0  0  0  0  0  0  0  0
   -5.7800   20.3370  -31.8710 C   0  0  0  0  0  0  0  0  0  0  0  0
   -5.9610   21.6590  -31.4580 C   0  0  0  0  0  0  0  0  0  0  0  0
   -2.9545   19.1928  -25.6472 H   0  0  0  0  0  0  0  0  0  0  0  0
   -3.9206   19.9601  -26.9528 H   0  0  0  0  0  0  0  0  0  0  0  0
   -3.6625   18.1824  -26.9528 H   0  0  0  0  0  0  0  0  0  0  0  0
   -0.6829   18.5947  -26.0362 H   0  0  0  0  0  0  0  0  0  0  0  0
   -0.7722   17.6135  -27.5382 H   0  0  0  0  0  0  0  0  0  0  0  0
    0.1117   19.1772  -27.5382 H   0  0  0  0  0  0  0  0  0  0  0  0
   -3.9095   20.3421  -29.6139 H   0  0  0  0  0  0  0  0  0  0  0  0
   -3.6270   21.4047  -28.1681 H   0  0  0  0  0  0  0  0  0  0  0  0
   -0.9248   22.5840  -29.2098 H   0  0  0  0  0  0  0  0  0  0  0  0
   -1.6426   23.7886  -30.3723 H   0  0  0  0  0  0  0  0  0  0  0  0
   -1.6111   23.8920  -27.5294 H   0  0  0  0  0  0  0  0  0  0  0  0
   -3.4390   25.4920  -28.8660 H   0  0  0  0  0  0  0  0  0  0  0  0
   -4.3063   23.1204  -28.6521 H   0  0  0  0  0  0  0  0  0  0  0  0
   -3.5241   22.6956  -27.0773 H   0  0  0  0  0  0  0  0  0  0  0  0
   -4.4020   25.3020  -27.8140 H   0  0  0  0  0  0  0  0  0  0  0  0
   -2.9470   25.2780  -30.4330 H   0  0  0  0  0  0  0  0  0  0  0  0
   -7.8627   24.2059  -30.6219 H   0  0  0  0  0  0  0  0  0  0  0  0
   -9.3633   21.9211  -31.5001 H   0  0  0  0  0  0  0  0  0  0  0  0
   -9.1045   19.5396  -32.2748 H   0  0  0  0  0  0  0  0  0  0  0  0
   -4.7699   19.9163  -31.9836 H   0  0  0  0  0  0  0  0  0  0  0  0
  1  2  1  0
  2  3  1  0
  2  4  1  0
  4  5  2  0
  4  6  1  0
  6  7  1  0
  7  8  1  0
  8  9  1  0
  9 10  1  0
  9 11  1  0
 11 12  1  0
  7 13  1  0
 13 14  2  0
 13 15  1  0
 15 16  1  0
 16 17  1  0
 17 18  1  0
 17 19  2  0
 16 20  2  0
 20 21  1  0
 21 22  2  0
 22 23  1  0
 23 24  2  0
 24 25  1  0
 25 26  1  0
 25 27  1  0
 25 28  1  0
 24 29  1  0
 29 30  2  0
 30 15  1  0
 30 21  1  0
  1 31  1  0
  1 32  1  0
  1 33  1  0
  3 34  1  0
  3 35  1  0
  3 36  1  0
  6 37  1  0
  6 38  1  0
  8 39  1  0
  8 40  1  0
  9 41  1  1
 10 42  1  0
 11 43  1  0
 11 44  1  0
 12 45  1  0
 18 46  1  0
 20 47  1  0
 22 48  1  0
 23 49  1  0
 29 50  1  0
M  CHG  1  18  -1
M  END
>  <UniqueID>  (63) 
62

>  <SMILES>  (63) 
CN(C)C(=O)CN(C[C@@H](O)CO)C(=O)n1c(C([NH-])=O)cc2ccc(C(F)(F)F)cc21

>  <Energy>  (63) 
85.26040854542418

>  <Genealogy>  (63) 
CN(C)C(=O)CN(CC(O)CO)C(=O)n1c(C([NH-])=O)cc2ccc(C(F)(F)F)cc21 (protonated)
CN(C)C(=O)CN(C[C@@H](O)CO)C(=O)n1c(C([NH-])=O)cc2ccc(C(F)(F)F)cc21 (chirality)
CN(C)C(=O)CN(C[C@@H](O)CO)C(=O)n1c(C([NH-])=O)cc2ccc(C(F)(F)F)cc21 (3D coordinates assigned)
CN(C)C(=O)CN(C[C@@H](O)CO)C(=O)n1c(C([NH-])=O)cc2ccc(C(F)(F)F)cc21 (optimized conformer: 85.26040854542418 kcal/mol)

>  <smiles>  (63) 
CN(C)C(=O)CN(CC(O)CO)C(=O)n1c(C(N)=O)cc2ccc(C(F)(F)F)cc21

>  <score_type>  (63) 
oracle

>  <origin>  (63) 
adg

>  <m_score__min__energy>  (63) 
-10.19

>  <m_primary>  (63) 
energy

$$$$
66:0
     RDKit          3D

 34 35  0  0  0  0  0  0  0  0999 V2000
   -3.9700   25.6710  -30.8560 N   0  0  0  0  0  0  0  0  0  0  0  0
   -5.2860   25.2880  -30.4650 C   0  0  0  0  0  0  0  0  0  0  0  0
   -5.9770   26.0790  -29.7700 O   0  0  0  0  0  0  0  0  0  0  0  0
   -5.8690   24.0060  -30.9120 C   0  0  0  0  0  0  0  0  0  0  0  0
   -7.2360   23.8110  -31.0980 C   0  0  0  0  0  0  0  0  0  0  0  0
   -7.3580   22.5360  -31.5990 C   0  0  0  0  0  0  0  0  0  0  0  0
   -8.4950   21.8200  -31.9560 C   0  0  0  0  0  0  0  0  0  0  0  0
   -8.3280   20.5050  -32.4200 C   0  0  0  0  0  0  0  0  0  0  0  0
   -7.0380   19.9230  -32.5120 C   0  0  0  0  0  0  0  0  0  0  0  0
   -6.9140   18.5670  -32.9840 N   0  0  0  0  0  0  0  0  0  0  0  0
   -6.0530   17.5540  -32.3730 C   0  0  0  0  0  0  0  0  0  0  0  0
   -6.0110   16.3220  -33.2210 C   0  0  0  0  0  0  0  0  0  0  0  0
   -5.2180   15.3860  -32.9390 O   0  0  0  0  0  0  0  0  0  0  0  0
   -6.8250   16.2190  -34.3410 O   0  0  0  0  0  0  0  0  0  0  0  0
   -5.9050   20.6870  -32.1360 C   0  0  0  0  0  0  0  0  0  0  0  0
   -6.1000   22.0010  -31.6960 C   0  0  0  0  0  0  0  0  0  0  0  0
   -5.1740   22.8910  -31.2740 N   0  0  0  0  0  0  0  0  0  0  0  0
   -3.7630   22.6500  -31.1530 C   0  0  0  0  0  0  0  0  0  0  0  0
   -3.1280   22.1280  -32.1100 O   0  0  0  0  0  0  0  0  0  0  0  0
   -3.0930   23.0260  -29.9850 O   0  0  0  0  0  0  0  0  0  0  0  0
   -1.6870   22.8870  -29.8240 C   0  0  0  0  0  0  0  0  0  0  0  0
   -1.1200   24.1800  -29.3440 C   0  0  0  0  0  0  0  0  0  0  0  0
    0.0730   24.2410  -28.9460 O   0  0  0  0  0  0  0  0  0  0  0  0
   -1.9250   25.3100  -29.2830 O   0  0  0  0  0  0  0  0  0  0  0  0
   -3.1340   25.1460  -30.5160 H   0  0  0  0  0  0  0  0  0  0  0  0
   -8.0459   24.5253  -30.8886 H   0  0  0  0  0  0  0  0  0  0  0  0
   -9.4956   22.2701  -31.8774 H   0  0  0  0  0  0  0  0  0  0  0  0
   -9.2101   19.9183  -32.7162 H   0  0  0  0  0  0  0  0  0  0  0  0
   -7.4590   18.2830  -33.8290 H   0  0  0  0  0  0  0  0  0  0  0  0
   -5.0350   17.9580  -32.2707 H   0  0  0  0  0  0  0  0  0  0  0  0
   -6.4579   17.2920  -31.3844 H   0  0  0  0  0  0  0  0  0  0  0  0
   -4.8942   20.2564  -32.1889 H   0  0  0  0  0  0  0  0  0  0  0  0
   -1.4770   22.0970  -29.0880 H   0  0  0  0  0  0  0  0  0  0  0  0
   -1.2290   22.6165  -30.7868 H   0  0  0  0  0  0  0  0  0  0  0  0
  1  2  1  0
  2  3  2  0
  2  4  1  0
  4  5  2  0
  5  6  1  0
  6  7  2  0
  7  8  1  0
  8  9  2  0
  9 10  1  0
 10 11  1  0
 11 12  1  0
 12 13  2  0
 12 14  1  0
  9 15  1  0
 15 16  2  0
 16 17  1  0
 17 18  1  0
 18 19  2  0
 18 20  1  0
 20 21  1  0
 21 22  1  0
 22 23  2  0
 22 24  1  0
 17  4  1  0
 16  6  1  0
  1 25  1  0
  5 26  1  0
  7 27  1  0
  8 28  1  0
 10 29  1  0
 11 30  1  0
 11 31  1  0
 15 32  1  0
 21 33  1  0
 21 34  1  0
M  CHG  3   1  -1  14  -1  24  -1
M  END
>  <UniqueID>  (64) 
63

>  <SMILES>  (64) 
[NH-]C(=O)c1cc2ccc(NCC(=O)[O-])cc2n1C(=O)OCC(=O)[O-]

>  <Energy>  (64) 
68.77509995482117

>  <Genealogy>  (64) 
[NH-]C(=O)c1cc2ccc(NCC(=O)[O-])cc2n1C(=O)OCC(=O)[O-] (protonated)
[NH-]C(=O)c1cc2ccc(NCC(=O)[O-])cc2n1C(=O)OCC(=O)[O-] (3D coordinates assigned)
[NH-]C(=O)c1cc2ccc(NCC(=O)[O-])cc2n1C(=O)OCC(=O)[O-] (optimized conformer: 68.77509995482117 kcal/mol)

>  <smiles>  (64) 
NC(=O)c1cc2ccc(NCC(=O)O)cc2n1C(=O)OCC(=O)O

>  <score_type>  (64) 
oracle

>  <origin>  (64) 
adg

>  <m_score__min__energy>  (64) 
-11.720000000000001

>  <m_primary>  (64) 
energy

$$$$
67:0
     RDKit          3D

 38 40  0  0  0  0  0  0  0  0999 V2000
   -1.9090   25.5680  -28.9640 N   0  0  0  0  0  0  0  0  0  0  0  0
   -1.1840   24.3570  -29.1590 C   0  0  0  0  0  0  0  0  0  0  0  0
   -0.1260   24.1590  -28.5030 O   0  0  0  0  0  0  0  0  0  0  0  0
   -1.6700   23.3210  -30.0950 C   0  0  0  0  0  0  0  0  0  0  0  0
   -0.8860   22.2640  -30.5570 C   0  0  0  0  0  0  0  0  0  0  0  0
   -1.7210   21.5110  -31.3520 C   0  0  0  0  0  0  0  0  0  0  0  0
   -1.4670   20.3500  -32.0780 C   0  0  0  0  0  0  0  0  0  0  0  0
   -2.5190   19.8010  -32.8300 C   0  0  0  0  0  0  0  0  0  0  0  0
   -3.7990   20.4150  -32.8450 C   0  0  0  0  0  0  0  0  0  0  0  0
   -4.8590   19.8700  -33.6610 N   0  0  0  0  0  0  0  0  0  0  0  0
   -5.5480   18.7640  -32.9760 C   0  0  0  0  0  0  0  0  0  0  0  0
   -6.9560   19.1360  -32.5920 C   0  0  0  0  0  0  0  0  0  0  0  0
   -7.8230   18.1870  -32.0370 C   0  0  0  0  0  0  0  0  0  0  0  0
   -9.1010   18.5940  -31.6580 C   0  0  0  0  0  0  0  0  0  0  0  0
   -9.4800   19.8870  -31.8270 N   0  0  0  0  0  0  0  0  0  0  0  0
   -8.6260   20.7990  -32.3620 C   0  0  0  0  0  0  0  0  0  0  0  0
   -7.3750   20.4220  -32.7360 N   0  0  0  0  0  0  0  0  0  0  0  0
   -4.0150   21.5940  -32.0960 C   0  0  0  0  0  0  0  0  0  0  0  0
   -2.9510   22.1120  -31.3540 C   0  0  0  0  0  0  0  0  0  0  0  0
   -2.9340   23.2250  -30.5930 N   0  0  0  0  0  0  0  0  0  0  0  0
   -4.0310   24.1300  -30.4070 C   0  0  0  0  0  0  0  0  0  0  0  0
   -3.9520   25.3030  -30.8590 O   0  0  0  0  0  0  0  0  0  0  0  0
   -5.2220   23.7340  -29.5870 C   0  0  0  0  0  0  0  0  0  0  0  0
   -6.0390   24.8250  -29.3540 F   0  0  0  0  0  0  0  0  0  0  0  0
   -4.8030   23.2160  -28.3750 F   0  0  0  0  0  0  0  0  0  0  0  0
   -5.9420   22.7700  -30.2670 F   0  0  0  0  0  0  0  0  0  0  0  0
   -2.8900   25.6680  -29.3070 H   0  0  0  0  0  0  0  0  0  0  0  0
    0.1740   22.0726  -30.3338 H   0  0  0  0  0  0  0  0  0  0  0  0
   -0.4737   19.8776  -32.0631 H   0  0  0  0  0  0  0  0  0  0  0  0
   -2.3490   18.8845  -33.4141 H   0  0  0  0  0  0  0  0  0  0  0  0
   -4.4500   19.5090  -34.5530 H   0  0  0  0  0  0  0  0  0  0  0  0
   -5.5480   20.6160  -33.9160 H   0  0  0  0  0  0  0  0  0  0  0  0
   -5.5801   17.8937  -33.6479 H   0  0  0  0  0  0  0  0  0  0  0  0
   -4.9920   18.5319  -32.0556 H   0  0  0  0  0  0  0  0  0  0  0  0
   -7.5026   17.1433  -31.9030 H   0  0  0  0  0  0  0  0  0  0  0  0
   -9.8027   17.8677  -31.2219 H   0  0  0  0  0  0  0  0  0  0  0  0
   -8.9476   21.8428  -32.4924 H   0  0  0  0  0  0  0  0  0  0  0  0
   -4.9963   22.0911  -32.0974 H   0  0  0  0  0  0  0  0  0  0  0  0
  1  2  1  0
  2  3  2  0
  2  4  1  0
  4  5  2  0
  5  6  1  0
  6  7  2  0
  7  8  1  0
  8  9  2  0
  9 10  1  0
 10 11  1  0
 11 12  1  0
 12 13  2  0
 13 14  1  0
 14 15  2  0
 15 16  1  0
 16 17  2  0
  9 18  1  0
 18 19  2  0
 19 20  1  0
 20 21  1  0
 21 22  2  0
 21 23  1  0
 23 24  1  0
 23 25  1  0
 23 26  1  0
 20  4  1  0
 19  6  1  0
 17 12  1  0
  1 27  1  0
  5 28  1  0
  7 29  1  0
  8 30  1  0
 10 31  1  0
 10 32  1  0
 11 33  1  0
 11 34  1  0
 13 35  1  0
 14 36  1  0
 16 37  1  0
 18 38  1  0
M  CHG  2   1  -1  10   1
M  END
>  <UniqueID>  (65) 
64

>  <SMILES>  (65) 
[NH-]C(=O)c1cc2ccc([NH2+]Cc3ccncn3)cc2n1C(=O)C(F)(F)F

>  <Energy>  (65) 
81.55736459347102

>  <Genealogy>  (65) 
[NH-]C(=O)c1cc2ccc([NH2+]Cc3ccncn3)cc2n1C(=O)C(F)(F)F (protonated)
[NH-]C(=O)c1cc2ccc([NH2+]Cc3ccncn3)cc2n1C(=O)C(F)(F)F (3D coordinates assigned)
[NH-]C(=O)c1cc2ccc([NH2+]Cc3ccncn3)cc2n1C(=O)C(F)(F)F (optimized conformer: 81.55736459347102 kcal/mol)

>  <smiles>  (65) 
NC(=O)c1cc2ccc(NCc3ccncn3)cc2n1C(=O)C(F)(F)F

>  <score_type>  (65) 
oracle

>  <origin>  (65) 
adg

>  <m_score__min__energy>  (65) 
-10.02

>  <m_primary>  (65) 
energy

$$$$
68:0
     RDKit          3D

 38 39  0  0  0  0  0  0  0  0999 V2000
   -4.2500   25.5500  -30.6960 N   0  0  0  0  0  0  0  0  0  0  0  0
   -5.5890   25.1590  -30.3840 C   0  0  0  0  0  0  0  0  0  0  0  0
   -6.2950   25.9090  -29.6590 O   0  0  0  0  0  0  0  0  0  0  0  0
   -6.1580   23.9060  -30.9240 C   0  0  0  0  0  0  0  0  0  0  0  0
   -7.4910   23.7500  -31.3020 C   0  0  0  0  0  0  0  0  0  0  0  0
   -7.6210   22.4210  -31.6400 C   0  0  0  0  0  0  0  0  0  0  0  0
   -8.7330   21.7140  -32.0910 C   0  0  0  0  0  0  0  0  0  0  0  0
   -8.5680   20.3510  -32.3870 C   0  0  0  0  0  0  0  0  0  0  0  0
   -7.3080   19.7210  -32.2250 C   0  0  0  0  0  0  0  0  0  0  0  0
   -7.1510   18.2660  -32.5630 C   0  0  0  0  0  0  0  0  0  0  0  0
   -6.5960   17.5970  -31.4870 F   0  0  0  0  0  0  0  0  0  0  0  0
   -6.3230   18.1290  -33.6640 F   0  0  0  0  0  0  0  0  0  0  0  0
   -6.2040   20.4710  -31.7600 C   0  0  0  0  0  0  0  0  0  0  0  0
   -6.4010   21.8240  -31.4660 C   0  0  0  0  0  0  0  0  0  0  0  0
   -5.4930   22.7230  -31.0290 N   0  0  0  0  0  0  0  0  0  0  0  0
   -4.0960   22.4710  -30.8110 C   0  0  0  0  0  0  0  0  0  0  0  0
   -3.2420   23.0170  -31.5610 O   0  0  0  0  0  0  0  0  0  0  0  0
   -3.6410   21.6770  -29.6180 C   0  0  0  0  0  0  0  0  0  0  0  0
   -3.2200   22.5680  -28.4880 C   0  0  0  0  0  0  0  0  0  0  0  0
   -4.0950   23.1580  -27.7940 O   0  0  0  0  0  0  0  0  0  0  0  0
   -1.8300   22.7610  -28.2120 N   0  0  0  0  0  0  0  0  0  0  0  0
   -0.9100   23.3440  -29.1810 C   0  0  0  0  0  0  0  0  0  0  0  0
   -0.9840   24.8650  -29.1240 C   0  0  0  0  0  0  0  0  0  0  0  0
   -2.3090   25.2870  -29.2930 O   0  0  0  0  0  0  0  0  0  0  0  0
   -3.6210   24.9310  -31.2510 H   0  0  0  0  0  0  0  0  0  0  0  0
   -3.8700   26.4510  -30.3300 H   0  0  0  0  0  0  0  0  0  0  0  0
   -8.2726   24.5237  -31.3253 H   0  0  0  0  0  0  0  0  0  0  0  0
   -9.7089   22.2071  -32.2115 H   0  0  0  0  0  0  0  0  0  0  0  0
   -9.4261   19.7655  -32.7487 H   0  0  0  0  0  0  0  0  0  0  0  0
   -8.1388   17.8397  -32.7922 H   0  0  0  0  0  0  0  0  0  0  0  0
   -5.2166   20.0032  -31.6328 H   0  0  0  0  0  0  0  0  0  0  0  0
   -4.4690   21.0373  -29.2784 H   0  0  0  0  0  0  0  0  0  0  0  0
   -2.7736   21.0713  -29.9192 H   0  0  0  0  0  0  0  0  0  0  0  0
    0.1155   23.0207  -28.9492 H   0  0  0  0  0  0  0  0  0  0  0  0
   -1.1894   23.0075  -30.1903 H   0  0  0  0  0  0  0  0  0  0  0  0
   -0.6131   25.2114  -28.1481 H   0  0  0  0  0  0  0  0  0  0  0  0
   -0.3652   25.2870  -29.9296 H   0  0  0  0  0  0  0  0  0  0  0  0
   -2.8630   24.6780  -28.7380 H   0  0  0  0  0  0  0  0  0  0  0  0
  1  2  1  0
  2  3  2  0
  2  4  1  0
  4  5  2  0
  5  6  1  0
  6  7  2  0
  7  8  1  0
  8  9  2  0
  9 10  1  0
 10 11  1  0
 10 12  1  0
  9 13  1  0
 13 14  2  0
 14 15  1  0
 15 16  1  0
 16 17  2  0
 16 18  1  0
 18 19  1  0
 19 20  2  0
 19 21  1  0
 21 22  1  0
 22 23  1  0
 23 24  1  0
 15  4  1  0
 14  6  1  0
  1 25  1  0
  1 26  1  0
  5 27  1  0
  7 28  1  0
  8 29  1  0
 10 30  1  0
 13 31  1  0
 18 32  1  0
 18 33  1  0
 22 34  1  0
 22 35  1  0
 23 36  1  0
 23 37  1  0
 24 38  1  0
M  CHG  1  21  -1
M  END
>  <UniqueID>  (66) 
65

>  <SMILES>  (66) 
NC(=O)c1cc2ccc(C(F)F)cc2n1C(=O)CC(=O)[N-]CCO

>  <Energy>  (66) 
70.89709277159818

>  <Genealogy>  (66) 
NC(=O)c1cc2ccc(C(F)F)cc2n1C(=O)CC(=O)[N-]CCO (protonated)
NC(=O)c1cc2ccc(C(F)F)cc2n1C(=O)CC(=O)[N-]CCO (3D coordinates assigned)
NC(=O)c1cc2ccc(C(F)F)cc2n1C(=O)CC(=O)[N-]CCO (optimized conformer: 70.89709277159818 kcal/mol)

>  <smiles>  (66) 
NC(=O)c1cc2ccc(C(F)F)cc2n1C(=O)CC(=O)NCCO

>  <score_type>  (66) 
oracle

>  <origin>  (66) 
adg

>  <m_score__min__energy>  (66) 
-9.9800000000000004

>  <m_primary>  (66) 
energy

$$$$
69:0
     RDKit          3D

 39 40  0  0  0  0  0  0  0  0999 V2000
   -6.0420   16.9860  -31.4910 C   0  0  0  0  0  0  0  0  0  0  0  0
   -6.4760   16.8860  -32.9590 C   0  0  0  0  0  0  0  0  0  0  0  0
   -5.5160   16.0420  -33.8040 C   0  0  0  0  0  0  0  0  0  0  0  0
   -6.7230   18.2040  -33.5650 N   0  0  0  0  0  0  0  0  0  0  0  0
   -7.0240   19.4410  -32.8800 C   0  0  0  0  0  0  0  0  0  0  0  0
   -8.3830   19.8060  -32.7090 C   0  0  0  0  0  0  0  0  0  0  0  0
   -8.7350   21.0110  -32.0800 C   0  0  0  0  0  0  0  0  0  0  0  0
   -7.7100   21.8270  -31.6170 C   0  0  0  0  0  0  0  0  0  0  0  0
   -7.7700   23.0740  -31.0410 C   0  0  0  0  0  0  0  0  0  0  0  0
   -6.4450   23.4480  -30.8330 C   0  0  0  0  0  0  0  0  0  0  0  0
   -6.0540   24.7540  -30.2610 C   0  0  0  0  0  0  0  0  0  0  0  0
   -5.6810   24.8870  -28.8900 N   0  0  0  0  0  0  0  0  0  0  0  0
   -6.0940   25.7820  -30.9880 O   0  0  0  0  0  0  0  0  0  0  0  0
   -5.5960   22.4680  -31.2570 N   0  0  0  0  0  0  0  0  0  0  0  0
   -4.1580   22.5270  -31.3140 C   0  0  0  0  0  0  0  0  0  0  0  0
   -3.5830   22.5970  -32.4330 O   0  0  0  0  0  0  0  0  0  0  0  0
   -3.3270   22.4690  -30.0600 C   0  0  0  0  0  0  0  0  0  0  0  0
   -2.8950   24.1350  -29.4660 P   0  0  0  0  0  0  0  0  0  0  0  0
   -3.5130   24.3480  -28.1040 O   0  0  0  0  0  0  0  0  0  0  0  0
   -1.2160   24.2980  -29.3460 O   0  0  0  0  0  0  0  0  0  0  0  0
   -3.5020   25.2970  -30.5340 O   0  0  0  0  0  0  0  0  0  0  0  0
   -6.3890   21.4880  -31.7500 C   0  0  0  0  0  0  0  0  0  0  0  0
   -6.0120   20.3150  -32.4170 C   0  0  0  0  0  0  0  0  0  0  0  0
   -6.9054   16.7871  -30.8390 H   0  0  0  0  0  0  0  0  0  0  0  0
   -5.2531   16.2461  -31.2907 H   0  0  0  0  0  0  0  0  0  0  0  0
   -5.6564   17.9965  -31.2907 H   0  0  0  0  0  0  0  0  0  0  0  0
   -7.4386   16.3537  -32.9508 H   0  0  0  0  0  0  0  0  0  0  0  0
   -4.8568   15.4624  -33.1411 H   0  0  0  0  0  0  0  0  0  0  0  0
   -6.0941   15.3543  -34.4388 H   0  0  0  0  0  0  0  0  0  0  0  0
   -4.9080   16.7034  -34.4388 H   0  0  0  0  0  0  0  0  0  0  0  0
   -6.8580   18.2010  -34.6030 H   0  0  0  0  0  0  0  0  0  0  0  0
   -9.1741   19.1348  -33.0747 H   0  0  0  0  0  0  0  0  0  0  0  0
   -9.7893   21.3000  -31.9576 H   0  0  0  0  0  0  0  0  0  0  0  0
   -8.6727   23.6530  -30.7965 H   0  0  0  0  0  0  0  0  0  0  0  0
   -5.3560   25.8080  -28.5230 H   0  0  0  0  0  0  0  0  0  0  0  0
   -5.8200   24.1060  -28.2160 H   0  0  0  0  0  0  0  0  0  0  0  0
   -3.8975   21.9475  -29.2773 H   0  0  0  0  0  0  0  0  0  0  0  0
   -2.3945   21.9324  -30.2892 H   0  0  0  0  0  0  0  0  0  0  0  0
   -4.9499   20.0780  -32.5776 H   0  0  0  0  0  0  0  0  0  0  0  0
  1  2  1  0
  2  3  1  0
  2  4  1  0
  4  5  1  0
  5  6  2  0
  6  7  1  0
  7  8  2  0
  8  9  1  0
  9 10  2  0
 10 11  1  0
 11 12  1  0
 11 13  2  0
 10 14  1  0
 14 15  1  0
 15 16  2  0
 15 17  1  0
 17 18  1  0
 18 19  2  0
 18 20  1  0
 18 21  1  0
 14 22  1  0
 22 23  2  0
 23  5  1  0
 22  8  1  0
  1 24  1  0
  1 25  1  0
  1 26  1  0
  2 27  1  0
  3 28  1  0
  3 29  1  0
  3 30  1  0
  4 31  1  0
  6 32  1  0
  7 33  1  0
  9 34  1  0
 12 35  1  0
 12 36  1  0
 17 37  1  0
 17 38  1  0
 23 39  1  0
M  CHG  2  20  -1  21  -1
M  END
>  <UniqueID>  (67) 
66

>  <SMILES>  (67) 
CC(C)Nc1ccc2cc(C(N)=O)n(C(=O)CP(=O)([O-])[O-])c2c1

>  <Energy>  (67) 
75.07141916974834

>  <Genealogy>  (67) 
CC(C)Nc1ccc2cc(C(N)=O)n(C(=O)CP(=O)([O-])[O-])c2c1 (protonated)
CC(C)Nc1ccc2cc(C(N)=O)n(C(=O)CP(=O)([O-])[O-])c2c1 (3D coordinates assigned)
CC(C)Nc1ccc2cc(C(N)=O)n(C(=O)CP(=O)([O-])[O-])c2c1 (optimized conformer: 75.07141916974834 kcal/mol)

>  <smiles>  (67) 
CC(C)Nc1ccc2cc(C(N)=O)n(C(=O)CP(=O)(O)O)c2c1

>  <score_type>  (67) 
oracle

>  <origin>  (67) 
adg

>  <m_score__min__energy>  (67) 
-12.460000000000001

>  <m_primary>  (67) 
energy

$$$$
70:0
     RDKit          3D

 52 53  0  0  0  0  0  0  0  0999 V2000
   -2.6910   20.8060  -29.0430 C   0  0  0  0  0  0  0  0  0  0  0  0
   -2.2890   21.8910  -29.9420 N   0  0  0  0  0  0  0  0  0  0  0  0
   -2.8220   23.1890  -29.5060 C   0  0  0  0  0  0  0  0  0  0  0  0
   -3.4690   23.9380  -30.6340 C   0  0  0  0  0  0  0  0  0  0  0  0
   -3.6700   23.3610  -31.7380 O   0  0  0  0  0  0  0  0  0  0  0  0
   -3.8800   25.2610  -30.4310 O   0  0  0  0  0  0  0  0  0  0  0  0
   -5.2400   25.6400  -30.2350 C   0  0  0  0  0  0  0  0  0  0  0  0
   -6.0770   24.4400  -29.7750 C   0  0  0  0  0  0  0  0  0  0  0  0
   -7.3350   24.2400  -30.6330 C   0  0  0  0  0  0  0  0  0  0  0  0
   -7.3400   22.8990  -31.3210 C   0  0  0  0  0  0  0  0  0  0  0  0
   -8.5260   22.1240  -31.3520 C   0  0  0  0  0  0  0  0  0  0  0  0
   -8.5360   20.8520  -31.9480 C   0  0  0  0  0  0  0  0  0  0  0  0
   -7.3480   20.3810  -32.5000 C   0  0  0  0  0  0  0  0  0  0  0  0
   -7.0660   19.1730  -33.0950 C   0  0  0  0  0  0  0  0  0  0  0  0
   -5.7130   19.2310  -33.4290 C   0  0  0  0  0  0  0  0  0  0  0  0
   -4.9940   18.1650  -34.1600 C   0  0  0  0  0  0  0  0  0  0  0  0
   -3.6310   18.3390  -34.5520 N   0  0  0  0  0  0  0  0  0  0  0  0
   -5.5720   17.0750  -34.4190 O   0  0  0  0  0  0  0  0  0  0  0  0
   -5.1810   20.4300  -33.0560 N   0  0  0  0  0  0  0  0  0  0  0  0
   -3.8060   20.8370  -33.1370 C   0  0  0  0  0  0  0  0  0  0  0  0
   -3.4880   21.8400  -33.8310 O   0  0  0  0  0  0  0  0  0  0  0  0
   -2.8310   20.1200  -32.4330 O   0  0  0  0  0  0  0  0  0  0  0  0
   -1.4240   20.4030  -32.4690 C   0  0  0  0  0  0  0  0  0  0  0  0
   -0.7930   19.8520  -31.3410 O   0  0  0  0  0  0  0  0  0  0  0  0
   -1.2230   21.7950  -32.4590 O   0  0  0  0  0  0  0  0  0  0  0  0
   -0.7850   19.8050  -33.7350 C   0  0  0  0  0  0  0  0  0  0  0  0
   -1.3400   20.3770  -34.8910 O   0  0  0  0  0  0  0  0  0  0  0  0
   -6.1940   21.1230  -32.4880 C   0  0  0  0  0  0  0  0  0  0  0  0
   -6.1540   22.3880  -31.8910 C   0  0  0  0  0  0  0  0  0  0  0  0
   -2.5705   21.1312  -27.9991 H   0  0  0  0  0  0  0  0  0  0  0  0
   -3.7443   20.5482  -29.2275 H   0  0  0  0  0  0  0  0  0  0  0  0
   -2.0599   19.9241  -29.2275 H   0  0  0  0  0  0  0  0  0  0  0  0
   -2.6400   21.6760  -30.9040 H   0  0  0  0  0  0  0  0  0  0  0  0
   -3.5697   23.0192  -28.7173 H   0  0  0  0  0  0  0  0  0  0  0  0
   -1.9819   23.7938  -29.1339 H   0  0  0  0  0  0  0  0  0  0  0  0
   -5.2883   26.4284  -29.4695 H   0  0  0  0  0  0  0  0  0  0  0  0
   -5.6451   26.0085  -31.1890 H   0  0  0  0  0  0  0  0  0  0  0  0
   -5.4583   23.5327  -29.8384 H   0  0  0  0  0  0  0  0  0  0  0  0
   -6.4028   24.6345  -28.7425 H   0  0  0  0  0  0  0  0  0  0  0  0
   -8.2216   24.3107  -29.9857 H   0  0  0  0  0  0  0  0  0  0  0  0
   -7.3460   25.0204  -31.4082 H   0  0  0  0  0  0  0  0  0  0  0  0
   -9.4485   22.5227  -30.9047 H   0  0  0  0  0  0  0  0  0  0  0  0
   -9.4541   20.2469  -31.9776 H   0  0  0  0  0  0  0  0  0  0  0  0
   -7.7605   18.3382  -33.2702 H   0  0  0  0  0  0  0  0  0  0  0  0
   -3.1210   17.5650  -35.0350 H   0  0  0  0  0  0  0  0  0  0  0  0
   -3.1360   19.2460  -34.4040 H   0  0  0  0  0  0  0  0  0  0  0  0
   -0.7670   20.5660  -30.6520 H   0  0  0  0  0  0  0  0  0  0  0  0
   -2.0750   22.2180  -32.1760 H   0  0  0  0  0  0  0  0  0  0  0  0
    0.2973   20.0007  -33.7197 H   0  0  0  0  0  0  0  0  0  0  0  0
   -0.9779   18.7221  -33.7497 H   0  0  0  0  0  0  0  0  0  0  0  0
   -1.8470   21.1780  -34.5990 H   0  0  0  0  0  0  0  0  0  0  0  0
   -5.2210   22.9701  -31.8665 H   0  0  0  0  0  0  0  0  0  0  0  0
  1  2  1  0
  2  3  1  0
  3  4  1  0
  4  5  2  0
  4  6  1  0
  6  7  1  0
  7  8  1  0
  8  9  1  0
  9 10  1  0
 10 11  2  0
 11 12  1  0
 12 13  2  0
 13 14  1  0
 14 15  2  0
 15 16  1  0
 16 17  1  0
 16 18  2  0
 15 19  1  0
 19 20  1  0
 20 21  2  0
 20 22  1  0
 22 23  1  0
 23 24  1  0
 23 25  1  0
 23 26  1  0
 26 27  1  0
 19 28  1  0
 28 29  2  0
 29 10  1  0
 28 13  1  0
  1 30  1  0
  1 31  1  0
  1 32  1  0
  2 33  1  0
  3 34  1  0
  3 35  1  0
  7 36  1  0
  7 37  1  0
  8 38  1  0
  8 39  1  0
  9 40  1  0
  9 41  1  0
 11 42  1  0
 12 43  1  0
 14 44  1  0
 17 45  1  0
 17 46  1  0
 24 47  1  0
 25 48  1  0
 26 49  1  0
 26 50  1  0
 27 51  1  0
 29 52  1  0
M  END
>  <UniqueID>  (68) 
67

>  <SMILES>  (68) 
CNCC(=O)OCCCc1ccc2cc(C(N)=O)n(C(=O)OC(O)(O)CO)c2c1

>  <Energy>  (68) 
81.51158114509263

>  <Genealogy>  (68) 
CNCC(=O)OCCCc1ccc2cc(C(N)=O)n(C(=O)OC(O)(O)CO)c2c1 (3D coordinates assigned)
CNCC(=O)OCCCc1ccc2cc(C(N)=O)n(C(=O)OC(O)(O)CO)c2c1 (optimized conformer: 81.51158114509263 kcal/mol)

>  <smiles>  (68) 
CNCC(=O)OCCCc1ccc2cc(C(N)=O)n(C(=O)OC(O)(O)CO)c2c1

>  <score_type>  (68) 
oracle

>  <origin>  (68) 
adg

>  <m_score__min__energy>  (68) 
-7.4699999999999998

>  <m_primary>  (68) 
energy

$$$$
71:0
     RDKit          3D

 43 44  0  0  0  0  0  0  0  0999 V2000
   -2.9350   21.9350  -32.3870 C   0  0  0  0  0  0  0  0  0  0  0  0
   -3.6430   22.6850  -31.3020 C   0  0  0  0  0  0  0  0  0  0  0  0
   -2.9760   23.1570  -30.3430 O   0  0  0  0  0  0  0  0  0  0  0  0
   -5.0670   22.8610  -31.3370 N   0  0  0  0  0  0  0  0  0  0  0  0
   -5.7830   23.9440  -30.9220 C   0  0  0  0  0  0  0  0  0  0  0  0
   -5.2200   25.2240  -30.4400 C   0  0  0  0  0  0  0  0  0  0  0  0
   -3.9170   25.6490  -30.8300 N   0  0  0  0  0  0  0  0  0  0  0  0
   -5.9130   25.9700  -29.6980 O   0  0  0  0  0  0  0  0  0  0  0  0
   -7.1490   23.7130  -31.0740 C   0  0  0  0  0  0  0  0  0  0  0  0
   -7.2490   22.4450  -31.6020 C   0  0  0  0  0  0  0  0  0  0  0  0
   -8.3750   21.7080  -31.9520 C   0  0  0  0  0  0  0  0  0  0  0  0
   -8.1800   20.4130  -32.4640 C   0  0  0  0  0  0  0  0  0  0  0  0
   -6.8740   19.8780  -32.6050 C   0  0  0  0  0  0  0  0  0  0  0  0
   -6.6820   18.5560  -33.1570 N   0  0  0  0  0  0  0  0  0  0  0  0
   -6.1010   18.6140  -34.5100 C   0  0  0  0  0  0  0  0  0  0  0  0
   -5.1170   17.4610  -34.7710 C   0  0  0  0  0  0  0  0  0  0  0  0
   -5.3820   16.3210  -33.8250 C   0  0  0  0  0  0  0  0  0  0  0  0
   -6.5710   16.1170  -33.4560 O   0  0  0  0  0  0  0  0  0  0  0  0
   -4.3150   15.5040  -33.2920 N   0  0  0  0  0  0  0  0  0  0  0  0
   -2.9380   15.6360  -33.7840 C   0  0  0  0  0  0  0  0  0  0  0  0
   -4.6300   14.5180  -32.2520 C   0  0  0  0  0  0  0  0  0  0  0  0
   -5.7560   20.6560  -32.2240 C   0  0  0  0  0  0  0  0  0  0  0  0
   -5.9780   21.9510  -31.7450 C   0  0  0  0  0  0  0  0  0  0  0  0
   -2.2456   21.2047  -31.9382 H   0  0  0  0  0  0  0  0  0  0  0  0
   -3.6727   21.4081  -33.0100 H   0  0  0  0  0  0  0  0  0  0  0  0
   -2.3665   22.6411  -33.0100 H   0  0  0  0  0  0  0  0  0  0  0  0
   -3.0670   25.2990  -30.3350 H   0  0  0  0  0  0  0  0  0  0  0  0
   -7.9727   24.3982  -30.8250 H   0  0  0  0  0  0  0  0  0  0  0  0
   -9.3859   22.1247  -31.8322 H   0  0  0  0  0  0  0  0  0  0  0  0
   -9.0502   19.8080  -32.7585 H   0  0  0  0  0  0  0  0  0  0  0  0
   -6.0280   18.0270  -32.5350 H   0  0  0  0  0  0  0  0  0  0  0  0
   -7.5840   18.0250  -33.1830 H   0  0  0  0  0  0  0  0  0  0  0  0
   -6.9152   18.5584  -35.2476 H   0  0  0  0  0  0  0  0  0  0  0  0
   -5.5443   19.5587  -34.5977 H   0  0  0  0  0  0  0  0  0  0  0  0
   -5.2378   17.1087  -35.8060 H   0  0  0  0  0  0  0  0  0  0  0  0
   -4.0910   17.8248  -34.6129 H   0  0  0  0  0  0  0  0  0  0  0  0
   -2.2482   15.7021  -32.9297 H   0  0  0  0  0  0  0  0  0  0  0  0
   -2.6814   14.7583  -34.3954 H   0  0  0  0  0  0  0  0  0  0  0  0
   -2.8528   16.5464  -34.3954 H   0  0  0  0  0  0  0  0  0  0  0  0
   -4.4850   14.9718  -31.2605 H   0  0  0  0  0  0  0  0  0  0  0  0
   -5.6761   14.1948  -32.3579 H   0  0  0  0  0  0  0  0  0  0  0  0
   -3.9650   13.6482  -32.3579 H   0  0  0  0  0  0  0  0  0  0  0  0
   -4.7359   20.2520  -32.3026 H   0  0  0  0  0  0  0  0  0  0  0  0
  1  2  1  0
  2  3  2  0
  2  4  1  0
  4  5  1  0
  5  6  1  0
  6  7  1  0
  6  8  2  0
  5  9  2  0
  9 10  1  0
 10 11  2  0
 11 12  1  0
 12 13  2  0
 13 14  1  0
 14 15  1  0
 15 16  1  0
 16 17  1  0
 17 18  2  0
 17 19  1  0
 19 20  1  0
 19 21  1  0
 13 22  1  0
 22 23  2  0
 23  4  1  0
 23 10  1  0
  1 24  1  0
  1 25  1  0
  1 26  1  0
  7 27  1  0
  9 28  1  0
 11 29  1  0
 12 30  1  0
 14 31  1  0
 14 32  1  0
 15 33  1  0
 15 34  1  0
 16 35  1  0
 16 36  1  0
 20 37  1  0
 20 38  1  0
 20 39  1  0
 21 40  1  0
 21 41  1  0
 21 42  1  0
 22 43  1  0
M  CHG  2   7  -1  14   1
M  END
>  <UniqueID>  (69) 
68

>  <SMILES>  (69) 
CC(=O)n1c(C([NH-])=O)cc2ccc([NH2+]CCC(=O)N(C)C)cc21

>  <Energy>  (69) 
76.8446353001685

>  <Genealogy>  (69) 
CC(=O)n1c(C([NH-])=O)cc2ccc([NH2+]CCC(=O)N(C)C)cc21 (protonated)
CC(=O)n1c(C([NH-])=O)cc2ccc([NH2+]CCC(=O)N(C)C)cc21 (3D coordinates assigned)
CC(=O)n1c(C([NH-])=O)cc2ccc([NH2+]CCC(=O)N(C)C)cc21 (optimized conformer: 76.8446353001685 kcal/mol)

>  <smiles>  (69) 
CC(=O)n1c(C(N)=O)cc2ccc(NCCC(=O)N(C)C)cc21

>  <score_type>  (69) 
oracle

>  <origin>  (69) 
adg

>  <m_score__min__energy>  (69) 
-10.32

>  <m_primary>  (69) 
energy

$$$$
72:0
     RDKit          3D

 46 47  0  0  0  0  0  0  0  0999 V2000
   -6.0750   16.6760  -32.7420 C   0  0  0  0  0  0  0  0  0  0  0  0
   -6.7090   17.2410  -33.8680 O   0  0  0  0  0  0  0  0  0  0  0  0
   -5.7650   17.3900  -34.9070 C   0  0  0  0  0  0  0  0  0  0  0  0
   -4.5040   18.0430  -34.3490 C   0  0  0  0  0  0  0  0  0  0  0  0
   -4.7260   19.4300  -34.1480 O   0  0  0  0  0  0  0  0  0  0  0  0
   -3.6240   20.0340  -33.4990 C   0  0  0  0  0  0  0  0  0  0  0  0
   -4.0080   20.5370  -32.2210 O   0  0  0  0  0  0  0  0  0  0  0  0
   -5.2900   20.3700  -31.6870 C   0  0  0  0  0  0  0  0  0  0  0  0
   -5.6840   19.2240  -31.3380 O   0  0  0  0  0  0  0  0  0  0  0  0
   -6.1580   21.5070  -31.5310 N   0  0  0  0  0  0  0  0  0  0  0  0
   -7.4960   21.5730  -31.7900 C   0  0  0  0  0  0  0  0  0  0  0  0
   -8.3150   20.5140  -32.4140 C   0  0  0  0  0  0  0  0  0  0  0  0
   -7.7090   19.4110  -33.0890 N   0  0  0  0  0  0  0  0  0  0  0  0
   -9.5700   20.6180  -32.4030 O   0  0  0  0  0  0  0  0  0  0  0  0
   -8.0100   22.8140  -31.4250 C   0  0  0  0  0  0  0  0  0  0  0  0
   -6.9350   23.5240  -30.9460 C   0  0  0  0  0  0  0  0  0  0  0  0
   -6.8770   24.8180  -30.4400 C   0  0  0  0  0  0  0  0  0  0  0  0
   -5.6370   25.2920  -29.9840 C   0  0  0  0  0  0  0  0  0  0  0  0
   -4.4830   24.4720  -30.0290 C   0  0  0  0  0  0  0  0  0  0  0  0
   -3.2350   25.0000  -29.5380 N   0  0  0  0  0  0  0  0  0  0  0  0
   -2.0390   24.2000  -29.2640 C   0  0  0  0  0  0  0  0  0  0  0  0
   -0.8480   25.0940  -28.9050 C   0  0  0  0  0  0  0  0  0  0  0  0
   -1.2420   26.4370  -28.8340 O   0  0  0  0  0  0  0  0  0  0  0  0
   -4.5870   23.1540  -30.5380 C   0  0  0  0  0  0  0  0  0  0  0  0
   -5.8290   22.7160  -31.0140 C   0  0  0  0  0  0  0  0  0  0  0  0
   -6.5283   17.0800  -31.8248 H   0  0  0  0  0  0  0  0  0  0  0  0
   -6.1986   15.5831  -32.7615 H   0  0  0  0  0  0  0  0  0  0  0  0
   -5.0035   16.9242  -32.7615 H   0  0  0  0  0  0  0  0  0  0  0  0
   -5.5152   16.4022  -35.3216 H   0  0  0  0  0  0  0  0  0  0  0  0
   -6.1874   18.0216  -35.7024 H   0  0  0  0  0  0  0  0  0  0  0  0
   -4.2439   17.5726  -33.3893 H   0  0  0  0  0  0  0  0  0  0  0  0
   -3.6798   17.9085  -35.0649 H   0  0  0  0  0  0  0  0  0  0  0  0
   -2.8272   19.2869  -33.3689 H   0  0  0  0  0  0  0  0  0  0  0  0
   -3.2642   20.8707  -34.1159 H   0  0  0  0  0  0  0  0  0  0  0  0
   -6.6810   19.3820  -33.2540 H   0  0  0  0  0  0  0  0  0  0  0  0
   -8.3040   18.6570  -33.4990 H   0  0  0  0  0  0  0  0  0  0  0  0
   -9.0533   23.1538  -31.5032 H   0  0  0  0  0  0  0  0  0  0  0  0
   -7.7757   25.4510  -30.3984 H   0  0  0  0  0  0  0  0  0  0  0  0
   -5.5604   26.3147  -29.5861 H   0  0  0  0  0  0  0  0  0  0  0  0
   -3.1670   26.0280  -29.3600 H   0  0  0  0  0  0  0  0  0  0  0  0
   -2.2454   23.5216  -28.4230 H   0  0  0  0  0  0  0  0  0  0  0  0
   -1.7863   23.6280  -30.1690 H   0  0  0  0  0  0  0  0  0  0  0  0
   -0.4443   24.7838  -27.9299 H   0  0  0  0  0  0  0  0  0  0  0  0
   -0.0798   24.9910  -29.6855 H   0  0  0  0  0  0  0  0  0  0  0  0
   -1.2320   26.7860  -29.7640 H   0  0  0  0  0  0  0  0  0  0  0  0
   -3.7110   22.4890  -30.5589 H   0  0  0  0  0  0  0  0  0  0  0  0
  1  2  1  0
  2  3  1  0
  3  4  1  0
  4  5  1  0
  5  6  1  0
  6  7  1  0
  7  8  1  0
  8  9  2  0
  8 10  1  0
 10 11  1  0
 11 12  1  0
 12 13  1  0
 12 14  2  0
 11 15  2  0
 15 16  1  0
 16 17  2  0
 17 18  1  0
 18 19  2  0
 19 20  1  0
 20 21  1  0
 21 22  1  0
 22 23  1  0
 19 24  1  0
 24 25  2  0
 25 10  1  0
 25 16  1  0
  1 26  1  0
  1 27  1  0
  1 28  1  0
  3 29  1  0
  3 30  1  0
  4 31  1  0
  4 32  1  0
  6 33  1  0
  6 34  1  0
 13 35  1  0
 13 36  1  0
 15 37  1  0
 17 38  1  0
 18 39  1  0
 20 40  1  0
 21 41  1  0
 21 42  1  0
 22 43  1  0
 22 44  1  0
 23 45  1  0
 24 46  1  0
M  END
>  <UniqueID>  (70) 
69

>  <SMILES>  (70) 
COCCOCOC(=O)n1c(C(N)=O)cc2ccc(NCCO)cc21

>  <Energy>  (70) 
81.62241944572443

>  <Genealogy>  (70) 
COCCOCOC(=O)n1c(C(N)=O)cc2ccc(NCCO)cc21 (3D coordinates assigned)
COCCOCOC(=O)n1c(C(N)=O)cc2ccc(NCCO)cc21 (optimized conformer: 81.62241944572443 kcal/mol)

>  <smiles>  (70) 
COCCOCOC(=O)n1c(C(N)=O)cc2ccc(NCCO)cc21

>  <score_type>  (70) 
oracle

>  <origin>  (70) 
adg

>  <m_score__min__energy>  (70) 
-8.1899999999999995

>  <m_primary>  (70) 
energy

$$$$
73:0
     RDKit          3D

 57 58  0  0  0  0  0  0  0  0999 V2000
   -5.6930   18.1740  -34.9530 C   0  0  0  0  0  0  0  0  0  0  0  0
   -5.2720   18.1310  -33.5500 N   0  0  0  0  0  0  0  0  0  0  0  0
   -3.8530   18.3380  -33.2230 C   0  0  0  0  0  0  0  0  0  0  0  0
   -3.4140   19.7800  -33.5120 C   0  0  0  0  0  0  0  0  0  0  0  0
   -2.0320   20.0530  -33.0070 C   0  0  0  0  0  0  0  0  0  0  0  0
   -1.6010   19.4650  -31.9800 O   0  0  0  0  0  0  0  0  0  0  0  0
   -1.2000   20.9200  -33.7020 O   0  0  0  0  0  0  0  0  0  0  0  0
   -6.2370   17.8630  -32.5070 C   0  0  0  0  0  0  0  0  0  0  0  0
   -5.9210   17.1300  -31.5290 O   0  0  0  0  0  0  0  0  0  0  0  0
   -7.6500   18.3920  -32.5720 C   0  0  0  0  0  0  0  0  0  0  0  0
   -7.6930   19.8630  -32.2450 C   0  0  0  0  0  0  0  0  0  0  0  0
   -8.9420   20.5230  -32.1150 C   0  0  0  0  0  0  0  0  0  0  0  0
   -9.0020   21.8880  -31.7910 C   0  0  0  0  0  0  0  0  0  0  0  0
   -7.8030   22.5570  -31.5690 C   0  0  0  0  0  0  0  0  0  0  0  0
   -7.5770   23.8610  -31.1950 C   0  0  0  0  0  0  0  0  0  0  0  0
   -6.1990   23.9690  -31.0430 C   0  0  0  0  0  0  0  0  0  0  0  0
   -5.5420   25.1680  -30.4860 C   0  0  0  0  0  0  0  0  0  0  0  0
   -4.1760   25.4310  -30.7830 N   0  0  0  0  0  0  0  0  0  0  0  0
   -6.1930   25.9920  -29.7890 O   0  0  0  0  0  0  0  0  0  0  0  0
   -5.5910   22.7880  -31.3440 N   0  0  0  0  0  0  0  0  0  0  0  0
   -4.1850   22.4860  -31.3180 C   0  0  0  0  0  0  0  0  0  0  0  0
   -3.5110   22.5500  -32.3810 O   0  0  0  0  0  0  0  0  0  0  0  0
   -3.4830   22.1900  -30.0240 C   0  0  0  0  0  0  0  0  0  0  0  0
   -2.2460   23.0180  -29.9160 C   0  0  0  0  0  0  0  0  0  0  0  0
   -1.1980   22.6580  -30.5130 O   0  0  0  0  0  0  0  0  0  0  0  0
   -2.2900   24.2020  -29.1680 O   0  0  0  0  0  0  0  0  0  0  0  0
   -2.4150   24.3050  -27.7430 C   0  0  0  0  0  0  0  0  0  0  0  0
   -1.6540   25.5380  -27.2210 C   0  0  0  0  0  0  0  0  0  0  0  0
   -3.8990   24.3720  -27.3300 C   0  0  0  0  0  0  0  0  0  0  0  0
   -1.7830   23.0370  -27.1440 C   0  0  0  0  0  0  0  0  0  0  0  0
   -6.5880   21.9300  -31.6540 C   0  0  0  0  0  0  0  0  0  0  0  0
   -6.4960   20.5780  -32.0070 C   0  0  0  0  0  0  0  0  0  0  0  0
   -6.7861   18.2856  -35.0045 H   0  0  0  0  0  0  0  0  0  0  0  0
   -5.2132   19.0278  -35.4538 H   0  0  0  0  0  0  0  0  0  0  0  0
   -5.3957   17.2408  -35.4538 H   0  0  0  0  0  0  0  0  0  0  0  0
   -3.6973   18.1241  -32.1553 H   0  0  0  0  0  0  0  0  0  0  0  0
   -3.2522   17.6621  -33.8493 H   0  0  0  0  0  0  0  0  0  0  0  0
   -3.4352   19.9474  -34.5990 H   0  0  0  0  0  0  0  0  0  0  0  0
   -4.1073   20.4585  -32.9934 H   0  0  0  0  0  0  0  0  0  0  0  0
   -8.0453   18.2376  -33.5868 H   0  0  0  0  0  0  0  0  0  0  0  0
   -8.2604   17.8514  -31.8336 H   0  0  0  0  0  0  0  0  0  0  0  0
   -9.8738   19.9592  -32.2697 H   0  0  0  0  0  0  0  0  0  0  0  0
   -9.9665   22.4115  -31.7152 H   0  0  0  0  0  0  0  0  0  0  0  0
   -8.3276   24.6514  -31.0473 H   0  0  0  0  0  0  0  0  0  0  0  0
   -3.4990   25.6730  -30.0270 H   0  0  0  0  0  0  0  0  0  0  0  0
   -4.1531   22.4242  -29.1837 H   0  0  0  0  0  0  0  0  0  0  0  0
   -3.2094   21.1249  -29.9959 H   0  0  0  0  0  0  0  0  0  0  0  0
   -1.6574   25.5324  -26.1210 H   0  0  0  0  0  0  0  0  0  0  0  0
   -0.6162   25.5094  -27.5846 H   0  0  0  0  0  0  0  0  0  0  0  0
   -2.1448   26.4528  -27.5846 H   0  0  0  0  0  0  0  0  0  0  0  0
   -3.9744   24.3754  -26.2326 H   0  0  0  0  0  0  0  0  0  0  0  0
   -4.3502   25.2914  -27.7314 H   0  0  0  0  0  0  0  0  0  0  0  0
   -4.4312   23.4970  -27.7314 H   0  0  0  0  0  0  0  0  0  0  0  0
   -1.8125   23.0962  -26.0460 H   0  0  0  0  0  0  0  0  0  0  0  0
   -2.3461   22.1534  -27.4788 H   0  0  0  0  0  0  0  0  0  0  0  0
   -0.7384   22.9547  -27.4788 H   0  0  0  0  0  0  0  0  0  0  0  0
   -5.5171   20.0843  -32.0970 H   0  0  0  0  0  0  0  0  0  0  0  0
  1  2  1  0
  2  3  1  0
  3  4  1  0
  4  5  1  0
  5  6  2  0
  5  7  1  0
  2  8  1  0
  8  9  2  0
  8 10  1  0
 10 11  1  0
 11 12  2  0
 12 13  1  0
 13 14  2  0
 14 15  1  0
 15 16  2  0
 16 17  1  0
 17 18  1  0
 17 19  2  0
 16 20  1  0
 20 21  1  0
 21 22  2  0
 21 23  1  0
 23 24  1  0
 24 25  2  0
 24 26  1  0
 26 27  1  0
 27 28  1  0
 27 29  1  0
 27 30  1  0
 20 31  1  0
 31 32  2  0
 32 11  1  0
 31 14  1  0
  1 33  1  0
  1 34  1  0
  1 35  1  0
  3 36  1  0
  3 37  1  0
  4 38  1  0
  4 39  1  0
 10 40  1  0
 10 41  1  0
 12 42  1  0
 13 43  1  0
 15 44  1  0
 18 45  1  0
 23 46  1  0
 23 47  1  0
 28 48  1  0
 28 49  1  0
 28 50  1  0
 29 51  1  0
 29 52  1  0
 29 53  1  0
 30 54  1  0
 30 55  1  0
 30 56  1  0
 32 57  1  0
M  CHG  2   7  -1  18  -1
M  END
>  <UniqueID>  (71) 
70

>  <SMILES>  (71) 
CN(CCC(=O)[O-])C(=O)Cc1ccc2cc(C([NH-])=O)n(C(=O)CC(=O)OC(C)(C)C)c2c1

>  <Energy>  (71) 
80.3112098377593

>  <Genealogy>  (71) 
CN(CCC(=O)[O-])C(=O)Cc1ccc2cc(C([NH-])=O)n(C(=O)CC(=O)OC(C)(C)C)c2c1 (protonated)
CN(CCC(=O)[O-])C(=O)Cc1ccc2cc(C([NH-])=O)n(C(=O)CC(=O)OC(C)(C)C)c2c1 (3D coordinates assigned)
CN(CCC(=O)[O-])C(=O)Cc1ccc2cc(C([NH-])=O)n(C(=O)CC(=O)OC(C)(C)C)c2c1 (optimized conformer: 80.3112098377593 kcal/mol)

>  <smiles>  (71) 
CN(CCC(=O)O)C(=O)Cc1ccc2cc(C(N)=O)n(C(=O)CC(=O)OC(C)(C)C)c2c1

>  <score_type>  (71) 
oracle

>  <origin>  (71) 
adg

>  <m_score__min__energy>  (71) 
-11.58

>  <m_primary>  (71) 
energy

$$$$
74:0
     RDKit          3D

 33 34  0  0  0  0  0  0  0  0999 V2000
   -3.8700   25.3580  -30.8030 N   0  0  0  0  0  0  0  0  0  0  0  0
   -5.2580   25.2050  -30.5160 C   0  0  0  0  0  0  0  0  0  0  0  0
   -5.9000   26.1770  -30.0390 O   0  0  0  0  0  0  0  0  0  0  0  0
   -5.9620   23.9430  -30.8240 C   0  0  0  0  0  0  0  0  0  0  0  0
   -7.3410   23.8600  -31.0020 C   0  0  0  0  0  0  0  0  0  0  0  0
   -7.5860   22.5540  -31.3610 C   0  0  0  0  0  0  0  0  0  0  0  0
   -8.7860   21.9170  -31.6590 C   0  0  0  0  0  0  0  0  0  0  0  0
   -8.7450   20.5500  -31.9780 C   0  0  0  0  0  0  0  0  0  0  0  0
   -7.5170   19.8380  -31.9680 C   0  0  0  0  0  0  0  0  0  0  0  0
   -7.4800   18.3800  -32.3500 C   0  0  0  0  0  0  0  0  0  0  0  0
   -8.7640   17.8680  -32.3130 F   0  0  0  0  0  0  0  0  0  0  0  0
   -6.9700   18.2240  -33.6270 F   0  0  0  0  0  0  0  0  0  0  0  0
   -6.6830   17.6640  -31.4750 F   0  0  0  0  0  0  0  0  0  0  0  0
   -6.3160   20.5280  -31.6810 C   0  0  0  0  0  0  0  0  0  0  0  0
   -6.3840   21.8940  -31.3850 C   0  0  0  0  0  0  0  0  0  0  0  0
   -5.3770   22.7330  -31.0560 N   0  0  0  0  0  0  0  0  0  0  0  0
   -3.9940   22.3830  -30.8830 C   0  0  0  0  0  0  0  0  0  0  0  0
   -3.1720   22.6070  -31.8130 O   0  0  0  0  0  0  0  0  0  0  0  0
   -3.5820   21.7710  -29.6910 O   0  0  0  0  0  0  0  0  0  0  0  0
   -3.1400   22.4500  -28.5490 C   0  0  0  0  0  0  0  0  0  0  0  0
   -2.5190   21.8450  -27.6320 O   0  0  0  0  0  0  0  0  0  0  0  0
   -3.3960   23.8210  -28.4430 O   0  0  0  0  0  0  0  0  0  0  0  0
   -2.8880   24.6330  -27.3870 C   0  0  0  0  0  0  0  0  0  0  0  0
   -1.6290   25.3230  -27.8140 C   0  0  0  0  0  0  0  0  0  0  0  0
   -1.5220   25.7650  -28.9460 O   0  0  0  0  0  0  0  0  0  0  0  0
   -3.1550   25.2940  -30.0440 H   0  0  0  0  0  0  0  0  0  0  0  0
   -8.0783   24.6674  -30.8812 H   0  0  0  0  0  0  0  0  0  0  0  0
   -9.7383   22.4673  -31.6452 H   0  0  0  0  0  0  0  0  0  0  0  0
   -9.6756   20.0247  -32.2387 H   0  0  0  0  0  0  0  0  0  0  0  0
   -5.3498   20.0023  -31.6903 H   0  0  0  0  0  0  0  0  0  0  0  0
   -3.6408   25.3882  -27.1170 H   0  0  0  0  0  0  0  0  0  0  0  0
   -2.6659   23.9920  -26.5211 H   0  0  0  0  0  0  0  0  0  0  0  0
   -0.7966   25.4317  -27.1032 H   0  0  0  0  0  0  0  0  0  0  0  0
  1  2  1  0
  2  3  2  0
  2  4  1  0
  4  5  2  0
  5  6  1  0
  6  7  2  0
  7  8  1  0
  8  9  2  0
  9 10  1  0
 10 11  1  0
 10 12  1  0
 10 13  1  0
  9 14  1  0
 14 15  2  0
 15 16  1  0
 16 17  1  0
 17 18  2  0
 17 19  1  0
 19 20  1  0
 20 21  2  0
 20 22  1  0
 22 23  1  0
 23 24  1  0
 24 25  2  0
 16  4  1  0
 15  6  1  0
  1 26  1  0
  5 27  1  0
  7 28  1  0
  8 29  1  0
 14 30  1  0
 23 31  1  0
 23 32  1  0
 24 33  1  0
M  CHG  1   1  -1
M  END
>  <UniqueID>  (72) 
71

>  <SMILES>  (72) 
[NH-]C(=O)c1cc2ccc(C(F)(F)F)cc2n1C(=O)OC(=O)OCC=O

>  <Energy>  (72) 
71.61690953184547

>  <Genealogy>  (72) 
[NH-]C(=O)c1cc2ccc(C(F)(F)F)cc2n1C(=O)OC(=O)OCC=O (protonated)
[NH-]C(=O)c1cc2ccc(C(F)(F)F)cc2n1C(=O)OC(=O)OCC=O (3D coordinates assigned)
[NH-]C(=O)c1cc2ccc(C(F)(F)F)cc2n1C(=O)OC(=O)OCC=O (optimized conformer: 71.61690953184547 kcal/mol)

>  <smiles>  (72) 
NC(=O)c1cc2ccc(C(F)(F)F)cc2n1C(=O)OC(=O)OCC=O

>  <score_type>  (72) 
oracle

>  <origin>  (72) 
adg

>  <m_score__min__energy>  (72) 
-9.4399999999999995

>  <m_primary>  (72) 
energy

$$$$
75:0
     RDKit          3D

 50 53  0  0  0  0  0  0  0  0999 V2000
   -9.5660   23.5100  -32.1500 N   0  0  0  0  0  0  0  0  0  0  0  0
   -9.4250   22.2140  -31.5650 C   0  0  0  0  0  0  0  0  0  0  0  0
  -10.1820   21.8840  -30.6140 O   0  0  0  0  0  0  0  0  0  0  0  0
   -8.3810   21.2730  -32.0190 C   0  0  0  0  0  0  0  0  0  0  0  0
   -8.5970   19.9070  -32.1900 C   0  0  0  0  0  0  0  0  0  0  0  0
   -7.3810   19.3940  -32.5820 C   0  0  0  0  0  0  0  0  0  0  0  0
   -7.0220   18.0910  -32.9100 C   0  0  0  0  0  0  0  0  0  0  0  0
   -5.6980   17.8550  -33.3190 C   0  0  0  0  0  0  0  0  0  0  0  0
   -4.7570   18.9160  -33.3830 C   0  0  0  0  0  0  0  0  0  0  0  0
   -3.3580   18.6590  -33.8810 C   0  0  0  0  0  0  0  0  0  0  0  0
   -2.6090   18.0970  -32.8630 F   0  0  0  0  0  0  0  0  0  0  0  0
   -2.7590   19.8390  -34.2850 F   0  0  0  0  0  0  0  0  0  0  0  0
   -3.3750   17.7910  -34.9600 F   0  0  0  0  0  0  0  0  0  0  0  0
   -5.1700   20.2300  -33.0650 C   0  0  0  0  0  0  0  0  0  0  0  0
   -6.4890   20.4320  -32.6470 C   0  0  0  0  0  0  0  0  0  0  0  0
   -7.0900   21.5940  -32.3150 N   0  0  0  0  0  0  0  0  0  0  0  0
   -6.4870   22.8980  -32.3550 C   0  0  0  0  0  0  0  0  0  0  0  0
   -6.9500   23.7640  -33.1470 O   0  0  0  0  0  0  0  0  0  0  0  0
   -5.3440   23.2430  -31.4770 C   0  0  0  0  0  0  0  0  0  0  0  0
   -4.0980   22.6170  -31.6550 C   0  0  0  0  0  0  0  0  0  0  0  0
   -3.0190   22.9360  -30.8270 C   0  0  0  0  0  0  0  0  0  0  0  0
   -3.1570   23.8990  -29.8150 C   0  0  0  0  0  0  0  0  0  0  0  0
   -2.0150   24.2230  -28.9290 C   0  0  0  0  0  0  0  0  0  0  0  0
   -1.5980   25.4120  -28.8650 O   0  0  0  0  0  0  0  0  0  0  0  0
   -1.3520   23.2020  -28.1630 N   0  0  0  0  0  0  0  0  0  0  0  0
   -2.1230   22.3260  -27.2740 C   0  0  0  0  0  0  0  0  0  0  0  0
   -1.4490   20.9400  -27.1300 C   0  0  0  0  0  0  0  0  0  0  0  0
   -0.1500   20.8720  -27.6960 O   0  0  0  0  0  0  0  0  0  0  0  0
    0.6120   21.9950  -27.3070 C   0  0  0  0  0  0  0  0  0  0  0  0
    0.1100   23.2310  -28.0560 C   0  0  0  0  0  0  0  0  0  0  0  0
   -4.4020   24.5240  -29.6360 C   0  0  0  0  0  0  0  0  0  0  0  0
   -5.4820   24.2050  -30.4630 C   0  0  0  0  0  0  0  0  0  0  0  0
   -8.8460   23.8910  -32.8010 H   0  0  0  0  0  0  0  0  0  0  0  0
  -10.3510   24.1320  -31.8590 H   0  0  0  0  0  0  0  0  0  0  0  0
   -9.5379   19.3563  -32.0432 H   0  0  0  0  0  0  0  0  0  0  0  0
   -7.7519   17.2701  -32.8512 H   0  0  0  0  0  0  0  0  0  0  0  0
   -5.3873   16.8359  -33.5928 H   0  0  0  0  0  0  0  0  0  0  0  0
   -4.4696   21.0745  -33.1446 H   0  0  0  0  0  0  0  0  0  0  0  0
   -3.9716   21.8701  -32.4526 H   0  0  0  0  0  0  0  0  0  0  0  0
   -2.0535   22.4285  -30.9692 H   0  0  0  0  0  0  0  0  0  0  0  0
   -2.1941   22.7951  -26.2816 H   0  0  0  0  0  0  0  0  0  0  0  0
   -3.1234   22.1830  -27.7084 H   0  0  0  0  0  0  0  0  0  0  0  0
   -1.3733   20.7011  -26.0589 H   0  0  0  0  0  0  0  0  0  0  0  0
   -2.0751   20.2214  -27.6792 H   0  0  0  0  0  0  0  0  0  0  0  0
    0.5059   22.1536  -26.2237 H   0  0  0  0  0  0  0  0  0  0  0  0
    1.6713   21.8230  -27.5484 H   0  0  0  0  0  0  0  0  0  0  0  0
    0.4160   24.1355  -27.5099 H   0  0  0  0  0  0  0  0  0  0  0  0
    0.5428   23.2370  -29.0673 H   0  0  0  0  0  0  0  0  0  0  0  0
   -4.5278   25.2708  -28.8382 H   0  0  0  0  0  0  0  0  0  0  0  0
   -6.4479   24.7112  -30.3188 H   0  0  0  0  0  0  0  0  0  0  0  0
  1  2  1  0
  2  3  2  0
  2  4  1  0
  4  5  2  0
  5  6  1  0
  6  7  2  0
  7  8  1  0
  8  9  2  0
  9 10  1  0
 10 11  1  0
 10 12  1  0
 10 13  1  0
  9 14  1  0
 14 15  2  0
 15 16  1  0
 16 17  1  0
 17 18  2  0
 17 19  1  0
 19 20  2  0
 20 21  1  0
 21 22  2  0
 22 23  1  0
 23 24  2  0
 23 25  1  0
 25 26  1  0
 26 27  1  0
 27 28  1  0
 28 29  1  0
 29 30  1  0
 22 31  1  0
 31 32  2  0
 16  4  1  0
 32 19  1  0
 15  6  1  0
 30 25  1  0
  1 33  1  0
  1 34  1  0
  5 35  1  0
  7 36  1  0
  8 37  1  0
 14 38  1  0
 20 39  1  0
 21 40  1  0
 26 41  1  0
 26 42  1  0
 27 43  1  0
 27 44  1  0
 29 45  1  0
 29 46  1  0
 30 47  1  0
 30 48  1  0
 31 49  1  0
 32 50  1  0
M  END
>  <UniqueID>  (73) 
72

>  <SMILES>  (73) 
NC(=O)c1cc2ccc(C(F)(F)F)cc2n1C(=O)c1ccc(C(=O)N2CCOCC2)cc1

>  <Energy>  (73) 
106.57169117573416

>  <Genealogy>  (73) 
NC(=O)c1cc2ccc(C(F)(F)F)cc2n1C(=O)c1ccc(C(=O)N2CCOCC2)cc1 (3D coordinates assigned)
NC(=O)c1cc2ccc(C(F)(F)F)cc2n1C(=O)c1ccc(C(=O)N2CCOCC2)cc1 (nonaromatic ring conformer: 106.57169117573416 kcal/mol)

>  <smiles>  (73) 
NC(=O)c1cc2ccc(C(F)(F)F)cc2n1C(=O)c1ccc(C(=O)N2CCOCC2)cc1

>  <score_type>  (73) 
oracle

>  <origin>  (73) 
adg

>  <m_score__min__energy>  (73) 
-10.220000000000001

>  <m_primary>  (73) 
energy

$$$$
76:0
     RDKit          3D

 56 57  0  0  0  0  0  0  0  0999 V2000
   -6.5680   17.5980  -31.3130 C   0  0  0  0  0  0  0  0  0  0  0  0
   -7.1130   17.4560  -32.7390 C   0  0  1  0  0  0  0  0  0  0  0  0
   -7.1210   18.7490  -33.4350 N   0  0  0  0  0  0  0  0  0  0  0  0
   -7.2510   20.0280  -32.7830 C   0  0  0  0  0  0  0  0  0  0  0  0
   -8.5180   20.5720  -32.4360 C   0  0  0  0  0  0  0  0  0  0  0  0
   -8.6150   21.8280  -31.8140 C   0  0  0  0  0  0  0  0  0  0  0  0
   -7.4370   22.5150  -31.5410 C   0  0  0  0  0  0  0  0  0  0  0  0
   -7.2450   23.7490  -30.9640 C   0  0  0  0  0  0  0  0  0  0  0  0
   -5.8660   23.9370  -30.9420 C   0  0  0  0  0  0  0  0  0  0  0  0
   -5.2160   25.1070  -30.3150 C   0  0  0  0  0  0  0  0  0  0  0  0
   -3.9760   25.5910  -30.8300 N   0  0  0  0  0  0  0  0  0  0  0  0
   -5.7560   25.7090  -29.3500 O   0  0  0  0  0  0  0  0  0  0  0  0
   -5.2280   22.8640  -31.4930 N   0  0  0  0  0  0  0  0  0  0  0  0
   -3.8190   22.6890  -31.7160 C   0  0  0  0  0  0  0  0  0  0  0  0
   -2.9910   23.1640  -30.8940 O   0  0  0  0  0  0  0  0  0  0  0  0
   -3.3840   22.0180  -32.8690 O   0  0  0  0  0  0  0  0  0  0  0  0
   -2.5370   20.8610  -32.9140 C   0  0  0  0  0  0  0  0  0  0  0  0
   -2.4700   20.2920  -31.4890 C   0  0  0  0  0  0  0  0  0  0  0  0
   -1.1160   21.2500  -33.3640 C   0  0  0  0  0  0  0  0  0  0  0  0
   -3.1320   19.7890  -33.8480 C   0  0  0  0  0  0  0  0  0  0  0  0
   -6.2050   22.0010  -31.8500 C   0  0  0  0  0  0  0  0  0  0  0  0
   -6.0800   20.7610  -32.4870 C   0  0  0  0  0  0  0  0  0  0  0  0
   -6.3320   16.4080  -33.5070 C   0  0  0  0  0  0  0  0  0  0  0  0
   -6.9490   15.7300  -34.3740 O   0  0  0  0  0  0  0  0  0  0  0  0
   -4.9530   16.0840  -33.2150 N   0  0  0  0  0  0  0  0  0  0  0  0
   -4.6820   14.9640  -32.3090 C   0  0  0  0  0  0  0  0  0  0  0  0
   -3.8270   16.7390  -33.9010 C   0  0  0  0  0  0  0  0  0  0  0  0
   -4.1720   17.0160  -35.3640 C   0  0  0  0  0  0  0  0  0  0  0  0
   -5.2300   17.9300  -35.4380 O   0  0  0  0  0  0  0  0  0  0  0  0
   -7.3711   17.3888  -30.5910 H   0  0  0  0  0  0  0  0  0  0  0  0
   -5.7445   16.8844  -31.1624 H   0  0  0  0  0  0  0  0  0  0  0  0
   -6.1974   18.6227  -31.1624 H   0  0  0  0  0  0  0  0  0  0  0  0
   -8.1573   17.1158  -32.6780 H   0  0  0  0  0  0  0  0  0  0  0  0
   -6.9890   18.7510  -34.4730 H   0  0  0  0  0  0  0  0  0  0  0  0
   -9.4330   20.0028  -32.6571 H   0  0  0  0  0  0  0  0  0  0  0  0
   -9.5938   22.2554  -31.5507 H   0  0  0  0  0  0  0  0  0  0  0  0
   -8.0178   24.4408  -30.5976 H   0  0  0  0  0  0  0  0  0  0  0  0
   -3.0670   25.2730  -30.4290 H   0  0  0  0  0  0  0  0  0  0  0  0
   -2.5665   21.1118  -30.7619 H   0  0  0  0  0  0  0  0  0  0  0  0
   -3.2897   19.5733  -31.3422 H   0  0  0  0  0  0  0  0  0  0  0  0
   -1.5058   19.7834  -31.3422 H   0  0  0  0  0  0  0  0  0  0  0  0
   -0.4856   21.4226  -32.4792 H   0  0  0  0  0  0  0  0  0  0  0  0
   -0.6867   20.4363  -33.9670 H   0  0  0  0  0  0  0  0  0  0  0  0
   -1.1610   22.1689  -33.9670 H   0  0  0  0  0  0  0  0  0  0  0  0
   -3.5785   18.9845  -33.2452 H   0  0  0  0  0  0  0  0  0  0  0  0
   -3.9063   20.2446  -34.4827 H   0  0  0  0  0  0  0  0  0  0  0  0
   -2.3358   19.3729  -34.4827 H   0  0  0  0  0  0  0  0  0  0  0  0
   -5.0888   20.3646  -32.7522 H   0  0  0  0  0  0  0  0  0  0  0  0
   -4.7650   15.3069  -31.2671 H   0  0  0  0  0  0  0  0  0  0  0  0
   -5.4118   14.1611  -32.4900 H   0  0  0  0  0  0  0  0  0  0  0  0
   -3.6659   14.5836  -32.4900 H   0  0  0  0  0  0  0  0  0  0  0  0
   -3.6014   17.6904  -33.3970 H   0  0  0  0  0  0  0  0  0  0  0  0
   -2.9540   16.0708  -33.8643 H   0  0  0  0  0  0  0  0  0  0  0  0
   -3.2917   17.4347  -35.8736 H   0  0  0  0  0  0  0  0  0  0  0  0
   -4.4703   16.0757  -35.8506 H   0  0  0  0  0  0  0  0  0  0  0  0
   -6.0600   17.3860  -35.4650 H   0  0  0  0  0  0  0  0  0  0  0  0
  1  2  1  0
  2  3  1  0
  3  4  1  0
  4  5  2  0
  5  6  1  0
  6  7  2  0
  7  8  1  0
  8  9  2  0
  9 10  1  0
 10 11  1  0
 10 12  2  0
  9 13  1  0
 13 14  1  0
 14 15  2  0
 14 16  1  0
 16 17  1  0
 17 18  1  0
 17 19  1  0
 17 20  1  0
 13 21  1  0
 21 22  2  0
  2 23  1  0
 23 24  2  0
 23 25  1  0
 25 26  1  0
 25 27  1  0
 27 28  1  0
 28 29  1  0
 22  4  1  0
 21  7  1  0
  1 30  1  0
  1 31  1  0
  1 32  1  0
  2 33  1  1
  3 34  1  0
  5 35  1  0
  6 36  1  0
  8 37  1  0
 11 38  1  0
 18 39  1  0
 18 40  1  0
 18 41  1  0
 19 42  1  0
 19 43  1  0
 19 44  1  0
 20 45  1  0
 20 46  1  0
 20 47  1  0
 22 48  1  0
 26 49  1  0
 26 50  1  0
 26 51  1  0
 27 52  1  0
 27 53  1  0
 28 54  1  0
 28 55  1  0
 29 56  1  0
M  CHG  1  11  -1
M  END
>  <UniqueID>  (74) 
73

>  <SMILES>  (74) 
C[C@@H](Nc1ccc2cc(C([NH-])=O)n(C(=O)OC(C)(C)C)c2c1)C(=O)N(C)CCO

>  <Energy>  (74) 
84.9382376471494

>  <Genealogy>  (74) 
CC(Nc1ccc2cc(C([NH-])=O)n(C(=O)OC(C)(C)C)c2c1)C(=O)N(C)CCO (protonated)
C[C@@H](Nc1ccc2cc(C([NH-])=O)n(C(=O)OC(C)(C)C)c2c1)C(=O)N(C)CCO (chirality)
C[C@@H](Nc1ccc2cc(C([NH-])=O)n(C(=O)OC(C)(C)C)c2c1)C(=O)N(C)CCO (3D coordinates assigned)
C[C@@H](Nc1ccc2cc(C([NH-])=O)n(C(=O)OC(C)(C)C)c2c1)C(=O)N(C)CCO (optimized conformer: 84.9382376471494 kcal/mol)

>  <smiles>  (74) 
CC(Nc1ccc2cc(C(N)=O)n(C(=O)OC(C)(C)C)c2c1)C(=O)N(C)CCO

>  <score_type>  (74) 
oracle

>  <origin>  (74) 
adg

>  <m_score__min__energy>  (74) 
-10.720000000000001

>  <m_primary>  (74) 
energy

$$$$
77:0
     RDKit          3D

 42 44  0  0  0  0  0  0  0  0999 V2000
   -7.9760   20.6940  -32.0890 C   0  0  0  0  0  0  0  0  0  0  0  0
   -7.4960   19.3210  -32.2840 N   0  0  0  0  0  0  0  0  0  0  0  0
   -8.3610   18.2030  -31.8920 C   0  0  0  0  0  0  0  0  0  0  0  0
   -6.1890   19.0740  -32.8640 C   0  0  0  0  0  0  0  0  0  0  0  0
   -6.0590   18.3570  -34.0880 C   0  0  0  0  0  0  0  0  0  0  0  0
   -4.7960   18.1170  -34.6580 C   0  0  0  0  0  0  0  0  0  0  0  0
   -3.6780   18.6120  -33.9990 C   0  0  0  0  0  0  0  0  0  0  0  0
   -2.3420   18.4990  -34.3120 C   0  0  0  0  0  0  0  0  0  0  0  0
   -1.6690   19.1710  -33.2940 C   0  0  0  0  0  0  0  0  0  0  0  0
   -0.2000   19.3160  -33.2430 C   0  0  0  0  0  0  0  0  0  0  0  0
    0.5460   18.9250  -32.0880 N   0  0  0  0  0  0  0  0  0  0  0  0
    0.4050   19.8350  -34.2170 O   0  0  0  0  0  0  0  0  0  0  0  0
   -2.5500   19.6770  -32.3890 N   0  0  0  0  0  0  0  0  0  0  0  0
   -2.2430   20.3130  -31.1370 C   0  0  0  0  0  0  0  0  0  0  0  0
   -1.5970   19.6720  -30.2640 O   0  0  0  0  0  0  0  0  0  0  0  0
   -2.6630   21.7100  -30.8620 C   0  0  0  0  0  0  0  0  0  0  0  0
   -3.8990   22.1810  -31.3280 C   0  0  0  0  0  0  0  0  0  0  0  0
   -4.2910   23.4970  -31.0850 C   0  0  0  0  0  0  0  0  0  0  0  0
   -3.4590   24.3640  -30.3720 C   0  0  0  0  0  0  0  0  0  0  0  0
   -3.8840   25.6710  -30.1600 O   0  0  0  0  0  0  0  0  0  0  0  0
   -2.2140   23.9100  -29.8830 C   0  0  0  0  0  0  0  0  0  0  0  0
   -1.2980   24.7980  -29.1210 C   0  0  0  0  0  0  0  0  0  0  0  0
   -1.5670   26.0170  -28.9530 O   0  0  0  0  0  0  0  0  0  0  0  0
   -0.1210   24.2940  -28.5800 O   0  0  0  0  0  0  0  0  0  0  0  0
   -1.8340   22.5780  -30.1290 C   0  0  0  0  0  0  0  0  0  0  0  0
   -3.7770   19.3180  -32.8300 C   0  0  0  0  0  0  0  0  0  0  0  0
   -5.0150   19.5460  -32.2230 C   0  0  0  0  0  0  0  0  0  0  0  0
   -8.0505   20.9070  -31.0124 H   0  0  0  0  0  0  0  0  0  0  0  0
   -7.2708   21.3985  -32.5542 H   0  0  0  0  0  0  0  0  0  0  0  0
   -8.9665   20.8057  -32.5542 H   0  0  0  0  0  0  0  0  0  0  0  0
   -8.4076   18.1427  -30.7946 H   0  0  0  0  0  0  0  0  0  0  0  0
   -9.3724   18.3635  -32.2937 H   0  0  0  0  0  0  0  0  0  0  0  0
   -7.9517   17.2643  -32.2937 H   0  0  0  0  0  0  0  0  0  0  0  0
   -6.9612   17.9850  -34.5956 H   0  0  0  0  0  0  0  0  0  0  0  0
   -4.6965   17.5540  -35.5978 H   0  0  0  0  0  0  0  0  0  0  0  0
   -1.9005   17.9876  -35.1801 H   0  0  0  0  0  0  0  0  0  0  0  0
    0.0680   18.6750  -31.1940 H   0  0  0  0  0  0  0  0  0  0  0  0
    1.5880   18.9820  -32.0950 H   0  0  0  0  0  0  0  0  0  0  0  0
   -4.5638   21.5077  -31.8890 H   0  0  0  0  0  0  0  0  0  0  0  0
   -5.2622   23.8551  -31.4573 H   0  0  0  0  0  0  0  0  0  0  0  0
   -0.8727   22.2093  -29.7417 H   0  0  0  0  0  0  0  0  0  0  0  0
   -5.0779   20.0823  -31.2646 H   0  0  0  0  0  0  0  0  0  0  0  0
  1  2  1  0
  2  3  1  0
  2  4  1  0
  4  5  2  0
  5  6  1  0
  6  7  2  0
  7  8  1  0
  8  9  2  0
  9 10  1  0
 10 11  1  0
 10 12  2  0
  9 13  1  0
 13 14  1  0
 14 15  2  0
 14 16  1  0
 16 17  2  0
 17 18  1  0
 18 19  2  0
 19 20  1  0
 19 21  1  0
 21 22  1  0
 22 23  2  0
 22 24  1  0
 21 25  2  0
 13 26  1  0
 26 27  2  0
 27  4  1  0
 26  7  1  0
 25 16  1  0
  1 28  1  0
  1 29  1  0
  1 30  1  0
  3 31  1  0
  3 32  1  0
  3 33  1  0
  5 34  1  0
  6 35  1  0
  8 36  1  0
 11 37  1  0
 11 38  1  0
 17 39  1  0
 18 40  1  0
 25 41  1  0
 27 42  1  0
M  CHG  2  20  -1  24  -1
M  END
>  <UniqueID>  (75) 
74

>  <SMILES>  (75) 
CN(C)c1ccc2cc(C(N)=O)n(C(=O)c3ccc([O-])c(C(=O)[O-])c3)c2c1

>  <Energy>  (75) 
89.0590776452382

>  <Genealogy>  (75) 
CN(C)c1ccc2cc(C(N)=O)n(C(=O)c3ccc([O-])c(C(=O)[O-])c3)c2c1 (protonated)
CN(C)c1ccc2cc(C(N)=O)n(C(=O)c3ccc([O-])c(C(=O)[O-])c3)c2c1 (3D coordinates assigned)
CN(C)c1ccc2cc(C(N)=O)n(C(=O)c3ccc([O-])c(C(=O)[O-])c3)c2c1 (optimized conformer: 89.0590776452382 kcal/mol)

>  <smiles>  (75) 
CN(C)c1ccc2cc(C(N)=O)n(C(=O)c3ccc(O)c(C(=O)O)c3)c2c1

>  <score_type>  (75) 
oracle

>  <origin>  (75) 
adg

>  <m_score__min__energy>  (75) 
-11.94

>  <m_primary>  (75) 
energy

$$$$
78:0
     RDKit          3D

 34 35  0  0  0  0  0  0  0  0999 V2000
   -4.1170   24.2330  -27.3370 C   0  0  0  0  0  0  0  0  0  0  0  0
   -2.9910   24.1070  -27.7480 C   0  0  0  0  0  0  0  0  0  0  0  0
   -1.6230   23.9490  -28.2520 C   0  0  0  0  0  0  0  0  0  0  0  0
   -1.6190   24.0110  -29.6660 O   0  0  0  0  0  0  0  0  0  0  0  0
   -1.8150   22.7310  -30.2330 C   0  0  0  0  0  0  0  0  0  0  0  0
   -3.2020   22.4010  -30.2500 O   0  0  0  0  0  0  0  0  0  0  0  0
   -3.9780   22.4500  -31.4130 C   0  0  0  0  0  0  0  0  0  0  0  0
   -3.4430   22.2740  -32.5420 O   0  0  0  0  0  0  0  0  0  0  0  0
   -5.3820   22.7290  -31.3200 N   0  0  0  0  0  0  0  0  0  0  0  0
   -5.9740   23.9310  -31.0700 C   0  0  0  0  0  0  0  0  0  0  0  0
   -5.2820   25.1660  -30.6520 C   0  0  0  0  0  0  0  0  0  0  0  0
   -3.8770   25.3140  -30.8380 N   0  0  0  0  0  0  0  0  0  0  0  0
   -5.9290   26.0820  -30.0770 O   0  0  0  0  0  0  0  0  0  0  0  0
   -7.3600   23.8250  -31.1770 C   0  0  0  0  0  0  0  0  0  0  0  0
   -7.6010   22.5080  -31.4940 C   0  0  0  0  0  0  0  0  0  0  0  0
   -8.8050   21.8500  -31.7300 C   0  0  0  0  0  0  0  0  0  0  0  0
   -8.7540   20.4880  -32.0710 C   0  0  0  0  0  0  0  0  0  0  0  0
   -7.5110   19.8140  -32.1740 C   0  0  0  0  0  0  0  0  0  0  0  0
   -7.4810   18.3610  -32.5550 C   0  0  0  0  0  0  0  0  0  0  0  0
   -8.5830   17.7180  -32.0230 F   0  0  0  0  0  0  0  0  0  0  0  0
   -6.3280   17.7740  -32.0660 F   0  0  0  0  0  0  0  0  0  0  0  0
   -6.3100   20.5160  -31.9290 C   0  0  0  0  0  0  0  0  0  0  0  0
   -6.3910   21.8680  -31.5740 C   0  0  0  0  0  0  0  0  0  0  0  0
   -5.1447   24.3480  -26.9619 H   0  0  0  0  0  0  0  0  0  0  0  0
   -0.9912   24.7547  -27.8501 H   0  0  0  0  0  0  0  0  0  0  0  0
   -1.2302   22.9727  -27.9318 H   0  0  0  0  0  0  0  0  0  0  0  0
   -1.4293   22.7282  -31.2632 H   0  0  0  0  0  0  0  0  0  0  0  0
   -1.2789   21.9865  -29.6261 H   0  0  0  0  0  0  0  0  0  0  0  0
   -3.2620   24.4820  -30.9800 H   0  0  0  0  0  0  0  0  0  0  0  0
   -8.1028   24.6242  -31.0376 H   0  0  0  0  0  0  0  0  0  0  0  0
   -9.7659   22.3797  -31.6519 H   0  0  0  0  0  0  0  0  0  0  0  0
   -9.6882   19.9389  -32.2600 H   0  0  0  0  0  0  0  0  0  0  0  0
   -7.4992   18.2753  -33.6515 H   0  0  0  0  0  0  0  0  0  0  0  0
   -5.3355   20.0131  -32.0150 H   0  0  0  0  0  0  0  0  0  0  0  0
  1  2  3  0
  2  3  1  0
  3  4  1  0
  4  5  1  0
  5  6  1  0
  6  7  1  0
  7  8  2  0
  7  9  1  0
  9 10  1  0
 10 11  1  0
 11 12  1  0
 11 13  2  0
 10 14  2  0
 14 15  1  0
 15 16  2  0
 16 17  1  0
 17 18  2  0
 18 19  1  0
 19 20  1  0
 19 21  1  0
 18 22  1  0
 22 23  2  0
 23  9  1  0
 23 15  1  0
  1 24  1  0
  3 25  1  0
  3 26  1  0
  5 27  1  0
  5 28  1  0
 12 29  1  0
 14 30  1  0
 16 31  1  0
 17 32  1  0
 19 33  1  0
 22 34  1  0
M  CHG  1  12  -1
M  END
>  <UniqueID>  (76) 
75

>  <SMILES>  (76) 
C#CCOCOC(=O)n1c(C([NH-])=O)cc2ccc(C(F)F)cc21

>  <Energy>  (76) 
70.96802811559319

>  <Genealogy>  (76) 
C#CCOCOC(=O)n1c(C([NH-])=O)cc2ccc(C(F)F)cc21 (protonated)
C#CCOCOC(=O)n1c(C([NH-])=O)cc2ccc(C(F)F)cc21 (3D coordinates assigned)
C#CCOCOC(=O)n1c(C([NH-])=O)cc2ccc(C(F)F)cc21 (optimized conformer: 70.96802811559319 kcal/mol)

>  <smiles>  (76) 
C#CCOCOC(=O)n1c(C(N)=O)cc2ccc(C(F)F)cc21

>  <score_type>  (76) 
oracle

>  <origin>  (76) 
adg

>  <m_score__min__energy>  (76) 
-9.3499999999999996

>  <m_primary>  (76) 
energy

$$$$
79:0
     RDKit          3D

 42 43  0  0  0  0  0  0  0  0999 V2000
   -4.6120   24.8020  -26.8910 C   0  0  0  0  0  0  0  0  0  0  0  0
   -3.3810   24.5490  -27.6580 N   0  0  0  0  0  0  0  0  0  0  0  0
   -2.2400   24.3610  -26.7480 C   0  0  0  0  0  0  0  0  0  0  0  0
   -3.5440   23.3740  -28.4930 C   0  0  0  0  0  0  0  0  0  0  0  0
   -4.3190   22.4500  -28.1060 O   0  0  0  0  0  0  0  0  0  0  0  0
   -2.8910   23.2550  -29.7780 N   0  0  0  0  0  0  0  0  0  0  0  0
   -1.4280   23.2800  -29.9070 C   0  0  0  0  0  0  0  0  0  0  0  0
   -0.8600   24.5180  -29.2740 C   0  0  0  0  0  0  0  0  0  0  0  0
   -1.4940   25.6060  -29.3260 O   0  0  0  0  0  0  0  0  0  0  0  0
    0.3540   24.4700  -28.5950 O   0  0  0  0  0  0  0  0  0  0  0  0
   -3.6490   22.7700  -30.9050 C   0  0  0  0  0  0  0  0  0  0  0  0
   -3.0380   22.3250  -31.9140 O   0  0  0  0  0  0  0  0  0  0  0  0
   -5.0860   22.8340  -30.9210 N   0  0  0  0  0  0  0  0  0  0  0  0
   -5.8610   23.9380  -30.7020 C   0  0  0  0  0  0  0  0  0  0  0  0
   -5.3880   25.2510  -30.2170 C   0  0  0  0  0  0  0  0  0  0  0  0
   -4.0140   25.6010  -30.3460 N   0  0  0  0  0  0  0  0  0  0  0  0
   -6.1980   26.0900  -29.7410 O   0  0  0  0  0  0  0  0  0  0  0  0
   -7.2040   23.6560  -30.9240 C   0  0  0  0  0  0  0  0  0  0  0  0
   -7.2390   22.3280  -31.2760 C   0  0  0  0  0  0  0  0  0  0  0  0
   -8.3270   21.5270  -31.6060 C   0  0  0  0  0  0  0  0  0  0  0  0
   -8.0770   20.1930  -31.9640 C   0  0  0  0  0  0  0  0  0  0  0  0
   -6.7520   19.6910  -31.9920 C   0  0  0  0  0  0  0  0  0  0  0  0
   -6.5030   18.2490  -32.3280 C   0  0  0  0  0  0  0  0  0  0  0  0
   -6.0850   18.0930  -34.0460 Cl  0  0  0  0  0  0  0  0  0  0  0  0
   -5.6720   20.5320  -31.6500 C   0  0  0  0  0  0  0  0  0  0  0  0
   -5.9500   21.8520  -31.2740 C   0  0  0  0  0  0  0  0  0  0  0  0
   -4.3894   24.7562  -25.8147 H   0  0  0  0  0  0  0  0  0  0  0  0
   -5.0024   25.7991  -27.1426 H   0  0  0  0  0  0  0  0  0  0  0  0
   -5.3640   24.0396  -27.1426 H   0  0  0  0  0  0  0  0  0  0  0  0
   -3.2040   25.4010  -28.2300 H   0  0  0  0  0  0  0  0  0  0  0  0
   -2.5885   24.4184  -25.7062 H   0  0  0  0  0  0  0  0  0  0  0  0
   -1.7853   23.3758  -26.9287 H   0  0  0  0  0  0  0  0  0  0  0  0
   -1.4933   25.1482  -26.9287 H   0  0  0  0  0  0  0  0  0  0  0  0
   -1.0065   22.3942  -29.4094 H   0  0  0  0  0  0  0  0  0  0  0  0
   -1.1673   23.2779  -30.9756 H   0  0  0  0  0  0  0  0  0  0  0  0
   -3.4010   25.6970  -29.5080 H   0  0  0  0  0  0  0  0  0  0  0  0
   -8.0554   24.3470  -30.8367 H   0  0  0  0  0  0  0  0  0  0  0  0
   -9.3517   21.9265  -31.5870 H   0  0  0  0  0  0  0  0  0  0  0  0
   -8.9164   19.5318  -32.2250 H   0  0  0  0  0  0  0  0  0  0  0  0
   -5.6725   17.8696  -31.7146 H   0  0  0  0  0  0  0  0  0  0  0  0
   -7.4132   17.6666  -32.1222 H   0  0  0  0  0  0  0  0  0  0  0  0
   -4.6372   20.1600  -31.6780 H   0  0  0  0  0  0  0  0  0  0  0  0
  1  2  1  0
  2  3  1  0
  2  4  1  0
  4  5  2  0
  4  6  1  0
  6  7  1  0
  7  8  1  0
  8  9  2  0
  8 10  1  0
  6 11  1  0
 11 12  2  0
 11 13  1  0
 13 14  1  0
 14 15  1  0
 15 16  1  0
 15 17  2  0
 14 18  2  0
 18 19  1  0
 19 20  2  0
 20 21  1  0
 21 22  2  0
 22 23  1  0
 23 24  1  0
 22 25  1  0
 25 26  2  0
 26 13  1  0
 26 19  1  0
  1 27  1  0
  1 28  1  0
  1 29  1  0
  2 30  1  0
  3 31  1  0
  3 32  1  0
  3 33  1  0
  7 34  1  0
  7 35  1  0
 16 36  1  0
 18 37  1  0
 20 38  1  0
 21 39  1  0
 23 40  1  0
 23 41  1  0
 25 42  1  0
M  CHG  3   2   1  10  -1  16  -1
M  END
>  <UniqueID>  (77) 
76

>  <SMILES>  (77) 
C[NH+](C)C(=O)N(CC(=O)[O-])C(=O)n1c(C([NH-])=O)cc2ccc(CCl)cc21

>  <Energy>  (77) 
88.6196910704415

>  <Genealogy>  (77) 
C[NH+](C)C(=O)N(CC(=O)[O-])C(=O)n1c(C([NH-])=O)cc2ccc(CCl)cc21 (protonated)
C[NH+](C)C(=O)N(CC(=O)[O-])C(=O)n1c(C([NH-])=O)cc2ccc(CCl)cc21 (3D coordinates assigned)
C[NH+](C)C(=O)N(CC(=O)[O-])C(=O)n1c(C([NH-])=O)cc2ccc(CCl)cc21 (optimized conformer: 88.6196910704415 kcal/mol)

>  <smiles>  (77) 
CN(C)C(=O)N(CC(=O)O)C(=O)n1c(C(N)=O)cc2ccc(CCl)cc21

>  <score_type>  (77) 
oracle

>  <origin>  (77) 
adg

>  <m_score__min__energy>  (77) 
-12.32

>  <m_primary>  (77) 
energy

$$$$
80:0
     RDKit          3D

 36 37  0  0  0  0  0  0  0  0999 V2000
   -4.1580   25.6730  -30.8440 N   0  0  0  0  0  0  0  0  0  0  0  0
   -5.3070   25.0970  -30.2290 C   0  0  0  0  0  0  0  0  0  0  0  0
   -5.7420   25.5880  -29.1520 O   0  0  0  0  0  0  0  0  0  0  0  0
   -5.9590   23.9020  -30.8030 C   0  0  0  0  0  0  0  0  0  0  0  0
   -7.3310   23.8120  -31.0300 C   0  0  0  0  0  0  0  0  0  0  0  0
   -7.5420   22.5280  -31.4810 C   0  0  0  0  0  0  0  0  0  0  0  0
   -8.7190   21.9010  -31.8740 C   0  0  0  0  0  0  0  0  0  0  0  0
   -8.6390   20.5740  -32.3290 C   0  0  0  0  0  0  0  0  0  0  0  0
   -7.3890   19.8980  -32.3870 C   0  0  0  0  0  0  0  0  0  0  0  0
   -7.2750   18.5450  -32.8680 N   0  0  0  0  0  0  0  0  0  0  0  0
   -6.2460   17.5860  -32.4580 C   0  0  0  0  0  0  0  0  0  0  0  0
   -5.8990   16.6290  -33.6020 C   0  0  0  0  0  0  0  0  0  0  0  0
   -6.7770   16.7890  -34.6820 O   0  0  0  0  0  0  0  0  0  0  0  0
   -6.2170   20.5790  -31.9870 C   0  0  0  0  0  0  0  0  0  0  0  0
   -6.3300   21.8930  -31.5200 C   0  0  0  0  0  0  0  0  0  0  0  0
   -5.3460   22.7240  -31.1090 N   0  0  0  0  0  0  0  0  0  0  0  0
   -3.9380   22.4430  -31.1050 C   0  0  0  0  0  0  0  0  0  0  0  0
   -3.5140   21.3490  -31.5690 O   0  0  0  0  0  0  0  0  0  0  0  0
   -3.0410   23.3950  -30.6060 O   0  0  0  0  0  0  0  0  0  0  0  0
   -2.4930   23.3410  -29.2910 C   0  0  0  0  0  0  0  0  0  0  0  0
   -1.5420   24.4750  -29.0780 C   0  0  0  0  0  0  0  0  0  0  0  0
   -1.9730   25.6520  -28.9630 O   0  0  0  0  0  0  0  0  0  0  0  0
   -0.1790   24.2270  -28.9780 O   0  0  0  0  0  0  0  0  0  0  0  0
   -3.2010   25.3080  -30.6410 H   0  0  0  0  0  0  0  0  0  0  0  0
   -8.0849   24.5990  -30.8807 H   0  0  0  0  0  0  0  0  0  0  0  0
   -9.6836   22.4278  -31.8301 H   0  0  0  0  0  0  0  0  0  0  0  0
   -9.5543   20.0516  -32.6442 H   0  0  0  0  0  0  0  0  0  0  0  0
   -7.9540   18.2220  -33.5950 H   0  0  0  0  0  0  0  0  0  0  0  0
   -5.3403   18.1353  -32.1616 H   0  0  0  0  0  0  0  0  0  0  0  0
   -6.6334   16.9965  -31.6140 H   0  0  0  0  0  0  0  0  0  0  0  0
   -4.8726   16.8328  -33.9411 H   0  0  0  0  0  0  0  0  0  0  0  0
   -5.9881   15.5972  -33.2313 H   0  0  0  0  0  0  0  0  0  0  0  0
   -6.8190   17.7640  -34.8700 H   0  0  0  0  0  0  0  0  0  0  0  0
   -5.2353   20.0857  -32.0417 H   0  0  0  0  0  0  0  0  0  0  0  0
   -3.3080   23.4078  -28.5552 H   0  0  0  0  0  0  0  0  0  0  0  0
   -1.9511   22.3917  -29.1680 H   0  0  0  0  0  0  0  0  0  0  0  0
  1  2  1  0
  2  3  2  0
  2  4  1  0
  4  5  2  0
  5  6  1  0
  6  7  2  0
  7  8  1  0
  8  9  2  0
  9 10  1  0
 10 11  1  0
 11 12  1  0
 12 13  1  0
  9 14  1  0
 14 15  2  0
 15 16  1  0
 16 17  1  0
 17 18  2  0
 17 19  1  0
 19 20  1  0
 20 21  1  0
 21 22  2  0
 21 23  1  0
 16  4  1  0
 15  6  1  0
  1 24  1  0
  5 25  1  0
  7 26  1  0
  8 27  1  0
 10 28  1  0
 11 29  1  0
 11 30  1  0
 12 31  1  0
 12 32  1  0
 13 33  1  0
 14 34  1  0
 20 35  1  0
 20 36  1  0
M  CHG  2   1  -1  23  -1
M  END
>  <UniqueID>  (78) 
77

>  <SMILES>  (78) 
[NH-]C(=O)c1cc2ccc(NCCO)cc2n1C(=O)OCC(=O)[O-]

>  <Energy>  (78) 
71.81413063125365

>  <Genealogy>  (78) 
[NH-]C(=O)c1cc2ccc(NCCO)cc2n1C(=O)OCC(=O)[O-] (protonated)
[NH-]C(=O)c1cc2ccc(NCCO)cc2n1C(=O)OCC(=O)[O-] (3D coordinates assigned)
[NH-]C(=O)c1cc2ccc(NCCO)cc2n1C(=O)OCC(=O)[O-] (optimized conformer: 71.81413063125365 kcal/mol)

>  <smiles>  (78) 
NC(=O)c1cc2ccc(NCCO)cc2n1C(=O)OCC(=O)O

>  <score_type>  (78) 
oracle

>  <origin>  (78) 
adg

>  <m_score__min__energy>  (78) 
-11.43

>  <m_primary>  (78) 
energy

$$$$
81:0
     RDKit          3D

 43 44  0  0  0  0  0  0  0  0999 V2000
   -3.8590   25.4590  -30.8660 N   0  0  0  0  0  0  0  0  0  0  0  0
   -5.1880   25.1350  -30.4650 C   0  0  0  0  0  0  0  0  0  0  0  0
   -5.8170   25.9330  -29.7190 O   0  0  0  0  0  0  0  0  0  0  0  0
   -5.8470   23.8970  -30.9340 C   0  0  0  0  0  0  0  0  0  0  0  0
   -7.2280   23.7650  -31.0740 C   0  0  0  0  0  0  0  0  0  0  0  0
   -7.4240   22.5010  -31.5840 C   0  0  0  0  0  0  0  0  0  0  0  0
   -8.6020   21.8380  -31.9080 C   0  0  0  0  0  0  0  0  0  0  0  0
   -8.5050   20.5230  -32.3960 C   0  0  0  0  0  0  0  0  0  0  0  0
   -7.2450   19.8920  -32.5430 C   0  0  0  0  0  0  0  0  0  0  0  0
   -7.1920   18.5420  -33.0460 N   0  0  0  0  0  0  0  0  0  0  0  0
   -6.3590   17.4810  -32.4820 C   0  0  0  0  0  0  0  0  0  0  0  0
   -6.2160   16.3540  -33.4570 C   0  0  0  0  0  0  0  0  0  0  0  0
   -6.8640   16.3620  -34.5370 O   0  0  0  0  0  0  0  0  0  0  0  0
   -5.3590   15.2970  -33.1740 O   0  0  0  0  0  0  0  0  0  0  0  0
   -6.0690   20.5990  -32.1900 C   0  0  0  0  0  0  0  0  0  0  0  0
   -6.1950   21.9140  -31.7320 C   0  0  0  0  0  0  0  0  0  0  0  0
   -5.2160   22.7600  -31.3410 N   0  0  0  0  0  0  0  0  0  0  0  0
   -3.8100   22.4730  -31.3040 C   0  0  0  0  0  0  0  0  0  0  0  0
   -3.1120   22.6270  -32.3430 O   0  0  0  0  0  0  0  0  0  0  0  0
   -3.1560   22.0070  -30.0360 C   0  0  0  0  0  0  0  0  0  0  0  0
   -2.8450   23.1370  -29.1620 N   0  0  0  0  0  0  0  0  0  0  0  0
   -3.6000   23.3880  -27.9710 C   0  0  0  0  0  0  0  0  0  0  0  0
   -4.5440   22.6200  -27.6430 O   0  0  0  0  0  0  0  0  0  0  0  0
   -3.3020   24.5920  -27.1260 C   0  0  0  0  0  0  0  0  0  0  0  0
   -1.7940   24.7830  -26.9330 C   0  0  0  0  0  0  0  0  0  0  0  0
   -1.1150   25.1470  -28.2200 C   0  0  0  0  0  0  0  0  0  0  0  0
   -1.6010   26.0410  -28.9620 O   0  0  0  0  0  0  0  0  0  0  0  0
    0.0260   24.4640  -28.6190 O   0  0  0  0  0  0  0  0  0  0  0  0
   -3.0480   25.2940  -30.2290 H   0  0  0  0  0  0  0  0  0  0  0  0
   -7.9975   24.5119  -30.8291 H   0  0  0  0  0  0  0  0  0  0  0  0
   -9.5798   22.3270  -31.7864 H   0  0  0  0  0  0  0  0  0  0  0  0
   -9.4202   19.9764  -32.6675 H   0  0  0  0  0  0  0  0  0  0  0  0
   -7.7750   18.2970  -33.8790 H   0  0  0  0  0  0  0  0  0  0  0  0
   -5.3636   17.8871  -32.2493 H   0  0  0  0  0  0  0  0  0  0  0  0
   -6.8367   17.1017  -31.5666 H   0  0  0  0  0  0  0  0  0  0  0  0
   -5.0802   20.1245  -32.2743 H   0  0  0  0  0  0  0  0  0  0  0  0
   -3.8376   21.3222  -29.5101 H   0  0  0  0  0  0  0  0  0  0  0  0
   -2.2177   21.4938  -30.2933 H   0  0  0  0  0  0  0  0  0  0  0  0
   -2.0640   23.7890  -29.4070 H   0  0  0  0  0  0  0  0  0  0  0  0
   -3.7154   25.4850  -27.6176 H   0  0  0  0  0  0  0  0  0  0  0  0
   -3.7603   24.4419  -26.1373 H   0  0  0  0  0  0  0  0  0  0  0  0
   -1.6267   25.5870  -26.2011 H   0  0  0  0  0  0  0  0  0  0  0  0
   -1.3694   23.8330  -26.5764 H   0  0  0  0  0  0  0  0  0  0  0  0
  1  2  1  0
  2  3  2  0
  2  4  1  0
  4  5  2  0
  5  6  1  0
  6  7  2  0
  7  8  1  0
  8  9  2  0
  9 10  1  0
 10 11  1  0
 11 12  1  0
 12 13  2  0
 12 14  1  0
  9 15  1  0
 15 16  2  0
 16 17  1  0
 17 18  1  0
 18 19  2  0
 18 20  1  0
 20 21  1  0
 21 22  1  0
 22 23  2  0
 22 24  1  0
 24 25  1  0
 25 26  1  0
 26 27  2  0
 26 28  1  0
 17  4  1  0
 16  6  1  0
  1 29  1  0
  5 30  1  0
  7 31  1  0
  8 32  1  0
 10 33  1  0
 11 34  1  0
 11 35  1  0
 15 36  1  0
 20 37  1  0
 20 38  1  0
 21 39  1  0
 24 40  1  0
 24 41  1  0
 25 42  1  0
 25 43  1  0
M  CHG  3   1  -1  14  -1  28  -1
M  END
>  <UniqueID>  (79) 
78

>  <SMILES>  (79) 
[NH-]C(=O)c1cc2ccc(NCC(=O)[O-])cc2n1C(=O)CNC(=O)CCC(=O)[O-]

>  <Energy>  (79) 
74.15895553821096

>  <Genealogy>  (79) 
[NH-]C(=O)c1cc2ccc(NCC(=O)[O-])cc2n1C(=O)CNC(=O)CCC(=O)[O-] (protonated)
[NH-]C(=O)c1cc2ccc(NCC(=O)[O-])cc2n1C(=O)CNC(=O)CCC(=O)[O-] (3D coordinates assigned)
[NH-]C(=O)c1cc2ccc(NCC(=O)[O-])cc2n1C(=O)CNC(=O)CCC(=O)[O-] (optimized conformer: 74.15895553821096 kcal/mol)

>  <smiles>  (79) 
NC(=O)c1cc2ccc(NCC(=O)O)cc2n1C(=O)CNC(=O)CCC(=O)O

>  <score_type>  (79) 
oracle

>  <origin>  (79) 
adg

>  <m_score__min__energy>  (79) 
-12.73

>  <m_primary>  (79) 
energy

$$$$
82:0
     RDKit          3D

 44 45  0  0  0  0  0  0  0  0999 V2000
   -3.5400   26.0390  -31.2220 H   0  0  0  0  0  0  0  0  0  0  0  0
   -3.8680   25.3190  -30.5410 N   0  0  0  0  0  0  0  0  0  0  0  0
   -5.2570   25.1520  -30.2630 C   0  0  0  0  0  0  0  0  0  0  0  0
   -5.8470   26.0000  -29.5440 O   0  0  0  0  0  0  0  0  0  0  0  0
   -5.9900   24.0060  -30.8400 C   0  0  0  0  0  0  0  0  0  0  0  0
   -7.3810   23.9250  -30.8920 C   0  0  0  0  0  0  0  0  0  0  0  0
   -8.1057   24.6870  -30.5692 H   0  0  0  0  0  0  0  0  0  0  0  0
   -7.6550   22.6890  -31.4330 C   0  0  0  0  0  0  0  0  0  0  0  0
   -8.8760   22.0830  -31.7140 C   0  0  0  0  0  0  0  0  0  0  0  0
   -9.8256   22.5921  -31.4924 H   0  0  0  0  0  0  0  0  0  0  0  0
   -8.8590   20.8020  -32.2890 C   0  0  0  0  0  0  0  0  0  0  0  0
   -9.8086   20.2934  -32.5118 H   0  0  0  0  0  0  0  0  0  0  0  0
   -7.6310   20.1560  -32.5860 C   0  0  0  0  0  0  0  0  0  0  0  0
   -7.6230   18.8320  -33.1620 N   0  0  0  0  0  0  0  0  0  0  0  0
   -7.0390   18.8490  -34.0320 H   0  0  0  0  0  0  0  0  0  0  0  0
   -8.5880   18.5430  -33.4480 H   0  0  0  0  0  0  0  0  0  0  0  0
   -7.0540   17.8410  -32.2340 C   0  0  0  0  0  0  0  0  0  0  0  0
   -7.7997   17.0515  -32.0588 H   0  0  0  0  0  0  0  0  0  0  0  0
   -6.7951   18.3635  -31.3013 H   0  0  0  0  0  0  0  0  0  0  0  0
   -5.7690   17.1950  -32.7840 C   0  0  0  0  0  0  0  0  0  0  0  0
   -6.0044   16.1899  -33.1640 H   0  0  0  0  0  0  0  0  0  0  0  0
   -5.0293   17.1329  -31.9722 H   0  0  0  0  0  0  0  0  0  0  0  0
   -5.2030   18.0080  -33.8810 N   0  0  0  0  0  0  0  0  0  0  0  0
   -4.1190   18.8790  -33.3910 C   0  0  0  0  0  0  0  0  0  0  0  0
   -4.1181   18.8797  -32.2910 H   0  0  0  0  0  0  0  0  0  0  0  0
   -3.1525   18.5034  -33.7582 H   0  0  0  0  0  0  0  0  0  0  0  0
   -4.2776   19.9037  -33.7582 H   0  0  0  0  0  0  0  0  0  0  0  0
   -4.6800   17.1330  -34.9440 C   0  0  0  0  0  0  0  0  0  0  0  0
   -4.1658   16.2727  -34.4908 H   0  0  0  0  0  0  0  0  0  0  0  0
   -5.5127   16.7756  -35.5676 H   0  0  0  0  0  0  0  0  0  0  0  0
   -3.9709   17.6972  -35.5676 H   0  0  0  0  0  0  0  0  0  0  0  0
   -6.4110   20.8080  -32.2900 C   0  0  0  0  0  0  0  0  0  0  0  0
   -5.4472   20.3318  -32.5232 H   0  0  0  0  0  0  0  0  0  0  0  0
   -6.4590   22.0720  -31.6940 C   0  0  0  0  0  0  0  0  0  0  0  0
   -5.4280   22.8660  -31.3310 N   0  0  0  0  0  0  0  0  0  0  0  0
   -4.0300   22.5670  -31.4750 C   0  0  0  0  0  0  0  0  0  0  0  0
   -3.5700   22.2790  -32.6140 O   0  0  0  0  0  0  0  0  0  0  0  0
   -3.1450   22.6020  -30.2950 C   0  0  0  0  0  0  0  0  0  0  0  0
   -3.5436   22.2745  -29.3235 H   0  0  0  0  0  0  0  0  0  0  0  0
   -1.8740   23.0180  -30.3640 C   0  0  0  0  0  0  0  0  0  0  0  0
   -1.4753   23.3480  -31.3346 H   0  0  0  0  0  0  0  0  0  0  0  0
   -0.9920   23.0490  -29.1860 C   0  0  0  0  0  0  0  0  0  0  0  0
   -0.9510   22.0840  -28.3780 O   0  0  0  0  0  0  0  0  0  0  0  0
   -0.1910   24.1620  -28.9620 O   0  0  0  0  0  0  0  0  0  0  0  0
  1  2  1  0
  2  3  1  0
  3  4  2  0
  3  5  1  0
  5  6  2  0
  6  7  1  0
  6  8  1  0
  8  9  2  0
  9 10  1  0
  9 11  1  0
 11 12  1  0
 11 13  2  0
 13 14  1  0
 14 15  1  0
 14 16  1  0
 14 17  1  0
 17 18  1  0
 17 19  1  0
 17 20  1  0
 20 21  1  0
 20 22  1  0
 20 23  1  0
 23 24  1  0
 24 25  1  0
 24 26  1  0
 24 27  1  0
 23 28  1  0
 28 29  1  0
 28 30  1  0
 28 31  1  0
 13 32  1  0
 32 33  1  0
 32 34  2  0
 34 35  1  0
 35 36  1  0
 36 37  2  0
 36 38  1  0
 38 39  1  0
 38 40  2  0
 40 41  1  0
 40 42  1  0
 42 43  2  0
 42 44  1  0
 35  5  1  0
 34  8  1  0
M  CHG  3   2  -1  14   1  44  -1
M  END
>  <UniqueID>  (80) 
79

>  <SMILES>  (80) 
CN(C)CC[NH2+]c1ccc2cc(C([NH-])=O)n(C(=O)/C=C/C(=O)[O-])c2c1

>  <Energy>  (80) 
81.4053513786471

>  <Genealogy>  (80) 
CN(C)CC[NH2+]c1ccc2cc(C([NH-])=O)n(C(=O)C=CC(=O)[O-])c2c1 (protonated)
CN(C)CC[NH2+]c1ccc2cc(C([NH-])=O)n(C(=O)/C=C/C(=O)[O-])c2c1 (cis-trans isomerization)
CN(C)CC[NH2+]c1ccc2cc(C([NH-])=O)n(C(=O)/C=C/C(=O)[O-])c2c1 (3D coordinates assigned)
CN(C)CC[NH2+]c1ccc2cc(C([NH-])=O)n(C(=O)/C=C/C(=O)[O-])c2c1 (optimized conformer: 81.4053513786471 kcal/mol)

>  <smiles>  (80) 
CN(C)CCNc1ccc2cc(C(N)=O)n(C(=O)C=CC(=O)O)c2c1

>  <score_type>  (80) 
oracle

>  <origin>  (80) 
adg

>  <m_score__min__energy>  (80) 
-11.67

>  <m_primary>  (80) 
energy

$$$$
83:0
     RDKit          3D

 35 37  0  0  0  0  0  0  0  0999 V2000
   -5.1820   24.4170  -29.0350 N   0  0  0  0  0  0  0  0  0  0  0  0
   -4.4130   24.3390  -30.2380 C   0  0  0  0  0  0  0  0  0  0  0  0
   -3.8610   25.3830  -30.6780 O   0  0  0  0  0  0  0  0  0  0  0  0
   -4.2440   23.0520  -30.9510 C   0  0  0  0  0  0  0  0  0  0  0  0
   -3.0880   22.2730  -30.9080 C   0  0  0  0  0  0  0  0  0  0  0  0
   -3.3310   21.2100  -31.7480 C   0  0  0  0  0  0  0  0  0  0  0  0
   -2.5330   20.1150  -32.0630 C   0  0  0  0  0  0  0  0  0  0  0  0
   -3.0550   19.1470  -32.9360 C   0  0  0  0  0  0  0  0  0  0  0  0
   -4.3560   19.2900  -33.4850 C   0  0  0  0  0  0  0  0  0  0  0  0
   -4.9310   18.2170  -34.3740 C   0  0  0  0  0  0  0  0  0  0  0  0
   -3.9730   17.8250  -35.2900 F   0  0  0  0  0  0  0  0  0  0  0  0
   -6.0410   18.6870  -35.0530 F   0  0  0  0  0  0  0  0  0  0  0  0
   -5.3150   17.1190  -33.6240 F   0  0  0  0  0  0  0  0  0  0  0  0
   -5.1460   20.4050  -33.1180 C   0  0  0  0  0  0  0  0  0  0  0  0
   -4.5900   21.3640  -32.2660 C   0  0  0  0  0  0  0  0  0  0  0  0
   -5.1600   22.4940  -31.7910 N   0  0  0  0  0  0  0  0  0  0  0  0
   -6.4880   22.9640  -32.0700 C   0  0  0  0  0  0  0  0  0  0  0  0
   -6.6640   24.1600  -32.4280 O   0  0  0  0  0  0  0  0  0  0  0  0
   -7.6410   22.0590  -31.9550 C   0  0  0  0  0  0  0  0  0  0  0  0
   -8.9720   22.4330  -31.9520 C   0  0  0  0  0  0  0  0  0  0  0  0
   -9.6910   21.2620  -31.8280 C   0  0  0  0  0  0  0  0  0  0  0  0
   -8.7500   20.2530  -31.7600 C   0  0  0  0  0  0  0  0  0  0  0  0
   -9.0410   18.7940  -31.6440 C   0  0  0  0  0  0  0  0  0  0  0  0
   -7.5590   17.8630  -31.9680 Cl  0  0  0  0  0  0  0  0  0  0  0  0
   -7.5400   20.7540  -31.8450 O   0  0  0  0  0  0  0  0  0  0  0  0
   -5.7100   23.5940  -28.6710 H   0  0  0  0  0  0  0  0  0  0  0  0
   -5.2600   25.3230  -28.5230 H   0  0  0  0  0  0  0  0  0  0  0  0
   -2.1751   22.4671  -30.3259 H   0  0  0  0  0  0  0  0  0  0  0  0
   -1.5227   20.0105  -31.6406 H   0  0  0  0  0  0  0  0  0  0  0  0
   -2.4484   18.2674  -33.1975 H   0  0  0  0  0  0  0  0  0  0  0  0
   -6.1738   20.5148  -33.4943 H   0  0  0  0  0  0  0  0  0  0  0  0
   -9.3746   23.4535  -32.0320 H   0  0  0  0  0  0  0  0  0  0  0  0
  -10.7851   21.1543  -31.7910 H   0  0  0  0  0  0  0  0  0  0  0  0
   -9.3985   18.5715  -30.6278 H   0  0  0  0  0  0  0  0  0  0  0  0
   -9.8145   18.5162  -32.3751 H   0  0  0  0  0  0  0  0  0  0  0  0
  1  2  1  0
  2  3  2  0
  2  4  1  0
  4  5  2  0
  5  6  1  0
  6  7  2  0
  7  8  1  0
  8  9  2  0
  9 10  1  0
 10 11  1  0
 10 12  1  0
 10 13  1  0
  9 14  1  0
 14 15  2  0
 15 16  1  0
 16 17  1  0
 17 18  2  0
 17 19  1  0
 19 20  2  0
 20 21  1  0
 21 22  2  0
 22 23  1  0
 23 24  1  0
 22 25  1  0
 16  4  1  0
 25 19  1  0
 15  6  1  0
  1 26  1  0
  1 27  1  0
  5 28  1  0
  7 29  1  0
  8 30  1  0
 14 31  1  0
 20 32  1  0
 21 33  1  0
 23 34  1  0
 23 35  1  0
M  END
>  <UniqueID>  (81) 
80

>  <SMILES>  (81) 
NC(=O)c1cc2ccc(C(F)(F)F)cc2n1C(=O)c1ccc(CCl)o1

>  <Energy>  (81) 
100.48869376964178

>  <Genealogy>  (81) 
NC(=O)c1cc2ccc(C(F)(F)F)cc2n1C(=O)c1ccc(CCl)o1 (3D coordinates assigned)
NC(=O)c1cc2ccc(C(F)(F)F)cc2n1C(=O)c1ccc(CCl)o1 (optimized conformer: 100.48869376964178 kcal/mol)

>  <smiles>  (81) 
NC(=O)c1cc2ccc(C(F)(F)F)cc2n1C(=O)c1ccc(CCl)o1

>  <score_type>  (81) 
oracle

>  <origin>  (81) 
adg

>  <m_score__min__energy>  (81) 
-8.8000000000000007

>  <m_primary>  (81) 
energy

$$$$
84:0
     RDKit          3D

 50 51  0  0  0  0  0  0  0  0999 V2000
   -2.3470   25.4000  -26.7220 C   0  0  0  0  0  0  0  0  0  0  0  0
   -2.3720   25.1950  -28.1170 O   0  0  0  0  0  0  0  0  0  0  0  0
   -1.0590   24.9570  -28.5780 C   0  0  0  0  0  0  0  0  0  0  0  0
   -0.9280   23.4970  -29.0100 C   0  0  0  0  0  0  0  0  0  0  0  0
   -1.5560   22.6050  -28.0250 N   0  0  0  0  0  0  0  0  0  0  0  0
   -0.7430   21.9570  -26.9920 C   0  0  0  0  0  0  0  0  0  0  0  0
   -2.9770   22.3760  -28.0580 C   0  0  0  0  0  0  0  0  0  0  0  0
   -3.7230   22.9170  -27.1960 O   0  0  0  0  0  0  0  0  0  0  0  0
   -3.5280   21.5480  -29.0450 O   0  0  0  0  0  0  0  0  0  0  0  0
   -2.7730   20.5810  -29.7740 C   0  0  0  0  0  0  0  0  0  0  0  0
   -2.0940   21.2310  -30.9810 C   0  0  0  0  0  0  0  0  0  0  0  0
   -3.0850   21.8770  -31.8360 N   0  0  0  0  0  0  0  0  0  0  0  0
   -3.9550   22.9230  -31.3930 C   0  0  0  0  0  0  0  0  0  0  0  0
   -3.4900   24.0670  -31.1380 O   0  0  0  0  0  0  0  0  0  0  0  0
   -5.3640   22.6750  -31.2570 N   0  0  0  0  0  0  0  0  0  0  0  0
   -6.2550   23.3460  -30.4730 C   0  0  0  0  0  0  0  0  0  0  0  0
   -5.9700   24.5860  -29.7170 C   0  0  0  0  0  0  0  0  0  0  0  0
   -4.7510   24.7340  -28.9890 N   0  0  0  0  0  0  0  0  0  0  0  0
   -6.8210   25.5160  -29.6850 O   0  0  0  0  0  0  0  0  0  0  0  0
   -7.5150   22.7560  -30.5520 C   0  0  0  0  0  0  0  0  0  0  0  0
   -7.3670   21.6960  -31.4180 C   0  0  0  0  0  0  0  0  0  0  0  0
   -8.2970   20.7520  -31.8420 C   0  0  0  0  0  0  0  0  0  0  0  0
   -7.8590   19.7430  -32.7160 C   0  0  0  0  0  0  0  0  0  0  0  0
   -6.5110   19.7000  -33.1590 C   0  0  0  0  0  0  0  0  0  0  0  0
   -6.0400   18.5750  -34.0460 C   0  0  0  0  0  0  0  0  0  0  0  0
   -4.7280   18.2420  -33.7550 F   0  0  0  0  0  0  0  0  0  0  0  0
   -6.8420   17.4690  -33.8420 F   0  0  0  0  0  0  0  0  0  0  0  0
   -6.1070   18.9440  -35.3790 F   0  0  0  0  0  0  0  0  0  0  0  0
   -5.5920   20.6660  -32.6860 C   0  0  0  0  0  0  0  0  0  0  0  0
   -6.0610   21.6690  -31.8290 C   0  0  0  0  0  0  0  0  0  0  0  0
   -2.4647   24.4349  -26.2074 H   0  0  0  0  0  0  0  0  0  0  0  0
   -1.3869   25.8538  -26.4352 H   0  0  0  0  0  0  0  0  0  0  0  0
   -3.1699   26.0712  -26.4352 H   0  0  0  0  0  0  0  0  0  0  0  0
   -0.8465   25.6134  -29.4347 H   0  0  0  0  0  0  0  0  0  0  0  0
   -0.3429   25.1660  -27.7696 H   0  0  0  0  0  0  0  0  0  0  0  0
   -1.4210   23.3631  -29.9842 H   0  0  0  0  0  0  0  0  0  0  0  0
    0.1401   23.2450  -29.0847 H   0  0  0  0  0  0  0  0  0  0  0  0
   -1.1112   22.2505  -25.9979 H   0  0  0  0  0  0  0  0  0  0  0  0
   -0.8136   20.8647  -27.1014 H   0  0  0  0  0  0  0  0  0  0  0  0
    0.3060   22.2694  -27.1014 H   0  0  0  0  0  0  0  0  0  0  0  0
   -2.0049   20.1497  -29.1152 H   0  0  0  0  0  0  0  0  0  0  0  0
   -3.4530   19.7930  -30.1298 H   0  0  0  0  0  0  0  0  0  0  0  0
   -1.3730   21.9837  -30.6294 H   0  0  0  0  0  0  0  0  0  0  0  0
   -1.5759   20.4528  -31.5606 H   0  0  0  0  0  0  0  0  0  0  0  0
   -4.0000   24.0100  -29.0350 H   0  0  0  0  0  0  0  0  0  0  0  0
   -4.5770   25.5980  -28.4270 H   0  0  0  0  0  0  0  0  0  0  0  0
   -8.4325   23.0703  -30.0330 H   0  0  0  0  0  0  0  0  0  0  0  0
   -9.3427   20.7944  -31.5034 H   0  0  0  0  0  0  0  0  0  0  0  0
   -8.5691   18.9771  -33.0612 H   0  0  0  0  0  0  0  0  0  0  0  0
   -4.5339   20.6300  -32.9845 H   0  0  0  0  0  0  0  0  0  0  0  0
  1  2  1  0
  2  3  1  0
  3  4  1  0
  4  5  1  0
  5  6  1  0
  5  7  1  0
  7  8  2  0
  7  9  1  0
  9 10  1  0
 10 11  1  0
 11 12  1  0
 12 13  1  0
 13 14  2  0
 13 15  1  0
 15 16  1  0
 16 17  1  0
 17 18  1  0
 17 19  2  0
 16 20  2  0
 20 21  1  0
 21 22  2  0
 22 23  1  0
 23 24  2  0
 24 25  1  0
 25 26  1  0
 25 27  1  0
 25 28  1  0
 24 29  1  0
 29 30  2  0
 30 15  1  0
 30 21  1  0
  1 31  1  0
  1 32  1  0
  1 33  1  0
  3 34  1  0
  3 35  1  0
  4 36  1  0
  4 37  1  0
  6 38  1  0
  6 39  1  0
  6 40  1  0
 10 41  1  0
 10 42  1  0
 11 43  1  0
 11 44  1  0
 18 45  1  0
 18 46  1  0
 20 47  1  0
 22 48  1  0
 23 49  1  0
 29 50  1  0
M  CHG  1  12  -1
M  END
>  <UniqueID>  (82) 
81

>  <SMILES>  (82) 
COCCN(C)C(=O)OCC[N-]C(=O)n1c(C(N)=O)cc2ccc(C(F)(F)F)cc21

>  <Energy>  (82) 
79.43679527514284

>  <Genealogy>  (82) 
COCCN(C)C(=O)OCC[N-]C(=O)n1c(C(N)=O)cc2ccc(C(F)(F)F)cc21 (protonated)
COCCN(C)C(=O)OCC[N-]C(=O)n1c(C(N)=O)cc2ccc(C(F)(F)F)cc21 (3D coordinates assigned)
COCCN(C)C(=O)OCC[N-]C(=O)n1c(C(N)=O)cc2ccc(C(F)(F)F)cc21 (optimized conformer: 79.43679527514284 kcal/mol)

>  <smiles>  (82) 
COCCN(C)C(=O)OCCNC(=O)n1c(C(N)=O)cc2ccc(C(F)(F)F)cc21

>  <score_type>  (82) 
oracle

>  <origin>  (82) 
adg

>  <m_score__min__energy>  (82) 
-8.0899999999999999

>  <m_primary>  (82) 
energy

$$$$
85:0
     RDKit          3D

 42 43  0  0  0  0  0  0  0  0999 V2000
   -4.2040   24.1680  -27.1190 C   0  0  0  0  0  0  0  0  0  0  0  0
   -3.0940   24.1410  -28.0760 N   0  0  0  0  0  0  0  0  0  0  0  0
   -1.7250   24.0960  -27.5460 C   0  0  0  0  0  0  0  0  0  0  0  0
   -0.8060   24.8930  -28.4130 C   0  0  0  0  0  0  0  0  0  0  0  0
    0.3810   24.5150  -28.5910 O   0  0  0  0  0  0  0  0  0  0  0  0
   -1.2500   26.0700  -29.0020 O   0  0  0  0  0  0  0  0  0  0  0  0
   -3.3280   23.9630  -29.4910 C   0  0  0  0  0  0  0  0  0  0  0  0
   -3.1280   24.9220  -30.2850 O   0  0  0  0  0  0  0  0  0  0  0  0
   -3.7670   22.6990  -30.0180 N   0  0  0  0  0  0  0  0  0  0  0  0
   -3.4250   21.4690  -29.3010 C   0  0  0  0  0  0  0  0  0  0  0  0
   -4.3960   22.6210  -31.3110 C   0  0  0  0  0  0  0  0  0  0  0  0
   -3.6870   22.6000  -32.3550 O   0  0  0  0  0  0  0  0  0  0  0  0
   -5.8260   22.5600  -31.4340 N   0  0  0  0  0  0  0  0  0  0  0  0
   -6.7370   23.5060  -31.0770 C   0  0  0  0  0  0  0  0  0  0  0  0
   -6.4270   24.8680  -30.5940 C   0  0  0  0  0  0  0  0  0  0  0  0
   -5.2590   25.5630  -31.0300 N   0  0  0  0  0  0  0  0  0  0  0  0
   -7.2330   25.4470  -29.8180 O   0  0  0  0  0  0  0  0  0  0  0  0
   -8.0330   23.0330  -31.2630 C   0  0  0  0  0  0  0  0  0  0  0  0
   -7.8850   21.7590  -31.7670 C   0  0  0  0  0  0  0  0  0  0  0  0
   -8.8460   20.8150  -32.1160 C   0  0  0  0  0  0  0  0  0  0  0  0
   -8.4020   19.5630  -32.5760 C   0  0  0  0  0  0  0  0  0  0  0  0
   -7.0180   19.2800  -32.6770 C   0  0  0  0  0  0  0  0  0  0  0  0
   -6.5650   17.9290  -33.1510 C   0  0  0  0  0  0  0  0  0  0  0  0
   -7.5480   16.9920  -32.8890 F   0  0  0  0  0  0  0  0  0  0  0  0
   -6.3220   17.9670  -34.5110 F   0  0  0  0  0  0  0  0  0  0  0  0
   -6.0710   20.2630  -32.3110 C   0  0  0  0  0  0  0  0  0  0  0  0
   -6.5430   21.5010  -31.8640 C   0  0  0  0  0  0  0  0  0  0  0  0
   -3.8048   24.1583  -26.0941 H   0  0  0  0  0  0  0  0  0  0  0  0
   -4.7983   25.0809  -27.2724 H   0  0  0  0  0  0  0  0  0  0  0  0
   -4.8419   23.2851  -27.2724 H   0  0  0  0  0  0  0  0  0  0  0  0
   -1.7162   24.5132  -26.5282 H   0  0  0  0  0  0  0  0  0  0  0  0
   -1.3828   23.0507  -27.5283 H   0  0  0  0  0  0  0  0  0  0  0  0
   -3.4754   21.6503  -28.2172 H   0  0  0  0  0  0  0  0  0  0  0  0
   -4.1367   20.6757  -29.5736 H   0  0  0  0  0  0  0  0  0  0  0  0
   -2.4060   21.1569  -29.5736 H   0  0  0  0  0  0  0  0  0  0  0  0
   -4.6820   25.2070  -31.8220 H   0  0  0  0  0  0  0  0  0  0  0  0
   -5.0240   26.4960  -30.6240 H   0  0  0  0  0  0  0  0  0  0  0  0
   -8.9738   23.5628  -31.0527 H   0  0  0  0  0  0  0  0  0  0  0  0
   -9.9194   21.0413  -32.0345 H   0  0  0  0  0  0  0  0  0  0  0  0
   -9.1369   18.7955  -32.8603 H   0  0  0  0  0  0  0  0  0  0  0  0
   -5.6409   17.6532  -32.6219 H   0  0  0  0  0  0  0  0  0  0  0  0
   -4.9919   20.0598  -32.3760 H   0  0  0  0  0  0  0  0  0  0  0  0
  1  2  1  0
  2  3  1  0
  3  4  1  0
  4  5  2  0
  4  6  1  0
  2  7  1  0
  7  8  2  0
  7  9  1  0
  9 10  1  0
  9 11  1  0
 11 12  2  0
 11 13  1  0
 13 14  1  0
 14 15  1  0
 15 16  1  0
 15 17  2  0
 14 18  2  0
 18 19  1  0
 19 20  2  0
 20 21  1  0
 21 22  2  0
 22 23  1  0
 23 24  1  0
 23 25  1  0
 22 26  1  0
 26 27  2  0
 27 13  1  0
 27 19  1  0
  1 28  1  0
  1 29  1  0
  1 30  1  0
  3 31  1  0
  3 32  1  0
 10 33  1  0
 10 34  1  0
 10 35  1  0
 16 36  1  0
 16 37  1  0
 18 38  1  0
 20 39  1  0
 21 40  1  0
 23 41  1  0
 26 42  1  0
M  CHG  1   6  -1
M  END
>  <UniqueID>  (83) 
82

>  <SMILES>  (83) 
CN(CC(=O)[O-])C(=O)N(C)C(=O)n1c(C(N)=O)cc2ccc(C(F)F)cc21

>  <Energy>  (83) 
80.86171723280022

>  <Genealogy>  (83) 
CN(CC(=O)[O-])C(=O)N(C)C(=O)n1c(C(N)=O)cc2ccc(C(F)F)cc21 (protonated)
CN(CC(=O)[O-])C(=O)N(C)C(=O)n1c(C(N)=O)cc2ccc(C(F)F)cc21 (3D coordinates assigned)
CN(CC(=O)[O-])C(=O)N(C)C(=O)n1c(C(N)=O)cc2ccc(C(F)F)cc21 (optimized conformer: 80.86171723280022 kcal/mol)

>  <smiles>  (83) 
CN(CC(=O)O)C(=O)N(C)C(=O)n1c(C(N)=O)cc2ccc(C(F)F)cc21

>  <score_type>  (83) 
oracle

>  <origin>  (83) 
adg

>  <m_score__min__energy>  (83) 
-11.16

>  <m_primary>  (83) 
energy

$$$$
86:0
     RDKit          3D

 39 40  0  0  0  0  0  0  0  0999 V2000
   -3.3790   23.0550  -27.6480 C   0  0  0  0  0  0  0  0  0  0  0  0
   -3.0930   23.6260  -29.0390 C   0  0  2  0  0  0  0  0  0  0  0  0
   -3.1270   22.5880  -30.0170 O   0  0  0  0  0  0  0  0  0  0  0  0
   -3.7980   22.6930  -31.2400 C   0  0  0  0  0  0  0  0  0  0  0  0
   -3.1650   22.5980  -32.3270 O   0  0  0  0  0  0  0  0  0  0  0  0
   -5.2120   22.9440  -31.2530 N   0  0  0  0  0  0  0  0  0  0  0  0
   -5.8710   24.0620  -30.8350 C   0  0  0  0  0  0  0  0  0  0  0  0
   -5.2470   25.3400  -30.4330 C   0  0  0  0  0  0  0  0  0  0  0  0
   -3.9250   25.6740  -30.8470 N   0  0  0  0  0  0  0  0  0  0  0  0
   -5.9080   26.1710  -29.7540 O   0  0  0  0  0  0  0  0  0  0  0  0
   -7.2490   23.8740  -30.9130 C   0  0  0  0  0  0  0  0  0  0  0  0
   -7.4170   22.6000  -31.4030 C   0  0  0  0  0  0  0  0  0  0  0  0
   -8.5820   21.8890  -31.6690 C   0  0  0  0  0  0  0  0  0  0  0  0
   -8.4570   20.5740  -32.1440 C   0  0  0  0  0  0  0  0  0  0  0  0
   -7.1820   19.9860  -32.3370 C   0  0  0  0  0  0  0  0  0  0  0  0
   -7.1050   18.6300  -32.8230 N   0  0  0  0  0  0  0  0  0  0  0  0
   -6.0400   17.6830  -32.4900 C   0  0  0  0  0  0  0  0  0  0  0  0
   -5.8200   16.6930  -33.6370 C   0  0  0  0  0  0  0  0  0  0  0  0
   -6.8360   16.8240  -34.5930 O   0  0  0  0  0  0  0  0  0  0  0  0
   -6.0190   20.7450  -32.0560 C   0  0  0  0  0  0  0  0  0  0  0  0
   -6.1740   22.0600  -31.6010 C   0  0  0  0  0  0  0  0  0  0  0  0
   -1.7400   24.2700  -29.0540 C   0  0  0  0  0  0  0  0  0  0  0  0
   -0.7090   23.5930  -28.7980 O   0  0  0  0  0  0  0  0  0  0  0  0
   -1.6220   25.6300  -29.3110 O   0  0  0  0  0  0  0  0  0  0  0  0
   -3.0254   23.7609  -26.8821 H   0  0  0  0  0  0  0  0  0  0  0  0
   -4.4616   22.8991  -27.5311 H   0  0  0  0  0  0  0  0  0  0  0  0
   -2.8555   22.0946  -27.5311 H   0  0  0  0  0  0  0  0  0  0  0  0
   -3.8642   24.3735  -29.2766 H   0  0  0  0  0  0  0  0  0  0  0  0
   -3.1370   24.9990  -30.7250 H   0  0  0  0  0  0  0  0  0  0  0  0
   -8.0361   24.5924  -30.6404 H   0  0  0  0  0  0  0  0  0  0  0  0
   -9.5715   22.3432  -31.5120 H   0  0  0  0  0  0  0  0  0  0  0  0
   -9.3622   19.9912  -32.3698 H   0  0  0  0  0  0  0  0  0  0  0  0
   -7.8430   18.3000  -33.4870 H   0  0  0  0  0  0  0  0  0  0  0  0
   -5.1076   18.2373  -32.3073 H   0  0  0  0  0  0  0  0  0  0  0  0
   -6.3328   17.1228  -31.5897 H   0  0  0  0  0  0  0  0  0  0  0  0
   -4.8479   16.8958  -34.1102 H   0  0  0  0  0  0  0  0  0  0  0  0
   -5.8365   15.6693  -33.2347 H   0  0  0  0  0  0  0  0  0  0  0  0
   -6.8220   17.7700  -34.8940 H   0  0  0  0  0  0  0  0  0  0  0  0
   -5.0174   20.3111  -32.1922 H   0  0  0  0  0  0  0  0  0  0  0  0
  1  2  1  0
  2  3  1  0
  3  4  1  0
  4  5  2  0
  4  6  1  0
  6  7  1  0
  7  8  1  0
  8  9  1  0
  8 10  2  0
  7 11  2  0
 11 12  1  0
 12 13  2  0
 13 14  1  0
 14 15  2  0
 15 16  1  0
 16 17  1  0
 17 18  1  0
 18 19  1  0
 15 20  1  0
 20 21  2  0
  2 22  1  0
 22 23  2  0
 22 24  1  0
 21  6  1  0
 21 12  1  0
  1 25  1  0
  1 26  1  0
  1 27  1  0
  2 28  1  6
  9 29  1  0
 11 30  1  0
 13 31  1  0
 14 32  1  0
 16 33  1  0
 17 34  1  0
 17 35  1  0
 18 36  1  0
 18 37  1  0
 19 38  1  0
 20 39  1  0
M  CHG  2   9  -1  24  -1
M  END
>  <UniqueID>  (84) 
83

>  <SMILES>  (84) 
C[C@H](OC(=O)n1c(C([NH-])=O)cc2ccc(NCCO)cc21)C(=O)[O-]

>  <Energy>  (84) 
70.39548499245761

>  <Genealogy>  (84) 
CC(OC(=O)n1c(C([NH-])=O)cc2ccc(NCCO)cc21)C(=O)[O-] (protonated)
C[C@H](OC(=O)n1c(C([NH-])=O)cc2ccc(NCCO)cc21)C(=O)[O-] (chirality)
C[C@H](OC(=O)n1c(C([NH-])=O)cc2ccc(NCCO)cc21)C(=O)[O-] (3D coordinates assigned)
C[C@H](OC(=O)n1c(C([NH-])=O)cc2ccc(NCCO)cc21)C(=O)[O-] (optimized conformer: 70.39548499245761 kcal/mol)

>  <smiles>  (84) 
CC(OC(=O)n1c(C(N)=O)cc2ccc(NCCO)cc21)C(=O)O

>  <score_type>  (84) 
oracle

>  <origin>  (84) 
adg

>  <m_score__min__energy>  (84) 
-11.92

>  <m_primary>  (84) 
energy

$$$$
87:0
     RDKit          3D

 39 40  0  0  0  0  0  0  0  0999 V2000
   -6.1340   17.0700  -31.6280 C   0  0  0  0  0  0  0  0  0  0  0  0
   -7.0640   16.7630  -32.6450 O   0  0  0  0  0  0  0  0  0  0  0  0
   -6.3970   16.2960  -33.8010 C   0  0  0  0  0  0  0  0  0  0  0  0
   -5.9720   17.4600  -34.7030 C   0  0  0  0  0  0  0  0  0  0  0  0
   -6.4390   18.7400  -34.1650 N   0  0  0  0  0  0  0  0  0  0  0  0
   -5.6030   19.7220  -33.5200 C   0  0  0  0  0  0  0  0  0  0  0  0
   -4.1850   19.6760  -33.6080 C   0  0  0  0  0  0  0  0  0  0  0  0
   -3.3950   20.6420  -32.9620 C   0  0  0  0  0  0  0  0  0  0  0  0
   -4.0410   21.6480  -32.2530 C   0  0  0  0  0  0  0  0  0  0  0  0
   -3.5190   22.6910  -31.5220 C   0  0  0  0  0  0  0  0  0  0  0  0
   -4.6210   23.3810  -31.0240 C   0  0  0  0  0  0  0  0  0  0  0  0
   -4.5270   24.6400  -30.2500 C   0  0  0  0  0  0  0  0  0  0  0  0
   -5.1420   24.7530  -28.9660 N   0  0  0  0  0  0  0  0  0  0  0  0
   -3.8720   25.6140  -30.7050 O   0  0  0  0  0  0  0  0  0  0  0  0
   -5.7800   22.7880  -31.4300 N   0  0  0  0  0  0  0  0  0  0  0  0
   -7.1210   23.1570  -31.0690 C   0  0  0  0  0  0  0  0  0  0  0  0
   -7.3270   23.8630  -30.0440 O   0  0  0  0  0  0  0  0  0  0  0  0
   -8.1940   22.7430  -31.8680 O   0  0  0  0  0  0  0  0  0  0  0  0
   -9.1730   21.7990  -31.4380 C   0  0  0  0  0  0  0  0  0  0  0  0
   -9.1380   20.6070  -32.2910 C   0  0  0  0  0  0  0  0  0  0  0  0
   -9.1090   19.6650  -32.9640 N   0  0  0  0  0  0  0  0  0  0  0  0
   -5.4070   21.7290  -32.1820 C   0  0  0  0  0  0  0  0  0  0  0  0
   -6.2180   20.7690  -32.7990 C   0  0  0  0  0  0  0  0  0  0  0  0
   -6.6019   16.9156  -30.6445 H   0  0  0  0  0  0  0  0  0  0  0  0
   -5.2563   16.4139  -31.7236 H   0  0  0  0  0  0  0  0  0  0  0  0
   -5.8193   18.1197  -31.7236 H   0  0  0  0  0  0  0  0  0  0  0  0
   -5.5026   15.7328  -33.4964 H   0  0  0  0  0  0  0  0  0  0  0  0
   -7.0871   15.6516  -34.3653 H   0  0  0  0  0  0  0  0  0  0  0  0
   -4.8744   17.4784  -34.7730 H   0  0  0  0  0  0  0  0  0  0  0  0
   -6.4197   17.3140  -35.6971 H   0  0  0  0  0  0  0  0  0  0  0  0
   -7.4670   18.9230  -34.2140 H   0  0  0  0  0  0  0  0  0  0  0  0
   -3.7012   18.8761  -34.1877 H   0  0  0  0  0  0  0  0  0  0  0  0
   -2.2970   20.6032  -33.0158 H   0  0  0  0  0  0  0  0  0  0  0  0
   -2.4566   22.9289  -31.3647 H   0  0  0  0  0  0  0  0  0  0  0  0
   -5.0360   25.6320  -28.4120 H   0  0  0  0  0  0  0  0  0  0  0  0
   -5.7360   23.9880  -28.5780 H   0  0  0  0  0  0  0  0  0  0  0  0
   -8.9642   21.5076  -30.3981 H   0  0  0  0  0  0  0  0  0  0  0  0
  -10.1695   22.2597  -31.5068 H   0  0  0  0  0  0  0  0  0  0  0  0
   -7.3138   20.8291  -32.7236 H   0  0  0  0  0  0  0  0  0  0  0  0
  1  2  1  0
  2  3  1  0
  3  4  1  0
  4  5  1  0
  5  6  1  0
  6  7  2  0
  7  8  1  0
  8  9  2  0
  9 10  1  0
 10 11  2  0
 11 12  1  0
 12 13  1  0
 12 14  2  0
 11 15  1  0
 15 16  1  0
 16 17  2  0
 16 18  1  0
 18 19  1  0
 19 20  1  0
 20 21  3  0
 15 22  1  0
 22 23  2  0
 23  6  1  0
 22  9  1  0
  1 24  1  0
  1 25  1  0
  1 26  1  0
  3 27  1  0
  3 28  1  0
  4 29  1  0
  4 30  1  0
  5 31  1  0
  7 32  1  0
  8 33  1  0
 10 34  1  0
 13 35  1  0
 13 36  1  0
 19 37  1  0
 19 38  1  0
 23 39  1  0
M  END
>  <UniqueID>  (85) 
84

>  <SMILES>  (85) 
COCCNc1ccc2cc(C(N)=O)n(C(=O)OCC#N)c2c1

>  <Energy>  (85) 
75.54629748871895

>  <Genealogy>  (85) 
COCCNc1ccc2cc(C(N)=O)n(C(=O)OCC#N)c2c1 (3D coordinates assigned)
COCCNc1ccc2cc(C(N)=O)n(C(=O)OCC#N)c2c1 (optimized conformer: 75.54629748871895 kcal/mol)

>  <smiles>  (85) 
COCCNc1ccc2cc(C(N)=O)n(C(=O)OCC#N)c2c1

>  <score_type>  (85) 
oracle

>  <origin>  (85) 
adg

>  <m_score__min__energy>  (85) 
-8.2899999999999991

>  <m_primary>  (85) 
energy

$$$$
88:0
     RDKit          3D

 41 42  0  0  0  0  0  0  0  0999 V2000
   -3.8840   24.5370  -26.8840 C   0  0  0  0  0  0  0  0  0  0  0  0
   -2.5740   24.5450  -27.1610 C   0  0  0  0  0  0  0  0  0  0  0  0
   -1.5710   24.5790  -26.0430 C   0  0  0  0  0  0  0  0  0  0  0  0
   -2.0920   24.4580  -28.5580 C   0  0  0  0  0  0  0  0  0  0  0  0
   -1.6140   25.4760  -29.1340 O   0  0  0  0  0  0  0  0  0  0  0  0
   -2.1750   23.2400  -29.2410 O   0  0  0  0  0  0  0  0  0  0  0  0
   -3.1880   22.2720  -28.9800 C   0  0  0  0  0  0  0  0  0  0  0  0
   -3.6040   21.6540  -30.1960 O   0  0  0  0  0  0  0  0  0  0  0  0
   -4.0790   22.3840  -31.2910 C   0  0  0  0  0  0  0  0  0  0  0  0
   -3.3170   22.6440  -32.2620 O   0  0  0  0  0  0  0  0  0  0  0  0
   -5.4520   22.8000  -31.3300 N   0  0  0  0  0  0  0  0  0  0  0  0
   -5.9800   23.9740  -30.8790 C   0  0  0  0  0  0  0  0  0  0  0  0
   -5.2120   25.1530  -30.4330 C   0  0  0  0  0  0  0  0  0  0  0  0
   -3.8650   25.3480  -30.8550 N   0  0  0  0  0  0  0  0  0  0  0  0
   -5.7670   26.0260  -29.7160 O   0  0  0  0  0  0  0  0  0  0  0  0
   -7.3690   23.9580  -30.9820 C   0  0  0  0  0  0  0  0  0  0  0  0
   -7.6800   22.7300  -31.5220 C   0  0  0  0  0  0  0  0  0  0  0  0
   -8.9190   22.1790  -31.8350 C   0  0  0  0  0  0  0  0  0  0  0  0
   -8.9460   20.8760  -32.3600 C   0  0  0  0  0  0  0  0  0  0  0  0
   -7.7440   20.1450  -32.5470 C   0  0  0  0  0  0  0  0  0  0  0  0
   -7.7830   18.8150  -33.1010 N   0  0  0  0  0  0  0  0  0  0  0  0
   -7.4290   17.8320  -32.0760 C   0  0  0  0  0  0  0  0  0  0  0  0
   -6.5040   20.7450  -32.2250 C   0  0  0  0  0  0  0  0  0  0  0  0
   -6.5070   22.0510  -31.7210 C   0  0  0  0  0  0  0  0  0  0  0  0
   -4.6190   24.5121  -27.7020 H   0  0  0  0  0  0  0  0  0  0  0  0
   -4.2252   24.5553  -25.8384 H   0  0  0  0  0  0  0  0  0  0  0  0
   -2.0975   24.5612  -25.0774 H   0  0  0  0  0  0  0  0  0  0  0  0
   -0.9101   23.7027  -26.1165 H   0  0  0  0  0  0  0  0  0  0  0  0
   -0.9710   25.4980  -26.1165 H   0  0  0  0  0  0  0  0  0  0  0  0
   -2.7904   21.5044  -28.2998 H   0  0  0  0  0  0  0  0  0  0  0  0
   -4.0518   22.7723  -28.5179 H   0  0  0  0  0  0  0  0  0  0  0  0
   -3.1030   24.7180  -30.5210 H   0  0  0  0  0  0  0  0  0  0  0  0
   -8.0686   24.7563  -30.6934 H   0  0  0  0  0  0  0  0  0  0  0  0
   -9.8482   22.7459  -31.6763 H   0  0  0  0  0  0  0  0  0  0  0  0
   -9.9091   20.4176  -32.6290 H   0  0  0  0  0  0  0  0  0  0  0  0
   -8.7400   18.6040  -33.4660 H   0  0  0  0  0  0  0  0  0  0  0  0
   -7.1090   18.7380  -33.8990 H   0  0  0  0  0  0  0  0  0  0  0  0
   -7.5864   18.2691  -31.0789 H   0  0  0  0  0  0  0  0  0  0  0  0
   -8.0623   16.9398  -32.1894 H   0  0  0  0  0  0  0  0  0  0  0  0
   -6.3723   17.5484  -32.1894 H   0  0  0  0  0  0  0  0  0  0  0  0
   -5.5601   20.1984  -32.3672 H   0  0  0  0  0  0  0  0  0  0  0  0
  1  2  2  0
  2  3  1  0
  2  4  1  0
  4  5  2  0
  4  6  1  0
  6  7  1  0
  7  8  1  0
  8  9  1  0
  9 10  2  0
  9 11  1  0
 11 12  1  0
 12 13  1  0
 13 14  1  0
 13 15  2  0
 12 16  2  0
 16 17  1  0
 17 18  2  0
 18 19  1  0
 19 20  2  0
 20 21  1  0
 21 22  1  0
 20 23  1  0
 23 24  2  0
 24 11  1  0
 24 17  1  0
  1 25  1  0
  1 26  1  0
  3 27  1  0
  3 28  1  0
  3 29  1  0
  7 30  1  0
  7 31  1  0
 14 32  1  0
 16 33  1  0
 18 34  1  0
 19 35  1  0
 21 36  1  0
 21 37  1  0
 22 38  1  0
 22 39  1  0
 22 40  1  0
 23 41  1  0
M  CHG  2  14  -1  21   1
M  END
>  <UniqueID>  (86) 
85

>  <SMILES>  (86) 
C=C(C)C(=O)OCOC(=O)n1c(C([NH-])=O)cc2ccc([NH2+]C)cc21

>  <Energy>  (86) 
74.82277554726555

>  <Genealogy>  (86) 
C=C(C)C(=O)OCOC(=O)n1c(C([NH-])=O)cc2ccc([NH2+]C)cc21 (protonated)
C=C(C)C(=O)OCOC(=O)n1c(C([NH-])=O)cc2ccc([NH2+]C)cc21 (3D coordinates assigned)
C=C(C)C(=O)OCOC(=O)n1c(C([NH-])=O)cc2ccc([NH2+]C)cc21 (optimized conformer: 74.82277554726555 kcal/mol)

>  <smiles>  (86) 
C=C(C)C(=O)OCOC(=O)n1c(C(N)=O)cc2ccc(NC)cc21

>  <score_type>  (86) 
oracle

>  <origin>  (86) 
adg

>  <m_score__min__energy>  (86) 
-10.119999999999999

>  <m_primary>  (86) 
energy

$$$$
89:0
     RDKit          3D

 37 38  0  0  0  0  0  0  0  0999 V2000
   -8.9130   18.5060  -31.2610 C   0  0  0  0  0  0  0  0  0  0  0  0
   -7.8450   18.9580  -32.1580 N   0  0  0  0  0  0  0  0  0  0  0  0
   -8.0690   20.0780  -33.0770 C   0  0  0  0  0  0  0  0  0  0  0  0
   -6.5980   18.2380  -32.1910 C   0  0  0  0  0  0  0  0  0  0  0  0
   -6.5300   17.0740  -31.7110 O   0  0  0  0  0  0  0  0  0  0  0  0
   -5.4260   18.8250  -32.7730 N   0  0  0  0  0  0  0  0  0  0  0  0
   -4.5240   18.2290  -33.6000 C   0  0  0  0  0  0  0  0  0  0  0  0
   -4.6560   16.8820  -34.1950 C   0  0  0  0  0  0  0  0  0  0  0  0
   -4.8860   15.7270  -33.3860 N   0  0  0  0  0  0  0  0  0  0  0  0
   -4.6020   16.7530  -35.4470 O   0  0  0  0  0  0  0  0  0  0  0  0
   -3.4250   19.0600  -33.8030 C   0  0  0  0  0  0  0  0  0  0  0  0
   -3.6840   20.1930  -33.0640 C   0  0  0  0  0  0  0  0  0  0  0  0
   -2.9110   21.3330  -32.8680 C   0  0  0  0  0  0  0  0  0  0  0  0
   -3.4040   22.3200  -31.9990 C   0  0  0  0  0  0  0  0  0  0  0  0
   -4.6430   22.1520  -31.3310 C   0  0  0  0  0  0  0  0  0  0  0  0
   -5.1030   23.1860  -30.4390 N   0  0  0  0  0  0  0  0  0  0  0  0
   -4.3030   23.7610  -29.3580 C   0  0  0  0  0  0  0  0  0  0  0  0
   -3.4980   24.9180  -29.8610 C   0  0  0  0  0  0  0  0  0  0  0  0
   -3.8990   25.5870  -30.8490 O   0  0  0  0  0  0  0  0  0  0  0  0
   -2.2890   25.2410  -29.2570 O   0  0  0  0  0  0  0  0  0  0  0  0
   -5.3970   20.9730  -31.5540 C   0  0  0  0  0  0  0  0  0  0  0  0
   -4.8920   20.0210  -32.4450 C   0  0  0  0  0  0  0  0  0  0  0  0
   -8.5958   18.6403  -30.2163 H   0  0  0  0  0  0  0  0  0  0  0  0
   -9.8223   19.0964  -31.4468 H   0  0  0  0  0  0  0  0  0  0  0  0
   -9.1222   17.4422  -31.4468 H   0  0  0  0  0  0  0  0  0  0  0  0
   -8.2525   20.9956  -32.4988 H   0  0  0  0  0  0  0  0  0  0  0  0
   -7.1806   20.2155  -33.7109 H   0  0  0  0  0  0  0  0  0  0  0  0
   -8.9420   19.8632  -33.7109 H   0  0  0  0  0  0  0  0  0  0  0  0
   -4.9130   14.7800  -33.8260 H   0  0  0  0  0  0  0  0  0  0  0  0
   -5.1340   15.8100  -32.3770 H   0  0  0  0  0  0  0  0  0  0  0  0
   -2.5389   18.8551  -34.4217 H   0  0  0  0  0  0  0  0  0  0  0  0
   -1.9441   21.4574  -33.3776 H   0  0  0  0  0  0  0  0  0  0  0  0
   -2.8198   23.2374  -31.8342 H   0  0  0  0  0  0  0  0  0  0  0  0
   -6.0780   23.5460  -30.5540 H   0  0  0  0  0  0  0  0  0  0  0  0
   -4.9724   24.1068  -28.5566 H   0  0  0  0  0  0  0  0  0  0  0  0
   -3.6180   22.9909  -28.9736 H   0  0  0  0  0  0  0  0  0  0  0  0
   -6.3554   20.8108  -31.0391 H   0  0  0  0  0  0  0  0  0  0  0  0
  1  2  1  0
  2  3  1  0
  2  4  1  0
  4  5  2  0
  4  6  1  0
  6  7  1  0
  7  8  1  0
  8  9  1  0
  8 10  2  0
  7 11  2  0
 11 12  1  0
 12 13  2  0
 13 14  1  0
 14 15  2  0
 15 16  1  0
 16 17  1  0
 17 18  1  0
 18 19  2  0
 18 20  1  0
 15 21  1  0
 21 22  2  0
 22  6  1  0
 22 12  1  0
  1 23  1  0
  1 24  1  0
  1 25  1  0
  3 26  1  0
  3 27  1  0
  3 28  1  0
  9 29  1  0
  9 30  1  0
 11 31  1  0
 13 32  1  0
 14 33  1  0
 16 34  1  0
 17 35  1  0
 17 36  1  0
 21 37  1  0
M  CHG  1  20  -1
M  END
>  <UniqueID>  (87) 
86

>  <SMILES>  (87) 
CN(C)C(=O)n1c(C(N)=O)cc2ccc(NCC(=O)[O-])cc21

>  <Energy>  (87) 
73.339370057438

>  <Genealogy>  (87) 
CN(C)C(=O)n1c(C(N)=O)cc2ccc(NCC(=O)[O-])cc21 (protonated)
CN(C)C(=O)n1c(C(N)=O)cc2ccc(NCC(=O)[O-])cc21 (3D coordinates assigned)
CN(C)C(=O)n1c(C(N)=O)cc2ccc(NCC(=O)[O-])cc21 (optimized conformer: 73.339370057438 kcal/mol)

>  <smiles>  (87) 
CN(C)C(=O)n1c(C(N)=O)cc2ccc(NCC(=O)O)cc21

>  <score_type>  (87) 
oracle

>  <origin>  (87) 
adg

>  <m_score__min__energy>  (87) 
-9.7200000000000006

>  <m_primary>  (87) 
energy

$$$$
90:0
     RDKit          3D

 52 53  0  0  0  0  0  0  0  0999 V2000
   -3.4630   19.3480  -33.8350 C   0  0  0  0  0  0  0  0  0  0  0  0
   -4.2410   18.1130  -33.9200 N   0  0  0  0  0  0  0  0  0  0  0  0
   -3.6070   16.8210  -33.6500 C   0  0  0  0  0  0  0  0  0  0  0  0
   -5.5750   18.1660  -34.4400 C   0  0  0  0  0  0  0  0  0  0  0  0
   -5.7660   18.5550  -35.6230 O   0  0  0  0  0  0  0  0  0  0  0  0
   -6.7460   17.7710  -33.5870 C   0  0  0  0  0  0  0  0  0  0  0  0
   -6.5840   18.2740  -32.2120 N   0  0  0  0  0  0  0  0  0  0  0  0
   -6.1300   17.3360  -31.1760 C   0  0  0  0  0  0  0  0  0  0  0  0
   -6.7940   19.6740  -31.8830 C   0  0  0  0  0  0  0  0  0  0  0  0
   -8.0960   20.2500  -31.9300 C   0  0  0  0  0  0  0  0  0  0  0  0
   -8.2960   21.6200  -31.6750 C   0  0  0  0  0  0  0  0  0  0  0  0
   -7.1890   22.3950  -31.3640 C   0  0  0  0  0  0  0  0  0  0  0  0
   -7.0950   23.7450  -31.1130 C   0  0  0  0  0  0  0  0  0  0  0  0
   -5.7450   23.9800  -30.8670 C   0  0  0  0  0  0  0  0  0  0  0  0
   -5.2020   25.2960  -30.4700 C   0  0  0  0  0  0  0  0  0  0  0  0
   -3.8730   25.6600  -30.8400 N   0  0  0  0  0  0  0  0  0  0  0  0
   -5.9140   26.1190  -29.8360 O   0  0  0  0  0  0  0  0  0  0  0  0
   -5.0340   22.8220  -30.9640 N   0  0  0  0  0  0  0  0  0  0  0  0
   -3.6140   22.6560  -30.8360 C   0  0  0  0  0  0  0  0  0  0  0  0
   -2.9950   21.9330  -31.6610 O   0  0  0  0  0  0  0  0  0  0  0  0
   -2.9350   23.3190  -29.8020 O   0  0  0  0  0  0  0  0  0  0  0  0
   -2.9820   22.9920  -28.4050 C   0  0  0  0  0  0  0  0  0  0  0  0
   -4.1560   23.7210  -27.7270 C   0  0  0  0  0  0  0  0  0  0  0  0
   -3.1010   21.4700  -28.1970 C   0  0  0  0  0  0  0  0  0  0  0  0
   -1.6670   23.4780  -27.7800 C   0  0  0  0  0  0  0  0  0  0  0  0
   -5.9310   21.8620  -31.2730 C   0  0  0  0  0  0  0  0  0  0  0  0
   -5.6960   20.5080  -31.5380 C   0  0  0  0  0  0  0  0  0  0  0  0
   -3.3000   19.6067  -32.7783 H   0  0  0  0  0  0  0  0  0  0  0  0
   -2.4919   19.2045  -34.3314 H   0  0  0  0  0  0  0  0  0  0  0  0
   -4.0117   20.1619  -34.3314 H   0  0  0  0  0  0  0  0  0  0  0  0
   -3.5325   16.6691  -32.5631 H   0  0  0  0  0  0  0  0  0  0  0  0
   -4.2124   16.0160  -34.0920 H   0  0  0  0  0  0  0  0  0  0  0  0
   -2.5998   16.8073  -34.0920 H   0  0  0  0  0  0  0  0  0  0  0  0
   -7.6656   18.1923  -34.0193 H   0  0  0  0  0  0  0  0  0  0  0  0
   -6.8058   16.6731  -33.5563 H   0  0  0  0  0  0  0  0  0  0  0  0
   -6.3353   17.7601  -30.1820 H   0  0  0  0  0  0  0  0  0  0  0  0
   -6.6659   16.3816  -31.2852 H   0  0  0  0  0  0  0  0  0  0  0  0
   -5.0490   17.1642  -31.2852 H   0  0  0  0  0  0  0  0  0  0  0  0
   -8.9603   19.6132  -32.1697 H   0  0  0  0  0  0  0  0  0  0  0  0
   -9.3018   22.0630  -31.7211 H   0  0  0  0  0  0  0  0  0  0  0  0
   -7.9122   24.4813  -31.1079 H   0  0  0  0  0  0  0  0  0  0  0  0
   -3.0520   25.2980  -30.3040 H   0  0  0  0  0  0  0  0  0  0  0  0
   -4.0476   23.6537  -26.6344 H   0  0  0  0  0  0  0  0  0  0  0  0
   -4.1559   24.7782  -28.0310 H   0  0  0  0  0  0  0  0  0  0  0  0
   -5.1035   23.2521  -28.0310 H   0  0  0  0  0  0  0  0  0  0  0  0
   -3.1184   21.2474  -27.1199 H   0  0  0  0  0  0  0  0  0  0  0  0
   -4.0302   21.1080  -28.6613 H   0  0  0  0  0  0  0  0  0  0  0  0
   -2.2394   20.9680  -28.6613 H   0  0  0  0  0  0  0  0  0  0  0  0
   -1.7490   23.4477  -26.6835 H   0  0  0  0  0  0  0  0  0  0  0  0
   -0.8435   22.8248  -28.1043 H   0  0  0  0  0  0  0  0  0  0  0  0
   -1.4662   24.5097  -28.1043 H   0  0  0  0  0  0  0  0  0  0  0  0
   -4.6778   20.0958  -31.4802 H   0  0  0  0  0  0  0  0  0  0  0  0
  1  2  1  0
  2  3  1  0
  2  4  1  0
  4  5  2  0
  4  6  1  0
  6  7  1  0
  7  8  1  0
  7  9  1  0
  9 10  2  0
 10 11  1  0
 11 12  2  0
 12 13  1  0
 13 14  2  0
 14 15  1  0
 15 16  1  0
 15 17  2  0
 14 18  1  0
 18 19  1  0
 19 20  2  0
 19 21  1  0
 21 22  1  0
 22 23  1  0
 22 24  1  0
 22 25  1  0
 18 26  1  0
 26 27  2  0
 27  9  1  0
 26 12  1  0
  1 28  1  0
  1 29  1  0
  1 30  1  0
  3 31  1  0
  3 32  1  0
  3 33  1  0
  6 34  1  0
  6 35  1  0
  8 36  1  0
  8 37  1  0
  8 38  1  0
 10 39  1  0
 11 40  1  0
 13 41  1  0
 16 42  1  0
 23 43  1  0
 23 44  1  0
 23 45  1  0
 24 46  1  0
 24 47  1  0
 24 48  1  0
 25 49  1  0
 25 50  1  0
 25 51  1  0
 27 52  1  0
M  CHG  1  16  -1
M  END
>  <UniqueID>  (88) 
87

>  <SMILES>  (88) 
CN(C)C(=O)CN(C)c1ccc2cc(C([NH-])=O)n(C(=O)OC(C)(C)C)c2c1

>  <Energy>  (88) 
88.8655668092154

>  <Genealogy>  (88) 
CN(C)C(=O)CN(C)c1ccc2cc(C([NH-])=O)n(C(=O)OC(C)(C)C)c2c1 (protonated)
CN(C)C(=O)CN(C)c1ccc2cc(C([NH-])=O)n(C(=O)OC(C)(C)C)c2c1 (3D coordinates assigned)
CN(C)C(=O)CN(C)c1ccc2cc(C([NH-])=O)n(C(=O)OC(C)(C)C)c2c1 (optimized conformer: 88.8655668092154 kcal/mol)

>  <smiles>  (88) 
CN(C)C(=O)CN(C)c1ccc2cc(C(N)=O)n(C(=O)OC(C)(C)C)c2c1

>  <score_type>  (88) 
oracle

>  <origin>  (88) 
adg

>  <m_score__min__energy>  (88) 
-10.880000000000001

>  <m_primary>  (88) 
energy

$$$$
91:0
     RDKit          3D

 45 47  0  0  0  0  0  0  0  0999 V2000
   -1.6320   25.5730  -29.1410 N   0  0  0  0  0  0  0  0  0  0  0  0
   -0.8410   24.3880  -29.1240 C   0  0  0  0  0  0  0  0  0  0  0  0
    0.3000   24.4000  -28.5880 O   0  0  0  0  0  0  0  0  0  0  0  0
   -1.3760   23.1220  -29.7100 C   0  0  0  0  0  0  0  0  0  0  0  0
   -2.7450   23.2990  -30.0550 O   0  0  0  0  0  0  0  0  0  0  0  0
   -3.3160   22.7320  -31.1970 C   0  0  0  0  0  0  0  0  0  0  0  0
   -2.5820   22.2770  -32.1170 O   0  0  0  0  0  0  0  0  0  0  0  0
   -4.7460   22.6870  -31.3320 N   0  0  0  0  0  0  0  0  0  0  0  0
   -5.6350   23.6930  -31.0960 C   0  0  0  0  0  0  0  0  0  0  0  0
   -5.3260   24.9960  -30.4690 C   0  0  0  0  0  0  0  0  0  0  0  0
   -4.1200   25.6890  -30.7750 N   0  0  0  0  0  0  0  0  0  0  0  0
   -6.1160   25.4780  -29.6150 O   0  0  0  0  0  0  0  0  0  0  0  0
   -6.9220   23.3020  -31.4590 C   0  0  0  0  0  0  0  0  0  0  0  0
   -6.7950   22.0130  -31.9230 C   0  0  0  0  0  0  0  0  0  0  0  0
   -7.7580   21.1450  -32.4260 C   0  0  0  0  0  0  0  0  0  0  0  0
   -7.3390   19.8770  -32.8630 C   0  0  0  0  0  0  0  0  0  0  0  0
   -5.9700   19.4990  -32.7980 C   0  0  0  0  0  0  0  0  0  0  0  0
   -5.5510   18.1950  -33.2590 N   0  0  0  0  0  0  0  0  0  0  0  0
   -4.1490   17.7710  -33.1090 C   0  0  0  0  0  0  0  0  0  0  0  0
   -3.7630   16.7790  -34.2100 C   0  0  0  0  0  0  0  0  0  0  0  0
   -4.6870   15.5470  -34.2440 C   0  0  0  0  0  0  0  0  0  0  0  0
   -6.0960   15.8120  -33.6670 C   0  0  2  0  0  0  0  0  0  0  0  0
   -7.0660   14.8860  -34.2560 N   0  0  0  0  0  0  0  0  0  0  0  0
   -6.5290   17.2760  -33.8660 C   0  0  0  0  0  0  0  0  0  0  0  0
   -5.0240   20.4140  -32.2790 C   0  0  0  0  0  0  0  0  0  0  0  0
   -5.4730   21.6640  -31.8340 C   0  0  0  0  0  0  0  0  0  0  0  0
   -2.6590   25.5300  -29.3270 H   0  0  0  0  0  0  0  0  0  0  0  0
   -0.8013   22.8641  -30.6117 H   0  0  0  0  0  0  0  0  0  0  0  0
   -1.2862   22.3107  -28.9726 H   0  0  0  0  0  0  0  0  0  0  0  0
   -3.1900   25.2470  -30.6110 H   0  0  0  0  0  0  0  0  0  0  0  0
   -7.8442   23.8976  -31.3894 H   0  0  0  0  0  0  0  0  0  0  0  0
   -8.8157   21.4421  -32.4801 H   0  0  0  0  0  0  0  0  0  0  0  0
   -8.0798   19.1676  -33.2605 H   0  0  0  0  0  0  0  0  0  0  0  0
   -3.4959   18.6538  -33.1731 H   0  0  0  0  0  0  0  0  0  0  0  0
   -4.0308   17.2791  -32.1323 H   0  0  0  0  0  0  0  0  0  0  0  0
   -3.8212   17.2906  -35.1821 H   0  0  0  0  0  0  0  0  0  0  0  0
   -2.7427   16.4260  -33.9993 H   0  0  0  0  0  0  0  0  0  0  0  0
   -4.7951   15.2226  -35.2895 H   0  0  0  0  0  0  0  0  0  0  0  0
   -4.2201   14.7771  -33.6122 H   0  0  0  0  0  0  0  0  0  0  0  0
   -6.0579   15.6355  -32.5819 H   0  0  0  0  0  0  0  0  0  0  0  0
   -6.5710   14.0170  -34.5650 H   0  0  0  0  0  0  0  0  0  0  0  0
   -7.4750   15.3290  -35.1090 H   0  0  0  0  0  0  0  0  0  0  0  0
   -6.6032   17.4875  -34.9429 H   0  0  0  0  0  0  0  0  0  0  0  0
   -7.5043   17.4257  -33.3797 H   0  0  0  0  0  0  0  0  0  0  0  0
   -3.9577   20.1492  -32.2260 H   0  0  0  0  0  0  0  0  0  0  0  0
  1  2  1  0
  2  3  2  0
  2  4  1  0
  4  5  1  0
  5  6  1  0
  6  7  2  0
  6  8  1  0
  8  9  1  0
  9 10  1  0
 10 11  1  0
 10 12  2  0
  9 13  2  0
 13 14  1  0
 14 15  2  0
 15 16  1  0
 16 17  2  0
 17 18  1  0
 18 19  1  0
 19 20  1  0
 20 21  1  0
 21 22  1  0
 22 23  1  0
 22 24  1  0
 17 25  1  0
 25 26  2  0
 26  8  1  0
 26 14  1  0
 24 18  1  0
  1 27  1  0
  4 28  1  0
  4 29  1  0
 11 30  1  0
 13 31  1  0
 15 32  1  0
 16 33  1  0
 19 34  1  0
 19 35  1  0
 20 36  1  0
 20 37  1  0
 21 38  1  0
 21 39  1  0
 22 40  1  1
 23 41  1  0
 23 42  1  0
 24 43  1  0
 24 44  1  0
 25 45  1  0
M  CHG  2   1  -1  11  -1
M  END
>  <UniqueID>  (89) 
88

>  <SMILES>  (89) 
[NH-]C(=O)COC(=O)n1c(C([NH-])=O)cc2ccc(N3CCC[C@H](N)C3)cc21

>  <Energy>  (89) 
85.8813247564875

>  <Genealogy>  (89) 
[NH-]C(=O)COC(=O)n1c(C([NH-])=O)cc2ccc(N3CCC[C@H](N)C3)cc21 (protonated)
[NH-]C(=O)COC(=O)n1c(C([NH-])=O)cc2ccc(N3CCC[C@H](N)C3)cc21 (3D coordinates assigned)
[NH-]C(=O)COC(=O)n1c(C([NH-])=O)cc2ccc(N3CCC[C@H](N)C3)cc21 (nonaromatic ring conformer: 85.8813247564875 kcal/mol)

>  <smiles>  (89) 
NC(=O)COC(=O)n1c(C(N)=O)cc2ccc(N3CCC[C@H](N)C3)cc21

>  <score_type>  (89) 
oracle

>  <origin>  (89) 
adg

>  <m_score__min__energy>  (89) 
-13.6

>  <m_primary>  (89) 
energy

$$$$
92:0
     RDKit          3D

 62 63  0  0  0  0  0  0  0  0999 V2000
   -0.7410   27.8060  -25.5580 C   0  0  0  0  0  0  0  0  0  0  0  0
   -0.9290   26.4190  -26.2010 C   0  0  0  0  0  0  0  0  0  0  0  0
    0.1150   25.4250  -25.6550 C   0  0  0  0  0  0  0  0  0  0  0  0
   -2.3310   25.9040  -25.8590 C   0  0  0  0  0  0  0  0  0  0  0  0
   -0.8460   26.5020  -27.6330 O   0  0  0  0  0  0  0  0  0  0  0  0
   -0.9250   25.4230  -28.5310 C   0  0  0  0  0  0  0  0  0  0  0  0
    0.0260   24.6080  -28.6530 O   0  0  0  0  0  0  0  0  0  0  0  0
   -2.1020   25.2700  -29.3330 N   0  0  0  0  0  0  0  0  0  0  0  0
   -3.2130   24.4070  -28.9430 C   0  0  0  0  0  0  0  0  0  0  0  0
   -2.7670   23.4520  -27.8320 C   0  0  0  0  0  0  0  0  0  0  0  0
   -1.8510   22.3410  -28.3710 C   0  0  0  0  0  0  0  0  0  0  0  0
   -1.5820   22.5400  -29.7970 N   0  0  0  0  0  0  0  0  0  0  0  0
   -1.8260   21.5420  -30.8090 C   0  0  0  0  0  0  0  0  0  0  0  0
   -0.7900   20.6380  -31.1430 C   0  0  0  0  0  0  0  0  0  0  0  0
   -1.0100   19.6080  -32.0720 C   0  0  0  0  0  0  0  0  0  0  0  0
   -2.2720   19.5090  -32.6580 C   0  0  0  0  0  0  0  0  0  0  0  0
   -2.7500   18.5840  -33.5520 C   0  0  0  0  0  0  0  0  0  0  0  0
   -4.0650   18.9560  -33.7910 C   0  0  0  0  0  0  0  0  0  0  0  0
   -4.9650   18.1900  -34.6660 C   0  0  0  0  0  0  0  0  0  0  0  0
   -6.1110   18.8040  -35.2550 N   0  0  0  0  0  0  0  0  0  0  0  0
   -4.7050   16.9870  -34.9180 O   0  0  0  0  0  0  0  0  0  0  0  0
   -4.4080   20.0620  -33.0660 N   0  0  0  0  0  0  0  0  0  0  0  0
   -5.7110   20.6770  -32.9840 C   0  0  0  0  0  0  0  0  0  0  0  0
   -5.8190   21.9090  -32.7510 O   0  0  0  0  0  0  0  0  0  0  0  0
   -6.8640   19.8950  -33.1470 O   0  0  0  0  0  0  0  0  0  0  0  0
   -7.7990   19.5250  -32.1200 C   0  0  0  0  0  0  0  0  0  0  0  0
   -7.3110   18.2750  -31.3610 C   0  0  0  0  0  0  0  0  0  0  0  0
   -9.1950   19.2740  -32.7220 C   0  0  0  0  0  0  0  0  0  0  0  0
   -7.8860   20.7020  -31.1350 C   0  0  0  0  0  0  0  0  0  0  0  0
   -3.2860   20.3910  -32.3760 C   0  0  0  0  0  0  0  0  0  0  0  0
   -3.0830   21.4360  -31.4600 C   0  0  0  0  0  0  0  0  0  0  0  0
   -0.7544   27.7072  -24.4625 H   0  0  0  0  0  0  0  0  0  0  0  0
    0.2228   28.2300  -25.8761 H   0  0  0  0  0  0  0  0  0  0  0  0
   -1.5572   28.4713  -25.8761 H   0  0  0  0  0  0  0  0  0  0  0  0
    0.0973   25.4419  -24.5553 H   0  0  0  0  0  0  0  0  0  0  0  0
   -0.1230   24.4114  -26.0100 H   0  0  0  0  0  0  0  0  0  0  0  0
    1.1157   25.7124  -26.0100 H   0  0  0  0  0  0  0  0  0  0  0  0
   -2.4492   25.8606  -24.7662 H   0  0  0  0  0  0  0  0  0  0  0  0
   -3.0848   26.5839  -26.2826 H   0  0  0  0  0  0  0  0  0  0  0  0
   -2.4655   24.8978  -26.2826 H   0  0  0  0  0  0  0  0  0  0  0  0
   -4.0456   25.0267  -28.5786 H   0  0  0  0  0  0  0  0  0  0  0  0
   -3.5391   23.8208  -29.8148 H   0  0  0  0  0  0  0  0  0  0  0  0
   -2.2212   24.0245  -27.0676 H   0  0  0  0  0  0  0  0  0  0  0  0
   -3.6641   22.9798  -27.4050 H   0  0  0  0  0  0  0  0  0  0  0  0
   -0.9001   22.3568  -27.8183 H   0  0  0  0  0  0  0  0  0  0  0  0
   -2.3534   21.3716  -28.2372 H   0  0  0  0  0  0  0  0  0  0  0  0
   -1.1250   23.4400  -30.0790 H   0  0  0  0  0  0  0  0  0  0  0  0
    0.1977   20.7430  -30.6703 H   0  0  0  0  0  0  0  0  0  0  0  0
   -0.2095   18.8991  -32.3303 H   0  0  0  0  0  0  0  0  0  0  0  0
   -2.2073   17.7312  -33.9857 H   0  0  0  0  0  0  0  0  0  0  0  0
   -6.3120   19.8170  -35.1010 H   0  0  0  0  0  0  0  0  0  0  0  0
   -6.7670   18.2420  -35.8380 H   0  0  0  0  0  0  0  0  0  0  0  0
   -7.3806   18.4533  -30.2778 H   0  0  0  0  0  0  0  0  0  0  0  0
   -7.9387   17.4133  -31.6318 H   0  0  0  0  0  0  0  0  0  0  0  0
   -6.2654   18.0665  -31.6318 H   0  0  0  0  0  0  0  0  0  0  0  0
   -9.9260   19.1426  -31.9106 H   0  0  0  0  0  0  0  0  0  0  0  0
   -9.4867   20.1341  -33.3426 H   0  0  0  0  0  0  0  0  0  0  0  0
   -9.1689   18.3662  -33.3426 H   0  0  0  0  0  0  0  0  0  0  0  0
   -7.8578   20.3200  -30.1038 H   0  0  0  0  0  0  0  0  0  0  0  0
   -7.0355   21.3803  -31.2982 H   0  0  0  0  0  0  0  0  0  0  0  0
   -8.8269   21.2479  -31.2982 H   0  0  0  0  0  0  0  0  0  0  0  0
   -3.8843   22.1599  -31.2506 H   0  0  0  0  0  0  0  0  0  0  0  0
  1  2  1  0
  2  3  1  0
  2  4  1  0
  2  5  1  0
  5  6  1  0
  6  7  2  0
  6  8  1  0
  8  9  1  0
  9 10  1  0
 10 11  1  0
 11 12  1  0
 12 13  1  0
 13 14  2  0
 14 15  1  0
 15 16  2  0
 16 17  1  0
 17 18  2  0
 18 19  1  0
 19 20  1  0
 19 21  2  0
 18 22  1  0
 22 23  1  0
 23 24  2  0
 23 25  1  0
 25 26  1  0
 26 27  1  0
 26 28  1  0
 26 29  1  0
 22 30  1  0
 30 31  2  0
 31 13  1  0
 30 16  1  0
  1 32  1  0
  1 33  1  0
  1 34  1  0
  3 35  1  0
  3 36  1  0
  3 37  1  0
  4 38  1  0
  4 39  1  0
  4 40  1  0
  9 41  1  0
  9 42  1  0
 10 43  1  0
 10 44  1  0
 11 45  1  0
 11 46  1  0
 12 47  1  0
 14 48  1  0
 15 49  1  0
 17 50  1  0
 20 51  1  0
 20 52  1  0
 27 53  1  0
 27 54  1  0
 27 55  1  0
 28 56  1  0
 28 57  1  0
 28 58  1  0
 29 59  1  0
 29 60  1  0
 29 61  1  0
 31 62  1  0
M  CHG  1   8  -1
M  END
>  <UniqueID>  (90) 
89

>  <SMILES>  (90) 
CC(C)(C)OC(=O)[N-]CCCNc1ccc2cc(C(N)=O)n(C(=O)OC(C)(C)C)c2c1

>  <Energy>  (90) 
85.44033361433534

>  <Genealogy>  (90) 
CC(C)(C)OC(=O)[N-]CCCNc1ccc2cc(C(N)=O)n(C(=O)OC(C)(C)C)c2c1 (protonated)
CC(C)(C)OC(=O)[N-]CCCNc1ccc2cc(C(N)=O)n(C(=O)OC(C)(C)C)c2c1 (3D coordinates assigned)
CC(C)(C)OC(=O)[N-]CCCNc1ccc2cc(C(N)=O)n(C(=O)OC(C)(C)C)c2c1 (optimized conformer: 85.44033361433534 kcal/mol)

>  <smiles>  (90) 
CC(C)(C)OC(=O)NCCCNc1ccc2cc(C(N)=O)n(C(=O)OC(C)(C)C)c2c1

>  <score_type>  (90) 
oracle

>  <origin>  (90) 
adg

>  <m_score__min__energy>  (90) 
-10.51

>  <m_primary>  (90) 
energy

$$$$
93:0
     RDKit          3D

 50 51  0  0  0  0  0  0  0  0999 V2000
   -5.4950   16.6330  -33.8410 C   0  0  0  0  0  0  0  0  0  0  0  0
   -4.7800   17.8000  -34.3870 N   0  0  0  0  0  0  0  0  0  0  0  0
   -5.7460   18.8800  -34.6490 C   0  0  0  0  0  0  0  0  0  0  0  0
   -3.7160   18.2440  -33.4550 C   0  0  0  0  0  0  0  0  0  0  0  0
   -2.4460   18.6450  -34.2200 C   0  0  0  0  0  0  0  0  0  0  0  0
   -1.2470   18.9100  -33.2980 C   0  0  0  0  0  0  0  0  0  0  0  0
   -1.0160   20.3540  -33.1640 N   0  0  0  0  0  0  0  0  0  0  0  0
   -0.3780   21.0870  -34.2620 C   0  0  0  0  0  0  0  0  0  0  0  0
   -1.4710   21.0780  -32.0050 C   0  0  0  0  0  0  0  0  0  0  0  0
   -0.6680   21.8320  -31.3870 O   0  0  0  0  0  0  0  0  0  0  0  0
   -2.7880   20.9200  -31.5490 O   0  0  0  0  0  0  0  0  0  0  0  0
   -3.9260   21.3970  -32.2150 C   0  0  0  0  0  0  0  0  0  0  0  0
   -4.0240   21.3070  -33.4690 O   0  0  0  0  0  0  0  0  0  0  0  0
   -4.9920   22.0010  -31.4650 N   0  0  0  0  0  0  0  0  0  0  0  0
   -4.9600   23.1870  -30.7950 C   0  0  0  0  0  0  0  0  0  0  0  0
   -3.7610   24.0160  -30.5570 C   0  0  0  0  0  0  0  0  0  0  0  0
   -2.4850   23.4190  -30.3160 N   0  0  0  0  0  0  0  0  0  0  0  0
   -3.8730   25.2690  -30.5130 O   0  0  0  0  0  0  0  0  0  0  0  0
   -6.2230   23.5130  -30.3080 C   0  0  0  0  0  0  0  0  0  0  0  0
   -7.0370   22.4730  -30.6930 C   0  0  0  0  0  0  0  0  0  0  0  0
   -8.3990   22.2840  -30.4840 C   0  0  0  0  0  0  0  0  0  0  0  0
   -8.9940   21.1340  -31.0280 C   0  0  0  0  0  0  0  0  0  0  0  0
   -8.2300   20.2110  -31.7870 C   0  0  0  0  0  0  0  0  0  0  0  0
   -8.8900   18.9700  -32.3290 C   0  0  0  0  0  0  0  0  0  0  0  0
   -9.4470   18.2160  -31.3110 F   0  0  0  0  0  0  0  0  0  0  0  0
   -9.8830   19.3400  -33.2150 F   0  0  0  0  0  0  0  0  0  0  0  0
   -7.9620   18.1860  -32.9920 F   0  0  0  0  0  0  0  0  0  0  0  0
   -6.8420   20.4270  -31.9580 C   0  0  0  0  0  0  0  0  0  0  0  0
   -6.2720   21.5730  -31.3910 C   0  0  0  0  0  0  0  0  0  0  0  0
   -5.4722   16.6703  -32.7419 H   0  0  0  0  0  0  0  0  0  0  0  0
   -6.5391   16.6480  -34.1868 H   0  0  0  0  0  0  0  0  0  0  0  0
   -5.0075   15.7096  -34.1868 H   0  0  0  0  0  0  0  0  0  0  0  0
   -6.1096   19.2865  -33.6937 H   0  0  0  0  0  0  0  0  0  0  0  0
   -5.2556   19.6789  -35.2245 H   0  0  0  0  0  0  0  0  0  0  0  0
   -6.5945   18.4814  -35.2245 H   0  0  0  0  0  0  0  0  0  0  0  0
   -4.0787   19.1096  -32.8812 H   0  0  0  0  0  0  0  0  0  0  0  0
   -3.4704   17.4102  -32.7809 H   0  0  0  0  0  0  0  0  0  0  0  0
   -2.1826   17.8317  -34.9122 H   0  0  0  0  0  0  0  0  0  0  0  0
   -2.6651   19.5828  -34.7516 H   0  0  0  0  0  0  0  0  0  0  0  0
   -1.4508   18.4816  -32.3056 H   0  0  0  0  0  0  0  0  0  0  0  0
   -0.3511   18.4434  -33.7334 H   0  0  0  0  0  0  0  0  0  0  0  0
    0.2914   21.8561  -33.8492 H   0  0  0  0  0  0  0  0  0  0  0  0
    0.2041   20.3877  -34.8802 H   0  0  0  0  0  0  0  0  0  0  0  0
   -1.1509   21.5671  -34.8802 H   0  0  0  0  0  0  0  0  0  0  0  0
   -2.3890   22.3890  -30.1740 H   0  0  0  0  0  0  0  0  0  0  0  0
   -1.6410   24.0210  -30.1910 H   0  0  0  0  0  0  0  0  0  0  0  0
   -6.5085   24.4094  -29.7380 H   0  0  0  0  0  0  0  0  0  0  0  0
   -8.9915   23.0122  -29.9107 H   0  0  0  0  0  0  0  0  0  0  0  0
  -10.0654   20.9469  -30.8635 H   0  0  0  0  0  0  0  0  0  0  0  0
   -6.2259   19.7118  -32.5227 H   0  0  0  0  0  0  0  0  0  0  0  0
  1  2  1  0
  2  3  1  0
  2  4  1  0
  4  5  1  0
  5  6  1  0
  6  7  1  0
  7  8  1  0
  7  9  1  0
  9 10  2  0
  9 11  1  0
 11 12  1  0
 12 13  2  0
 12 14  1  0
 14 15  1  0
 15 16  1  0
 16 17  1  0
 16 18  2  0
 15 19  2  0
 19 20  1  0
 20 21  2  0
 21 22  1  0
 22 23  2  0
 23 24  1  0
 24 25  1  0
 24 26  1  0
 24 27  1  0
 23 28  1  0
 28 29  2  0
 29 14  1  0
 29 20  1  0
  1 30  1  0
  1 31  1  0
  1 32  1  0
  3 33  1  0
  3 34  1  0
  3 35  1  0
  4 36  1  0
  4 37  1  0
  5 38  1  0
  5 39  1  0
  6 40  1  0
  6 41  1  0
  8 42  1  0
  8 43  1  0
  8 44  1  0
 17 45  1  0
 17 46  1  0
 19 47  1  0
 21 48  1  0
 22 49  1  0
 28 50  1  0
M  END
>  <UniqueID>  (91) 
90

>  <SMILES>  (91) 
CN(C)CCCN(C)C(=O)OC(=O)n1c(C(N)=O)cc2ccc(C(F)(F)F)cc21

>  <Energy>  (91) 
85.28280959303378

>  <Genealogy>  (91) 
CN(C)CCCN(C)C(=O)OC(=O)n1c(C(N)=O)cc2ccc(C(F)(F)F)cc21 (3D coordinates assigned)
CN(C)CCCN(C)C(=O)OC(=O)n1c(C(N)=O)cc2ccc(C(F)(F)F)cc21 (optimized conformer: 85.28280959303378 kcal/mol)

>  <smiles>  (91) 
CN(C)CCCN(C)C(=O)OC(=O)n1c(C(N)=O)cc2ccc(C(F)(F)F)cc21

>  <score_type>  (91) 
oracle

>  <origin>  (91) 
adg

>  <m_score__min__energy>  (91) 
-8.4900000000000002

>  <m_primary>  (91) 
energy

$$$$
94:0
     RDKit          3D

 39 40  0  0  0  0  0  0  0  0999 V2000
   -4.0650   26.3960  -31.2180 H   0  0  0  0  0  0  0  0  0  0  0  0
   -3.9720   25.4290  -30.8340 N   0  0  0  0  0  0  0  0  0  0  0  0
   -5.0530   24.8060  -30.1450 C   0  0  0  0  0  0  0  0  0  0  0  0
   -5.4580   25.3020  -29.0600 O   0  0  0  0  0  0  0  0  0  0  0  0
   -5.7360   23.6220  -30.7060 C   0  0  0  0  0  0  0  0  0  0  0  0
   -7.0810   23.6120  -31.0780 C   0  0  0  0  0  0  0  0  0  0  0  0
   -7.8100   24.4280  -30.9653 H   0  0  0  0  0  0  0  0  0  0  0  0
   -7.3020   22.3640  -31.6160 C   0  0  0  0  0  0  0  0  0  0  0  0
   -8.4710   21.8000  -32.1200 C   0  0  0  0  0  0  0  0  0  0  0  0
   -9.4057   22.3782  -32.1654 H   0  0  0  0  0  0  0  0  0  0  0  0
   -8.4200   20.4690  -32.5690 C   0  0  0  0  0  0  0  0  0  0  0  0
   -9.3278   19.9948  -32.9703 H   0  0  0  0  0  0  0  0  0  0  0  0
   -7.2100   19.7310  -32.5100 C   0  0  0  0  0  0  0  0  0  0  0  0
   -7.1790   18.3510  -32.9300 N   0  0  0  0  0  0  0  0  0  0  0  0
   -7.6960   17.7600  -32.2390 H   0  0  0  0  0  0  0  0  0  0  0  0
   -7.6600   18.2610  -33.8550 H   0  0  0  0  0  0  0  0  0  0  0  0
   -5.7860   17.8930  -33.0370 C   0  0  0  0  0  0  0  0  0  0  0  0
   -5.1834   18.4000  -32.2690 H   0  0  0  0  0  0  0  0  0  0  0  0
   -5.7699   16.8027  -32.8920 H   0  0  0  0  0  0  0  0  0  0  0  0
   -5.1960   18.2020  -34.4160 C   0  0  0  0  0  0  0  0  0  0  0  0
   -4.8920   17.0180  -35.0610 F   0  0  0  0  0  0  0  0  0  0  0  0
   -6.1110   18.9050  -35.1790 F   0  0  0  0  0  0  0  0  0  0  0  0
   -4.0380   18.9490  -34.2850 F   0  0  0  0  0  0  0  0  0  0  0  0
   -6.0460   20.3370  -31.9830 C   0  0  0  0  0  0  0  0  0  0  0  0
   -5.1024   19.7764  -31.9106 H   0  0  0  0  0  0  0  0  0  0  0  0
   -6.1240   21.6670  -31.5560 C   0  0  0  0  0  0  0  0  0  0  0  0
   -5.1530   22.4250  -31.0020 N   0  0  0  0  0  0  0  0  0  0  0  0
   -3.8150   21.9970  -30.7100 C   0  0  0  0  0  0  0  0  0  0  0  0
   -3.5670   20.7660  -30.5990 O   0  0  0  0  0  0  0  0  0  0  0  0
   -2.7570   23.0050  -30.4850 C   0  0  0  0  0  0  0  0  0  0  0  0
   -2.3314   23.4966  -31.3723 H   0  0  0  0  0  0  0  0  0  0  0  0
   -2.2700   23.3720  -29.2800 C   0  0  0  0  0  0  0  0  0  0  0  0
   -1.2610   24.4600  -29.1930 C   0  0  0  0  0  0  0  0  0  0  0  0
   -1.5990   25.6660  -29.3310 O   0  0  0  0  0  0  0  0  0  0  0  0
    0.0730   24.1650  -28.9460 O   0  0  0  0  0  0  0  0  0  0  0  0
   -2.7370   22.7170  -28.0030 C   0  0  0  0  0  0  0  0  0  0  0  0
   -2.3410   23.2724  -27.1400 H   0  0  0  0  0  0  0  0  0  0  0  0
   -3.8365   22.7220  -27.9691 H   0  0  0  0  0  0  0  0  0  0  0  0
   -2.3739   21.6792  -27.9691 H   0  0  0  0  0  0  0  0  0  0  0  0
  1  2  1  0
  2  3  1  0
  3  4  2  0
  3  5  1  0
  5  6  2  0
  6  7  1  0
  6  8  1  0
  8  9  2  0
  9 10  1  0
  9 11  1  0
 11 12  1  0
 11 13  2  0
 13 14  1  0
 14 15  1  0
 14 16  1  0
 14 17  1  0
 17 18  1  0
 17 19  1  0
 17 20  1  0
 20 21  1  0
 20 22  1  0
 20 23  1  0
 13 24  1  0
 24 25  1  0
 24 26  2  0
 26 27  1  0
 27 28  1  0
 28 29  2  0
 28 30  1  0
 30 31  1  0
 30 32  2  0
 32 33  1  0
 33 34  2  0
 33 35  1  0
 32 36  1  0
 36 37  1  0
 36 38  1  0
 36 39  1  0
 27  5  1  0
 26  8  1  0
M  CHG  3   2  -1  14   1  35  -1
M  END
>  <UniqueID>  (92) 
91

>  <SMILES>  (92) 
C/C(=C\C(=O)n1c(C([NH-])=O)cc2ccc([NH2+]CC(F)(F)F)cc21)C(=O)[O-]

>  <Energy>  (92) 
80.69978707032585

>  <Genealogy>  (92) 
CC(=CC(=O)n1c(C([NH-])=O)cc2ccc([NH2+]CC(F)(F)F)cc21)C(=O)[O-] (protonated)
C/C(=C\C(=O)n1c(C([NH-])=O)cc2ccc([NH2+]CC(F)(F)F)cc21)C(=O)[O-] (cis-trans isomerization)
C/C(=C\C(=O)n1c(C([NH-])=O)cc2ccc([NH2+]CC(F)(F)F)cc21)C(=O)[O-] (3D coordinates assigned)
C/C(=C\C(=O)n1c(C([NH-])=O)cc2ccc([NH2+]CC(F)(F)F)cc21)C(=O)[O-] (optimized conformer: 80.69978707032585 kcal/mol)

>  <smiles>  (92) 
CC(=CC(=O)n1c(C(N)=O)cc2ccc(NCC(F)(F)F)cc21)C(=O)O

>  <score_type>  (92) 
oracle

>  <origin>  (92) 
adg

>  <m_score__min__energy>  (92) 
-11.699999999999999

>  <m_primary>  (92) 
energy

$$$$
95:0
     RDKit          3D

 39 40  0  0  0  0  0  0  0  0999 V2000
   -5.7360   18.5660  -34.6890 C   0  0  0  0  0  0  0  0  0  0  0  0
   -6.4310   17.6570  -33.6680 C   0  0  1  0  0  0  0  0  0  0  0  0
   -5.8600   16.2280  -33.6770 C   0  0  0  0  0  0  0  0  0  0  0  0
   -5.2780   15.9090  -32.4430 O   0  0  0  0  0  0  0  0  0  0  0  0
   -6.4200   18.2370  -32.3160 N   0  0  0  0  0  0  0  0  0  0  0  0
   -6.7000   19.6150  -32.0310 C   0  0  0  0  0  0  0  0  0  0  0  0
   -8.0190   20.1010  -32.1980 C   0  0  0  0  0  0  0  0  0  0  0  0
   -8.3240   21.4490  -31.9430 C   0  0  0  0  0  0  0  0  0  0  0  0
   -7.2900   22.2840  -31.5290 C   0  0  0  0  0  0  0  0  0  0  0  0
   -7.2990   23.6280  -31.2390 C   0  0  0  0  0  0  0  0  0  0  0  0
   -5.9840   23.9420  -30.8960 C   0  0  0  0  0  0  0  0  0  0  0  0
   -5.5630   25.2780  -30.4250 C   0  0  0  0  0  0  0  0  0  0  0  0
   -4.2230   25.7160  -30.6400 N   0  0  0  0  0  0  0  0  0  0  0  0
   -6.3830   26.0530  -29.8660 O   0  0  0  0  0  0  0  0  0  0  0  0
   -5.1910   22.8350  -30.9820 N   0  0  0  0  0  0  0  0  0  0  0  0
   -3.7760   22.7390  -30.7550 C   0  0  0  0  0  0  0  0  0  0  0  0
   -3.0780   21.9520  -31.4500 O   0  0  0  0  0  0  0  0  0  0  0  0
   -3.1840   23.5020  -29.7410 O   0  0  0  0  0  0  0  0  0  0  0  0
   -1.9200   23.1900  -29.1620 C   0  0  0  0  0  0  0  0  0  0  0  0
   -1.0500   24.4070  -29.1300 C   0  0  0  0  0  0  0  0  0  0  0  0
    0.1900   24.2960  -28.9440 O   0  0  0  0  0  0  0  0  0  0  0  0
   -1.6090   25.6640  -29.3280 O   0  0  0  0  0  0  0  0  0  0  0  0
   -6.0070   21.8280  -31.3660 C   0  0  0  0  0  0  0  0  0  0  0  0
   -5.6730   20.4960  -31.6360 C   0  0  0  0  0  0  0  0  0  0  0  0
   -5.1504   19.3319  -34.1593 H   0  0  0  0  0  0  0  0  0  0  0  0
   -5.0660   17.9636  -35.3200 H   0  0  0  0  0  0  0  0  0  0  0  0
   -6.4930   19.0546  -35.3200 H   0  0  0  0  0  0  0  0  0  0  0  0
   -7.4830   17.5831  -33.9809 H   0  0  0  0  0  0  0  0  0  0  0  0
   -6.6736   15.5174  -33.8848 H   0  0  0  0  0  0  0  0  0  0  0  0
   -5.0847   16.1667  -34.4549 H   0  0  0  0  0  0  0  0  0  0  0  0
   -4.4160   16.3980  -32.4100 H   0  0  0  0  0  0  0  0  0  0  0  0
   -5.9330   17.6900  -31.5700 H   0  0  0  0  0  0  0  0  0  0  0  0
   -8.8133   19.4166  -32.5307 H   0  0  0  0  0  0  0  0  0  0  0  0
   -9.3476   21.8322  -32.0667 H   0  0  0  0  0  0  0  0  0  0  0  0
   -8.1607   24.3109  -31.2708 H   0  0  0  0  0  0  0  0  0  0  0  0
   -3.5160   25.6760  -29.8730 H   0  0  0  0  0  0  0  0  0  0  0  0
   -2.0711   22.8246  -28.1355 H   0  0  0  0  0  0  0  0  0  0  0  0
   -1.4295   22.4148  -29.7690 H   0  0  0  0  0  0  0  0  0  0  0  0
   -4.6346   20.1452  -31.5423 H   0  0  0  0  0  0  0  0  0  0  0  0
  1  2  1  0
  2  3  1  0
  3  4  1  0
  2  5  1  0
  5  6  1  0
  6  7  2  0
  7  8  1  0
  8  9  2  0
  9 10  1  0
 10 11  2  0
 11 12  1  0
 12 13  1  0
 12 14  2  0
 11 15  1  0
 15 16  1  0
 16 17  2  0
 16 18  1  0
 18 19  1  0
 19 20  1  0
 20 21  2  0
 20 22  1  0
 15 23  1  0
 23 24  2  0
 24  6  1  0
 23  9  1  0
  1 25  1  0
  1 26  1  0
  1 27  1  0
  2 28  1  6
  3 29  1  0
  3 30  1  0
  4 31  1  0
  5 32  1  0
  7 33  1  0
  8 34  1  0
 10 35  1  0
 13 36  1  0
 19 37  1  0
 19 38  1  0
 24 39  1  0
M  CHG  2  13  -1  22  -1
M  END
>  <UniqueID>  (93) 
92

>  <SMILES>  (93) 
C[C@@H](CO)Nc1ccc2cc(C([NH-])=O)n(C(=O)OCC(=O)[O-])c2c1

>  <Energy>  (93) 
77.1258978745354

>  <Genealogy>  (93) 
CC(CO)Nc1ccc2cc(C([NH-])=O)n(C(=O)OCC(=O)[O-])c2c1 (protonated)
C[C@@H](CO)Nc1ccc2cc(C([NH-])=O)n(C(=O)OCC(=O)[O-])c2c1 (chirality)
C[C@@H](CO)Nc1ccc2cc(C([NH-])=O)n(C(=O)OCC(=O)[O-])c2c1 (3D coordinates assigned)
C[C@@H](CO)Nc1ccc2cc(C([NH-])=O)n(C(=O)OCC(=O)[O-])c2c1 (optimized conformer: 77.1258978745354 kcal/mol)

>  <smiles>  (93) 
CC(CO)Nc1ccc2cc(C(N)=O)n(C(=O)OCC(=O)O)c2c1

>  <score_type>  (93) 
oracle

>  <origin>  (93) 
adg

>  <m_score__min__energy>  (93) 
-12.18

>  <m_primary>  (93) 
energy

$$$$
