0:0
     RDKit          3D

 46 47  0  0  0  0  0  0  0  0999 V2000
   -1.9770   22.4800  -30.3990 C   0  0  0  0  0  0  0  0  0  0  0  0
   -2.9660   21.8970  -31.2720 N   0  0  0  0  0  0  0  0  0  0  0  0
   -2.4430   21.6550  -32.6540 C   0  0  0  0  0  0  0  0  0  0  0  0
   -2.7770   20.2820  -33.0610 C   0  0  0  0  0  0  0  0  0  0  0  0
   -3.4040   20.0700  -34.1290 O   0  0  0  0  0  0  0  0  0  0  0  0
   -2.3970   19.2370  -32.2640 O   0  0  0  0  0  0  0  0  0  0  0  0
   -4.2790   21.5340  -31.0430 C   0  0  0  0  0  0  0  0  0  0  0  0
   -4.4290   20.2440  -30.8420 O   0  0  0  0  0  0  0  0  0  0  0  0
   -5.4900   22.2440  -30.9900 N   0  0  0  0  0  0  0  0  0  0  0  0
   -5.7860   23.5320  -30.8120 C   0  0  0  0  0  0  0  0  0  0  0  0
   -4.9800   24.6130  -30.2310 C   0  0  0  0  0  0  0  0  0  0  0  0
   -5.1120   24.8960  -28.8280 N   0  0  0  0  0  0  0  0  0  0  0  0
   -4.1780   25.3210  -30.8570 O   0  0  0  0  0  0  0  0  0  0  0  0
   -7.1400   23.7860  -31.0760 C   0  0  0  0  0  0  0  0  0  0  0  0
   -7.6850   22.5870  -31.4240 C   0  0  0  0  0  0  0  0  0  0  0  0
   -8.9880   22.2950  -31.7760 C   0  0  0  0  0  0  0  0  0  0  0  0
   -9.3360   21.0030  -32.0980 C   0  0  0  0  0  0  0  0  0  0  0  0
   -8.3590   20.0500  -32.0530 C   0  0  0  0  0  0  0  0  0  0  0  0
   -8.7170   18.6290  -32.4010 C   0  0  0  0  0  0  0  0  0  0  0  0
   -7.5320   17.7430  -32.2300 C   0  0  0  0  0  0  0  0  0  0  0  0
   -6.8660   17.3130  -33.5100 C   0  0  0  0  0  0  0  0  0  0  0  0
   -5.5380   17.9350  -33.7700 C   0  0  0  0  0  0  0  0  0  0  0  0
   -4.9170   18.1090  -32.5110 O   0  0  0  0  0  0  0  0  0  0  0  0
   -7.0400   20.3560  -31.6940 C   0  0  0  0  0  0  0  0  0  0  0  0
   -6.6760   21.6650  -31.3650 C   0  0  0  0  0  0  0  0  0  0  0  0
   -2.2664   22.3094  -29.3515 H   0  0  0  0  0  0  0  0  0  0  0  0
   -0.9991   22.0139  -30.5898 H   0  0  0  0  0  0  0  0  0  0  0  0
   -1.9113   23.5613  -30.5898 H   0  0  0  0  0  0  0  0  0  0  0  0
   -2.9040   22.3688  -33.3526 H   0  0  0  0  0  0  0  0  0  0  0  0
   -1.3514   21.7901  -32.6662 H   0  0  0  0  0  0  0  0  0  0  0  0
   -3.0730   18.7810  -31.6810 H   0  0  0  0  0  0  0  0  0  0  0  0
   -4.2390   24.9900  -28.3060 H   0  0  0  0  0  0  0  0  0  0  0  0
   -6.0580   24.9970  -28.3810 H   0  0  0  0  0  0  0  0  0  0  0  0
   -7.6563   24.7554  -31.0146 H   0  0  0  0  0  0  0  0  0  0  0  0
   -9.7453   23.0925  -31.7989 H   0  0  0  0  0  0  0  0  0  0  0  0
  -10.3672   20.7465  -32.3823 H   0  0  0  0  0  0  0  0  0  0  0  0
   -9.5258   18.2857  -31.7392 H   0  0  0  0  0  0  0  0  0  0  0  0
   -9.0468   18.5886  -33.4496 H   0  0  0  0  0  0  0  0  0  0  0  0
   -6.7888   18.2812  -31.6233 H   0  0  0  0  0  0  0  0  0  0  0  0
   -7.9032   16.8235  -31.7539 H   0  0  0  0  0  0  0  0  0  0  0  0
   -6.7303   16.2220  -33.4739 H   0  0  0  0  0  0  0  0  0  0  0  0
   -7.5253   17.6452  -34.3255 H   0  0  0  0  0  0  0  0  0  0  0  0
   -4.9285   17.2757  -34.4054 H   0  0  0  0  0  0  0  0  0  0  0  0
   -5.6471   18.8962  -34.2936 H   0  0  0  0  0  0  0  0  0  0  0  0
   -4.5180   19.0330  -32.5850 H   0  0  0  0  0  0  0  0  0  0  0  0
   -6.2830   19.5582  -31.6707 H   0  0  0  0  0  0  0  0  0  0  0  0
  1  2  1  0
  2  3  1  0
  3  4  1  0
  4  5  2  0
  4  6  1  0
  2  7  1  0
  7  8  2  0
  7  9  1  0
  9 10  1  0
 10 11  1  0
 11 12  1  0
 11 13  2  0
 10 14  2  0
 14 15  1  0
 15 16  2  0
 16 17  1  0
 17 18  2  0
 18 19  1  0
 19 20  1  0
 20 21  1  0
 21 22  1  0
 22 23  1  0
 18 24  1  0
 24 25  2  0
 25  9  1  0
 25 15  1  0
  1 26  1  0
  1 27  1  0
  1 28  1  0
  3 29  1  0
  3 30  1  0
  6 31  1  0
 12 32  1  0
 12 33  1  0
 14 34  1  0
 16 35  1  0
 17 36  1  0
 19 37  1  0
 19 38  1  0
 20 39  1  0
 20 40  1  0
 21 41  1  0
 21 42  1  0
 22 43  1  0
 22 44  1  0
 23 45  1  0
 24 46  1  0
M  END
>  <smiles>  (1) 
CN(CC(=O)O)C(=O)n1c(C(N)=O)cc2ccc(CCCCO)cc21

>  <score_type>  (1) 
oracle

>  <origin>  (1) 
adg

>  <m_score__min__energy>  (1) 
-9.0899999999999999

>  <m_primary>  (1) 
energy

$$$$
1:0
     RDKit          3D

 49 50  0  0  0  0  0  0  0  0999 V2000
   -0.4860   22.8790  -29.3480 C   0  0  0  0  0  0  0  0  0  0  0  0
   -1.3160   21.8110  -29.8850 N   0  0  0  0  0  0  0  0  0  0  0  0
   -1.2860   21.6260  -31.3220 C   0  0  0  0  0  0  0  0  0  0  0  0
   -2.6480   21.1840  -31.7820 C   0  0  0  0  0  0  0  0  0  0  0  0
   -3.3760   22.2720  -32.2440 O   0  0  0  0  0  0  0  0  0  0  0  0
   -4.2960   23.0390  -31.5730 C   0  0  0  0  0  0  0  0  0  0  0  0
   -3.8700   24.1350  -31.1010 O   0  0  0  0  0  0  0  0  0  0  0  0
   -5.6600   22.7010  -31.3760 N   0  0  0  0  0  0  0  0  0  0  0  0
   -6.5770   23.3640  -30.6520 C   0  0  0  0  0  0  0  0  0  0  0  0
   -6.4650   24.5820  -29.8750 C   0  0  0  0  0  0  0  0  0  0  0  0
   -5.3560   24.7370  -28.9600 N   0  0  0  0  0  0  0  0  0  0  0  0
   -7.2510   25.5530  -29.9080 O   0  0  0  0  0  0  0  0  0  0  0  0
   -7.7650   22.6560  -30.7560 C   0  0  0  0  0  0  0  0  0  0  0  0
   -7.5750   21.5500  -31.5510 C   0  0  0  0  0  0  0  0  0  0  0  0
   -8.4420   20.5510  -31.9480 C   0  0  0  0  0  0  0  0  0  0  0  0
   -7.9760   19.5420  -32.7640 C   0  0  0  0  0  0  0  0  0  0  0  0
   -6.6570   19.5490  -33.1660 C   0  0  0  0  0  0  0  0  0  0  0  0
   -6.1300   18.4660  -34.0500 C   0  0  0  0  0  0  0  0  0  0  0  0
   -6.0750   18.8760  -35.3680 F   0  0  0  0  0  0  0  0  0  0  0  0
   -6.8640   17.3110  -33.9900 F   0  0  0  0  0  0  0  0  0  0  0  0
   -4.8380   18.1560  -33.6700 F   0  0  0  0  0  0  0  0  0  0  0  0
   -5.8070   20.5780  -32.7450 C   0  0  0  0  0  0  0  0  0  0  0  0
   -6.2500   21.5980  -31.9280 C   0  0  0  0  0  0  0  0  0  0  0  0
   -2.0750   21.0560  -28.9840 C   0  0  0  0  0  0  0  0  0  0  0  0
   -1.7710   19.8740  -28.7660 O   0  0  0  0  0  0  0  0  0  0  0  0
   -3.2720   21.5950  -28.2420 C   0  0  0  0  0  0  0  0  0  0  0  0
   -3.4150   22.9410  -28.4260 O   0  0  0  0  0  0  0  0  0  0  0  0
   -2.8720   23.7620  -27.4710 C   0  0  0  0  0  0  0  0  0  0  0  0
   -2.3240   25.0350  -27.9730 C   0  0  0  0  0  0  0  0  0  0  0  0
   -1.7390   25.9050  -27.2980 O   0  0  0  0  0  0  0  0  0  0  0  0
   -2.4720   25.2950  -29.3390 O   0  0  0  0  0  0  0  0  0  0  0  0
   -0.5117   22.8459  -28.2488 H   0  0  0  0  0  0  0  0  0  0  0  0
    0.5497   22.7480  -29.6947 H   0  0  0  0  0  0  0  0  0  0  0  0
   -0.8686   23.8503  -29.6947 H   0  0  0  0  0  0  0  0  0  0  0  0
   -1.0202   22.5746  -31.8115 H   0  0  0  0  0  0  0  0  0  0  0  0
   -0.5371   20.8646  -31.5854 H   0  0  0  0  0  0  0  0  0  0  0  0
   -2.5366   20.4505  -32.5941 H   0  0  0  0  0  0  0  0  0  0  0  0
   -3.1822   20.7292  -30.9348 H   0  0  0  0  0  0  0  0  0  0  0  0
   -4.6400   25.5030  -29.1180 H   0  0  0  0  0  0  0  0  0  0  0  0
   -5.2540   24.0890  -28.1310 H   0  0  0  0  0  0  0  0  0  0  0  0
   -8.7142   22.9363  -30.2760 H   0  0  0  0  0  0  0  0  0  0  0  0
   -9.4911   20.5602  -31.6174 H   0  0  0  0  0  0  0  0  0  0  0  0
   -8.6511   18.7378  -33.0917 H   0  0  0  0  0  0  0  0  0  0  0  0
   -4.7574   20.5736  -33.0743 H   0  0  0  0  0  0  0  0  0  0  0  0
   -4.1766   21.0869  -28.6073 H   0  0  0  0  0  0  0  0  0  0  0  0
   -3.1227   21.4091  -27.1681 H   0  0  0  0  0  0  0  0  0  0  0  0
   -3.6575   23.9959  -26.7373 H   0  0  0  0  0  0  0  0  0  0  0  0
   -2.0207   23.2113  -27.0445 H   0  0  0  0  0  0  0  0  0  0  0  0
   -2.7600   24.5620  -29.9420 H   0  0  0  0  0  0  0  0  0  0  0  0
  1  2  1  0
  2  3  1  0
  3  4  1  0
  4  5  1  0
  5  6  1  0
  6  7  2  0
  6  8  1  0
  8  9  1  0
  9 10  1  0
 10 11  1  0
 10 12  2  0
  9 13  2  0
 13 14  1  0
 14 15  2  0
 15 16  1  0
 16 17  2  0
 17 18  1  0
 18 19  1  0
 18 20  1  0
 18 21  1  0
 17 22  1  0
 22 23  2  0
  2 24  1  0
 24 25  2  0
 24 26  1  0
 26 27  1  0
 27 28  1  0
 28 29  1  0
 29 30  2  0
 29 31  1  0
 23  8  1  0
 23 14  1  0
  1 32  1  0
  1 33  1  0
  1 34  1  0
  3 35  1  0
  3 36  1  0
  4 37  1  0
  4 38  1  0
 11 39  1  0
 11 40  1  0
 13 41  1  0
 15 42  1  0
 16 43  1  0
 22 44  1  0
 26 45  1  0
 26 46  1  0
 28 47  1  0
 28 48  1  0
 31 49  1  0
M  END
>  <smiles>  (2) 
CN(CCOC(=O)n1c(C(N)=O)cc2ccc(C(F)(F)F)cc21)C(=O)COCC(=O)O

>  <score_type>  (2) 
oracle

>  <origin>  (2) 
adg

>  <m_score__min__energy>  (2) 
-9.1999999999999993

>  <m_primary>  (2) 
energy

$$$$
2:0
     RDKit          3D

 47 48  0  0  0  0  0  0  0  0999 V2000
   -4.5490   16.0020  -34.4500 C   0  0  0  0  0  0  0  0  0  0  0  0
   -5.7060   16.8690  -34.3460 N   0  0  0  0  0  0  0  0  0  0  0  0
   -5.4740   18.1480  -34.9920 C   0  0  0  0  0  0  0  0  0  0  0  0
   -6.1220   17.0520  -32.9710 C   0  0  0  0  0  0  0  0  0  0  0  0
   -7.5800   17.4230  -32.9270 C   0  0  0  0  0  0  0  0  0  0  0  0
   -7.7010   18.8270  -32.4540 C   0  0  0  0  0  0  0  0  0  0  0  0
   -8.9610   19.2950  -32.1660 C   0  0  0  0  0  0  0  0  0  0  0  0
   -9.0990   20.5860  -31.7280 C   0  0  0  0  0  0  0  0  0  0  0  0
   -7.9860   21.3880  -31.5840 C   0  0  0  0  0  0  0  0  0  0  0  0
   -7.8550   22.6920  -31.1700 C   0  0  0  0  0  0  0  0  0  0  0  0
   -6.5160   23.0490  -31.1960 C   0  0  0  0  0  0  0  0  0  0  0  0
   -6.0510   24.3640  -30.8150 C   0  0  0  0  0  0  0  0  0  0  0  0
   -5.9940   24.7060  -29.4100 N   0  0  0  0  0  0  0  0  0  0  0  0
   -5.6770   25.2730  -31.5870 O   0  0  0  0  0  0  0  0  0  0  0  0
   -5.8250   21.9690  -31.6240 N   0  0  0  0  0  0  0  0  0  0  0  0
   -4.4330   21.8450  -31.8130 C   0  0  0  0  0  0  0  0  0  0  0  0
   -3.9630   20.7360  -32.2030 O   0  0  0  0  0  0  0  0  0  0  0  0
   -3.5010   22.8410  -31.6110 O   0  0  0  0  0  0  0  0  0  0  0  0
   -2.3060   22.7000  -30.9350 C   0  0  0  0  0  0  0  0  0  0  0  0
   -1.0750   21.7790  -31.4870 S   0  0  0  0  0  0  0  0  0  0  0  0
   -2.1080   23.3760  -29.7020 N   0  0  0  0  0  0  0  0  0  0  0  0
   -1.0500   22.9620  -28.8020 C   0  0  0  0  0  0  0  0  0  0  0  0
   -2.9480   24.4740  -29.3320 C   0  0  0  0  0  0  0  0  0  0  0  0
   -3.1500   24.6260  -28.0960 O   0  0  0  0  0  0  0  0  0  0  0  0
   -3.4880   25.2980  -30.2860 O   0  0  0  0  0  0  0  0  0  0  0  0
   -6.7070   20.9630  -31.8590 C   0  0  0  0  0  0  0  0  0  0  0  0
   -6.5810   19.6520  -32.3020 C   0  0  0  0  0  0  0  0  0  0  0  0
   -4.1968   15.7381  -33.4419 H   0  0  0  0  0  0  0  0  0  0  0  0
   -4.8247   15.0863  -34.9935 H   0  0  0  0  0  0  0  0  0  0  0  0
   -3.7475   16.5237  -34.9935 H   0  0  0  0  0  0  0  0  0  0  0  0
   -5.3330   18.9252  -34.2265 H   0  0  0  0  0  0  0  0  0  0  0  0
   -4.5729   18.0837  -35.6195 H   0  0  0  0  0  0  0  0  0  0  0  0
   -6.3403   18.4043  -35.6195 H   0  0  0  0  0  0  0  0  0  0  0  0
   -5.9659   16.1163  -32.4142 H   0  0  0  0  0  0  0  0  0  0  0  0
   -5.5274   17.8571  -32.5147 H   0  0  0  0  0  0  0  0  0  0  0  0
   -8.0154   17.3327  -33.9331 H   0  0  0  0  0  0  0  0  0  0  0  0
   -8.1173   16.7497  -32.2430 H   0  0  0  0  0  0  0  0  0  0  0  0
   -9.8411   18.6459  -32.2848 H   0  0  0  0  0  0  0  0  0  0  0  0
  -10.0973   20.9828  -31.4912 H   0  0  0  0  0  0  0  0  0  0  0  0
   -8.6829   23.3492  -30.8658 H   0  0  0  0  0  0  0  0  0  0  0  0
   -6.8590   25.1060  -28.9800 H   0  0  0  0  0  0  0  0  0  0  0  0
   -5.1020   24.5450  -28.8760 H   0  0  0  0  0  0  0  0  0  0  0  0
   -1.3821   23.0919  -27.7614 H   0  0  0  0  0  0  0  0  0  0  0  0
   -0.8098   21.9035  -28.9808 H   0  0  0  0  0  0  0  0  0  0  0  0
   -0.1552   23.5763  -28.9808 H   0  0  0  0  0  0  0  0  0  0  0  0
   -3.5350   24.9310  -31.2390 H   0  0  0  0  0  0  0  0  0  0  0  0
   -5.5824   19.2554  -32.5376 H   0  0  0  0  0  0  0  0  0  0  0  0
  1  2  1  0
  2  3  1  0
  2  4  1  0
  4  5  1  0
  5  6  1  0
  6  7  2  0
  7  8  1  0
  8  9  2  0
  9 10  1  0
 10 11  2  0
 11 12  1  0
 12 13  1  0
 12 14  2  0
 11 15  1  0
 15 16  1  0
 16 17  2  0
 16 18  1  0
 18 19  1  0
 19 20  2  0
 19 21  1  0
 21 22  1  0
 21 23  1  0
 23 24  2  0
 23 25  1  0
 15 26  1  0
 26 27  2  0
 27  6  1  0
 26  9  1  0
  1 28  1  0
  1 29  1  0
  1 30  1  0
  3 31  1  0
  3 32  1  0
  3 33  1  0
  4 34  1  0
  4 35  1  0
  5 36  1  0
  5 37  1  0
  7 38  1  0
  8 39  1  0
 10 40  1  0
 13 41  1  0
 13 42  1  0
 22 43  1  0
 22 44  1  0
 22 45  1  0
 25 46  1  0
 27 47  1  0
M  END
>  <smiles>  (3) 
CN(C)CCc1ccc2cc(C(N)=O)n(C(=O)OC(=S)N(C)C(=O)O)c2c1

>  <score_type>  (3) 
oracle

>  <origin>  (3) 
adg

>  <m_score__min__energy>  (3) 
-10.529999999999999

>  <m_primary>  (3) 
energy

$$$$
4:0
     RDKit          3D

 64 65  0  0  1  0  0  0  0  0999 V2000
   -0.9900   25.9990  -24.5820 C   0  0  0  0  0  0  0  0  0  0  0  0
   -0.5190   24.7630  -24.5860 C   0  0  0  0  0  0  0  0  0  0  0  0
    0.7820   24.3220  -25.0840 C   0  0  0  0  0  0  0  0  0  0  0  0
    0.6940   23.7430  -26.3620 O   0  0  0  0  0  0  0  0  0  0  0  0
    0.9990   24.4150  -27.5410 C   0  0  0  0  0  0  0  0  0  0  0  0
    2.1650   24.8310  -27.8060 O   0  0  0  0  0  0  0  0  0  0  0  0
   -0.0500   24.6130  -28.4290 O   0  0  0  0  0  0  0  0  0  0  0  0
   -1.0740   25.5600  -28.2370 C   0  0  0  0  0  0  0  0  0  0  0  0
   -2.2100   25.2900  -29.0110 O   0  0  0  0  0  0  0  0  0  0  0  0
   -3.0460   24.2150  -28.8040 C   0  0  0  0  0  0  0  0  0  0  0  0
   -3.3530   23.9300  -27.6270 O   0  0  0  0  0  0  0  0  0  0  0  0
   -3.5630   23.4250  -29.9350 N   0  0  0  0  0  0  0  0  0  0  0  0
   -4.3300   24.1810  -30.8350 C   0  0  0  0  0  0  0  0  0  0  0  0
   -4.2810   25.4800  -30.7650 O   0  0  0  0  0  0  0  0  0  0  0  0
   -5.1750   23.7320  -31.8220 O   0  0  0  0  0  0  0  0  0  0  0  0
   -6.2040   22.8190  -31.5240 C   0  0  1  0  0  0  0  0  0  0  0  0
   -7.5130   23.5270  -31.2320 C   0  0  0  0  0  0  0  0  0  0  0  0
   -6.3420   22.0070  -32.7020 O   0  0  0  0  0  0  0  0  0  0  0  0
   -5.4850   20.9330  -32.8900 C   0  0  0  0  0  0  0  0  0  0  0  0
   -4.3600   21.0280  -33.4440 O   0  0  0  0  0  0  0  0  0  0  0  0
   -5.8940   19.7000  -32.4440 O   0  0  0  0  0  0  0  0  0  0  0  0
   -6.9980   19.0140  -32.9860 C   0  0  0  0  0  0  0  0  0  0  0  0
   -8.1730   19.0840  -32.0970 C   0  0  0  0  0  0  0  0  0  0  0  0
   -9.0630   20.0420  -32.3220 C   0  0  0  0  0  0  0  0  0  0  0  0
   -3.2030   22.0770  -29.9160 C   0  0  0  0  0  0  0  0  0  0  0  0
   -4.2450   21.2810  -30.0650 O   0  0  0  0  0  0  0  0  0  0  0  0
   -2.0050   21.3840  -29.7840 N   0  0  0  0  0  0  0  0  0  0  0  0
   -1.1580   21.1470  -28.7810 C   0  0  0  0  0  0  0  0  0  0  0  0
   -1.4430   21.2200  -27.3310 C   0  0  0  0  0  0  0  0  0  0  0  0
   -1.5200   22.4760  -26.6730 N   0  0  0  0  0  0  0  0  0  0  0  0
   -1.6290   20.1980  -26.6240 O   0  0  0  0  0  0  0  0  0  0  0  0
    0.0390   20.6090  -29.2080 C   0  0  0  0  0  0  0  0  0  0  0  0
   -0.0700   20.4960  -30.5640 C   0  0  0  0  0  0  0  0  0  0  0  0
    0.8560   20.0120  -31.4680 C   0  0  0  0  0  0  0  0  0  0  0  0
    0.5440   19.9870  -32.8100 C   0  0  0  0  0  0  0  0  0  0  0  0
   -0.7010   20.4560  -33.1680 C   0  0  0  0  0  0  0  0  0  0  0  0
   -1.0500   20.4310  -34.6200 C   0  0  0  0  0  0  0  0  0  0  0  0
   -1.6190   20.9370  -32.2590 C   0  0  0  0  0  0  0  0  0  0  0  0
   -1.3070   20.9640  -30.9010 C   0  0  0  0  0  0  0  0  0  0  0  0
   -1.9917   26.2046  -24.1766 H   0  0  0  0  0  0  0  0  0  0  0  0
   -0.3800   26.8213  -24.9841 H   0  0  0  0  0  0  0  0  0  0  0  0
   -1.1762   23.9849  -24.1705 H   0  0  0  0  0  0  0  0  0  0  0  0
    1.4548   25.1908  -25.1345 H   0  0  0  0  0  0  0  0  0  0  0  0
    1.1660   23.5572  -24.3930 H   0  0  0  0  0  0  0  0  0  0  0  0
   -1.3622   25.5568  -27.1754 H   0  0  0  0  0  0  0  0  0  0  0  0
   -0.6839   26.5401  -28.5488 H   0  0  0  0  0  0  0  0  0  0  0  0
   -5.9602   22.2304  -30.6273 H   0  0  0  0  0  0  0  0  0  0  0  0
   -7.6538   23.6032  -30.1437 H   0  0  0  0  0  0  0  0  0  0  0  0
   -7.4900   24.5357  -31.6702 H   0  0  0  0  0  0  0  0  0  0  0  0
   -8.3446   22.9557  -31.6702 H   0  0  0  0  0  0  0  0  0  0  0  0
   -7.2570   19.4646  -33.9555 H   0  0  0  0  0  0  0  0  0  0  0  0
   -6.7202   17.9563  -33.1050 H   0  0  0  0  0  0  0  0  0  0  0  0
   -8.3070   18.3657  -31.2747 H   0  0  0  0  0  0  0  0  0  0  0  0
   -9.9529   20.1276  -31.6811 H   0  0  0  0  0  0  0  0  0  0  0  0
   -8.9110   20.7506  -33.1495 H   0  0  0  0  0  0  0  0  0  0  0  0
   -1.2760   23.3610  -27.1930 H   0  0  0  0  0  0  0  0  0  0  0  0
   -1.8130   22.5590  -25.6790 H   0  0  0  0  0  0  0  0  0  0  0  0
    0.9015   20.3294  -28.5852 H   0  0  0  0  0  0  0  0  0  0  0  0
    1.8343   19.6496  -31.1193 H   0  0  0  0  0  0  0  0  0  0  0  0
    1.2553   19.6104  -33.5599 H   0  0  0  0  0  0  0  0  0  0  0  0
   -2.1413   20.3528  -34.7335 H   0  0  0  0  0  0  0  0  0  0  0  0
   -0.6970   21.3567  -35.0979 H   0  0  0  0  0  0  0  0  0  0  0  0
   -0.5687   19.5650  -35.0979 H   0  0  0  0  0  0  0  0  0  0  0  0
   -2.5980   21.2996  -32.6056 H   0  0  0  0  0  0  0  0  0  0  0  0
  1  2  2  0
  2  3  1  0
  3  4  1  0
  4  5  1  0
  5  6  2  0
  5  7  1  0
  7  8  1  0
  8  9  1  0
  9 10  1  0
 10 11  2  0
 10 12  1  0
 12 13  1  0
 13 14  2  0
 13 15  1  0
 15 16  1  0
 16 17  1  0
 16 18  1  0
 18 19  1  0
 19 20  2  0
 19 21  1  0
 21 22  1  0
 22 23  1  0
 23 24  2  0
 12 25  1  0
 25 26  2  0
 25 27  1  0
 27 28  1  0
 28 29  1  0
 29 30  1  0
 29 31  2  0
 28 32  2  0
 32 33  1  0
 33 34  2  0
 34 35  1  0
 35 36  2  0
 36 37  1  0
 36 38  1  0
 38 39  2  0
 39 27  1  0
 39 33  1  0
  1 40  1  0
  1 41  1  0
  2 42  1  0
  3 43  1  0
  3 44  1  0
  8 45  1  0
  8 46  1  0
 16 47  1  1
 17 48  1  0
 17 49  1  0
 17 50  1  0
 22 51  1  0
 22 52  1  0
 23 53  1  0
 24 54  1  0
 24 55  1  0
 30 56  1  0
 30 57  1  0
 32 58  1  0
 34 59  1  0
 35 60  1  0
 37 61  1  0
 37 62  1  0
 37 63  1  0
 38 64  1  0
M  END
>  <smiles>  (4) 
C=CCOC(=O)OCOC(=O)N(C(=O)OC(C)OC(=O)OCC=C)C(=O)n1c(C(N)=O)cc2ccc(C)cc21

>  <score_type>  (4) 
oracle

>  <origin>  (4) 
adg

>  <m_score__min__energy>  (4) 
-8.8900000000000006

>  <m_primary>  (4) 
energy

$$$$
5:0
     RDKit          3D

 42 43  0  0  0  0  0  0  0  0999 V2000
   -2.2210   24.9820  -29.3420 N   0  0  0  0  0  0  0  0  0  0  0  0
   -2.7390   24.3520  -28.1470 C   0  0  0  0  0  0  0  0  0  0  0  0
   -2.2830   22.9650  -27.9850 C   0  0  0  0  0  0  0  0  0  0  0  0
   -2.8710   22.1510  -27.1970 O   0  0  0  0  0  0  0  0  0  0  0  0
   -1.1820   22.5250  -28.7070 O   0  0  0  0  0  0  0  0  0  0  0  0
   -1.2700   21.6410  -29.7920 C   0  0  0  0  0  0  0  0  0  0  0  0
   -1.6700   22.3140  -30.9870 O   0  0  0  0  0  0  0  0  0  0  0  0
   -3.0180   21.9630  -31.3670 C   0  0  0  0  0  0  0  0  0  0  0  0
   -3.0810   20.7830  -31.7390 O   0  0  0  0  0  0  0  0  0  0  0  0
   -4.0100   22.9820  -31.2590 C   0  0  0  0  0  0  0  0  0  0  0  0
   -3.5040   24.1810  -31.2060 O   0  0  0  0  0  0  0  0  0  0  0  0
   -5.4010   22.9700  -31.1920 N   0  0  0  0  0  0  0  0  0  0  0  0
   -6.1310   24.0350  -30.7440 C   0  0  0  0  0  0  0  0  0  0  0  0
   -5.7630   25.2950  -30.1410 C   0  0  0  0  0  0  0  0  0  0  0  0
   -6.4970   25.7870  -28.9710 N   0  0  0  0  0  0  0  0  0  0  0  0
   -4.8550   26.0800  -30.4910 O   0  0  0  0  0  0  0  0  0  0  0  0
   -7.4920   23.7040  -30.8960 C   0  0  0  0  0  0  0  0  0  0  0  0
   -7.5920   22.4730  -31.4210 C   0  0  0  0  0  0  0  0  0  0  0  0
   -8.7030   21.7250  -31.7620 C   0  0  0  0  0  0  0  0  0  0  0  0
   -8.5720   20.4850  -32.3060 C   0  0  0  0  0  0  0  0  0  0  0  0
   -7.3010   20.0000  -32.5060 C   0  0  0  0  0  0  0  0  0  0  0  0
   -7.1220   18.6670  -33.0920 C   0  0  0  0  0  0  0  0  0  0  0  0
   -5.8490   18.5230  -33.8240 C   0  0  0  0  0  0  0  0  0  0  0  0
   -5.8920   18.5090  -35.0870 O   0  0  0  0  0  0  0  0  0  0  0  0
   -4.6740   18.4090  -33.1070 O   0  0  0  0  0  0  0  0  0  0  0  0
   -6.1930   20.7650  -32.1570 C   0  0  0  0  0  0  0  0  0  0  0  0
   -6.2910   22.0190  -31.6050 C   0  0  0  0  0  0  0  0  0  0  0  0
   -2.8680   25.6730  -29.7440 H   0  0  0  0  0  0  0  0  0  0  0  0
   -1.7270   24.3610  -29.9880 H   0  0  0  0  0  0  0  0  0  0  0  0
   -2.4095   24.9335  -27.2733 H   0  0  0  0  0  0  0  0  0  0  0  0
   -3.8352   24.3295  -28.2360 H   0  0  0  0  0  0  0  0  0  0  0  0
   -0.2860   21.1774  -29.9556 H   0  0  0  0  0  0  0  0  0  0  0  0
   -2.0281   20.8799  -29.5553 H   0  0  0  0  0  0  0  0  0  0  0  0
   -7.1140   26.6100  -29.1250 H   0  0  0  0  0  0  0  0  0  0  0  0
   -6.3680   25.3000  -28.0610 H   0  0  0  0  0  0  0  0  0  0  0  0
   -8.3389   24.3523  -30.6268 H   0  0  0  0  0  0  0  0  0  0  0  0
   -9.7079   22.1384  -31.5910 H   0  0  0  0  0  0  0  0  0  0  0  0
   -9.4556   19.8887  -32.5775 H   0  0  0  0  0  0  0  0  0  0  0  0
   -7.1466   17.9225  -32.2826 H   0  0  0  0  0  0  0  0  0  0  0  0
   -7.9359   18.5149  -33.8162 H   0  0  0  0  0  0  0  0  0  0  0  0
   -4.2580   19.2600  -32.7490 H   0  0  0  0  0  0  0  0  0  0  0  0
   -5.1910   20.3460  -32.3313 H   0  0  0  0  0  0  0  0  0  0  0  0
  1  2  1  0
  2  3  1  0
  3  4  2  0
  3  5  1  0
  5  6  1  0
  6  7  1  0
  7  8  1  0
  8  9  2  0
  8 10  1  0
 10 11  2  0
 10 12  1  0
 12 13  1  0
 13 14  1  0
 14 15  1  0
 14 16  2  0
 13 17  2  0
 17 18  1  0
 18 19  2  0
 19 20  1  0
 20 21  2  0
 21 22  1  0
 22 23  1  0
 23 24  2  0
 23 25  1  0
 21 26  1  0
 26 27  2  0
 27 12  1  0
 27 18  1  0
  1 28  1  0
  1 29  1  0
  2 30  1  0
  2 31  1  0
  6 32  1  0
  6 33  1  0
 15 34  1  0
 15 35  1  0
 17 36  1  0
 19 37  1  0
 20 38  1  0
 22 39  1  0
 22 40  1  0
 25 41  1  0
 26 42  1  0
M  END
>  <smiles>  (5) 
NCC(=O)OCOC(=O)C(=O)n1c(C(N)=O)cc2ccc(CC(=O)O)cc21

>  <score_type>  (5) 
oracle

>  <origin>  (5) 
adg

>  <m_score__min__energy>  (5) 
-8.4199999999999999

>  <m_primary>  (5) 
energy

$$$$
6:0
     RDKit          3D

 56 58  0  0  0  0  0  0  0  0999 V2000
   -3.7230   22.1800  -27.9040 C   0  0  0  0  0  0  0  0  0  0  0  0
   -3.6460   23.3990  -28.7940 C   0  0  0  0  0  0  0  0  0  0  0  0
   -2.9420   24.5000  -28.0610 C   0  0  0  0  0  0  0  0  0  0  0  0
   -2.8510   23.0500  -30.0370 C   0  0  0  0  0  0  0  0  0  0  0  0
   -5.0630   23.7620  -29.1420 C   0  0  2  0  0  0  0  0  0  0  0  0
   -5.6520   22.7610  -29.9770 N   0  0  0  0  0  0  0  0  0  0  0  0
   -5.6790   22.7760  -31.3990 C   0  0  0  0  0  0  0  0  0  0  0  0
   -5.0720   23.7470  -31.9440 O   0  0  0  0  0  0  0  0  0  0  0  0
   -6.3250   21.7550  -32.1500 N   0  0  0  0  0  0  0  0  0  0  0  0
   -7.6080   21.3780  -32.1960 C   0  0  0  0  0  0  0  0  0  0  0  0
   -8.8090   22.1250  -31.7730 C   0  0  0  0  0  0  0  0  0  0  0  0
   -8.8720   23.5520  -31.9680 N   0  0  0  0  0  0  0  0  0  0  0  0
   -9.8110   21.6100  -31.2410 O   0  0  0  0  0  0  0  0  0  0  0  0
   -7.7440   20.1660  -32.8640 C   0  0  0  0  0  0  0  0  0  0  0  0
   -6.4660   19.8190  -33.2310 C   0  0  0  0  0  0  0  0  0  0  0  0
   -6.0220   18.6920  -33.8850 C   0  0  0  0  0  0  0  0  0  0  0  0
   -4.6860   18.4830  -34.1320 C   0  0  0  0  0  0  0  0  0  0  0  0
   -3.7770   19.4520  -33.7050 C   0  0  0  0  0  0  0  0  0  0  0  0
   -2.3850   19.2480  -33.9430 N   0  0  0  0  0  0  0  0  0  0  0  0
   -1.4620   20.3660  -34.1750 C   0  0  0  0  0  0  0  0  0  0  0  0
   -0.1130   19.9070  -33.6250 C   0  0  0  0  0  0  0  0  0  0  0  0
    0.4390   18.8430  -34.4460 N   0  0  0  0  0  0  0  0  0  0  0  0
   -0.6070   17.9760  -34.9240 C   0  0  0  0  0  0  0  0  0  0  0  0
   -1.7700   17.9330  -33.9800 C   0  0  0  0  0  0  0  0  0  0  0  0
   -4.2410   20.5970  -33.0420 C   0  0  0  0  0  0  0  0  0  0  0  0
   -5.5830   20.8030  -32.7910 C   0  0  0  0  0  0  0  0  0  0  0  0
   -5.0970   25.1170  -29.8340 C   0  0  0  0  0  0  0  0  0  0  0  0
   -6.2050   25.7300  -29.6690 O   0  0  0  0  0  0  0  0  0  0  0  0
   -4.0430   25.6200  -30.5590 O   0  0  0  0  0  0  0  0  0  0  0  0
   -3.7032   22.4938  -26.8499 H   0  0  0  0  0  0  0  0  0  0  0  0
   -4.6573   21.6361  -28.1072 H   0  0  0  0  0  0  0  0  0  0  0  0
   -2.8646   21.5229  -28.1072 H   0  0  0  0  0  0  0  0  0  0  0  0
   -3.0430   24.3420  -26.9771 H   0  0  0  0  0  0  0  0  0  0  0  0
   -1.8764   24.4993  -28.3339 H   0  0  0  0  0  0  0  0  0  0  0  0
   -3.3897   25.4670  -28.3339 H   0  0  0  0  0  0  0  0  0  0  0  0
   -1.8802   22.6238  -29.7437 H   0  0  0  0  0  0  0  0  0  0  0  0
   -3.4090   22.3141  -30.6345 H   0  0  0  0  0  0  0  0  0  0  0  0
   -2.6870   23.9589  -30.6345 H   0  0  0  0  0  0  0  0  0  0  0  0
   -5.6484   23.8206  -28.2126 H   0  0  0  0  0  0  0  0  0  0  0  0
   -6.0630   21.9230  -29.5030 H   0  0  0  0  0  0  0  0  0  0  0  0
   -9.8080   24.0270  -32.1550 H   0  0  0  0  0  0  0  0  0  0  0  0
   -7.9730   24.0800  -31.9160 H   0  0  0  0  0  0  0  0  0  0  0  0
   -8.6717   19.6072  -33.0565 H   0  0  0  0  0  0  0  0  0  0  0  0
   -6.7536   17.9410  -34.2178 H   0  0  0  0  0  0  0  0  0  0  0  0
   -4.3427   17.5766  -34.6521 H   0  0  0  0  0  0  0  0  0  0  0  0
   -1.3843   20.5827  -35.2506 H   0  0  0  0  0  0  0  0  0  0  0  0
   -1.8086   21.2878  -33.6850 H   0  0  0  0  0  0  0  0  0  0  0  0
    0.5838   20.7581  -33.6199 H   0  0  0  0  0  0  0  0  0  0  0  0
   -0.2576   19.5273  -32.6028 H   0  0  0  0  0  0  0  0  0  0  0  0
    1.0200   18.2610  -33.7960 H   0  0  0  0  0  0  0  0  0  0  0  0
   -0.9549   18.3430  -35.9009 H   0  0  0  0  0  0  0  0  0  0  0  0
   -0.1964   16.9589  -35.0068 H   0  0  0  0  0  0  0  0  0  0  0  0
   -2.5031   17.1906  -34.3286 H   0  0  0  0  0  0  0  0  0  0  0  0
   -1.4273   17.6498  -32.9739 H   0  0  0  0  0  0  0  0  0  0  0  0
   -3.5141   21.3538  -32.7120 H   0  0  0  0  0  0  0  0  0  0  0  0
   -4.1130   25.6680  -31.5960 H   0  0  0  0  0  0  0  0  0  0  0  0
  1  2  1  0
  2  3  1  0
  2  4  1  0
  2  5  1  0
  5  6  1  0
  6  7  1  0
  7  8  2  0
  7  9  1  0
  9 10  1  0
 10 11  1  0
 11 12  1  0
 11 13  2  0
 10 14  2  0
 14 15  1  0
 15 16  2  0
 16 17  1  0
 17 18  2  0
 18 19  1  0
 19 20  1  0
 20 21  1  0
 21 22  1  0
 22 23  1  0
 23 24  1  0
 18 25  1  0
 25 26  2  0
  5 27  1  0
 27 28  2  0
 27 29  1  0
 26  9  1  0
 26 15  1  0
 24 19  1  0
  1 30  1  0
  1 31  1  0
  1 32  1  0
  3 33  1  0
  3 34  1  0
  3 35  1  0
  4 36  1  0
  4 37  1  0
  4 38  1  0
  5 39  1  1
  6 40  1  0
 12 41  1  0
 12 42  1  0
 14 43  1  0
 16 44  1  0
 17 45  1  0
 20 46  1  0
 20 47  1  0
 21 48  1  0
 21 49  1  0
 22 50  1  0
 23 51  1  0
 23 52  1  0
 24 53  1  0
 24 54  1  0
 25 55  1  0
 29 56  1  0
M  END
>  <smiles>  (6) 
CC(C)(C)[C@H](NC(=O)n1c(C(N)=O)cc2ccc(N3CCNCC3)cc21)C(=O)O

>  <score_type>  (6) 
oracle

>  <origin>  (6) 
adg

>  <m_score__min__energy>  (6) 
-9.5500000000000007

>  <m_primary>  (6) 
energy

$$$$
7:0
     RDKit          3D

 39 40  0  0  0  0  0  0  0  0999 V2000
   -4.1640   24.7060  -26.7140 C   0  0  0  0  0  0  0  0  0  0  0  0
   -3.6890   23.7780  -27.5050 C   0  0  0  0  0  0  0  0  0  0  0  0
   -2.8120   23.9110  -28.6310 C   0  0  0  0  0  0  0  0  0  0  0  0
   -2.5070   25.1200  -28.9690 O   0  0  0  0  0  0  0  0  0  0  0  0
   -2.2360   22.9020  -29.4220 N   0  0  0  0  0  0  0  0  0  0  0  0
   -0.8360   22.5890  -29.5400 C   0  0  0  0  0  0  0  0  0  0  0  0
   -3.1870   22.0540  -30.2380 C   0  0  0  0  0  0  0  0  0  0  0  0
   -4.1150   23.0280  -30.8290 C   0  0  0  0  0  0  0  0  0  0  0  0
   -3.5060   24.1030  -31.2140 O   0  0  0  0  0  0  0  0  0  0  0  0
   -5.4980   22.9600  -31.0240 N   0  0  0  0  0  0  0  0  0  0  0  0
   -6.4860   23.8330  -30.7200 C   0  0  0  0  0  0  0  0  0  0  0  0
   -6.4390   25.1210  -30.0720 C   0  0  0  0  0  0  0  0  0  0  0  0
   -5.2420   25.9340  -30.2670 N   0  0  0  0  0  0  0  0  0  0  0  0
   -7.2770   25.6680  -29.3520 O   0  0  0  0  0  0  0  0  0  0  0  0
   -7.7040   23.2770  -31.1450 C   0  0  0  0  0  0  0  0  0  0  0  0
   -7.4460   22.0640  -31.7070 C   0  0  0  0  0  0  0  0  0  0  0  0
   -8.2930   21.1370  -32.2670 C   0  0  0  0  0  0  0  0  0  0  0  0
   -7.8150   19.9580  -32.7860 C   0  0  0  0  0  0  0  0  0  0  0  0
   -6.4610   19.7400  -32.7240 C   0  0  0  0  0  0  0  0  0  0  0  0
   -5.9070   18.4640  -33.2800 C   0  0  0  0  0  0  0  0  0  0  0  0
   -5.7510   18.5770  -34.6280 F   0  0  0  0  0  0  0  0  0  0  0  0
   -5.6110   20.6880  -32.1530 C   0  0  0  0  0  0  0  0  0  0  0  0
   -6.0900   21.8780  -31.6280 C   0  0  0  0  0  0  0  0  0  0  0  0
   -4.8337   24.4325  -25.8853 H   0  0  0  0  0  0  0  0  0  0  0  0
   -3.8936   25.7596  -26.8778 H   0  0  0  0  0  0  0  0  0  0  0  0
   -4.0077   22.7510  -27.2731 H   0  0  0  0  0  0  0  0  0  0  0  0
   -0.3964   22.4907  -28.5365 H   0  0  0  0  0  0  0  0  0  0  0  0
   -0.7168   21.6420  -30.0869 H   0  0  0  0  0  0  0  0  0  0  0  0
   -0.3249   23.3950  -30.0869 H   0  0  0  0  0  0  0  0  0  0  0  0
   -2.6458   21.5041  -31.0221 H   0  0  0  0  0  0  0  0  0  0  0  0
   -3.7012   21.2931  -29.6325 H   0  0  0  0  0  0  0  0  0  0  0  0
   -5.3720   26.7290  -30.9160 H   0  0  0  0  0  0  0  0  0  0  0  0
   -4.3540   25.6950  -29.7730 H   0  0  0  0  0  0  0  0  0  0  0  0
   -8.6956   23.7417  -31.0416 H   0  0  0  0  0  0  0  0  0  0  0  0
   -9.3730   21.3430  -32.3001 H   0  0  0  0  0  0  0  0  0  0  0  0
   -8.4922   19.2162  -33.2346 H   0  0  0  0  0  0  0  0  0  0  0  0
   -4.9316   18.2566  -32.8157 H   0  0  0  0  0  0  0  0  0  0  0  0
   -6.6036   17.6408  -33.0630 H   0  0  0  0  0  0  0  0  0  0  0  0
   -4.5304   20.4852  -32.1186 H   0  0  0  0  0  0  0  0  0  0  0  0
  1  2  2  0
  2  3  1  0
  3  4  2  0
  3  5  1  0
  5  6  1  0
  5  7  1  0
  7  8  1  0
  8  9  2  0
  8 10  1  0
 10 11  1  0
 11 12  1  0
 12 13  1  0
 12 14  2  0
 11 15  2  0
 15 16  1  0
 16 17  2  0
 17 18  1  0
 18 19  2  0
 19 20  1  0
 20 21  1  0
 19 22  1  0
 22 23  2  0
 23 10  1  0
 23 16  1  0
  1 24  1  0
  1 25  1  0
  2 26  1  0
  6 27  1  0
  6 28  1  0
  6 29  1  0
  7 30  1  0
  7 31  1  0
 13 32  1  0
 13 33  1  0
 15 34  1  0
 17 35  1  0
 18 36  1  0
 20 37  1  0
 20 38  1  0
 22 39  1  0
M  END
>  <smiles>  (7) 
C=CC(=O)N(C)CC(=O)n1c(C(N)=O)cc2ccc(CF)cc21

>  <score_type>  (7) 
oracle

>  <origin>  (7) 
adg

>  <m_score__min__energy>  (7) 
-8.5399999999999991

>  <m_primary>  (7) 
energy

$$$$
8:0
     RDKit          3D

 35 36  0  0  0  0  0  0  0  0999 V2000
   -6.0880   18.5400  -33.8570 C   0  0  0  0  0  0  0  0  0  0  0  0
   -6.5920   19.6760  -33.0510 C   0  0  0  0  0  0  0  0  0  0  0  0
   -7.9490   19.7980  -32.8520 C   0  0  0  0  0  0  0  0  0  0  0  0
   -8.3860   20.8530  -32.1070 C   0  0  0  0  0  0  0  0  0  0  0  0
   -7.4980   21.7620  -31.5750 C   0  0  0  0  0  0  0  0  0  0  0  0
   -7.7060   22.8730  -30.8400 C   0  0  0  0  0  0  0  0  0  0  0  0
   -6.4730   23.4860  -30.5500 C   0  0  0  0  0  0  0  0  0  0  0  0
   -6.4340   24.6940  -29.7560 C   0  0  0  0  0  0  0  0  0  0  0  0
   -5.3070   24.9210  -28.8420 N   0  0  0  0  0  0  0  0  0  0  0  0
   -7.2560   25.6210  -29.7230 O   0  0  0  0  0  0  0  0  0  0  0  0
   -5.5050   22.7200  -31.1280 N   0  0  0  0  0  0  0  0  0  0  0  0
   -4.1490   23.0770  -31.1100 C   0  0  0  0  0  0  0  0  0  0  0  0
   -3.9560   24.3640  -31.1320 O   0  0  0  0  0  0  0  0  0  0  0  0
   -2.9400   22.3140  -31.0650 C   0  0  0  0  0  0  0  0  0  0  0  0
   -2.5220   21.4440  -31.8380 O   0  0  0  0  0  0  0  0  0  0  0  0
   -2.0630   22.5690  -29.9820 O   0  0  0  0  0  0  0  0  0  0  0  0
   -2.4000   22.9150  -28.6950 C   0  0  0  0  0  0  0  0  0  0  0  0
   -2.3340   24.3420  -28.2910 C   0  0  0  0  0  0  0  0  0  0  0  0
   -2.2970   25.1830  -29.3630 O   0  0  0  0  0  0  0  0  0  0  0  0
   -6.1220   21.6750  -31.7520 C   0  0  0  0  0  0  0  0  0  0  0  0
   -5.7090   20.6030  -32.5080 C   0  0  0  0  0  0  0  0  0  0  0  0
   -5.7344   17.7430  -33.1864 H   0  0  0  0  0  0  0  0  0  0  0  0
   -6.8986   18.1525  -34.4916 H   0  0  0  0  0  0  0  0  0  0  0  0
   -5.2567   18.8809  -34.4916 H   0  0  0  0  0  0  0  0  0  0  0  0
   -8.6551   19.0705  -33.2787 H   0  0  0  0  0  0  0  0  0  0  0  0
   -9.4639   20.9802  -31.9280 H   0  0  0  0  0  0  0  0  0  0  0  0
   -8.6897   23.2438  -30.5163 H   0  0  0  0  0  0  0  0  0  0  0  0
   -5.3690   24.6000  -27.8510 H   0  0  0  0  0  0  0  0  0  0  0  0
   -4.4550   25.4120  -29.2340 H   0  0  0  0  0  0  0  0  0  0  0  0
   -3.4357   22.5820  -28.5327 H   0  0  0  0  0  0  0  0  0  0  0  0
   -1.6255   22.4318  -28.0813 H   0  0  0  0  0  0  0  0  0  0  0  0
   -3.2213   24.5795  -27.6858 H   0  0  0  0  0  0  0  0  0  0  0  0
   -1.4060   24.4865  -27.7184 H   0  0  0  0  0  0  0  0  0  0  0  0
   -2.0890   24.7250  -30.2180 H   0  0  0  0  0  0  0  0  0  0  0  0
   -4.6322   20.4730  -32.6913 H   0  0  0  0  0  0  0  0  0  0  0  0
  1  2  1  0
  2  3  2  0
  3  4  1  0
  4  5  2  0
  5  6  1  0
  6  7  2  0
  7  8  1  0
  8  9  1  0
  8 10  2  0
  7 11  1  0
 11 12  1  0
 12 13  2  0
 12 14  1  0
 14 15  2  0
 14 16  1  0
 16 17  1  0
 17 18  1  0
 18 19  1  0
 11 20  1  0
 20 21  2  0
 21  2  1  0
 20  5  1  0
  1 22  1  0
  1 23  1  0
  1 24  1  0
  3 25  1  0
  4 26  1  0
  6 27  1  0
  9 28  1  0
  9 29  1  0
 17 30  1  0
 17 31  1  0
 18 32  1  0
 18 33  1  0
 19 34  1  0
 21 35  1  0
M  END
>  <smiles>  (8) 
Cc1ccc2cc(C(N)=O)n(C(=O)C(=O)OCCO)c2c1

>  <score_type>  (8) 
oracle

>  <origin>  (8) 
adg

>  <m_score__min__energy>  (8) 
-8.1899999999999995

>  <m_primary>  (8) 
energy

$$$$
9:0
     RDKit          3D

 39 40  0  0  0  0  0  0  0  0999 V2000
   -7.2190   17.0510  -32.8120 C   0  0  0  0  0  0  0  0  0  0  0  0
   -6.6390   18.2370  -33.4340 N   0  0  0  0  0  0  0  0  0  0  0  0
   -5.8800   18.0980  -34.6570 C   0  0  0  0  0  0  0  0  0  0  0  0
   -6.8090   19.5270  -32.8560 C   0  0  0  0  0  0  0  0  0  0  0  0
   -8.0650   20.0740  -32.7320 C   0  0  0  0  0  0  0  0  0  0  0  0
   -8.2060   21.3260  -32.1700 C   0  0  0  0  0  0  0  0  0  0  0  0
   -7.0820   22.0030  -31.7440 C   0  0  0  0  0  0  0  0  0  0  0  0
   -6.9360   23.2380  -31.1600 C   0  0  0  0  0  0  0  0  0  0  0  0
   -5.5760   23.4770  -30.9120 C   0  0  0  0  0  0  0  0  0  0  0  0
   -5.1150   24.7000  -30.3020 C   0  0  0  0  0  0  0  0  0  0  0  0
   -5.3850   24.9430  -28.9010 N   0  0  0  0  0  0  0  0  0  0  0  0
   -4.4780   25.6180  -30.8700 O   0  0  0  0  0  0  0  0  0  0  0  0
   -4.9100   22.3960  -31.3420 N   0  0  0  0  0  0  0  0  0  0  0  0
   -3.5200   22.1740  -31.3030 C   0  0  0  0  0  0  0  0  0  0  0  0
   -2.8440   22.2950  -32.3750 O   0  0  0  0  0  0  0  0  0  0  0  0
   -2.7880   21.8300  -30.1890 O   0  0  0  0  0  0  0  0  0  0  0  0
   -2.7430   22.6390  -29.0410 C   0  0  0  0  0  0  0  0  0  0  0  0
   -3.7840   22.9210  -28.3940 O   0  0  0  0  0  0  0  0  0  0  0  0
   -1.3990   23.1320  -28.6480 C   0  0  0  0  0  0  0  0  0  0  0  0
   -1.3130   24.6140  -28.7430 C   0  0  0  0  0  0  0  0  0  0  0  0
   -0.2750   25.2550  -28.4250 O   0  0  0  0  0  0  0  0  0  0  0  0
   -2.4330   25.2910  -29.2010 O   0  0  0  0  0  0  0  0  0  0  0  0
   -5.8050   21.4960  -31.8480 C   0  0  0  0  0  0  0  0  0  0  0  0
   -5.6880   20.2390  -32.4150 C   0  0  0  0  0  0  0  0  0  0  0  0
   -7.1705   17.1501  -31.7175 H   0  0  0  0  0  0  0  0  0  0  0  0
   -8.2686   16.9491  -33.1248 H   0  0  0  0  0  0  0  0  0  0  0  0
   -6.6550   16.1599  -33.1248 H   0  0  0  0  0  0  0  0  0  0  0  0
   -4.8248   17.9048  -34.4137 H   0  0  0  0  0  0  0  0  0  0  0  0
   -6.2807   17.2583  -35.2438 H   0  0  0  0  0  0  0  0  0  0  0  0
   -5.9571   19.0252  -35.2438 H   0  0  0  0  0  0  0  0  0  0  0  0
   -8.9490   19.5182  -33.0778 H   0  0  0  0  0  0  0  0  0  0  0  0
   -9.2026   21.7790  -32.0629 H   0  0  0  0  0  0  0  0  0  0  0  0
   -7.7570   23.9310  -30.9238 H   0  0  0  0  0  0  0  0  0  0  0  0
   -6.3580   25.2230  -28.6080 H   0  0  0  0  0  0  0  0  0  0  0  0
   -4.6030   24.8370  -28.1930 H   0  0  0  0  0  0  0  0  0  0  0  0
   -1.1959   22.8279  -27.6106 H   0  0  0  0  0  0  0  0  0  0  0  0
   -0.6576   22.6984  -29.3353 H   0  0  0  0  0  0  0  0  0  0  0  0
   -3.3800   25.0070  -28.9910 H   0  0  0  0  0  0  0  0  0  0  0  0
   -4.6900   19.7889  -32.5215 H   0  0  0  0  0  0  0  0  0  0  0  0
  1  2  1  0
  2  3  1  0
  2  4  1  0
  4  5  2  0
  5  6  1  0
  6  7  2  0
  7  8  1  0
  8  9  2  0
  9 10  1  0
 10 11  1  0
 10 12  2  0
  9 13  1  0
 13 14  1  0
 14 15  2  0
 14 16  1  0
 16 17  1  0
 17 18  2  0
 17 19  1  0
 19 20  1  0
 20 21  2  0
 20 22  1  0
 13 23  1  0
 23 24  2  0
 24  4  1  0
 23  7  1  0
  1 25  1  0
  1 26  1  0
  1 27  1  0
  3 28  1  0
  3 29  1  0
  3 30  1  0
  5 31  1  0
  6 32  1  0
  8 33  1  0
 11 34  1  0
 11 35  1  0
 19 36  1  0
 19 37  1  0
 22 38  1  0
 24 39  1  0
M  END
>  <smiles>  (9) 
CN(C)c1ccc2cc(C(N)=O)n(C(=O)OC(=O)CC(=O)O)c2c1

>  <score_type>  (9) 
oracle

>  <origin>  (9) 
adg

>  <m_score__min__energy>  (9) 
-8.4100000000000001

>  <m_primary>  (9) 
energy

$$$$
10:0
     RDKit          3D

 44 45  0  0  1  0  0  0  0  0999 V2000
   -3.6710   22.4380  -28.9410 C   0  0  0  0  0  0  0  0  0  0  0  0
   -4.0880   23.8090  -28.7550 N   0  0  0  0  0  0  0  0  0  0  0  0
   -3.9870   24.4200  -27.4300 C   0  0  0  0  0  0  0  0  0  0  0  0
   -2.5290   24.6130  -27.1820 C   0  0  0  0  0  0  0  0  0  0  0  0
   -1.8580   25.2640  -28.0810 C   0  0  0  0  0  0  0  0  0  0  0  0
   -1.2310   25.8970  -28.9520 O   0  0  0  0  0  0  0  0  0  0  0  0
   -4.6010   24.6040  -29.8170 C   0  0  0  0  0  0  0  0  0  0  0  0
   -3.8430   25.3000  -30.5650 O   0  0  0  0  0  0  0  0  0  0  0  0
   -6.0620   24.6110  -30.0410 C   0  0  0  0  0  0  0  0  0  0  0  0
   -6.5090   23.2940  -30.5770 C   0  0  0  0  0  0  0  0  0  0  0  0
   -7.7260   22.8260  -30.1410 C   0  0  0  0  0  0  0  0  0  0  0  0
   -8.1600   21.6240  -30.6150 C   0  0  0  0  0  0  0  0  0  0  0  0
   -7.3900   20.9070  -31.5080 C   0  0  0  0  0  0  0  0  0  0  0  0
   -7.5900   19.6960  -32.1270 C   0  0  0  0  0  0  0  0  0  0  0  0
   -6.5040   19.3980  -32.9520 C   0  0  0  0  0  0  0  0  0  0  0  0
   -6.4380   18.1860  -33.7280 C   0  0  0  0  0  0  0  0  0  0  0  0
   -5.8770   17.9930  -34.9930 N   0  0  0  0  0  0  0  0  0  0  0  0
   -6.9620   17.1420  -33.1950 O   0  0  0  0  0  0  0  0  0  0  0  0
   -5.6540   20.4300  -32.8270 N   0  0  0  0  0  0  0  0  0  0  0  0
   -4.4050   20.5910  -33.4690 C   0  0  0  0  0  0  0  0  0  0  0  0
   -3.7070   21.6290  -33.4580 O   0  0  0  0  0  0  0  0  0  0  0  0
   -3.8440   19.5260  -34.2040 O   0  0  0  0  0  0  0  0  0  0  0  0
   -2.9510   18.6500  -33.6370 C   0  0  0  0  0  0  0  0  0  0  0  0
   -3.0930   17.3990  -33.8320 O   0  0  0  0  0  0  0  0  0  0  0  0
   -1.8450   19.2000  -32.8110 C   0  0  0  0  0  0  0  0  0  0  0  0
   -0.9060   18.2030  -32.5650 F   0  0  0  0  0  0  0  0  0  0  0  0
   -2.2750   19.7550  -31.6360 F   0  0  0  0  0  0  0  0  0  0  0  0
   -1.2060   20.1810  -33.5670 F   0  0  0  0  0  0  0  0  0  0  0  0
   -6.1680   21.3520  -31.9610 C   0  0  0  0  0  0  0  0  0  0  0  0
   -5.7400   22.5710  -31.4730 C   0  0  0  0  0  0  0  0  0  0  0  0
   -3.5263   21.9624  -27.9597 H   0  0  0  0  0  0  0  0  0  0  0  0
   -4.4439   21.8926  -29.5024 H   0  0  0  0  0  0  0  0  0  0  0  0
   -2.7253   22.4153  -29.5024 H   0  0  0  0  0  0  0  0  0  0  0  0
   -4.5098   25.3877  -27.4135 H   0  0  0  0  0  0  0  0  0  0  0  0
   -4.4493   23.7889  -26.6567 H   0  0  0  0  0  0  0  0  0  0  0  0
   -2.0439   24.2204  -26.2762 H   0  0  0  0  0  0  0  0  0  0  0  0
   -6.5744   24.8077  -29.0877 H   0  0  0  0  0  0  0  0  0  0  0  0
   -6.3086   25.3967  -30.7703 H   0  0  0  0  0  0  0  0  0  0  0  0
   -8.3326   23.4055  -29.4295 H   0  0  0  0  0  0  0  0  0  0  0  0
   -9.1294   21.2232  -30.2839 H   0  0  0  0  0  0  0  0  0  0  0  0
   -8.4748   19.0565  -31.9922 H   0  0  0  0  0  0  0  0  0  0  0  0
   -6.4770   18.1270  -35.8610 H   0  0  0  0  0  0  0  0  0  0  0  0
   -4.8680   17.7140  -35.0520 H   0  0  0  0  0  0  0  0  0  0  0  0
   -4.7711   22.9746  -31.8020 H   0  0  0  0  0  0  0  0  0  0  0  0
  1  2  1  0
  2  3  1  0
  3  4  1  0
  4  5  2  0
  5  6  2  0
  2  7  1  0
  7  8  2  0
  7  9  1  0
  9 10  1  0
 10 11  2  0
 11 12  1  0
 12 13  2  0
 13 14  1  0
 14 15  2  0
 15 16  1  0
 16 17  1  0
 16 18  2  0
 15 19  1  0
 19 20  1  0
 20 21  2  0
 20 22  1  0
 22 23  1  0
 23 24  2  0
 23 25  1  0
 25 26  1  0
 25 27  1  0
 25 28  1  0
 19 29  1  0
 29 30  2  0
 30 10  1  0
 29 13  1  0
  1 31  1  0
  1 32  1  0
  1 33  1  0
  3 34  1  0
  3 35  1  0
  4 36  1  0
  9 37  1  0
  9 38  1  0
 11 39  1  0
 12 40  1  0
 14 41  1  0
 17 42  1  0
 17 43  1  0
 30 44  1  0
M  END
>  <smiles>  (10) 
CN(CC=C=O)C(=O)Cc1ccc2cc(C(N)=O)n(C(=O)OC(=O)C(F)(F)F)c2c1

>  <score_type>  (10) 
oracle

>  <origin>  (10) 
adg

>  <m_score__min__energy>  (10) 
-8.9100000000000001

>  <m_primary>  (10) 
energy

$$$$
11:0
     RDKit          3D

 43 45  0  0  0  0  0  0  0  0999 V2000
   -1.2500   22.0230  -30.6460 C   0  0  0  0  0  0  0  0  0  0  0  0
   -2.5140   22.8520  -30.4680 N   0  0  0  0  0  0  0  0  0  0  0  0
   -2.4070   23.7490  -29.4100 C   0  0  0  0  0  0  0  0  0  0  0  0
   -2.3930   23.1910  -28.2310 O   0  0  0  0  0  0  0  0  0  0  0  0
   -2.3200   25.1080  -29.3810 O   0  0  0  0  0  0  0  0  0  0  0  0
   -3.5230   22.4570  -31.3230 C   0  0  0  0  0  0  0  0  0  0  0  0
   -3.0150   21.8490  -32.3940 O   0  0  0  0  0  0  0  0  0  0  0  0
   -4.9110   22.5220  -31.3520 N   0  0  0  0  0  0  0  0  0  0  0  0
   -5.6260   23.5300  -30.7720 C   0  0  0  0  0  0  0  0  0  0  0  0
   -5.2050   24.7950  -30.2020 C   0  0  0  0  0  0  0  0  0  0  0  0
   -4.9610   24.9100  -28.7700 N   0  0  0  0  0  0  0  0  0  0  0  0
   -5.0150   25.8660  -30.8230 O   0  0  0  0  0  0  0  0  0  0  0  0
   -6.9870   23.2080  -30.8470 C   0  0  0  0  0  0  0  0  0  0  0  0
   -7.1060   22.0110  -31.4670 C   0  0  0  0  0  0  0  0  0  0  0  0
   -8.2330   21.2670  -31.7400 C   0  0  0  0  0  0  0  0  0  0  0  0
   -8.0520   20.0300  -32.3520 C   0  0  0  0  0  0  0  0  0  0  0  0
   -6.8090   19.5400  -32.6850 C   0  0  0  0  0  0  0  0  0  0  0  0
   -6.5790   18.3020  -33.3320 N   0  0  0  0  0  0  0  0  0  0  0  0
   -7.3200   17.1320  -32.7660 C   0  0  0  0  0  0  0  0  0  0  0  0
   -5.7560   17.9950  -34.4340 C   0  0  0  0  0  0  0  0  0  0  0  0
   -4.3120   18.2840  -34.5010 C   0  0  0  0  0  0  0  0  0  0  0  0
   -4.2130   17.1550  -35.3920 O   0  0  0  0  0  0  0  0  0  0  0  0
   -5.1970   16.5830  -34.5390 C   0  0  0  0  0  0  0  0  0  0  0  0
   -5.7320   20.3570  -32.3740 C   0  0  0  0  0  0  0  0  0  0  0  0
   -5.8330   21.5910  -31.7750 C   0  0  0  0  0  0  0  0  0  0  0  0
   -0.8441   21.7568  -29.6589 H   0  0  0  0  0  0  0  0  0  0  0  0
   -1.4888   21.1055  -31.2039 H   0  0  0  0  0  0  0  0  0  0  0  0
   -0.5036   22.6076  -31.2039 H   0  0  0  0  0  0  0  0  0  0  0  0
   -3.1090   25.6800  -29.7130 H   0  0  0  0  0  0  0  0  0  0  0  0
   -5.4920   25.6170  -28.2140 H   0  0  0  0  0  0  0  0  0  0  0  0
   -4.2620   24.2920  -28.2980 H   0  0  0  0  0  0  0  0  0  0  0  0
   -7.8166   23.8225  -30.4672 H   0  0  0  0  0  0  0  0  0  0  0  0
   -9.2371   21.6363  -31.4842 H   0  0  0  0  0  0  0  0  0  0  0  0
   -8.9381   19.4190  -32.5789 H   0  0  0  0  0  0  0  0  0  0  0  0
   -7.2917   17.1767  -31.6673 H   0  0  0  0  0  0  0  0  0  0  0  0
   -8.3653   17.1601  -33.1073 H   0  0  0  0  0  0  0  0  0  0  0  0
   -6.8478   16.1990  -33.1073 H   0  0  0  0  0  0  0  0  0  0  0  0
   -6.4944   18.4923  -35.0802 H   0  0  0  0  0  0  0  0  0  0  0  0
   -4.0554   19.2533  -34.9533 H   0  0  0  0  0  0  0  0  0  0  0  0
   -3.6901   18.3739  -33.5981 H   0  0  0  0  0  0  0  0  0  0  0  0
   -5.8635   15.8524  -35.0205 H   0  0  0  0  0  0  0  0  0  0  0  0
   -4.9409   15.9772  -33.6573 H   0  0  0  0  0  0  0  0  0  0  0  0
   -4.7250   19.9918  -32.6244 H   0  0  0  0  0  0  0  0  0  0  0  0
  1  2  1  0
  2  3  1  0
  3  4  2  0
  3  5  1  0
  2  6  1  0
  6  7  2  0
  6  8  1  0
  8  9  1  0
  9 10  1  0
 10 11  1  0
 10 12  2  0
  9 13  2  0
 13 14  1  0
 14 15  2  0
 15 16  1  0
 16 17  2  0
 17 18  1  0
 18 19  1  0
 18 20  1  0
 20 21  1  0
 21 22  1  0
 22 23  1  0
 17 24  1  0
 24 25  2  0
 25  8  1  0
 25 14  1  0
 23 20  1  0
  1 26  1  0
  1 27  1  0
  1 28  1  0
  5 29  1  0
 11 30  1  0
 11 31  1  0
 13 32  1  0
 15 33  1  0
 16 34  1  0
 19 35  1  0
 19 36  1  0
 19 37  1  0
 20 38  1  0
 21 39  1  0
 21 40  1  0
 23 41  1  0
 23 42  1  0
 24 43  1  0
M  END
>  <smiles>  (11) 
CN(C(=O)O)C(=O)n1c(C(N)=O)cc2ccc(N(C)C3COC3)cc21

>  <score_type>  (11) 
oracle

>  <origin>  (11) 
adg

>  <m_score__min__energy>  (11) 
-9.6400000000000006

>  <m_primary>  (11) 
energy

$$$$
12:0
     RDKit          3D

 47 49  0  0  0  0  0  0  0  0999 V2000
   -1.3990   21.6770  -28.6110 C   0  0  0  0  0  0  0  0  0  0  0  0
   -2.2140   22.8970  -28.5790 N   0  0  0  0  0  0  0  0  0  0  0  0
   -2.4440   23.6590  -29.7570 C   0  0  0  0  0  0  0  0  0  0  0  0
   -2.2980   24.8940  -29.7200 O   0  0  0  0  0  0  0  0  0  0  0  0
   -2.8600   22.9070  -31.0050 C   0  0  0  0  0  0  0  0  0  0  0  0
   -4.0980   22.1780  -30.7320 C   0  0  0  0  0  0  0  0  0  0  0  0
   -3.8930   20.9970  -30.2550 O   0  0  0  0  0  0  0  0  0  0  0  0
   -5.4330   22.5630  -30.9030 N   0  0  0  0  0  0  0  0  0  0  0  0
   -6.0440   23.7590  -30.7200 C   0  0  0  0  0  0  0  0  0  0  0  0
   -5.5180   25.0420  -30.3410 C   0  0  0  0  0  0  0  0  0  0  0  0
   -6.1060   25.7100  -29.1840 N   0  0  0  0  0  0  0  0  0  0  0  0
   -4.6040   25.7040  -30.8580 O   0  0  0  0  0  0  0  0  0  0  0  0
   -7.4150   23.5970  -31.0080 C   0  0  0  0  0  0  0  0  0  0  0  0
   -7.6230   22.3000  -31.3630 C   0  0  0  0  0  0  0  0  0  0  0  0
   -8.7750   21.6540  -31.7300 C   0  0  0  0  0  0  0  0  0  0  0  0
   -8.7650   20.3220  -32.0560 C   0  0  0  0  0  0  0  0  0  0  0  0
   -7.5670   19.6600  -32.0010 C   0  0  0  0  0  0  0  0  0  0  0  0
   -7.5270   18.2070  -32.3520 C   0  0  0  0  0  0  0  0  0  0  0  0
   -8.7470   17.6690  -32.0570 F   0  0  0  0  0  0  0  0  0  0  0  0
   -6.5960   17.6240  -31.4970 F   0  0  0  0  0  0  0  0  0  0  0  0
   -7.2220   17.9910  -33.6660 F   0  0  0  0  0  0  0  0  0  0  0  0
   -6.4030   20.3280  -31.6270 C   0  0  0  0  0  0  0  0  0  0  0  0
   -6.4040   21.6770  -31.2960 C   0  0  0  0  0  0  0  0  0  0  0  0
   -2.7830   23.3080  -27.3110 C   0  0  1  0  0  0  0  0  0  0  0  0
   -2.1160   24.5500  -26.7660 C   0  0  0  0  0  0  0  0  0  0  0  0
   -3.2460   25.3170  -26.1680 C   0  0  0  0  0  0  0  0  0  0  0  0
   -4.4800   24.8890  -26.7880 N   0  0  0  0  0  0  0  0  0  0  0  0
   -4.2110   23.6790  -27.5290 C   0  0  0  0  0  0  0  0  0  0  0  0
   -1.1828   21.3534  -27.5822 H   0  0  0  0  0  0  0  0  0  0  0  0
   -1.9485   20.8827  -29.1374 H   0  0  0  0  0  0  0  0  0  0  0  0
   -0.4548   21.8805  -29.1374 H   0  0  0  0  0  0  0  0  0  0  0  0
   -3.0252   23.6193  -31.8268 H   0  0  0  0  0  0  0  0  0  0  0  0
   -2.0685   22.1997  -31.2935 H   0  0  0  0  0  0  0  0  0  0  0  0
   -6.0900   25.2500  -28.2430 H   0  0  0  0  0  0  0  0  0  0  0  0
   -6.5150   26.6370  -29.3880 H   0  0  0  0  0  0  0  0  0  0  0  0
   -8.1829   24.3828  -30.9549 H   0  0  0  0  0  0  0  0  0  0  0  0
   -9.7220   22.2126  -31.7635 H   0  0  0  0  0  0  0  0  0  0  0  0
   -9.6883   19.8024  -32.3518 H   0  0  0  0  0  0  0  0  0  0  0  0
   -5.4552   19.7707  -31.5928 H   0  0  0  0  0  0  0  0  0  0  0  0
   -2.6516   22.4715  -26.6089 H   0  0  0  0  0  0  0  0  0  0  0  0
   -1.3680   24.2917  -26.0019 H   0  0  0  0  0  0  0  0  0  0  0  0
   -1.5724   25.1176  -27.5356 H   0  0  0  0  0  0  0  0  0  0  0  0
   -3.2905   25.1260  -25.0856 H   0  0  0  0  0  0  0  0  0  0  0  0
   -3.0971   26.3938  -26.3365 H   0  0  0  0  0  0  0  0  0  0  0  0
   -4.8400   25.6680  -27.3690 H   0  0  0  0  0  0  0  0  0  0  0  0
   -4.8649   22.8700  -27.1714 H   0  0  0  0  0  0  0  0  0  0  0  0
   -4.4034   23.8383  -28.6003 H   0  0  0  0  0  0  0  0  0  0  0  0
  1  2  1  0
  2  3  1  0
  3  4  2  0
  3  5  1  0
  5  6  1  0
  6  7  2  0
  6  8  1  0
  8  9  1  0
  9 10  1  0
 10 11  1  0
 10 12  2  0
  9 13  2  0
 13 14  1  0
 14 15  2  0
 15 16  1  0
 16 17  2  0
 17 18  1  0
 18 19  1  0
 18 20  1  0
 18 21  1  0
 17 22  1  0
 22 23  2  0
  2 24  1  0
 24 25  1  0
 25 26  1  0
 26 27  1  0
 27 28  1  0
 23  8  1  0
 28 24  1  0
 23 14  1  0
  1 29  1  0
  1 30  1  0
  1 31  1  0
  5 32  1  0
  5 33  1  0
 11 34  1  0
 11 35  1  0
 13 36  1  0
 15 37  1  0
 16 38  1  0
 22 39  1  0
 24 40  1  1
 25 41  1  0
 25 42  1  0
 26 43  1  0
 26 44  1  0
 27 45  1  0
 28 46  1  0
 28 47  1  0
M  END
>  <smiles>  (12) 
CN(C(=O)CC(=O)n1c(C(N)=O)cc2ccc(C(F)(F)F)cc21)[C@H]1CCNC1

>  <score_type>  (12) 
oracle

>  <origin>  (12) 
adg

>  <m_score__min__energy>  (12) 
-9.3399999999999999

>  <m_primary>  (12) 
energy

$$$$
13:0
     RDKit          3D

 36 37  0  0  0  0  0  0  0  0999 V2000
   -1.1940   22.0730  -30.6320 C   0  0  0  0  0  0  0  0  0  0  0  0
   -2.5840   22.4300  -30.5670 N   0  0  0  0  0  0  0  0  0  0  0  0
   -2.8920   23.1250  -29.2950 C   0  0  0  0  0  0  0  0  0  0  0  0
   -2.7450   24.3670  -29.3490 O   0  0  0  0  0  0  0  0  0  0  0  0
   -3.4170   22.2330  -27.8560 S   0  0  0  0  0  0  0  0  0  0  0  0
   -2.5530   20.6840  -27.6210 C   0  0  0  0  0  0  0  0  0  0  0  0
   -2.2430   20.0490  -28.8020 F   0  0  0  0  0  0  0  0  0  0  0  0
   -1.3910   20.9460  -26.9390 F   0  0  0  0  0  0  0  0  0  0  0  0
   -3.2920   19.8140  -26.8280 F   0  0  0  0  0  0  0  0  0  0  0  0
   -3.6320   22.2530  -31.4450 C   0  0  0  0  0  0  0  0  0  0  0  0
   -3.2030   22.0490  -32.6840 O   0  0  0  0  0  0  0  0  0  0  0  0
   -5.0230   22.2400  -31.3860 N   0  0  0  0  0  0  0  0  0  0  0  0
   -5.7520   23.3510  -31.0600 C   0  0  0  0  0  0  0  0  0  0  0  0
   -5.3670   24.6510  -30.5550 C   0  0  0  0  0  0  0  0  0  0  0  0
   -5.3670   24.8990  -29.1160 N   0  0  0  0  0  0  0  0  0  0  0  0
   -5.0140   25.6500  -31.2200 O   0  0  0  0  0  0  0  0  0  0  0  0
   -7.1160   23.0410  -31.2130 C   0  0  0  0  0  0  0  0  0  0  0  0
   -7.2190   21.7540  -31.6270 C   0  0  0  0  0  0  0  0  0  0  0  0
   -8.3370   21.0110  -31.9350 C   0  0  0  0  0  0  0  0  0  0  0  0
   -8.2210   19.7160  -32.3760 C   0  0  0  0  0  0  0  0  0  0  0  0
   -6.9490   19.2080  -32.4970 C   0  0  0  0  0  0  0  0  0  0  0  0
   -6.7880   17.7960  -32.9820 C   0  0  0  0  0  0  0  0  0  0  0  0
   -7.9410   17.0990  -32.7510 F   0  0  0  0  0  0  0  0  0  0  0  0
   -6.5010   17.9070  -34.3340 F   0  0  0  0  0  0  0  0  0  0  0  0
   -5.7040   17.2200  -32.3400 F   0  0  0  0  0  0  0  0  0  0  0  0
   -5.8280   19.9750  -32.1810 C   0  0  0  0  0  0  0  0  0  0  0  0
   -5.9250   21.2740  -31.7310 C   0  0  0  0  0  0  0  0  0  0  0  0
   -0.7938   21.9702  -29.6126 H   0  0  0  0  0  0  0  0  0  0  0  0
   -1.0854   21.1178  -31.1666 H   0  0  0  0  0  0  0  0  0  0  0  0
   -0.6385   22.8576  -31.1666 H   0  0  0  0  0  0  0  0  0  0  0  0
   -6.0920   24.4180  -28.5080 H   0  0  0  0  0  0  0  0  0  0  0  0
   -4.6700   25.5370  -28.6810 H   0  0  0  0  0  0  0  0  0  0  0  0
   -7.9562   23.7265  -31.0281 H   0  0  0  0  0  0  0  0  0  0  0  0
   -9.3350   21.4606  -31.8263 H   0  0  0  0  0  0  0  0  0  0  0  0
   -9.1066   19.1115  -32.6217 H   0  0  0  0  0  0  0  0  0  0  0  0
   -4.8299   19.5268  -32.2951 H   0  0  0  0  0  0  0  0  0  0  0  0
  1  2  1  0
  2  3  1  0
  3  4  2  0
  3  5  1  0
  5  6  1  0
  6  7  1  0
  6  8  1  0
  6  9  1  0
  2 10  1  0
 10 11  2  0
 10 12  1  0
 12 13  1  0
 13 14  1  0
 14 15  1  0
 14 16  2  0
 13 17  2  0
 17 18  1  0
 18 19  2  0
 19 20  1  0
 20 21  2  0
 21 22  1  0
 22 23  1  0
 22 24  1  0
 22 25  1  0
 21 26  1  0
 26 27  2  0
 27 12  1  0
 27 18  1  0
  1 28  1  0
  1 29  1  0
  1 30  1  0
 15 31  1  0
 15 32  1  0
 17 33  1  0
 19 34  1  0
 20 35  1  0
 26 36  1  0
M  END
>  <smiles>  (13) 
CN(C(=O)SC(F)(F)F)C(=O)n1c(C(N)=O)cc2ccc(C(F)(F)F)cc21

>  <score_type>  (13) 
oracle

>  <origin>  (13) 
adg

>  <m_score__min__energy>  (13) 
-8.0099999999999998

>  <m_primary>  (13) 
energy

$$$$
14:0
     RDKit          3D

 39 40  0  0  0  0  0  0  0  0999 V2000
   -6.9680   17.9840  -33.0110 C   0  0  0  0  0  0  0  0  0  0  0  0
   -6.9950   19.3940  -32.5410 C   0  0  0  0  0  0  0  0  0  0  0  0
   -8.1800   20.0760  -32.6510 C   0  0  0  0  0  0  0  0  0  0  0  0
   -8.2040   21.3810  -32.2160 C   0  0  0  0  0  0  0  0  0  0  0  0
   -7.0600   21.9680  -31.6870 C   0  0  0  0  0  0  0  0  0  0  0  0
   -6.8790   23.2130  -31.2110 C   0  0  0  0  0  0  0  0  0  0  0  0
   -5.5370   23.2870  -30.8000 C   0  0  0  0  0  0  0  0  0  0  0  0
   -5.0330   24.5670  -30.3110 C   0  0  0  0  0  0  0  0  0  0  0  0
   -5.2170   24.9300  -28.9200 N   0  0  0  0  0  0  0  0  0  0  0  0
   -4.4320   25.4190  -30.9950 O   0  0  0  0  0  0  0  0  0  0  0  0
   -4.9070   22.1300  -31.0040 N   0  0  0  0  0  0  0  0  0  0  0  0
   -3.6670   21.6110  -30.6040 C   0  0  0  0  0  0  0  0  0  0  0  0
   -3.7740   20.7470  -29.6120 O   0  0  0  0  0  0  0  0  0  0  0  0
   -2.3560   21.8010  -30.9980 N   0  0  0  0  0  0  0  0  0  0  0  0
   -1.5250   21.0870  -31.9320 C   0  0  0  0  0  0  0  0  0  0  0  0
   -1.6370   22.9480  -30.3610 C   0  0  0  0  0  0  0  0  0  0  0  0
   -1.8470   22.9440  -28.8790 C   0  0  0  0  0  0  0  0  0  0  0  0
   -2.4220   24.2390  -28.4150 C   0  0  0  0  0  0  0  0  0  0  0  0
   -2.9380   24.3870  -27.2750 O   0  0  0  0  0  0  0  0  0  0  0  0
   -2.3530   25.3000  -29.3370 O   0  0  0  0  0  0  0  0  0  0  0  0
   -5.8640   21.3100  -31.5640 C   0  0  0  0  0  0  0  0  0  0  0  0
   -5.8570   19.9930  -32.0090 C   0  0  0  0  0  0  0  0  0  0  0  0
   -6.9551   17.3084  -32.1430 H   0  0  0  0  0  0  0  0  0  0  0  0
   -7.8625   17.7829  -33.6189 H   0  0  0  0  0  0  0  0  0  0  0  0
   -6.0665   17.8173  -33.6189 H   0  0  0  0  0  0  0  0  0  0  0  0
   -9.0771   19.5977  -33.0711 H   0  0  0  0  0  0  0  0  0  0  0  0
   -9.1342   21.9637  -32.2872 H   0  0  0  0  0  0  0  0  0  0  0  0
   -7.6313   24.0136  -31.1547 H   0  0  0  0  0  0  0  0  0  0  0  0
   -6.1710   24.8070  -28.4740 H   0  0  0  0  0  0  0  0  0  0  0  0
   -4.4150   25.3110  -28.3640 H   0  0  0  0  0  0  0  0  0  0  0  0
   -0.8030   20.4667  -31.3806 H   0  0  0  0  0  0  0  0  0  0  0  0
   -2.1538   20.4432  -32.5645 H   0  0  0  0  0  0  0  0  0  0  0  0
   -0.9832   21.8056  -32.5645 H   0  0  0  0  0  0  0  0  0  0  0  0
   -0.5611   22.8633  -30.5739 H   0  0  0  0  0  0  0  0  0  0  0  0
   -2.0336   23.8878  -30.7728 H   0  0  0  0  0  0  0  0  0  0  0  0
   -2.5379   22.1294  -28.6162 H   0  0  0  0  0  0  0  0  0  0  0  0
   -0.8733   22.7983  -28.3885 H   0  0  0  0  0  0  0  0  0  0  0  0
   -3.0970   26.0120  -29.3490 H   0  0  0  0  0  0  0  0  0  0  0  0
   -4.9275   19.4090  -31.9388 H   0  0  0  0  0  0  0  0  0  0  0  0
  1  2  1  0
  2  3  2  0
  3  4  1  0
  4  5  2  0
  5  6  1  0
  6  7  2  0
  7  8  1  0
  8  9  1  0
  8 10  2  0
  7 11  1  0
 11 12  1  0
 12 13  2  0
 12 14  1  0
 14 15  1  0
 14 16  1  0
 16 17  1  0
 17 18  1  0
 18 19  2  0
 18 20  1  0
 11 21  1  0
 21 22  2  0
 22  2  1  0
 21  5  1  0
  1 23  1  0
  1 24  1  0
  1 25  1  0
  3 26  1  0
  4 27  1  0
  6 28  1  0
  9 29  1  0
  9 30  1  0
 15 31  1  0
 15 32  1  0
 15 33  1  0
 16 34  1  0
 16 35  1  0
 17 36  1  0
 17 37  1  0
 20 38  1  0
 22 39  1  0
M  END
>  <smiles>  (14) 
Cc1ccc2cc(C(N)=O)n(C(=O)N(C)CCC(=O)O)c2c1

>  <score_type>  (14) 
oracle

>  <origin>  (14) 
adg

>  <m_score__min__energy>  (14) 
-8.8800000000000008

>  <m_primary>  (14) 
energy

$$$$
15:0
     RDKit          3D

 52 53  0  0  1  0  0  0  0  0999 V2000
   -8.4860   22.3400  -32.0090 C   0  0  0  0  0  0  0  0  0  0  0  0
   -8.1250   20.9040  -32.1840 C   0  0  0  0  0  0  0  0  0  0  0  0
   -9.1190   19.9610  -32.0840 C   0  0  0  0  0  0  0  0  0  0  0  0
   -8.7580   18.6450  -32.2490 C   0  0  0  0  0  0  0  0  0  0  0  0
   -7.4580   18.2860  -32.5040 C   0  0  0  0  0  0  0  0  0  0  0  0
   -6.9020   17.0610  -32.6970 C   0  0  0  0  0  0  0  0  0  0  0  0
   -5.5210   17.2300  -32.9250 C   0  0  0  0  0  0  0  0  0  0  0  0
   -4.6790   16.0960  -33.1600 C   0  0  0  0  0  0  0  0  0  0  0  0
   -4.5340   14.8870  -32.4770 N   0  0  0  0  0  0  0  0  0  0  0  0
   -3.8960   16.1880  -34.1900 O   0  0  0  0  0  0  0  0  0  0  0  0
   -5.2520   18.5650  -32.8680 N   0  0  0  0  0  0  0  0  0  0  0  0
   -4.0610   19.2520  -33.0230 C   0  0  0  0  0  0  0  0  0  0  0  0
   -3.7860   19.6880  -34.2180 O   0  0  0  0  0  0  0  0  0  0  0  0
   -3.0080   19.5980  -32.0700 C   0  0  0  0  0  0  0  0  0  0  0  0
   -2.6070   21.0270  -32.2780 N   0  0  0  0  0  0  0  0  0  0  0  0
   -1.1630   21.3290  -32.2480 C   0  0  0  0  0  0  0  0  0  0  0  0
   -0.6110   21.2340  -33.6440 C   0  0  0  0  0  0  0  0  0  0  0  0
    0.5610   21.5980  -33.9160 O   0  0  0  0  0  0  0  0  0  0  0  0
   -1.4580   20.7290  -34.6090 O   0  0  0  0  0  0  0  0  0  0  0  0
   -3.5380   22.0540  -32.4980 C   0  0  0  0  0  0  0  0  0  0  0  0
   -3.7970   22.3240  -33.7270 O   0  0  0  0  0  0  0  0  0  0  0  0
   -4.2350   22.8360  -31.5120 C   0  0  0  0  0  0  0  0  0  0  0  0
   -3.9300   22.9230  -30.2920 O   0  0  0  0  0  0  0  0  0  0  0  0
   -5.3830   23.6030  -31.8980 N   0  0  0  0  0  0  0  0  0  0  0  0
   -6.1130   24.4040  -30.9360 C   0  0  1  0  0  0  0  0  0  0  0  0
   -6.6770   23.5540  -29.8150 C   0  0  0  0  0  0  0  0  0  0  0  0
   -5.1900   25.4210  -30.3140 C   0  0  0  0  0  0  0  0  0  0  0  0
   -4.1070   25.6520  -31.1830 O   0  0  0  0  0  0  0  0  0  0  0  0
   -6.4430   19.1990  -32.6100 C   0  0  0  0  0  0  0  0  0  0  0  0
   -6.8050   20.5290  -32.4440 C   0  0  0  0  0  0  0  0  0  0  0  0
   -8.5451   22.5751  -30.9360 H   0  0  0  0  0  0  0  0  0  0  0  0
   -7.7186   22.9711  -32.4809 H   0  0  0  0  0  0  0  0  0  0  0  0
   -9.4607   22.5332  -32.4809 H   0  0  0  0  0  0  0  0  0  0  0  0
  -10.1613   20.2474  -31.8802 H   0  0  0  0  0  0  0  0  0  0  0  0
   -9.5277   17.8626  -32.1751 H   0  0  0  0  0  0  0  0  0  0  0  0
   -7.4383   16.1008  -32.6785 H   0  0  0  0  0  0  0  0  0  0  0  0
   -5.1310   14.0820  -32.7610 H   0  0  0  0  0  0  0  0  0  0  0  0
   -3.8340   14.8190  -31.7070 H   0  0  0  0  0  0  0  0  0  0  0  0
   -3.3822   19.4662  -31.0440 H   0  0  0  0  0  0  0  0  0  0  0  0
   -2.1381   18.9431  -32.2257 H   0  0  0  0  0  0  0  0  0  0  0  0
   -1.0074   22.3460  -31.8588 H   0  0  0  0  0  0  0  0  0  0  0  0
   -0.6473   20.6087  -31.5959 H   0  0  0  0  0  0  0  0  0  0  0  0
   -2.3630   21.1730  -34.8130 H   0  0  0  0  0  0  0  0  0  0  0  0
   -5.7320   23.6080  -32.8940 H   0  0  0  0  0  0  0  0  0  0  0  0
   -6.9376   24.8907  -31.4774 H   0  0  0  0  0  0  0  0  0  0  0  0
   -6.3893   23.9875  -28.8458 H   0  0  0  0  0  0  0  0  0  0  0  0
   -7.7739   23.5254  -29.8928 H   0  0  0  0  0  0  0  0  0  0  0  0
   -6.2771   22.5322  -29.8928 H   0  0  0  0  0  0  0  0  0  0  0  0
   -5.7362   26.3613  -30.1480 H   0  0  0  0  0  0  0  0  0  0  0  0
   -4.8179   25.0434  -29.3502 H   0  0  0  0  0  0  0  0  0  0  0  0
   -3.4870   24.8680  -31.2150 H   0  0  0  0  0  0  0  0  0  0  0  0
   -6.0319   21.3079  -32.5192 H   0  0  0  0  0  0  0  0  0  0  0  0
  1  2  1  0
  2  3  2  0
  3  4  1  0
  4  5  2  0
  5  6  1  0
  6  7  2  0
  7  8  1  0
  8  9  1  0
  8 10  2  0
  7 11  1  0
 11 12  1  0
 12 13  2  0
 12 14  1  0
 14 15  1  0
 15 16  1  0
 16 17  1  0
 17 18  2  0
 17 19  1  0
 15 20  1  0
 20 21  2  0
 20 22  1  0
 22 23  2  0
 22 24  1  0
 24 25  1  0
 25 26  1  0
 25 27  1  0
 27 28  1  0
 11 29  1  0
 29 30  2  0
 30  2  1  0
 29  5  1  0
  1 31  1  0
  1 32  1  0
  1 33  1  0
  3 34  1  0
  4 35  1  0
  6 36  1  0
  9 37  1  0
  9 38  1  0
 14 39  1  0
 14 40  1  0
 16 41  1  0
 16 42  1  0
 19 43  1  0
 24 44  1  0
 25 45  1  6
 26 46  1  0
 26 47  1  0
 26 48  1  0
 27 49  1  0
 27 50  1  0
 28 51  1  0
 30 52  1  0
M  END
>  <smiles>  (15) 
Cc1ccc2cc(C(N)=O)n(C(=O)CN(CC(=O)O)C(=O)C(=O)NC(C)CO)c2c1

>  <score_type>  (15) 
oracle

>  <origin>  (15) 
adg

>  <m_score__min__energy>  (15) 
-9.0099999999999998

>  <m_primary>  (15) 
energy

$$$$
16:0
     RDKit          3D

 46 49  0  0  1  0  0  0  0  0999 V2000
   -4.3660   16.6160  -34.6660 C   0  0  0  0  0  0  0  0  0  0  0  0
   -5.4650   16.0180  -33.9460 N   0  0  0  0  0  0  0  0  0  0  0  0
   -5.2380   16.0350  -32.5130 C   0  0  0  0  0  0  0  0  0  0  0  0
   -6.0880   17.1490  -31.9330 C   0  0  0  0  0  0  0  0  0  0  0  0
   -6.3340   17.9820  -33.1900 C   0  0  2  0  0  0  0  0  0  0  0  0
   -7.5190   18.7700  -33.0890 N   0  0  0  0  0  0  0  0  0  0  0  0
   -7.5970   20.0480  -32.4560 C   0  0  0  0  0  0  0  0  0  0  0  0
   -8.8090   20.5020  -31.9880 C   0  0  0  0  0  0  0  0  0  0  0  0
   -8.8450   21.7370  -31.3750 C   0  0  0  0  0  0  0  0  0  0  0  0
   -7.6860   22.4760  -31.2490 C   0  0  0  0  0  0  0  0  0  0  0  0
   -7.5040   23.7050  -30.6850 C   0  0  0  0  0  0  0  0  0  0  0  0
   -6.1360   24.0100  -30.8160 C   0  0  0  0  0  0  0  0  0  0  0  0
   -5.6490   25.3010  -30.3570 C   0  0  0  0  0  0  0  0  0  0  0  0
   -4.3770   25.8510  -30.6340 N   0  0  0  0  0  0  0  0  0  0  0  0
   -6.4200   26.0140  -29.6540 O   0  0  0  0  0  0  0  0  0  0  0  0
   -5.5010   23.0030  -31.4330 N   0  0  0  0  0  0  0  0  0  0  0  0
   -4.1380   22.7440  -31.6550 C   0  0  0  0  0  0  0  0  0  0  0  0
   -3.3130   23.6150  -31.2130 O   0  0  0  0  0  0  0  0  0  0  0  0
   -3.5160   21.6310  -32.3270 C   0  0  0  0  0  0  0  0  0  0  0  0
   -3.2320   20.4280  -31.6630 C   0  0  0  0  0  0  0  0  0  0  0  0
   -2.5600   19.5930  -32.5480 C   0  0  0  0  0  0  0  0  0  0  0  0
   -2.4470   20.2760  -33.6970 N   0  0  0  0  0  0  0  0  0  0  0  0
   -3.0090   21.4580  -33.5490 N   0  0  0  0  0  0  0  0  0  0  0  0
   -6.4600   22.0610  -31.7030 C   0  0  0  0  0  0  0  0  0  0  0  0
   -6.4340   20.8150  -32.3180 C   0  0  0  0  0  0  0  0  0  0  0  0
   -6.6390   16.8220  -34.1550 C   0  0  0  0  0  0  0  0  0  0  0  0
   -3.6325   17.0151  -33.9500 H   0  0  0  0  0  0  0  0  0  0  0  0
   -3.8848   15.8554  -35.2983 H   0  0  0  0  0  0  0  0  0  0  0  0
   -4.7433   17.4332  -35.2983 H   0  0  0  0  0  0  0  0  0  0  0  0
   -5.5321   15.0701  -32.0742 H   0  0  0  0  0  0  0  0  0  0  0  0
   -4.1738   16.2018  -32.2900 H   0  0  0  0  0  0  0  0  0  0  0  0
   -7.0273   16.7658  -31.5077 H   0  0  0  0  0  0  0  0  0  0  0  0
   -5.6250   17.6969  -31.0991 H   0  0  0  0  0  0  0  0  0  0  0  0
   -5.5218   18.6806  -33.4396 H   0  0  0  0  0  0  0  0  0  0  0  0
   -8.4010   18.3590  -33.5210 H   0  0  0  0  0  0  0  0  0  0  0  0
   -9.7216   19.8980  -32.0995 H   0  0  0  0  0  0  0  0  0  0  0  0
   -9.7955   22.1323  -30.9873 H   0  0  0  0  0  0  0  0  0  0  0  0
   -8.2759   24.3348  -30.2187 H   0  0  0  0  0  0  0  0  0  0  0  0
   -3.8750   26.4170  -29.9050 H   0  0  0  0  0  0  0  0  0  0  0  0
   -3.9670   25.6680  -31.5880 H   0  0  0  0  0  0  0  0  0  0  0  0
   -3.4955   20.1874  -30.6225 H   0  0  0  0  0  0  0  0  0  0  0  0
   -2.1940   18.5754  -32.3464 H   0  0  0  0  0  0  0  0  0  0  0  0
   -3.0420   22.1710  -34.3070 H   0  0  0  0  0  0  0  0  0  0  0  0
   -5.4811   20.4238  -32.7039 H   0  0  0  0  0  0  0  0  0  0  0  0
   -7.5576   16.2862  -33.8739 H   0  0  0  0  0  0  0  0  0  0  0  0
   -6.8210   17.1190  -35.1984 H   0  0  0  0  0  0  0  0  0  0  0  0
  1  2  1  0
  2  3  1  0
  3  4  1  0
  4  5  1  0
  5  6  1  0
  6  7  1  0
  7  8  2  0
  8  9  1  0
  9 10  2  0
 10 11  1  0
 11 12  2  0
 12 13  1  0
 13 14  1  0
 13 15  2  0
 12 16  1  0
 16 17  1  0
 17 18  2  0
 17 19  1  0
 19 20  2  0
 20 21  1  0
 21 22  2  0
 22 23  1  0
 16 24  1  0
 24 25  2  0
  5 26  1  0
 26  2  1  0
 25  7  1  0
 24 10  1  0
 23 19  1  0
  1 27  1  0
  1 28  1  0
  1 29  1  0
  3 30  1  0
  3 31  1  0
  4 32  1  0
  4 33  1  0
  5 34  1  6
  6 35  1  0
  8 36  1  0
  9 37  1  0
 11 38  1  0
 14 39  1  0
 14 40  1  0
 20 41  1  0
 21 42  1  0
 23 43  1  0
 25 44  1  0
 26 45  1  0
 26 46  1  0
M  END
>  <smiles>  (16) 
CN1CCC(Nc2ccc3cc(C(N)=O)n(C(=O)c4ccn[nH]4)c3c2)C1

>  <score_type>  (16) 
oracle

>  <origin>  (16) 
adg

>  <m_score__min__energy>  (16) 
-10.539999999999999

>  <m_primary>  (16) 
energy

$$$$
17:0
     RDKit          3D

 71 72  0  0  0  0  0  0  0  0999 V2000
    1.6020   16.7400  -32.1750 C   0  0  0  0  0  0  0  0  0  0  0  0
    0.7660   17.6560  -32.9600 N   0  0  0  0  0  0  0  0  0  0  0  0
    0.4020   16.8810  -34.1540 C   0  0  0  0  0  0  0  0  0  0  0  0
   -0.4230   17.8640  -32.1370 C   0  0  0  0  0  0  0  0  0  0  0  0
   -0.1180   18.4580  -30.8020 C   0  0  0  0  0  0  0  0  0  0  0  0
    0.8090   19.5060  -30.9400 O   0  0  0  0  0  0  0  0  0  0  0  0
    0.5800   20.5330  -31.8290 C   0  0  0  0  0  0  0  0  0  0  0  0
   -0.1090   21.5530  -31.5840 O   0  0  0  0  0  0  0  0  0  0  0  0
    1.1700   20.4280  -33.1140 N   0  0  0  0  0  0  0  0  0  0  0  0
    1.0020   21.4660  -34.1520 C   0  0  0  0  0  0  0  0  0  0  0  0
   -0.1430   21.1550  -35.0670 C   0  0  0  0  0  0  0  0  0  0  0  0
   -0.9540   19.9960  -34.5940 C   0  0  0  0  0  0  0  0  0  0  0  0
   -1.8930   20.3860  -33.5960 N   0  0  0  0  0  0  0  0  0  0  0  0
   -3.2360   19.9730  -33.4660 C   0  0  0  0  0  0  0  0  0  0  0  0
   -3.6240   18.7350  -33.9880 C   0  0  0  0  0  0  0  0  0  0  0  0
   -4.9180   18.2840  -33.9330 C   0  0  0  0  0  0  0  0  0  0  0  0
   -5.8470   19.1080  -33.3310 C   0  0  0  0  0  0  0  0  0  0  0  0
   -7.1840   18.8960  -33.1490 C   0  0  0  0  0  0  0  0  0  0  0  0
   -7.6850   20.0310  -32.4850 C   0  0  0  0  0  0  0  0  0  0  0  0
   -9.0850   20.0660  -32.0900 C   0  0  0  0  0  0  0  0  0  0  0  0
   -9.6870   21.3360  -31.7330 N   0  0  0  0  0  0  0  0  0  0  0  0
   -9.8560   19.0880  -32.0210 O   0  0  0  0  0  0  0  0  0  0  0  0
   -6.6940   20.9100  -32.2740 N   0  0  0  0  0  0  0  0  0  0  0  0
   -6.7000   22.2290  -31.8230 C   0  0  0  0  0  0  0  0  0  0  0  0
   -7.4530   22.4890  -30.8090 O   0  0  0  0  0  0  0  0  0  0  0  0
   -5.9640   23.4050  -32.3160 C   0  0  0  0  0  0  0  0  0  0  0  0
   -4.8450   23.7970  -31.5990 O   0  0  0  0  0  0  0  0  0  0  0  0
   -4.7570   24.9310  -30.8140 C   0  0  0  0  0  0  0  0  0  0  0  0
   -5.7920   25.6210  -30.6290 O   0  0  0  0  0  0  0  0  0  0  0  0
   -3.5190   25.2470  -30.2700 O   0  0  0  0  0  0  0  0  0  0  0  0
   -2.9390   24.3420  -29.3650 C   0  0  0  0  0  0  0  0  0  0  0  0
   -4.0340   24.0150  -28.3470 C   0  0  0  0  0  0  0  0  0  0  0  0
   -1.7950   24.9290  -28.5720 C   0  0  0  0  0  0  0  0  0  0  0  0
   -2.5030   23.0630  -30.0120 C   0  0  0  0  0  0  0  0  0  0  0  0
   -5.5490   20.3370  -32.7940 C   0  0  0  0  0  0  0  0  0  0  0  0
   -4.2330   20.7440  -32.8770 C   0  0  0  0  0  0  0  0  0  0  0  0
    1.4369   16.9209  -31.1026 H   0  0  0  0  0  0  0  0  0  0  0  0
    1.3344   15.7009  -32.4170 H   0  0  0  0  0  0  0  0  0  0  0  0
    2.6612   16.9118  -32.4170 H   0  0  0  0  0  0  0  0  0  0  0  0
   -0.0471   15.9248  -33.8476 H   0  0  0  0  0  0  0  0  0  0  0  0
   -0.3226   17.4508  -34.7542 H   0  0  0  0  0  0  0  0  0  0  0  0
    1.3032   16.6872  -34.7542 H   0  0  0  0  0  0  0  0  0  0  0  0
   -1.1051   18.5404  -32.6729 H   0  0  0  0  0  0  0  0  0  0  0  0
   -0.8745   16.8767  -31.9599 H   0  0  0  0  0  0  0  0  0  0  0  0
   -1.0451   18.8486  -30.3571 H   0  0  0  0  0  0  0  0  0  0  0  0
    0.3108   17.6813  -30.1518 H   0  0  0  0  0  0  0  0  0  0  0  0
    1.7550   19.5660  -33.3350 H   0  0  0  0  0  0  0  0  0  0  0  0
    0.8143   22.4328  -33.6621 H   0  0  0  0  0  0  0  0  0  0  0  0
    1.9220   21.5009  -34.7539 H   0  0  0  0  0  0  0  0  0  0  0  0
   -0.7945   22.0391  -35.1298 H   0  0  0  0  0  0  0  0  0  0  0  0
    0.2763   20.8908  -36.0490 H   0  0  0  0  0  0  0  0  0  0  0  0
   -1.4984   19.5685  -35.4489 H   0  0  0  0  0  0  0  0  0  0  0  0
   -0.2710   19.2549  -34.1532 H   0  0  0  0  0  0  0  0  0  0  0  0
   -1.5430   21.0690  -32.8650 H   0  0  0  0  0  0  0  0  0  0  0  0
   -2.8618   18.0983  -34.4610 H   0  0  0  0  0  0  0  0  0  0  0  0
   -5.2032   17.3072  -34.3509 H   0  0  0  0  0  0  0  0  0  0  0  0
   -7.7574   18.0105  -33.4607 H   0  0  0  0  0  0  0  0  0  0  0  0
   -9.5190   21.7330  -30.7810 H   0  0  0  0  0  0  0  0  0  0  0  0
  -10.2570   21.7670  -32.4740 H   0  0  0  0  0  0  0  0  0  0  0  0
   -5.6386   23.1851  -33.3435 H   0  0  0  0  0  0  0  0  0  0  0  0
   -6.6704   24.2427  -32.2203 H   0  0  0  0  0  0  0  0  0  0  0  0
   -3.6353   24.1340  -27.3287 H   0  0  0  0  0  0  0  0  0  0  0  0
   -4.8838   24.6986  -28.4903 H   0  0  0  0  0  0  0  0  0  0  0  0
   -4.3698   22.9774  -28.4903 H   0  0  0  0  0  0  0  0  0  0  0  0
   -2.0017   24.8229  -27.4968 H   0  0  0  0  0  0  0  0  0  0  0  0
   -0.8651   24.3967  -28.8209 H   0  0  0  0  0  0  0  0  0  0  0  0
   -1.6852   25.9948  -28.8209 H   0  0  0  0  0  0  0  0  0  0  0  0
   -2.2518   22.3261  -29.2349 H   0  0  0  0  0  0  0  0  0  0  0  0
   -3.3187   22.6721  -30.6380 H   0  0  0  0  0  0  0  0  0  0  0  0
   -1.6184   23.2517  -30.6380 H   0  0  0  0  0  0  0  0  0  0  0  0
   -3.9596   21.7236  -32.4579 H   0  0  0  0  0  0  0  0  0  0  0  0
  1  2  1  0
  2  3  1  0
  2  4  1  0
  4  5  1  0
  5  6  1  0
  6  7  1  0
  7  8  2  0
  7  9  1  0
  9 10  1  0
 10 11  1  0
 11 12  1  0
 12 13  1  0
 13 14  1  0
 14 15  2  0
 15 16  1  0
 16 17  2  0
 17 18  1  0
 18 19  2  0
 19 20  1  0
 20 21  1  0
 20 22  2  0
 19 23  1  0
 23 24  1  0
 24 25  2  0
 24 26  1  0
 26 27  1  0
 27 28  1  0
 28 29  2  0
 28 30  1  0
 30 31  1  0
 31 32  1  0
 31 33  1  0
 31 34  1  0
 23 35  1  0
 35 36  2  0
 36 14  1  0
 35 17  1  0
  1 37  1  0
  1 38  1  0
  1 39  1  0
  3 40  1  0
  3 41  1  0
  3 42  1  0
  4 43  1  0
  4 44  1  0
  5 45  1  0
  5 46  1  0
  9 47  1  0
 10 48  1  0
 10 49  1  0
 11 50  1  0
 11 51  1  0
 12 52  1  0
 12 53  1  0
 13 54  1  0
 15 55  1  0
 16 56  1  0
 18 57  1  0
 21 58  1  0
 21 59  1  0
 26 60  1  0
 26 61  1  0
 32 62  1  0
 32 63  1  0
 32 64  1  0
 33 65  1  0
 33 66  1  0
 33 67  1  0
 34 68  1  0
 34 69  1  0
 34 70  1  0
 36 71  1  0
M  END
>  <smiles>  (17) 
CN(C)CCOC(=O)NCCCNc1ccc2cc(C(N)=O)n(C(=O)COC(=O)OC(C)(C)C)c2c1

>  <score_type>  (17) 
oracle

>  <origin>  (17) 
adg

>  <m_score__min__energy>  (17) 
-9.9399999999999995

>  <m_primary>  (17) 
energy

$$$$
18:0
     RDKit          3D

 46 47  0  0  0  0  0  0  0  0999 V2000
   -2.0220   20.7000  -30.6820 C   0  0  0  0  0  0  0  0  0  0  0  0
   -2.4280   20.3890  -32.0680 N   0  0  0  0  0  0  0  0  0  0  0  0
   -1.6710   19.4210  -32.7930 C   0  0  0  0  0  0  0  0  0  0  0  0
   -2.4510   18.1330  -33.0170 C   0  0  1  0  0  0  0  0  0  0  0  0
   -3.7550   18.2030  -32.5750 O   0  0  0  0  0  0  0  0  0  0  0  0
   -2.4550   17.7650  -34.4940 C   0  0  0  0  0  0  0  0  0  0  0  0
   -3.6950   18.0110  -35.0700 O   0  0  0  0  0  0  0  0  0  0  0  0
   -3.5740   21.1120  -32.5240 C   0  0  0  0  0  0  0  0  0  0  0  0
   -4.0190   20.6460  -33.6410 O   0  0  0  0  0  0  0  0  0  0  0  0
   -4.1630   22.2160  -31.8290 C   0  0  0  0  0  0  0  0  0  0  0  0
   -3.3390   23.1720  -31.5550 O   0  0  0  0  0  0  0  0  0  0  0  0
   -5.4860   22.4210  -31.4160 N   0  0  0  0  0  0  0  0  0  0  0  0
   -6.0540   23.3690  -30.6560 C   0  0  0  0  0  0  0  0  0  0  0  0
   -5.5880   24.6910  -30.2710 C   0  0  0  0  0  0  0  0  0  0  0  0
   -4.5980   25.3510  -31.0990 N   0  0  0  0  0  0  0  0  0  0  0  0
   -5.9570   25.3470  -29.2750 O   0  0  0  0  0  0  0  0  0  0  0  0
   -7.3860   23.0090  -30.3580 C   0  0  0  0  0  0  0  0  0  0  0  0
   -7.6120   21.8120  -30.9660 C   0  0  0  0  0  0  0  0  0  0  0  0
   -8.7610   21.0430  -30.9770 C   0  0  0  0  0  0  0  0  0  0  0  0
   -8.7810   19.8500  -31.6610 C   0  0  0  0  0  0  0  0  0  0  0  0
   -7.6340   19.4630  -32.3180 C   0  0  0  0  0  0  0  0  0  0  0  0
   -7.6530   18.1730  -33.0580 C   0  0  0  0  0  0  0  0  0  0  0  0
   -6.4150   18.0360  -33.8300 C   0  0  0  0  0  0  0  0  0  0  0  0
   -6.0640   18.9550  -34.6430 O   0  0  0  0  0  0  0  0  0  0  0  0
   -5.5860   16.9290  -33.7140 O   0  0  0  0  0  0  0  0  0  0  0  0
   -6.4810   20.2580  -32.2950 C   0  0  0  0  0  0  0  0  0  0  0  0
   -6.4530   21.4630  -31.6070 C   0  0  0  0  0  0  0  0  0  0  0  0
   -2.6936   20.1855  -29.9790 H   0  0  0  0  0  0  0  0  0  0  0  0
   -0.9889   20.3600  -30.5175 H   0  0  0  0  0  0  0  0  0  0  0  0
   -2.0812   21.7860  -30.5175 H   0  0  0  0  0  0  0  0  0  0  0  0
   -1.3977   19.8445  -33.7707 H   0  0  0  0  0  0  0  0  0  0  0  0
   -0.7777   19.1766  -32.1995 H   0  0  0  0  0  0  0  0  0  0  0  0
   -1.9372   17.3613  -32.4249 H   0  0  0  0  0  0  0  0  0  0  0  0
   -4.3680   18.6520  -33.2110 H   0  0  0  0  0  0  0  0  0  0  0  0
   -1.6926   18.3629  -35.0147 H   0  0  0  0  0  0  0  0  0  0  0  0
   -2.2353   16.6911  -34.5858 H   0  0  0  0  0  0  0  0  0  0  0  0
   -4.2800   18.6020  -34.5300 H   0  0  0  0  0  0  0  0  0  0  0  0
   -4.8300   26.2560  -31.5900 H   0  0  0  0  0  0  0  0  0  0  0  0
   -3.6360   24.9280  -31.2170 H   0  0  0  0  0  0  0  0  0  0  0  0
   -8.1021   23.5838  -29.7523 H   0  0  0  0  0  0  0  0  0  0  0  0
   -9.6578   21.3849  -30.4395 H   0  0  0  0  0  0  0  0  0  0  0  0
   -9.6853   19.2241  -31.6827 H   0  0  0  0  0  0  0  0  0  0  0  0
   -7.7335   17.3410  -32.3430 H   0  0  0  0  0  0  0  0  0  0  0  0
   -8.5154   18.1538  -33.7405 H   0  0  0  0  0  0  0  0  0  0  0  0
   -4.6190   17.0150  -33.4010 H   0  0  0  0  0  0  0  0  0  0  0  0
   -5.5818   19.9213  -32.8317 H   0  0  0  0  0  0  0  0  0  0  0  0
  1  2  1  0
  2  3  1  0
  3  4  1  0
  4  5  1  0
  4  6  1  0
  6  7  1  0
  2  8  1  0
  8  9  2  0
  8 10  1  0
 10 11  2  0
 10 12  1  0
 12 13  1  0
 13 14  1  0
 14 15  1  0
 14 16  2  0
 13 17  2  0
 17 18  1  0
 18 19  2  0
 19 20  1  0
 20 21  2  0
 21 22  1  0
 22 23  1  0
 23 24  2  0
 23 25  1  0
 21 26  1  0
 26 27  2  0
 27 12  1  0
 27 18  1  0
  1 28  1  0
  1 29  1  0
  1 30  1  0
  3 31  1  0
  3 32  1  0
  4 33  1  1
  5 34  1  0
  6 35  1  0
  6 36  1  0
  7 37  1  0
 15 38  1  0
 15 39  1  0
 17 40  1  0
 19 41  1  0
 20 42  1  0
 22 43  1  0
 22 44  1  0
 25 45  1  0
 26 46  1  0
M  END
>  <smiles>  (18) 
CN(C[C@@H](O)CO)C(=O)C(=O)n1c(C(N)=O)cc2ccc(CC(=O)O)cc21

>  <score_type>  (18) 
oracle

>  <origin>  (18) 
adg

>  <m_score__min__energy>  (18) 
-8.3599999999999994

>  <m_primary>  (18) 
energy

$$$$
19:0
     RDKit          3D

 29 30  0  0  1  0  0  0  0  0999 V2000
   -6.1150   18.2400  -34.0170 C   0  0  0  0  0  0  0  0  0  0  0  0
   -5.3710   19.4000  -33.3910 C   0  0  0  0  0  0  0  0  0  0  0  0
   -3.9980   19.4910  -33.4750 C   0  0  0  0  0  0  0  0  0  0  0  0
   -3.3670   20.5780  -32.8950 C   0  0  0  0  0  0  0  0  0  0  0  0
   -4.1270   21.5290  -32.2540 C   0  0  0  0  0  0  0  0  0  0  0  0
   -3.7420   22.6710  -31.6170 C   0  0  0  0  0  0  0  0  0  0  0  0
   -4.8810   23.3310  -31.1120 C   0  0  0  0  0  0  0  0  0  0  0  0
   -4.7480   24.5820  -30.4120 C   0  0  0  0  0  0  0  0  0  0  0  0
   -5.2120   24.6860  -29.0270 N   0  0  0  0  0  0  0  0  0  0  0  0
   -4.2610   25.6530  -30.8310 O   0  0  0  0  0  0  0  0  0  0  0  0
   -5.9590   22.5710  -31.4530 N   0  0  0  0  0  0  0  0  0  0  0  0
   -7.2870   22.8660  -31.1380 C   0  0  0  0  0  0  0  0  0  0  0  0
   -7.5010   23.1220  -29.8800 O   0  0  0  0  0  0  0  0  0  0  0  0
   -8.4810   22.9430  -31.9590 C   0  0  0  0  0  0  0  0  0  0  0  0
   -9.4520   21.3500  -31.8610 P   0  0  0  0  0  0  0  0  0  0  0  0
   -9.1780   20.1310  -32.7410 O   0  0  0  0  0  0  0  0  0  0  0  0
   -5.5020   21.4760  -32.1470 C   0  0  0  0  0  0  0  0  0  0  0  0
   -6.1000   20.3820  -32.7340 C   0  0  0  0  0  0  0  0  0  0  0  0
   -6.5268   17.5980  -33.2244 H   0  0  0  0  0  0  0  0  0  0  0  0
   -6.9355   18.6244  -34.6408 H   0  0  0  0  0  0  0  0  0  0  0  0
   -5.4234   17.6546  -34.6408 H   0  0  0  0  0  0  0  0  0  0  0  0
   -3.4152   18.7150  -33.9928 H   0  0  0  0  0  0  0  0  0  0  0  0
   -2.2729   20.6800  -32.9459 H   0  0  0  0  0  0  0  0  0  0  0  0
   -2.7049   23.0226  -31.5132 H   0  0  0  0  0  0  0  0  0  0  0  0
   -6.1360   24.2930  -28.7500 H   0  0  0  0  0  0  0  0  0  0  0  0
   -4.5880   25.1700  -28.3130 H   0  0  0  0  0  0  0  0  0  0  0  0
   -9.1106   23.7723  -31.6042 H   0  0  0  0  0  0  0  0  0  0  0  0
   -8.1819   23.1117  -33.0040 H   0  0  0  0  0  0  0  0  0  0  0  0
   -7.1942   20.2833  -32.6801 H   0  0  0  0  0  0  0  0  0  0  0  0
  1  2  1  0
  2  3  2  0
  3  4  1  0
  4  5  2  0
  5  6  1  0
  6  7  2  0
  7  8  1  0
  8  9  1  0
  8 10  2  0
  7 11  1  0
 11 12  1  0
 12 13  2  0
 12 14  1  0
 14 15  1  0
 15 16  2  0
 11 17  1  0
 17 18  2  0
 18  2  1  0
 17  5  1  0
  1 19  1  0
  1 20  1  0
  1 21  1  0
  3 22  1  0
  4 23  1  0
  6 24  1  0
  9 25  1  0
  9 26  1  0
 14 27  1  0
 14 28  1  0
 18 29  1  0
M  END
>  <smiles>  (19) 
Cc1ccc2cc(C(N)=O)n(C(=O)CP=O)c2c1

>  <score_type>  (19) 
oracle

>  <origin>  (19) 
adg

>  <m_score__min__energy>  (19) 
-8.1500000000000004

>  <m_primary>  (19) 
energy

$$$$
20:0
     RDKit          3D

 36 37  0  0  0  0  0  0  0  0999 V2000
   -4.0790   24.5210  -27.0720 C   0  0  0  0  0  0  0  0  0  0  0  0
   -3.5530   24.5000  -28.3560 O   0  0  0  0  0  0  0  0  0  0  0  0
   -2.6800   23.4530  -28.5670 C   0  0  0  0  0  0  0  0  0  0  0  0
   -2.4620   23.1550  -30.0530 C   0  0  0  0  0  0  0  0  0  0  0  0
   -3.2850   22.0930  -30.4610 O   0  0  0  0  0  0  0  0  0  0  0  0
   -4.2090   22.1770  -31.4810 C   0  0  0  0  0  0  0  0  0  0  0  0
   -3.7420   21.8640  -32.6330 O   0  0  0  0  0  0  0  0  0  0  0  0
   -5.5580   22.5600  -31.3520 N   0  0  0  0  0  0  0  0  0  0  0  0
   -6.0400   23.7510  -30.9670 C   0  0  0  0  0  0  0  0  0  0  0  0
   -5.3990   24.9770  -30.5750 C   0  0  0  0  0  0  0  0  0  0  0  0
   -5.7850   25.8710  -29.5540 N   0  0  0  0  0  0  0  0  0  0  0  0
   -4.3390   25.3380  -31.2090 O   0  0  0  0  0  0  0  0  0  0  0  0
   -7.4370   23.6230  -31.0020 C   0  0  0  0  0  0  0  0  0  0  0  0
   -7.7760   22.3560  -31.4080 C   0  0  0  0  0  0  0  0  0  0  0  0
   -8.9870   21.7440  -31.5990 C   0  0  0  0  0  0  0  0  0  0  0  0
   -9.0710   20.4340  -32.0200 C   0  0  0  0  0  0  0  0  0  0  0  0
   -7.8930   19.7550  -32.2440 C   0  0  0  0  0  0  0  0  0  0  0  0
   -7.9780   18.3420  -32.6970 C   0  0  0  0  0  0  0  0  0  0  0  0
   -7.1960   17.5960  -31.8110 F   0  0  0  0  0  0  0  0  0  0  0  0
   -6.6700   20.3930  -32.0440 C   0  0  0  0  0  0  0  0  0  0  0  0
   -6.5850   21.7040  -31.6230 C   0  0  0  0  0  0  0  0  0  0  0  0
   -3.2592   24.4883  -26.3393 H   0  0  0  0  0  0  0  0  0  0  0  0
   -4.6616   25.4431  -26.9294 H   0  0  0  0  0  0  0  0  0  0  0  0
   -4.7332   23.6483  -26.9294 H   0  0  0  0  0  0  0  0  0  0  0  0
   -1.7106   23.7063  -28.1131 H   0  0  0  0  0  0  0  0  0  0  0  0
   -3.1215   22.5553  -28.1096 H   0  0  0  0  0  0  0  0  0  0  0  0
   -2.7060   24.0509  -30.6427 H   0  0  0  0  0  0  0  0  0  0  0  0
   -1.4101   22.8752  -30.2122 H   0  0  0  0  0  0  0  0  0  0  0  0
   -5.3790   25.6840  -28.5890 H   0  0  0  0  0  0  0  0  0  0  0  0
   -6.4350   26.6970  -29.7170 H   0  0  0  0  0  0  0  0  0  0  0  0
   -8.1523   24.4176  -30.7433 H   0  0  0  0  0  0  0  0  0  0  0  0
   -9.9116   22.3099  -31.4125 H   0  0  0  0  0  0  0  0  0  0  0  0
  -10.0456   19.9471  -32.1720 H   0  0  0  0  0  0  0  0  0  0  0  0
   -9.0215   17.9953  -32.6680 H   0  0  0  0  0  0  0  0  0  0  0  0
   -7.6220   18.2329  -33.7321 H   0  0  0  0  0  0  0  0  0  0  0  0
   -5.7416   19.8325  -32.2280 H   0  0  0  0  0  0  0  0  0  0  0  0
  1  2  1  0
  2  3  1  0
  3  4  1  0
  4  5  1  0
  5  6  1  0
  6  7  2  0
  6  8  1  0
  8  9  1  0
  9 10  1  0
 10 11  1  0
 10 12  2  0
  9 13  2  0
 13 14  1  0
 14 15  2  0
 15 16  1  0
 16 17  2  0
 17 18  1  0
 18 19  1  0
 17 20  1  0
 20 21  2  0
 21  8  1  0
 21 14  1  0
  1 22  1  0
  1 23  1  0
  1 24  1  0
  3 25  1  0
  3 26  1  0
  4 27  1  0
  4 28  1  0
 11 29  1  0
 11 30  1  0
 13 31  1  0
 15 32  1  0
 16 33  1  0
 18 34  1  0
 18 35  1  0
 20 36  1  0
M  END
>  <smiles>  (20) 
COCCOC(=O)n1c(C(N)=O)cc2ccc(CF)cc21

>  <score_type>  (20) 
oracle

>  <origin>  (20) 
adg

>  <m_score__min__energy>  (20) 
-7.7300000000000004

>  <m_primary>  (20) 
energy

$$$$
21:0
     RDKit          3D

 44 45  0  0  0  0  0  0  0  0999 V2000
   -1.5570   20.2820  -30.4290 C   0  0  0  0  0  0  0  0  0  0  0  0
   -2.0480   21.6180  -30.6280 N   0  0  0  0  0  0  0  0  0  0  0  0
   -1.4900   22.5950  -29.8770 O   0  0  0  0  0  0  0  0  0  0  0  0
   -2.1290   22.8010  -28.6740 C   0  0  0  0  0  0  0  0  0  0  0  0
   -2.4900   24.2410  -28.5880 C   0  0  0  0  0  0  0  0  0  0  0  0
   -3.2370   24.6440  -27.6520 O   0  0  0  0  0  0  0  0  0  0  0  0
   -2.0380   25.1800  -29.5080 O   0  0  0  0  0  0  0  0  0  0  0  0
   -3.0910   21.9420  -31.5780 C   0  0  0  0  0  0  0  0  0  0  0  0
   -3.0620   21.2240  -32.6200 O   0  0  0  0  0  0  0  0  0  0  0  0
   -4.0500   22.9900  -31.3230 C   0  0  0  0  0  0  0  0  0  0  0  0
   -3.5320   24.1620  -31.2080 O   0  0  0  0  0  0  0  0  0  0  0  0
   -5.4390   22.9130  -31.1940 N   0  0  0  0  0  0  0  0  0  0  0  0
   -6.3310   23.6650  -30.5330 C   0  0  0  0  0  0  0  0  0  0  0  0
   -6.2200   25.0130  -29.9910 C   0  0  0  0  0  0  0  0  0  0  0  0
   -4.9440   25.6970  -30.1200 N   0  0  0  0  0  0  0  0  0  0  0  0
   -7.1050   25.6600  -29.4200 O   0  0  0  0  0  0  0  0  0  0  0  0
   -7.5930   23.0430  -30.5500 C   0  0  0  0  0  0  0  0  0  0  0  0
   -7.4470   21.8850  -31.2490 C   0  0  0  0  0  0  0  0  0  0  0  0
   -8.3930   20.9210  -31.5470 C   0  0  0  0  0  0  0  0  0  0  0  0
   -8.0320   19.8100  -32.2760 C   0  0  0  0  0  0  0  0  0  0  0  0
   -6.7240   19.7050  -32.6850 C   0  0  0  0  0  0  0  0  0  0  0  0
   -6.3310   18.5660  -33.4380 N   0  0  0  0  0  0  0  0  0  0  0  0
   -5.4420   18.7270  -34.5770 C   0  0  0  0  0  0  0  0  0  0  0  0
   -6.8030   17.2430  -33.0910 C   0  0  0  0  0  0  0  0  0  0  0  0
   -5.7830   20.6890  -32.3730 C   0  0  0  0  0  0  0  0  0  0  0  0
   -6.1390   21.8140  -31.6380 C   0  0  0  0  0  0  0  0  0  0  0  0
   -1.4813   20.0759  -29.3511 H   0  0  0  0  0  0  0  0  0  0  0  0
   -2.2500   19.5639  -30.8918 H   0  0  0  0  0  0  0  0  0  0  0  0
   -0.5640   20.1836  -30.8918 H   0  0  0  0  0  0  0  0  0  0  0  0
   -3.0384   22.1842  -28.6236 H   0  0  0  0  0  0  0  0  0  0  0  0
   -1.4712   22.5207  -27.8381 H   0  0  0  0  0  0  0  0  0  0  0  0
   -1.6130   24.9240  -30.3850 H   0  0  0  0  0  0  0  0  0  0  0  0
   -4.1920   25.4130  -29.4550 H   0  0  0  0  0  0  0  0  0  0  0  0
   -4.8260   26.4300  -30.8560 H   0  0  0  0  0  0  0  0  0  0  0  0
   -8.5175   23.4197  -30.0881 H   0  0  0  0  0  0  0  0  0  0  0  0
   -9.4307   21.0415  -31.2026 H   0  0  0  0  0  0  0  0  0  0  0  0
   -8.7677   19.0306  -32.5234 H   0  0  0  0  0  0  0  0  0  0  0  0
   -4.4183   18.9124  -34.2198 H   0  0  0  0  0  0  0  0  0  0  0  0
   -5.4575   17.8114  -35.1865 H   0  0  0  0  0  0  0  0  0  0  0  0
   -5.7776   19.5790  -35.1865 H   0  0  0  0  0  0  0  0  0  0  0  0
   -6.8390   17.1420  -31.9962 H   0  0  0  0  0  0  0  0  0  0  0  0
   -7.8103   17.0924  -33.5065 H   0  0  0  0  0  0  0  0  0  0  0  0
   -6.1185   16.4888  -33.5065 H   0  0  0  0  0  0  0  0  0  0  0  0
   -4.7439   20.5719  -32.7143 H   0  0  0  0  0  0  0  0  0  0  0  0
  1  2  1  0
  2  3  1  0
  3  4  1  0
  4  5  1  0
  5  6  2  0
  5  7  1  0
  2  8  1  0
  8  9  2  0
  8 10  1  0
 10 11  2  0
 10 12  1  0
 12 13  1  0
 13 14  1  0
 14 15  1  0
 14 16  2  0
 13 17  2  0
 17 18  1  0
 18 19  2  0
 19 20  1  0
 20 21  2  0
 21 22  1  0
 22 23  1  0
 22 24  1  0
 21 25  1  0
 25 26  2  0
 26 12  1  0
 26 18  1  0
  1 27  1  0
  1 28  1  0
  1 29  1  0
  4 30  1  0
  4 31  1  0
  7 32  1  0
 15 33  1  0
 15 34  1  0
 17 35  1  0
 19 36  1  0
 20 37  1  0
 23 38  1  0
 23 39  1  0
 23 40  1  0
 24 41  1  0
 24 42  1  0
 24 43  1  0
 25 44  1  0
M  END
>  <smiles>  (21) 
CN(OCC(=O)O)C(=O)C(=O)n1c(C(N)=O)cc2ccc(N(C)C)cc21

>  <score_type>  (21) 
oracle

>  <origin>  (21) 
adg

>  <m_score__min__energy>  (21) 
-9.2400000000000002

>  <m_primary>  (21) 
energy

$$$$
22:0
     RDKit          3D

 65 66  0  0  0  0  0  0  0  0999 V2000
   -8.4660   18.8880  -32.7210 C   0  0  0  0  0  0  0  0  0  0  0  0
   -8.1330   20.1750  -32.0230 C   0  0  0  0  0  0  0  0  0  0  0  0
   -9.0790   20.7730  -31.2280 C   0  0  0  0  0  0  0  0  0  0  0  0
   -8.7530   21.9540  -30.5980 C   0  0  0  0  0  0  0  0  0  0  0  0
   -7.4990   22.5050  -30.7750 C   0  0  0  0  0  0  0  0  0  0  0  0
   -6.9760   23.6480  -30.2540 C   0  0  0  0  0  0  0  0  0  0  0  0
   -5.6840   23.7300  -30.7560 C   0  0  0  0  0  0  0  0  0  0  0  0
   -4.8810   24.9310  -30.4680 C   0  0  0  0  0  0  0  0  0  0  0  0
   -3.7140   24.9230  -29.6630 N   0  0  0  0  0  0  0  0  0  0  0  0
   -5.2220   26.0370  -30.9560 O   0  0  0  0  0  0  0  0  0  0  0  0
   -5.3800   22.7050  -31.5480 N   0  0  0  0  0  0  0  0  0  0  0  0
   -4.2020   22.2130  -32.1120 C   0  0  0  0  0  0  0  0  0  0  0  0
   -4.2520   22.0950  -33.4210 O   0  0  0  0  0  0  0  0  0  0  0  0
   -2.9690   21.8010  -31.6180 N   0  0  0  0  0  0  0  0  0  0  0  0
   -2.4310   21.7470  -30.3300 C   0  0  0  0  0  0  0  0  0  0  0  0
   -2.3310   20.5620  -29.8230 O   0  0  0  0  0  0  0  0  0  0  0  0
   -2.0000   22.7520  -29.5150 O   0  0  0  0  0  0  0  0  0  0  0  0
   -2.2360   22.8250  -28.1330 C   0  0  0  0  0  0  0  0  0  0  0  0
   -2.4230   24.1570  -27.6630 O   0  0  0  0  0  0  0  0  0  0  0  0
   -1.4790   25.1420  -27.8880 C   0  0  0  0  0  0  0  0  0  0  0  0
   -1.3520   25.6640  -29.0240 O   0  0  0  0  0  0  0  0  0  0  0  0
   -0.6060   25.5870  -26.7710 C   0  0  0  0  0  0  0  0  0  0  0  0
   -1.2290   25.3040  -25.4920 N   0  0  0  0  0  0  0  0  0  0  0  0
   -1.2900   26.4860  -24.6770 C   0  0  0  0  0  0  0  0  0  0  0  0
   -0.5250   24.2050  -24.8840 C   0  0  0  0  0  0  0  0  0  0  0  0
   -2.0980   21.1830  -32.6300 C   0  0  0  0  0  0  0  0  0  0  0  0
   -1.2370   21.8780  -33.2250 O   0  0  0  0  0  0  0  0  0  0  0  0
   -2.1910   19.8600  -32.9560 O   0  0  0  0  0  0  0  0  0  0  0  0
   -3.3430   19.0690  -32.9200 C   0  0  0  0  0  0  0  0  0  0  0  0
   -3.9870   18.9000  -34.1560 O   0  0  0  0  0  0  0  0  0  0  0  0
   -5.3090   18.5060  -34.2640 C   0  0  0  0  0  0  0  0  0  0  0  0
   -6.1130   19.3550  -34.7420 O   0  0  0  0  0  0  0  0  0  0  0  0
   -5.7730   17.1500  -33.8410 C   0  0  0  0  0  0  0  0  0  0  0  0
   -4.7150   16.1440  -34.2620 C   0  0  0  0  0  0  0  0  0  0  0  0
   -5.8330   17.0620  -32.3240 C   0  0  0  0  0  0  0  0  0  0  0  0
   -6.5330   21.9420  -31.5580 C   0  0  0  0  0  0  0  0  0  0  0  0
   -6.8710   20.7520  -32.1880 C   0  0  0  0  0  0  0  0  0  0  0  0
   -8.6681   18.1070  -31.9732 H   0  0  0  0  0  0  0  0  0  0  0  0
   -9.3564   19.0321  -33.3506 H   0  0  0  0  0  0  0  0  0  0  0  0
   -7.6174   18.5821  -33.3506 H   0  0  0  0  0  0  0  0  0  0  0  0
  -10.0730   20.3203  -31.0972 H   0  0  0  0  0  0  0  0  0  0  0  0
   -9.4902   22.4573  -29.9551 H   0  0  0  0  0  0  0  0  0  0  0  0
   -7.4728   24.3584  -29.5768 H   0  0  0  0  0  0  0  0  0  0  0  0
   -3.5060   25.6440  -28.9350 H   0  0  0  0  0  0  0  0  0  0  0  0
   -3.0060   24.1490  -29.7990 H   0  0  0  0  0  0  0  0  0  0  0  0
   -3.1404   22.2430  -27.9020 H   0  0  0  0  0  0  0  0  0  0  0  0
   -1.3448   22.4235  -27.6285 H   0  0  0  0  0  0  0  0  0  0  0  0
    0.3555   25.0560  -26.8301 H   0  0  0  0  0  0  0  0  0  0  0  0
   -0.4473   26.6722  -26.8557 H   0  0  0  0  0  0  0  0  0  0  0  0
   -1.2753   26.2002  -23.6149 H   0  0  0  0  0  0  0  0  0  0  0  0
   -0.4238   27.1276  -24.8961 H   0  0  0  0  0  0  0  0  0  0  0  0
   -2.2177   27.0350  -24.8961 H   0  0  0  0  0  0  0  0  0  0  0  0
   -0.5819   24.2939  -23.7891 H   0  0  0  0  0  0  0  0  0  0  0  0
   -0.9839   23.2563  -25.1992 H   0  0  0  0  0  0  0  0  0  0  0  0
    0.5287   24.2252  -25.1992 H   0  0  0  0  0  0  0  0  0  0  0  0
   -3.0621   18.0745  -32.5431 H   0  0  0  0  0  0  0  0  0  0  0  0
   -4.0575   19.5969  -32.2714 H   0  0  0  0  0  0  0  0  0  0  0  0
   -6.7600   16.9587  -34.2873 H   0  0  0  0  0  0  0  0  0  0  0  0
   -4.2514   15.7032  -33.3671 H   0  0  0  0  0  0  0  0  0  0  0  0
   -5.1827   15.3494  -34.8618 H   0  0  0  0  0  0  0  0  0  0  0  0
   -3.9449   16.6511  -34.8618 H   0  0  0  0  0  0  0  0  0  0  0  0
   -5.2647   17.8955  -31.8856 H   0  0  0  0  0  0  0  0  0  0  0  0
   -6.8809   17.1194  -31.9946 H   0  0  0  0  0  0  0  0  0  0  0  0
   -5.3968   16.1074  -31.9946 H   0  0  0  0  0  0  0  0  0  0  0  0
   -6.1303   20.2531  -32.8302 H   0  0  0  0  0  0  0  0  0  0  0  0
  1  2  1  0
  2  3  2  0
  3  4  1  0
  4  5  2  0
  5  6  1  0
  6  7  2  0
  7  8  1  0
  8  9  1  0
  8 10  2  0
  7 11  1  0
 11 12  1  0
 12 13  2  0
 12 14  1  0
 14 15  1  0
 15 16  2  0
 15 17  1  0
 17 18  1  0
 18 19  1  0
 19 20  1  0
 20 21  2  0
 20 22  1  0
 22 23  1  0
 23 24  1  0
 23 25  1  0
 14 26  1  0
 26 27  2  0
 26 28  1  0
 28 29  1  0
 29 30  1  0
 30 31  1  0
 31 32  2  0
 31 33  1  0
 33 34  1  0
 33 35  1  0
 11 36  1  0
 36 37  2  0
 37  2  1  0
 36  5  1  0
  1 38  1  0
  1 39  1  0
  1 40  1  0
  3 41  1  0
  4 42  1  0
  6 43  1  0
  9 44  1  0
  9 45  1  0
 18 46  1  0
 18 47  1  0
 22 48  1  0
 22 49  1  0
 24 50  1  0
 24 51  1  0
 24 52  1  0
 25 53  1  0
 25 54  1  0
 25 55  1  0
 29 56  1  0
 29 57  1  0
 33 58  1  0
 34 59  1  0
 34 60  1  0
 34 61  1  0
 35 62  1  0
 35 63  1  0
 35 64  1  0
 37 65  1  0
M  END
>  <smiles>  (22) 
Cc1ccc2cc(C(N)=O)n(C(=O)N(C(=O)OCOC(=O)CN(C)C)C(=O)OCOC(=O)C(C)C)c2c1

>  <score_type>  (22) 
oracle

>  <origin>  (22) 
adg

>  <m_score__min__energy>  (22) 
-8.6699999999999999

>  <m_primary>  (22) 
energy

$$$$
23:0
     RDKit          3D

 39 40  0  0  0  0  0  0  0  0999 V2000
   -2.1910   20.8570  -30.1950 C   0  0  0  0  0  0  0  0  0  0  0  0
   -3.2330   21.7860  -29.8590 N   0  0  0  0  0  0  0  0  0  0  0  0
   -3.3470   21.9670  -28.3900 C   0  0  0  0  0  0  0  0  0  0  0  0
   -3.4570   20.9370  -27.7200 O   0  0  0  0  0  0  0  0  0  0  0  0
   -3.3280   23.2150  -27.8300 O   0  0  0  0  0  0  0  0  0  0  0  0
   -2.1750   23.8860  -27.4050 C   0  0  0  0  0  0  0  0  0  0  0  0
   -1.7800   24.9260  -28.3680 C   0  0  0  0  0  0  0  0  0  0  0  0
   -0.6640   25.4840  -28.3540 O   0  0  0  0  0  0  0  0  0  0  0  0
   -2.7090   25.2980  -29.3410 O   0  0  0  0  0  0  0  0  0  0  0  0
   -4.1270   22.5040  -30.6160 C   0  0  0  0  0  0  0  0  0  0  0  0
   -3.5480   23.5470  -31.2040 O   0  0  0  0  0  0  0  0  0  0  0  0
   -5.4820   22.4350  -30.9460 N   0  0  0  0  0  0  0  0  0  0  0  0
   -6.3930   23.3490  -30.5060 C   0  0  0  0  0  0  0  0  0  0  0  0
   -6.2510   24.6150  -29.8170 C   0  0  0  0  0  0  0  0  0  0  0  0
   -5.3440   24.7370  -28.6770 N   0  0  0  0  0  0  0  0  0  0  0  0
   -6.8370   25.6890  -30.0810 O   0  0  0  0  0  0  0  0  0  0  0  0
   -7.6760   22.9210  -30.9090 C   0  0  0  0  0  0  0  0  0  0  0  0
   -7.5460   21.7690  -31.5830 C   0  0  0  0  0  0  0  0  0  0  0  0
   -8.5040   20.9510  -32.1530 C   0  0  0  0  0  0  0  0  0  0  0  0
   -8.1550   19.7790  -32.7760 C   0  0  0  0  0  0  0  0  0  0  0  0
   -6.8220   19.4550  -32.8080 C   0  0  0  0  0  0  0  0  0  0  0  0
   -6.3980   18.1990  -33.4680 C   0  0  0  0  0  0  0  0  0  0  0  0
   -5.2310   17.7280  -32.8660 F   0  0  0  0  0  0  0  0  0  0  0  0
   -6.0750   18.4250  -34.7970 F   0  0  0  0  0  0  0  0  0  0  0  0
   -7.3640   17.2270  -33.3290 F   0  0  0  0  0  0  0  0  0  0  0  0
   -5.8720   20.2890  -32.2300 C   0  0  0  0  0  0  0  0  0  0  0  0
   -6.1900   21.4690  -31.6030 C   0  0  0  0  0  0  0  0  0  0  0  0
   -1.7438   20.4583  -29.2725 H   0  0  0  0  0  0  0  0  0  0  0  0
   -2.6132   20.0301  -30.7850 H   0  0  0  0  0  0  0  0  0  0  0  0
   -1.4178   21.3709  -30.7850 H   0  0  0  0  0  0  0  0  0  0  0  0
   -2.3719   24.3557  -26.4300 H   0  0  0  0  0  0  0  0  0  0  0  0
   -1.3562   23.1558  -27.3250 H   0  0  0  0  0  0  0  0  0  0  0  0
   -3.5750   24.8250  -29.5170 H   0  0  0  0  0  0  0  0  0  0  0  0
   -5.3710   23.9280  -28.0320 H   0  0  0  0  0  0  0  0  0  0  0  0
   -4.7460   25.5710  -28.5640 H   0  0  0  0  0  0  0  0  0  0  0  0
   -8.6221   23.4437  -30.7049 H   0  0  0  0  0  0  0  0  0  0  0  0
   -9.5631   21.2444  -32.1064 H   0  0  0  0  0  0  0  0  0  0  0  0
   -8.9136   19.1255  -33.2315 H   0  0  0  0  0  0  0  0  0  0  0  0
   -4.8146   19.9896  -32.2770 H   0  0  0  0  0  0  0  0  0  0  0  0
  1  2  1  0
  2  3  1  0
  3  4  2  0
  3  5  1  0
  5  6  1  0
  6  7  1  0
  7  8  2  0
  7  9  1  0
  2 10  1  0
 10 11  2  0
 10 12  1  0
 12 13  1  0
 13 14  1  0
 14 15  1  0
 14 16  2  0
 13 17  2  0
 17 18  1  0
 18 19  2  0
 19 20  1  0
 20 21  2  0
 21 22  1  0
 22 23  1  0
 22 24  1  0
 22 25  1  0
 21 26  1  0
 26 27  2  0
 27 12  1  0
 27 18  1  0
  1 28  1  0
  1 29  1  0
  1 30  1  0
  6 31  1  0
  6 32  1  0
  9 33  1  0
 15 34  1  0
 15 35  1  0
 17 36  1  0
 19 37  1  0
 20 38  1  0
 26 39  1  0
M  END
>  <smiles>  (23) 
CN(C(=O)OCC(=O)O)C(=O)n1c(C(N)=O)cc2ccc(C(F)(F)F)cc21

>  <score_type>  (23) 
oracle

>  <origin>  (23) 
adg

>  <m_score__min__energy>  (23) 
-8.7400000000000002

>  <m_primary>  (23) 
energy

$$$$
24:0
     RDKit          3D

 36 37  0  0  0  0  0  0  0  0999 V2000
   -6.0600   24.6040  -29.4080 N   0  0  0  0  0  0  0  0  0  0  0  0
   -6.0630   24.3560  -30.8360 C   0  0  0  0  0  0  0  0  0  0  0  0
   -5.7670   25.3410  -31.5360 O   0  0  0  0  0  0  0  0  0  0  0  0
   -6.3970   23.0310  -31.3130 C   0  0  0  0  0  0  0  0  0  0  0  0
   -7.7090   22.5420  -31.3210 C   0  0  0  0  0  0  0  0  0  0  0  0
   -7.7180   21.2650  -31.8250 C   0  0  0  0  0  0  0  0  0  0  0  0
   -8.7460   20.3720  -32.0320 C   0  0  0  0  0  0  0  0  0  0  0  0
   -8.4870   19.1280  -32.5620 C   0  0  0  0  0  0  0  0  0  0  0  0
   -7.1920   18.8100  -32.8710 C   0  0  0  0  0  0  0  0  0  0  0  0
   -6.9310   17.4620  -33.4420 C   0  0  0  0  0  0  0  0  0  0  0  0
   -5.8540   17.5690  -34.4810 C   0  0  0  0  0  0  0  0  0  0  0  0
   -4.9350   16.7090  -34.4730 O   0  0  0  0  0  0  0  0  0  0  0  0
   -5.9300   18.6080  -35.3920 O   0  0  0  0  0  0  0  0  0  0  0  0
   -6.1580   19.7270  -32.6540 C   0  0  0  0  0  0  0  0  0  0  0  0
   -6.3950   20.9810  -32.1250 C   0  0  0  0  0  0  0  0  0  0  0  0
   -5.6220   22.0530  -31.8100 N   0  0  0  0  0  0  0  0  0  0  0  0
   -4.2200   22.0860  -31.9950 C   0  0  0  0  0  0  0  0  0  0  0  0
   -3.7040   21.0940  -32.6070 O   0  0  0  0  0  0  0  0  0  0  0  0
   -3.3650   23.0630  -31.5910 O   0  0  0  0  0  0  0  0  0  0  0  0
   -2.6160   23.0670  -30.4040 C   0  0  0  0  0  0  0  0  0  0  0  0
   -2.8150   24.2820  -29.5430 C   0  0  0  0  0  0  0  0  0  0  0  0
   -3.5040   25.2550  -30.3070 O   0  0  0  0  0  0  0  0  0  0  0  0
   -5.1090   24.6050  -28.9360 H   0  0  0  0  0  0  0  0  0  0  0  0
   -6.9470   24.7730  -28.8820 H   0  0  0  0  0  0  0  0  0  0  0  0
   -8.5952   23.0953  -30.9768 H   0  0  0  0  0  0  0  0  0  0  0  0
   -9.7773   20.6537  -31.7730 H   0  0  0  0  0  0  0  0  0  0  0  0
   -9.3005   18.4076  -32.7329 H   0  0  0  0  0  0  0  0  0  0  0  0
   -6.6052   16.7802  -32.6427 H   0  0  0  0  0  0  0  0  0  0  0  0
   -7.8506   17.0694  -33.9006 H   0  0  0  0  0  0  0  0  0  0  0  0
   -6.8670   18.9690  -35.6170 H   0  0  0  0  0  0  0  0  0  0  0  0
   -5.1274   19.4416  -32.9118 H   0  0  0  0  0  0  0  0  0  0  0  0
   -2.8985   22.1806  -29.8171 H   0  0  0  0  0  0  0  0  0  0  0  0
   -1.5575   23.0670  -30.7033 H   0  0  0  0  0  0  0  0  0  0  0  0
   -3.4079   24.0167  -28.6552 H   0  0  0  0  0  0  0  0  0  0  0  0
   -1.8435   24.6766  -29.2106 H   0  0  0  0  0  0  0  0  0  0  0  0
   -3.5910   24.9060  -31.2310 H   0  0  0  0  0  0  0  0  0  0  0  0
  1  2  1  0
  2  3  2  0
  2  4  1  0
  4  5  2  0
  5  6  1  0
  6  7  2  0
  7  8  1  0
  8  9  2  0
  9 10  1  0
 10 11  1  0
 11 12  2  0
 11 13  1  0
  9 14  1  0
 14 15  2  0
 15 16  1  0
 16 17  1  0
 17 18  2  0
 17 19  1  0
 19 20  1  0
 20 21  1  0
 21 22  1  0
 16  4  1  0
 15  6  1  0
  1 23  1  0
  1 24  1  0
  5 25  1  0
  7 26  1  0
  8 27  1  0
 10 28  1  0
 10 29  1  0
 13 30  1  0
 14 31  1  0
 20 32  1  0
 20 33  1  0
 21 34  1  0
 21 35  1  0
 22 36  1  0
M  END
>  <smiles>  (24) 
NC(=O)c1cc2ccc(CC(=O)O)cc2n1C(=O)OCCO

>  <score_type>  (24) 
oracle

>  <origin>  (24) 
adg

>  <m_score__min__energy>  (24) 
-7.9800000000000004

>  <m_primary>  (24) 
energy

$$$$
25:0
     RDKit          3D

 37 39  0  0  0  0  0  0  0  0999 V2000
   -6.9290   16.9480  -33.3710 C   0  0  0  0  0  0  0  0  0  0  0  0
   -7.0190   18.0880  -32.9500 C   0  0  0  0  0  0  0  0  0  0  0  0
   -7.1060   19.4360  -32.4530 C   0  0  0  0  0  0  0  0  0  0  0  0
   -8.3490   19.8790  -32.0690 C   0  0  0  0  0  0  0  0  0  0  0  0
   -8.4680   21.1640  -31.5900 C   0  0  0  0  0  0  0  0  0  0  0  0
   -7.3650   21.9730  -31.5010 C   0  0  0  0  0  0  0  0  0  0  0  0
   -7.2220   23.2530  -31.0720 C   0  0  0  0  0  0  0  0  0  0  0  0
   -5.8760   23.6360  -31.1800 C   0  0  0  0  0  0  0  0  0  0  0  0
   -5.4030   24.9360  -30.7980 C   0  0  0  0  0  0  0  0  0  0  0  0
   -4.0490   25.0710  -30.2950 N   0  0  0  0  0  0  0  0  0  0  0  0
   -6.0380   26.0130  -30.8470 O   0  0  0  0  0  0  0  0  0  0  0  0
   -5.2150   22.5770  -31.6770 N   0  0  0  0  0  0  0  0  0  0  0  0
   -3.8300   22.4800  -31.9710 C   0  0  0  0  0  0  0  0  0  0  0  0
   -3.4550   21.7070  -32.9250 O   0  0  0  0  0  0  0  0  0  0  0  0
   -2.8240   23.1430  -31.3290 O   0  0  0  0  0  0  0  0  0  0  0  0
   -2.2030   22.7310  -30.1370 C   0  0  0  0  0  0  0  0  0  0  0  0
   -1.5240   23.7990  -29.3930 C   0  0  0  0  0  0  0  0  0  0  0  0
   -1.7380   25.0910  -29.3360 O   0  0  0  0  0  0  0  0  0  0  0  0
   -0.8620   25.6320  -28.5250 C   0  0  0  0  0  0  0  0  0  0  0  0
   -0.8070   26.8530  -28.2620 O   0  0  0  0  0  0  0  0  0  0  0  0
   -0.0560   24.7390  -28.0280 O   0  0  0  0  0  0  0  0  0  0  0  0
   -0.4360   23.5940  -28.5420 C   0  0  0  0  0  0  0  0  0  0  0  0
    0.2470   22.3130  -28.2160 C   0  0  0  0  0  0  0  0  0  0  0  0
   -6.1020   21.5570  -31.8800 C   0  0  0  0  0  0  0  0  0  0  0  0
   -6.0000   20.2670  -32.3570 C   0  0  0  0  0  0  0  0  0  0  0  0
   -6.8478   15.9189  -33.7510 H   0  0  0  0  0  0  0  0  0  0  0  0
   -9.2282   19.2221  -32.1427 H   0  0  0  0  0  0  0  0  0  0  0  0
   -9.4521   21.5432  -31.2774 H   0  0  0  0  0  0  0  0  0  0  0  0
   -8.0356   23.8916  -30.6975 H   0  0  0  0  0  0  0  0  0  0  0  0
   -3.2320   24.9290  -30.9600 H   0  0  0  0  0  0  0  0  0  0  0  0
   -3.8840   25.3070  -29.2750 H   0  0  0  0  0  0  0  0  0  0  0  0
   -2.9730   22.2954  -29.4833 H   0  0  0  0  0  0  0  0  0  0  0  0
   -1.4221   22.0130  -30.4280 H   0  0  0  0  0  0  0  0  0  0  0  0
    0.3084   22.1978  -27.1238 H   0  0  0  0  0  0  0  0  0  0  0  0
   -0.3238   21.4745  -28.6416 H   0  0  0  0  0  0  0  0  0  0  0  0
    1.2613   22.3196  -28.6416 H   0  0  0  0  0  0  0  0  0  0  0  0
   -5.0159   19.8875  -32.6694 H   0  0  0  0  0  0  0  0  0  0  0  0
  1  2  3  0
  2  3  1  0
  3  4  2  0
  4  5  1  0
  5  6  2  0
  6  7  1  0
  7  8  2  0
  8  9  1  0
  9 10  1  0
  9 11  2  0
  8 12  1  0
 12 13  1  0
 13 14  2  0
 13 15  1  0
 15 16  1  0
 16 17  1  0
 17 18  1  0
 18 19  1  0
 19 20  2  0
 19 21  1  0
 21 22  1  0
 22 23  1  0
 12 24  1  0
 24 25  2  0
 25  3  1  0
 24  6  1  0
 22 17  2  0
  1 26  1  0
  4 27  1  0
  5 28  1  0
  7 29  1  0
 10 30  1  0
 10 31  1  0
 16 32  1  0
 16 33  1  0
 23 34  1  0
 23 35  1  0
 23 36  1  0
 25 37  1  0
M  END
>  <smiles>  (25) 
C#Cc1ccc2cc(C(N)=O)n(C(=O)OCc3oc(=O)oc3C)c2c1

>  <score_type>  (25) 
oracle

>  <origin>  (25) 
adg

>  <m_score__min__energy>  (25) 
-8.7100000000000009

>  <m_primary>  (25) 
energy

$$$$
26:0
     RDKit          3D

 33 34  0  0  0  0  0  0  0  0999 V2000
   -7.5920   17.7970  -32.5510 C   0  0  0  0  0  0  0  0  0  0  0  0
   -6.2120   17.9800  -33.0270 N   0  0  0  0  0  0  0  0  0  0  0  0
   -5.6890   16.9070  -33.8440 C   0  0  0  0  0  0  0  0  0  0  0  0
   -5.1530   17.4270  -35.1290 C   0  0  0  0  0  0  0  0  0  0  0  0
   -4.1730   16.9220  -35.7270 O   0  0  0  0  0  0  0  0  0  0  0  0
   -5.7640   18.5300  -35.7000 O   0  0  0  0  0  0  0  0  0  0  0  0
   -5.4930   19.1470  -32.6680 C   0  0  0  0  0  0  0  0  0  0  0  0
   -4.1390   19.3120  -32.9020 C   0  0  0  0  0  0  0  0  0  0  0  0
   -3.4900   20.4570  -32.5230 C   0  0  0  0  0  0  0  0  0  0  0  0
   -4.2040   21.4500  -31.9030 C   0  0  0  0  0  0  0  0  0  0  0  0
   -3.8180   22.6680  -31.4290 C   0  0  0  0  0  0  0  0  0  0  0  0
   -4.9270   23.3250  -30.8730 C   0  0  0  0  0  0  0  0  0  0  0  0
   -4.8110   24.6450  -30.2960 C   0  0  0  0  0  0  0  0  0  0  0  0
   -5.3290   24.8880  -28.9600 N   0  0  0  0  0  0  0  0  0  0  0  0
   -4.2970   25.6520  -30.8230 O   0  0  0  0  0  0  0  0  0  0  0  0
   -5.9810   22.4960  -31.0140 N   0  0  0  0  0  0  0  0  0  0  0  0
   -7.3050   22.7750  -30.5810 C   0  0  0  0  0  0  0  0  0  0  0  0
   -7.5960   23.1190  -29.4040 O   0  0  0  0  0  0  0  0  0  0  0  0
   -8.6990   22.6620  -31.6620 Cl  0  0  0  0  0  0  0  0  0  0  0  0
   -5.5680   21.3500  -31.6370 C   0  0  0  0  0  0  0  0  0  0  0  0
   -6.1670   20.1820  -32.0380 C   0  0  0  0  0  0  0  0  0  0  0  0
   -7.6033   17.7955  -31.4511 H   0  0  0  0  0  0  0  0  0  0  0  0
   -8.2203   18.6197  -32.9230 H   0  0  0  0  0  0  0  0  0  0  0  0
   -7.9842   16.8390  -32.9230 H   0  0  0  0  0  0  0  0  0  0  0  0
   -4.8811   16.3994  -33.2966 H   0  0  0  0  0  0  0  0  0  0  0  0
   -6.5064   16.2047  -34.0645 H   0  0  0  0  0  0  0  0  0  0  0  0
   -6.6970   18.8320  -35.4280 H   0  0  0  0  0  0  0  0  0  0  0  0
   -3.5747   18.5102  -33.4007 H   0  0  0  0  0  0  0  0  0  0  0  0
   -2.4133   20.5781  -32.7129 H   0  0  0  0  0  0  0  0  0  0  0  0
   -2.7964   23.0733  -31.4749 H   0  0  0  0  0  0  0  0  0  0  0  0
   -4.6930   25.3530  -28.2470 H   0  0  0  0  0  0  0  0  0  0  0  0
   -6.3030   24.6140  -28.7000 H   0  0  0  0  0  0  0  0  0  0  0  0
   -7.2437   20.0600  -31.8487 H   0  0  0  0  0  0  0  0  0  0  0  0
  1  2  1  0
  2  3  1  0
  3  4  1  0
  4  5  2  0
  4  6  1  0
  2  7  1  0
  7  8  2  0
  8  9  1  0
  9 10  2  0
 10 11  1  0
 11 12  2  0
 12 13  1  0
 13 14  1  0
 13 15  2  0
 12 16  1  0
 16 17  1  0
 17 18  2  0
 17 19  1  0
 16 20  1  0
 20 21  2  0
 21  7  1  0
 20 10  1  0
  1 22  1  0
  1 23  1  0
  1 24  1  0
  3 25  1  0
  3 26  1  0
  6 27  1  0
  8 28  1  0
  9 29  1  0
 11 30  1  0
 14 31  1  0
 14 32  1  0
 21 33  1  0
M  END
>  <smiles>  (26) 
CN(CC(=O)O)c1ccc2cc(C(N)=O)n(C(=O)Cl)c2c1

>  <score_type>  (26) 
oracle

>  <origin>  (26) 
adg

>  <m_score__min__energy>  (26) 
-7.7400000000000002

>  <m_primary>  (26) 
energy

$$$$
27:0
     RDKit          3D

 43 44  0  0  0  0  0  0  0  0999 V2000
   -4.2570   23.0540  -27.8620 C   0  0  0  0  0  0  0  0  0  0  0  0
   -3.0510   22.7330  -28.5780 N   0  0  0  0  0  0  0  0  0  0  0  0
   -1.7940   23.2400  -28.0160 C   0  0  0  0  0  0  0  0  0  0  0  0
   -1.4940   24.5250  -28.6800 C   0  0  0  0  0  0  0  0  0  0  0  0
   -0.3080   24.9340  -28.6450 O   0  0  0  0  0  0  0  0  0  0  0  0
   -2.4360   25.3000  -29.3350 O   0  0  0  0  0  0  0  0  0  0  0  0
   -3.0420   21.9540  -29.7920 C   0  0  0  0  0  0  0  0  0  0  0  0
   -2.4150   20.8610  -29.6950 O   0  0  0  0  0  0  0  0  0  0  0  0
   -3.7090   22.4340  -30.9710 C   0  0  0  0  0  0  0  0  0  0  0  0
   -2.9580   22.6000  -31.9930 O   0  0  0  0  0  0  0  0  0  0  0  0
   -5.0740   22.7310  -31.1520 N   0  0  0  0  0  0  0  0  0  0  0  0
   -5.8300   23.7540  -30.7400 C   0  0  0  0  0  0  0  0  0  0  0  0
   -5.4720   25.0810  -30.2640 C   0  0  0  0  0  0  0  0  0  0  0  0
   -6.1270   25.7970  -29.2350 N   0  0  0  0  0  0  0  0  0  0  0  0
   -4.4720   25.6830  -30.7950 O   0  0  0  0  0  0  0  0  0  0  0  0
   -7.1920   23.4770  -31.0010 C   0  0  0  0  0  0  0  0  0  0  0  0
   -7.2310   22.2560  -31.5880 C   0  0  0  0  0  0  0  0  0  0  0  0
   -8.3280   21.5340  -32.0380 C   0  0  0  0  0  0  0  0  0  0  0  0
   -8.1450   20.2960  -32.6140 C   0  0  0  0  0  0  0  0  0  0  0  0
   -6.8700   19.8230  -32.7170 C   0  0  0  0  0  0  0  0  0  0  0  0
   -6.6720   18.5450  -33.3090 N   0  0  0  0  0  0  0  0  0  0  0  0
   -5.8790   18.4630  -34.5190 C   0  0  0  0  0  0  0  0  0  0  0  0
   -7.2550   17.3820  -32.7050 C   0  0  0  0  0  0  0  0  0  0  0  0
   -5.7730   20.5610  -32.2590 C   0  0  0  0  0  0  0  0  0  0  0  0
   -5.9420   21.8110  -31.6780 C   0  0  0  0  0  0  0  0  0  0  0  0
   -4.0656   23.0031  -26.7800 H   0  0  0  0  0  0  0  0  0  0  0  0
   -4.5827   24.0701  -28.1293 H   0  0  0  0  0  0  0  0  0  0  0  0
   -5.0447   22.3343  -28.1293 H   0  0  0  0  0  0  0  0  0  0  0  0
   -1.9029   23.3942  -26.9323 H   0  0  0  0  0  0  0  0  0  0  0  0
   -0.9788   22.5202  -28.1813 H   0  0  0  0  0  0  0  0  0  0  0  0
   -3.3680   25.3070  -28.9440 H   0  0  0  0  0  0  0  0  0  0  0  0
   -6.5600   25.2790  -28.4380 H   0  0  0  0  0  0  0  0  0  0  0  0
   -6.1880   26.8340  -29.2520 H   0  0  0  0  0  0  0  0  0  0  0  0
   -8.0509   24.1251  -30.7725 H   0  0  0  0  0  0  0  0  0  0  0  0
   -9.3413   21.9495  -31.9349 H   0  0  0  0  0  0  0  0  0  0  0  0
   -8.9999   19.7079  -32.9791 H   0  0  0  0  0  0  0  0  0  0  0  0
   -4.8169   18.3532  -34.2546 H   0  0  0  0  0  0  0  0  0  0  0  0
   -6.2014   17.5934  -35.1105 H   0  0  0  0  0  0  0  0  0  0  0  0
   -6.0167   19.3802  -35.1105 H   0  0  0  0  0  0  0  0  0  0  0  0
   -7.2083   17.4751  -31.6099 H   0  0  0  0  0  0  0  0  0  0  0  0
   -8.3048   17.2920  -33.0209 H   0  0  0  0  0  0  0  0  0  0  0  0
   -6.6990   16.4870  -33.0209 H   0  0  0  0  0  0  0  0  0  0  0  0
   -4.7601   20.1442  -32.3608 H   0  0  0  0  0  0  0  0  0  0  0  0
  1  2  1  0
  2  3  1  0
  3  4  1  0
  4  5  2  0
  4  6  1  0
  2  7  1  0
  7  8  2  0
  7  9  1  0
  9 10  2  0
  9 11  1  0
 11 12  1  0
 12 13  1  0
 13 14  1  0
 13 15  2  0
 12 16  2  0
 16 17  1  0
 17 18  2  0
 18 19  1  0
 19 20  2  0
 20 21  1  0
 21 22  1  0
 21 23  1  0
 20 24  1  0
 24 25  2  0
 25 11  1  0
 25 17  1  0
  1 26  1  0
  1 27  1  0
  1 28  1  0
  3 29  1  0
  3 30  1  0
  6 31  1  0
 14 32  1  0
 14 33  1  0
 16 34  1  0
 18 35  1  0
 19 36  1  0
 22 37  1  0
 22 38  1  0
 22 39  1  0
 23 40  1  0
 23 41  1  0
 23 42  1  0
 24 43  1  0
M  END
>  <smiles>  (27) 
CN(CC(=O)O)C(=O)C(=O)n1c(C(N)=O)cc2ccc(N(C)C)cc21

>  <score_type>  (27) 
oracle

>  <origin>  (27) 
adg

>  <m_score__min__energy>  (27) 
-9.4199999999999999

>  <m_primary>  (27) 
energy

$$$$
28:0
     RDKit          3D

 48 49  0  0  0  0  0  0  0  0999 V2000
    0.0860   26.1160  -27.3540 C   0  0  0  0  0  0  0  0  0  0  0  0
   -0.0480   24.7560  -27.9260 N   0  0  0  0  0  0  0  0  0  0  0  0
    0.9440   23.8050  -27.5160 C   0  0  0  0  0  0  0  0  0  0  0  0
   -1.1230   24.5720  -28.7980 C   0  0  0  0  0  0  0  0  0  0  0  0
   -1.8470   25.6450  -28.9750 O   0  0  0  0  0  0  0  0  0  0  0  0
   -1.5750   23.4090  -29.5380 C   0  0  0  0  0  0  0  0  0  0  0  0
   -2.9620   23.1090  -29.5960 N   0  0  0  0  0  0  0  0  0  0  0  0
   -3.6160   23.2960  -28.2670 C   0  0  0  0  0  0  0  0  0  0  0  0
   -3.7880   22.3350  -27.4940 O   0  0  0  0  0  0  0  0  0  0  0  0
   -4.0430   24.5370  -27.8650 O   0  0  0  0  0  0  0  0  0  0  0  0
   -3.8330   22.7350  -30.6000 C   0  0  0  0  0  0  0  0  0  0  0  0
   -3.1870   22.0270  -31.5330 O   0  0  0  0  0  0  0  0  0  0  0  0
   -5.1770   22.8540  -30.9460 N   0  0  0  0  0  0  0  0  0  0  0  0
   -5.9110   23.9700  -30.6200 C   0  0  0  0  0  0  0  0  0  0  0  0
   -5.5480   25.2630  -30.0780 C   0  0  0  0  0  0  0  0  0  0  0  0
   -6.2740   25.7960  -28.9240 N   0  0  0  0  0  0  0  0  0  0  0  0
   -4.6500   26.0360  -30.4730 O   0  0  0  0  0  0  0  0  0  0  0  0
   -7.2440   23.7390  -31.0030 C   0  0  0  0  0  0  0  0  0  0  0  0
   -7.3290   22.5080  -31.5540 C   0  0  0  0  0  0  0  0  0  0  0  0
   -8.4170   21.8330  -32.0610 C   0  0  0  0  0  0  0  0  0  0  0  0
   -8.2850   20.5650  -32.5610 C   0  0  0  0  0  0  0  0  0  0  0  0
   -7.0290   20.0040  -32.5310 C   0  0  0  0  0  0  0  0  0  0  0  0
   -6.8130   18.6880  -33.0320 N   0  0  0  0  0  0  0  0  0  0  0  0
   -6.0950   18.5790  -34.2860 C   0  0  0  0  0  0  0  0  0  0  0  0
   -7.2970   17.5280  -32.3070 C   0  0  0  0  0  0  0  0  0  0  0  0
   -5.9470   20.7000  -32.0160 C   0  0  0  0  0  0  0  0  0  0  0  0
   -6.0500   21.9800  -31.5100 C   0  0  0  0  0  0  0  0  0  0  0  0
    0.0799   26.0541  -26.2558 H   0  0  0  0  0  0  0  0  0  0  0  0
    1.0326   26.5638  -27.6908 H   0  0  0  0  0  0  0  0  0  0  0  0
   -0.7550   26.7399  -27.6908 H   0  0  0  0  0  0  0  0  0  0  0  0
    0.9836   23.7670  -26.4174 H   0  0  0  0  0  0  0  0  0  0  0  0
    0.6831   22.8109  -27.9081 H   0  0  0  0  0  0  0  0  0  0  0  0
    1.9262   24.1076  -27.9081 H   0  0  0  0  0  0  0  0  0  0  0  0
   -1.2325   23.5377  -30.5754 H   0  0  0  0  0  0  0  0  0  0  0  0
   -1.1531   22.5650  -28.9727 H   0  0  0  0  0  0  0  0  0  0  0  0
   -3.9590   25.3560  -28.4690 H   0  0  0  0  0  0  0  0  0  0  0  0
   -5.9770   25.5470  -27.9560 H   0  0  0  0  0  0  0  0  0  0  0  0
   -7.0880   26.4250  -29.1330 H   0  0  0  0  0  0  0  0  0  0  0  0
   -8.0791   24.4434  -30.8753 H   0  0  0  0  0  0  0  0  0  0  0  0
   -9.4042   22.3183  -32.0644 H   0  0  0  0  0  0  0  0  0  0  0  0
   -9.1473   20.0177  -32.9696 H   0  0  0  0  0  0  0  0  0  0  0  0
   -5.0260   18.4167  -34.0836 H   0  0  0  0  0  0  0  0  0  0  0  0
   -6.4918   17.7308  -34.8632 H   0  0  0  0  0  0  0  0  0  0  0  0
   -6.2222   19.5067  -34.8632 H   0  0  0  0  0  0  0  0  0  0  0  0
   -7.2198   17.7131  -31.2254 H   0  0  0  0  0  0  0  0  0  0  0  0
   -8.3480   17.3416  -32.5730 H   0  0  0  0  0  0  0  0  0  0  0  0
   -6.6902   16.6499  -32.5730 H   0  0  0  0  0  0  0  0  0  0  0  0
   -4.9620   20.2104  -32.0102 H   0  0  0  0  0  0  0  0  0  0  0  0
  1  2  1  0
  2  3  1  0
  2  4  1  0
  4  5  2  0
  4  6  1  0
  6  7  1  0
  7  8  1  0
  8  9  2  0
  8 10  1  0
  7 11  1  0
 11 12  2  0
 11 13  1  0
 13 14  1  0
 14 15  1  0
 15 16  1  0
 15 17  2  0
 14 18  2  0
 18 19  1  0
 19 20  2  0
 20 21  1  0
 21 22  2  0
 22 23  1  0
 23 24  1  0
 23 25  1  0
 22 26  1  0
 26 27  2  0
 27 13  1  0
 27 19  1  0
  1 28  1  0
  1 29  1  0
  1 30  1  0
  3 31  1  0
  3 32  1  0
  3 33  1  0
  6 34  1  0
  6 35  1  0
 10 36  1  0
 16 37  1  0
 16 38  1  0
 18 39  1  0
 20 40  1  0
 21 41  1  0
 24 42  1  0
 24 43  1  0
 24 44  1  0
 25 45  1  0
 25 46  1  0
 25 47  1  0
 26 48  1  0
M  END
>  <smiles>  (28) 
CN(C)C(=O)CN(C(=O)O)C(=O)n1c(C(N)=O)cc2ccc(N(C)C)cc21

>  <score_type>  (28) 
oracle

>  <origin>  (28) 
adg

>  <m_score__min__energy>  (28) 
-8.7599999999999998

>  <m_primary>  (28) 
energy

$$$$
29:0
     RDKit          3D

 45 46  0  0  0  0  0  0  0  0999 V2000
   -5.4890   24.9640  -29.0330 N   0  0  0  0  0  0  0  0  0  0  0  0
   -5.2860   24.6390  -30.4300 C   0  0  0  0  0  0  0  0  0  0  0  0
   -4.6320   25.4800  -31.0700 O   0  0  0  0  0  0  0  0  0  0  0  0
   -5.8420   23.4040  -30.9440 C   0  0  0  0  0  0  0  0  0  0  0  0
   -7.2200   23.2250  -31.1430 C   0  0  0  0  0  0  0  0  0  0  0  0
   -7.4460   21.9610  -31.6360 C   0  0  0  0  0  0  0  0  0  0  0  0
   -8.6140   21.3150  -31.9880 C   0  0  0  0  0  0  0  0  0  0  0  0
   -8.5470   20.0240  -32.4640 C   0  0  0  0  0  0  0  0  0  0  0  0
   -7.3240   19.4000  -32.5800 C   0  0  0  0  0  0  0  0  0  0  0  0
   -7.2310   17.9940  -33.0960 C   0  0  0  0  0  0  0  0  0  0  0  0
   -6.1540   17.8890  -34.1420 C   0  0  0  0  0  0  0  0  0  0  0  0
   -6.1160   18.7990  -34.9840 O   0  0  0  0  0  0  0  0  0  0  0  0
   -5.3240   16.8060  -34.0640 O   0  0  0  0  0  0  0  0  0  0  0  0
   -4.2900   16.7710  -33.1160 C   0  0  0  0  0  0  0  0  0  0  0  0
   -3.4560   18.0210  -33.2200 C   0  0  0  0  0  0  0  0  0  0  0  0
   -3.3000   18.2970  -34.5960 O   0  0  0  0  0  0  0  0  0  0  0  0
   -6.1710   20.0820  -32.2160 C   0  0  0  0  0  0  0  0  0  0  0  0
   -6.1980   21.3800  -31.7340 C   0  0  0  0  0  0  0  0  0  0  0  0
   -5.2480   22.2590  -31.3160 N   0  0  0  0  0  0  0  0  0  0  0  0
   -3.8600   21.9770  -31.2880 C   0  0  0  0  0  0  0  0  0  0  0  0
   -3.2500   21.2540  -32.1060 O   0  0  0  0  0  0  0  0  0  0  0  0
   -3.0590   22.5310  -30.2790 O   0  0  0  0  0  0  0  0  0  0  0  0
   -3.3740   22.3700  -28.9110 C   0  0  0  0  0  0  0  0  0  0  0  0
   -2.3350   22.7550  -28.0720 O   0  0  0  0  0  0  0  0  0  0  0  0
   -2.4380   24.4280  -27.8750 P   0  0  0  0  0  0  0  0  0  0  0  0
   -1.1240   24.8900  -27.2520 O   0  0  0  0  0  0  0  0  0  0  0  0
   -3.6860   24.8810  -26.8240 O   0  0  0  0  0  0  0  0  0  0  0  0
   -2.6910   25.2420  -29.3330 O   0  0  0  0  0  0  0  0  0  0  0  0
   -4.6770   25.3080  -28.4430 H   0  0  0  0  0  0  0  0  0  0  0  0
   -6.4520   24.8570  -28.5990 H   0  0  0  0  0  0  0  0  0  0  0  0
   -7.9963   23.9767  -30.9372 H   0  0  0  0  0  0  0  0  0  0  0  0
   -9.5843   21.8238  -31.8898 H   0  0  0  0  0  0  0  0  0  0  0  0
   -9.4668   19.4931  -32.7505 H   0  0  0  0  0  0  0  0  0  0  0  0
   -6.9937   17.3169  -32.2622 H   0  0  0  0  0  0  0  0  0  0  0  0
   -8.1947   17.7150  -33.5470 H   0  0  0  0  0  0  0  0  0  0  0  0
   -4.7226   16.7042  -32.1069 H   0  0  0  0  0  0  0  0  0  0  0  0
   -3.6536   15.8943  -33.3068 H   0  0  0  0  0  0  0  0  0  0  0  0
   -3.9661   18.8586  -32.7217 H   0  0  0  0  0  0  0  0  0  0  0  0
   -2.4793   17.8842  -32.7328 H   0  0  0  0  0  0  0  0  0  0  0  0
   -4.1120   17.9640  -35.0710 H   0  0  0  0  0  0  0  0  0  0  0  0
   -5.2008   19.5730  -32.3140 H   0  0  0  0  0  0  0  0  0  0  0  0
   -4.2584   22.9817  -28.6793 H   0  0  0  0  0  0  0  0  0  0  0  0
   -3.5621   21.3002  -28.7372 H   0  0  0  0  0  0  0  0  0  0  0  0
   -4.1870   25.6660  -27.1410 H   0  0  0  0  0  0  0  0  0  0  0  0
   -2.9120   24.6070  -30.0530 H   0  0  0  0  0  0  0  0  0  0  0  0
  1  2  1  0
  2  3  2  0
  2  4  1  0
  4  5  2  0
  5  6  1  0
  6  7  2  0
  7  8  1  0
  8  9  2  0
  9 10  1  0
 10 11  1  0
 11 12  2  0
 11 13  1  0
 13 14  1  0
 14 15  1  0
 15 16  1  0
  9 17  1  0
 17 18  2  0
 18 19  1  0
 19 20  1  0
 20 21  2  0
 20 22  1  0
 22 23  1  0
 23 24  1  0
 24 25  1  0
 25 26  2  0
 25 27  1  0
 25 28  1  0
 19  4  1  0
 18  6  1  0
  1 29  1  0
  1 30  1  0
  5 31  1  0
  7 32  1  0
  8 33  1  0
 10 34  1  0
 10 35  1  0
 14 36  1  0
 14 37  1  0
 15 38  1  0
 15 39  1  0
 16 40  1  0
 17 41  1  0
 23 42  1  0
 23 43  1  0
 27 44  1  0
 28 45  1  0
M  END
>  <smiles>  (29) 
NC(=O)c1cc2ccc(CC(=O)OCCO)cc2n1C(=O)OCOP(=O)(O)O

>  <score_type>  (29) 
oracle

>  <origin>  (29) 
adg

>  <m_score__min__energy>  (29) 
-7.4800000000000004

>  <m_primary>  (29) 
energy

$$$$
30:0
     RDKit          3D

 41 42  0  0  0  0  0  0  0  0999 V2000
   -1.6520   23.2900  -27.9140 C   0  0  0  0  0  0  0  0  0  0  0  0
   -2.5890   22.6630  -28.9350 C   0  0  0  0  0  0  0  0  0  0  0  0
   -3.8570   22.2160  -28.2160 C   0  0  0  0  0  0  0  0  0  0  0  0
   -1.9640   21.4770  -29.6130 C   0  0  0  0  0  0  0  0  0  0  0  0
   -1.2090   21.8690  -30.7110 O   0  0  0  0  0  0  0  0  0  0  0  0
   -2.9460   23.7140  -29.9140 C   0  0  0  0  0  0  0  0  0  0  0  0
   -3.0100   24.9360  -29.5390 O   0  0  0  0  0  0  0  0  0  0  0  0
   -3.2250   23.4660  -31.2510 O   0  0  0  0  0  0  0  0  0  0  0  0
   -4.1700   22.5680  -31.6710 C   0  0  0  0  0  0  0  0  0  0  0  0
   -3.7110   21.5580  -32.3130 O   0  0  0  0  0  0  0  0  0  0  0  0
   -5.5640   22.6570  -31.4650 N   0  0  0  0  0  0  0  0  0  0  0  0
   -6.2660   23.6880  -30.9710 C   0  0  0  0  0  0  0  0  0  0  0  0
   -5.8240   24.9760  -30.4800 C   0  0  0  0  0  0  0  0  0  0  0  0
   -5.7940   25.2240  -29.0570 N   0  0  0  0  0  0  0  0  0  0  0  0
   -5.4480   25.9400  -31.1830 O   0  0  0  0  0  0  0  0  0  0  0  0
   -7.6180   23.3230  -30.9730 C   0  0  0  0  0  0  0  0  0  0  0  0
   -7.7230   22.0500  -31.4760 C   0  0  0  0  0  0  0  0  0  0  0  0
   -8.8330   21.2560  -31.6770 C   0  0  0  0  0  0  0  0  0  0  0  0
   -8.6750   19.9940  -32.2040 C   0  0  0  0  0  0  0  0  0  0  0  0
   -7.4050   19.5570  -32.5180 C   0  0  0  0  0  0  0  0  0  0  0  0
   -7.2390   18.1920  -33.0870 C   0  0  0  0  0  0  0  0  0  0  0  0
   -6.2600   18.1640  -34.0570 F   0  0  0  0  0  0  0  0  0  0  0  0
   -6.8400   17.3080  -32.0850 F   0  0  0  0  0  0  0  0  0  0  0  0
   -6.2950   20.3840  -32.3040 C   0  0  0  0  0  0  0  0  0  0  0  0
   -6.4390   21.6580  -31.7740 C   0  0  0  0  0  0  0  0  0  0  0  0
   -2.0047   23.0540  -26.8992 H   0  0  0  0  0  0  0  0  0  0  0  0
   -0.6373   22.8883  -28.0522 H   0  0  0  0  0  0  0  0  0  0  0  0
   -1.6363   24.3812  -28.0522 H   0  0  0  0  0  0  0  0  0  0  0  0
   -3.7007   22.2711  -27.1286 H   0  0  0  0  0  0  0  0  0  0  0  0
   -4.6912   22.8743  -28.5004 H   0  0  0  0  0  0  0  0  0  0  0  0
   -4.0940   21.1801  -28.5004 H   0  0  0  0  0  0  0  0  0  0  0  0
   -1.3122   20.9558  -28.8964 H   0  0  0  0  0  0  0  0  0  0  0  0
   -2.7668   20.8104  -29.9611 H   0  0  0  0  0  0  0  0  0  0  0  0
   -1.7350   21.9470  -31.5350 H   0  0  0  0  0  0  0  0  0  0  0  0
   -6.7170   25.2760  -28.5720 H   0  0  0  0  0  0  0  0  0  0  0  0
   -4.8900   25.3430  -28.5510 H   0  0  0  0  0  0  0  0  0  0  0  0
   -8.4541   23.9500  -30.6297 H   0  0  0  0  0  0  0  0  0  0  0  0
   -9.8354   21.6279  -31.4185 H   0  0  0  0  0  0  0  0  0  0  0  0
   -9.5471   19.3450  -32.3719 H   0  0  0  0  0  0  0  0  0  0  0  0
   -8.2075   17.9041  -33.5218 H   0  0  0  0  0  0  0  0  0  0  0  0
   -5.2905   20.0166  -32.5609 H   0  0  0  0  0  0  0  0  0  0  0  0
  1  2  1  0
  2  3  1  0
  2  4  1  0
  4  5  1  0
  2  6  1  0
  6  7  2  0
  6  8  1  0
  8  9  1  0
  9 10  2  0
  9 11  1  0
 11 12  1  0
 12 13  1  0
 13 14  1  0
 13 15  2  0
 12 16  2  0
 16 17  1  0
 17 18  2  0
 18 19  1  0
 19 20  2  0
 20 21  1  0
 21 22  1  0
 21 23  1  0
 20 24  1  0
 24 25  2  0
 25 11  1  0
 25 17  1  0
  1 26  1  0
  1 27  1  0
  1 28  1  0
  3 29  1  0
  3 30  1  0
  3 31  1  0
  4 32  1  0
  4 33  1  0
  5 34  1  0
 14 35  1  0
 14 36  1  0
 16 37  1  0
 18 38  1  0
 19 39  1  0
 21 40  1  0
 24 41  1  0
M  END
>  <smiles>  (30) 
CC(C)(CO)C(=O)OC(=O)n1c(C(N)=O)cc2ccc(C(F)F)cc21

>  <score_type>  (30) 
oracle

>  <origin>  (30) 
adg

>  <m_score__min__energy>  (30) 
-8.9100000000000001

>  <m_primary>  (30) 
energy

$$$$
31:0
     RDKit          3D

 33 34  0  0  0  0  0  0  0  0999 V2000
   -5.7680   16.5140  -33.0980 C   0  0  0  0  0  0  0  0  0  0  0  0
   -5.8490   17.6790  -32.8350 C   0  0  0  0  0  0  0  0  0  0  0  0
   -5.9520   19.0910  -32.5340 C   0  0  0  0  0  0  0  0  0  0  0  0
   -6.9640   19.8440  -33.0850 C   0  0  0  0  0  0  0  0  0  0  0  0
   -7.0400   21.1780  -32.7840 C   0  0  0  0  0  0  0  0  0  0  0  0
   -6.1060   21.7460  -31.9370 C   0  0  0  0  0  0  0  0  0  0  0  0
   -5.9580   23.0300  -31.4840 C   0  0  0  0  0  0  0  0  0  0  0  0
   -4.8480   23.0960  -30.6390 C   0  0  0  0  0  0  0  0  0  0  0  0
   -4.4290   24.3220  -30.0000 C   0  0  0  0  0  0  0  0  0  0  0  0
   -4.4550   24.4050  -28.5570 N   0  0  0  0  0  0  0  0  0  0  0  0
   -4.0310   25.3610  -30.5730 O   0  0  0  0  0  0  0  0  0  0  0  0
   -4.3300   21.8590  -30.5870 N   0  0  0  0  0  0  0  0  0  0  0  0
   -3.1990   21.4200  -29.8620 C   0  0  0  0  0  0  0  0  0  0  0  0
   -3.3540   20.7920  -28.7600 O   0  0  0  0  0  0  0  0  0  0  0  0
   -1.8840   21.6060  -30.2390 O   0  0  0  0  0  0  0  0  0  0  0  0
   -1.3010   22.8810  -30.4400 C   0  0  0  0  0  0  0  0  0  0  0  0
   -1.1790   23.8130  -28.8990 P   0  0  0  0  0  0  0  0  0  0  0  0
    0.3040   24.0490  -28.6000 O   0  0  0  0  0  0  0  0  0  0  0  0
   -1.8850   25.3440  -29.0040 O   0  0  0  0  0  0  0  0  0  0  0  0
   -1.8400   22.9360  -27.6140 O   0  0  0  0  0  0  0  0  0  0  0  0
   -5.0790   21.0290  -31.3650 C   0  0  0  0  0  0  0  0  0  0  0  0
   -5.0190   19.6830  -31.6810 C   0  0  0  0  0  0  0  0  0  0  0  0
   -5.6936   15.4435  -33.3397 H   0  0  0  0  0  0  0  0  0  0  0  0
   -7.7012   19.3810  -33.7575 H   0  0  0  0  0  0  0  0  0  0  0  0
   -7.8417   21.7958  -33.2148 H   0  0  0  0  0  0  0  0  0  0  0  0
   -6.6107   23.8762  -31.7447 H   0  0  0  0  0  0  0  0  0  0  0  0
   -5.3410   24.5980  -28.0410 H   0  0  0  0  0  0  0  0  0  0  0  0
   -3.5270   24.2580  -28.0670 H   0  0  0  0  0  0  0  0  0  0  0  0
   -0.2918   22.7492  -30.8572 H   0  0  0  0  0  0  0  0  0  0  0  0
   -1.9440   23.4458  -31.1311 H   0  0  0  0  0  0  0  0  0  0  0  0
   -2.0110   25.6750  -29.9090 H   0  0  0  0  0  0  0  0  0  0  0  0
   -2.1020   22.0400  -27.9350 H   0  0  0  0  0  0  0  0  0  0  0  0
   -4.2174   19.0652  -31.2499 H   0  0  0  0  0  0  0  0  0  0  0  0
  1  2  3  0
  2  3  1  0
  3  4  2  0
  4  5  1  0
  5  6  2  0
  6  7  1  0
  7  8  2  0
  8  9  1  0
  9 10  1  0
  9 11  2  0
  8 12  1  0
 12 13  1  0
 13 14  2  0
 13 15  1  0
 15 16  1  0
 16 17  1  0
 17 18  2  0
 17 19  1  0
 17 20  1  0
 12 21  1  0
 21 22  2  0
 22  3  1  0
 21  6  1  0
  1 23  1  0
  4 24  1  0
  5 25  1  0
  7 26  1  0
 10 27  1  0
 10 28  1  0
 16 29  1  0
 16 30  1  0
 19 31  1  0
 20 32  1  0
 22 33  1  0
M  END
>  <smiles>  (31) 
C#Cc1ccc2cc(C(N)=O)n(C(=O)OCP(=O)(O)O)c2c1

>  <score_type>  (31) 
oracle

>  <origin>  (31) 
adg

>  <m_score__min__energy>  (31) 
-8.5299999999999994

>  <m_primary>  (31) 
energy

$$$$
32:0
     RDKit          3D

 91 95  0  0  0  0  0  0  0  0999 V2000
   -2.9030   23.8400  -27.6820 C   0  0  0  0  0  0  0  0  0  0  0  0
   -2.4940   23.9770  -28.9180 C   0  0  0  0  0  0  0  0  0  0  0  0
   -1.9910   25.2840  -29.2030 O   0  0  0  0  0  0  0  0  0  0  0  0
   -1.2270   25.9680  -28.2400 C   0  0  0  0  0  0  0  0  0  0  0  0
   -2.4660   23.0480  -30.0020 C   0  0  0  0  0  0  0  0  0  0  0  0
   -1.2040   22.5370  -30.2410 C   0  0  0  0  0  0  0  0  0  0  0  0
   -3.4190   22.6160  -30.9640 C   0  0  0  0  0  0  0  0  0  0  0  0
   -2.8150   22.1370  -32.0470 O   0  0  0  0  0  0  0  0  0  0  0  0
   -4.8030   22.5720  -31.0600 N   0  0  0  0  0  0  0  0  0  0  0  0
   -5.6220   23.6250  -30.8140 C   0  0  0  0  0  0  0  0  0  0  0  0
   -5.3580   24.9130  -30.1880 C   0  0  0  0  0  0  0  0  0  0  0  0
   -5.7930   25.2960  -28.8930 N   0  0  0  0  0  0  0  0  0  0  0  0
   -4.6870   25.8300  -30.8010 O   0  0  0  0  0  0  0  0  0  0  0  0
   -6.9240   23.2960  -31.2130 C   0  0  0  0  0  0  0  0  0  0  0  0
   -6.8980   22.0410  -31.7050 C   0  0  0  0  0  0  0  0  0  0  0  0
   -7.9130   21.2840  -32.2640 C   0  0  0  0  0  0  0  0  0  0  0  0
   -7.6130   20.0360  -32.7560 C   0  0  0  0  0  0  0  0  0  0  0  0
   -6.3160   19.5320  -32.6990 C   0  0  0  0  0  0  0  0  0  0  0  0
   -6.0340   18.2260  -33.2220 N   0  0  0  0  0  0  0  0  0  0  0  0
   -6.1360   17.8930  -34.6240 C   0  0  0  0  0  0  0  0  0  0  0  0
   -4.9460   17.0230  -35.0160 C   0  0  0  0  0  0  0  0  0  0  0  0
   -4.9040   15.8960  -34.1330 N   0  0  0  0  0  0  0  0  0  0  0  0
   -4.0190   14.7990  -34.4360 C   0  0  0  0  0  0  0  0  0  0  0  0
   -3.9370   13.7910  -33.7000 O   0  0  0  0  0  0  0  0  0  0  0  0
   -3.1750   14.8800  -35.6770 C   0  0  0  0  0  0  0  0  0  0  0  0
   -1.8660   15.3830  -35.3410 N   0  0  0  0  0  0  0  0  0  0  0  0
   -2.0010   16.7330  -34.8680 C   0  0  0  0  0  0  0  0  0  0  0  0
   -1.7420   16.7740  -33.3880 C   0  0  0  0  0  0  0  0  0  0  0  0
   -0.3450   16.5100  -33.1480 N   0  0  0  0  0  0  0  0  0  0  0  0
    0.4390   17.5460  -33.7230 C   0  0  0  0  0  0  0  0  0  0  0  0
    0.1950   18.9410  -33.1870 C   0  0  0  0  0  0  0  0  0  0  0  0
    1.6270   19.1570  -33.4580 N   0  0  0  0  0  0  0  0  0  0  0  0
    2.4520   20.2150  -33.9240 C   0  0  0  0  0  0  0  0  0  0  0  0
    3.6940   20.0970  -34.0580 O   0  0  0  0  0  0  0  0  0  0  0  0
    1.8730   21.4210  -34.2410 O   0  0  0  0  0  0  0  0  0  0  0  0
    0.8560   21.5070  -35.2220 C   0  0  0  0  0  0  0  0  0  0  0  0
    1.0690   22.8310  -35.9260 C   0  0  0  0  0  0  0  0  0  0  0  0
   -0.5240   21.5760  -34.5730 C   0  0  0  0  0  0  0  0  0  0  0  0
    0.9360   20.4330  -36.2580 C   0  0  0  0  0  0  0  0  0  0  0  0
    1.8000   17.7600  -33.0260 C   0  0  0  0  0  0  0  0  0  0  0  0
   -0.0580   15.2050  -33.6620 C   0  0  0  0  0  0  0  0  0  0  0  0
   -1.2400   14.5680  -34.3460 C   0  0  0  0  0  0  0  0  0  0  0  0
   -5.7320   15.8640  -32.9680 C   0  0  0  0  0  0  0  0  0  0  0  0
   -5.6330   17.2080  -32.2850 C   0  0  0  0  0  0  0  0  0  0  0  0
   -5.3650   20.3380  -32.1300 C   0  0  0  0  0  0  0  0  0  0  0  0
   -5.5910   21.5950  -31.6140 C   0  0  0  0  0  0  0  0  0  0  0  0
   -3.3121   22.8773  -27.3415 H   0  0  0  0  0  0  0  0  0  0  0  0
   -2.8376   24.6876  -26.9839 H   0  0  0  0  0  0  0  0  0  0  0  0
   -1.5568   25.6727  -27.2330 H   0  0  0  0  0  0  0  0  0  0  0  0
   -0.1643   25.7139  -28.3670 H   0  0  0  0  0  0  0  0  0  0  0  0
   -1.3625   27.0522  -28.3670 H   0  0  0  0  0  0  0  0  0  0  0  0
   -1.0496   21.8097  -31.0517 H   0  0  0  0  0  0  0  0  0  0  0  0
   -0.3542   22.8577  -29.6205 H   0  0  0  0  0  0  0  0  0  0  0  0
   -6.8290   25.2660  -28.6840 H   0  0  0  0  0  0  0  0  0  0  0  0
   -5.1220   25.6110  -28.1350 H   0  0  0  0  0  0  0  0  0  0  0  0
   -7.8089   23.9452  -31.1383 H   0  0  0  0  0  0  0  0  0  0  0  0
   -8.9404   21.6737  -32.3136 H   0  0  0  0  0  0  0  0  0  0  0  0
   -8.4112   19.4248  -33.2025 H   0  0  0  0  0  0  0  0  0  0  0  0
   -7.0709   17.3424  -34.8051 H   0  0  0  0  0  0  0  0  0  0  0  0
   -6.1370   18.8140  -35.2255 H   0  0  0  0  0  0  0  0  0  0  0  0
   -5.0629   16.6783  -36.0540 H   0  0  0  0  0  0  0  0  0  0  0  0
   -4.0126   17.6000  -34.9395 H   0  0  0  0  0  0  0  0  0  0  0  0
   -3.0792   13.8779  -36.1204 H   0  0  0  0  0  0  0  0  0  0  0  0
   -3.6523   15.5587  -36.3992 H   0  0  0  0  0  0  0  0  0  0  0  0
   -1.2746   17.3770  -35.3853 H   0  0  0  0  0  0  0  0  0  0  0  0
   -3.0204   17.0925  -35.0718 H   0  0  0  0  0  0  0  0  0  0  0  0
   -2.0021   17.7682  -32.9956 H   0  0  0  0  0  0  0  0  0  0  0  0
   -2.3559   16.0141  -32.8823 H   0  0  0  0  0  0  0  0  0  0  0  0
    0.2925   17.2586  -34.7746 H   0  0  0  0  0  0  0  0  0  0  0  0
   -0.4927   19.5582  -33.7838 H   0  0  0  0  0  0  0  0  0  0  0  0
   -0.2657   19.1347  -32.2071 H   0  0  0  0  0  0  0  0  0  0  0  0
    1.1971   23.6275  -35.1782 H   0  0  0  0  0  0  0  0  0  0  0  0
    1.9690   22.7709  -36.5556 H   0  0  0  0  0  0  0  0  0  0  0  0
    0.1955   23.0562  -36.5556 H   0  0  0  0  0  0  0  0  0  0  0  0
   -0.4151   21.5706  -33.4784 H   0  0  0  0  0  0  0  0  0  0  0  0
   -1.0308   22.5006  -34.8865 H   0  0  0  0  0  0  0  0  0  0  0  0
   -1.1205   20.7066  -34.8865 H   0  0  0  0  0  0  0  0  0  0  0  0
    1.0090   19.4525  -35.7648 H   0  0  0  0  0  0  0  0  0  0  0  0
    0.0333   20.4613  -36.8859 H   0  0  0  0  0  0  0  0  0  0  0  0
    1.8246   20.5947  -36.8859 H   0  0  0  0  0  0  0  0  0  0  0  0
    2.6504   17.2282  -33.4777 H   0  0  0  0  0  0  0  0  0  0  0  0
    2.0034   17.4659  -31.9857 H   0  0  0  0  0  0  0  0  0  0  0  0
    0.7644   15.2873  -34.3878 H   0  0  0  0  0  0  0  0  0  0  0  0
    0.2106   14.5667  -32.8073 H   0  0  0  0  0  0  0  0  0  0  0  0
   -0.8977   13.6406  -34.8285 H   0  0  0  0  0  0  0  0  0  0  0  0
   -1.9953   14.3965  -33.5650 H   0  0  0  0  0  0  0  0  0  0  0  0
   -6.7752   15.6686  -33.2572 H   0  0  0  0  0  0  0  0  0  0  0  0
   -5.4018   15.0654  -32.2875 H   0  0  0  0  0  0  0  0  0  0  0  0
   -6.2965   17.2285  -31.4079 H   0  0  0  0  0  0  0  0  0  0  0  0
   -4.6000   17.3871  -31.9522 H   0  0  0  0  0  0  0  0  0  0  0  0
   -4.3371   19.9494  -32.0813 H   0  0  0  0  0  0  0  0  0  0  0  0
  1  2  2  0
  2  3  1  0
  3  4  1  0
  2  5  1  0
  5  6  2  0
  5  7  1  0
  7  8  2  0
  7  9  1  0
  9 10  1  0
 10 11  1  0
 11 12  1  0
 11 13  2  0
 10 14  2  0
 14 15  1  0
 15 16  2  0
 16 17  1  0
 17 18  2  0
 18 19  1  0
 19 20  1  0
 20 21  1  0
 21 22  1  0
 22 23  1  0
 23 24  2  0
 23 25  1  0
 25 26  1  0
 26 27  1  0
 27 28  1  0
 28 29  1  0
 29 30  1  0
 30 31  1  0
 31 32  1  0
 32 33  1  0
 33 34  2  0
 33 35  1  0
 35 36  1  0
 36 37  1  0
 36 38  1  0
 36 39  1  0
 32 40  1  0
 29 41  1  0
 41 42  1  0
 22 43  1  0
 43 44  1  0
 18 45  1  0
 45 46  2  0
 46  9  1  0
 46 15  1  0
 44 19  1  0
 42 26  1  0
 40 30  1  0
  1 47  1  0
  1 48  1  0
  4 49  1  0
  4 50  1  0
  4 51  1  0
  6 52  1  0
  6 53  1  0
 12 54  1  0
 12 55  1  0
 14 56  1  0
 16 57  1  0
 17 58  1  0
 20 59  1  0
 20 60  1  0
 21 61  1  0
 21 62  1  0
 25 63  1  0
 25 64  1  0
 27 65  1  0
 27 66  1  0
 28 67  1  0
 28 68  1  0
 30 69  1  0
 31 70  1  0
 31 71  1  0
 37 72  1  0
 37 73  1  0
 37 74  1  0
 38 75  1  0
 38 76  1  0
 38 77  1  0
 39 78  1  0
 39 79  1  0
 39 80  1  0
 40 81  1  0
 40 82  1  0
 41 83  1  0
 41 84  1  0
 42 85  1  0
 42 86  1  0
 43 87  1  0
 43 88  1  0
 44 89  1  0
 44 90  1  0
 45 91  1  0
M  END
>  <smiles>  (32) 
C=C(OC)C(=C)C(=O)n1c(C(N)=O)cc2ccc(N3CCN(C(=O)CN4CCN(C5CN(C(=O)OC(C)(C)C)C5)CC4)CC3)cc21

>  <score_type>  (32) 
oracle

>  <origin>  (32) 
adg

>  <m_score__min__energy>  (32) 
-11.109999999999999

>  <m_primary>  (32) 
energy

$$$$
33:0
     RDKit          3D

 39 41  0  0  0  0  0  0  0  0999 V2000
   -4.4520   16.0300  -33.3130 B   0  0  0  0  0  1  0  0  0  0  0  0
   -4.2970   17.1550  -34.3980 C   0  0  0  0  0  0  0  0  0  0  0  0
   -3.5410   16.6510  -35.6740 B   0  0  0  0  0  1  0  0  0  0  0  0
   -5.5400   17.9760  -34.6640 C   0  0  0  0  0  0  0  0  0  0  0  0
   -5.1320   18.9840  -33.7050 N   0  0  0  0  0  0  0  0  0  0  0  0
   -5.8480   19.9860  -32.9960 C   0  0  0  0  0  0  0  0  0  0  0  0
   -7.2190   19.9660  -33.0060 C   0  0  0  0  0  0  0  0  0  0  0  0
   -7.8720   20.9560  -32.3070 C   0  0  0  0  0  0  0  0  0  0  0  0
   -7.1610   21.9200  -31.6270 C   0  0  0  0  0  0  0  0  0  0  0  0
   -7.5960   22.9950  -30.9260 C   0  0  0  0  0  0  0  0  0  0  0  0
   -6.4760   23.7010  -30.4590 C   0  0  0  0  0  0  0  0  0  0  0  0
   -6.6550   24.8930  -29.6540 C   0  0  0  0  0  0  0  0  0  0  0  0
   -5.6350   25.2910  -28.6910 N   0  0  0  0  0  0  0  0  0  0  0  0
   -7.6330   25.6760  -29.6790 O   0  0  0  0  0  0  0  0  0  0  0  0
   -5.3510   23.0510  -30.8790 N   0  0  0  0  0  0  0  0  0  0  0  0
   -4.0700   23.5610  -30.6980 C   0  0  0  0  0  0  0  0  0  0  0  0
   -4.0320   24.8760  -30.8680 O   0  0  0  0  0  0  0  0  0  0  0  0
   -2.8030   23.0200  -30.3660 C   0  0  0  0  0  0  0  0  0  0  0  0
   -2.1020   22.0290  -30.8440 C   0  0  0  0  0  0  0  0  0  0  0  0
   -2.0740   23.7390  -29.2030 C   0  0  0  0  0  0  0  0  0  0  0  0
   -2.4430   25.0600  -29.1940 O   0  0  0  0  0  0  0  0  0  0  0  0
   -5.7790   21.9670  -31.5930 C   0  0  0  0  0  0  0  0  0  0  0  0
   -5.1570   20.9620  -32.3070 C   0  0  0  0  0  0  0  0  0  0  0  0
   -3.7770   18.4860  -33.8410 C   0  0  0  0  0  0  0  0  0  0  0  0
   -5.6105   18.3501  -35.6960 H   0  0  0  0  0  0  0  0  0  0  0  0
   -6.5300   17.5063  -34.5678 H   0  0  0  0  0  0  0  0  0  0  0  0
   -7.7753   19.1893  -33.5512 H   0  0  0  0  0  0  0  0  0  0  0  0
   -8.9717   20.9774  -32.2914 H   0  0  0  0  0  0  0  0  0  0  0  0
   -8.6474   23.2679  -30.7525 H   0  0  0  0  0  0  0  0  0  0  0  0
   -4.6610   25.4390  -29.0390 H   0  0  0  0  0  0  0  0  0  0  0  0
   -5.9140   25.4140  -27.6870 H   0  0  0  0  0  0  0  0  0  0  0  0
   -1.1188   21.7919  -30.4116 H   0  0  0  0  0  0  0  0  0  0  0  0
   -2.4942   21.4305  -31.6795 H   0  0  0  0  0  0  0  0  0  0  0  0
   -2.3534   23.2714  -28.2473 H   0  0  0  0  0  0  0  0  0  0  0  0
   -0.9855   23.6579  -29.3397 H   0  0  0  0  0  0  0  0  0  0  0  0
   -3.3520   25.2230  -28.8260 H   0  0  0  0  0  0  0  0  0  0  0  0
   -4.0575   20.9381  -32.3276 H   0  0  0  0  0  0  0  0  0  0  0  0
   -3.1617   19.0567  -34.5521 H   0  0  0  0  0  0  0  0  0  0  0  0
   -3.1006   18.4913  -32.9736 H   0  0  0  0  0  0  0  0  0  0  0  0
  1  2  1  0
  2  3  1  0
  2  4  1  0
  4  5  1  0
  5  6  1  0
  6  7  2  0
  7  8  1  0
  8  9  2  0
  9 10  1  0
 10 11  2  0
 11 12  1  0
 12 13  1  0
 12 14  2  0
 11 15  1  0
 15 16  1  0
 16 17  2  0
 16 18  1  0
 18 19  2  0
 18 20  1  0
 20 21  1  0
 15 22  1  0
 22 23  2  0
  5 24  1  0
 24  2  1  0
 23  6  1  0
 22  9  1  0
  4 25  1  0
  4 26  1  0
  7 27  1  0
  8 28  1  0
 10 29  1  0
 13 30  1  0
 13 31  1  0
 19 32  1  0
 19 33  1  0
 20 34  1  0
 20 35  1  0
 21 36  1  0
 23 37  1  0
 24 38  1  0
 24 39  1  0
M  RAD  2   1   3   3   3
M  END
>  <smiles>  (33) 
[B]C1([B])CN(c2ccc3cc(C(N)=O)n(C(=O)C(=C)CO)c3c2)C1

>  <score_type>  (33) 
oracle

>  <origin>  (33) 
adg

>  <m_score__min__energy>  (33) 
-9.2699999999999996

>  <m_primary>  (33) 
energy

$$$$
34:0
     RDKit          3D

 34 35  0  0  0  0  0  0  0  0999 V2000
   -5.9170   25.1660  -29.1360 N   0  0  0  0  0  0  0  0  0  0  0  0
   -5.9800   24.8780  -30.5600 C   0  0  0  0  0  0  0  0  0  0  0  0
   -5.7540   25.8790  -31.2770 O   0  0  0  0  0  0  0  0  0  0  0  0
   -6.2820   23.5390  -31.0140 C   0  0  0  0  0  0  0  0  0  0  0  0
   -7.6050   23.1630  -31.3150 C   0  0  0  0  0  0  0  0  0  0  0  0
   -7.6200   21.8620  -31.7160 C   0  0  0  0  0  0  0  0  0  0  0  0
   -8.6640   21.0550  -32.1090 C   0  0  0  0  0  0  0  0  0  0  0  0
   -8.4020   19.7570  -32.4690 C   0  0  0  0  0  0  0  0  0  0  0  0
   -7.1100   19.2860  -32.4320 C   0  0  0  0  0  0  0  0  0  0  0  0
   -6.8480   17.8760  -32.8260 C   0  0  0  0  0  0  0  0  0  0  0  0
   -5.8320   17.3180  -32.0700 F   0  0  0  0  0  0  0  0  0  0  0  0
   -7.9940   17.1280  -32.5680 F   0  0  0  0  0  0  0  0  0  0  0  0
   -6.5420   17.7430  -34.1500 F   0  0  0  0  0  0  0  0  0  0  0  0
   -6.0860   20.1260  -32.0310 C   0  0  0  0  0  0  0  0  0  0  0  0
   -6.3050   21.4350  -31.6610 C   0  0  0  0  0  0  0  0  0  0  0  0
   -5.5070   22.4620  -31.2340 N   0  0  0  0  0  0  0  0  0  0  0  0
   -4.1020   22.4180  -31.0540 C   0  0  0  0  0  0  0  0  0  0  0  0
   -3.2960   22.8430  -31.9400 O   0  0  0  0  0  0  0  0  0  0  0  0
   -3.4130   21.8870  -29.8460 C   0  0  0  0  0  0  0  0  0  0  0  0
   -3.5720   22.9260  -28.8830 O   0  0  0  0  0  0  0  0  0  0  0  0
   -2.5570   24.2120  -29.3130 P   0  0  0  0  0  0  0  0  0  0  0  0
   -2.1310   24.9530  -28.0690 O   0  0  0  0  0  0  0  0  0  0  0  0
   -1.1790   23.6160  -30.0770 O   0  0  0  0  0  0  0  0  0  0  0  0
   -3.4620   25.2450  -30.3020 O   0  0  0  0  0  0  0  0  0  0  0  0
   -6.7300   24.8940  -28.5240 H   0  0  0  0  0  0  0  0  0  0  0  0
   -5.0580   25.6340  -28.7840 H   0  0  0  0  0  0  0  0  0  0  0  0
   -8.4865   23.8165  -31.2384 H   0  0  0  0  0  0  0  0  0  0  0  0
   -9.6923   21.4448  -32.1340 H   0  0  0  0  0  0  0  0  0  0  0  0
   -9.2219   19.0957  -32.7859 H   0  0  0  0  0  0  0  0  0  0  0  0
   -5.0585   19.7339  -32.0067 H   0  0  0  0  0  0  0  0  0  0  0  0
   -3.8873   20.9564  -29.5011 H   0  0  0  0  0  0  0  0  0  0  0  0
   -2.3584   21.6358  -30.0323 H   0  0  0  0  0  0  0  0  0  0  0  0
   -1.4000   23.1430  -30.9270 H   0  0  0  0  0  0  0  0  0  0  0  0
   -3.5920   24.9250  -31.2110 H   0  0  0  0  0  0  0  0  0  0  0  0
  1  2  1  0
  2  3  2  0
  2  4  1  0
  4  5  2  0
  5  6  1  0
  6  7  2  0
  7  8  1  0
  8  9  2  0
  9 10  1  0
 10 11  1  0
 10 12  1  0
 10 13  1  0
  9 14  1  0
 14 15  2  0
 15 16  1  0
 16 17  1  0
 17 18  2  0
 17 19  1  0
 19 20  1  0
 20 21  1  0
 21 22  2  0
 21 23  1  0
 21 24  1  0
 16  4  1  0
 15  6  1  0
  1 25  1  0
  1 26  1  0
  5 27  1  0
  7 28  1  0
  8 29  1  0
 14 30  1  0
 19 31  1  0
 19 32  1  0
 23 33  1  0
 24 34  1  0
M  END
>  <smiles>  (34) 
NC(=O)c1cc2ccc(C(F)(F)F)cc2n1C(=O)COP(=O)(O)O

>  <score_type>  (34) 
oracle

>  <origin>  (34) 
adg

>  <m_score__min__energy>  (34) 
-7.9299999999999997

>  <m_primary>  (34) 
energy

$$$$
35:0
     RDKit          3D

 42 43  0  0  0  0  0  0  0  0999 V2000
   -1.2470   24.3200  -26.3750 C   0  0  0  0  0  0  0  0  0  0  0  0
   -1.7690   23.1200  -26.9990 N   0  0  0  0  0  0  0  0  0  0  0  0
   -1.2070   21.8020  -26.7740 C   0  0  0  0  0  0  0  0  0  0  0  0
   -2.8940   23.2760  -27.8750 C   0  0  0  0  0  0  0  0  0  0  0  0
   -3.3680   24.4260  -28.0570 O   0  0  0  0  0  0  0  0  0  0  0  0
   -3.4760   22.0600  -28.5510 C   0  0  0  0  0  0  0  0  0  0  0  0
   -2.6790   21.8130  -29.7800 C   0  0  0  0  0  0  0  0  0  0  0  0
   -3.1400   22.3720  -30.9620 O   0  0  0  0  0  0  0  0  0  0  0  0
   -4.1290   23.3710  -30.9540 C   0  0  0  0  0  0  0  0  0  0  0  0
   -3.7050   24.5340  -30.8260 O   0  0  0  0  0  0  0  0  0  0  0  0
   -5.4880   22.9970  -31.0870 N   0  0  0  0  0  0  0  0  0  0  0  0
   -6.5460   23.6290  -30.5570 C   0  0  0  0  0  0  0  0  0  0  0  0
   -6.6300   24.8160  -29.7330 C   0  0  0  0  0  0  0  0  0  0  0  0
   -5.5270   25.1390  -28.8540 N   0  0  0  0  0  0  0  0  0  0  0  0
   -7.5800   25.6210  -29.6910 O   0  0  0  0  0  0  0  0  0  0  0  0
   -7.6810   22.9080  -30.9480 C   0  0  0  0  0  0  0  0  0  0  0  0
   -7.3000   21.8390  -31.7190 C   0  0  0  0  0  0  0  0  0  0  0  0
   -8.0320   20.8420  -32.3380 C   0  0  0  0  0  0  0  0  0  0  0  0
   -7.3820   19.8810  -33.0560 C   0  0  0  0  0  0  0  0  0  0  0  0
   -6.0090   19.9100  -33.1610 C   0  0  0  0  0  0  0  0  0  0  0  0
   -5.3180   18.8520  -33.9510 C   0  0  0  0  0  0  0  0  0  0  0  0
   -5.2530   17.6700  -33.2110 F   0  0  0  0  0  0  0  0  0  0  0  0
   -5.9910   18.6620  -35.1430 F   0  0  0  0  0  0  0  0  0  0  0  0
   -4.0160   19.2780  -34.1260 F   0  0  0  0  0  0  0  0  0  0  0  0
   -5.3000   20.9250  -32.5290 C   0  0  0  0  0  0  0  0  0  0  0  0
   -5.9220   21.9140  -31.7920 C   0  0  0  0  0  0  0  0  0  0  0  0
   -1.2930   24.2142  -25.2811 H   0  0  0  0  0  0  0  0  0  0  0  0
   -0.2024   24.4699  -26.6852 H   0  0  0  0  0  0  0  0  0  0  0  0
   -1.8495   25.1864  -26.6852 H   0  0  0  0  0  0  0  0  0  0  0  0
   -1.1280   21.6168  -25.6926 H   0  0  0  0  0  0  0  0  0  0  0  0
   -1.8595   21.0425  -27.2294 H   0  0  0  0  0  0  0  0  0  0  0  0
   -0.2072   21.7471  -27.2294 H   0  0  0  0  0  0  0  0  0  0  0  0
   -3.4129   21.1903  -27.8804 H   0  0  0  0  0  0  0  0  0  0  0  0
   -4.5350   22.2227  -28.8001 H   0  0  0  0  0  0  0  0  0  0  0  0
   -1.6672   22.2059  -29.6017 H   0  0  0  0  0  0  0  0  0  0  0  0
   -2.7386   20.7264  -29.9405 H   0  0  0  0  0  0  0  0  0  0  0  0
   -5.5480   24.8340  -27.8430 H   0  0  0  0  0  0  0  0  0  0  0  0
   -4.7250   25.6770  -29.2520 H   0  0  0  0  0  0  0  0  0  0  0  0
   -8.7174   23.1597  -30.6787 H   0  0  0  0  0  0  0  0  0  0  0  0
   -9.1285   20.8240  -32.2522 H   0  0  0  0  0  0  0  0  0  0  0  0
   -7.9546   19.0829  -33.5511 H   0  0  0  0  0  0  0  0  0  0  0  0
   -4.2038   20.9412  -32.6190 H   0  0  0  0  0  0  0  0  0  0  0  0
  1  2  1  0
  2  3  1  0
  2  4  1  0
  4  5  2  0
  4  6  1  0
  6  7  1  0
  7  8  1  0
  8  9  1  0
  9 10  2  0
  9 11  1  0
 11 12  1  0
 12 13  1  0
 13 14  1  0
 13 15  2  0
 12 16  2  0
 16 17  1  0
 17 18  2  0
 18 19  1  0
 19 20  2  0
 20 21  1  0
 21 22  1  0
 21 23  1  0
 21 24  1  0
 20 25  1  0
 25 26  2  0
 26 11  1  0
 26 17  1  0
  1 27  1  0
  1 28  1  0
  1 29  1  0
  3 30  1  0
  3 31  1  0
  3 32  1  0
  6 33  1  0
  6 34  1  0
  7 35  1  0
  7 36  1  0
 14 37  1  0
 14 38  1  0
 16 39  1  0
 18 40  1  0
 19 41  1  0
 25 42  1  0
M  END
>  <smiles>  (35) 
CN(C)C(=O)CCOC(=O)n1c(C(N)=O)cc2ccc(C(F)(F)F)cc21

>  <score_type>  (35) 
oracle

>  <origin>  (35) 
adg

>  <m_score__min__energy>  (35) 
-8.1099999999999994

>  <m_primary>  (35) 
energy

$$$$
36:0
     RDKit          3D

 38 39  0  0  0  0  0  0  0  0999 V2000
   -5.9280   18.5200  -34.1090 C   0  0  0  0  0  0  0  0  0  0  0  0
   -6.4730   19.6500  -33.2750 C   0  0  0  0  0  0  0  0  0  0  0  0
   -7.8310   19.7550  -33.0740 C   0  0  0  0  0  0  0  0  0  0  0  0
   -8.2760   20.8070  -32.3000 C   0  0  0  0  0  0  0  0  0  0  0  0
   -7.4070   21.7220  -31.7460 C   0  0  0  0  0  0  0  0  0  0  0  0
   -7.6110   22.8150  -30.9620 C   0  0  0  0  0  0  0  0  0  0  0  0
   -6.3800   23.4150  -30.6590 C   0  0  0  0  0  0  0  0  0  0  0  0
   -6.2770   24.5840  -29.8490 C   0  0  0  0  0  0  0  0  0  0  0  0
   -5.3290   24.8840  -28.8480 N   0  0  0  0  0  0  0  0  0  0  0  0
   -7.1560   25.5020  -30.0390 O   0  0  0  0  0  0  0  0  0  0  0  0
   -5.4440   22.6580  -31.2750 N   0  0  0  0  0  0  0  0  0  0  0  0
   -4.0510   22.8400  -31.2850 C   0  0  0  0  0  0  0  0  0  0  0  0
   -3.5640   24.0080  -31.0620 O   0  0  0  0  0  0  0  0  0  0  0  0
   -3.0890   21.8770  -31.5180 O   0  0  0  0  0  0  0  0  0  0  0  0
   -2.6810   21.0030  -30.4430 C   0  0  0  0  0  0  0  0  0  0  0  0
   -1.4840   21.3920  -29.8470 O   0  0  0  0  0  0  0  0  0  0  0  0
   -1.2970   22.6300  -29.2740 C   0  0  0  0  0  0  0  0  0  0  0  0
   -0.3910   23.3690  -29.7270 O   0  0  0  0  0  0  0  0  0  0  0  0
   -2.1570   23.0530  -28.1520 C   0  0  0  0  0  0  0  0  0  0  0  0
   -2.6030   24.4570  -28.2870 C   0  0  0  0  0  0  0  0  0  0  0  0
   -3.3170   24.9310  -27.3620 O   0  0  0  0  0  0  0  0  0  0  0  0
   -2.2970   25.2830  -29.3460 O   0  0  0  0  0  0  0  0  0  0  0  0
   -6.0470   21.6330  -31.9350 C   0  0  0  0  0  0  0  0  0  0  0  0
   -5.6030   20.5790  -32.7110 C   0  0  0  0  0  0  0  0  0  0  0  0
   -5.5459   17.7278  -33.4483 H   0  0  0  0  0  0  0  0  0  0  0  0
   -6.7290   18.1134  -34.7438 H   0  0  0  0  0  0  0  0  0  0  0  0
   -5.1111   18.8937  -34.7438 H   0  0  0  0  0  0  0  0  0  0  0  0
   -8.5324   19.0299  -33.5125 H   0  0  0  0  0  0  0  0  0  0  0  0
   -9.3554   20.9186  -32.1200 H   0  0  0  0  0  0  0  0  0  0  0  0
   -8.5923   23.1737  -30.6180 H   0  0  0  0  0  0  0  0  0  0  0  0
   -5.4330   24.6160  -27.8320 H   0  0  0  0  0  0  0  0  0  0  0  0
   -4.4750   25.4210  -29.1710 H   0  0  0  0  0  0  0  0  0  0  0  0
   -3.4693   21.0001  -29.6758 H   0  0  0  0  0  0  0  0  0  0  0  0
   -2.5228   20.0037  -30.8748 H   0  0  0  0  0  0  0  0  0  0  0  0
   -3.0428   22.4016  -28.1198 H   0  0  0  0  0  0  0  0  0  0  0  0
   -1.5674   22.9739  -27.2267 H   0  0  0  0  0  0  0  0  0  0  0  0
   -1.8190   24.9350  -30.1740 H   0  0  0  0  0  0  0  0  0  0  0  0
   -4.5230   20.4702  -32.8894 H   0  0  0  0  0  0  0  0  0  0  0  0
  1  2  1  0
  2  3  2  0
  3  4  1  0
  4  5  2  0
  5  6  1  0
  6  7  2  0
  7  8  1  0
  8  9  1  0
  8 10  2  0
  7 11  1  0
 11 12  1  0
 12 13  2  0
 12 14  1  0
 14 15  1  0
 15 16  1  0
 16 17  1  0
 17 18  2  0
 17 19  1  0
 19 20  1  0
 20 21  2  0
 20 22  1  0
 11 23  1  0
 23 24  2  0
 24  2  1  0
 23  5  1  0
  1 25  1  0
  1 26  1  0
  1 27  1  0
  3 28  1  0
  4 29  1  0
  6 30  1  0
  9 31  1  0
  9 32  1  0
 15 33  1  0
 15 34  1  0
 19 35  1  0
 19 36  1  0
 22 37  1  0
 24 38  1  0
M  END
>  <smiles>  (36) 
Cc1ccc2cc(C(N)=O)n(C(=O)OCOC(=O)CC(=O)O)c2c1

>  <score_type>  (36) 
oracle

>  <origin>  (36) 
adg

>  <m_score__min__energy>  (36) 
-8.2599999999999998

>  <m_primary>  (36) 
energy

$$$$
37:0
     RDKit          3D

 40 41  0  0  0  0  0  0  0  0999 V2000
   -8.5230   18.5460  -31.2730 C   0  0  0  0  0  0  0  0  0  0  0  0
   -9.1090   18.9940  -32.3750 C   0  0  0  0  0  0  0  0  0  0  0  0
   -9.3340   20.4490  -32.5990 C   0  0  0  0  0  0  0  0  0  0  0  0
   -9.1070   21.1370  -31.3510 O   0  0  0  0  0  0  0  0  0  0  0  0
   -8.5220   22.4440  -31.5310 C   0  0  0  0  0  0  0  0  0  0  0  0
   -9.2380   23.1650  -32.2300 O   0  0  0  0  0  0  0  0  0  0  0  0
   -7.2660   22.6770  -30.8990 C   0  0  0  0  0  0  0  0  0  0  0  0
   -7.3790   23.2230  -29.7140 O   0  0  0  0  0  0  0  0  0  0  0  0
   -5.9400   22.4560  -31.2710 N   0  0  0  0  0  0  0  0  0  0  0  0
   -4.9180   23.2760  -30.8810 C   0  0  0  0  0  0  0  0  0  0  0  0
   -4.8640   24.5590  -30.2240 C   0  0  0  0  0  0  0  0  0  0  0  0
   -5.3530   24.9170  -28.9520 N   0  0  0  0  0  0  0  0  0  0  0  0
   -4.3050   25.5650  -30.8410 O   0  0  0  0  0  0  0  0  0  0  0  0
   -3.7170   22.6860  -31.3420 C   0  0  0  0  0  0  0  0  0  0  0  0
   -4.0120   21.5340  -31.9970 C   0  0  0  0  0  0  0  0  0  0  0  0
   -3.1790   20.6190  -32.6030 C   0  0  0  0  0  0  0  0  0  0  0  0
   -3.6960   19.4960  -33.2010 C   0  0  0  0  0  0  0  0  0  0  0  0
   -5.0610   19.3370  -33.1640 C   0  0  0  0  0  0  0  0  0  0  0  0
   -5.6430   18.1890  -33.7690 N   0  0  0  0  0  0  0  0  0  0  0  0
   -5.7580   18.1760  -35.2020 C   0  0  0  0  0  0  0  0  0  0  0  0
   -6.1030   17.0760  -32.9430 C   0  0  0  0  0  0  0  0  0  0  0  0
   -5.8830   20.2690  -32.5510 C   0  0  0  0  0  0  0  0  0  0  0  0
   -5.3860   21.4050  -31.9460 C   0  0  0  0  0  0  0  0  0  0  0  0
   -8.3687   17.4660  -31.1322 H   0  0  0  0  0  0  0  0  0  0  0  0
   -8.1912   19.2544  -30.4996 H   0  0  0  0  0  0  0  0  0  0  0  0
   -9.4361   18.2750  -33.1406 H   0  0  0  0  0  0  0  0  0  0  0  0
   -8.6344   20.8210  -33.3620 H   0  0  0  0  0  0  0  0  0  0  0  0
  -10.3618   20.6254  -32.9490 H   0  0  0  0  0  0  0  0  0  0  0  0
   -4.7360   25.3260  -28.1890 H   0  0  0  0  0  0  0  0  0  0  0  0
   -6.3600   24.8150  -28.6630 H   0  0  0  0  0  0  0  0  0  0  0  0
   -2.7068   23.0951  -31.1935 H   0  0  0  0  0  0  0  0  0  0  0  0
   -2.0923   20.7892  -32.6079 H   0  0  0  0  0  0  0  0  0  0  0  0
   -3.0455   18.7552  -33.6889 H   0  0  0  0  0  0  0  0  0  0  0  0
   -6.8145   18.0566  -35.4840 H   0  0  0  0  0  0  0  0  0  0  0  0
   -5.3746   19.1232  -35.6092 H   0  0  0  0  0  0  0  0  0  0  0  0
   -5.1729   17.3383  -35.6092 H   0  0  0  0  0  0  0  0  0  0  0  0
   -5.9944   17.3387  -31.8804 H   0  0  0  0  0  0  0  0  0  0  0  0
   -7.1606   16.8685  -33.1632 H   0  0  0  0  0  0  0  0  0  0  0  0
   -5.5005   16.1824  -33.1632 H   0  0  0  0  0  0  0  0  0  0  0  0
   -6.9695   20.0972  -32.5466 H   0  0  0  0  0  0  0  0  0  0  0  0
  1  2  2  0
  2  3  1  0
  3  4  1  0
  4  5  1  0
  5  6  2  0
  5  7  1  0
  7  8  2  0
  7  9  1  0
  9 10  1  0
 10 11  1  0
 11 12  1  0
 11 13  2  0
 10 14  2  0
 14 15  1  0
 15 16  2  0
 16 17  1  0
 17 18  2  0
 18 19  1  0
 19 20  1  0
 19 21  1  0
 18 22  1  0
 22 23  2  0
 23  9  1  0
 23 15  1  0
  1 24  1  0
  1 25  1  0
  2 26  1  0
  3 27  1  0
  3 28  1  0
 12 29  1  0
 12 30  1  0
 14 31  1  0
 16 32  1  0
 17 33  1  0
 20 34  1  0
 20 35  1  0
 20 36  1  0
 21 37  1  0
 21 38  1  0
 21 39  1  0
 22 40  1  0
M  END
>  <smiles>  (37) 
C=CCOC(=O)C(=O)n1c(C(N)=O)cc2ccc(N(C)C)cc21

>  <score_type>  (37) 
oracle

>  <origin>  (37) 
adg

>  <m_score__min__energy>  (37) 
-8.0399999999999991

>  <m_primary>  (37) 
energy

$$$$
38:0
     RDKit          3D

 34 35  0  0  0  0  0  0  0  0999 V2000
   -7.4560   18.1700  -33.1010 C   0  0  0  0  0  0  0  0  0  0  0  0
   -7.4810   19.5370  -32.5390 C   0  0  0  0  0  0  0  0  0  0  0  0
   -8.6930   20.1490  -32.3260 C   0  0  0  0  0  0  0  0  0  0  0  0
   -8.7400   21.4260  -31.8040 C   0  0  0  0  0  0  0  0  0  0  0  0
   -7.5660   22.0910  -31.4960 C   0  0  0  0  0  0  0  0  0  0  0  0
   -7.2960   23.3240  -30.9770 C   0  0  0  0  0  0  0  0  0  0  0  0
   -5.9060   23.5060  -30.8580 C   0  0  0  0  0  0  0  0  0  0  0  0
   -5.3570   24.7270  -30.3250 C   0  0  0  0  0  0  0  0  0  0  0  0
   -5.5780   25.0780  -28.9350 N   0  0  0  0  0  0  0  0  0  0  0  0
   -4.6700   25.5700  -30.9510 O   0  0  0  0  0  0  0  0  0  0  0  0
   -5.3460   22.3750  -31.3080 N   0  0  0  0  0  0  0  0  0  0  0  0
   -3.9540   22.1230  -31.3590 C   0  0  0  0  0  0  0  0  0  0  0  0
   -3.2690   22.2420  -32.4040 O   0  0  0  0  0  0  0  0  0  0  0  0
   -3.2100   21.7120  -30.2260 O   0  0  0  0  0  0  0  0  0  0  0  0
   -3.0300   22.5820  -29.1640 C   0  0  0  0  0  0  0  0  0  0  0  0
   -4.0790   22.9750  -28.5300 O   0  0  0  0  0  0  0  0  0  0  0  0
   -1.7630   23.1210  -28.6570 C   0  0  0  0  0  0  0  0  0  0  0  0
   -1.5520   24.5620  -28.8410 C   0  0  0  0  0  0  0  0  0  0  0  0
   -0.5120   25.2000  -28.6040 O   0  0  0  0  0  0  0  0  0  0  0  0
   -2.6340   25.3000  -29.3350 O   0  0  0  0  0  0  0  0  0  0  0  0
   -6.3190   21.5030  -31.6980 C   0  0  0  0  0  0  0  0  0  0  0  0
   -6.3380   20.2320  -32.2200 C   0  0  0  0  0  0  0  0  0  0  0  0
   -7.4426   17.4367  -32.2812 H   0  0  0  0  0  0  0  0  0  0  0  0
   -8.3514   18.0116  -33.7200 H   0  0  0  0  0  0  0  0  0  0  0  0
   -6.5554   18.0445  -33.7200 H   0  0  0  0  0  0  0  0  0  0  0  0
   -9.6261   19.6209  -32.5716 H   0  0  0  0  0  0  0  0  0  0  0  0
   -9.7104   21.9150  -31.6329 H   0  0  0  0  0  0  0  0  0  0  0  0
   -8.0551   24.0677  -30.6929 H   0  0  0  0  0  0  0  0  0  0  0  0
   -4.7040   25.0740  -28.3460 H   0  0  0  0  0  0  0  0  0  0  0  0
   -6.5240   25.3100  -28.5700 H   0  0  0  0  0  0  0  0  0  0  0  0
   -1.7161   22.9099  -27.5785 H   0  0  0  0  0  0  0  0  0  0  0  0
   -0.9764   22.6303  -29.2490 H   0  0  0  0  0  0  0  0  0  0  0  0
   -3.5780   25.0180  -29.1120 H   0  0  0  0  0  0  0  0  0  0  0  0
   -5.3719   19.7360  -32.3948 H   0  0  0  0  0  0  0  0  0  0  0  0
  1  2  1  0
  2  3  2  0
  3  4  1  0
  4  5  2  0
  5  6  1  0
  6  7  2  0
  7  8  1  0
  8  9  1  0
  8 10  2  0
  7 11  1  0
 11 12  1  0
 12 13  2  0
 12 14  1  0
 14 15  1  0
 15 16  2  0
 15 17  1  0
 17 18  1  0
 18 19  2  0
 18 20  1  0
 11 21  1  0
 21 22  2  0
 22  2  1  0
 21  5  1  0
  1 23  1  0
  1 24  1  0
  1 25  1  0
  3 26  1  0
  4 27  1  0
  6 28  1  0
  9 29  1  0
  9 30  1  0
 17 31  1  0
 17 32  1  0
 20 33  1  0
 22 34  1  0
M  END
>  <smiles>  (38) 
Cc1ccc2cc(C(N)=O)n(C(=O)OC(=O)CC(=O)O)c2c1

>  <score_type>  (38) 
oracle

>  <origin>  (38) 
adg

>  <m_score__min__energy>  (38) 
-8.4800000000000004

>  <m_primary>  (38) 
energy

$$$$
39:0
     RDKit          3D

 38 40  0  0  0  0  0  0  0  0999 V2000
    1.4100   22.3320  -35.7240 C   0  0  0  0  0  0  0  0  0  0  0  0
    0.2640   22.2910  -34.8840 O   0  0  0  0  0  0  0  0  0  0  0  0
   -0.0410   21.1180  -34.2040 C   0  0  0  0  0  0  0  0  0  0  0  0
    0.7770   20.1780  -34.0550 O   0  0  0  0  0  0  0  0  0  0  0  0
   -1.3690   20.9490  -33.6270 C   0  0  0  0  0  0  0  0  0  0  0  0
   -2.3870   20.1560  -34.0870 C   0  0  0  0  0  0  0  0  0  0  0  0
   -3.3990   20.3240  -33.2420 N   0  0  0  0  0  0  0  0  0  0  0  0
   -3.1480   21.1540  -32.2660 N   0  0  0  0  0  0  0  0  0  0  0  0
   -3.9220   21.6730  -31.2070 C   0  0  0  0  0  0  0  0  0  0  0  0
   -3.3020   21.7370  -30.0810 O   0  0  0  0  0  0  0  0  0  0  0  0
   -5.2460   22.1290  -31.2110 N   0  0  0  0  0  0  0  0  0  0  0  0
   -5.8280   23.2310  -30.7320 C   0  0  0  0  0  0  0  0  0  0  0  0
   -5.2560   24.5090  -30.3250 C   0  0  0  0  0  0  0  0  0  0  0  0
   -5.5430   25.0170  -28.9980 N   0  0  0  0  0  0  0  0  0  0  0  0
   -4.5220   25.2390  -31.0170 O   0  0  0  0  0  0  0  0  0  0  0  0
   -7.2280   23.1180  -30.8090 C   0  0  0  0  0  0  0  0  0  0  0  0
   -7.4870   21.9150  -31.3560 C   0  0  0  0  0  0  0  0  0  0  0  0
   -8.7090   21.3190  -31.6500 C   0  0  0  0  0  0  0  0  0  0  0  0
   -8.7510   20.0820  -32.2070 C   0  0  0  0  0  0  0  0  0  0  0  0
   -7.5640   19.4410  -32.4710 C   0  0  0  0  0  0  0  0  0  0  0  0
   -7.5990   18.0780  -33.0850 C   0  0  0  0  0  0  0  0  0  0  0  0
   -6.3400   20.0500  -32.1720 C   0  0  0  0  0  0  0  0  0  0  0  0
   -6.2800   21.3130  -31.6020 C   0  0  0  0  0  0  0  0  0  0  0  0
   -1.8660   21.5680  -32.4820 C   0  0  0  0  0  0  0  0  0  0  0  0
    2.3181   22.3645  -35.1040 H   0  0  0  0  0  0  0  0  0  0  0  0
    1.4315   21.4340  -36.3590 H   0  0  0  0  0  0  0  0  0  0  0  0
    1.3673   23.2292  -36.3590 H   0  0  0  0  0  0  0  0  0  0  0  0
   -2.3702   19.5099  -34.9771 H   0  0  0  0  0  0  0  0  0  0  0  0
   -4.8070   25.4910  -28.4310 H   0  0  0  0  0  0  0  0  0  0  0  0
   -6.4790   24.9280  -28.5680 H   0  0  0  0  0  0  0  0  0  0  0  0
   -7.9668   23.8661  -30.4856 H   0  0  0  0  0  0  0  0  0  0  0  0
   -9.6454   21.8526  -31.4301 H   0  0  0  0  0  0  0  0  0  0  0  0
   -9.7131   19.6033  -32.4418 H   0  0  0  0  0  0  0  0  0  0  0  0
   -7.6185   17.3181  -32.2899 H   0  0  0  0  0  0  0  0  0  0  0  0
   -8.5000   17.9797  -33.7084 H   0  0  0  0  0  0  0  0  0  0  0  0
   -6.7043   17.9336  -33.7084 H   0  0  0  0  0  0  0  0  0  0  0  0
   -5.4048   19.5151  -32.3940 H   0  0  0  0  0  0  0  0  0  0  0  0
   -1.3119   22.2788  -31.8513 H   0  0  0  0  0  0  0  0  0  0  0  0
  1  2  1  0
  2  3  1  0
  3  4  2  0
  3  5  1  0
  5  6  1  0
  6  7  2  0
  7  8  1  0
  8  9  1  0
  9 10  2  0
  9 11  1  0
 11 12  1  0
 12 13  1  0
 13 14  1  0
 13 15  2  0
 12 16  2  0
 16 17  1  0
 17 18  2  0
 18 19  1  0
 19 20  2  0
 20 21  1  0
 20 22  1  0
 22 23  2  0
  8 24  1  0
 24  5  2  0
 23 11  1  0
 23 17  1  0
  1 25  1  0
  1 26  1  0
  1 27  1  0
  6 28  1  0
 14 29  1  0
 14 30  1  0
 16 31  1  0
 18 32  1  0
 19 33  1  0
 21 34  1  0
 21 35  1  0
 21 36  1  0
 22 37  1  0
 24 38  1  0
M  END
>  <smiles>  (39) 
COC(=O)c1cnn(C(=O)n2c(C(N)=O)cc3ccc(C)cc32)c1

>  <score_type>  (39) 
oracle

>  <origin>  (39) 
adg

>  <m_score__min__energy>  (39) 
-9.3599999999999994

>  <m_primary>  (39) 
energy

$$$$
40:0
     RDKit          3D

 39 40  0  0  0  0  0  0  0  0999 V2000
   -1.2660   25.8240  -28.9620 N   0  0  0  0  0  0  0  0  0  0  0  0
   -1.1520   24.3740  -28.8300 C   0  0  0  0  0  0  0  0  0  0  0  0
   -2.3970   23.7880  -29.4190 C   0  0  0  0  0  0  0  0  0  0  0  0
   -3.2460   24.7250  -30.0940 N   0  0  0  0  0  0  0  0  0  0  0  0
   -4.5920   24.3440  -30.3570 C   0  0  0  0  0  0  0  0  0  0  0  0
   -5.6100   25.1660  -29.9240 C   0  0  0  0  0  0  0  0  0  0  0  0
   -6.9140   24.8060  -30.1740 C   0  0  0  0  0  0  0  0  0  0  0  0
   -7.1720   23.6280  -30.8530 C   0  0  0  0  0  0  0  0  0  0  0  0
   -8.3630   23.0510  -31.2220 C   0  0  0  0  0  0  0  0  0  0  0  0
   -8.0960   21.8490  -31.8960 C   0  0  0  0  0  0  0  0  0  0  0  0
   -9.1470   21.0020  -32.4130 C   0  0  0  0  0  0  0  0  0  0  0  0
   -8.7900   19.8180  -33.1560 N   0  0  0  0  0  0  0  0  0  0  0  0
  -10.3750   21.1870  -32.2850 O   0  0  0  0  0  0  0  0  0  0  0  0
   -6.7580   21.7110  -31.9280 N   0  0  0  0  0  0  0  0  0  0  0  0
   -6.0200   20.6490  -32.5070 C   0  0  0  0  0  0  0  0  0  0  0  0
   -5.9850   20.5620  -33.7870 O   0  0  0  0  0  0  0  0  0  0  0  0
   -5.3240   19.6880  -31.8370 O   0  0  0  0  0  0  0  0  0  0  0  0
   -5.7050   18.3780  -31.5710 C   0  0  0  0  0  0  0  0  0  0  0  0
   -7.0490   18.0280  -32.0630 C   0  0  0  0  0  0  0  0  0  0  0  0
   -8.0410   17.7980  -31.3400 O   0  0  0  0  0  0  0  0  0  0  0  0
   -7.2330   17.9470  -33.4370 O   0  0  0  0  0  0  0  0  0  0  0  0
   -6.1930   22.7790  -31.3020 C   0  0  0  0  0  0  0  0  0  0  0  0
   -4.8820   23.1590  -31.0410 C   0  0  0  0  0  0  0  0  0  0  0  0
   -1.6010   26.0520  -29.9250 H   0  0  0  0  0  0  0  0  0  0  0  0
   -0.3980   26.3210  -28.7320 H   0  0  0  0  0  0  0  0  0  0  0  0
   -0.2681   24.0122  -29.3757 H   0  0  0  0  0  0  0  0  0  0  0  0
   -1.0377   24.0810  -27.7759 H   0  0  0  0  0  0  0  0  0  0  0  0
   -2.1009   23.0134  -30.1417 H   0  0  0  0  0  0  0  0  0  0  0  0
   -2.9821   23.3957  -28.5741 H   0  0  0  0  0  0  0  0  0  0  0  0
   -2.8850   25.6610  -30.3830 H   0  0  0  0  0  0  0  0  0  0  0  0
   -5.3828   26.0979  -29.3855 H   0  0  0  0  0  0  0  0  0  0  0  0
   -7.7422   25.4472  -29.8380 H   0  0  0  0  0  0  0  0  0  0  0  0
   -9.3628   23.4637  -31.0219 H   0  0  0  0  0  0  0  0  0  0  0  0
   -9.1420   18.9120  -32.8210 H   0  0  0  0  0  0  0  0  0  0  0  0
   -8.1860   19.8870  -34.0150 H   0  0  0  0  0  0  0  0  0  0  0  0
   -4.9773   17.7038  -32.0463 H   0  0  0  0  0  0  0  0  0  0  0  0
   -5.7319   18.2728  -30.4764 H   0  0  0  0  0  0  0  0  0  0  0  0
   -7.0080   18.6790  -34.0850 H   0  0  0  0  0  0  0  0  0  0  0  0
   -4.0564   22.5154  -31.3789 H   0  0  0  0  0  0  0  0  0  0  0  0
  1  2  1  0
  2  3  1  0
  3  4  1  0
  4  5  1  0
  5  6  2  0
  6  7  1  0
  7  8  2  0
  8  9  1  0
  9 10  2  0
 10 11  1  0
 11 12  1  0
 11 13  2  0
 10 14  1  0
 14 15  1  0
 15 16  2  0
 15 17  1  0
 17 18  1  0
 18 19  1  0
 19 20  2  0
 19 21  1  0
 14 22  1  0
 22 23  2  0
 23  5  1  0
 22  8  1  0
  1 24  1  0
  1 25  1  0
  2 26  1  0
  2 27  1  0
  3 28  1  0
  3 29  1  0
  4 30  1  0
  6 31  1  0
  7 32  1  0
  9 33  1  0
 12 34  1  0
 12 35  1  0
 18 36  1  0
 18 37  1  0
 21 38  1  0
 23 39  1  0
M  END
>  <smiles>  (40) 
NCCNc1ccc2cc(C(N)=O)n(C(=O)OCC(=O)O)c2c1

>  <score_type>  (40) 
oracle

>  <origin>  (40) 
adg

>  <m_score__min__energy>  (40) 
-8.8000000000000007

>  <m_primary>  (40) 
energy

$$$$
41:0
     RDKit          3D

 39 40  0  0  0  0  0  0  0  0999 V2000
   -4.2060   17.5060  -33.3930 N   0  0  0  0  0  0  0  0  0  0  0  0
   -5.0320   18.4930  -34.0780 C   0  0  0  0  0  0  0  0  0  0  0  0
   -5.3630   18.1200  -35.2250 O   0  0  0  0  0  0  0  0  0  0  0  0
   -5.3680   19.7280  -33.4130 C   0  0  0  0  0  0  0  0  0  0  0  0
   -6.7160   20.0840  -33.2180 C   0  0  0  0  0  0  0  0  0  0  0  0
   -6.7670   21.2740  -32.5710 C   0  0  0  0  0  0  0  0  0  0  0  0
   -7.8560   22.0290  -32.1890 C   0  0  0  0  0  0  0  0  0  0  0  0
   -7.6650   23.2440  -31.5670 C   0  0  0  0  0  0  0  0  0  0  0  0
   -6.3910   23.6570  -31.3520 C   0  0  0  0  0  0  0  0  0  0  0  0
   -6.1780   24.9700  -30.6820 C   0  0  0  0  0  0  0  0  0  0  0  0
   -4.8550   24.8870  -29.9270 C   0  0  0  0  0  0  0  0  0  0  0  0
   -3.8760   25.4630  -30.7000 O   0  0  0  0  0  0  0  0  0  0  0  0
   -5.2970   22.8800  -31.7450 C   0  0  0  0  0  0  0  0  0  0  0  0
   -5.4590   21.6560  -32.3670 C   0  0  0  0  0  0  0  0  0  0  0  0
   -4.5970   20.7230  -32.8720 N   0  0  0  0  0  0  0  0  0  0  0  0
   -3.1970   20.6570  -32.7650 C   0  0  0  0  0  0  0  0  0  0  0  0
   -2.7220   21.2080  -31.6880 O   0  0  0  0  0  0  0  0  0  0  0  0
   -2.2030   20.1060  -33.6190 C   0  0  0  0  0  0  0  0  0  0  0  0
   -1.9550   18.9070  -33.8810 O   0  0  0  0  0  0  0  0  0  0  0  0
   -1.3030   21.0180  -34.3270 N   0  0  0  0  0  0  0  0  0  0  0  0
   -0.2930   20.5180  -35.1900 C   0  0  0  0  0  0  0  0  0  0  0  0
   -0.1420   19.2820  -35.3730 O   0  0  0  0  0  0  0  0  0  0  0  0
    0.6050   21.4900  -35.8930 C   0  0  0  0  0  0  0  0  0  0  0  0
    0.2880   22.7430  -35.3330 O   0  0  0  0  0  0  0  0  0  0  0  0
   -3.2930   17.2110  -33.7770 H   0  0  0  0  0  0  0  0  0  0  0  0
   -4.6230   17.1430  -32.5100 H   0  0  0  0  0  0  0  0  0  0  0  0
   -7.5864   19.4926  -33.5386 H   0  0  0  0  0  0  0  0  0  0  0  0
   -8.8752   21.6622  -32.3804 H   0  0  0  0  0  0  0  0  0  0  0  0
   -8.5205   23.8606  -31.2541 H   0  0  0  0  0  0  0  0  0  0  0  0
   -6.1327   25.7725  -31.4330 H   0  0  0  0  0  0  0  0  0  0  0  0
   -7.0055   25.1932  -29.9925 H   0  0  0  0  0  0  0  0  0  0  0  0
   -4.9384   25.4256  -28.9715 H   0  0  0  0  0  0  0  0  0  0  0  0
   -4.6035   23.8362  -29.7209 H   0  0  0  0  0  0  0  0  0  0  0  0
   -4.2440   25.6730  -31.5920 H   0  0  0  0  0  0  0  0  0  0  0  0
   -4.2798   23.2527  -31.5541 H   0  0  0  0  0  0  0  0  0  0  0  0
   -1.3750   22.0450  -34.2200 H   0  0  0  0  0  0  0  0  0  0  0  0
    1.6614   21.2414  -35.7133 H   0  0  0  0  0  0  0  0  0  0  0  0
    0.4610   21.4743  -36.9834 H   0  0  0  0  0  0  0  0  0  0  0  0
   -0.5960   23.0440  -35.6370 H   0  0  0  0  0  0  0  0  0  0  0  0
  1  2  1  0
  2  3  2  0
  2  4  1  0
  4  5  2  0
  5  6  1  0
  6  7  2  0
  7  8  1  0
  8  9  2  0
  9 10  1  0
 10 11  1  0
 11 12  1  0
  9 13  1  0
 13 14  2  0
 14 15  1  0
 15 16  1  0
 16 17  2  0
 16 18  1  0
 18 19  2  0
 18 20  1  0
 20 21  1  0
 21 22  2  0
 21 23  1  0
 23 24  1  0
 15  4  1  0
 14  6  1  0
  1 25  1  0
  1 26  1  0
  5 27  1  0
  7 28  1  0
  8 29  1  0
 10 30  1  0
 10 31  1  0
 11 32  1  0
 11 33  1  0
 12 34  1  0
 13 35  1  0
 20 36  1  0
 23 37  1  0
 23 38  1  0
 24 39  1  0
M  END
>  <smiles>  (41) 
NC(=O)c1cc2ccc(CCO)cc2n1C(=O)C(=O)NC(=O)CO

>  <score_type>  (41) 
oracle

>  <origin>  (41) 
adg

>  <m_score__min__energy>  (41) 
-9.3399999999999999

>  <m_primary>  (41) 
energy

$$$$
42:0
     RDKit          3D

 47 48  0  0  0  0  0  0  0  0999 V2000
   -2.8010   25.2460  -26.0920 C   0  0  0  0  0  0  0  0  0  0  0  0
   -1.8120   25.3870  -27.1680 N   0  0  0  0  0  0  0  0  0  0  0  0
   -1.2380   26.7200  -27.0610 C   0  0  0  0  0  0  0  0  0  0  0  0
   -0.7570   24.4190  -27.0440 C   0  0  0  0  0  0  0  0  0  0  0  0
   -0.0740   24.0820  -28.3420 C   0  0  0  0  0  0  0  0  0  0  0  0
   -1.0520   23.8160  -29.3400 O   0  0  0  0  0  0  0  0  0  0  0  0
   -1.9750   22.8120  -29.2310 C   0  0  0  0  0  0  0  0  0  0  0  0
   -2.7610   22.8520  -28.2420 O   0  0  0  0  0  0  0  0  0  0  0  0
   -2.0670   21.7260  -30.2070 N   0  0  0  0  0  0  0  0  0  0  0  0
   -1.2460   20.5910  -29.8760 C   0  0  0  0  0  0  0  0  0  0  0  0
   -2.9180   21.9360  -31.2940 C   0  0  0  0  0  0  0  0  0  0  0  0
   -2.3320   21.7420  -32.4440 O   0  0  0  0  0  0  0  0  0  0  0  0
   -4.2630   22.2970  -31.3930 N   0  0  0  0  0  0  0  0  0  0  0  0
   -5.0110   23.2470  -30.8260 C   0  0  0  0  0  0  0  0  0  0  0  0
   -4.6110   24.5010  -30.1790 C   0  0  0  0  0  0  0  0  0  0  0  0
   -4.5420   24.5680  -28.7380 N   0  0  0  0  0  0  0  0  0  0  0  0
   -4.3120   25.5540  -30.7770 O   0  0  0  0  0  0  0  0  0  0  0  0
   -6.3740   23.0350  -31.0680 C   0  0  0  0  0  0  0  0  0  0  0  0
   -6.4520   21.9070  -31.8230 C   0  0  0  0  0  0  0  0  0  0  0  0
   -7.5720   21.2730  -32.3280 C   0  0  0  0  0  0  0  0  0  0  0  0
   -7.4290   20.1270  -33.0750 C   0  0  0  0  0  0  0  0  0  0  0  0
   -6.1570   19.6510  -33.2920 C   0  0  0  0  0  0  0  0  0  0  0  0
   -5.9830   18.4080  -34.0960 C   0  0  0  0  0  0  0  0  0  0  0  0
   -6.1090   18.7070  -35.4410 F   0  0  0  0  0  0  0  0  0  0  0  0
   -7.0020   17.4920  -33.8220 F   0  0  0  0  0  0  0  0  0  0  0  0
   -4.7930   17.7770  -33.8720 F   0  0  0  0  0  0  0  0  0  0  0  0
   -5.0380   20.3090  -32.7720 C   0  0  0  0  0  0  0  0  0  0  0  0
   -5.1720   21.4690  -32.0160 C   0  0  0  0  0  0  0  0  0  0  0  0
   -2.2956   25.3181  -25.1177 H   0  0  0  0  0  0  0  0  0  0  0  0
   -3.5510   26.0463  -26.1761 H   0  0  0  0  0  0  0  0  0  0  0  0
   -3.2974   24.2680  -26.1761 H   0  0  0  0  0  0  0  0  0  0  0  0
   -1.1235   26.9858  -25.9998 H   0  0  0  0  0  0  0  0  0  0  0  0
   -0.2534   26.7357  -27.5512 H   0  0  0  0  0  0  0  0  0  0  0  0
   -1.9032   27.4461  -27.5512 H   0  0  0  0  0  0  0  0  0  0  0  0
   -0.0023   24.8181  -26.3504 H   0  0  0  0  0  0  0  0  0  0  0  0
   -1.2209   23.4903  -26.6803 H   0  0  0  0  0  0  0  0  0  0  0  0
    0.5506   24.9305  -28.6582 H   0  0  0  0  0  0  0  0  0  0  0  0
    0.5575   23.1922  -28.2026 H   0  0  0  0  0  0  0  0  0  0  0  0
   -1.1766   20.4951  -28.7824 H   0  0  0  0  0  0  0  0  0  0  0  0
   -1.6947   19.6789  -30.2963 H   0  0  0  0  0  0  0  0  0  0  0  0
   -0.2393   20.7316  -30.2963 H   0  0  0  0  0  0  0  0  0  0  0  0
   -5.4100   24.2350  -28.2460 H   0  0  0  0  0  0  0  0  0  0  0  0
   -3.6970   24.9190  -28.2470 H   0  0  0  0  0  0  0  0  0  0  0  0
   -7.2120   23.6556  -30.7180 H   0  0  0  0  0  0  0  0  0  0  0  0
   -8.5737   21.6835  -32.1331 H   0  0  0  0  0  0  0  0  0  0  0  0
   -8.3062   19.6065  -33.4868 H   0  0  0  0  0  0  0  0  0  0  0  0
   -4.0342   19.9022  -32.9641 H   0  0  0  0  0  0  0  0  0  0  0  0
  1  2  1  0
  2  3  1  0
  2  4  1  0
  4  5  1  0
  5  6  1  0
  6  7  1  0
  7  8  2  0
  7  9  1  0
  9 10  1  0
  9 11  1  0
 11 12  2  0
 11 13  1  0
 13 14  1  0
 14 15  1  0
 15 16  1  0
 15 17  2  0
 14 18  2  0
 18 19  1  0
 19 20  2  0
 20 21  1  0
 21 22  2  0
 22 23  1  0
 23 24  1  0
 23 25  1  0
 23 26  1  0
 22 27  1  0
 27 28  2  0
 28 13  1  0
 28 19  1  0
  1 29  1  0
  1 30  1  0
  1 31  1  0
  3 32  1  0
  3 33  1  0
  3 34  1  0
  4 35  1  0
  4 36  1  0
  5 37  1  0
  5 38  1  0
 10 39  1  0
 10 40  1  0
 10 41  1  0
 16 42  1  0
 16 43  1  0
 18 44  1  0
 20 45  1  0
 21 46  1  0
 27 47  1  0
M  END
>  <smiles>  (42) 
CN(C)CCOC(=O)N(C)C(=O)n1c(C(N)=O)cc2ccc(C(F)(F)F)cc21

>  <score_type>  (42) 
oracle

>  <origin>  (42) 
adg

>  <m_score__min__energy>  (42) 
-7.8799999999999999

>  <m_primary>  (42) 
energy

$$$$
43:0
     RDKit          3D

 40 42  0  0  0  0  0  0  0  0999 V2000
   -6.1650   25.9440  -29.2140 N   0  0  0  0  0  0  0  0  0  0  0  0
   -5.6930   25.2050  -30.3020 C   0  0  0  0  0  0  0  0  0  0  0  0
   -4.6550   25.6740  -30.8760 O   0  0  0  0  0  0  0  0  0  0  0  0
   -6.2330   23.9850  -30.8490 C   0  0  0  0  0  0  0  0  0  0  0  0
   -7.6110   23.7530  -30.9250 C   0  0  0  0  0  0  0  0  0  0  0  0
   -7.8500   22.5230  -31.4830 C   0  0  0  0  0  0  0  0  0  0  0  0
   -9.0190   21.8540  -31.7630 C   0  0  0  0  0  0  0  0  0  0  0  0
   -8.9810   20.6020  -32.3360 C   0  0  0  0  0  0  0  0  0  0  0  0
   -7.7570   20.0400  -32.6210 C   0  0  0  0  0  0  0  0  0  0  0  0
   -7.6550   18.7610  -33.2240 N   0  0  0  0  0  0  0  0  0  0  0  0
   -6.4540   18.0820  -33.5230 C   0  0  0  0  0  0  0  0  0  0  0  0
   -5.4410   18.5880  -34.2980 C   0  0  0  0  0  0  0  0  0  0  0  0
   -4.2790   17.8770  -34.5900 C   0  0  0  0  0  0  0  0  0  0  0  0
   -4.1580   16.6140  -34.0680 C   0  0  0  0  0  0  0  0  0  0  0  0
   -5.1990   16.1470  -33.2960 C   0  0  0  0  0  0  0  0  0  0  0  0
   -5.0650   14.8360  -32.7590 N   0  0  0  0  0  0  0  0  0  0  0  0
   -4.6390   14.6410  -31.5950 O   0  0  0  0  0  0  0  0  0  0  0  0
   -5.3910   13.7010  -33.4690 O   0  0  0  0  0  0  0  0  0  0  0  0
   -6.3070   16.8380  -33.0240 N   0  0  0  0  0  0  0  0  0  0  0  0
   -6.5860   20.7410  -32.3250 C   0  0  0  0  0  0  0  0  0  0  0  0
   -6.6000   21.9940  -31.7520 C   0  0  0  0  0  0  0  0  0  0  0  0
   -5.6540   22.8930  -31.3610 N   0  0  0  0  0  0  0  0  0  0  0  0
   -4.2760   22.6360  -31.5110 C   0  0  0  0  0  0  0  0  0  0  0  0
   -3.9180   21.5300  -32.0420 O   0  0  0  0  0  0  0  0  0  0  0  0
   -3.2400   23.4630  -31.1420 O   0  0  0  0  0  0  0  0  0  0  0  0
   -2.9500   23.6040  -29.7650 C   0  0  0  0  0  0  0  0  0  0  0  0
   -2.8140   24.9250  -29.3590 O   0  0  0  0  0  0  0  0  0  0  0  0
   -6.8610   26.7140  -29.3540 H   0  0  0  0  0  0  0  0  0  0  0  0
   -5.7830   25.6980  -28.2570 H   0  0  0  0  0  0  0  0  0  0  0  0
   -8.3883   24.4541  -30.5869 H   0  0  0  0  0  0  0  0  0  0  0  0
   -9.9872   22.3204  -31.5285 H   0  0  0  0  0  0  0  0  0  0  0  0
   -9.9118   20.0610  -32.5618 H   0  0  0  0  0  0  0  0  0  0  0  0
   -8.5890   18.3040  -33.4550 H   0  0  0  0  0  0  0  0  0  0  0  0
   -5.5516   19.6027  -34.7080 H   0  0  0  0  0  0  0  0  0  0  0  0
   -3.4869   18.3127  -35.2167 H   0  0  0  0  0  0  0  0  0  0  0  0
   -3.2659   15.9992  -34.2582 H   0  0  0  0  0  0  0  0  0  0  0  0
   -5.6168   20.2757  -32.5579 H   0  0  0  0  0  0  0  0  0  0  0  0
   -3.7668   23.1452  -29.1886 H   0  0  0  0  0  0  0  0  0  0  0  0
   -1.9836   23.1099  -29.5861 H   0  0  0  0  0  0  0  0  0  0  0  0
   -3.6570   25.2800  -29.0070 H   0  0  0  0  0  0  0  0  0  0  0  0
  1  2  1  0
  2  3  2  0
  2  4  1  0
  4  5  2  0
  5  6  1  0
  6  7  2  0
  7  8  1  0
  8  9  2  0
  9 10  1  0
 10 11  1  0
 11 12  2  0
 12 13  1  0
 13 14  2  0
 14 15  1  0
 15 16  1  0
 16 17  2  0
 16 18  1  0
 15 19  2  0
  9 20  1  0
 20 21  2  0
 21 22  1  0
 22 23  1  0
 23 24  2  0
 23 25  1  0
 25 26  1  0
 26 27  1  0
 22  4  1  0
 21  6  1  0
 19 11  1  0
  1 28  1  0
  1 29  1  0
  5 30  1  0
  7 31  1  0
  8 32  1  0
 10 33  1  0
 12 34  1  0
 13 35  1  0
 14 36  1  0
 20 37  1  0
 26 38  1  0
 26 39  1  0
 27 40  1  0
M  CHG  2  16   1  18  -1
M  END
>  <smiles>  (43) 
NC(=O)c1cc2ccc(Nc3cccc([N+](=O)[O-])n3)cc2n1C(=O)OCO

>  <score_type>  (43) 
oracle

>  <origin>  (43) 
adg

>  <m_score__min__energy>  (43) 
-9.5800000000000001

>  <m_primary>  (43) 
energy

$$$$
44:0
     RDKit          3D

 38 39  0  0  0  0  0  0  0  0999 V2000
   -0.5680   22.0300  -30.4680 C   0  0  0  0  0  0  0  0  0  0  0  0
   -1.8260   22.1880  -29.7790 N   0  0  0  0  0  0  0  0  0  0  0  0
   -1.7840   22.7720  -28.4520 C   0  0  0  0  0  0  0  0  0  0  0  0
   -2.4750   24.1050  -28.4340 C   0  0  0  0  0  0  0  0  0  0  0  0
   -3.3110   24.3110  -27.5070 O   0  0  0  0  0  0  0  0  0  0  0  0
   -2.2240   25.0810  -29.3790 O   0  0  0  0  0  0  0  0  0  0  0  0
   -3.0880   21.7910  -30.3660 C   0  0  0  0  0  0  0  0  0  0  0  0
   -3.2580   20.5490  -30.4220 O   0  0  0  0  0  0  0  0  0  0  0  0
   -4.0240   22.7940  -30.8300 C   0  0  0  0  0  0  0  0  0  0  0  0
   -3.4880   23.8870  -31.2040 O   0  0  0  0  0  0  0  0  0  0  0  0
   -5.4200   22.7200  -30.9080 N   0  0  0  0  0  0  0  0  0  0  0  0
   -6.3920   23.5760  -30.5740 C   0  0  0  0  0  0  0  0  0  0  0  0
   -6.3810   24.7490  -29.7130 C   0  0  0  0  0  0  0  0  0  0  0  0
   -5.3200   24.8940  -28.7380 N   0  0  0  0  0  0  0  0  0  0  0  0
   -7.2150   25.6790  -29.7200 O   0  0  0  0  0  0  0  0  0  0  0  0
   -7.6360   23.1050  -31.0500 C   0  0  0  0  0  0  0  0  0  0  0  0
   -7.3880   21.9260  -31.6780 C   0  0  0  0  0  0  0  0  0  0  0  0
   -8.2720   21.0680  -32.3100 C   0  0  0  0  0  0  0  0  0  0  0  0
   -7.8100   19.9090  -32.8920 C   0  0  0  0  0  0  0  0  0  0  0  0
   -6.4590   19.6500  -32.8180 C   0  0  0  0  0  0  0  0  0  0  0  0
   -5.9440   18.3970  -33.4440 C   0  0  0  0  0  0  0  0  0  0  0  0
   -4.8230   17.9610  -32.7440 F   0  0  0  0  0  0  0  0  0  0  0  0
   -6.8580   17.3620  -33.3450 F   0  0  0  0  0  0  0  0  0  0  0  0
   -5.5410   18.6500  -34.7200 F   0  0  0  0  0  0  0  0  0  0  0  0
   -5.5840   20.5280  -32.1760 C   0  0  0  0  0  0  0  0  0  0  0  0
   -6.0420   21.7010  -31.5850 C   0  0  0  0  0  0  0  0  0  0  0  0
    0.2430   21.9281  -29.7318 H   0  0  0  0  0  0  0  0  0  0  0  0
   -0.6059   21.1296  -31.0987 H   0  0  0  0  0  0  0  0  0  0  0  0
   -0.3821   22.9119  -31.0987 H   0  0  0  0  0  0  0  0  0  0  0  0
   -2.2862   22.0959  -27.7444 H   0  0  0  0  0  0  0  0  0  0  0  0
   -0.7324   22.9161  -28.1633 H   0  0  0  0  0  0  0  0  0  0  0  0
   -1.7710   24.8260  -30.2630 H   0  0  0  0  0  0  0  0  0  0  0  0
   -5.4520   24.6030  -27.7570 H   0  0  0  0  0  0  0  0  0  0  0  0
   -4.4400   25.3110  -29.1300 H   0  0  0  0  0  0  0  0  0  0  0  0
   -8.6134   23.5963  -30.9348 H   0  0  0  0  0  0  0  0  0  0  0  0
   -9.3438   21.3125  -32.3471 H   0  0  0  0  0  0  0  0  0  0  0  0
   -8.4958   19.2139  -33.3985 H   0  0  0  0  0  0  0  0  0  0  0  0
   -4.5113   20.2876  -32.1367 H   0  0  0  0  0  0  0  0  0  0  0  0
  1  2  1  0
  2  3  1  0
  3  4  1  0
  4  5  2  0
  4  6  1  0
  2  7  1  0
  7  8  2  0
  7  9  1  0
  9 10  2  0
  9 11  1  0
 11 12  1  0
 12 13  1  0
 13 14  1  0
 13 15  2  0
 12 16  2  0
 16 17  1  0
 17 18  2  0
 18 19  1  0
 19 20  2  0
 20 21  1  0
 21 22  1  0
 21 23  1  0
 21 24  1  0
 20 25  1  0
 25 26  2  0
 26 11  1  0
 26 17  1  0
  1 27  1  0
  1 28  1  0
  1 29  1  0
  3 30  1  0
  3 31  1  0
  6 32  1  0
 14 33  1  0
 14 34  1  0
 16 35  1  0
 18 36  1  0
 19 37  1  0
 25 38  1  0
M  END
>  <smiles>  (44) 
CN(CC(=O)O)C(=O)C(=O)n1c(C(N)=O)cc2ccc(C(F)(F)F)cc21

>  <score_type>  (44) 
oracle

>  <origin>  (44) 
adg

>  <m_score__min__energy>  (44) 
-9.1699999999999999

>  <m_primary>  (44) 
energy

$$$$
45:0
     RDKit          3D

 45 46  0  0  0  0  0  0  0  0999 V2000
   -0.5120   26.1860  -27.4540 C   0  0  0  0  0  0  0  0  0  0  0  0
   -1.7260   25.5910  -26.8990 N   0  0  0  0  0  0  0  0  0  0  0  0
   -1.9350   25.7090  -25.4690 C   0  0  0  0  0  0  0  0  0  0  0  0
   -2.6660   24.9230  -27.7330 C   0  0  0  0  0  0  0  0  0  0  0  0
   -3.6940   24.4290  -27.2010 O   0  0  0  0  0  0  0  0  0  0  0  0
   -2.4050   24.8450  -29.0950 O   0  0  0  0  0  0  0  0  0  0  0  0
   -2.8250   23.6750  -29.7700 C   0  0  0  0  0  0  0  0  0  0  0  0
   -3.5490   23.9780  -30.9400 O   0  0  0  0  0  0  0  0  0  0  0  0
   -4.3340   23.0470  -31.5940 C   0  0  0  0  0  0  0  0  0  0  0  0
   -3.6960   22.3040  -32.4180 O   0  0  0  0  0  0  0  0  0  0  0  0
   -5.7230   22.8750  -31.4170 N   0  0  0  0  0  0  0  0  0  0  0  0
   -6.5900   23.7110  -30.8320 C   0  0  0  0  0  0  0  0  0  0  0  0
   -6.3910   25.0000  -30.2210 C   0  0  0  0  0  0  0  0  0  0  0  0
   -5.1220   25.6740  -30.3860 N   0  0  0  0  0  0  0  0  0  0  0  0
   -7.2240   25.6330  -29.5310 O   0  0  0  0  0  0  0  0  0  0  0  0
   -7.8470   23.1000  -30.9020 C   0  0  0  0  0  0  0  0  0  0  0  0
   -7.7230   21.8970  -31.5300 C   0  0  0  0  0  0  0  0  0  0  0  0
   -8.6680   20.9300  -31.8380 C   0  0  0  0  0  0  0  0  0  0  0  0
   -8.2800   19.7810  -32.4890 C   0  0  0  0  0  0  0  0  0  0  0  0
   -6.9580   19.6180  -32.8220 C   0  0  0  0  0  0  0  0  0  0  0  0
   -6.5310   18.4350  -33.4980 N   0  0  0  0  0  0  0  0  0  0  0  0
   -6.8940   17.1550  -32.9420 C   0  0  0  0  0  0  0  0  0  0  0  0
   -5.7530   18.5420  -34.7110 C   0  0  0  0  0  0  0  0  0  0  0  0
   -6.0220   20.6080  -32.5020 C   0  0  0  0  0  0  0  0  0  0  0  0
   -6.3900   21.7690  -31.8470 C   0  0  0  0  0  0  0  0  0  0  0  0
    0.1462   26.5086  -26.6338 H   0  0  0  0  0  0  0  0  0  0  0  0
    0.0110   25.4421  -28.0729 H   0  0  0  0  0  0  0  0  0  0  0  0
   -0.7795   27.0551  -28.0729 H   0  0  0  0  0  0  0  0  0  0  0  0
   -1.0972   25.2360  -24.9357 H   0  0  0  0  0  0  0  0  0  0  0  0
   -1.9916   26.7724  -25.1932 H   0  0  0  0  0  0  0  0  0  0  0  0
   -2.8747   25.2082  -25.1932 H   0  0  0  0  0  0  0  0  0  0  0  0
   -1.9386   23.0836  -30.0428 H   0  0  0  0  0  0  0  0  0  0  0  0
   -3.4851   23.1094  -29.0960 H   0  0  0  0  0  0  0  0  0  0  0  0
   -4.9650   26.3090  -31.2210 H   0  0  0  0  0  0  0  0  0  0  0  0
   -4.3670   25.5310  -29.6780 H   0  0  0  0  0  0  0  0  0  0  0  0
   -8.7848   23.5230  -30.5126 H   0  0  0  0  0  0  0  0  0  0  0  0
   -9.7225   21.0804  -31.5634 H   0  0  0  0  0  0  0  0  0  0  0  0
   -9.0182   19.0047  -32.7388 H   0  0  0  0  0  0  0  0  0  0  0  0
   -6.8772   17.2142  -31.8437 H   0  0  0  0  0  0  0  0  0  0  0  0
   -7.9049   16.8822  -33.2791 H   0  0  0  0  0  0  0  0  0  0  0  0
   -6.1768   16.3921  -33.2791 H   0  0  0  0  0  0  0  0  0  0  0  0
   -4.6931   18.6878  -34.4552 H   0  0  0  0  0  0  0  0  0  0  0  0
   -5.8644   17.6201  -35.3006 H   0  0  0  0  0  0  0  0  0  0  0  0
   -6.1092   19.3996  -35.3006 H   0  0  0  0  0  0  0  0  0  0  0  0
   -4.9677   20.4590  -32.7783 H   0  0  0  0  0  0  0  0  0  0  0  0
  1  2  1  0
  2  3  1  0
  2  4  1  0
  4  5  2  0
  4  6  1  0
  6  7  1  0
  7  8  1  0
  8  9  1  0
  9 10  2  0
  9 11  1  0
 11 12  1  0
 12 13  1  0
 13 14  1  0
 13 15  2  0
 12 16  2  0
 16 17  1  0
 17 18  2  0
 18 19  1  0
 19 20  2  0
 20 21  1  0
 21 22  1  0
 21 23  1  0
 20 24  1  0
 24 25  2  0
 25 11  1  0
 25 17  1  0
  1 26  1  0
  1 27  1  0
  1 28  1  0
  3 29  1  0
  3 30  1  0
  3 31  1  0
  7 32  1  0
  7 33  1  0
 14 34  1  0
 14 35  1  0
 16 36  1  0
 18 37  1  0
 19 38  1  0
 22 39  1  0
 22 40  1  0
 22 41  1  0
 23 42  1  0
 23 43  1  0
 23 44  1  0
 24 45  1  0
M  END
>  <smiles>  (45) 
CN(C)C(=O)OCOC(=O)n1c(C(N)=O)cc2ccc(N(C)C)cc21

>  <score_type>  (45) 
oracle

>  <origin>  (45) 
adg

>  <m_score__min__energy>  (45) 
-8.9399999999999995

>  <m_primary>  (45) 
energy

$$$$
47:0
     RDKit          3D

 31 32  0  0  0  0  0  0  0  0999 V2000
   -6.4020   25.6200  -29.3610 N   0  0  0  0  0  0  0  0  0  0  0  0
   -5.6760   25.0030  -30.4480 C   0  0  0  0  0  0  0  0  0  0  0  0
   -4.7150   25.6780  -30.8800 O   0  0  0  0  0  0  0  0  0  0  0  0
   -6.0960   23.7070  -30.9330 C   0  0  0  0  0  0  0  0  0  0  0  0
   -7.4420   23.3310  -30.9870 C   0  0  0  0  0  0  0  0  0  0  0  0
   -7.5380   22.0570  -31.4880 C   0  0  0  0  0  0  0  0  0  0  0  0
   -8.6290   21.2480  -31.7330 C   0  0  0  0  0  0  0  0  0  0  0  0
   -8.4510   19.9830  -32.2490 C   0  0  0  0  0  0  0  0  0  0  0  0
   -7.1700   19.5560  -32.5110 C   0  0  0  0  0  0  0  0  0  0  0  0
   -7.0060   18.2330  -33.0490 C   0  0  0  0  0  0  0  0  0  0  0  0
   -6.8520   17.1230  -33.5040 C   0  0  0  0  0  0  0  0  0  0  0  0
   -6.6800   15.7890  -34.0260 C   0  0  0  0  0  0  0  0  0  0  0  0
   -7.6050   15.1740  -34.6240 O   0  0  0  0  0  0  0  0  0  0  0  0
   -5.3260   15.1800  -33.8130 C   0  0  0  0  0  0  0  0  0  0  0  0
   -5.2300   13.8950  -34.2810 O   0  0  0  0  0  0  0  0  0  0  0  0
   -6.0830   20.3880  -32.2560 C   0  0  0  0  0  0  0  0  0  0  0  0
   -6.2350   21.6610  -31.7390 C   0  0  0  0  0  0  0  0  0  0  0  0
   -5.3890   22.6660  -31.3990 N   0  0  0  0  0  0  0  0  0  0  0  0
   -3.9860   22.5780  -31.5340 C   0  0  0  0  0  0  0  0  0  0  0  0
   -3.5150   21.4990  -32.0180 O   0  0  0  0  0  0  0  0  0  0  0  0
   -3.0700   23.5360  -31.1970 O   0  0  0  0  0  0  0  0  0  0  0  0
   -6.8700   24.9840  -28.6480 H   0  0  0  0  0  0  0  0  0  0  0  0
   -6.4780   26.6360  -29.2590 H   0  0  0  0  0  0  0  0  0  0  0  0
   -8.2907   23.9582  -30.6765 H   0  0  0  0  0  0  0  0  0  0  0  0
   -9.6433   21.6141  -31.5157 H   0  0  0  0  0  0  0  0  0  0  0  0
   -9.3135   19.3295  -32.4469 H   0  0  0  0  0  0  0  0  0  0  0  0
   -4.5794   15.7979  -34.3334 H   0  0  0  0  0  0  0  0  0  0  0  0
   -5.1512   15.1455  -32.7275 H   0  0  0  0  0  0  0  0  0  0  0  0
   -6.1470   13.6280  -34.5980 H   0  0  0  0  0  0  0  0  0  0  0  0
   -5.0694   20.0200  -32.4732 H   0  0  0  0  0  0  0  0  0  0  0  0
   -3.1200   24.4730  -31.5920 H   0  0  0  0  0  0  0  0  0  0  0  0
  1  2  1  0
  2  3  2  0
  2  4  1  0
  4  5  2  0
  5  6  1  0
  6  7  2  0
  7  8  1  0
  8  9  2  0
  9 10  1  0
 10 11  3  0
 11 12  1  0
 12 13  2  0
 12 14  1  0
 14 15  1  0
  9 16  1  0
 16 17  2  0
 17 18  1  0
 18 19  1  0
 19 20  2  0
 19 21  1  0
 18  4  1  0
 17  6  1  0
  1 22  1  0
  1 23  1  0
  5 24  1  0
  7 25  1  0
  8 26  1  0
 14 27  1  0
 14 28  1  0
 15 29  1  0
 16 30  1  0
 21 31  1  0
M  END
>  <smiles>  (46) 
NC(=O)c1cc2ccc(C#CC(=O)CO)cc2n1C(=O)O

>  <score_type>  (46) 
oracle

>  <origin>  (46) 
adg

>  <m_score__min__energy>  (46) 
-7.9900000000000002

>  <m_primary>  (46) 
energy

$$$$
48:0
     RDKit          3D

 43 44  0  0  0  0  0  0  0  0999 V2000
   -6.1230   18.6220  -34.1980 C   0  0  0  0  0  0  0  0  0  0  0  0
   -6.6020   19.6900  -33.2840 C   0  0  0  0  0  0  0  0  0  0  0  0
   -7.9260   19.7100  -32.9140 C   0  0  0  0  0  0  0  0  0  0  0  0
   -8.3510   20.6980  -32.0730 C   0  0  0  0  0  0  0  0  0  0  0  0
   -7.4790   21.6540  -31.6010 C   0  0  0  0  0  0  0  0  0  0  0  0
   -7.6570   22.7350  -30.7580 C   0  0  0  0  0  0  0  0  0  0  0  0
   -6.4320   23.3980  -30.5980 C   0  0  0  0  0  0  0  0  0  0  0  0
   -6.3020   24.5690  -29.7700 C   0  0  0  0  0  0  0  0  0  0  0  0
   -5.3120   24.8730  -28.8360 N   0  0  0  0  0  0  0  0  0  0  0  0
   -7.2200   25.4600  -29.9070 O   0  0  0  0  0  0  0  0  0  0  0  0
   -5.5410   22.7180  -31.3370 N   0  0  0  0  0  0  0  0  0  0  0  0
   -4.1680   23.0120  -31.4890 C   0  0  0  0  0  0  0  0  0  0  0  0
   -3.6120   24.0940  -31.1910 O   0  0  0  0  0  0  0  0  0  0  0  0
   -3.2930   22.0420  -32.0160 O   0  0  0  0  0  0  0  0  0  0  0  0
   -1.9650   21.9200  -31.5420 C   0  0  0  0  0  0  0  0  0  0  0  0
   -1.7940   22.6250  -30.3100 O   0  0  0  0  0  0  0  0  0  0  0  0
   -1.8820   21.9200  -29.1150 C   0  0  0  0  0  0  0  0  0  0  0  0
   -2.3600   20.7440  -29.0800 O   0  0  0  0  0  0  0  0  0  0  0  0
   -1.4480   22.4600  -27.8700 N   0  0  0  0  0  0  0  0  0  0  0  0
   -1.2010   21.4970  -26.8030 C   0  0  0  0  0  0  0  0  0  0  0  0
   -1.2450   23.8490  -27.6100 C   0  0  0  0  0  0  0  0  0  0  0  0
   -2.3660   24.7000  -28.0680 C   0  0  0  0  0  0  0  0  0  0  0  0
   -3.3730   24.9210  -27.3140 O   0  0  0  0  0  0  0  0  0  0  0  0
   -2.2870   25.2460  -29.3420 O   0  0  0  0  0  0  0  0  0  0  0  0
   -6.1580   21.6680  -31.9460 C   0  0  0  0  0  0  0  0  0  0  0  0
   -5.7300   20.6610  -32.8020 C   0  0  0  0  0  0  0  0  0  0  0  0
   -5.7435   17.7759  -33.6063 H   0  0  0  0  0  0  0  0  0  0  0  0
   -6.9548   18.2820  -34.8324 H   0  0  0  0  0  0  0  0  0  0  0  0
   -5.3158   19.0170  -34.8324 H   0  0  0  0  0  0  0  0  0  0  0  0
   -8.6263   18.9480  -33.2867 H   0  0  0  0  0  0  0  0  0  0  0  0
   -9.4072   20.7311  -31.7674 H   0  0  0  0  0  0  0  0  0  0  0  0
   -8.6074   23.0281  -30.2880 H   0  0  0  0  0  0  0  0  0  0  0  0
   -4.4480   25.3990  -29.1630 H   0  0  0  0  0  0  0  0  0  0  0  0
   -5.4480   24.5810  -27.8420 H   0  0  0  0  0  0  0  0  0  0  0  0
   -1.7364   20.8559  -31.3823 H   0  0  0  0  0  0  0  0  0  0  0  0
   -1.2846   22.3522  -32.2905 H   0  0  0  0  0  0  0  0  0  0  0  0
   -1.3274   21.9899  -25.8278 H   0  0  0  0  0  0  0  0  0  0  0  0
   -1.9146   20.6642  -26.8882 H   0  0  0  0  0  0  0  0  0  0  0  0
   -0.1747   21.1105  -26.8882 H   0  0  0  0  0  0  0  0  0  0  0  0
   -1.1222   23.9870  -26.5256 H   0  0  0  0  0  0  0  0  0  0  0  0
   -0.3507   24.1583  -28.1709 H   0  0  0  0  0  0  0  0  0  0  0  0
   -1.9920   24.6320  -30.1080 H   0  0  0  0  0  0  0  0  0  0  0  0
   -4.6735   20.6306  -33.1068 H   0  0  0  0  0  0  0  0  0  0  0  0
  1  2  1  0
  2  3  2  0
  3  4  1  0
  4  5  2  0
  5  6  1  0
  6  7  2  0
  7  8  1  0
  8  9  1  0
  8 10  2  0
  7 11  1  0
 11 12  1  0
 12 13  2  0
 12 14  1  0
 14 15  1  0
 15 16  1  0
 16 17  1  0
 17 18  2  0
 17 19  1  0
 19 20  1  0
 19 21  1  0
 21 22  1  0
 22 23  2  0
 22 24  1  0
 11 25  1  0
 25 26  2  0
 26  2  1  0
 25  5  1  0
  1 27  1  0
  1 28  1  0
  1 29  1  0
  3 30  1  0
  4 31  1  0
  6 32  1  0
  9 33  1  0
  9 34  1  0
 15 35  1  0
 15 36  1  0
 20 37  1  0
 20 38  1  0
 20 39  1  0
 21 40  1  0
 21 41  1  0
 24 42  1  0
 26 43  1  0
M  END
>  <smiles>  (47) 
Cc1ccc2cc(C(N)=O)n(C(=O)OCOC(=O)N(C)CC(=O)O)c2c1

>  <score_type>  (47) 
oracle

>  <origin>  (47) 
adg

>  <m_score__min__energy>  (47) 
-8.0299999999999994

>  <m_primary>  (47) 
energy

$$$$
49:0
     RDKit          3D

 40 41  0  0  1  0  0  0  0  0999 V2000
   -2.2620   25.4320  -26.0340 C   0  0  0  0  0  0  0  0  0  0  0  0
   -1.9500   24.1550  -26.7580 C   0  0  0  0  0  0  0  0  0  0  0  0
   -2.8290   24.0870  -28.2910 S   0  0  0  0  0  0  0  0  0  0  0  0
   -2.3740   25.2940  -29.3460 O   0  0  0  0  0  0  0  0  0  0  0  0
   -2.6420   22.4970  -28.9610 C   0  0  0  0  0  0  0  0  0  0  0  0
   -1.7190   21.5490  -28.2490 C   0  0  0  0  0  0  0  0  0  0  0  0
   -3.2840   22.0910  -30.0780 C   0  0  0  0  0  0  0  0  0  0  0  0
   -4.1610   23.0290  -30.7330 C   0  0  0  0  0  0  0  0  0  0  0  0
   -3.5580   24.0610  -31.2120 O   0  0  0  0  0  0  0  0  0  0  0  0
   -5.5430   22.9760  -30.9050 N   0  0  0  0  0  0  0  0  0  0  0  0
   -6.4820   23.9210  -30.7690 C   0  0  0  0  0  0  0  0  0  0  0  0
   -6.4440   25.2320  -30.1500 C   0  0  0  0  0  0  0  0  0  0  0  0
   -5.3440   26.1150  -30.1150 N   0  0  0  0  0  0  0  0  0  0  0  0
   -7.5000   25.6660  -29.5560 O   0  0  0  0  0  0  0  0  0  0  0  0
   -7.7250   23.4150  -31.2180 C   0  0  0  0  0  0  0  0  0  0  0  0
   -7.5070   22.1330  -31.6230 C   0  0  0  0  0  0  0  0  0  0  0  0
   -8.3970   21.2140  -32.1390 C   0  0  0  0  0  0  0  0  0  0  0  0
   -7.9640   19.9540  -32.4900 C   0  0  0  0  0  0  0  0  0  0  0  0
   -6.6350   19.6650  -32.3060 C   0  0  0  0  0  0  0  0  0  0  0  0
   -6.1720   18.2990  -32.6860 C   0  0  0  0  0  0  0  0  0  0  0  0
   -5.7480   20.6030  -31.7830 C   0  0  0  0  0  0  0  0  0  0  0  0
   -6.1760   21.8790  -31.4260 C   0  0  0  0  0  0  0  0  0  0  0  0
   -2.2195   25.2580  -24.9487 H   0  0  0  0  0  0  0  0  0  0  0  0
   -1.5251   26.2002  -26.3113 H   0  0  0  0  0  0  0  0  0  0  0  0
   -3.2701   25.7738  -26.3113 H   0  0  0  0  0  0  0  0  0  0  0  0
   -0.8693   24.1056  -26.9570 H   0  0  0  0  0  0  0  0  0  0  0  0
   -2.2575   23.3046  -26.1316 H   0  0  0  0  0  0  0  0  0  0  0  0
   -1.8366   21.6698  -27.1620 H   0  0  0  0  0  0  0  0  0  0  0  0
   -1.9659   20.5151  -28.5319 H   0  0  0  0  0  0  0  0  0  0  0  0
   -0.6788   21.7681  -28.5319 H   0  0  0  0  0  0  0  0  0  0  0  0
   -3.1419   21.0753  -30.4758 H   0  0  0  0  0  0  0  0  0  0  0  0
   -4.4100   25.7300  -29.8550 H   0  0  0  0  0  0  0  0  0  0  0  0
   -5.4460   27.1440  -30.3420 H   0  0  0  0  0  0  0  0  0  0  0  0
   -8.6838   23.9539  -31.2364 H   0  0  0  0  0  0  0  0  0  0  0  0
   -9.4543   21.4876  -32.2705 H   0  0  0  0  0  0  0  0  0  0  0  0
   -8.6581   19.2070  -32.9026 H   0  0  0  0  0  0  0  0  0  0  0  0
   -5.9734   17.7130  -31.7765 H   0  0  0  0  0  0  0  0  0  0  0  0
   -6.9512   17.8000  -33.2809 H   0  0  0  0  0  0  0  0  0  0  0  0
   -5.2500   18.3766  -33.2809 H   0  0  0  0  0  0  0  0  0  0  0  0
   -4.6906   20.3309  -31.6496 H   0  0  0  0  0  0  0  0  0  0  0  0
  1  2  1  0
  2  3  1  0
  3  4  1  6
  3  5  1  0
  5  6  1  0
  5  7  2  0
  7  8  1  0
  8  9  2  0
  8 10  1  0
 10 11  1  0
 11 12  1  0
 12 13  1  0
 12 14  2  0
 11 15  2  0
 15 16  1  0
 16 17  2  0
 17 18  1  0
 18 19  2  0
 19 20  1  0
 19 21  1  0
 21 22  2  0
 22 10  1  0
 22 16  1  0
  1 23  1  0
  1 24  1  0
  1 25  1  0
  2 26  1  0
  2 27  1  0
  6 28  1  0
  6 29  1  0
  6 30  1  0
  7 31  1  0
 13 32  1  0
 13 33  1  0
 15 34  1  0
 17 35  1  0
 18 36  1  0
 20 37  1  0
 20 38  1  0
 20 39  1  0
 21 40  1  0
M  CHG  2   3   1   4  -1
M  END
>  <smiles>  (48) 
CC[S+]([O-])/C(C)=C\C(=O)n1c(C(N)=O)cc2ccc(C)cc21

>  <score_type>  (48) 
oracle

>  <origin>  (48) 
adg

>  <m_score__min__energy>  (48) 
-10.779999999999999

>  <m_primary>  (48) 
energy

$$$$
50:0
     RDKit          3D

 40 42  0  0  0  0  0  0  0  0999 V2000
   -7.9620   18.2390  -32.7070 C   0  0  0  0  0  0  0  0  0  0  0  0
   -7.8660   19.6430  -32.1770 C   0  0  0  0  0  0  0  0  0  0  0  0
   -9.0170   20.3530  -31.9360 C   0  0  0  0  0  0  0  0  0  0  0  0
   -8.8770   21.6340  -31.4530 C   0  0  0  0  0  0  0  0  0  0  0  0
   -7.6260   22.1600  -31.2270 C   0  0  0  0  0  0  0  0  0  0  0  0
   -7.2600   23.3930  -30.7870 C   0  0  0  0  0  0  0  0  0  0  0  0
   -5.8610   23.4770  -30.7400 C   0  0  0  0  0  0  0  0  0  0  0  0
   -5.2190   24.6890  -30.2890 C   0  0  0  0  0  0  0  0  0  0  0  0
   -5.7030   25.3620  -29.0830 N   0  0  0  0  0  0  0  0  0  0  0  0
   -4.2520   25.2850  -30.8100 O   0  0  0  0  0  0  0  0  0  0  0  0
   -5.3740   22.2710  -31.1600 N   0  0  0  0  0  0  0  0  0  0  0  0
   -4.0150   22.0210  -31.3290 C   0  0  0  0  0  0  0  0  0  0  0  0
   -3.5740   22.2710  -32.5270 O   0  0  0  0  0  0  0  0  0  0  0  0
   -2.9960   21.5490  -30.4470 C   0  0  0  0  0  0  0  0  0  0  0  0
   -2.3040   20.4860  -30.6290 O   0  0  0  0  0  0  0  0  0  0  0  0
   -2.6250   22.2280  -29.2290 N   0  0  0  0  0  0  0  0  0  0  0  0
   -1.3700   22.8710  -28.9690 C   0  0  0  0  0  0  0  0  0  0  0  0
   -1.5240   24.3870  -29.0210 C   0  0  0  0  0  0  0  0  0  0  0  0
   -2.8440   24.7430  -28.5020 N   0  0  0  0  0  0  0  0  0  0  0  0
   -3.5930   23.7830  -27.7660 C   0  0  0  0  0  0  0  0  0  0  0  0
   -4.2790   24.1170  -26.7620 O   0  0  0  0  0  0  0  0  0  0  0  0
   -3.6150   22.3220  -28.1350 C   0  0  0  0  0  0  0  0  0  0  0  0
   -6.4480   21.4750  -31.4550 C   0  0  0  0  0  0  0  0  0  0  0  0
   -6.6040   20.1950  -31.9410 C   0  0  0  0  0  0  0  0  0  0  0  0
   -8.0103   17.5320  -31.8657 H   0  0  0  0  0  0  0  0  0  0  0  0
   -8.8690   18.1403  -33.3215 H   0  0  0  0  0  0  0  0  0  0  0  0
   -7.0769   18.0177  -33.3215 H   0  0  0  0  0  0  0  0  0  0  0  0
  -10.0092   19.9158  -32.1214 H   0  0  0  0  0  0  0  0  0  0  0  0
   -9.7708   22.2410  -31.2464 H   0  0  0  0  0  0  0  0  0  0  0  0
   -7.9541   24.2003  -30.5105 H   0  0  0  0  0  0  0  0  0  0  0  0
   -5.9490   26.3760  -29.1370 H   0  0  0  0  0  0  0  0  0  0  0  0
   -5.7830   24.7860  -28.2120 H   0  0  0  0  0  0  0  0  0  0  0  0
   -1.0133   22.5777  -27.9706 H   0  0  0  0  0  0  0  0  0  0  0  0
   -0.6463   22.5611  -29.7373 H   0  0  0  0  0  0  0  0  0  0  0  0
   -0.7445   24.8594  -28.4052 H   0  0  0  0  0  0  0  0  0  0  0  0
   -1.4223   24.7384  -30.0584 H   0  0  0  0  0  0  0  0  0  0  0  0
   -3.2710   25.6720  -28.6430 H   0  0  0  0  0  0  0  0  0  0  0  0
   -3.3177   21.6961  -27.2807 H   0  0  0  0  0  0  0  0  0  0  0  0
   -4.6144   21.9693  -28.4298 H   0  0  0  0  0  0  0  0  0  0  0  0
   -5.7091   19.5901  -32.1493 H   0  0  0  0  0  0  0  0  0  0  0  0
  1  2  1  0
  2  3  2  0
  3  4  1  0
  4  5  2  0
  5  6  1  0
  6  7  2  0
  7  8  1  0
  8  9  1  0
  8 10  2  0
  7 11  1  0
 11 12  1  0
 12 13  2  0
 12 14  1  0
 14 15  2  0
 14 16  1  0
 16 17  1  0
 17 18  1  0
 18 19  1  0
 19 20  1  0
 20 21  2  0
 20 22  1  0
 11 23  1  0
 23 24  2  0
 24  2  1  0
 23  5  1  0
 22 16  1  0
  1 25  1  0
  1 26  1  0
  1 27  1  0
  3 28  1  0
  4 29  1  0
  6 30  1  0
  9 31  1  0
  9 32  1  0
 17 33  1  0
 17 34  1  0
 18 35  1  0
 18 36  1  0
 19 37  1  0
 22 38  1  0
 22 39  1  0
 24 40  1  0
M  END
>  <smiles>  (49) 
Cc1ccc2cc(C(N)=O)n(C(=O)C(=O)N3CCNC(=O)C3)c2c1

>  <score_type>  (49) 
oracle

>  <origin>  (49) 
adg

>  <m_score__min__energy>  (49) 
-9.6199999999999992

>  <m_primary>  (49) 
energy

$$$$
51:0
     RDKit          3D

 38 39  0  0  0  0  0  0  0  0999 V2000
   -2.9610   21.8360  -27.7420 C   0  0  0  0  0  0  0  0  0  0  0  0
   -2.9990   23.2360  -28.1180 N   0  0  0  0  0  0  0  0  0  0  0  0
   -3.3350   24.1930  -27.0550 C   0  0  0  0  0  0  0  0  0  0  0  0
   -2.7310   23.6900  -29.4410 C   0  0  0  0  0  0  0  0  0  0  0  0
   -2.7880   24.9260  -29.6810 O   0  0  0  0  0  0  0  0  0  0  0  0
   -2.4010   22.6680  -30.4560 C   0  0  0  0  0  0  0  0  0  0  0  0
   -3.4730   21.8120  -30.7440 O   0  0  0  0  0  0  0  0  0  0  0  0
   -4.3740   22.1710  -31.7700 C   0  0  0  0  0  0  0  0  0  0  0  0
   -3.8640   22.1990  -32.9140 O   0  0  0  0  0  0  0  0  0  0  0  0
   -5.7250   22.4620  -31.4670 N   0  0  0  0  0  0  0  0  0  0  0  0
   -6.1900   23.5780  -30.9190 C   0  0  0  0  0  0  0  0  0  0  0  0
   -5.5340   24.7900  -30.4750 C   0  0  0  0  0  0  0  0  0  0  0  0
   -5.4400   25.0830  -29.0640 N   0  0  0  0  0  0  0  0  0  0  0  0
   -5.0140   25.6530  -31.2190 O   0  0  0  0  0  0  0  0  0  0  0  0
   -7.5790   23.4150  -30.8110 C   0  0  0  0  0  0  0  0  0  0  0  0
   -7.9360   22.1820  -31.3030 C   0  0  0  0  0  0  0  0  0  0  0  0
   -9.1530   21.5570  -31.4180 C   0  0  0  0  0  0  0  0  0  0  0  0
   -9.2290   20.2990  -31.9580 C   0  0  0  0  0  0  0  0  0  0  0  0
   -8.0720   19.6820  -32.3780 C   0  0  0  0  0  0  0  0  0  0  0  0
   -8.1290   18.3750  -32.9410 N   0  0  0  0  0  0  0  0  0  0  0  0
   -6.8490   20.3330  -32.2510 C   0  0  0  0  0  0  0  0  0  0  0  0
   -6.7420   21.6030  -31.7100 C   0  0  0  0  0  0  0  0  0  0  0  0
   -2.9587   21.7508  -26.6453 H   0  0  0  0  0  0  0  0  0  0  0  0
   -3.8456   21.3232  -28.1477 H   0  0  0  0  0  0  0  0  0  0  0  0
   -2.0499   21.3720  -28.1477 H   0  0  0  0  0  0  0  0  0  0  0  0
   -3.1703   23.7239  -26.0738 H   0  0  0  0  0  0  0  0  0  0  0  0
   -2.6957   25.0833  -27.1477 H   0  0  0  0  0  0  0  0  0  0  0  0
   -4.3906   24.4883  -27.1477 H   0  0  0  0  0  0  0  0  0  0  0  0
   -2.1025   23.1792  -31.3831 H   0  0  0  0  0  0  0  0  0  0  0  0
   -1.5887   22.0496  -30.0464 H   0  0  0  0  0  0  0  0  0  0  0  0
   -6.2140   24.7570  -28.4240 H   0  0  0  0  0  0  0  0  0  0  0  0
   -4.6520   25.5970  -28.6600 H   0  0  0  0  0  0  0  0  0  0  0  0
   -8.2752   24.1590  -30.3966 H   0  0  0  0  0  0  0  0  0  0  0  0
  -10.0669   22.0654  -31.0770 H   0  0  0  0  0  0  0  0  0  0  0  0
  -10.1996   19.7904  -32.0542 H   0  0  0  0  0  0  0  0  0  0  0  0
   -8.6440   18.1970  -33.8310 H   0  0  0  0  0  0  0  0  0  0  0  0
   -7.6530   17.5700  -32.4640 H   0  0  0  0  0  0  0  0  0  0  0  0
   -5.9366   19.8217  -32.5918 H   0  0  0  0  0  0  0  0  0  0  0  0
  1  2  1  0
  2  3  1  0
  2  4  1  0
  4  5  2  0
  4  6  1  0
  6  7  1  0
  7  8  1  0
  8  9  2  0
  8 10  1  0
 10 11  1  0
 11 12  1  0
 12 13  1  0
 12 14  2  0
 11 15  2  0
 15 16  1  0
 16 17  2  0
 17 18  1  0
 18 19  2  0
 19 20  1  0
 19 21  1  0
 21 22  2  0
 22 10  1  0
 22 16  1  0
  1 23  1  0
  1 24  1  0
  1 25  1  0
  3 26  1  0
  3 27  1  0
  3 28  1  0
  6 29  1  0
  6 30  1  0
 13 31  1  0
 13 32  1  0
 15 33  1  0
 17 34  1  0
 18 35  1  0
 20 36  1  0
 20 37  1  0
 21 38  1  0
M  END
>  <smiles>  (50) 
CN(C)C(=O)COC(=O)n1c(C(N)=O)cc2ccc(N)cc21

>  <score_type>  (50) 
oracle

>  <origin>  (50) 
adg

>  <m_score__min__energy>  (50) 
-8.0899999999999999

>  <m_primary>  (50) 
energy

$$$$
52:0
     RDKit          3D

 49 50  0  0  0  0  0  0  0  0999 V2000
   -7.2470   17.8580  -32.3700 C   0  0  0  0  0  0  0  0  0  0  0  0
   -8.2890   18.8730  -32.7470 C   0  0  0  0  0  0  0  0  0  0  0  0
   -8.0570   20.1950  -32.1230 C   0  0  0  0  0  0  0  0  0  0  0  0
   -9.1080   20.8040  -31.4880 C   0  0  0  0  0  0  0  0  0  0  0  0
   -8.8990   22.0330  -30.9070 C   0  0  0  0  0  0  0  0  0  0  0  0
   -7.6450   22.6210  -30.9750 C   0  0  0  0  0  0  0  0  0  0  0  0
   -7.2280   23.8090  -30.4750 C   0  0  0  0  0  0  0  0  0  0  0  0
   -5.8820   23.9130  -30.8260 C   0  0  0  0  0  0  0  0  0  0  0  0
   -5.1750   25.1730  -30.5030 C   0  0  0  0  0  0  0  0  0  0  0  0
   -3.7760   25.1560  -30.2250 N   0  0  0  0  0  0  0  0  0  0  0  0
   -5.7320   26.2850  -30.4570 O   0  0  0  0  0  0  0  0  0  0  0  0
   -5.4520   22.8540  -31.5030 N   0  0  0  0  0  0  0  0  0  0  0  0
   -4.2120   22.3550  -31.8850 C   0  0  0  0  0  0  0  0  0  0  0  0
   -3.9350   22.5150  -33.1510 O   0  0  0  0  0  0  0  0  0  0  0  0
   -3.1800   21.6910  -31.1810 N   0  0  0  0  0  0  0  0  0  0  0  0
   -2.6620   20.3900  -31.5000 C   0  0  0  0  0  0  0  0  0  0  0  0
   -2.6080   22.3600  -30.0590 C   0  0  0  0  0  0  0  0  0  0  0  0
   -1.8830   23.3900  -30.3840 O   0  0  0  0  0  0  0  0  0  0  0  0
   -2.6930   22.1000  -28.7060 N   0  0  0  0  0  0  0  0  0  0  0  0
   -2.8870   20.8740  -27.9830 C   0  0  0  0  0  0  0  0  0  0  0  0
   -2.5600   23.2710  -27.8220 C   0  0  0  0  0  0  0  0  0  0  0  0
   -3.6220   23.7760  -27.3890 O   0  0  0  0  0  0  0  0  0  0  0  0
   -1.3300   23.7800  -27.4910 O   0  0  0  0  0  0  0  0  0  0  0  0
   -1.1670   25.0690  -26.9430 C   0  0  0  0  0  0  0  0  0  0  0  0
   -1.1570   26.0550  -28.0430 C   0  0  0  0  0  0  0  0  0  0  0  0
   -0.8360   27.2560  -27.8180 O   0  0  0  0  0  0  0  0  0  0  0  0
   -1.4990   25.6730  -29.3250 O   0  0  0  0  0  0  0  0  0  0  0  0
   -6.5770   22.0450  -31.5960 C   0  0  0  0  0  0  0  0  0  0  0  0
   -6.8000   20.8070  -32.1780 C   0  0  0  0  0  0  0  0  0  0  0  0
   -7.1791   17.7919  -31.2741 H   0  0  0  0  0  0  0  0  0  0  0  0
   -7.5263   16.8762  -32.7800 H   0  0  0  0  0  0  0  0  0  0  0  0
   -6.2729   18.1629  -32.7800 H   0  0  0  0  0  0  0  0  0  0  0  0
   -8.2813   18.9946  -33.8402 H   0  0  0  0  0  0  0  0  0  0  0  0
   -9.2585   18.5017  -32.3835 H   0  0  0  0  0  0  0  0  0  0  0  0
  -10.0954   20.3212  -31.4441 H   0  0  0  0  0  0  0  0  0  0  0  0
   -9.7230   22.5472  -30.3907 H   0  0  0  0  0  0  0  0  0  0  0  0
   -7.8260   24.5392  -29.9101 H   0  0  0  0  0  0  0  0  0  0  0  0
   -3.0960   25.6570  -30.8520 H   0  0  0  0  0  0  0  0  0  0  0  0
   -3.4480   24.6280  -29.3760 H   0  0  0  0  0  0  0  0  0  0  0  0
   -2.4445   19.8438  -30.5703 H   0  0  0  0  0  0  0  0  0  0  0  0
   -3.4068   19.8326  -32.0870 H   0  0  0  0  0  0  0  0  0  0  0  0
   -1.7379   20.4971  -32.0870 H   0  0  0  0  0  0  0  0  0  0  0  0
   -2.8549   21.0766  -26.9023 H   0  0  0  0  0  0  0  0  0  0  0  0
   -3.8644   20.4436  -28.2465 H   0  0  0  0  0  0  0  0  0  0  0  0
   -2.0902   20.1629  -28.2465 H   0  0  0  0  0  0  0  0  0  0  0  0
   -1.9993   25.2876  -26.2578 H   0  0  0  0  0  0  0  0  0  0  0  0
   -0.2206   25.1214  -26.3849 H   0  0  0  0  0  0  0  0  0  0  0  0
   -1.3100   24.7160  -29.6310 H   0  0  0  0  0  0  0  0  0  0  0  0
   -5.9731   20.2960  -32.6929 H   0  0  0  0  0  0  0  0  0  0  0  0
  1  2  1  0
  2  3  1  0
  3  4  2  0
  4  5  1  0
  5  6  2  0
  6  7  1  0
  7  8  2  0
  8  9  1  0
  9 10  1  0
  9 11  2  0
  8 12  1  0
 12 13  1  0
 13 14  2  0
 13 15  1  0
 15 16  1  0
 15 17  1  0
 17 18  2  0
 17 19  1  0
 19 20  1  0
 19 21  1  0
 21 22  2  0
 21 23  1  0
 23 24  1  0
 24 25  1  0
 25 26  2  0
 25 27  1  0
 12 28  1  0
 28 29  2  0
 29  3  1  0
 28  6  1  0
  1 30  1  0
  1 31  1  0
  1 32  1  0
  2 33  1  0
  2 34  1  0
  4 35  1  0
  5 36  1  0
  7 37  1  0
 10 38  1  0
 10 39  1  0
 16 40  1  0
 16 41  1  0
 16 42  1  0
 20 43  1  0
 20 44  1  0
 20 45  1  0
 24 46  1  0
 24 47  1  0
 27 48  1  0
 29 49  1  0
M  END
>  <smiles>  (51) 
CCc1ccc2cc(C(N)=O)n(C(=O)N(C)C(=O)N(C)C(=O)OCC(=O)O)c2c1

>  <score_type>  (51) 
oracle

>  <origin>  (51) 
adg

>  <m_score__min__energy>  (51) 
-9.5600000000000005

>  <m_primary>  (51) 
energy

$$$$
53:0
     RDKit          3D

 28 29  0  0  0  0  0  0  0  0999 V2000
   -0.7680   21.6960  -31.6460 N   0  0  0  0  0  0  0  0  0  0  0  0
   -1.6690   21.3560  -32.6690 C   0  0  0  0  0  0  0  0  0  0  0  0
   -1.1600   21.3410  -33.8520 O   0  0  0  0  0  0  0  0  0  0  0  0
   -3.0660   21.0390  -32.5770 C   0  0  0  0  0  0  0  0  0  0  0  0
   -3.4910   19.7540  -33.0120 C   0  0  0  0  0  0  0  0  0  0  0  0
   -4.8470   19.6960  -32.8820 C   0  0  0  0  0  0  0  0  0  0  0  0
   -5.7130   18.6690  -33.1690 C   0  0  0  0  0  0  0  0  0  0  0  0
   -7.0640   18.8170  -32.9550 C   0  0  0  0  0  0  0  0  0  0  0  0
   -7.4960   20.0180  -32.4520 C   0  0  0  0  0  0  0  0  0  0  0  0
   -8.9520   20.1920  -32.2180 C   0  0  0  0  0  0  0  0  0  0  0  0
   -9.6350   19.3720  -33.1140 F   0  0  0  0  0  0  0  0  0  0  0  0
   -9.2580   21.5110  -32.3500 F   0  0  0  0  0  0  0  0  0  0  0  0
   -9.1940   19.8150  -30.9130 F   0  0  0  0  0  0  0  0  0  0  0  0
   -6.6050   21.0510  -32.1670 C   0  0  0  0  0  0  0  0  0  0  0  0
   -5.2380   20.9140  -32.3780 C   0  0  0  0  0  0  0  0  0  0  0  0
   -4.1500   21.7280  -32.1910 N   0  0  0  0  0  0  0  0  0  0  0  0
   -4.3080   23.0420  -31.7090 C   0  0  0  0  0  0  0  0  0  0  0  0
   -5.3410   23.6620  -32.1590 O   0  0  0  0  0  0  0  0  0  0  0  0
   -3.5140   23.7970  -30.7910 C   0  0  0  0  0  0  0  0  0  0  0  0
   -2.7010   23.3900  -29.9370 O   0  0  0  0  0  0  0  0  0  0  0  0
   -3.6340   25.2120  -30.8190 O   0  0  0  0  0  0  0  0  0  0  0  0
   -1.1080   22.2390  -30.8140 H   0  0  0  0  0  0  0  0  0  0  0  0
    0.2340   21.4250  -31.6840 H   0  0  0  0  0  0  0  0  0  0  0  0
   -2.8413   18.9494  -33.3869 H   0  0  0  0  0  0  0  0  0  0  0  0
   -5.3239   17.7225  -33.5724 H   0  0  0  0  0  0  0  0  0  0  0  0
   -7.7703   18.0039  -33.1785 H   0  0  0  0  0  0  0  0  0  0  0  0
   -6.9933   21.9985  -31.7650 H   0  0  0  0  0  0  0  0  0  0  0  0
   -4.1430   25.6690  -31.5960 H   0  0  0  0  0  0  0  0  0  0  0  0
  1  2  1  0
  2  3  2  0
  2  4  1  0
  4  5  2  0
  5  6  1  0
  6  7  2  0
  7  8  1  0
  8  9  2  0
  9 10  1  0
 10 11  1  0
 10 12  1  0
 10 13  1  0
  9 14  1  0
 14 15  2  0
 15 16  1  0
 16 17  1  0
 17 18  2  0
 17 19  1  0
 19 20  2  0
 19 21  1  0
 16  4  1  0
 15  6  1  0
  1 22  1  0
  1 23  1  0
  5 24  1  0
  7 25  1  0
  8 26  1  0
 14 27  1  0
 21 28  1  0
M  END
>  <smiles>  (52) 
NC(=O)c1cc2ccc(C(F)(F)F)cc2n1C(=O)C(=O)O

>  <score_type>  (52) 
oracle

>  <origin>  (52) 
adg

>  <m_score__min__energy>  (52) 
-7.71

>  <m_primary>  (52) 
energy

$$$$
54:0
     RDKit          3D

 46 47  0  0  0  0  0  0  0  0999 V2000
   -2.6870   20.8270  -30.0640 C   0  0  0  0  0  0  0  0  0  0  0  0
   -2.8380   22.2160  -30.3940 N   0  0  0  0  0  0  0  0  0  0  0  0
   -1.5970   23.0010  -30.0800 C   0  0  0  0  0  0  0  0  0  0  0  0
   -3.8820   22.9430  -30.9270 C   0  0  0  0  0  0  0  0  0  0  0  0
   -3.5540   24.2030  -31.1330 O   0  0  0  0  0  0  0  0  0  0  0  0
   -5.2050   22.6960  -31.3190 N   0  0  0  0  0  0  0  0  0  0  0  0
   -6.2270   23.5370  -30.9710 C   0  0  0  0  0  0  0  0  0  0  0  0
   -6.2630   24.8580  -30.3840 C   0  0  0  0  0  0  0  0  0  0  0  0
   -5.2090   25.8030  -30.3270 N   0  0  0  0  0  0  0  0  0  0  0  0
   -7.3570   25.2960  -29.8360 O   0  0  0  0  0  0  0  0  0  0  0  0
   -7.4390   22.9430  -31.3920 C   0  0  0  0  0  0  0  0  0  0  0  0
   -7.1530   21.7580  -31.9880 C   0  0  0  0  0  0  0  0  0  0  0  0
   -7.9800   20.8120  -32.5330 C   0  0  0  0  0  0  0  0  0  0  0  0
   -7.4650   19.6530  -33.0620 C   0  0  0  0  0  0  0  0  0  0  0  0
   -6.1030   19.4740  -33.0260 C   0  0  0  0  0  0  0  0  0  0  0  0
   -5.4690   18.2910  -33.5520 N   0  0  0  0  0  0  0  0  0  0  0  0
   -5.9170   16.9910  -33.1150 C   0  0  0  0  0  0  0  0  0  0  0  0
   -4.3930   18.3430  -34.5110 C   0  0  0  0  0  0  0  0  0  0  0  0
   -3.1330   18.7720  -33.8050 C   0  0  0  0  0  0  0  0  0  0  0  0
   -2.7350   18.0570  -32.8360 O   0  0  0  0  0  0  0  0  0  0  0  0
   -2.3990   19.9100  -34.1700 N   0  0  0  0  0  0  0  0  0  0  0  0
   -1.1930   20.2110  -33.3990 C   0  0  0  0  0  0  0  0  0  0  0  0
   -0.3550   21.1770  -34.0860 C   0  0  0  0  0  0  0  0  0  0  0  0
    0.3270   21.9400  -34.6290 N   0  0  0  0  0  0  0  0  0  0  0  0
   -5.2970   20.4450  -32.4720 C   0  0  0  0  0  0  0  0  0  0  0  0
   -5.7670   21.6240  -31.9330 C   0  0  0  0  0  0  0  0  0  0  0  0
   -2.6742   20.7092  -28.9704 H   0  0  0  0  0  0  0  0  0  0  0  0
   -3.5284   20.2567  -30.4844 H   0  0  0  0  0  0  0  0  0  0  0  0
   -1.7427   20.4508  -30.4844 H   0  0  0  0  0  0  0  0  0  0  0  0
   -1.4773   23.0767  -28.9892 H   0  0  0  0  0  0  0  0  0  0  0  0
   -0.7222   22.4916  -30.5104 H   0  0  0  0  0  0  0  0  0  0  0  0
   -1.6825   24.0097  -30.5104 H   0  0  0  0  0  0  0  0  0  0  0  0
   -4.9860   26.1920  -29.3600 H   0  0  0  0  0  0  0  0  0  0  0  0
   -4.6710   26.1200  -31.1640 H   0  0  0  0  0  0  0  0  0  0  0  0
   -8.4442   23.3695  -31.2589 H   0  0  0  0  0  0  0  0  0  0  0  0
   -9.0668   20.9816  -32.5474 H   0  0  0  0  0  0  0  0  0  0  0  0
   -8.1243   18.8902  -33.5018 H   0  0  0  0  0  0  0  0  0  0  0  0
   -5.9285   16.9576  -32.0156 H   0  0  0  0  0  0  0  0  0  0  0  0
   -6.9312   16.8048  -33.4981 H   0  0  0  0  0  0  0  0  0  0  0  0
   -5.2329   16.2195  -33.4981 H   0  0  0  0  0  0  0  0  0  0  0  0
   -4.2466   17.3480  -34.9565 H   0  0  0  0  0  0  0  0  0  0  0  0
   -4.6374   19.0606  -35.3081 H   0  0  0  0  0  0  0  0  0  0  0  0
   -2.7190   20.5070  -34.9670 H   0  0  0  0  0  0  0  0  0  0  0  0
   -1.4859   20.6218  -32.4215 H   0  0  0  0  0  0  0  0  0  0  0  0
   -0.6196   19.2806  -33.2742 H   0  0  0  0  0  0  0  0  0  0  0  0
   -4.2113   20.2685  -32.4590 H   0  0  0  0  0  0  0  0  0  0  0  0
  1  2  1  0
  2  3  1  0
  2  4  1  0
  4  5  2  0
  4  6  1  0
  6  7  1  0
  7  8  1  0
  8  9  1  0
  8 10  2  0
  7 11  2  0
 11 12  1  0
 12 13  2  0
 13 14  1  0
 14 15  2  0
 15 16  1  0
 16 17  1  0
 16 18  1  0
 18 19  1  0
 19 20  2  0
 19 21  1  0
 21 22  1  0
 22 23  1  0
 23 24  3  0
 15 25  1  0
 25 26  2  0
 26  6  1  0
 26 12  1  0
  1 27  1  0
  1 28  1  0
  1 29  1  0
  3 30  1  0
  3 31  1  0
  3 32  1  0
  9 33  1  0
  9 34  1  0
 11 35  1  0
 13 36  1  0
 14 37  1  0
 17 38  1  0
 17 39  1  0
 17 40  1  0
 18 41  1  0
 18 42  1  0
 21 43  1  0
 22 44  1  0
 22 45  1  0
 25 46  1  0
M  END
>  <smiles>  (53) 
CN(C)C(=O)n1c(C(N)=O)cc2ccc(N(C)CC(=O)NCC#N)cc21

>  <score_type>  (53) 
oracle

>  <origin>  (53) 
adg

>  <m_score__min__energy>  (53) 
-8.8699999999999992

>  <m_primary>  (53) 
energy

$$$$
55:0
     RDKit          3D

 48 50  0  0  1  0  0  0  0  0999 V2000
    0.2280   21.8390  -35.0310 C   0  0  0  0  0  0  0  0  0  0  0  0
   -0.4160   20.5380  -34.5840 C   0  0  0  0  0  0  0  0  0  0  0  0
   -1.4330   20.6810  -33.7840 C   0  0  0  0  0  0  0  0  0  0  0  0
   -2.1690   19.5780  -33.2590 C   0  0  0  0  0  0  0  0  0  0  0  0
   -1.6210   18.8200  -32.4260 O   0  0  0  0  0  0  0  0  0  0  0  0
   -3.5090   19.2320  -33.6030 N   0  0  0  0  0  0  0  0  0  0  0  0
   -3.9590   18.1830  -34.2960 C   0  0  0  0  0  0  0  0  0  0  0  0
   -3.3250   17.2150  -35.1600 C   0  0  0  0  0  0  0  0  0  0  0  0
   -1.8730   17.1970  -35.2220 N   0  0  0  0  0  0  0  0  0  0  0  0
   -3.8770   16.3640  -35.8870 O   0  0  0  0  0  0  0  0  0  0  0  0
   -5.3660   18.2120  -34.1960 C   0  0  0  0  0  0  0  0  0  0  0  0
   -5.7510   19.2830  -33.4470 C   0  0  0  0  0  0  0  0  0  0  0  0
   -6.9990   19.7310  -33.0750 C   0  0  0  0  0  0  0  0  0  0  0  0
   -7.1050   20.8670  -32.2990 C   0  0  0  0  0  0  0  0  0  0  0  0
   -5.9770   21.5220  -31.9160 C   0  0  0  0  0  0  0  0  0  0  0  0
   -6.0620   22.6890  -31.1220 N   0  0  0  0  0  0  0  0  0  0  0  0
   -6.4890   23.9640  -31.7350 C   0  0  0  0  0  0  0  0  0  0  0  0
   -6.2600   25.0760  -30.7290 C   0  0  0  0  0  0  0  0  0  0  0  0
   -4.9240   25.0130  -30.0540 C   0  0  0  0  0  0  0  0  0  0  0  0
   -3.9030   25.5940  -30.8320 O   0  0  0  0  0  0  0  0  0  0  0  0
   -4.5300   23.6290  -29.5890 C   0  0  0  0  0  0  0  0  0  0  0  0
   -5.7570   22.7490  -29.7160 C   0  0  0  0  0  0  0  0  0  0  0  0
   -4.7270   21.0460  -32.3070 C   0  0  0  0  0  0  0  0  0  0  0  0
   -4.5820   19.9170  -33.0820 C   0  0  0  0  0  0  0  0  0  0  0  0
    0.1650   19.3340  -35.0750 C   0  0  0  0  0  0  0  0  0  0  0  0
    0.6900   19.4290  -36.2590 O   0  0  0  0  0  0  0  0  0  0  0  0
    0.2890   18.0790  -34.5540 O   0  0  0  0  0  0  0  0  0  0  0  0
    0.5189   22.4266  -34.1477 H   0  0  0  0  0  0  0  0  0  0  0  0
    1.1207   21.6179  -35.6345 H   0  0  0  0  0  0  0  0  0  0  0  0
   -0.4892   22.4147  -35.6345 H   0  0  0  0  0  0  0  0  0  0  0  0
   -1.7385   21.6988  -33.5001 H   0  0  0  0  0  0  0  0  0  0  0  0
   -1.4170   16.6370  -34.4670 H   0  0  0  0  0  0  0  0  0  0  0  0
   -1.3590   17.7080  -35.9670 H   0  0  0  0  0  0  0  0  0  0  0  0
   -6.0487   17.4808  -34.6534 H   0  0  0  0  0  0  0  0  0  0  0  0
   -7.9018   19.1890  -33.3931 H   0  0  0  0  0  0  0  0  0  0  0  0
   -8.0937   21.2394  -31.9929 H   0  0  0  0  0  0  0  0  0  0  0  0
   -5.8986   24.1564  -32.6430 H   0  0  0  0  0  0  0  0  0  0  0  0
   -7.5529   23.9148  -32.0101 H   0  0  0  0  0  0  0  0  0  0  0  0
   -6.3390   26.0399  -31.2531 H   0  0  0  0  0  0  0  0  0  0  0  0
   -7.0220   24.9608  -29.9441 H   0  0  0  0  0  0  0  0  0  0  0  0
   -5.0464   25.6169  -29.1428 H   0  0  0  0  0  0  0  0  0  0  0  0
   -3.4630   24.9220  -31.4040 H   0  0  0  0  0  0  0  0  0  0  0  0
   -3.7177   23.2367  -30.2185 H   0  0  0  0  0  0  0  0  0  0  0  0
   -4.1719   23.6530  -28.5492 H   0  0  0  0  0  0  0  0  0  0  0  0
   -5.5461   21.7416  -29.3279 H   0  0  0  0  0  0  0  0  0  0  0  0
   -6.6020   23.1521  -29.1385 H   0  0  0  0  0  0  0  0  0  0  0  0
   -3.8265   21.5900  -31.9860 H   0  0  0  0  0  0  0  0  0  0  0  0
   -0.1380   17.7690  -33.7020 H   0  0  0  0  0  0  0  0  0  0  0  0
  1  2  1  0
  2  3  2  0
  3  4  1  0
  4  5  2  0
  4  6  1  0
  6  7  1  0
  7  8  1  0
  8  9  1  0
  8 10  2  0
  7 11  2  0
 11 12  1  0
 12 13  2  0
 13 14  1  0
 14 15  2  0
 15 16  1  0
 16 17  1  0
 17 18  1  0
 18 19  1  0
 19 20  1  0
 19 21  1  0
 21 22  1  0
 15 23  1  0
 23 24  2  0
  2 25  1  0
 25 26  2  0
 25 27  1  0
 24  6  1  0
 24 12  1  0
 22 16  1  0
  1 28  1  0
  1 29  1  0
  1 30  1  0
  3 31  1  0
  9 32  1  0
  9 33  1  0
 11 34  1  0
 13 35  1  0
 14 36  1  0
 17 37  1  0
 17 38  1  0
 18 39  1  0
 18 40  1  0
 19 41  1  0
 20 42  1  0
 21 43  1  0
 21 44  1  0
 22 45  1  0
 22 46  1  0
 23 47  1  0
 27 48  1  0
M  END
>  <smiles>  (54) 
CC(=CC(=O)n1c(C(N)=O)cc2ccc(N3CCC(O)CC3)cc21)C(=O)O

>  <score_type>  (54) 
oracle

>  <origin>  (54) 
adg

>  <m_score__min__energy>  (54) 
-9.75

>  <m_primary>  (54) 
energy

$$$$
56:0
     RDKit          3D

 50 51  0  0  1  0  0  0  0  0999 V2000
   -3.7490   21.6370  -29.3340 C   0  0  0  0  0  0  0  0  0  0  0  0
   -3.2750   22.8130  -30.2660 C   0  0  2  0  0  0  0  0  0  0  0  0
   -3.4860   23.9840  -29.3780 C   0  0  0  0  0  0  0  0  0  0  0  0
   -4.2470   23.9980  -28.3860 O   0  0  0  0  0  0  0  0  0  0  0  0
   -2.7710   25.1410  -29.6990 O   0  0  0  0  0  0  0  0  0  0  0  0
   -4.2770   22.7640  -31.3570 C   0  0  0  0  0  0  0  0  0  0  0  0
   -3.7290   22.5330  -32.5010 O   0  0  0  0  0  0  0  0  0  0  0  0
   -5.6560   22.9310  -31.2740 N   0  0  0  0  0  0  0  0  0  0  0  0
   -6.2820   24.0380  -30.7960 C   0  0  0  0  0  0  0  0  0  0  0  0
   -5.8250   25.3180  -30.3410 C   0  0  0  0  0  0  0  0  0  0  0  0
   -6.0830   25.9750  -29.1180 N   0  0  0  0  0  0  0  0  0  0  0  0
   -5.0550   26.0220  -31.1200 O   0  0  0  0  0  0  0  0  0  0  0  0
   -7.6660   23.7490  -30.8470 C   0  0  0  0  0  0  0  0  0  0  0  0
   -7.8630   22.5050  -31.3430 C   0  0  0  0  0  0  0  0  0  0  0  0
   -9.0190   21.7930  -31.5730 C   0  0  0  0  0  0  0  0  0  0  0  0
   -8.9650   20.5280  -32.0820 C   0  0  0  0  0  0  0  0  0  0  0  0
   -7.7370   19.9890  -32.3580 C   0  0  0  0  0  0  0  0  0  0  0  0
   -7.6420   18.6740  -32.8900 N   0  0  0  0  0  0  0  0  0  0  0  0
   -6.8900   17.6670  -32.1870 C   0  0  0  0  0  0  0  0  0  0  0  0
   -5.6740   17.2810  -33.0040 C   0  0  0  0  0  0  0  0  0  0  0  0
   -5.4880   18.1840  -34.1810 C   0  0  0  0  0  0  0  0  0  0  0  0
   -4.1280   18.5810  -34.4090 N   0  0  0  0  0  0  0  0  0  0  0  0
   -3.6950   19.5700  -33.4710 C   0  0  0  0  0  0  0  0  0  0  0  0
   -3.2120   17.4730  -34.5330 C   0  0  0  0  0  0  0  0  0  0  0  0
   -6.5760   20.7210  -32.1210 C   0  0  0  0  0  0  0  0  0  0  0  0
   -6.5960   21.9990  -31.6090 C   0  0  0  0  0  0  0  0  0  0  0  0
   -3.6298   21.9327  -28.2812 H   0  0  0  0  0  0  0  0  0  0  0  0
   -4.8073   21.4139  -29.5346 H   0  0  0  0  0  0  0  0  0  0  0  0
   -3.1412   20.7424  -29.5346 H   0  0  0  0  0  0  0  0  0  0  0  0
   -2.2558   22.8054  -30.6796 H   0  0  0  0  0  0  0  0  0  0  0  0
   -3.0570   25.6740  -30.5090 H   0  0  0  0  0  0  0  0  0  0  0  0
   -6.7610   26.7890  -29.1650 H   0  0  0  0  0  0  0  0  0  0  0  0
   -5.6470   25.7180  -28.2030 H   0  0  0  0  0  0  0  0  0  0  0  0
   -8.4653   24.4350  -30.5299 H   0  0  0  0  0  0  0  0  0  0  0  0
   -9.9942   22.2478  -31.3445 H   0  0  0  0  0  0  0  0  0  0  0  0
   -9.8858   19.9552  -32.2661 H   0  0  0  0  0  0  0  0  0  0  0  0
   -8.1180   18.4410  -33.7850 H   0  0  0  0  0  0  0  0  0  0  0  0
   -6.5665   18.0641  -31.2135 H   0  0  0  0  0  0  0  0  0  0  0  0
   -7.5223   16.7806  -32.0302 H   0  0  0  0  0  0  0  0  0  0  0  0
   -4.7812   17.3411  -32.3642 H   0  0  0  0  0  0  0  0  0  0  0  0
   -5.8235   16.2574  -33.3779 H   0  0  0  0  0  0  0  0  0  0  0  0
   -5.8494   17.6601  -35.0782 H   0  0  0  0  0  0  0  0  0  0  0  0
   -6.0537   19.1028  -33.9669 H   0  0  0  0  0  0  0  0  0  0  0  0
   -3.8568   19.2005  -32.4476 H   0  0  0  0  0  0  0  0  0  0  0  0
   -2.6248   19.7749  -33.6220 H   0  0  0  0  0  0  0  0  0  0  0  0
   -4.2703   20.4953  -33.6220 H   0  0  0  0  0  0  0  0  0  0  0  0
   -2.9225   17.1228  -33.5313 H   0  0  0  0  0  0  0  0  0  0  0  0
   -3.6998   16.6535  -35.0811 H   0  0  0  0  0  0  0  0  0  0  0  0
   -2.3154   17.7981  -35.0811 H   0  0  0  0  0  0  0  0  0  0  0  0
   -5.6045   20.2598  -32.3520 H   0  0  0  0  0  0  0  0  0  0  0  0
  1  2  1  0
  2  3  1  0
  3  4  2  0
  3  5  1  0
  2  6  1  0
  6  7  2  0
  6  8  1  0
  8  9  1  0
  9 10  1  0
 10 11  1  0
 10 12  2  0
  9 13  2  0
 13 14  1  0
 14 15  2  0
 15 16  1  0
 16 17  2  0
 17 18  1  0
 18 19  1  0
 19 20  1  0
 20 21  1  0
 21 22  1  0
 22 23  1  0
 22 24  1  0
 17 25  1  0
 25 26  2  0
 26  8  1  0
 26 14  1  0
  1 27  1  0
  1 28  1  0
  1 29  1  0
  2 30  1  6
  5 31  1  0
 11 32  1  0
 11 33  1  0
 13 34  1  0
 15 35  1  0
 16 36  1  0
 18 37  1  0
 19 38  1  0
 19 39  1  0
 20 40  1  0
 20 41  1  0
 21 42  1  0
 21 43  1  0
 23 44  1  0
 23 45  1  0
 23 46  1  0
 24 47  1  0
 24 48  1  0
 24 49  1  0
 25 50  1  0
M  END
>  <smiles>  (55) 
CC(C(=O)O)C(=O)n1c(C(N)=O)cc2ccc(NCCCN(C)C)cc21

>  <score_type>  (55) 
oracle

>  <origin>  (55) 
adg

>  <m_score__min__energy>  (55) 
-9.3000000000000007

>  <m_primary>  (55) 
energy

$$$$
57:0
     RDKit          3D

 38 40  0  0  0  0  0  0  0  0999 V2000
   -3.9330   22.5060  -27.5410 C   0  0  0  0  0  0  0  0  0  0  0  0
   -2.8580   23.3200  -28.1700 C   0  0  0  0  0  0  0  0  0  0  0  0
   -2.5860   24.5810  -28.0030 O   0  0  0  0  0  0  0  0  0  0  0  0
   -1.5520   24.8840  -28.7550 C   0  0  0  0  0  0  0  0  0  0  0  0
   -1.0390   26.0420  -28.8180 O   0  0  0  0  0  0  0  0  0  0  0  0
   -1.1650   23.8140  -29.4010 O   0  0  0  0  0  0  0  0  0  0  0  0
   -1.9390   22.8000  -29.0810 C   0  0  0  0  0  0  0  0  0  0  0  0
   -1.8350   21.4320  -29.5860 C   0  0  0  0  0  0  0  0  0  0  0  0
   -2.9440   21.0590  -30.3900 O   0  0  0  0  0  0  0  0  0  0  0  0
   -3.5440   22.0190  -31.2370 C   0  0  0  0  0  0  0  0  0  0  0  0
   -2.7380   22.6360  -31.9640 O   0  0  0  0  0  0  0  0  0  0  0  0
   -4.9460   22.2070  -31.2090 N   0  0  0  0  0  0  0  0  0  0  0  0
   -5.5790   23.3130  -30.7890 C   0  0  0  0  0  0  0  0  0  0  0  0
   -5.0800   24.5660  -30.2750 C   0  0  0  0  0  0  0  0  0  0  0  0
   -5.4230   24.9450  -28.9210 N   0  0  0  0  0  0  0  0  0  0  0  0
   -4.3620   25.3870  -30.8780 O   0  0  0  0  0  0  0  0  0  0  0  0
   -6.9460   23.0420  -30.9430 C   0  0  0  0  0  0  0  0  0  0  0  0
   -7.1150   21.7850  -31.4490 C   0  0  0  0  0  0  0  0  0  0  0  0
   -8.2520   21.0740  -31.7700 C   0  0  0  0  0  0  0  0  0  0  0  0
   -8.1550   19.8010  -32.2740 C   0  0  0  0  0  0  0  0  0  0  0  0
   -6.8940   19.2710  -32.4420 C   0  0  0  0  0  0  0  0  0  0  0  0
   -6.7480   17.8810  -32.9910 C   0  0  0  0  0  0  0  0  0  0  0  0
   -5.7240   17.2210  -32.3350 F   0  0  0  0  0  0  0  0  0  0  0  0
   -7.8890   17.1430  -32.7360 F   0  0  0  0  0  0  0  0  0  0  0  0
   -6.5020   17.9160  -34.3290 F   0  0  0  0  0  0  0  0  0  0  0  0
   -5.7600   19.9900  -32.1180 C   0  0  0  0  0  0  0  0  0  0  0  0
   -5.8360   21.2760  -31.6080 C   0  0  0  0  0  0  0  0  0  0  0  0
   -3.8484   22.5701  -26.4461 H   0  0  0  0  0  0  0  0  0  0  0  0
   -4.9149   22.8891  -27.8559 H   0  0  0  0  0  0  0  0  0  0  0  0
   -3.8305   21.4570  -27.8559 H   0  0  0  0  0  0  0  0  0  0  0  0
   -0.9190   21.3483  -30.1893 H   0  0  0  0  0  0  0  0  0  0  0  0
   -1.8129   20.7578  -28.7171 H   0  0  0  0  0  0  0  0  0  0  0  0
   -4.6270   25.2160  -28.3000 H   0  0  0  0  0  0  0  0  0  0  0  0
   -6.4170   24.9400  -28.6010 H   0  0  0  0  0  0  0  0  0  0  0  0
   -7.7605   23.7379  -30.6935 H   0  0  0  0  0  0  0  0  0  0  0  0
   -9.2422   21.5295  -31.6214 H   0  0  0  0  0  0  0  0  0  0  0  0
   -9.0538   19.2231  -32.5351 H   0  0  0  0  0  0  0  0  0  0  0  0
   -4.7721   19.5302  -32.2686 H   0  0  0  0  0  0  0  0  0  0  0  0
  1  2  1  0
  2  3  1  0
  3  4  1  0
  4  5  2  0
  4  6  1  0
  6  7  1  0
  7  8  1  0
  8  9  1  0
  9 10  1  0
 10 11  2  0
 10 12  1  0
 12 13  1  0
 13 14  1  0
 14 15  1  0
 14 16  2  0
 13 17  2  0
 17 18  1  0
 18 19  2  0
 19 20  1  0
 20 21  2  0
 21 22  1  0
 22 23  1  0
 22 24  1  0
 22 25  1  0
 21 26  1  0
 26 27  2  0
  7  2  2  0
 27 12  1  0
 27 18  1  0
  1 28  1  0
  1 29  1  0
  1 30  1  0
  8 31  1  0
  8 32  1  0
 15 33  1  0
 15 34  1  0
 17 35  1  0
 19 36  1  0
 20 37  1  0
 26 38  1  0
M  END
>  <smiles>  (56) 
Cc1oc(=O)oc1COC(=O)n1c(C(N)=O)cc2ccc(C(F)(F)F)cc21

>  <score_type>  (56) 
oracle

>  <origin>  (56) 
adg

>  <m_score__min__energy>  (56) 
-8.6699999999999999

>  <m_primary>  (56) 
energy

$$$$
58:0
     RDKit          3D

 43 44  0  0  0  0  0  0  0  0999 V2000
   -0.8870   26.1920  -27.9440 C   0  0  0  0  0  0  0  0  0  0  0  0
   -1.4600   25.4790  -29.0160 O   0  0  0  0  0  0  0  0  0  0  0  0
   -1.7700   24.1180  -28.8900 C   0  0  0  0  0  0  0  0  0  0  0  0
   -2.7850   23.7530  -28.2420 O   0  0  0  0  0  0  0  0  0  0  0  0
   -0.8400   23.1720  -29.5590 C   0  0  0  0  0  0  0  0  0  0  0  0
   -1.6020   22.0430  -30.0460 N   0  0  0  0  0  0  0  0  0  0  0  0
   -0.9920   21.0210  -30.8140 C   0  0  0  0  0  0  0  0  0  0  0  0
    0.2380   21.0730  -31.0920 O   0  0  0  0  0  0  0  0  0  0  0  0
   -1.7800   19.9770  -31.2420 O   0  0  0  0  0  0  0  0  0  0  0  0
   -3.0920   20.1520  -31.6690 C   0  0  0  0  0  0  0  0  0  0  0  0
   -3.8470   21.0070  -30.8370 O   0  0  0  0  0  0  0  0  0  0  0  0
   -4.3220   22.2320  -31.2080 C   0  0  0  0  0  0  0  0  0  0  0  0
   -3.4310   23.0700  -31.5940 O   0  0  0  0  0  0  0  0  0  0  0  0
   -5.6790   22.6410  -31.2010 N   0  0  0  0  0  0  0  0  0  0  0  0
   -6.1650   23.8480  -30.8830 C   0  0  0  0  0  0  0  0  0  0  0  0
   -5.4990   25.0640  -30.4640 C   0  0  0  0  0  0  0  0  0  0  0  0
   -4.0720   25.0870  -30.3580 N   0  0  0  0  0  0  0  0  0  0  0  0
   -6.0700   26.1420  -30.1730 O   0  0  0  0  0  0  0  0  0  0  0  0
   -7.5570   23.7800  -31.0220 C   0  0  0  0  0  0  0  0  0  0  0  0
   -7.9070   22.5140  -31.4290 C   0  0  0  0  0  0  0  0  0  0  0  0
   -9.1370   21.9480  -31.7030 C   0  0  0  0  0  0  0  0  0  0  0  0
   -9.2010   20.6300  -32.1010 C   0  0  0  0  0  0  0  0  0  0  0  0
   -8.0380   19.9020  -32.2180 C   0  0  0  0  0  0  0  0  0  0  0  0
   -8.0940   18.4790  -32.6460 C   0  0  0  0  0  0  0  0  0  0  0  0
   -6.8160   20.5020  -31.9350 C   0  0  0  0  0  0  0  0  0  0  0  0
   -6.7190   21.8230  -31.5330 C   0  0  0  0  0  0  0  0  0  0  0  0
   -1.2321   25.7626  -26.9919 H   0  0  0  0  0  0  0  0  0  0  0  0
    0.2093   26.1224  -28.0017 H   0  0  0  0  0  0  0  0  0  0  0  0
   -1.1909   27.2476  -28.0017 H   0  0  0  0  0  0  0  0  0  0  0  0
   -0.3427   23.6747  -30.4016 H   0  0  0  0  0  0  0  0  0  0  0  0
   -0.0749   22.8299  -28.8466 H   0  0  0  0  0  0  0  0  0  0  0  0
   -2.6170   21.9830  -29.8260 H   0  0  0  0  0  0  0  0  0  0  0  0
   -3.0740   20.5795  -32.6824 H   0  0  0  0  0  0  0  0  0  0  0  0
   -3.5753   19.1643  -31.6407 H   0  0  0  0  0  0  0  0  0  0  0  0
   -3.5930   25.2670  -29.4340 H   0  0  0  0  0  0  0  0  0  0  0  0
   -3.5130   24.9190  -31.2200 H   0  0  0  0  0  0  0  0  0  0  0  0
   -8.2580   24.6069  -30.8355 H   0  0  0  0  0  0  0  0  0  0  0  0
  -10.0566   22.5435  -31.6045 H   0  0  0  0  0  0  0  0  0  0  0  0
  -10.1723   20.1639  -32.3232 H   0  0  0  0  0  0  0  0  0  0  0  0
   -8.1195   17.8299  -31.7583 H   0  0  0  0  0  0  0  0  0  0  0  0
   -8.9994   18.3126  -33.2481 H   0  0  0  0  0  0  0  0  0  0  0  0
   -7.2045   18.2419  -33.2481 H   0  0  0  0  0  0  0  0  0  0  0  0
   -5.8959   19.9072  -32.0338 H   0  0  0  0  0  0  0  0  0  0  0  0
  1  2  1  0
  2  3  1  0
  3  4  2  0
  3  5  1  0
  5  6  1  0
  6  7  1  0
  7  8  2  0
  7  9  1  0
  9 10  1  0
 10 11  1  0
 11 12  1  0
 12 13  2  0
 12 14  1  0
 14 15  1  0
 15 16  1  0
 16 17  1  0
 16 18  2  0
 15 19  2  0
 19 20  1  0
 20 21  2  0
 21 22  1  0
 22 23  2  0
 23 24  1  0
 23 25  1  0
 25 26  2  0
 26 14  1  0
 26 20  1  0
  1 27  1  0
  1 28  1  0
  1 29  1  0
  5 30  1  0
  5 31  1  0
  6 32  1  0
 10 33  1  0
 10 34  1  0
 17 35  1  0
 17 36  1  0
 19 37  1  0
 21 38  1  0
 22 39  1  0
 24 40  1  0
 24 41  1  0
 24 42  1  0
 25 43  1  0
M  END
>  <smiles>  (57) 
COC(=O)CNC(=O)OCOC(=O)n1c(C(N)=O)cc2ccc(C)cc21

>  <score_type>  (57) 
oracle

>  <origin>  (57) 
adg

>  <m_score__min__energy>  (57) 
-7.5199999999999996

>  <m_primary>  (57) 
energy

$$$$
59:0
     RDKit          3D

 38 39  0  0  0  0  0  0  0  0999 V2000
   -3.9470   24.9200  -26.4190 C   0  0  0  0  0  0  0  0  0  0  0  0
   -4.2200   24.5160  -27.7390 O   0  0  0  0  0  0  0  0  0  0  0  0
   -3.3430   23.7680  -28.5110 C   0  0  0  0  0  0  0  0  0  0  0  0
   -2.4470   24.3500  -29.1720 O   0  0  0  0  0  0  0  0  0  0  0  0
   -3.5300   22.2930  -28.5020 C   0  0  0  0  0  0  0  0  0  0  0  0
   -3.4750   21.7150  -29.7700 O   0  0  0  0  0  0  0  0  0  0  0  0
   -4.0530   22.3720  -30.8330 C   0  0  0  0  0  0  0  0  0  0  0  0
   -3.2480   22.6600  -31.7840 O   0  0  0  0  0  0  0  0  0  0  0  0
   -5.4190   22.7320  -30.9370 N   0  0  0  0  0  0  0  0  0  0  0  0
   -5.9590   23.9320  -30.7350 C   0  0  0  0  0  0  0  0  0  0  0  0
   -5.3570   25.2000  -30.3630 C   0  0  0  0  0  0  0  0  0  0  0  0
   -5.9900   26.0020  -29.3360 N   0  0  0  0  0  0  0  0  0  0  0  0
   -4.3230   25.6920  -30.8420 O   0  0  0  0  0  0  0  0  0  0  0  0
   -7.3390   23.7990  -30.9540 C   0  0  0  0  0  0  0  0  0  0  0  0
   -7.6100   22.5070  -31.2880 C   0  0  0  0  0  0  0  0  0  0  0  0
   -8.7950   21.8720  -31.5940 C   0  0  0  0  0  0  0  0  0  0  0  0
   -8.8040   20.5340  -31.9030 C   0  0  0  0  0  0  0  0  0  0  0  0
   -7.6080   19.8490  -31.8970 C   0  0  0  0  0  0  0  0  0  0  0  0
   -7.5920   18.4040  -32.2260 C   0  0  0  0  0  0  0  0  0  0  0  0
   -6.5350   17.7110  -31.3990 C   0  0  0  0  0  0  0  0  0  0  0  0
   -8.8000   17.7930  -31.9260 F   0  0  0  0  0  0  0  0  0  0  0  0
   -7.2360   18.1940  -33.5620 F   0  0  0  0  0  0  0  0  0  0  0  0
   -6.4280   20.5040  -31.5850 C   0  0  0  0  0  0  0  0  0  0  0  0
   -6.3880   21.8540  -31.2700 C   0  0  0  0  0  0  0  0  0  0  0  0
   -4.4206   24.2192  -25.7157 H   0  0  0  0  0  0  0  0  0  0  0  0
   -2.8593   24.9254  -26.2547 H   0  0  0  0  0  0  0  0  0  0  0  0
   -4.3477   25.9312  -26.2547 H   0  0  0  0  0  0  0  0  0  0  0  0
   -2.7392   21.8461  -27.8816 H   0  0  0  0  0  0  0  0  0  0  0  0
   -4.5361   22.0981  -28.1023 H   0  0  0  0  0  0  0  0  0  0  0  0
   -5.7830   25.8690  -28.3330 H   0  0  0  0  0  0  0  0  0  0  0  0
   -6.6810   26.7400  -29.6640 H   0  0  0  0  0  0  0  0  0  0  0  0
   -8.0808   24.6069  -30.8696 H   0  0  0  0  0  0  0  0  0  0  0  0
   -9.7372   22.4396  -31.5906 H   0  0  0  0  0  0  0  0  0  0  0  0
   -9.7449   20.0203  -32.1498 H   0  0  0  0  0  0  0  0  0  0  0  0
   -6.7533   17.8541  -30.3304 H   0  0  0  0  0  0  0  0  0  0  0  0
   -6.5334   16.6360  -31.6322 H   0  0  0  0  0  0  0  0  0  0  0  0
   -5.5485   18.1382  -31.6322 H   0  0  0  0  0  0  0  0  0  0  0  0
   -5.4882   19.9324  -31.5872 H   0  0  0  0  0  0  0  0  0  0  0  0
  1  2  1  0
  2  3  1  0
  3  4  2  0
  3  5  1  0
  5  6  1  0
  6  7  1  0
  7  8  2  0
  7  9  1  0
  9 10  1  0
 10 11  1  0
 11 12  1  0
 11 13  2  0
 10 14  2  0
 14 15  1  0
 15 16  2  0
 16 17  1  0
 17 18  2  0
 18 19  1  0
 19 20  1  0
 19 21  1  0
 19 22  1  0
 18 23  1  0
 23 24  2  0
 24  9  1  0
 24 15  1  0
  1 25  1  0
  1 26  1  0
  1 27  1  0
  5 28  1  0
  5 29  1  0
 12 30  1  0
 12 31  1  0
 14 32  1  0
 16 33  1  0
 17 34  1  0
 20 35  1  0
 20 36  1  0
 20 37  1  0
 23 38  1  0
M  END
>  <smiles>  (58) 
COC(=O)COC(=O)n1c(C(N)=O)cc2ccc(C(C)(F)F)cc21

>  <score_type>  (58) 
oracle

>  <origin>  (58) 
adg

>  <m_score__min__energy>  (58) 
-8.0199999999999996

>  <m_primary>  (58) 
energy

$$$$
60:0
     RDKit          3D

 39 40  0  0  0  0  0  0  0  0999 V2000
   -2.7550   19.4590  -33.2220 C   0  0  0  0  0  0  0  0  0  0  0  0
   -3.6760   18.3930  -33.3380 O   0  0  0  0  0  0  0  0  0  0  0  0
   -4.3180   18.0980  -34.5440 C   0  0  0  0  0  0  0  0  0  0  0  0
   -3.7450   17.3820  -35.4280 O   0  0  0  0  0  0  0  0  0  0  0  0
   -5.7030   18.6390  -34.7900 C   0  0  0  0  0  0  0  0  0  0  0  0
   -6.4970   18.5440  -33.5860 N   0  0  0  0  0  0  0  0  0  0  0  0
   -6.8550   17.2230  -33.1080 C   0  0  0  0  0  0  0  0  0  0  0  0
   -6.9330   19.7020  -32.8530 C   0  0  0  0  0  0  0  0  0  0  0  0
   -8.2620   19.9500  -32.6220 C   0  0  0  0  0  0  0  0  0  0  0  0
   -8.5950   21.0800  -31.9120 C   0  0  0  0  0  0  0  0  0  0  0  0
   -7.6170   21.9250  -31.4550 C   0  0  0  0  0  0  0  0  0  0  0  0
   -7.7050   23.0870  -30.7640 C   0  0  0  0  0  0  0  0  0  0  0  0
   -6.4100   23.6030  -30.5370 C   0  0  0  0  0  0  0  0  0  0  0  0
   -6.2480   24.8350  -29.8030 C   0  0  0  0  0  0  0  0  0  0  0  0
   -5.3220   24.8910  -28.6710 N   0  0  0  0  0  0  0  0  0  0  0  0
   -6.8140   25.9320  -30.0010 O   0  0  0  0  0  0  0  0  0  0  0  0
   -5.5330   22.7280  -31.1090 N   0  0  0  0  0  0  0  0  0  0  0  0
   -4.1540   22.9510  -31.1490 C   0  0  0  0  0  0  0  0  0  0  0  0
   -3.5400   22.1840  -32.0090 O   0  0  0  0  0  0  0  0  0  0  0  0
   -3.2750   23.8340  -30.4610 C   0  0  0  0  0  0  0  0  0  0  0  0
   -2.3150   23.6250  -29.7040 O   0  0  0  0  0  0  0  0  0  0  0  0
   -3.5010   25.2470  -30.6470 O   0  0  0  0  0  0  0  0  0  0  0  0
   -6.2590   21.7110  -31.6660 C   0  0  0  0  0  0  0  0  0  0  0  0
   -5.9620   20.5780  -32.3770 C   0  0  0  0  0  0  0  0  0  0  0  0
   -2.5717   19.6711  -32.1583 H   0  0  0  0  0  0  0  0  0  0  0  0
   -1.8086   19.1805  -33.7087 H   0  0  0  0  0  0  0  0  0  0  0  0
   -3.1679   20.3549  -33.7087 H   0  0  0  0  0  0  0  0  0  0  0  0
   -5.6322   19.6931  -35.0964 H   0  0  0  0  0  0  0  0  0  0  0  0
   -6.1832   18.0485  -35.5842 H   0  0  0  0  0  0  0  0  0  0  0  0
   -6.8561   17.2189  -32.0080 H   0  0  0  0  0  0  0  0  0  0  0  0
   -7.8571   16.9588  -33.4767 H   0  0  0  0  0  0  0  0  0  0  0  0
   -6.1234   16.4889  -33.4767 H   0  0  0  0  0  0  0  0  0  0  0  0
   -9.0387   19.2654  -32.9936 H   0  0  0  0  0  0  0  0  0  0  0  0
   -9.6521   21.3070  -31.7097 H   0  0  0  0  0  0  0  0  0  0  0  0
   -8.6420   23.5569  -30.4306 H   0  0  0  0  0  0  0  0  0  0  0  0
   -4.3410   25.1620  -28.9090 H   0  0  0  0  0  0  0  0  0  0  0  0
   -5.6570   24.6720  -27.7080 H   0  0  0  0  0  0  0  0  0  0  0  0
   -3.7090   25.6010  -31.5930 H   0  0  0  0  0  0  0  0  0  0  0  0
   -4.9055   20.3499  -32.5813 H   0  0  0  0  0  0  0  0  0  0  0  0
  1  2  1  0
  2  3  1  0
  3  4  2  0
  3  5  1  0
  5  6  1  0
  6  7  1  0
  6  8  1  0
  8  9  2  0
  9 10  1  0
 10 11  2  0
 11 12  1  0
 12 13  2  0
 13 14  1  0
 14 15  1  0
 14 16  2  0
 13 17  1  0
 17 18  1  0
 18 19  2  0
 18 20  1  0
 20 21  2  0
 20 22  1  0
 17 23  1  0
 23 24  2  0
 24  8  1  0
 23 11  1  0
  1 25  1  0
  1 26  1  0
  1 27  1  0
  5 28  1  0
  5 29  1  0
  7 30  1  0
  7 31  1  0
  7 32  1  0
  9 33  1  0
 10 34  1  0
 12 35  1  0
 15 36  1  0
 15 37  1  0
 22 38  1  0
 24 39  1  0
M  END
>  <smiles>  (59) 
COC(=O)CN(C)c1ccc2cc(C(N)=O)n(C(=O)C(=O)O)c2c1

>  <score_type>  (59) 
oracle

>  <origin>  (59) 
adg

>  <m_score__min__energy>  (59) 
-7.96

>  <m_primary>  (59) 
energy

$$$$
61:0
     RDKit          3D

 44 45  0  0  0  0  0  0  0  0999 V2000
   -5.0990   17.9490  -34.5160 C   0  0  0  0  0  0  0  0  0  0  0  0
   -5.5770   18.8320  -33.8760 C   0  0  0  0  0  0  0  0  0  0  0  0
   -6.1610   19.9030  -33.1220 C   0  0  0  0  0  0  0  0  0  0  0  0
   -7.5360   19.9650  -33.0420 C   0  0  0  0  0  0  0  0  0  0  0  0
   -8.1210   20.9840  -32.3250 C   0  0  0  0  0  0  0  0  0  0  0  0
   -7.3150   21.9270  -31.6980 C   0  0  0  0  0  0  0  0  0  0  0  0
   -7.6380   23.0120  -30.9420 C   0  0  0  0  0  0  0  0  0  0  0  0
   -6.4600   23.6530  -30.5340 C   0  0  0  0  0  0  0  0  0  0  0  0
   -6.4760   24.8450  -29.7120 C   0  0  0  0  0  0  0  0  0  0  0  0
   -5.3460   25.1290  -28.8560 N   0  0  0  0  0  0  0  0  0  0  0  0
   -7.3940   25.6920  -29.6570 O   0  0  0  0  0  0  0  0  0  0  0  0
   -5.4430   22.9500  -31.0450 N   0  0  0  0  0  0  0  0  0  0  0  0
   -4.0570   23.2080  -30.9060 C   0  0  0  0  0  0  0  0  0  0  0  0
   -3.6370   24.4020  -31.0350 O   0  0  0  0  0  0  0  0  0  0  0  0
   -3.0920   22.2690  -30.6390 O   0  0  0  0  0  0  0  0  0  0  0  0
   -2.9420   21.6660  -29.3460 C   0  0  0  0  0  0  0  0  0  0  0  0
   -2.3680   22.5390  -28.4260 O   0  0  0  0  0  0  0  0  0  0  0  0
   -2.9990   23.4940  -27.6720 C   0  0  0  0  0  0  0  0  0  0  0  0
   -4.2490   23.4230  -27.5280 O   0  0  0  0  0  0  0  0  0  0  0  0
   -2.1690   24.5660  -27.0640 C   0  0  0  0  0  0  0  0  0  0  0  0
   -2.9410   25.3200  -25.9960 C   0  0  0  0  0  0  0  0  0  0  0  0
   -0.9980   23.8950  -26.3780 C   0  0  0  0  0  0  0  0  0  0  0  0
   -1.6250   25.5100  -28.1150 C   0  0  0  0  0  0  0  0  0  0  0  0
   -2.2140   25.2840  -29.3370 O   0  0  0  0  0  0  0  0  0  0  0  0
   -5.9420   21.8970  -31.7570 C   0  0  0  0  0  0  0  0  0  0  0  0
   -5.3750   20.8670  -32.4800 C   0  0  0  0  0  0  0  0  0  0  0  0
   -4.6574   17.1333  -35.1072 H   0  0  0  0  0  0  0  0  0  0  0  0
   -8.1577   19.2096  -33.5448 H   0  0  0  0  0  0  0  0  0  0  0  0
   -9.2163   21.0514  -32.2489 H   0  0  0  0  0  0  0  0  0  0  0  0
   -8.6595   23.3341  -30.6915 H   0  0  0  0  0  0  0  0  0  0  0  0
   -5.4800   25.2980  -27.8280 H   0  0  0  0  0  0  0  0  0  0  0  0
   -4.4180   25.1510  -29.3330 H   0  0  0  0  0  0  0  0  0  0  0  0
   -3.9336   21.3641  -28.9779 H   0  0  0  0  0  0  0  0  0  0  0  0
   -2.2750   20.7977  -29.4518 H   0  0  0  0  0  0  0  0  0  0  0  0
   -2.6055   24.9924  -25.0010 H   0  0  0  0  0  0  0  0  0  0  0  0
   -2.7608   26.3995  -26.1066 H   0  0  0  0  0  0  0  0  0  0  0  0
   -4.0159   25.1144  -26.1066 H   0  0  0  0  0  0  0  0  0  0  0  0
   -1.1221   23.9661  -25.2873 H   0  0  0  0  0  0  0  0  0  0  0  0
   -0.9571   22.8364  -26.6741 H   0  0  0  0  0  0  0  0  0  0  0  0
   -0.0640   24.3949  -26.6741 H   0  0  0  0  0  0  0  0  0  0  0  0
   -1.8261   26.5463  -27.8056 H   0  0  0  0  0  0  0  0  0  0  0  0
   -0.5428   25.3381  -28.2120 H   0  0  0  0  0  0  0  0  0  0  0  0
   -2.3000   24.3580  -29.6180 H   0  0  0  0  0  0  0  0  0  0  0  0
   -4.2794   20.8022  -32.5534 H   0  0  0  0  0  0  0  0  0  0  0  0
  1  2  3  0
  2  3  1  0
  3  4  2  0
  4  5  1  0
  5  6  2  0
  6  7  1  0
  7  8  2  0
  8  9  1  0
  9 10  1  0
  9 11  2  0
  8 12  1  0
 12 13  1  0
 13 14  2  0
 13 15  1  0
 15 16  1  0
 16 17  1  0
 17 18  1  0
 18 19  2  0
 18 20  1  0
 20 21  1  0
 20 22  1  0
 20 23  1  0
 23 24  1  0
 12 25  1  0
 25 26  2  0
 26  3  1  0
 25  6  1  0
  1 27  1  0
  4 28  1  0
  5 29  1  0
  7 30  1  0
 10 31  1  0
 10 32  1  0
 16 33  1  0
 16 34  1  0
 21 35  1  0
 21 36  1  0
 21 37  1  0
 22 38  1  0
 22 39  1  0
 22 40  1  0
 23 41  1  0
 23 42  1  0
 24 43  1  0
 26 44  1  0
M  END
>  <smiles>  (60) 
C#Cc1ccc2cc(C(N)=O)n(C(=O)OCOC(=O)C(C)(C)CO)c2c1

>  <score_type>  (60) 
oracle

>  <origin>  (60) 
adg

>  <m_score__min__energy>  (60) 
-8.9000000000000004

>  <m_primary>  (60) 
energy

$$$$
62:0
     RDKit          3D

 60 62  0  0  0  0  0  0  0  0999 V2000
   -7.7420   12.8090  -34.8990 C   0  0  0  0  0  0  0  0  0  0  0  0
   -6.7680   13.8460  -34.9650 O   0  0  0  0  0  0  0  0  0  0  0  0
   -6.0680   14.3070  -33.8850 C   0  0  0  0  0  0  0  0  0  0  0  0
   -5.5670   13.4380  -33.0980 O   0  0  0  0  0  0  0  0  0  0  0  0
   -5.9080   15.6990  -33.6500 N   0  0  0  0  0  0  0  0  0  0  0  0
   -6.4920   16.6440  -34.5640 C   0  0  0  0  0  0  0  0  0  0  0  0
   -6.0550   18.0590  -34.2490 C   0  0  0  0  0  0  0  0  0  0  0  0
   -6.1840   18.3790  -32.8410 N   0  0  0  0  0  0  0  0  0  0  0  0
   -6.5110   19.7120  -32.3970 C   0  0  0  0  0  0  0  0  0  0  0  0
   -7.6890   20.2990  -32.7990 C   0  0  0  0  0  0  0  0  0  0  0  0
   -7.9800   21.5680  -32.3570 C   0  0  0  0  0  0  0  0  0  0  0  0
   -7.0840   22.2280  -31.5190 C   0  0  0  0  0  0  0  0  0  0  0  0
   -7.1690   23.4560  -30.9790 C   0  0  0  0  0  0  0  0  0  0  0  0
   -6.0030   23.6340  -30.2150 C   0  0  0  0  0  0  0  0  0  0  0  0
   -5.8660   24.8630  -29.4360 C   0  0  0  0  0  0  0  0  0  0  0  0
   -4.9880   24.8930  -28.2920 N   0  0  0  0  0  0  0  0  0  0  0  0
   -6.4610   25.9350  -29.6710 O   0  0  0  0  0  0  0  0  0  0  0  0
   -5.2160   22.5570  -30.2820 N   0  0  0  0  0  0  0  0  0  0  0  0
   -3.9010   22.2880  -29.9020 C   0  0  0  0  0  0  0  0  0  0  0  0
   -3.7270   22.2670  -28.5980 O   0  0  0  0  0  0  0  0  0  0  0  0
   -2.7200   22.0230  -30.5930 N   0  0  0  0  0  0  0  0  0  0  0  0
   -2.4270   21.0140  -31.5850 C   0  0  0  0  0  0  0  0  0  0  0  0
   -1.5730   22.9140  -30.3140 C   0  0  0  0  0  0  0  0  0  0  0  0
   -1.8360   23.9170  -29.3130 C   0  0  0  0  0  0  0  0  0  0  0  0
   -2.6230   24.8880  -29.7100 O   0  0  0  0  0  0  0  0  0  0  0  0
   -1.4180   24.0680  -27.9820 N   0  0  0  0  0  0  0  0  0  0  0  0
   -1.9450   25.2950  -27.3170 C   0  0  0  0  0  0  0  0  0  0  0  0
   -0.5850   23.2270  -27.1990 C   0  0  0  0  0  0  0  0  0  0  0  0
   -5.9030   21.6760  -31.1000 C   0  0  0  0  0  0  0  0  0  0  0  0
   -5.6330   20.3970  -31.5590 C   0  0  0  0  0  0  0  0  0  0  0  0
   -5.9730   17.3420  -31.8540 C   0  0  0  0  0  0  0  0  0  0  0  0
   -5.1760   16.2120  -32.5180 C   0  0  0  0  0  0  0  0  0  0  0  0
   -7.9599   12.5771  -33.8460 H   0  0  0  0  0  0  0  0  0  0  0  0
   -8.6639   13.1394  -35.4000 H   0  0  0  0  0  0  0  0  0  0  0  0
   -7.3546   11.9096  -35.4000 H   0  0  0  0  0  0  0  0  0  0  0  0
   -6.1788   16.3922  -35.5879 H   0  0  0  0  0  0  0  0  0  0  0  0
   -7.5863   16.5896  -34.4663 H   0  0  0  0  0  0  0  0  0  0  0  0
   -5.0014   18.1765  -34.5424 H   0  0  0  0  0  0  0  0  0  0  0  0
   -6.7093   18.7435  -34.8088 H   0  0  0  0  0  0  0  0  0  0  0  0
   -8.3847   19.7631  -33.4614 H   0  0  0  0  0  0  0  0  0  0  0  0
   -8.9152   22.0594  -32.6634 H   0  0  0  0  0  0  0  0  0  0  0  0
   -7.9885   24.1782  -31.1092 H   0  0  0  0  0  0  0  0  0  0  0  0
   -4.1280   24.2920  -28.2790 H   0  0  0  0  0  0  0  0  0  0  0  0
   -5.1860   25.5040  -27.4640 H   0  0  0  0  0  0  0  0  0  0  0  0
   -2.1541   20.0742  -31.0826 H   0  0  0  0  0  0  0  0  0  0  0  0
   -3.3144   20.8494  -32.2138 H   0  0  0  0  0  0  0  0  0  0  0  0
   -1.5894   21.3503  -32.2138 H   0  0  0  0  0  0  0  0  0  0  0  0
   -0.7309   22.2954  -29.9701 H   0  0  0  0  0  0  0  0  0  0  0  0
   -1.3531   23.4497  -31.2492 H   0  0  0  0  0  0  0  0  0  0  0  0
   -1.8921   25.1718  -26.2252 H   0  0  0  0  0  0  0  0  0  0  0  0
   -1.3405   26.1634  -27.6177 H   0  0  0  0  0  0  0  0  0  0  0  0
   -2.9910   25.4545  -27.6177 H   0  0  0  0  0  0  0  0  0  0  0  0
   -0.7724   23.4162  -26.1317 H   0  0  0  0  0  0  0  0  0  0  0  0
   -0.8066   22.1744  -27.4292 H   0  0  0  0  0  0  0  0  0  0  0  0
    0.4696   23.4385  -27.4292 H   0  0  0  0  0  0  0  0  0  0  0  0
   -4.6970   19.9071  -31.2526 H   0  0  0  0  0  0  0  0  0  0  0  0
   -5.4076   17.7470  -31.0018 H   0  0  0  0  0  0  0  0  0  0  0  0
   -6.9375   16.9638  -31.4844 H   0  0  0  0  0  0  0  0  0  0  0  0
   -4.2043   16.6005  -32.8569 H   0  0  0  0  0  0  0  0  0  0  0  0
   -5.0176   15.4025  -31.7903 H   0  0  0  0  0  0  0  0  0  0  0  0
  1  2  1  0
  2  3  1  0
  3  4  2  0
  3  5  1  0
  5  6  1  0
  6  7  1  0
  7  8  1  0
  8  9  1  0
  9 10  2  0
 10 11  1  0
 11 12  2  0
 12 13  1  0
 13 14  2  0
 14 15  1  0
 15 16  1  0
 15 17  2  0
 14 18  1  0
 18 19  1  0
 19 20  2  0
 19 21  1  0
 21 22  1  0
 21 23  1  0
 23 24  1  0
 24 25  2  0
 24 26  1  0
 26 27  1  0
 26 28  1  0
 18 29  1  0
 29 30  2  0
  8 31  1  0
 31 32  1  0
 32  5  1  0
 30  9  1  0
 29 12  1  0
  1 33  1  0
  1 34  1  0
  1 35  1  0
  6 36  1  0
  6 37  1  0
  7 38  1  0
  7 39  1  0
 10 40  1  0
 11 41  1  0
 13 42  1  0
 16 43  1  0
 16 44  1  0
 22 45  1  0
 22 46  1  0
 22 47  1  0
 23 48  1  0
 23 49  1  0
 27 50  1  0
 27 51  1  0
 27 52  1  0
 28 53  1  0
 28 54  1  0
 28 55  1  0
 30 56  1  0
 31 57  1  0
 31 58  1  0
 32 59  1  0
 32 60  1  0
M  END
>  <smiles>  (61) 
COC(=O)N1CCN(c2ccc3cc(C(N)=O)n(C(=O)N(C)CC(=O)N(C)C)c3c2)CC1

>  <score_type>  (61) 
oracle

>  <origin>  (61) 
adg

>  <m_score__min__energy>  (61) 
-9.8699999999999992

>  <m_primary>  (61) 
energy

$$$$
63:0
     RDKit          3D

 38 40  0  0  0  0  0  0  0  0999 V2000
   -3.7680   18.8350  -33.7660 C   0  0  0  0  0  0  0  0  0  0  0  0
   -4.9670   17.9700  -33.7300 C   0  0  0  0  0  0  0  0  0  0  0  0
   -5.0590   16.6720  -34.1010 N   0  0  0  0  0  0  0  0  0  0  0  0
   -6.2810   16.2250  -33.9330 N   0  0  0  0  0  0  0  0  0  0  0  0
   -6.8440   14.9070  -34.1920 C   0  0  0  0  0  0  0  0  0  0  0  0
   -7.0320   17.2390  -33.4390 C   0  0  0  0  0  0  0  0  0  0  0  0
   -6.2190   18.3570  -33.3010 C   0  0  0  0  0  0  0  0  0  0  0  0
   -6.6720   19.6490  -32.7970 C   0  0  0  0  0  0  0  0  0  0  0  0
   -8.0160   19.9290  -32.8940 C   0  0  0  0  0  0  0  0  0  0  0  0
   -8.4390   21.1470  -32.4170 C   0  0  0  0  0  0  0  0  0  0  0  0
   -7.5480   22.0400  -31.8690 C   0  0  0  0  0  0  0  0  0  0  0  0
   -7.7470   23.2650  -31.3300 C   0  0  0  0  0  0  0  0  0  0  0  0
   -6.5160   23.7980  -30.8770 C   0  0  0  0  0  0  0  0  0  0  0  0
   -6.4820   25.0970  -30.2800 C   0  0  0  0  0  0  0  0  0  0  0  0
   -5.6690   26.2100  -30.5610 N   0  0  0  0  0  0  0  0  0  0  0  0
   -7.3280   25.3250  -29.3200 O   0  0  0  0  0  0  0  0  0  0  0  0
   -5.5660   22.8510  -31.1600 N   0  0  0  0  0  0  0  0  0  0  0  0
   -4.2340   22.9790  -30.7700 C   0  0  0  0  0  0  0  0  0  0  0  0
   -3.4920   21.9690  -31.1460 O   0  0  0  0  0  0  0  0  0  0  0  0
   -3.5060   23.9660  -30.0490 C   0  0  0  0  0  0  0  0  0  0  0  0
   -2.8510   23.8930  -28.9950 O   0  0  0  0  0  0  0  0  0  0  0  0
   -3.4910   25.3030  -30.5860 O   0  0  0  0  0  0  0  0  0  0  0  0
   -6.1880   21.7910  -31.7580 C   0  0  0  0  0  0  0  0  0  0  0  0
   -5.7890   20.5660  -32.2400 C   0  0  0  0  0  0  0  0  0  0  0  0
   -3.4503   19.0642  -32.7381 H   0  0  0  0  0  0  0  0  0  0  0  0
   -2.9555   18.3137  -34.2933 H   0  0  0  0  0  0  0  0  0  0  0  0
   -4.0064   19.7705  -34.2933 H   0  0  0  0  0  0  0  0  0  0  0  0
   -7.0582   14.4056  -33.2366 H   0  0  0  0  0  0  0  0  0  0  0  0
   -7.7755   15.0128  -34.7675 H   0  0  0  0  0  0  0  0  0  0  0  0
   -6.1236   14.3072  -34.7675 H   0  0  0  0  0  0  0  0  0  0  0  0
   -8.1021   17.1860  -33.1899 H   0  0  0  0  0  0  0  0  0  0  0  0
   -8.7215   19.2091  -33.3343 H   0  0  0  0  0  0  0  0  0  0  0  0
   -9.5053   21.4111  -32.4744 H   0  0  0  0  0  0  0  0  0  0  0  0
   -8.7205   23.7715  -31.2549 H   0  0  0  0  0  0  0  0  0  0  0  0
   -4.9880   26.6350  -29.8680 H   0  0  0  0  0  0  0  0  0  0  0  0
   -5.6860   26.7190  -31.4890 H   0  0  0  0  0  0  0  0  0  0  0  0
   -3.4480   25.4430  -31.5990 H   0  0  0  0  0  0  0  0  0  0  0  0
   -4.7231   20.3004  -32.1819 H   0  0  0  0  0  0  0  0  0  0  0  0
  1  2  1  0
  2  3  2  0
  3  4  1  0
  4  5  1  0
  4  6  1  0
  6  7  2  0
  7  8  1  0
  8  9  2  0
  9 10  1  0
 10 11  2  0
 11 12  1  0
 12 13  2  0
 13 14  1  0
 14 15  1  0
 14 16  2  0
 13 17  1  0
 17 18  1  0
 18 19  2  0
 18 20  1  0
 20 21  2  0
 20 22  1  0
 17 23  1  0
 23 24  2  0
  7  2  1  0
 24  8  1  0
 23 11  1  0
  1 25  1  0
  1 26  1  0
  1 27  1  0
  5 28  1  0
  5 29  1  0
  5 30  1  0
  6 31  1  0
  9 32  1  0
 10 33  1  0
 12 34  1  0
 15 35  1  0
 15 36  1  0
 22 37  1  0
 24 38  1  0
M  END
>  <smiles>  (62) 
Cc1nn(C)cc1-c1ccc2cc(C(N)=O)n(C(=O)C(=O)O)c2c1

>  <score_type>  (62) 
oracle

>  <origin>  (62) 
adg

>  <m_score__min__energy>  (62) 
-9.5

>  <m_primary>  (62) 
energy

$$$$
65:0
     RDKit          3D

 40 41  0  0  0  0  0  0  0  0999 V2000
   -9.1190   21.2340  -31.3460 C   0  0  0  0  0  0  0  0  0  0  0  0
   -8.8420   19.8340  -31.8980 C   0  0  0  0  0  0  0  0  0  0  0  0
   -9.6740   19.5570  -32.9650 F   0  0  0  0  0  0  0  0  0  0  0  0
   -9.0580   18.9470  -30.8640 F   0  0  0  0  0  0  0  0  0  0  0  0
   -7.4150   19.7830  -32.3160 C   0  0  0  0  0  0  0  0  0  0  0  0
   -7.0350   18.7410  -33.1290 C   0  0  0  0  0  0  0  0  0  0  0  0
   -5.7170   18.6910  -33.5170 C   0  0  0  0  0  0  0  0  0  0  0  0
   -4.8200   19.6620  -33.0940 C   0  0  0  0  0  0  0  0  0  0  0  0
   -3.5040   19.7890  -33.3610 C   0  0  0  0  0  0  0  0  0  0  0  0
   -3.0870   20.9330  -32.6900 C   0  0  0  0  0  0  0  0  0  0  0  0
   -1.6630   21.2910  -32.6820 C   0  0  0  0  0  0  0  0  0  0  0  0
   -1.0670   21.9030  -31.5330 N   0  0  0  0  0  0  0  0  0  0  0  0
   -0.8880   21.0900  -33.6500 O   0  0  0  0  0  0  0  0  0  0  0  0
   -4.0860   21.5180  -32.0290 N   0  0  0  0  0  0  0  0  0  0  0  0
   -4.2480   22.7500  -31.3970 C   0  0  0  0  0  0  0  0  0  0  0  0
   -4.9340   23.6250  -32.1220 O   0  0  0  0  0  0  0  0  0  0  0  0
   -3.8650   23.3170  -30.1880 N   0  0  0  0  0  0  0  0  0  0  0  0
   -5.0430   23.8310  -29.3910 C   0  0  0  0  0  0  0  0  0  0  0  0
   -5.2690   25.2260  -29.8380 C   0  0  0  0  0  0  0  0  0  0  0  0
   -6.3400   25.7820  -29.4920 O   0  0  0  0  0  0  0  0  0  0  0  0
   -4.3370   25.9240  -30.6200 O   0  0  0  0  0  0  0  0  0  0  0  0
   -2.6270   23.6050  -29.6130 C   0  0  0  0  0  0  0  0  0  0  0  0
   -2.3700   24.9670  -29.1580 N   0  0  0  0  0  0  0  0  0  0  0  0
   -1.6580   22.8390  -29.4200 O   0  0  0  0  0  0  0  0  0  0  0  0
   -5.1700   20.7110  -32.2830 C   0  0  0  0  0  0  0  0  0  0  0  0
   -6.5030   20.7570  -31.8950 C   0  0  0  0  0  0  0  0  0  0  0  0
   -9.1128   21.2025  -30.2465 H   0  0  0  0  0  0  0  0  0  0  0  0
   -8.3406   21.9273  -31.6974 H   0  0  0  0  0  0  0  0  0  0  0  0
  -10.1027   21.5787  -31.6974 H   0  0  0  0  0  0  0  0  0  0  0  0
   -7.7568   17.9780  -33.4558 H   0  0  0  0  0  0  0  0  0  0  0  0
   -5.3706   17.8748  -34.1680 H   0  0  0  0  0  0  0  0  0  0  0  0
   -2.8869   19.1235  -33.9825 H   0  0  0  0  0  0  0  0  0  0  0  0
   -1.1050   22.9650  -31.5390 H   0  0  0  0  0  0  0  0  0  0  0  0
   -0.6350   21.3580  -30.7580 H   0  0  0  0  0  0  0  0  0  0  0  0
   -5.9344   23.2179  -29.5899 H   0  0  0  0  0  0  0  0  0  0  0  0
   -4.8460   23.7839  -28.3098 H   0  0  0  0  0  0  0  0  0  0  0  0
   -4.2080   25.6840  -31.5960 H   0  0  0  0  0  0  0  0  0  0  0  0
   -2.1610   25.6580  -29.9080 H   0  0  0  0  0  0  0  0  0  0  0  0
   -2.4010   25.1970  -28.1360 H   0  0  0  0  0  0  0  0  0  0  0  0
   -6.8480   21.5744  -31.2447 H   0  0  0  0  0  0  0  0  0  0  0  0
  1  2  1  0
  2  3  1  0
  2  4  1  0
  2  5  1  0
  5  6  2  0
  6  7  1  0
  7  8  2  0
  8  9  1  0
  9 10  2  0
 10 11  1  0
 11 12  1  0
 11 13  2  0
 10 14  1  0
 14 15  1  0
 15 16  2  0
 15 17  1  0
 17 18  1  0
 18 19  1  0
 19 20  2  0
 19 21  1  0
 17 22  1  0
 22 23  1  0
 22 24  2  0
 14 25  1  0
 25 26  2  0
 26  5  1  0
 25  8  1  0
  1 27  1  0
  1 28  1  0
  1 29  1  0
  6 30  1  0
  7 31  1  0
  9 32  1  0
 12 33  1  0
 12 34  1  0
 18 35  1  0
 18 36  1  0
 21 37  1  0
 23 38  1  0
 23 39  1  0
 26 40  1  0
M  END
>  <smiles>  (63) 
CC(F)(F)c1ccc2cc(C(N)=O)n(C(=O)N(CC(=O)O)C(N)=O)c2c1

>  <score_type>  (63) 
oracle

>  <origin>  (63) 
adg

>  <m_score__min__energy>  (63) 
-8.5899999999999999

>  <m_primary>  (63) 
energy

$$$$
66:0
     RDKit          3D

 46 47  0  0  0  0  0  0  0  0999 V2000
   -8.1560   18.5870  -32.5780 C   0  0  0  0  0  0  0  0  0  0  0  0
   -7.9840   19.9450  -31.9990 C   0  0  0  0  0  0  0  0  0  0  0  0
   -9.0790   20.5400  -31.4160 C   0  0  0  0  0  0  0  0  0  0  0  0
   -8.9270   21.7830  -30.8850 C   0  0  0  0  0  0  0  0  0  0  0  0
   -7.6990   22.4150  -30.9400 C   0  0  0  0  0  0  0  0  0  0  0  0
   -7.3380   23.6420  -30.4770 C   0  0  0  0  0  0  0  0  0  0  0  0
   -5.9680   23.8060  -30.7900 C   0  0  0  0  0  0  0  0  0  0  0  0
   -5.3370   25.0710  -30.4580 C   0  0  0  0  0  0  0  0  0  0  0  0
   -3.9520   25.3490  -30.4750 N   0  0  0  0  0  0  0  0  0  0  0  0
   -6.0880   26.0450  -30.1290 O   0  0  0  0  0  0  0  0  0  0  0  0
   -5.5100   22.7220  -31.4130 N   0  0  0  0  0  0  0  0  0  0  0  0
   -4.2140   22.3010  -31.7680 C   0  0  0  0  0  0  0  0  0  0  0  0
   -3.2560   22.8100  -31.0700 O   0  0  0  0  0  0  0  0  0  0  0  0
   -3.7900   21.3980  -32.7970 C   0  0  0  0  0  0  0  0  0  0  0  0
   -4.4190   21.0390  -33.8170 O   0  0  0  0  0  0  0  0  0  0  0  0
   -2.4700   20.7860  -32.6970 N   0  0  0  0  0  0  0  0  0  0  0  0
   -2.0720   19.8720  -33.7610 C   0  0  0  0  0  0  0  0  0  0  0  0
   -2.5170   18.4730  -33.4420 C   0  0  0  0  0  0  0  0  0  0  0  0
   -3.4290   17.8820  -34.4680 C   0  0  0  0  0  0  0  0  0  0  0  0
   -4.7660   17.6820  -34.1070 N   0  0  0  0  0  0  0  0  0  0  0  0
   -5.7060   18.4740  -34.8510 C   0  0  0  0  0  0  0  0  0  0  0  0
   -5.1100   17.4090  -32.7680 C   0  0  0  0  0  0  0  0  0  0  0  0
   -6.5810   21.8650  -31.5110 C   0  0  0  0  0  0  0  0  0  0  0  0
   -6.7450   20.5940  -32.0510 C   0  0  0  0  0  0  0  0  0  0  0  0
   -8.2492   17.8512  -31.7657 H   0  0  0  0  0  0  0  0  0  0  0  0
   -9.0641   18.5652  -33.1984 H   0  0  0  0  0  0  0  0  0  0  0  0
   -7.2820   18.3395  -33.1984 H   0  0  0  0  0  0  0  0  0  0  0  0
  -10.0503   20.0249  -31.3803 H   0  0  0  0  0  0  0  0  0  0  0  0
   -9.7827   22.2861  -30.4110 H   0  0  0  0  0  0  0  0  0  0  0  0
   -7.9851   24.3658  -29.9599 H   0  0  0  0  0  0  0  0  0  0  0  0
   -3.3170   24.9590  -31.2330 H   0  0  0  0  0  0  0  0  0  0  0  0
   -3.4790   25.9430  -29.7540 H   0  0  0  0  0  0  0  0  0  0  0  0
   -1.8350   20.9840  -31.9110 H   0  0  0  0  0  0  0  0  0  0  0  0
   -2.5340   20.1928  -34.7063 H   0  0  0  0  0  0  0  0  0  0  0  0
   -0.9759   19.8861  -33.8526 H   0  0  0  0  0  0  0  0  0  0  0  0
   -1.6246   17.8348  -33.3623 H   0  0  0  0  0  0  0  0  0  0  0  0
   -3.0836   18.5236  -32.5005 H   0  0  0  0  0  0  0  0  0  0  0  0
   -3.4202   18.5513  -35.3409 H   0  0  0  0  0  0  0  0  0  0  0  0
   -3.0329   16.8712  -34.6452 H   0  0  0  0  0  0  0  0  0  0  0  0
   -6.3566   19.0221  -34.1536 H   0  0  0  0  0  0  0  0  0  0  0  0
   -5.1618   19.1900  -35.4845 H   0  0  0  0  0  0  0  0  0  0  0  0
   -6.3193   17.8163  -35.4845 H   0  0  0  0  0  0  0  0  0  0  0  0
   -4.4276   17.9506  -32.0964 H   0  0  0  0  0  0  0  0  0  0  0  0
   -6.1438   17.7352  -32.5812 H   0  0  0  0  0  0  0  0  0  0  0  0
   -5.0271   16.3281  -32.5812 H   0  0  0  0  0  0  0  0  0  0  0  0
   -5.8891   20.0917  -32.5256 H   0  0  0  0  0  0  0  0  0  0  0  0
  1  2  1  0
  2  3  2  0
  3  4  1  0
  4  5  2  0
  5  6  1  0
  6  7  2  0
  7  8  1  0
  8  9  1  0
  8 10  2  0
  7 11  1  0
 11 12  1  0
 12 13  2  0
 12 14  1  0
 14 15  2  0
 14 16  1  0
 16 17  1  0
 17 18  1  0
 18 19  1  0
 19 20  1  0
 20 21  1  0
 20 22  1  0
 11 23  1  0
 23 24  2  0
 24  2  1  0
 23  5  1  0
  1 25  1  0
  1 26  1  0
  1 27  1  0
  3 28  1  0
  4 29  1  0
  6 30  1  0
  9 31  1  0
  9 32  1  0
 16 33  1  0
 17 34  1  0
 17 35  1  0
 18 36  1  0
 18 37  1  0
 19 38  1  0
 19 39  1  0
 21 40  1  0
 21 41  1  0
 21 42  1  0
 22 43  1  0
 22 44  1  0
 22 45  1  0
 24 46  1  0
M  END
>  <smiles>  (64) 
Cc1ccc2cc(C(N)=O)n(C(=O)C(=O)NCCCN(C)C)c2c1

>  <score_type>  (64) 
oracle

>  <origin>  (64) 
adg

>  <m_score__min__energy>  (64) 
-9.4199999999999999

>  <m_primary>  (64) 
energy

$$$$
67:0
     RDKit          3D

 40 42  0  0  0  0  0  0  0  0999 V2000
   -2.5250   20.8700  -30.8150 C   0  0  0  0  0  0  0  0  0  0  0  0
   -3.3860   21.5590  -31.8540 N   0  0  0  0  0  0  0  0  0  0  0  0
   -3.2620   21.0160  -33.1350 C   0  0  0  0  0  0  0  0  0  0  0  0
   -4.1460   20.4480  -33.8210 O   0  0  0  0  0  0  0  0  0  0  0  0
   -2.0050   21.0820  -33.8030 O   0  0  0  0  0  0  0  0  0  0  0  0
   -4.2190   22.5220  -31.3030 C   0  0  0  0  0  0  0  0  0  0  0  0
   -3.4890   23.5110  -30.7870 O   0  0  0  0  0  0  0  0  0  0  0  0
   -5.5740   22.7140  -31.1470 N   0  0  0  0  0  0  0  0  0  0  0  0
   -6.1410   23.9090  -30.8010 C   0  0  0  0  0  0  0  0  0  0  0  0
   -5.5430   25.1440  -30.3330 C   0  0  0  0  0  0  0  0  0  0  0  0
   -6.1080   25.8440  -29.1910 N   0  0  0  0  0  0  0  0  0  0  0  0
   -4.5400   25.7140  -30.8220 O   0  0  0  0  0  0  0  0  0  0  0  0
   -7.5330   23.7880  -30.9000 C   0  0  0  0  0  0  0  0  0  0  0  0
   -7.8200   22.5260  -31.3070 C   0  0  0  0  0  0  0  0  0  0  0  0
   -9.0320   21.9350  -31.5860 C   0  0  0  0  0  0  0  0  0  0  0  0
   -9.0930   20.6460  -32.0410 C   0  0  0  0  0  0  0  0  0  0  0  0
   -7.9150   19.9680  -32.2090 C   0  0  0  0  0  0  0  0  0  0  0  0
   -7.9760   18.5690  -32.7050 C   0  0  0  0  0  0  0  0  0  0  0  0
   -6.6740   18.1000  -33.1530 N   0  0  0  0  0  0  0  0  0  0  0  0
   -6.0840   18.2410  -34.3540 C   0  0  0  0  0  0  0  0  0  0  0  0
   -4.8490   17.6170  -34.2740 C   0  0  0  0  0  0  0  0  0  0  0  0
   -4.6980   17.1040  -33.0340 N   0  0  0  0  0  0  0  0  0  0  0  0
   -5.8260   17.4070  -32.3510 C   0  0  0  0  0  0  0  0  0  0  0  0
   -6.7090   20.5770  -31.9230 C   0  0  0  0  0  0  0  0  0  0  0  0
   -6.6040   21.8710  -31.4580 C   0  0  0  0  0  0  0  0  0  0  0  0
   -2.8719   21.1476  -29.8087 H   0  0  0  0  0  0  0  0  0  0  0  0
   -2.6002   19.7798  -30.9410 H   0  0  0  0  0  0  0  0  0  0  0  0
   -1.4778   21.1823  -30.9410 H   0  0  0  0  0  0  0  0  0  0  0  0
   -1.9770   21.5340  -34.7300 H   0  0  0  0  0  0  0  0  0  0  0  0
   -5.8560   25.5370  -28.2150 H   0  0  0  0  0  0  0  0  0  0  0  0
   -6.7530   26.6390  -29.3820 H   0  0  0  0  0  0  0  0  0  0  0  0
   -8.2664   24.5791  -30.6850 H   0  0  0  0  0  0  0  0  0  0  0  0
   -9.9614   22.5054  -31.4415 H   0  0  0  0  0  0  0  0  0  0  0  0
  -10.0586   20.1690  -32.2650 H   0  0  0  0  0  0  0  0  0  0  0  0
   -8.3292   17.9176  -31.8920 H   0  0  0  0  0  0  0  0  0  0  0  0
   -8.6650   18.5386  -33.5619 H   0  0  0  0  0  0  0  0  0  0  0  0
   -6.5024   18.7541  -35.2325 H   0  0  0  0  0  0  0  0  0  0  0  0
   -4.1120   17.5505  -35.0879 H   0  0  0  0  0  0  0  0  0  0  0  0
   -6.0256   17.1333  -31.3045 H   0  0  0  0  0  0  0  0  0  0  0  0
   -5.7846   20.0002  -32.0739 H   0  0  0  0  0  0  0  0  0  0  0  0
  1  2  1  0
  2  3  1  0
  3  4  2  0
  3  5  1  0
  2  6  1  0
  6  7  2  0
  6  8  1  0
  8  9  1  0
  9 10  1  0
 10 11  1  0
 10 12  2  0
  9 13  2  0
 13 14  1  0
 14 15  2  0
 15 16  1  0
 16 17  2  0
 17 18  1  0
 18 19  1  0
 19 20  1  0
 20 21  2  0
 21 22  1  0
 22 23  2  0
 17 24  1  0
 24 25  2  0
 25  8  1  0
 25 14  1  0
 23 19  1  0
  1 26  1  0
  1 27  1  0
  1 28  1  0
  5 29  1  0
 11 30  1  0
 11 31  1  0
 13 32  1  0
 15 33  1  0
 16 34  1  0
 18 35  1  0
 18 36  1  0
 20 37  1  0
 21 38  1  0
 23 39  1  0
 24 40  1  0
M  END
>  <smiles>  (65) 
CN(C(=O)O)C(=O)n1c(C(N)=O)cc2ccc(Cn3ccnc3)cc21

>  <score_type>  (65) 
oracle

>  <origin>  (65) 
adg

>  <m_score__min__energy>  (65) 
-9.4900000000000002

>  <m_primary>  (65) 
energy

$$$$
68:0
     RDKit          3D

 49 50  0  0  1  0  0  0  0  0999 V2000
   -5.4950   17.8930  -33.7770 C   0  0  0  0  0  0  0  0  0  0  0  0
   -6.4450   18.8580  -34.2690 N   0  0  0  0  0  0  0  0  0  0  0  0
   -6.9010   19.8750  -33.3830 C   0  0  0  0  0  0  0  0  0  0  0  0
   -8.2350   19.9450  -33.0440 C   0  0  0  0  0  0  0  0  0  0  0  0
   -8.6750   20.9260  -32.1890 C   0  0  0  0  0  0  0  0  0  0  0  0
   -7.7600   21.8330  -31.6800 C   0  0  0  0  0  0  0  0  0  0  0  0
   -7.9170   22.8920  -30.8250 C   0  0  0  0  0  0  0  0  0  0  0  0
   -6.6780   23.5160  -30.6050 C   0  0  0  0  0  0  0  0  0  0  0  0
   -6.4950   24.6650  -29.7510 C   0  0  0  0  0  0  0  0  0  0  0  0
   -5.2730   24.7270  -28.9910 N   0  0  0  0  0  0  0  0  0  0  0  0
   -7.2660   25.6170  -29.5870 O   0  0  0  0  0  0  0  0  0  0  0  0
   -5.7700   22.8180  -31.3400 N   0  0  0  0  0  0  0  0  0  0  0  0
   -4.3540   23.0840  -31.4370 C   0  0  0  0  0  0  0  0  0  0  0  0
   -3.8680   24.1930  -31.1600 O   0  0  0  0  0  0  0  0  0  0  0  0
   -3.5490   22.0860  -31.8420 O   0  0  0  0  0  0  0  0  0  0  0  0
   -3.1020   20.9500  -31.2350 C   0  0  0  0  0  0  0  0  0  0  0  0
   -2.9970   20.8200  -29.9240 O   0  0  0  0  0  0  0  0  0  0  0  0
   -2.4360   21.8750  -28.8430 P   0  0  1  0  0  0  0  0  0  0  0  0
   -3.4170   22.9390  -28.3550 O   0  0  0  0  0  0  0  0  0  0  0  0
   -1.5920   21.0500  -27.4630 C   0  0  0  0  0  0  0  0  0  0  0  0
   -1.6690   21.8810  -26.3600 O   0  0  0  0  0  0  0  0  0  0  0  0
   -1.1930   22.8610  -29.5650 O   0  0  0  0  0  0  0  0  0  0  0  0
   -0.1940   23.0260  -28.6100 C   0  0  0  0  0  0  0  0  0  0  0  0
    0.1130   24.3720  -28.5780 O   0  0  0  0  0  0  0  0  0  0  0  0
   -1.1890   25.3330  -28.1150 P   0  0  0  0  0  0  0  0  0  0  0  0
   -0.7430   26.7420  -27.8240 O   0  0  0  0  0  0  0  0  0  0  0  0
   -2.3420   25.2980  -29.3410 O   0  0  0  0  0  0  0  0  0  0  0  0
   -1.8670   24.6200  -26.7270 O   0  0  0  0  0  0  0  0  0  0  0  0
   -6.4190   21.8040  -31.9880 C   0  0  0  0  0  0  0  0  0  0  0  0
   -6.0070   20.8050  -32.8520 C   0  0  0  0  0  0  0  0  0  0  0  0
   -5.5017   17.8998  -32.6770 H   0  0  0  0  0  0  0  0  0  0  0  0
   -5.7690   16.8911  -34.1392 H   0  0  0  0  0  0  0  0  0  0  0  0
   -4.4890   18.1513  -34.1392 H   0  0  0  0  0  0  0  0  0  0  0  0
   -6.8090   18.8360  -35.2500 H   0  0  0  0  0  0  0  0  0  0  0  0
   -8.9470   19.2157  -33.4578 H   0  0  0  0  0  0  0  0  0  0  0  0
   -9.7378   20.9904  -31.9127 H   0  0  0  0  0  0  0  0  0  0  0  0
   -8.8713   23.2067  -30.3775 H   0  0  0  0  0  0  0  0  0  0  0  0
   -5.2240   24.1990  -28.1100 H   0  0  0  0  0  0  0  0  0  0  0  0
   -4.4670   25.2790  -29.3110 H   0  0  0  0  0  0  0  0  0  0  0  0
   -3.7773   20.1466  -31.5644 H   0  0  0  0  0  0  0  0  0  0  0  0
   -2.0446   20.9445  -31.5382 H   0  0  0  0  0  0  0  0  0  0  0  0
   -2.0841   20.0910  -27.2435 H   0  0  0  0  0  0  0  0  0  0  0  0
   -0.5412   20.8510  -27.7203 H   0  0  0  0  0  0  0  0  0  0  0  0
   -2.4020   22.5440  -26.4580 H   0  0  0  0  0  0  0  0  0  0  0  0
   -0.5550   22.6970  -27.6244 H   0  0  0  0  0  0  0  0  0  0  0  0
    0.6931   22.4260  -28.8610 H   0  0  0  0  0  0  0  0  0  0  0  0
   -2.4360   24.3650  -29.6400 H   0  0  0  0  0  0  0  0  0  0  0  0
   -2.3620   23.8210  -27.0300 H   0  0  0  0  0  0  0  0  0  0  0  0
   -4.9441   20.7423  -33.1281 H   0  0  0  0  0  0  0  0  0  0  0  0
  1  2  1  0
  2  3  1  0
  3  4  2  0
  4  5  1  0
  5  6  2  0
  6  7  1  0
  7  8  2  0
  8  9  1  0
  9 10  1  0
  9 11  2  0
  8 12  1  0
 12 13  1  0
 13 14  2  0
 13 15  1  0
 15 16  1  0
 16 17  1  0
 18 17  1  6
 18 19  2  0
 18 20  1  0
 20 21  1  0
 18 22  1  0
 22 23  1  0
 23 24  1  0
 24 25  1  0
 25 26  2  0
 25 27  1  0
 25 28  1  0
 12 29  1  0
 29 30  2  0
 30  3  1  0
 29  6  1  0
  1 31  1  0
  1 32  1  0
  1 33  1  0
  2 34  1  0
  4 35  1  0
  5 36  1  0
  7 37  1  0
 10 38  1  0
 10 39  1  0
 16 40  1  0
 16 41  1  0
 20 42  1  0
 20 43  1  0
 21 44  1  0
 23 45  1  0
 23 46  1  0
 27 47  1  0
 28 48  1  0
 30 49  1  0
M  END
>  <smiles>  (66) 
CNc1ccc2cc(C(N)=O)n(C(=O)OCOP(=O)(CO)OCOP(=O)(O)O)c2c1

>  <score_type>  (66) 
oracle

>  <origin>  (66) 
adg

>  <m_score__min__energy>  (66) 
-7.4800000000000004

>  <m_primary>  (66) 
energy

$$$$
69:0
     RDKit          3D

 35 36  0  0  0  0  0  0  0  0999 V2000
   -0.7440   20.6940  -34.1710 C   0  0  0  0  0  0  0  0  0  0  0  0
   -2.0590   20.0460  -33.9370 C   0  0  0  0  0  0  0  0  0  0  0  0
   -2.1570   18.7000  -34.1890 C   0  0  0  0  0  0  0  0  0  0  0  0
   -3.3790   18.1070  -33.9690 C   0  0  0  0  0  0  0  0  0  0  0  0
   -4.4440   18.8450  -33.5170 C   0  0  0  0  0  0  0  0  0  0  0  0
   -5.7100   18.4670  -33.2060 C   0  0  0  0  0  0  0  0  0  0  0  0
   -6.4330   19.5830  -32.7550 C   0  0  0  0  0  0  0  0  0  0  0  0
   -7.8200   19.4450  -32.3750 C   0  0  0  0  0  0  0  0  0  0  0  0
   -8.8550   20.1530  -33.1290 N   0  0  0  0  0  0  0  0  0  0  0  0
   -8.2930   18.7660  -31.4380 O   0  0  0  0  0  0  0  0  0  0  0  0
   -5.5870   20.6520  -32.7960 N   0  0  0  0  0  0  0  0  0  0  0  0
   -5.9470   21.9220  -32.3180 C   0  0  0  0  0  0  0  0  0  0  0  0
   -7.1570   22.2680  -32.6100 O   0  0  0  0  0  0  0  0  0  0  0  0
   -5.2290   22.9090  -31.5780 C   0  0  0  0  0  0  0  0  0  0  0  0
   -3.9420   23.0570  -31.6470 O   0  0  0  0  0  0  0  0  0  0  0  0
   -5.7870   23.8610  -30.6740 N   0  0  0  0  0  0  0  0  0  0  0  0
   -6.9700   23.2980  -29.9420 C   0  0  0  0  0  0  0  0  0  0  0  0
   -5.4280   25.1650  -30.3920 C   0  0  0  0  0  0  0  0  0  0  0  0
   -6.0730   26.0600  -29.8000 O   0  0  0  0  0  0  0  0  0  0  0  0
   -4.1400   25.5930  -30.8230 O   0  0  0  0  0  0  0  0  0  0  0  0
   -4.3800   20.2050  -33.2560 C   0  0  0  0  0  0  0  0  0  0  0  0
   -3.1480   20.7760  -33.4800 C   0  0  0  0  0  0  0  0  0  0  0  0
   -0.2726   20.9263  -33.2047 H   0  0  0  0  0  0  0  0  0  0  0  0
   -0.0955   20.0123  -34.7409 H   0  0  0  0  0  0  0  0  0  0  0  0
   -0.8895   21.6236  -34.7409 H   0  0  0  0  0  0  0  0  0  0  0  0
   -1.2953   18.1203  -34.5514 H   0  0  0  0  0  0  0  0  0  0  0  0
   -3.5035   17.0304  -34.1574 H   0  0  0  0  0  0  0  0  0  0  0  0
   -6.1078   17.4452  -33.2937 H   0  0  0  0  0  0  0  0  0  0  0  0
   -9.4260   19.6220  -33.8330 H   0  0  0  0  0  0  0  0  0  0  0  0
   -8.9830   21.1700  -32.9310 H   0  0  0  0  0  0  0  0  0  0  0  0
   -6.8023   23.3778  -28.8578 H   0  0  0  0  0  0  0  0  0  0  0  0
   -7.8734   23.8627  -30.2158 H   0  0  0  0  0  0  0  0  0  0  0  0
   -7.1015   22.2408  -30.2158 H   0  0  0  0  0  0  0  0  0  0  0  0
   -3.5340   24.9280  -31.2760 H   0  0  0  0  0  0  0  0  0  0  0  0
   -3.0212   21.8520  -33.2897 H   0  0  0  0  0  0  0  0  0  0  0  0
  1  2  1  0
  2  3  2  0
  3  4  1  0
  4  5  2  0
  5  6  1  0
  6  7  2  0
  7  8  1  0
  8  9  1  0
  8 10  2  0
  7 11  1  0
 11 12  1  0
 12 13  2  0
 12 14  1  0
 14 15  2  0
 14 16  1  0
 16 17  1  0
 16 18  1  0
 18 19  2  0
 18 20  1  0
 11 21  1  0
 21 22  2  0
 22  2  1  0
 21  5  1  0
  1 23  1  0
  1 24  1  0
  1 25  1  0
  3 26  1  0
  4 27  1  0
  6 28  1  0
  9 29  1  0
  9 30  1  0
 17 31  1  0
 17 32  1  0
 17 33  1  0
 20 34  1  0
 22 35  1  0
M  END
>  <smiles>  (67) 
Cc1ccc2cc(C(N)=O)n(C(=O)C(=O)N(C)C(=O)O)c2c1

>  <score_type>  (67) 
oracle

>  <origin>  (67) 
adg

>  <m_score__min__energy>  (67) 
-8.7300000000000004

>  <m_primary>  (67) 
energy

$$$$
70:0
     RDKit          3D

 42 43  0  0  0  0  0  0  0  0999 V2000
   -1.2210   25.8890  -28.3980 C   0  0  0  0  0  0  0  0  0  0  0  0
   -2.0430   25.3070  -29.3290 O   0  0  0  0  0  0  0  0  0  0  0  0
   -2.2440   23.9670  -29.0790 C   0  0  0  0  0  0  0  0  0  0  0  0
   -1.6900   23.0660  -30.1380 C   0  0  0  0  0  0  0  0  0  0  0  0
   -2.5850   22.8810  -31.2180 O   0  0  0  0  0  0  0  0  0  0  0  0
   -2.8660   21.6590  -31.7940 C   0  0  0  0  0  0  0  0  0  0  0  0
   -2.6080   20.5840  -31.1980 O   0  0  0  0  0  0  0  0  0  0  0  0
   -3.4440   21.5600  -33.0510 O   0  0  0  0  0  0  0  0  0  0  0  0
   -4.2460   20.5120  -33.4500 C   0  0  0  0  0  0  0  0  0  0  0  0
   -3.6600   19.6680  -34.2150 O   0  0  0  0  0  0  0  0  0  0  0  0
   -5.5950   20.3090  -33.0960 N   0  0  0  0  0  0  0  0  0  0  0  0
   -6.3520   19.2230  -33.3170 C   0  0  0  0  0  0  0  0  0  0  0  0
   -6.0710   17.9640  -33.9530 C   0  0  0  0  0  0  0  0  0  0  0  0
   -5.2840   17.7240  -35.0920 N   0  0  0  0  0  0  0  0  0  0  0  0
   -6.5890   16.9000  -33.4410 O   0  0  0  0  0  0  0  0  0  0  0  0
   -7.6150   19.5180  -32.7760 C   0  0  0  0  0  0  0  0  0  0  0  0
   -7.5990   20.7800  -32.2370 C   0  0  0  0  0  0  0  0  0  0  0  0
   -8.5670   21.5200  -31.6000 C   0  0  0  0  0  0  0  0  0  0  0  0
   -8.3020   22.7830  -31.1410 C   0  0  0  0  0  0  0  0  0  0  0  0
   -7.0400   23.2950  -31.3320 C   0  0  0  0  0  0  0  0  0  0  0  0
   -6.7210   24.6610  -30.8480 C   0  0  0  0  0  0  0  0  0  0  0  0
   -5.3190   24.6090  -30.3170 C   0  0  0  0  0  0  0  0  0  0  0  0
   -5.1120   23.8570  -29.3350 O   0  0  0  0  0  0  0  0  0  0  0  0
   -4.2860   25.3460  -30.8660 O   0  0  0  0  0  0  0  0  0  0  0  0
   -6.0690   22.5330  -31.9810 C   0  0  0  0  0  0  0  0  0  0  0  0
   -6.3320   21.2590  -32.4440 C   0  0  0  0  0  0  0  0  0  0  0  0
   -1.5758   25.6378  -27.3875 H   0  0  0  0  0  0  0  0  0  0  0  0
   -0.1950   25.5150  -28.5299 H   0  0  0  0  0  0  0  0  0  0  0  0
   -1.2330   26.9810  -28.5299 H   0  0  0  0  0  0  0  0  0  0  0  0
   -1.7614   23.7162  -28.1228 H   0  0  0  0  0  0  0  0  0  0  0  0
   -3.3317   23.8046  -29.0565 H   0  0  0  0  0  0  0  0  0  0  0  0
   -0.7588   23.5067  -30.5237 H   0  0  0  0  0  0  0  0  0  0  0  0
   -1.5137   22.0819  -29.6792 H   0  0  0  0  0  0  0  0  0  0  0  0
   -5.7200   17.7290  -36.0570 H   0  0  0  0  0  0  0  0  0  0  0  0
   -4.2510   17.5320  -34.9510 H   0  0  0  0  0  0  0  0  0  0  0  0
   -8.4825   18.8418  -32.7834 H   0  0  0  0  0  0  0  0  0  0  0  0
   -9.5698   21.0911  -31.4568 H   0  0  0  0  0  0  0  0  0  0  0  0
   -9.0789   23.3728  -30.6325 H   0  0  0  0  0  0  0  0  0  0  0  0
   -6.7872   25.3824  -31.6758 H   0  0  0  0  0  0  0  0  0  0  0  0
   -7.4290   24.9824  -30.0699 H   0  0  0  0  0  0  0  0  0  0  0  0
   -3.4500   24.9190  -31.2300 H   0  0  0  0  0  0  0  0  0  0  0  0
   -5.0655   22.9588  -32.1282 H   0  0  0  0  0  0  0  0  0  0  0  0
  1  2  1  0
  2  3  1  0
  3  4  1  0
  4  5  1  0
  5  6  1  0
  6  7  2  0
  6  8  1  0
  8  9  1  0
  9 10  2  0
  9 11  1  0
 11 12  1  0
 12 13  1  0
 13 14  1  0
 13 15  2  0
 12 16  2  0
 16 17  1  0
 17 18  2  0
 18 19  1  0
 19 20  2  0
 20 21  1  0
 21 22  1  0
 22 23  2  0
 22 24  1  0
 20 25  1  0
 25 26  2  0
 26 11  1  0
 26 17  1  0
  1 27  1  0
  1 28  1  0
  1 29  1  0
  3 30  1  0
  3 31  1  0
  4 32  1  0
  4 33  1  0
 14 34  1  0
 14 35  1  0
 16 36  1  0
 18 37  1  0
 19 38  1  0
 21 39  1  0
 21 40  1  0
 24 41  1  0
 25 42  1  0
M  END
>  <smiles>  (68) 
COCCOC(=O)OC(=O)n1c(C(N)=O)cc2ccc(CC(=O)O)cc21

>  <score_type>  (68) 
oracle

>  <origin>  (68) 
adg

>  <m_score__min__energy>  (68) 
-7.8700000000000001

>  <m_primary>  (68) 
energy

$$$$
71:0
     RDKit          3D

 43 44  0  0  0  0  0  0  0  0999 V2000
   -0.9220   21.6400  -27.0790 C   0  0  0  0  0  0  0  0  0  0  0  0
   -1.5390   22.5410  -28.0070 N   0  0  0  0  0  0  0  0  0  0  0  0
   -1.9160   23.8600  -27.3810 C   0  0  0  0  0  0  0  0  0  0  0  0
   -1.3820   24.9430  -28.2450 C   0  0  0  0  0  0  0  0  0  0  0  0
   -0.2900   25.5070  -27.9680 O   0  0  0  0  0  0  0  0  0  0  0  0
   -2.1350   25.2930  -29.3560 O   0  0  0  0  0  0  0  0  0  0  0  0
   -1.8350   22.4270  -29.3410 C   0  0  0  0  0  0  0  0  0  0  0  0
   -0.9500   22.9180  -30.1620 O   0  0  0  0  0  0  0  0  0  0  0  0
   -2.9820   21.8460  -29.9990 N   0  0  0  0  0  0  0  0  0  0  0  0
   -3.1380   20.4260  -29.8350 C   0  0  0  0  0  0  0  0  0  0  0  0
   -3.8230   22.7170  -30.6940 C   0  0  0  0  0  0  0  0  0  0  0  0
   -3.1680   23.7550  -31.1850 O   0  0  0  0  0  0  0  0  0  0  0  0
   -5.1770   22.7620  -31.0100 N   0  0  0  0  0  0  0  0  0  0  0  0
   -5.9660   23.8280  -30.6500 C   0  0  0  0  0  0  0  0  0  0  0  0
   -5.6200   25.1300  -30.1110 C   0  0  0  0  0  0  0  0  0  0  0  0
   -4.4360   25.8090  -30.5820 N   0  0  0  0  0  0  0  0  0  0  0  0
   -6.2570   25.7710  -29.2420 O   0  0  0  0  0  0  0  0  0  0  0  0
   -7.2910   23.5230  -30.9650 C   0  0  0  0  0  0  0  0  0  0  0  0
   -7.3290   22.2850  -31.5140 C   0  0  0  0  0  0  0  0  0  0  0  0
   -8.3980   21.5390  -31.9520 C   0  0  0  0  0  0  0  0  0  0  0  0
   -8.2150   20.2650  -32.4400 C   0  0  0  0  0  0  0  0  0  0  0  0
   -6.9240   19.7870  -32.4630 C   0  0  0  0  0  0  0  0  0  0  0  0
   -6.6340   18.4030  -32.9790 C   0  0  0  0  0  0  0  0  0  0  0  0
   -5.7720   18.4810  -34.0540 F   0  0  0  0  0  0  0  0  0  0  0  0
   -6.1100   17.6190  -31.9500 F   0  0  0  0  0  0  0  0  0  0  0  0
   -5.8750   20.5460  -32.0250 C   0  0  0  0  0  0  0  0  0  0  0  0
   -6.0170   21.8330  -31.5310 C   0  0  0  0  0  0  0  0  0  0  0  0
   -1.1436   21.9636  -26.0513 H   0  0  0  0  0  0  0  0  0  0  0  0
   -1.3155   20.6249  -27.2367 H   0  0  0  0  0  0  0  0  0  0  0  0
    0.1666   21.6399  -27.2367 H   0  0  0  0  0  0  0  0  0  0  0  0
   -3.0108   23.9420  -27.3122 H   0  0  0  0  0  0  0  0  0  0  0  0
   -1.4975   23.9368  -26.3666 H   0  0  0  0  0  0  0  0  0  0  0  0
   -2.1800   24.6700  -30.1530 H   0  0  0  0  0  0  0  0  0  0  0  0
   -3.1649   20.1815  -28.7629 H   0  0  0  0  0  0  0  0  0  0  0  0
   -4.0770   20.1032  -30.3083 H   0  0  0  0  0  0  0  0  0  0  0  0
   -2.2915   19.9070  -30.3083 H   0  0  0  0  0  0  0  0  0  0  0  0
   -3.8800   26.4440  -29.9850 H   0  0  0  0  0  0  0  0  0  0  0  0
   -4.1030   25.6650  -31.5800 H   0  0  0  0  0  0  0  0  0  0  0  0
   -8.1586   24.1777  -30.7959 H   0  0  0  0  0  0  0  0  0  0  0  0
   -9.4112   21.9654  -31.9119 H   0  0  0  0  0  0  0  0  0  0  0  0
   -9.0604   19.6573  -32.7949 H   0  0  0  0  0  0  0  0  0  0  0  0
   -7.5629   17.9264  -33.3255 H   0  0  0  0  0  0  0  0  0  0  0  0
   -4.8649   20.1124  -32.0668 H   0  0  0  0  0  0  0  0  0  0  0  0
  1  2  1  0
  2  3  1  0
  3  4  1  0
  4  5  2  0
  4  6  1  0
  2  7  1  0
  7  8  2  0
  7  9  1  0
  9 10  1  0
  9 11  1  0
 11 12  2  0
 11 13  1  0
 13 14  1  0
 14 15  1  0
 15 16  1  0
 15 17  2  0
 14 18  2  0
 18 19  1  0
 19 20  2  0
 20 21  1  0
 21 22  2  0
 22 23  1  0
 23 24  1  0
 23 25  1  0
 22 26  1  0
 26 27  2  0
 27 13  1  0
 27 19  1  0
  1 28  1  0
  1 29  1  0
  1 30  1  0
  3 31  1  0
  3 32  1  0
  6 33  1  0
 10 34  1  0
 10 35  1  0
 10 36  1  0
 16 37  1  0
 16 38  1  0
 18 39  1  0
 20 40  1  0
 21 41  1  0
 23 42  1  0
 26 43  1  0
M  END
>  <smiles>  (69) 
CN(CC(=O)O)C(=O)N(C)C(=O)n1c(C(N)=O)cc2ccc(C(F)F)cc21

>  <score_type>  (69) 
oracle

>  <origin>  (69) 
adg

>  <m_score__min__energy>  (69) 
-8.75

>  <m_primary>  (69) 
energy

$$$$
72:0
     RDKit          3D

 49 51  0  0  0  0  0  0  0  0999 V2000
   -8.5560   18.6560  -32.6260 C   0  0  0  0  0  0  0  0  0  0  0  0
   -8.2220   20.0430  -32.1980 C   0  0  0  0  0  0  0  0  0  0  0  0
   -9.2040   20.9940  -32.2570 C   0  0  0  0  0  0  0  0  0  0  0  0
   -8.9000   22.2650  -31.8650 C   0  0  0  0  0  0  0  0  0  0  0  0
   -7.6230   22.5620  -31.4220 C   0  0  0  0  0  0  0  0  0  0  0  0
   -7.1180   23.7490  -30.9930 C   0  0  0  0  0  0  0  0  0  0  0  0
   -5.7850   23.4960  -30.6640 C   0  0  0  0  0  0  0  0  0  0  0  0
   -4.9990   24.5870  -30.0770 C   0  0  0  0  0  0  0  0  0  0  0  0
   -4.9510   24.9040  -28.7060 N   0  0  0  0  0  0  0  0  0  0  0  0
   -4.3060   25.3250  -30.8480 O   0  0  0  0  0  0  0  0  0  0  0  0
   -5.4520   22.2230  -30.8770 N   0  0  0  0  0  0  0  0  0  0  0  0
   -4.2510   21.5260  -30.9080 C   0  0  0  0  0  0  0  0  0  0  0  0
   -4.0960   20.7860  -31.9970 O   0  0  0  0  0  0  0  0  0  0  0  0
   -3.1320   21.4010  -30.0910 N   0  0  0  0  0  0  0  0  0  0  0  0
   -3.4530   21.2500  -28.6360 C   0  0  0  0  0  0  0  0  0  0  0  0
   -2.7470   22.2610  -27.8080 C   0  0  0  0  0  0  0  0  0  0  0  0
   -1.6900   22.9840  -28.4800 N   0  0  0  0  0  0  0  0  0  0  0  0
   -1.2350   24.5970  -28.0180 S   0  0  0  0  0  0  0  0  0  0  0  0
   -2.0080   25.5330  -28.9030 O   0  0  0  0  0  0  0  0  0  0  0  0
    0.2240   24.8150  -28.3450 O   0  0  0  0  0  0  0  0  0  0  0  0
   -1.5820   24.7910  -26.3780 N   0  0  0  0  0  0  0  0  0  0  0  0
   -0.8250   24.0330  -25.4550 C   0  0  0  0  0  0  0  0  0  0  0  0
   -2.1210   26.0270  -25.9570 C   0  0  0  0  0  0  0  0  0  0  0  0
   -1.0220   22.3270  -29.5490 C   0  0  0  0  0  0  0  0  0  0  0  0
    0.1880   22.6400  -29.8060 O   0  0  0  0  0  0  0  0  0  0  0  0
   -1.7340   21.2790  -30.3640 C   0  0  0  0  0  0  0  0  0  0  0  0
   -6.6110   21.6510  -31.3450 C   0  0  0  0  0  0  0  0  0  0  0  0
   -6.9420   20.3550  -31.7510 C   0  0  0  0  0  0  0  0  0  0  0  0
   -8.7080   18.0248  -31.7380 H   0  0  0  0  0  0  0  0  0  0  0  0
   -9.4765   18.6697  -33.2280 H   0  0  0  0  0  0  0  0  0  0  0  0
   -7.7302   18.2491  -33.2280 H   0  0  0  0  0  0  0  0  0  0  0  0
  -10.2138   20.7400  -32.6118 H   0  0  0  0  0  0  0  0  0  0  0  0
   -9.6680   23.0517  -31.9010 H   0  0  0  0  0  0  0  0  0  0  0  0
   -7.6493   24.7094  -30.9202 H   0  0  0  0  0  0  0  0  0  0  0  0
   -4.0780   25.2960  -28.2790 H   0  0  0  0  0  0  0  0  0  0  0  0
   -5.7530   24.7740  -28.0490 H   0  0  0  0  0  0  0  0  0  0  0  0
   -4.5375   21.3697  -28.4963 H   0  0  0  0  0  0  0  0  0  0  0  0
   -3.1209   20.2519  -28.3142 H   0  0  0  0  0  0  0  0  0  0  0  0
   -3.4903   22.9930  -27.4591 H   0  0  0  0  0  0  0  0  0  0  0  0
   -2.2621   21.7016  -26.9944 H   0  0  0  0  0  0  0  0  0  0  0  0
   -1.1071   24.3154  -24.4300 H   0  0  0  0  0  0  0  0  0  0  0  0
   -1.0250   22.9623  -25.6085 H   0  0  0  0  0  0  0  0  0  0  0  0
    0.2460   24.2316  -25.6085 H   0  0  0  0  0  0  0  0  0  0  0  0
   -2.1374   26.0645  -24.8578 H   0  0  0  0  0  0  0  0  0  0  0  0
   -1.4994   26.8485  -26.3427 H   0  0  0  0  0  0  0  0  0  0  0  0
   -3.1460   26.1305  -26.3427 H   0  0  0  0  0  0  0  0  0  0  0  0
   -1.5445   21.4429  -31.4351 H   0  0  0  0  0  0  0  0  0  0  0  0
   -1.3738   20.2731  -30.1025 H   0  0  0  0  0  0  0  0  0  0  0  0
   -6.1756   19.5666  -31.7164 H   0  0  0  0  0  0  0  0  0  0  0  0
  1  2  1  0
  2  3  2  0
  3  4  1  0
  4  5  2  0
  5  6  1  0
  6  7  2  0
  7  8  1  0
  8  9  1  0
  8 10  2  0
  7 11  1  0
 11 12  1  0
 12 13  2  0
 12 14  1  0
 14 15  1  0
 15 16  1  0
 16 17  1  0
 17 18  1  0
 18 19  2  0
 18 20  2  0
 18 21  1  0
 21 22  1  0
 21 23  1  0
 17 24  1  0
 24 25  2  0
 24 26  1  0
 11 27  1  0
 27 28  2  0
 28  2  1  0
 27  5  1  0
 26 14  1  0
  1 29  1  0
  1 30  1  0
  1 31  1  0
  3 32  1  0
  4 33  1  0
  6 34  1  0
  9 35  1  0
  9 36  1  0
 15 37  1  0
 15 38  1  0
 16 39  1  0
 16 40  1  0
 22 41  1  0
 22 42  1  0
 22 43  1  0
 23 44  1  0
 23 45  1  0
 23 46  1  0
 26 47  1  0
 26 48  1  0
 28 49  1  0
M  END
>  <smiles>  (70) 
Cc1ccc2cc(C(N)=O)n(C(=O)N3CCN(S(=O)(=O)N(C)C)C(=O)C3)c2c1

>  <score_type>  (70) 
oracle

>  <origin>  (70) 
adg

>  <m_score__min__energy>  (70) 
-10.199999999999999

>  <m_primary>  (70) 
energy

$$$$
73:0
     RDKit          3D

 35 36  0  0  0  0  0  0  0  0999 V2000
   -4.1020   25.2160  -30.3880 N   0  0  0  0  0  0  0  0  0  0  0  0
   -5.5450   25.0300  -30.4940 C   0  0  0  0  0  0  0  0  0  0  0  0
   -6.1790   26.0400  -30.1480 O   0  0  0  0  0  0  0  0  0  0  0  0
   -6.0330   23.7590  -30.9620 C   0  0  0  0  0  0  0  0  0  0  0  0
   -7.4060   23.4780  -31.0010 C   0  0  0  0  0  0  0  0  0  0  0  0
   -7.5840   22.2280  -31.4780 C   0  0  0  0  0  0  0  0  0  0  0  0
   -8.7350   21.5080  -31.6980 C   0  0  0  0  0  0  0  0  0  0  0  0
   -8.6860   20.2290  -32.2000 C   0  0  0  0  0  0  0  0  0  0  0  0
   -7.4530   19.7000  -32.4690 C   0  0  0  0  0  0  0  0  0  0  0  0
   -7.3720   18.3110  -33.0140 C   0  0  0  0  0  0  0  0  0  0  0  0
   -6.4780   18.2560  -34.0660 F   0  0  0  0  0  0  0  0  0  0  0  0
   -6.8360   17.5090  -32.0140 F   0  0  0  0  0  0  0  0  0  0  0  0
   -6.2960   20.4390  -32.2410 C   0  0  0  0  0  0  0  0  0  0  0  0
   -6.3200   21.7260  -31.7380 C   0  0  0  0  0  0  0  0  0  0  0  0
   -5.3780   22.6660  -31.4220 N   0  0  0  0  0  0  0  0  0  0  0  0
   -4.0080   22.4200  -31.5910 C   0  0  0  0  0  0  0  0  0  0  0  0
   -3.5990   22.4340  -32.8170 O   0  0  0  0  0  0  0  0  0  0  0  0
   -2.9560   22.1540  -30.6280 C   0  0  0  0  0  0  0  0  0  0  0  0
   -2.3640   23.3360  -30.1310 O   0  0  0  0  0  0  0  0  0  0  0  0
   -1.3650   23.1730  -29.2310 C   0  0  0  0  0  0  0  0  0  0  0  0
   -0.8560   24.5620  -28.8980 C   0  0  0  0  0  0  0  0  0  0  0  0
    0.2210   24.7180  -28.2660 O   0  0  0  0  0  0  0  0  0  0  0  0
   -1.6060   25.6750  -29.3090 O   0  0  0  0  0  0  0  0  0  0  0  0
   -3.7110   25.6260  -29.5000 H   0  0  0  0  0  0  0  0  0  0  0  0
   -3.4810   24.9380  -31.1980 H   0  0  0  0  0  0  0  0  0  0  0  0
   -8.2081   24.1648  -30.6928 H   0  0  0  0  0  0  0  0  0  0  0  0
   -9.7101   21.9626  -31.4687 H   0  0  0  0  0  0  0  0  0  0  0  0
   -9.6050   19.6516  -32.3790 H   0  0  0  0  0  0  0  0  0  0  0  0
   -8.3716   17.9918  -33.3440 H   0  0  0  0  0  0  0  0  0  0  0  0
   -5.3230   19.9801  -32.4704 H   0  0  0  0  0  0  0  0  0  0  0  0
   -3.3841   21.5926  -29.7844 H   0  0  0  0  0  0  0  0  0  0  0  0
   -2.1716   21.5786  -31.1414 H   0  0  0  0  0  0  0  0  0  0  0  0
   -1.7466   22.6805  -28.3245 H   0  0  0  0  0  0  0  0  0  0  0  0
   -0.5616   22.5414  -29.6379 H   0  0  0  0  0  0  0  0  0  0  0  0
   -2.1260   25.6590  -30.1780 H   0  0  0  0  0  0  0  0  0  0  0  0
  1  2  1  0
  2  3  2  0
  2  4  1  0
  4  5  2  0
  5  6  1  0
  6  7  2  0
  7  8  1  0
  8  9  2  0
  9 10  1  0
 10 11  1  0
 10 12  1  0
  9 13  1  0
 13 14  2  0
 14 15  1  0
 15 16  1  0
 16 17  2  0
 16 18  1  0
 18 19  1  0
 19 20  1  0
 20 21  1  0
 21 22  2  0
 21 23  1  0
 15  4  1  0
 14  6  1  0
  1 24  1  0
  1 25  1  0
  5 26  1  0
  7 27  1  0
  8 28  1  0
 10 29  1  0
 13 30  1  0
 18 31  1  0
 18 32  1  0
 20 33  1  0
 20 34  1  0
 23 35  1  0
M  END
>  <smiles>  (71) 
NC(=O)c1cc2ccc(C(F)F)cc2n1C(=O)COCC(=O)O

>  <score_type>  (71) 
oracle

>  <origin>  (71) 
adg

>  <m_score__min__energy>  (71) 
-9.2200000000000006

>  <m_primary>  (71) 
energy

$$$$
74:0
     RDKit          3D

 45 46  0  0  0  0  0  0  0  0999 V2000
   -1.3290   22.7040  -26.7610 C   0  0  0  0  0  0  0  0  0  0  0  0
   -1.9090   23.8800  -27.3790 N   0  0  0  0  0  0  0  0  0  0  0  0
   -2.4530   24.9280  -26.5360 C   0  0  0  0  0  0  0  0  0  0  0  0
   -1.9580   24.0330  -28.7850 C   0  0  0  0  0  0  0  0  0  0  0  0
   -2.4600   25.0500  -29.3460 O   0  0  0  0  0  0  0  0  0  0  0  0
   -1.3890   22.9320  -29.6410 C   0  0  0  0  0  0  0  0  0  0  0  0
   -2.3880   21.9300  -29.9190 N   0  0  0  0  0  0  0  0  0  0  0  0
   -2.5810   20.8170  -29.0340 C   0  0  0  0  0  0  0  0  0  0  0  0
   -3.1590   22.1300  -31.1270 C   0  0  0  0  0  0  0  0  0  0  0  0
   -2.7670   21.4160  -32.0840 O   0  0  0  0  0  0  0  0  0  0  0  0
   -4.2430   23.0710  -31.1430 C   0  0  0  0  0  0  0  0  0  0  0  0
   -3.8710   24.3080  -31.1920 O   0  0  0  0  0  0  0  0  0  0  0  0
   -5.6290   22.8580  -31.1020 N   0  0  0  0  0  0  0  0  0  0  0  0
   -6.6440   23.6200  -30.6700 C   0  0  0  0  0  0  0  0  0  0  0  0
   -6.6600   24.7840  -29.8010 C   0  0  0  0  0  0  0  0  0  0  0  0
   -5.5230   25.0220  -28.9350 N   0  0  0  0  0  0  0  0  0  0  0  0
   -7.5710   25.6310  -29.7100 O   0  0  0  0  0  0  0  0  0  0  0  0
   -7.8720   23.0330  -31.0370 C   0  0  0  0  0  0  0  0  0  0  0  0
   -7.5740   21.8830  -31.7030 C   0  0  0  0  0  0  0  0  0  0  0  0
   -8.4300   20.9530  -32.2610 C   0  0  0  0  0  0  0  0  0  0  0  0
   -7.9200   19.8460  -32.8990 C   0  0  0  0  0  0  0  0  0  0  0  0
   -6.5550   19.7150  -32.9520 C   0  0  0  0  0  0  0  0  0  0  0  0
   -5.9860   18.5210  -33.6390 C   0  0  0  0  0  0  0  0  0  0  0  0
   -5.7660   18.7580  -34.9660 F   0  0  0  0  0  0  0  0  0  0  0  0
   -6.8730   17.4430  -33.5560 F   0  0  0  0  0  0  0  0  0  0  0  0
   -5.6990   20.6650  -32.3820 C   0  0  0  0  0  0  0  0  0  0  0  0
   -6.2100   21.7890  -31.7350 C   0  0  0  0  0  0  0  0  0  0  0  0
   -1.3779   22.8031  -25.6666 H   0  0  0  0  0  0  0  0  0  0  0  0
   -1.8900   21.8110  -27.0737 H   0  0  0  0  0  0  0  0  0  0  0  0
   -0.2790   22.6055  -27.0737 H   0  0  0  0  0  0  0  0  0  0  0  0
   -2.3129   24.6580  -25.4789 H   0  0  0  0  0  0  0  0  0  0  0  0
   -1.9322   25.8741  -26.7450 H   0  0  0  0  0  0  0  0  0  0  0  0
   -3.5264   25.0465  -26.7450 H   0  0  0  0  0  0  0  0  0  0  0  0
   -1.0341   23.3602  -30.5901 H   0  0  0  0  0  0  0  0  0  0  0  0
   -0.5570   22.4588  -29.0989 H   0  0  0  0  0  0  0  0  0  0  0  0
   -2.5210   21.1628  -27.9915 H   0  0  0  0  0  0  0  0  0  0  0  0
   -3.5699   20.3710  -29.2161 H   0  0  0  0  0  0  0  0  0  0  0  0
   -1.8000   20.0641  -29.2161 H   0  0  0  0  0  0  0  0  0  0  0  0
   -5.6950   24.8870  -27.9170 H   0  0  0  0  0  0  0  0  0  0  0  0
   -4.6200   25.3060  -29.3580 H   0  0  0  0  0  0  0  0  0  0  0  0
   -8.8769   23.4276  -30.8262 H   0  0  0  0  0  0  0  0  0  0  0  0
   -9.5185   21.0976  -32.1952 H   0  0  0  0  0  0  0  0  0  0  0  0
   -8.5826   19.0929  -33.3504 H   0  0  0  0  0  0  0  0  0  0  0  0
   -5.0341   18.2941  -33.1366 H   0  0  0  0  0  0  0  0  0  0  0  0
   -4.6101   20.5227  -32.4455 H   0  0  0  0  0  0  0  0  0  0  0  0
  1  2  1  0
  2  3  1  0
  2  4  1  0
  4  5  2  0
  4  6  1  0
  6  7  1  0
  7  8  1  0
  7  9  1  0
  9 10  2  0
  9 11  1  0
 11 12  2  0
 11 13  1  0
 13 14  1  0
 14 15  1  0
 15 16  1  0
 15 17  2  0
 14 18  2  0
 18 19  1  0
 19 20  2  0
 20 21  1  0
 21 22  2  0
 22 23  1  0
 23 24  1  0
 23 25  1  0
 22 26  1  0
 26 27  2  0
 27 13  1  0
 27 19  1  0
  1 28  1  0
  1 29  1  0
  1 30  1  0
  3 31  1  0
  3 32  1  0
  3 33  1  0
  6 34  1  0
  6 35  1  0
  8 36  1  0
  8 37  1  0
  8 38  1  0
 16 39  1  0
 16 40  1  0
 18 41  1  0
 20 42  1  0
 21 43  1  0
 23 44  1  0
 26 45  1  0
M  END
>  <smiles>  (72) 
CN(C)C(=O)CN(C)C(=O)C(=O)n1c(C(N)=O)cc2ccc(C(F)F)cc21

>  <score_type>  (72) 
oracle

>  <origin>  (72) 
adg

>  <m_score__min__energy>  (72) 
-8.5399999999999991

>  <m_primary>  (72) 
energy

$$$$
75:0
     RDKit          3D

 52 53  0  0  0  0  0  0  0  0999 V2000
   -2.8500   21.0020  -30.1110 C   0  0  0  0  0  0  0  0  0  0  0  0
   -2.3870   22.3930  -30.4980 C   0  0  0  0  0  0  0  0  0  0  0  0
   -3.2810   22.9040  -31.3960 O   0  0  0  0  0  0  0  0  0  0  0  0
   -4.6310   23.6470  -30.7550 P   0  0  0  0  0  0  0  0  0  0  0  0
   -4.8630   23.0940  -29.3690 O   0  0  0  0  0  0  0  0  0  0  0  0
   -6.1040   23.5520  -31.7600 C   0  0  0  0  0  0  0  0  0  0  0  0
   -6.4820   22.1390  -32.1020 C   0  0  0  0  0  0  0  0  0  0  0  0
   -7.7930   21.7530  -31.9440 C   0  0  0  0  0  0  0  0  0  0  0  0
   -8.1090   20.4550  -32.2650 C   0  0  0  0  0  0  0  0  0  0  0  0
   -7.1350   19.5870  -32.7260 C   0  0  0  0  0  0  0  0  0  0  0  0
   -7.2440   18.2850  -33.0920 C   0  0  0  0  0  0  0  0  0  0  0  0
   -5.9580   17.8510  -33.4880 C   0  0  0  0  0  0  0  0  0  0  0  0
   -5.7670   16.4790  -33.8930 C   0  0  0  0  0  0  0  0  0  0  0  0
   -4.6380   15.9040  -34.5030 N   0  0  0  0  0  0  0  0  0  0  0  0
   -6.7330   15.6670  -33.6690 O   0  0  0  0  0  0  0  0  0  0  0  0
   -5.0950   18.8750  -33.3670 N   0  0  0  0  0  0  0  0  0  0  0  0
   -3.7540   19.0190  -33.7550 C   0  0  0  0  0  0  0  0  0  0  0  0
   -3.3180   18.1900  -34.6380 O   0  0  0  0  0  0  0  0  0  0  0  0
   -2.7680   19.9670  -33.2990 C   0  0  0  0  0  0  0  0  0  0  0  0
   -1.7390   20.2260  -34.1270 C   0  0  0  0  0  0  0  0  0  0  0  0
   -0.7030   21.1940  -33.6980 C   0  0  0  0  0  0  0  0  0  0  0  0
   -0.3920   21.3150  -32.4950 O   0  0  0  0  0  0  0  0  0  0  0  0
   -0.0520   21.9900  -34.6200 O   0  0  0  0  0  0  0  0  0  0  0  0
    0.2730   21.4720  -35.8860 C   0  0  0  0  0  0  0  0  0  0  0  0
   -5.8230   19.9390  -32.8950 C   0  0  0  0  0  0  0  0  0  0  0  0
   -5.5030   21.2520  -32.5710 C   0  0  0  0  0  0  0  0  0  0  0  0
   -4.2750   25.3040  -30.5410 O   0  0  0  0  0  0  0  0  0  0  0  0
   -5.4220   26.0590  -30.5000 C   0  0  0  0  0  0  0  0  0  0  0  0
   -6.3220   25.6710  -29.3510 C   0  0  0  0  0  0  0  0  0  0  0  0
   -2.8784   20.9168  -29.0147 H   0  0  0  0  0  0  0  0  0  0  0  0
   -3.8559   20.8237  -30.5188 H   0  0  0  0  0  0  0  0  0  0  0  0
   -2.1516   20.2564  -30.5188 H   0  0  0  0  0  0  0  0  0  0  0  0
   -2.3474   23.0345  -29.6053 H   0  0  0  0  0  0  0  0  0  0  0  0
   -1.3822   22.3497  -30.9435 H   0  0  0  0  0  0  0  0  0  0  0  0
   -6.9360   24.0155  -31.2097 H   0  0  0  0  0  0  0  0  0  0  0  0
   -5.8971   24.0784  -32.7035 H   0  0  0  0  0  0  0  0  0  0  0  0
   -8.5564   22.4543  -31.5760 H   0  0  0  0  0  0  0  0  0  0  0  0
   -9.1452   20.1028  -32.1546 H   0  0  0  0  0  0  0  0  0  0  0  0
   -8.1623   17.6796  -33.0824 H   0  0  0  0  0  0  0  0  0  0  0  0
   -3.6810   16.1130  -34.1060 H   0  0  0  0  0  0  0  0  0  0  0  0
   -4.7680   15.2750  -35.3440 H   0  0  0  0  0  0  0  0  0  0  0  0
   -2.8530   20.4569  -32.3178 H   0  0  0  0  0  0  0  0  0  0  0  0
   -1.6686   19.7276  -35.1051 H   0  0  0  0  0  0  0  0  0  0  0  0
    0.8541   20.5459  -35.7651 H   0  0  0  0  0  0  0  0  0  0  0  0
   -0.6512   21.2551  -36.4417 H   0  0  0  0  0  0  0  0  0  0  0  0
    0.8704   22.2098  -36.4417 H   0  0  0  0  0  0  0  0  0  0  0  0
   -4.4658   21.6005  -32.6843 H   0  0  0  0  0  0  0  0  0  0  0  0
   -5.1449   27.1179  -30.3905 H   0  0  0  0  0  0  0  0  0  0  0  0
   -5.9745   25.8833  -31.4348 H   0  0  0  0  0  0  0  0  0  0  0  0
   -5.8159   25.8892  -28.3990 H   0  0  0  0  0  0  0  0  0  0  0  0
   -7.2584   26.2454  -29.4085 H   0  0  0  0  0  0  0  0  0  0  0  0
   -6.5472   24.5958  -29.4085 H   0  0  0  0  0  0  0  0  0  0  0  0
  1  2  1  0
  2  3  1  0
  3  4  1  0
  4  5  2  0
  4  6  1  0
  6  7  1  0
  7  8  2  0
  8  9  1  0
  9 10  2  0
 10 11  1  0
 11 12  2  0
 12 13  1  0
 13 14  1  0
 13 15  2  0
 12 16  1  0
 16 17  1  0
 17 18  2  0
 17 19  1  0
 19 20  2  0
 20 21  1  0
 21 22  2  0
 21 23  1  0
 23 24  1  0
 16 25  1  0
 25 26  2  0
  4 27  1  0
 27 28  1  0
 28 29  1  0
 26  7  1  0
 25 10  1  0
  1 30  1  0
  1 31  1  0
  1 32  1  0
  2 33  1  0
  2 34  1  0
  6 35  1  0
  6 36  1  0
  8 37  1  0
  9 38  1  0
 11 39  1  0
 14 40  1  0
 14 41  1  0
 19 42  1  0
 20 43  1  0
 24 44  1  0
 24 45  1  0
 24 46  1  0
 26 47  1  0
 28 48  1  0
 28 49  1  0
 29 50  1  0
 29 51  1  0
 29 52  1  0
M  END
>  <smiles>  (73) 
CCOP(=O)(Cc1ccc2cc(C(N)=O)n(C(=O)/C=C/C(=O)OC)c2c1)OCC

>  <score_type>  (73) 
oracle

>  <origin>  (73) 
adg

>  <m_score__min__energy>  (73) 
-9.75

>  <m_primary>  (73) 
energy

$$$$
76:0
     RDKit          3D

 45 46  0  0  0  0  0  0  0  0999 V2000
   -9.7320   21.8660  -31.2140 C   0  0  0  0  0  0  0  0  0  0  0  0
   -8.5540   21.1570  -31.7750 C   0  0  0  0  0  0  0  0  0  0  0  0
   -8.7380   19.9000  -32.2710 C   0  0  0  0  0  0  0  0  0  0  0  0
   -7.6650   19.2350  -32.7890 C   0  0  0  0  0  0  0  0  0  0  0  0
   -6.4180   19.8240  -32.8100 C   0  0  0  0  0  0  0  0  0  0  0  0
   -5.2130   19.3660  -33.2700 C   0  0  0  0  0  0  0  0  0  0  0  0
   -4.2530   20.3690  -33.0510 C   0  0  0  0  0  0  0  0  0  0  0  0
   -2.8780   20.1820  -33.4350 C   0  0  0  0  0  0  0  0  0  0  0  0
   -1.8970   21.1680  -33.6410 N   0  0  0  0  0  0  0  0  0  0  0  0
   -2.4790   18.9780  -33.6180 O   0  0  0  0  0  0  0  0  0  0  0  0
   -4.8720   21.4150  -32.4690 N   0  0  0  0  0  0  0  0  0  0  0  0
   -4.3400   22.6400  -32.0390 C   0  0  0  0  0  0  0  0  0  0  0  0
   -5.1230   23.6350  -31.9400 O   0  0  0  0  0  0  0  0  0  0  0  0
   -3.0260   22.9030  -31.6990 O   0  0  0  0  0  0  0  0  0  0  0  0
   -2.4220   22.3300  -30.5860 C   0  0  0  0  0  0  0  0  0  0  0  0
   -1.2590   21.8310  -30.7820 O   0  0  0  0  0  0  0  0  0  0  0  0
   -2.9870   22.2650  -29.3020 N   0  0  0  0  0  0  0  0  0  0  0  0
   -3.0510   20.9860  -28.6250 C   0  0  0  0  0  0  0  0  0  0  0  0
   -3.4820   23.5000  -28.7200 C   0  0  0  0  0  0  0  0  0  0  0  0
   -4.9650   23.5740  -28.9300 C   0  0  0  0  0  0  0  0  0  0  0  0
   -3.2180   23.5610  -27.2320 C   0  0  0  0  0  0  0  0  0  0  0  0
   -2.8600   24.6960  -29.3410 C   0  0  0  0  0  0  0  0  0  0  0  0
   -1.7910   25.2140  -28.9460 O   0  0  0  0  0  0  0  0  0  0  0  0
   -3.5050   25.2660  -30.4170 O   0  0  0  0  0  0  0  0  0  0  0  0
   -6.1890   21.0850  -32.3210 C   0  0  0  0  0  0  0  0  0  0  0  0
   -7.2950   21.7440  -31.7990 C   0  0  0  0  0  0  0  0  0  0  0  0
   -9.6872   21.8390  -30.1152 H   0  0  0  0  0  0  0  0  0  0  0  0
   -9.7276   22.9116  -31.5556 H   0  0  0  0  0  0  0  0  0  0  0  0
  -10.6539   21.3726  -31.5556 H   0  0  0  0  0  0  0  0  0  0  0  0
   -9.7328   19.4310  -32.2538 H   0  0  0  0  0  0  0  0  0  0  0  0
   -7.7956   18.2204  -33.1933 H   0  0  0  0  0  0  0  0  0  0  0  0
   -5.0282   18.3844  -33.7307 H   0  0  0  0  0  0  0  0  0  0  0  0
   -1.8870   21.6220  -34.5980 H   0  0  0  0  0  0  0  0  0  0  0  0
   -1.2500   21.3880  -32.8770 H   0  0  0  0  0  0  0  0  0  0  0  0
   -3.0430   21.1463  -27.5368 H   0  0  0  0  0  0  0  0  0  0  0  0
   -3.9763   20.4651  -28.9121 H   0  0  0  0  0  0  0  0  0  0  0  0
   -2.1823   20.3753  -28.9121 H   0  0  0  0  0  0  0  0  0  0  0  0
   -5.4726   23.5993  -27.9545 H   0  0  0  0  0  0  0  0  0  0  0  0
   -5.2103   24.4855  -29.4948 H   0  0  0  0  0  0  0  0  0  0  0  0
   -5.2998   22.6914  -29.4948 H   0  0  0  0  0  0  0  0  0  0  0  0
   -4.1481   23.3461  -26.6855 H   0  0  0  0  0  0  0  0  0  0  0  0
   -2.4547   22.8156  -26.9642 H   0  0  0  0  0  0  0  0  0  0  0  0
   -2.8591   24.5657  -26.9642 H   0  0  0  0  0  0  0  0  0  0  0  0
   -3.4900   24.9410  -31.3560 H   0  0  0  0  0  0  0  0  0  0  0  0
   -7.1704   22.7589  -31.3934 H   0  0  0  0  0  0  0  0  0  0  0  0
  1  2  1  0
  2  3  2  0
  3  4  1  0
  4  5  2  0
  5  6  1  0
  6  7  2  0
  7  8  1  0
  8  9  1  0
  8 10  2  0
  7 11  1  0
 11 12  1  0
 12 13  2  0
 12 14  1  0
 14 15  1  0
 15 16  2  0
 15 17  1  0
 17 18  1  0
 17 19  1  0
 19 20  1  0
 19 21  1  0
 19 22  1  0
 22 23  2  0
 22 24  1  0
 11 25  1  0
 25 26  2  0
 26  2  1  0
 25  5  1  0
  1 27  1  0
  1 28  1  0
  1 29  1  0
  3 30  1  0
  4 31  1  0
  6 32  1  0
  9 33  1  0
  9 34  1  0
 18 35  1  0
 18 36  1  0
 18 37  1  0
 20 38  1  0
 20 39  1  0
 20 40  1  0
 21 41  1  0
 21 42  1  0
 21 43  1  0
 24 44  1  0
 26 45  1  0
M  END
>  <smiles>  (74) 
Cc1ccc2cc(C(N)=O)n(C(=O)OC(=O)N(C)C(C)(C)C(=O)O)c2c1

>  <score_type>  (74) 
oracle

>  <origin>  (74) 
adg

>  <m_score__min__energy>  (74) 
-9.4499999999999993

>  <m_primary>  (74) 
energy

$$$$
77:0
     RDKit          3D

 68 69  0  0  1  0  0  0  0  0999 V2000
   -2.4630   21.8780  -27.3910 C   0  0  0  0  0  0  0  0  0  0  0  0
   -3.0090   22.7630  -28.4930 C   0  0  0  0  0  0  0  0  0  0  0  0
   -3.4860   22.1190  -29.5360 C   0  0  0  0  0  0  0  0  0  0  0  0
   -4.0490   22.7830  -30.6890 C   0  0  0  0  0  0  0  0  0  0  0  0
   -3.4060   23.4150  -31.5500 O   0  0  0  0  0  0  0  0  0  0  0  0
   -5.4740   22.7430  -30.9280 N   0  0  0  0  0  0  0  0  0  0  0  0
   -6.4100   23.6160  -30.5460 C   0  0  0  0  0  0  0  0  0  0  0  0
   -6.3390   24.9890  -30.0730 C   0  0  0  0  0  0  0  0  0  0  0  0
   -5.0730   25.6790  -30.1050 N   0  0  0  0  0  0  0  0  0  0  0  0
   -7.2950   25.6660  -29.6230 O   0  0  0  0  0  0  0  0  0  0  0  0
   -7.6760   23.0710  -30.8410 C   0  0  0  0  0  0  0  0  0  0  0  0
   -7.4550   21.8550  -31.4140 C   0  0  0  0  0  0  0  0  0  0  0  0
   -8.3410   20.9290  -31.8890 C   0  0  0  0  0  0  0  0  0  0  0  0
   -7.8470   19.7430  -32.4480 C   0  0  0  0  0  0  0  0  0  0  0  0
   -6.5050   19.4650  -32.5380 C   0  0  0  0  0  0  0  0  0  0  0  0
   -5.9540   18.2760  -33.0710 N   0  0  0  0  0  0  0  0  0  0  0  0
   -6.8250   17.0580  -32.9950 C   0  0  0  0  0  0  0  0  0  0  0  0
   -6.7150   16.2240  -34.2410 C   0  0  0  0  0  0  0  0  0  0  0  0
   -6.1360   14.8890  -33.8420 C   0  0  0  0  0  0  0  0  0  0  0  0
   -4.7570   14.9010  -33.5810 N   0  0  0  0  0  0  0  0  0  0  0  0
   -4.2860   14.6800  -32.2760 C   0  0  0  0  0  0  0  0  0  0  0  0
   -3.8430   14.9190  -34.6520 C   0  0  0  0  0  0  0  0  0  0  0  0
   -4.7280   18.0280  -33.7100 C   0  0  0  0  0  0  0  0  0  0  0  0
   -3.7810   19.0580  -34.1350 C   0  0  0  0  0  0  0  0  0  0  0  0
   -2.5790   18.9360  -33.1420 C   0  0  0  0  0  0  0  0  0  0  0  0
   -2.3170   20.1930  -32.5270 N   0  0  0  0  0  0  0  0  0  0  0  0
   -1.5050   20.1350  -31.3490 C   0  0  0  0  0  0  0  0  0  0  0  0
   -1.9330   21.2410  -33.4330 C   0  0  0  0  0  0  0  0  0  0  0  0
   -5.6650   20.4660  -32.0260 C   0  0  0  0  0  0  0  0  0  0  0  0
   -6.1080   21.6380  -31.4760 C   0  0  0  0  0  0  0  0  0  0  0  0
   -2.9770   24.1820  -28.3300 C   0  0  0  0  0  0  0  0  0  0  0  0
   -3.4090   24.9080  -27.4250 O   0  0  0  0  0  0  0  0  0  0  0  0
   -2.3450   24.9050  -29.3750 O   0  0  0  0  0  0  0  0  0  0  0  0
   -2.7269   22.3058  -26.4126 H   0  0  0  0  0  0  0  0  0  0  0  0
   -2.8972   20.8713  -27.4802 H   0  0  0  0  0  0  0  0  0  0  0  0
   -1.3685   21.8144  -27.4802 H   0  0  0  0  0  0  0  0  0  0  0  0
   -3.4547   21.0195  -29.5301 H   0  0  0  0  0  0  0  0  0  0  0  0
   -4.3840   25.3520  -29.3780 H   0  0  0  0  0  0  0  0  0  0  0  0
   -4.8810   26.4300  -30.7940 H   0  0  0  0  0  0  0  0  0  0  0  0
   -8.6531   23.5372  -30.6463 H   0  0  0  0  0  0  0  0  0  0  0  0
   -9.4243   21.1119  -31.8333 H   0  0  0  0  0  0  0  0  0  0  0  0
   -8.5648   19.0028  -32.8312 H   0  0  0  0  0  0  0  0  0  0  0  0
   -6.5170   16.4516  -32.1305 H   0  0  0  0  0  0  0  0  0  0  0  0
   -7.8696   17.3864  -32.8903 H   0  0  0  0  0  0  0  0  0  0  0  0
   -7.7101   16.0835  -34.6882 H   0  0  0  0  0  0  0  0  0  0  0  0
   -6.0723   16.7192  -34.9838 H   0  0  0  0  0  0  0  0  0  0  0  0
   -6.6536   14.5492  -32.9328 H   0  0  0  0  0  0  0  0  0  0  0  0
   -6.2832   14.2179  -34.7010 H   0  0  0  0  0  0  0  0  0  0  0  0
   -5.0352   15.0315  -31.5513 H   0  0  0  0  0  0  0  0  0  0  0  0
   -4.1085   13.6046  -32.1274 H   0  0  0  0  0  0  0  0  0  0  0  0
   -3.3455   15.2308  -32.1274 H   0  0  0  0  0  0  0  0  0  0  0  0
   -2.8163   14.9392  -34.2576 H   0  0  0  0  0  0  0  0  0  0  0  0
   -3.9816   14.0180  -35.2675 H   0  0  0  0  0  0  0  0  0  0  0  0
   -4.0170   15.8139  -35.2675 H   0  0  0  0  0  0  0  0  0  0  0  0
   -4.1657   17.3776  -33.0238 H   0  0  0  0  0  0  0  0  0  0  0  0
   -5.0825   17.6687  -34.6874 H   0  0  0  0  0  0  0  0  0  0  0  0
   -3.4494   18.8760  -35.1679 H   0  0  0  0  0  0  0  0  0  0  0  0
   -4.2288   20.0626  -34.1208 H   0  0  0  0  0  0  0  0  0  0  0  0
   -2.8233   18.1960  -32.3656 H   0  0  0  0  0  0  0  0  0  0  0  0
   -1.6857   18.6168  -33.6988 H   0  0  0  0  0  0  0  0  0  0  0  0
   -2.1481   20.1809  -30.4578 H   0  0  0  0  0  0  0  0  0  0  0  0
   -0.9356   19.1939  -31.3422 H   0  0  0  0  0  0  0  0  0  0  0  0
   -0.8076   20.9856  -31.3422 H   0  0  0  0  0  0  0  0  0  0  0  0
   -1.6102   22.1220  -32.8589 H   0  0  0  0  0  0  0  0  0  0  0  0
   -1.1042   20.8924  -34.0667 H   0  0  0  0  0  0  0  0  0  0  0  0
   -2.7908   21.5105  -34.0667 H   0  0  0  0  0  0  0  0  0  0  0  0
   -4.5789   20.2973  -32.0697 H   0  0  0  0  0  0  0  0  0  0  0  0
   -2.0000   24.3740  -30.1910 H   0  0  0  0  0  0  0  0  0  0  0  0
  1  2  1  0
  2  3  2  0
  3  4  1  0
  4  5  2  0
  4  6  1  0
  6  7  1  0
  7  8  1  0
  8  9  1  0
  8 10  2  0
  7 11  2  0
 11 12  1  0
 12 13  2  0
 13 14  1  0
 14 15  2  0
 15 16  1  0
 16 17  1  0
 17 18  1  0
 18 19  1  0
 19 20  1  0
 20 21  1  0
 20 22  1  0
 16 23  1  0
 23 24  1  0
 24 25  1  0
 25 26  1  0
 26 27  1  0
 26 28  1  0
 15 29  1  0
 29 30  2  0
  2 31  1  0
 31 32  2  0
 31 33  1  0
 30  6  1  0
 30 12  1  0
  1 34  1  0
  1 35  1  0
  1 36  1  0
  3 37  1  0
  9 38  1  0
  9 39  1  0
 11 40  1  0
 13 41  1  0
 14 42  1  0
 17 43  1  0
 17 44  1  0
 18 45  1  0
 18 46  1  0
 19 47  1  0
 19 48  1  0
 21 49  1  0
 21 50  1  0
 21 51  1  0
 22 52  1  0
 22 53  1  0
 22 54  1  0
 23 55  1  0
 23 56  1  0
 24 57  1  0
 24 58  1  0
 25 59  1  0
 25 60  1  0
 27 61  1  0
 27 62  1  0
 27 63  1  0
 28 64  1  0
 28 65  1  0
 28 66  1  0
 29 67  1  0
 33 68  1  0
M  END
>  <smiles>  (75) 
CC(=CC(=O)n1c(C(N)=O)cc2ccc(N(CCCN(C)C)CCCN(C)C)cc21)C(=O)O

>  <score_type>  (75) 
oracle

>  <origin>  (75) 
adg

>  <m_score__min__energy>  (75) 
-9.6899999999999995

>  <m_primary>  (75) 
energy

$$$$
79:0
     RDKit          3D

 47 48  0  0  0  0  0  0  0  0999 V2000
   -3.8880   19.1900  -33.4350 N   0  0  0  0  0  0  0  0  0  0  0  0
   -4.8480   18.1240  -33.2200 C   0  0  0  0  0  0  0  0  0  0  0  0
   -6.1180   18.3770  -34.0220 C   0  0  0  0  0  0  0  0  0  0  0  0
   -7.3470   18.3170  -33.1050 C   0  0  0  0  0  0  0  0  0  0  0  0
   -7.4730   19.6840  -32.5400 C   0  0  0  0  0  0  0  0  0  0  0  0
   -8.7200   20.2290  -32.3590 C   0  0  0  0  0  0  0  0  0  0  0  0
   -8.7780   21.5000  -31.8310 C   0  0  0  0  0  0  0  0  0  0  0  0
   -7.6260   22.1780  -31.5060 C   0  0  0  0  0  0  0  0  0  0  0  0
   -7.4590   23.4140  -30.9670 C   0  0  0  0  0  0  0  0  0  0  0  0
   -6.0750   23.6560  -30.8070 C   0  0  0  0  0  0  0  0  0  0  0  0
   -5.6550   24.9240  -30.2720 C   0  0  0  0  0  0  0  0  0  0  0  0
   -6.0740   25.6020  -29.1140 N   0  0  0  0  0  0  0  0  0  0  0  0
   -4.7420   25.5650  -30.9340 O   0  0  0  0  0  0  0  0  0  0  0  0
   -5.4080   22.5420  -31.2570 N   0  0  0  0  0  0  0  0  0  0  0  0
   -4.0180   22.4130  -31.1340 C   0  0  0  0  0  0  0  0  0  0  0  0
   -3.4980   22.1100  -32.3340 O   0  0  0  0  0  0  0  0  0  0  0  0
   -3.0320   22.4870  -30.1970 N   0  0  0  0  0  0  0  0  0  0  0  0
   -2.9500   22.7460  -28.7920 C   0  0  0  0  0  0  0  0  0  0  0  0
   -3.2500   24.1880  -28.4830 C   0  0  0  0  0  0  0  0  0  0  0  0
   -4.0430   24.5230  -27.5700 O   0  0  0  0  0  0  0  0  0  0  0  0
   -2.6140   25.1400  -29.2490 O   0  0  0  0  0  0  0  0  0  0  0  0
   -1.6260   22.2370  -30.7580 C   0  0  0  0  0  0  0  0  0  0  0  0
   -1.4230   20.7710  -30.8290 C   0  0  0  0  0  0  0  0  0  0  0  0
   -0.6430   20.2250  -30.0000 O   0  0  0  0  0  0  0  0  0  0  0  0
   -2.0960   20.0710  -31.7990 O   0  0  0  0  0  0  0  0  0  0  0  0
   -6.3540   21.6610  -31.6760 C   0  0  0  0  0  0  0  0  0  0  0  0
   -6.3340   20.3860  -32.2060 C   0  0  0  0  0  0  0  0  0  0  0  0
   -2.9300   18.7590  -33.3050 H   0  0  0  0  0  0  0  0  0  0  0  0
   -4.0540   19.9890  -32.8010 H   0  0  0  0  0  0  0  0  0  0  0  0
   -4.4045   17.1686  -33.5370 H   0  0  0  0  0  0  0  0  0  0  0  0
   -5.1047   18.0880  -32.1510 H   0  0  0  0  0  0  0  0  0  0  0  0
   -6.0610   19.3718  -34.4879 H   0  0  0  0  0  0  0  0  0  0  0  0
   -6.2119   17.6028  -34.7977 H   0  0  0  0  0  0  0  0  0  0  0  0
   -8.2462   18.0524  -33.6807 H   0  0  0  0  0  0  0  0  0  0  0  0
   -7.2394   17.5541  -32.3199 H   0  0  0  0  0  0  0  0  0  0  0  0
   -9.6327   19.6751  -32.6240 H   0  0  0  0  0  0  0  0  0  0  0  0
   -9.7553   21.9776  -31.6676 H   0  0  0  0  0  0  0  0  0  0  0  0
   -8.2668   24.1111  -30.6994 H   0  0  0  0  0  0  0  0  0  0  0  0
   -6.4380   26.6020  -29.1430 H   0  0  0  0  0  0  0  0  0  0  0  0
   -6.0540   25.1980  -28.1420 H   0  0  0  0  0  0  0  0  0  0  0  0
   -3.6767   22.1085  -28.2672 H   0  0  0  0  0  0  0  0  0  0  0  0
   -1.9255   22.5253  -28.4576 H   0  0  0  0  0  0  0  0  0  0  0  0
   -3.0910   25.6750  -29.9760 H   0  0  0  0  0  0  0  0  0  0  0  0
   -1.5401   22.6761  -31.7629 H   0  0  0  0  0  0  0  0  0  0  0  0
   -0.8656   22.7002  -30.1120 H   0  0  0  0  0  0  0  0  0  0  0  0
   -2.6370   20.5580  -32.5000 H   0  0  0  0  0  0  0  0  0  0  0  0
   -5.3584   19.9051  -32.3704 H   0  0  0  0  0  0  0  0  0  0  0  0
  1  2  1  0
  2  3  1  0
  3  4  1  0
  4  5  1  0
  5  6  2  0
  6  7  1  0
  7  8  2  0
  8  9  1  0
  9 10  2  0
 10 11  1  0
 11 12  1  0
 11 13  2  0
 10 14  1  0
 14 15  1  0
 15 16  2  0
 15 17  1  0
 17 18  1  0
 18 19  1  0
 19 20  2  0
 19 21  1  0
 17 22  1  0
 22 23  1  0
 23 24  2  0
 23 25  1  0
 14 26  1  0
 26 27  2  0
 27  5  1  0
 26  8  1  0
  1 28  1  0
  1 29  1  0
  2 30  1  0
  2 31  1  0
  3 32  1  0
  3 33  1  0
  4 34  1  0
  4 35  1  0
  6 36  1  0
  7 37  1  0
  9 38  1  0
 12 39  1  0
 12 40  1  0
 18 41  1  0
 18 42  1  0
 21 43  1  0
 22 44  1  0
 22 45  1  0
 25 46  1  0
 27 47  1  0
M  END
>  <smiles>  (76) 
NCCCc1ccc2cc(C(N)=O)n(C(=O)N(CC(=O)O)CC(=O)O)c2c1

>  <score_type>  (76) 
oracle

>  <origin>  (76) 
adg

>  <m_score__min__energy>  (76) 
-8.2300000000000004

>  <m_primary>  (76) 
energy

$$$$
80:0
     RDKit          3D

 45 46  0  0  0  0  0  0  0  0999 V2000
   -2.3520   25.4760  -26.0180 C   0  0  0  0  0  0  0  0  0  0  0  0
   -3.7170   24.9300  -26.3670 C   0  0  0  0  0  0  0  0  0  0  0  0
   -3.6950   24.1150  -27.5130 O   0  0  0  0  0  0  0  0  0  0  0  0
   -2.6570   24.0520  -28.4130 C   0  0  0  0  0  0  0  0  0  0  0  0
   -2.5430   24.9090  -29.3250 O   0  0  0  0  0  0  0  0  0  0  0  0
   -1.6130   22.9680  -28.3630 C   0  0  0  0  0  0  0  0  0  0  0  0
   -1.0230   22.9120  -29.7380 C   0  0  0  0  0  0  0  0  0  0  0  0
   -1.8410   22.1900  -30.7500 C   0  0  0  0  0  0  0  0  0  0  0  0
   -3.1700   22.7680  -30.9070 N   0  0  0  0  0  0  0  0  0  0  0  0
   -4.2790   21.9060  -30.9080 C   0  0  0  0  0  0  0  0  0  0  0  0
   -3.9690   20.6620  -30.7880 O   0  0  0  0  0  0  0  0  0  0  0  0
   -5.6320   22.2610  -31.0320 N   0  0  0  0  0  0  0  0  0  0  0  0
   -6.2660   23.4340  -30.9260 C   0  0  0  0  0  0  0  0  0  0  0  0
   -5.8370   24.7070  -30.3760 C   0  0  0  0  0  0  0  0  0  0  0  0
   -5.3610   24.9320  -29.0620 N   0  0  0  0  0  0  0  0  0  0  0  0
   -5.8930   25.7360  -31.1180 O   0  0  0  0  0  0  0  0  0  0  0  0
   -7.6150   23.2750  -31.3170 C   0  0  0  0  0  0  0  0  0  0  0  0
   -7.7780   21.9730  -31.6560 C   0  0  0  0  0  0  0  0  0  0  0  0
   -8.9100   21.3160  -32.1030 C   0  0  0  0  0  0  0  0  0  0  0  0
   -8.8360   19.9730  -32.3900 C   0  0  0  0  0  0  0  0  0  0  0  0
   -7.6390   19.3150  -32.2270 C   0  0  0  0  0  0  0  0  0  0  0  0
   -7.5630   17.8570  -32.5400 C   0  0  0  0  0  0  0  0  0  0  0  0
   -6.5140   20.0050  -31.7750 C   0  0  0  0  0  0  0  0  0  0  0  0
   -6.5630   21.3630  -31.4780 C   0  0  0  0  0  0  0  0  0  0  0  0
   -2.2432   25.5195  -24.9243 H   0  0  0  0  0  0  0  0  0  0  0  0
   -1.5760   24.8191  -26.4378 H   0  0  0  0  0  0  0  0  0  0  0  0
   -2.2431   26.4869  -26.4378 H   0  0  0  0  0  0  0  0  0  0  0  0
   -4.0864   24.3354  -25.5185 H   0  0  0  0  0  0  0  0  0  0  0  0
   -4.3749   25.7859  -26.5785 H   0  0  0  0  0  0  0  0  0  0  0  0
   -0.8380   23.2154  -27.6226 H   0  0  0  0  0  0  0  0  0  0  0  0
   -2.0450   22.0009  -28.0662 H   0  0  0  0  0  0  0  0  0  0  0  0
   -0.8807   23.9446  -30.0895 H   0  0  0  0  0  0  0  0  0  0  0  0
   -0.0844   22.3461  -29.6444 H   0  0  0  0  0  0  0  0  0  0  0  0
   -1.3214   22.2313  -31.7186 H   0  0  0  0  0  0  0  0  0  0  0  0
   -1.9654   21.1538  -30.4025 H   0  0  0  0  0  0  0  0  0  0  0  0
   -3.2290   23.7740  -31.0490 H   0  0  0  0  0  0  0  0  0  0  0  0
   -4.5820   25.6280  -28.8880 H   0  0  0  0  0  0  0  0  0  0  0  0
   -5.7880   24.3990  -28.2480 H   0  0  0  0  0  0  0  0  0  0  0  0
   -8.3861   24.0591  -31.3415 H   0  0  0  0  0  0  0  0  0  0  0  0
   -9.8575   21.8607  -32.2274 H   0  0  0  0  0  0  0  0  0  0  0  0
   -9.7244   19.4308  -32.7461 H   0  0  0  0  0  0  0  0  0  0  0  0
   -7.5330   17.2819  -31.6028 H   0  0  0  0  0  0  0  0  0  0  0  0
   -8.4469   17.5608  -33.1239 H   0  0  0  0  0  0  0  0  0  0  0  0
   -6.6531   17.6543  -33.1239 H   0  0  0  0  0  0  0  0  0  0  0  0
   -5.5654   19.4621  -31.6505 H   0  0  0  0  0  0  0  0  0  0  0  0
  1  2  1  0
  2  3  1  0
  3  4  1  0
  4  5  2  0
  4  6  1  0
  6  7  1  0
  7  8  1  0
  8  9  1  0
  9 10  1  0
 10 11  2  0
 10 12  1  0
 12 13  1  0
 13 14  1  0
 14 15  1  0
 14 16  2  0
 13 17  2  0
 17 18  1  0
 18 19  2  0
 19 20  1  0
 20 21  2  0
 21 22  1  0
 21 23  1  0
 23 24  2  0
 24 12  1  0
 24 18  1  0
  1 25  1  0
  1 26  1  0
  1 27  1  0
  2 28  1  0
  2 29  1  0
  6 30  1  0
  6 31  1  0
  7 32  1  0
  7 33  1  0
  8 34  1  0
  8 35  1  0
  9 36  1  0
 15 37  1  0
 15 38  1  0
 17 39  1  0
 19 40  1  0
 20 41  1  0
 22 42  1  0
 22 43  1  0
 22 44  1  0
 23 45  1  0
M  END
>  <smiles>  (77) 
CCOC(=O)CCCNC(=O)n1c(C(N)=O)cc2ccc(C)cc21

>  <score_type>  (77) 
oracle

>  <origin>  (77) 
adg

>  <m_score__min__energy>  (77) 
-8.6799999999999997

>  <m_primary>  (77) 
energy

$$$$
81:0
     RDKit          3D

 45 48  0  0  0  0  0  0  0  0999 V2000
   -3.8360   22.1850  -33.5660 N   0  0  0  0  0  0  0  0  0  0  0  0
   -3.6060   21.5800  -32.3140 C   0  0  0  0  0  0  0  0  0  0  0  0
   -3.7490   20.3170  -32.2880 O   0  0  0  0  0  0  0  0  0  0  0  0
   -3.2310   22.2220  -31.0820 C   0  0  0  0  0  0  0  0  0  0  0  0
   -2.0290   21.9230  -30.4320 C   0  0  0  0  0  0  0  0  0  0  0  0
   -1.9190   22.6720  -29.2850 C   0  0  0  0  0  0  0  0  0  0  0  0
   -0.9350   22.7340  -28.3230 C   0  0  0  0  0  0  0  0  0  0  0  0
   -1.0590   23.5820  -27.2470 C   0  0  0  0  0  0  0  0  0  0  0  0
   -2.1940   24.3550  -27.1750 C   0  0  0  0  0  0  0  0  0  0  0  0
   -2.3180   25.2690  -26.0050 C   0  0  0  0  0  0  0  0  0  0  0  0
   -3.6590   25.3420  -25.6650 F   0  0  0  0  0  0  0  0  0  0  0  0
   -1.8820   26.5510  -26.3430 F   0  0  0  0  0  0  0  0  0  0  0  0
   -1.5210   24.8470  -24.9620 F   0  0  0  0  0  0  0  0  0  0  0  0
   -3.1820   24.2840  -28.1530 C   0  0  0  0  0  0  0  0  0  0  0  0
   -3.0730   23.4370  -29.2400 C   0  0  0  0  0  0  0  0  0  0  0  0
   -3.8360   23.1480  -30.3250 N   0  0  0  0  0  0  0  0  0  0  0  0
   -5.0840   23.7690  -30.5650 C   0  0  0  0  0  0  0  0  0  0  0  0
   -5.1590   24.5390  -31.5880 O   0  0  0  0  0  0  0  0  0  0  0  0
   -6.2220   23.6490  -29.8380 O   0  0  0  0  0  0  0  0  0  0  0  0
   -7.2200   22.6790  -30.0090 C   0  0  0  0  0  0  0  0  0  0  0  0
   -7.8910   22.6470  -31.3320 C   0  0  0  0  0  0  0  0  0  0  0  0
   -7.7650   21.2690  -31.8310 N   0  0  0  0  0  0  0  0  0  0  0  0
   -8.8040   20.4120  -31.6360 C   0  0  0  0  0  0  0  0  0  0  0  0
   -8.7320   19.1300  -32.0780 C   0  0  0  0  0  0  0  0  0  0  0  0
   -7.6360   18.6560  -32.7260 C   0  0  0  0  0  0  0  0  0  0  0  0
   -7.2710   17.4730  -33.2690 N   0  0  0  0  0  0  0  0  0  0  0  0
   -6.0410   17.6080  -33.7820 C   0  0  0  0  0  0  0  0  0  0  0  0
   -5.6090   18.8720  -33.5720 N   0  0  0  0  0  0  0  0  0  0  0  0
   -6.5700   19.5310  -32.9270 C   0  0  0  0  0  0  0  0  0  0  0  0
   -6.6580   20.8450  -32.4660 C   0  0  0  0  0  0  0  0  0  0  0  0
   -4.8190   22.5060  -33.7910 H   0  0  0  0  0  0  0  0  0  0  0  0
   -3.0390   22.3000  -34.2490 H   0  0  0  0  0  0  0  0  0  0  0  0
   -1.2829   21.1965  -30.7862 H   0  0  0  0  0  0  0  0  0  0  0  0
   -0.0414   22.0993  -28.4161 H   0  0  0  0  0  0  0  0  0  0  0  0
   -0.2794   23.6396  -26.4731 H   0  0  0  0  0  0  0  0  0  0  0  0
   -4.0746   24.9198  -28.0582 H   0  0  0  0  0  0  0  0  0  0  0  0
   -6.7604   21.6935  -29.8433 H   0  0  0  0  0  0  0  0  0  0  0  0
   -8.0085   22.9418  -29.2884 H   0  0  0  0  0  0  0  0  0  0  0  0
   -8.9520   22.9175  -31.2266 H   0  0  0  0  0  0  0  0  0  0  0  0
   -7.4330   23.3654  -32.0278 H   0  0  0  0  0  0  0  0  0  0  0  0
   -9.7089   20.7603  -31.1165 H   0  0  0  0  0  0  0  0  0  0  0  0
   -9.5847   18.4566  -31.9066 H   0  0  0  0  0  0  0  0  0  0  0  0
   -5.4728   16.8166  -34.2928 H   0  0  0  0  0  0  0  0  0  0  0  0
   -4.6670   19.2070  -33.8900 H   0  0  0  0  0  0  0  0  0  0  0  0
   -5.8178   21.5375  -32.6227 H   0  0  0  0  0  0  0  0  0  0  0  0
  1  2  1  0
  2  3  2  0
  2  4  1  0
  4  5  2  0
  5  6  1  0
  6  7  2  0
  7  8  1  0
  8  9  2  0
  9 10  1  0
 10 11  1  0
 10 12  1  0
 10 13  1  0
  9 14  1  0
 14 15  2  0
 15 16  1  0
 16 17  1  0
 17 18  2  0
 17 19  1  0
 19 20  1  0
 20 21  1  0
 21 22  1  0
 22 23  2  0
 23 24  1  0
 24 25  2  0
 25 26  1  0
 26 27  2  0
 27 28  1  0
 28 29  1  0
 29 30  2  0
 16  4  1  0
 30 22  1  0
 15  6  1  0
 29 25  1  0
  1 31  1  0
  1 32  1  0
  5 33  1  0
  7 34  1  0
  8 35  1  0
 14 36  1  0
 20 37  1  0
 20 38  1  0
 21 39  1  0
 21 40  1  0
 23 41  1  0
 24 42  1  0
 27 43  1  0
 28 44  1  0
 30 45  1  0
M  CHG  1  22   1
M  END
>  <smiles>  (78) 
NC(=O)c1cc2ccc(C(F)(F)F)cc2n1C(=O)OCC[n+]1ccc2nc[nH]c2c1

>  <score_type>  (78) 
oracle

>  <origin>  (78) 
adg

>  <m_score__min__energy>  (78) 
-8.4499999999999993

>  <m_primary>  (78) 
energy

$$$$
82:0
     RDKit          3D

 40 41  0  0  1  0  0  0  0  0999 V2000
   -6.6590   17.9870  -31.3270 C   0  0  0  0  0  0  0  0  0  0  0  0
   -7.2000   17.8430  -32.7190 C   0  0  1  0  0  0  0  0  0  0  0  0
   -8.1450   18.8780  -33.0670 N   0  0  0  0  0  0  0  0  0  0  0  0
   -8.0620   20.1700  -32.4630 C   0  0  0  0  0  0  0  0  0  0  0  0
   -9.1880   20.7970  -31.9870 C   0  0  0  0  0  0  0  0  0  0  0  0
   -9.0390   22.0310  -31.4140 C   0  0  0  0  0  0  0  0  0  0  0  0
   -7.7980   22.6180  -31.3200 C   0  0  0  0  0  0  0  0  0  0  0  0
   -7.4130   23.8100  -30.8020 C   0  0  0  0  0  0  0  0  0  0  0  0
   -6.0180   23.9660  -30.9390 C   0  0  0  0  0  0  0  0  0  0  0  0
   -5.3690   25.1600  -30.4620 C   0  0  0  0  0  0  0  0  0  0  0  0
   -5.9810   25.9300  -29.3750 N   0  0  0  0  0  0  0  0  0  0  0  0
   -4.3000   25.6740  -30.8510 O   0  0  0  0  0  0  0  0  0  0  0  0
   -5.5700   22.8400  -31.5520 N   0  0  0  0  0  0  0  0  0  0  0  0
   -4.2210   22.6010  -31.8730 C   0  0  0  0  0  0  0  0  0  0  0  0
   -3.3840   23.3990  -31.3000 O   0  0  0  0  0  0  0  0  0  0  0  0
   -3.6160   21.6330  -32.7210 C   0  0  0  0  0  0  0  0  0  0  0  0
   -3.6630   20.3390  -32.3060 C   0  0  0  0  0  0  0  0  0  0  0  0
   -3.0510   19.2930  -33.1500 C   0  0  0  0  0  0  0  0  0  0  0  0
   -2.2450   18.4620  -32.6600 O   0  0  0  0  0  0  0  0  0  0  0  0
   -3.3340   19.1800  -34.5030 O   0  0  0  0  0  0  0  0  0  0  0  0
   -6.6370   22.0190  -31.7870 C   0  0  0  0  0  0  0  0  0  0  0  0
   -6.8100   20.7800  -32.3590 C   0  0  0  0  0  0  0  0  0  0  0  0
   -6.0580   17.9440  -33.6920 C   0  0  0  0  0  0  0  0  0  0  0  0
   -6.0730   18.8170  -34.6160 O   0  0  0  0  0  0  0  0  0  0  0  0
   -4.9800   17.0870  -33.5890 O   0  0  0  0  0  0  0  0  0  0  0  0
   -7.4566   17.7747  -30.5998 H   0  0  0  0  0  0  0  0  0  0  0  0
   -5.8309   17.2780  -31.1803 H   0  0  0  0  0  0  0  0  0  0  0  0
   -6.2929   19.0139  -31.1803 H   0  0  0  0  0  0  0  0  0  0  0  0
   -7.7141   16.8715  -32.7629 H   0  0  0  0  0  0  0  0  0  0  0  0
   -8.9060   18.6930  -33.7680 H   0  0  0  0  0  0  0  0  0  0  0  0
  -10.1774   20.3225  -32.0639 H   0  0  0  0  0  0  0  0  0  0  0  0
   -9.9214   22.5596  -31.0242 H   0  0  0  0  0  0  0  0  0  0  0  0
   -8.0886   24.5466  -30.3427 H   0  0  0  0  0  0  0  0  0  0  0  0
   -6.6740   26.6760  -29.6260 H   0  0  0  0  0  0  0  0  0  0  0  0
   -5.7190   25.7260  -28.3860 H   0  0  0  0  0  0  0  0  0  0  0  0
   -3.1330   21.9174  -33.6675 H   0  0  0  0  0  0  0  0  0  0  0  0
   -4.1498   20.0751  -31.3555 H   0  0  0  0  0  0  0  0  0  0  0  0
   -4.0850   18.5900  -34.8240 H   0  0  0  0  0  0  0  0  0  0  0  0
   -5.9289   20.2496  -32.7493 H   0  0  0  0  0  0  0  0  0  0  0  0
   -4.0520   17.4680  -33.4060 H   0  0  0  0  0  0  0  0  0  0  0  0
  1  2  1  0
  2  3  1  0
  3  4  1  0
  4  5  2  0
  5  6  1  0
  6  7  2  0
  7  8  1  0
  8  9  2  0
  9 10  1  0
 10 11  1  0
 10 12  2  0
  9 13  1  0
 13 14  1  0
 14 15  2  0
 14 16  1  0
 16 17  2  0
 17 18  1  0
 18 19  2  0
 18 20  1  0
 13 21  1  0
 21 22  2  0
  2 23  1  0
 23 24  2  0
 23 25  1  0
 22  4  1  0
 21  7  1  0
  1 26  1  0
  1 27  1  0
  1 28  1  0
  2 29  1  1
  3 30  1  0
  5 31  1  0
  6 32  1  0
  8 33  1  0
 11 34  1  0
 11 35  1  0
 16 36  1  0
 17 37  1  0
 20 38  1  0
 22 39  1  0
 25 40  1  0
M  END
>  <smiles>  (79) 
CC(Nc1ccc2cc(C(N)=O)n(C(=O)C=CC(=O)O)c2c1)C(=O)O

>  <score_type>  (79) 
oracle

>  <origin>  (79) 
adg

>  <m_score__min__energy>  (79) 
-9.6799999999999997

>  <m_primary>  (79) 
energy

$$$$
83:0
     RDKit          3D

 37 38  0  0  0  0  0  0  0  0999 V2000
   -2.6860   24.7730  -29.4720 N   0  0  0  0  0  0  0  0  0  0  0  0
   -1.6200   24.0690  -28.7840 C   0  0  0  0  0  0  0  0  0  0  0  0
   -0.9750   23.1320  -29.8080 C   0  0  0  0  0  0  0  0  0  0  0  0
   -1.9950   22.0680  -30.1030 C   0  0  0  0  0  0  0  0  0  0  0  0
   -3.1560   22.6110  -30.7270 O   0  0  0  0  0  0  0  0  0  0  0  0
   -4.2810   21.8410  -30.7570 C   0  0  0  0  0  0  0  0  0  0  0  0
   -4.0910   20.5850  -30.5710 O   0  0  0  0  0  0  0  0  0  0  0  0
   -5.6060   22.3020  -30.9710 N   0  0  0  0  0  0  0  0  0  0  0  0
   -6.0720   23.5500  -30.7620 C   0  0  0  0  0  0  0  0  0  0  0  0
   -5.4200   24.7340  -30.2860 C   0  0  0  0  0  0  0  0  0  0  0  0
   -5.7330   25.2230  -28.9590 N   0  0  0  0  0  0  0  0  0  0  0  0
   -4.5780   25.4280  -30.9030 O   0  0  0  0  0  0  0  0  0  0  0  0
   -7.4250   23.5190  -31.1120 C   0  0  0  0  0  0  0  0  0  0  0  0
   -7.7700   22.2580  -31.5300 C   0  0  0  0  0  0  0  0  0  0  0  0
   -8.9740   21.7310  -31.9720 C   0  0  0  0  0  0  0  0  0  0  0  0
   -9.0380   20.4030  -32.3370 C   0  0  0  0  0  0  0  0  0  0  0  0
   -7.9040   19.6230  -32.2550 C   0  0  0  0  0  0  0  0  0  0  0  0
   -7.9590   18.1920  -32.6440 C   0  0  0  0  0  0  0  0  0  0  0  0
   -7.0860   17.4980  -31.8290 F   0  0  0  0  0  0  0  0  0  0  0  0
   -6.7110   20.1840  -31.8070 C   0  0  0  0  0  0  0  0  0  0  0  0
   -6.6160   21.5110  -31.4340 C   0  0  0  0  0  0  0  0  0  0  0  0
   -3.5730   24.2820  -29.2640 H   0  0  0  0  0  0  0  0  0  0  0  0
   -2.4930   24.6980  -30.4950 H   0  0  0  0  0  0  0  0  0  0  0  0
   -0.8762   24.7854  -28.4051 H   0  0  0  0  0  0  0  0  0  0  0  0
   -2.0106   23.5048  -27.9243 H   0  0  0  0  0  0  0  0  0  0  0  0
   -0.7239   23.6845  -30.7255 H   0  0  0  0  0  0  0  0  0  0  0  0
   -0.0418   22.6967  -29.4213 H   0  0  0  0  0  0  0  0  0  0  0  0
   -1.5466   21.3200  -30.7733 H   0  0  0  0  0  0  0  0  0  0  0  0
   -2.2994   21.6103  -29.1502 H   0  0  0  0  0  0  0  0  0  0  0  0
   -4.9940   25.6720  -28.3610 H   0  0  0  0  0  0  0  0  0  0  0  0
   -6.7280   25.1140  -28.6030 H   0  0  0  0  0  0  0  0  0  0  0  0
   -8.1110   24.3773  -31.0601 H   0  0  0  0  0  0  0  0  0  0  0  0
   -9.8698   22.3666  -32.0309 H   0  0  0  0  0  0  0  0  0  0  0  0
   -9.9852   19.9697  -32.6905 H   0  0  0  0  0  0  0  0  0  0  0  0
   -8.9809   17.8073  -32.5109 H   0  0  0  0  0  0  0  0  0  0  0  0
   -7.6769   18.0703  -33.7002 H   0  0  0  0  0  0  0  0  0  0  0  0
   -5.8143   19.5496  -31.7481 H   0  0  0  0  0  0  0  0  0  0  0  0
  1  2  1  0
  2  3  1  0
  3  4  1  0
  4  5  1  0
  5  6  1  0
  6  7  2  0
  6  8  1  0
  8  9  1  0
  9 10  1  0
 10 11  1  0
 10 12  2  0
  9 13  2  0
 13 14  1  0
 14 15  2  0
 15 16  1  0
 16 17  2  0
 17 18  1  0
 18 19  1  0
 17 20  1  0
 20 21  2  0
 21  8  1  0
 21 14  1  0
  1 22  1  0
  1 23  1  0
  2 24  1  0
  2 25  1  0
  3 26  1  0
  3 27  1  0
  4 28  1  0
  4 29  1  0
 11 30  1  0
 11 31  1  0
 13 32  1  0
 15 33  1  0
 16 34  1  0
 18 35  1  0
 18 36  1  0
 20 37  1  0
M  END
>  <smiles>  (80) 
NCCCOC(=O)n1c(C(N)=O)cc2ccc(CF)cc21

>  <score_type>  (80) 
oracle

>  <origin>  (80) 
adg

>  <m_score__min__energy>  (80) 
-7.8300000000000001

>  <m_primary>  (80) 
energy

$$$$
84:0
     RDKit          3D

 39 40  0  0  0  0  0  0  0  0999 V2000
   -2.3510   25.3600  -26.0480 C   0  0  0  0  0  0  0  0  0  0  0  0
   -1.3680   25.2740  -26.9410 C   0  0  0  0  0  0  0  0  0  0  0  0
    0.0070   25.5760  -26.5430 C   0  0  0  0  0  0  0  0  0  0  0  0
   -1.7130   24.8720  -28.3030 C   0  0  0  0  0  0  0  0  0  0  0  0
   -1.4770   25.6710  -29.2470 O   0  0  0  0  0  0  0  0  0  0  0  0
   -2.2900   23.6270  -28.5400 O   0  0  0  0  0  0  0  0  0  0  0  0
   -1.9440   22.8650  -29.7070 C   0  0  0  0  0  0  0  0  0  0  0  0
   -2.7020   23.3450  -30.8230 O   0  0  0  0  0  0  0  0  0  0  0  0
   -3.5650   22.3950  -31.4080 C   0  0  0  0  0  0  0  0  0  0  0  0
   -2.9770   21.4010  -31.8860 O   0  0  0  0  0  0  0  0  0  0  0  0
   -4.9590   22.6190  -31.4120 N   0  0  0  0  0  0  0  0  0  0  0  0
   -5.5950   23.7520  -31.0780 C   0  0  0  0  0  0  0  0  0  0  0  0
   -5.1180   25.0340  -30.6310 C   0  0  0  0  0  0  0  0  0  0  0  0
   -3.8480   25.3430  -30.0980 N   0  0  0  0  0  0  0  0  0  0  0  0
   -5.9100   26.0460  -30.7080 O   0  0  0  0  0  0  0  0  0  0  0  0
   -6.9580   23.4820  -31.2420 C   0  0  0  0  0  0  0  0  0  0  0  0
   -7.1330   22.2010  -31.6720 C   0  0  0  0  0  0  0  0  0  0  0  0
   -8.2670   21.4760  -31.9730 C   0  0  0  0  0  0  0  0  0  0  0  0
   -8.1660   20.1680  -32.3950 C   0  0  0  0  0  0  0  0  0  0  0  0
   -6.9150   19.6030  -32.5100 C   0  0  0  0  0  0  0  0  0  0  0  0
   -6.7790   18.1830  -32.9690 C   0  0  0  0  0  0  0  0  0  0  0  0
   -6.3730   18.1690  -34.2880 F   0  0  0  0  0  0  0  0  0  0  0  0
   -5.8100   17.5630  -32.1880 F   0  0  0  0  0  0  0  0  0  0  0  0
   -7.9510   17.4760  -32.7600 F   0  0  0  0  0  0  0  0  0  0  0  0
   -5.7840   20.3590  -32.1990 C   0  0  0  0  0  0  0  0  0  0  0  0
   -5.8640   21.6640  -31.7760 C   0  0  0  0  0  0  0  0  0  0  0  0
   -3.3855   25.1333  -26.3453 H   0  0  0  0  0  0  0  0  0  0  0  0
   -2.1290   25.6578  -25.0126 H   0  0  0  0  0  0  0  0  0  0  0  0
    0.0760   25.5912  -25.4453 H   0  0  0  0  0  0  0  0  0  0  0  0
    0.6821   24.8047  -26.9422 H   0  0  0  0  0  0  0  0  0  0  0  0
    0.2967   26.5592  -26.9422 H   0  0  0  0  0  0  0  0  0  0  0  0
   -0.8699   22.9782  -29.9155 H   0  0  0  0  0  0  0  0  0  0  0  0
   -2.1702   21.8022  -29.5356 H   0  0  0  0  0  0  0  0  0  0  0  0
   -3.0920   25.6320  -30.7890 H   0  0  0  0  0  0  0  0  0  0  0  0
   -3.6420   25.2990  -29.0560 H   0  0  0  0  0  0  0  0  0  0  0  0
   -7.7699   24.1993  -31.0516 H   0  0  0  0  0  0  0  0  0  0  0  0
   -9.2575   21.9444  -31.8757 H   0  0  0  0  0  0  0  0  0  0  0  0
   -9.0678   19.5858  -32.6356 H   0  0  0  0  0  0  0  0  0  0  0  0
   -4.7922   19.8933  -32.2960 H   0  0  0  0  0  0  0  0  0  0  0  0
  1  2  2  0
  2  3  1  0
  2  4  1  0
  4  5  2  0
  4  6  1  0
  6  7  1  0
  7  8  1  0
  8  9  1  0
  9 10  2  0
  9 11  1  0
 11 12  1  0
 12 13  1  0
 13 14  1  0
 13 15  2  0
 12 16  2  0
 16 17  1  0
 17 18  2  0
 18 19  1  0
 19 20  2  0
 20 21  1  0
 21 22  1  0
 21 23  1  0
 21 24  1  0
 20 25  1  0
 25 26  2  0
 26 11  1  0
 26 17  1  0
  1 27  1  0
  1 28  1  0
  3 29  1  0
  3 30  1  0
  3 31  1  0
  7 32  1  0
  7 33  1  0
 14 34  1  0
 14 35  1  0
 16 36  1  0
 18 37  1  0
 19 38  1  0
 25 39  1  0
M  END
>  <smiles>  (81) 
C=C(C)C(=O)OCOC(=O)n1c(C(N)=O)cc2ccc(C(F)(F)F)cc21

>  <score_type>  (81) 
oracle

>  <origin>  (81) 
adg

>  <m_score__min__energy>  (81) 
-8.8900000000000006

>  <m_primary>  (81) 
energy

$$$$
85:0
     RDKit          3D

 40 42  0  0  0  0  0  0  0  0999 V2000
   -8.6730   18.6000  -31.6380 C   0  0  0  0  0  0  0  0  0  0  0  0
   -9.1130   19.7000  -32.2550 C   0  0  0  0  0  0  0  0  0  0  0  0
   -8.9150   21.0140  -31.5620 C   0  0  0  0  0  0  0  0  0  0  0  0
   -8.1120   21.8820  -32.3450 O   0  0  0  0  0  0  0  0  0  0  0  0
   -7.2680   22.8050  -31.6870 C   0  0  0  0  0  0  0  0  0  0  0  0
   -7.8730   23.7980  -31.2140 O   0  0  0  0  0  0  0  0  0  0  0  0
   -5.8880   22.5690  -31.6080 N   0  0  0  0  0  0  0  0  0  0  0  0
   -4.9600   23.3930  -31.1270 C   0  0  0  0  0  0  0  0  0  0  0  0
   -5.0540   24.7240  -30.5580 C   0  0  0  0  0  0  0  0  0  0  0  0
   -6.1320   25.0460  -29.6510 N   0  0  0  0  0  0  0  0  0  0  0  0
   -4.2640   25.6700  -30.7800 O   0  0  0  0  0  0  0  0  0  0  0  0
   -3.7270   22.7380  -31.2500 C   0  0  0  0  0  0  0  0  0  0  0  0
   -3.9240   21.5020  -31.8150 C   0  0  0  0  0  0  0  0  0  0  0  0
   -3.0460   20.4910  -32.1410 C   0  0  0  0  0  0  0  0  0  0  0  0
   -3.5300   19.3320  -32.7100 C   0  0  0  0  0  0  0  0  0  0  0  0
   -4.8820   19.2060  -32.9430 C   0  0  0  0  0  0  0  0  0  0  0  0
   -5.3880   18.0220  -33.5270 N   0  0  0  0  0  0  0  0  0  0  0  0
   -5.4220   16.6280  -33.1260 C   0  0  0  0  0  0  0  0  0  0  0  0
   -6.7570   16.5560  -33.8760 C   0  0  0  0  0  0  0  0  0  0  0  0
   -6.9780   15.3670  -34.5540 O   0  0  0  0  0  0  0  0  0  0  0  0
   -6.0810   17.6260  -34.7380 C   0  0  0  0  0  0  0  0  0  0  0  0
   -5.7390   20.2450  -32.6030 C   0  0  0  0  0  0  0  0  0  0  0  0
   -5.2880   21.4180  -32.0320 C   0  0  0  0  0  0  0  0  0  0  0  0
   -8.7988   17.6156  -32.1126 H   0  0  0  0  0  0  0  0  0  0  0  0
   -8.1849   18.6785  -30.6554 H   0  0  0  0  0  0  0  0  0  0  0  0
   -9.6037   19.6434  -33.2378 H   0  0  0  0  0  0  0  0  0  0  0  0
   -9.8952   21.4839  -31.3937 H   0  0  0  0  0  0  0  0  0  0  0  0
   -8.4065   20.8332  -30.6035 H   0  0  0  0  0  0  0  0  0  0  0  0
   -6.9250   25.5680  -30.0860 H   0  0  0  0  0  0  0  0  0  0  0  0
   -6.0970   24.7680  -28.6430 H   0  0  0  0  0  0  0  0  0  0  0  0
   -2.7543   23.1494  -30.9423 H   0  0  0  0  0  0  0  0  0  0  0  0
   -1.9692   20.6075  -31.9491 H   0  0  0  0  0  0  0  0  0  0  0  0
   -2.8427   18.5152  -32.9755 H   0  0  0  0  0  0  0  0  0  0  0  0
   -4.6191   16.0042  -33.5459 H   0  0  0  0  0  0  0  0  0  0  0  0
   -5.3146   16.3113  -32.0781 H   0  0  0  0  0  0  0  0  0  0  0  0
   -7.7418   16.6516  -33.3954 H   0  0  0  0  0  0  0  0  0  0  0  0
   -6.8120   14.5950  -33.9500 H   0  0  0  0  0  0  0  0  0  0  0  0
   -5.4332   17.2370  -35.5374 H   0  0  0  0  0  0  0  0  0  0  0  0
   -6.6524   18.3382  -35.3513 H   0  0  0  0  0  0  0  0  0  0  0  0
   -6.8157   20.1288  -32.7957 H   0  0  0  0  0  0  0  0  0  0  0  0
  1  2  2  0
  2  3  1  0
  3  4  1  0
  4  5  1  0
  5  6  2  0
  5  7  1  0
  7  8  1  0
  8  9  1  0
  9 10  1  0
  9 11  2  0
  8 12  2  0
 12 13  1  0
 13 14  2  0
 14 15  1  0
 15 16  2  0
 16 17  1  0
 17 18  1  0
 18 19  1  0
 19 20  1  0
 19 21  1  0
 16 22  1  0
 22 23  2  0
 23  7  1  0
 23 13  1  0
 21 17  1  0
  1 24  1  0
  1 25  1  0
  2 26  1  0
  3 27  1  0
  3 28  1  0
 10 29  1  0
 10 30  1  0
 12 31  1  0
 14 32  1  0
 15 33  1  0
 18 34  1  0
 18 35  1  0
 19 36  1  0
 20 37  1  0
 21 38  1  0
 21 39  1  0
 22 40  1  0
M  END
>  <smiles>  (82) 
C=CCOC(=O)n1c(C(N)=O)cc2ccc(N3CC(O)C3)cc21

>  <score_type>  (82) 
oracle

>  <origin>  (82) 
adg

>  <m_score__min__energy>  (82) 
-7.71

>  <m_primary>  (82) 
energy

$$$$
86:0
     RDKit          3D

 38 39  0  0  0  0  0  0  0  0999 V2000
   -7.1230   18.0730  -32.9860 C   0  0  0  0  0  0  0  0  0  0  0  0
   -7.4050   19.4220  -32.4140 C   0  0  0  0  0  0  0  0  0  0  0  0
   -8.7110   19.7580  -32.1330 C   0  0  0  0  0  0  0  0  0  0  0  0
   -8.9500   21.0070  -31.6050 C   0  0  0  0  0  0  0  0  0  0  0  0
   -7.9030   21.8760  -31.3750 C   0  0  0  0  0  0  0  0  0  0  0  0
   -7.9270   23.1400  -30.8660 C   0  0  0  0  0  0  0  0  0  0  0  0
   -6.5900   23.5880  -30.8390 C   0  0  0  0  0  0  0  0  0  0  0  0
   -6.3230   24.9450  -30.4000 C   0  0  0  0  0  0  0  0  0  0  0  0
   -6.6320   25.5010  -29.1400 N   0  0  0  0  0  0  0  0  0  0  0  0
   -5.7390   25.7300  -31.2190 O   0  0  0  0  0  0  0  0  0  0  0  0
   -5.7760   22.6330  -31.3070 N   0  0  0  0  0  0  0  0  0  0  0  0
   -4.3890   22.4880  -31.3220 C   0  0  0  0  0  0  0  0  0  0  0  0
   -3.7710   22.9880  -32.3300 O   0  0  0  0  0  0  0  0  0  0  0  0
   -3.5240   21.8370  -30.3630 C   0  0  0  0  0  0  0  0  0  0  0  0
   -3.7870   20.7480  -29.7770 O   0  0  0  0  0  0  0  0  0  0  0  0
   -2.2500   22.4030  -29.9880 N   0  0  0  0  0  0  0  0  0  0  0  0
   -0.9870   21.8720  -30.4320 C   0  0  0  0  0  0  0  0  0  0  0  0
   -2.1930   23.5770  -29.1120 C   0  0  0  0  0  0  0  0  0  0  0  0
   -3.4190   24.3830  -29.2590 C   0  0  0  0  0  0  0  0  0  0  0  0
   -4.3760   24.2250  -28.4350 O   0  0  0  0  0  0  0  0  0  0  0  0
   -3.4830   25.2930  -30.3040 O   0  0  0  0  0  0  0  0  0  0  0  0
   -6.6010   21.5780  -31.6410 C   0  0  0  0  0  0  0  0  0  0  0  0
   -6.3570   20.3190  -32.1720 C   0  0  0  0  0  0  0  0  0  0  0  0
   -6.9724   17.3524  -32.1687 H   0  0  0  0  0  0  0  0  0  0  0  0
   -7.9735   17.7523  -33.6055 H   0  0  0  0  0  0  0  0  0  0  0  0
   -6.2152   18.1199  -33.6055 H   0  0  0  0  0  0  0  0  0  0  0  0
   -9.5339   19.0534  -32.3237 H   0  0  0  0  0  0  0  0  0  0  0  0
   -9.9791   21.3132  -31.3657 H   0  0  0  0  0  0  0  0  0  0  0  0
   -8.8153   23.7010  -30.5400 H   0  0  0  0  0  0  0  0  0  0  0  0
   -6.4570   24.8720  -28.3020 H   0  0  0  0  0  0  0  0  0  0  0  0
   -7.0100   26.4630  -29.0000 H   0  0  0  0  0  0  0  0  0  0  0  0
   -0.3707   21.6129  -29.5585 H   0  0  0  0  0  0  0  0  0  0  0  0
   -1.1609   20.9708  -31.0383 H   0  0  0  0  0  0  0  0  0  0  0  0
   -0.4647   22.6267  -31.0383 H   0  0  0  0  0  0  0  0  0  0  0  0
   -2.0989   23.2463  -28.0671 H   0  0  0  0  0  0  0  0  0  0  0  0
   -1.3244   24.1912  -29.3916 H   0  0  0  0  0  0  0  0  0  0  0  0
   -3.6980   24.9220  -31.2350 H   0  0  0  0  0  0  0  0  0  0  0  0
   -5.3244   20.0211  -32.4064 H   0  0  0  0  0  0  0  0  0  0  0  0
  1  2  1  0
  2  3  2  0
  3  4  1  0
  4  5  2  0
  5  6  1  0
  6  7  2  0
  7  8  1  0
  8  9  1  0
  8 10  2  0
  7 11  1  0
 11 12  1  0
 12 13  2  0
 12 14  1  0
 14 15  2  0
 14 16  1  0
 16 17  1  0
 16 18  1  0
 18 19  1  0
 19 20  2  0
 19 21  1  0
 11 22  1  0
 22 23  2  0
 23  2  1  0
 22  5  1  0
  1 24  1  0
  1 25  1  0
  1 26  1  0
  3 27  1  0
  4 28  1  0
  6 29  1  0
  9 30  1  0
  9 31  1  0
 17 32  1  0
 17 33  1  0
 17 34  1  0
 18 35  1  0
 18 36  1  0
 21 37  1  0
 23 38  1  0
M  END
>  <smiles>  (83) 
Cc1ccc2cc(C(N)=O)n(C(=O)C(=O)N(C)CC(=O)O)c2c1

>  <score_type>  (83) 
oracle

>  <origin>  (83) 
adg

>  <m_score__min__energy>  (83) 
-9.1799999999999997

>  <m_primary>  (83) 
energy

$$$$
87:0
     RDKit          3D

 37 38  0  0  0  0  0  0  0  0999 V2000
   -6.3920   17.1010  -32.8090 C   0  0  0  0  0  0  0  0  0  0  0  0
   -6.3240   18.3790  -33.4930 N   0  0  0  0  0  0  0  0  0  0  0  0
   -5.7620   18.5050  -34.8200 C   0  0  0  0  0  0  0  0  0  0  0  0
   -6.8320   19.5250  -32.8120 C   0  0  0  0  0  0  0  0  0  0  0  0
   -8.1930   19.6800  -32.7160 C   0  0  0  0  0  0  0  0  0  0  0  0
   -8.6590   20.7950  -32.0550 C   0  0  0  0  0  0  0  0  0  0  0  0
   -7.7730   21.7040  -31.5190 C   0  0  0  0  0  0  0  0  0  0  0  0
   -7.9790   22.8620  -30.8350 C   0  0  0  0  0  0  0  0  0  0  0  0
   -6.7580   23.4510  -30.4910 C   0  0  0  0  0  0  0  0  0  0  0  0
   -6.7190   24.7110  -29.8040 C   0  0  0  0  0  0  0  0  0  0  0  0
   -5.6100   24.9730  -28.8990 N   0  0  0  0  0  0  0  0  0  0  0  0
   -7.5360   25.6540  -29.8780 O   0  0  0  0  0  0  0  0  0  0  0  0
   -5.8040   22.6380  -30.9680 N   0  0  0  0  0  0  0  0  0  0  0  0
   -4.3970   22.6520  -30.7740 C   0  0  0  0  0  0  0  0  0  0  0  0
   -3.7080   22.9050  -31.7710 O   0  0  0  0  0  0  0  0  0  0  0  0
   -3.7290   22.3860  -29.5210 C   0  0  0  0  0  0  0  0  0  0  0  0
   -2.9130   23.2450  -28.9580 C   0  0  0  0  0  0  0  0  0  0  0  0
   -2.5360   24.5410  -29.4280 C   0  0  0  0  0  0  0  0  0  0  0  0
   -1.5230   25.2150  -29.2670 O   0  0  0  0  0  0  0  0  0  0  0  0
   -3.5120   25.1910  -30.2420 O   0  0  0  0  0  0  0  0  0  0  0  0
   -6.4010   21.5710  -31.6010 C   0  0  0  0  0  0  0  0  0  0  0  0
   -5.9420   20.4550  -32.2640 C   0  0  0  0  0  0  0  0  0  0  0  0
   -6.3832   17.2662  -31.7215 H   0  0  0  0  0  0  0  0  0  0  0  0
   -7.3190   16.5817  -33.0935 H   0  0  0  0  0  0  0  0  0  0  0  0
   -5.5253   16.4863  -33.0935 H   0  0  0  0  0  0  0  0  0  0  0  0
   -4.6912   18.7451  -34.7434 H   0  0  0  0  0  0  0  0  0  0  0  0
   -5.8872   17.5565  -35.3628 H   0  0  0  0  0  0  0  0  0  0  0  0
   -6.2802   19.3093  -35.3628 H   0  0  0  0  0  0  0  0  0  0  0  0
   -8.8842   18.9425  -33.1500 H   0  0  0  0  0  0  0  0  0  0  0  0
   -9.7419   20.9603  -31.9547 H   0  0  0  0  0  0  0  0  0  0  0  0
   -8.9672   23.2768  -30.5873 H   0  0  0  0  0  0  0  0  0  0  0  0
   -5.7220   24.5660  -27.9450 H   0  0  0  0  0  0  0  0  0  0  0  0
   -4.7830   25.5290  -29.2120 H   0  0  0  0  0  0  0  0  0  0  0  0
   -3.9120   21.4245  -29.0189 H   0  0  0  0  0  0  0  0  0  0  0  0
   -2.4628   22.9284  -28.0056 H   0  0  0  0  0  0  0  0  0  0  0  0
   -3.5350   24.9200  -31.2380 H   0  0  0  0  0  0  0  0  0  0  0  0
   -4.8588   20.2921  -32.3644 H   0  0  0  0  0  0  0  0  0  0  0  0
  1  2  1  0
  2  3  1  0
  2  4  1  0
  4  5  2  0
  5  6  1  0
  6  7  2  0
  7  8  1  0
  8  9  2  0
  9 10  1  0
 10 11  1  0
 10 12  2  0
  9 13  1  0
 13 14  1  0
 14 15  2  0
 14 16  1  0
 16 17  2  0
 17 18  1  0
 18 19  2  0
 18 20  1  0
 13 21  1  0
 21 22  2  0
 22  4  1  0
 21  7  1  0
  1 23  1  0
  1 24  1  0
  1 25  1  0
  3 26  1  0
  3 27  1  0
  3 28  1  0
  5 29  1  0
  6 30  1  0
  8 31  1  0
 11 32  1  0
 11 33  1  0
 16 34  1  0
 17 35  1  0
 20 36  1  0
 22 37  1  0
M  END
>  <smiles>  (84) 
CN(C)c1ccc2cc(C(N)=O)n(C(=O)/C=C\C(=O)O)c2c1

>  <score_type>  (84) 
oracle

>  <origin>  (84) 
adg

>  <m_score__min__energy>  (84) 
-8.7899999999999991

>  <m_primary>  (84) 
energy

$$$$
88:0
     RDKit          3D

 35 36  0  0  0  0  0  0  0  0999 V2000
   -6.8480   16.9630  -33.5930 C   0  0  0  0  0  0  0  0  0  0  0  0
   -6.8990   18.0790  -33.1380 C   0  0  0  0  0  0  0  0  0  0  0  0
   -6.9710   19.4050  -32.5940 C   0  0  0  0  0  0  0  0  0  0  0  0
   -8.1970   20.0250  -32.5260 C   0  0  0  0  0  0  0  0  0  0  0  0
   -8.2600   21.2980  -32.0030 C   0  0  0  0  0  0  0  0  0  0  0  0
   -7.1160   21.9250  -31.5600 C   0  0  0  0  0  0  0  0  0  0  0  0
   -6.9070   23.1680  -31.0060 C   0  0  0  0  0  0  0  0  0  0  0  0
   -5.5410   23.3270  -30.7250 C   0  0  0  0  0  0  0  0  0  0  0  0
   -5.0320   24.5390  -30.1370 C   0  0  0  0  0  0  0  0  0  0  0  0
   -5.0460   24.9140  -28.7790 N   0  0  0  0  0  0  0  0  0  0  0  0
   -4.5030   25.3830  -30.9260 O   0  0  0  0  0  0  0  0  0  0  0  0
   -4.9360   22.1910  -31.1070 N   0  0  0  0  0  0  0  0  0  0  0  0
   -3.5650   21.8570  -31.0310 C   0  0  0  0  0  0  0  0  0  0  0  0
   -2.8630   21.8840  -32.0860 O   0  0  0  0  0  0  0  0  0  0  0  0
   -2.8850   21.4940  -29.8900 O   0  0  0  0  0  0  0  0  0  0  0  0
   -2.1880   22.4050  -29.0980 C   0  0  0  0  0  0  0  0  0  0  0  0
   -1.0020   22.6880  -29.4050 O   0  0  0  0  0  0  0  0  0  0  0  0
   -2.8430   22.9830  -27.9710 N   0  0  0  0  0  0  0  0  0  0  0  0
   -2.1150   23.9310  -27.1500 C   0  0  0  0  0  0  0  0  0  0  0  0
   -1.8420   25.1850  -27.9030 C   0  0  0  0  0  0  0  0  0  0  0  0
   -1.1440   26.0930  -27.3800 O   0  0  0  0  0  0  0  0  0  0  0  0
   -2.3650   25.3390  -29.1880 O   0  0  0  0  0  0  0  0  0  0  0  0
   -5.8730   21.3360  -31.6120 C   0  0  0  0  0  0  0  0  0  0  0  0
   -5.8260   20.0580  -32.1400 C   0  0  0  0  0  0  0  0  0  0  0  0
   -6.8015   15.9453  -34.0079 H   0  0  0  0  0  0  0  0  0  0  0  0
   -9.1056   19.5165  -32.8808 H   0  0  0  0  0  0  0  0  0  0  0  0
   -9.2282   21.8162  -31.9388 H   0  0  0  0  0  0  0  0  0  0  0  0
   -7.6878   23.9186  -30.8138 H   0  0  0  0  0  0  0  0  0  0  0  0
   -5.8860   25.4580  -28.4170 H   0  0  0  0  0  0  0  0  0  0  0  0
   -4.2380   24.6690  -28.1330 H   0  0  0  0  0  0  0  0  0  0  0  0
   -3.8420   22.7020  -27.7680 H   0  0  0  0  0  0  0  0  0  0  0  0
   -2.7134   24.1693  -26.2583 H   0  0  0  0  0  0  0  0  0  0  0  0
   -1.1551   23.4796  -26.8589 H   0  0  0  0  0  0  0  0  0  0  0  0
   -3.0910   26.0420  -29.3900 H   0  0  0  0  0  0  0  0  0  0  0  0
   -4.8566   19.5420  -32.2034 H   0  0  0  0  0  0  0  0  0  0  0  0
  1  2  3  0
  2  3  1  0
  3  4  2  0
  4  5  1  0
  5  6  2  0
  6  7  1  0
  7  8  2  0
  8  9  1  0
  9 10  1  0
  9 11  2  0
  8 12  1  0
 12 13  1  0
 13 14  2  0
 13 15  1  0
 15 16  1  0
 16 17  2  0
 16 18  1  0
 18 19  1  0
 19 20  1  0
 20 21  2  0
 20 22  1  0
 12 23  1  0
 23 24  2  0
 24  3  1  0
 23  6  1  0
  1 25  1  0
  4 26  1  0
  5 27  1  0
  7 28  1  0
 10 29  1  0
 10 30  1  0
 18 31  1  0
 19 32  1  0
 19 33  1  0
 22 34  1  0
 24 35  1  0
M  END
>  <smiles>  (85) 
C#Cc1ccc2cc(C(N)=O)n(C(=O)OC(=O)NCC(=O)O)c2c1

>  <score_type>  (85) 
oracle

>  <origin>  (85) 
adg

>  <m_score__min__energy>  (85) 
-9.5999999999999996

>  <m_primary>  (85) 
energy

$$$$
89:0
     RDKit          3D

 33 34  0  0  0  0  0  0  0  0999 V2000
   -9.7780   21.7460  -31.2420 C   0  0  0  0  0  0  0  0  0  0  0  0
   -8.5770   21.0550  -31.8010 C   0  0  0  0  0  0  0  0  0  0  0  0
   -8.7130   19.7890  -32.3260 C   0  0  0  0  0  0  0  0  0  0  0  0
   -7.5930   19.1710  -32.8350 C   0  0  0  0  0  0  0  0  0  0  0  0
   -6.3780   19.8140  -32.8140 C   0  0  0  0  0  0  0  0  0  0  0  0
   -5.1320   19.4290  -33.2490 C   0  0  0  0  0  0  0  0  0  0  0  0
   -4.2120   20.4570  -32.9970 C   0  0  0  0  0  0  0  0  0  0  0  0
   -2.8160   20.3440  -33.3440 C   0  0  0  0  0  0  0  0  0  0  0  0
   -2.0470   21.5510  -33.5570 N   0  0  0  0  0  0  0  0  0  0  0  0
   -2.1690   19.2880  -33.4850 O   0  0  0  0  0  0  0  0  0  0  0  0
   -4.9070   21.4480  -32.4140 N   0  0  0  0  0  0  0  0  0  0  0  0
   -4.4020   22.6940  -31.9760 C   0  0  0  0  0  0  0  0  0  0  0  0
   -3.2210   22.8930  -31.5890 O   0  0  0  0  0  0  0  0  0  0  0  0
   -5.2240   23.8200  -31.9500 O   0  0  0  0  0  0  0  0  0  0  0  0
   -5.7520   24.1460  -30.6610 C   0  0  0  0  0  0  0  0  0  0  0  0
   -4.7630   24.8590  -29.8090 C   0  0  0  0  0  0  0  0  0  0  0  0
   -3.8740   25.5490  -30.6360 O   0  0  0  0  0  0  0  0  0  0  0  0
   -6.1970   21.0860  -32.2970 C   0  0  0  0  0  0  0  0  0  0  0  0
   -7.3460   21.6870  -31.7870 C   0  0  0  0  0  0  0  0  0  0  0  0
   -9.7364   21.7221  -30.1430 H   0  0  0  0  0  0  0  0  0  0  0  0
   -9.7930   22.7908  -31.5857 H   0  0  0  0  0  0  0  0  0  0  0  0
  -10.6888   21.2338  -31.5857 H   0  0  0  0  0  0  0  0  0  0  0  0
   -9.6907   19.2850  -32.3383 H   0  0  0  0  0  0  0  0  0  0  0  0
   -7.6705   18.1593  -33.2599 H   0  0  0  0  0  0  0  0  0  0  0  0
   -4.8937   18.4646  -33.7213 H   0  0  0  0  0  0  0  0  0  0  0  0
   -1.9840   22.0120  -34.4770 H   0  0  0  0  0  0  0  0  0  0  0  0
   -1.5660   21.9080  -32.6900 H   0  0  0  0  0  0  0  0  0  0  0  0
   -6.6343   24.7896  -30.7927 H   0  0  0  0  0  0  0  0  0  0  0  0
   -6.0131   23.2040  -30.1566 H   0  0  0  0  0  0  0  0  0  0  0  0
   -5.2851   25.5701  -29.1520 H   0  0  0  0  0  0  0  0  0  0  0  0
   -4.2131   24.1362  -29.1884 H   0  0  0  0  0  0  0  0  0  0  0  0
   -3.4860   24.9220  -31.3010 H   0  0  0  0  0  0  0  0  0  0  0  0
   -7.2721   22.6976  -31.3590 H   0  0  0  0  0  0  0  0  0  0  0  0
  1  2  1  0
  2  3  2  0
  3  4  1  0
  4  5  2  0
  5  6  1  0
  6  7  2  0
  7  8  1  0
  8  9  1  0
  8 10  2  0
  7 11  1  0
 11 12  1  0
 12 13  2  0
 12 14  1  0
 14 15  1  0
 15 16  1  0
 16 17  1  0
 11 18  1  0
 18 19  2  0
 19  2  1  0
 18  5  1  0
  1 20  1  0
  1 21  1  0
  1 22  1  0
  3 23  1  0
  4 24  1  0
  6 25  1  0
  9 26  1  0
  9 27  1  0
 15 28  1  0
 15 29  1  0
 16 30  1  0
 16 31  1  0
 17 32  1  0
 19 33  1  0
M  END
>  <smiles>  (86) 
Cc1ccc2cc(C(N)=O)n(C(=O)OCCO)c2c1

>  <score_type>  (86) 
oracle

>  <origin>  (86) 
adg

>  <m_score__min__energy>  (86) 
-8.2599999999999998

>  <m_primary>  (86) 
energy

$$$$
90:0
     RDKit          3D

 41 42  0  0  0  0  0  0  0  0999 V2000
   -0.3640   22.6980  -26.5130 C   0  0  0  0  0  0  0  0  0  0  0  0
    0.0790   23.5620  -28.0430 S   0  0  0  0  0  0  0  0  0  0  0  0
   -1.3890   24.1230  -28.9050 C   0  0  0  0  0  0  0  0  0  0  0  0
   -1.5060   25.3050  -29.3320 O   0  0  0  0  0  0  0  0  0  0  0  0
   -2.4140   23.1880  -29.0920 O   0  0  0  0  0  0  0  0  0  0  0  0
   -2.4230   22.2980  -30.1920 C   0  0  0  0  0  0  0  0  0  0  0  0
   -2.9580   22.8500  -31.3520 O   0  0  0  0  0  0  0  0  0  0  0  0
   -4.1120   22.4950  -31.9950 C   0  0  0  0  0  0  0  0  0  0  0  0
   -3.9450   21.8390  -33.0860 O   0  0  0  0  0  0  0  0  0  0  0  0
   -5.4310   22.7830  -31.5680 N   0  0  0  0  0  0  0  0  0  0  0  0
   -5.8790   23.9110  -30.9960 C   0  0  0  0  0  0  0  0  0  0  0  0
   -5.1820   25.1390  -30.6530 C   0  0  0  0  0  0  0  0  0  0  0  0
   -3.8770   25.0490  -30.0550 N   0  0  0  0  0  0  0  0  0  0  0  0
   -5.6070   26.2950  -30.8270 O   0  0  0  0  0  0  0  0  0  0  0  0
   -7.2290   23.7290  -30.7560 C   0  0  0  0  0  0  0  0  0  0  0  0
   -7.6090   22.4840  -31.1820 C   0  0  0  0  0  0  0  0  0  0  0  0
   -8.8380   21.8420  -31.1610 C   0  0  0  0  0  0  0  0  0  0  0  0
   -8.9470   20.5640  -31.6630 C   0  0  0  0  0  0  0  0  0  0  0  0
   -7.8240   19.9550  -32.1780 C   0  0  0  0  0  0  0  0  0  0  0  0
   -7.9710   18.5780  -32.7120 C   0  0  0  0  0  0  0  0  0  0  0  0
   -6.4610   18.0180  -33.5250 P   0  0  0  0  0  0  0  0  0  0  0  0
   -6.7280   16.6380  -34.0870 O   0  0  0  0  0  0  0  0  0  0  0  0
   -5.1740   17.8830  -32.4550 O   0  0  0  0  0  0  0  0  0  0  0  0
   -6.0950   19.0080  -34.8660 O   0  0  0  0  0  0  0  0  0  0  0  0
   -6.5960   20.6240  -32.1880 C   0  0  0  0  0  0  0  0  0  0  0  0
   -6.4680   21.9030  -31.6890 C   0  0  0  0  0  0  0  0  0  0  0  0
   -0.0541   23.3024  -25.6477 H   0  0  0  0  0  0  0  0  0  0  0  0
   -1.4526   22.5434  -26.4813 H   0  0  0  0  0  0  0  0  0  0  0  0
    0.1458   21.7238  -26.4813 H   0  0  0  0  0  0  0  0  0  0  0  0
   -1.3873   21.9907  -30.3989 H   0  0  0  0  0  0  0  0  0  0  0  0
   -3.0643   21.4486  -29.9139 H   0  0  0  0  0  0  0  0  0  0  0  0
   -3.6640   25.4570  -29.1200 H   0  0  0  0  0  0  0  0  0  0  0  0
   -3.1580   24.5390  -30.6400 H   0  0  0  0  0  0  0  0  0  0  0  0
   -7.8960   24.4713  -30.2933 H   0  0  0  0  0  0  0  0  0  0  0  0
   -9.7207   22.3504  -30.7458 H   0  0  0  0  0  0  0  0  0  0  0  0
   -9.9136   20.0391  -31.6528 H   0  0  0  0  0  0  0  0  0  0  0  0
   -8.2036   17.8956  -31.8812 H   0  0  0  0  0  0  0  0  0  0  0  0
   -8.7818   18.5814  -33.4554 H   0  0  0  0  0  0  0  0  0  0  0  0
   -4.9990   16.9770  -32.1260 H   0  0  0  0  0  0  0  0  0  0  0  0
   -6.9380   19.3160  -35.2840 H   0  0  0  0  0  0  0  0  0  0  0  0
   -5.7119   20.1183  -32.6035 H   0  0  0  0  0  0  0  0  0  0  0  0
  1  2  1  0
  2  3  1  0
  3  4  2  0
  3  5  1  0
  5  6  1  0
  6  7  1  0
  7  8  1  0
  8  9  2  0
  8 10  1  0
 10 11  1  0
 11 12  1  0
 12 13  1  0
 12 14  2  0
 11 15  2  0
 15 16  1  0
 16 17  2  0
 17 18  1  0
 18 19  2  0
 19 20  1  0
 20 21  1  0
 21 22  2  0
 21 23  1  0
 21 24  1  0
 19 25  1  0
 25 26  2  0
 26 10  1  0
 26 16  1  0
  1 27  1  0
  1 28  1  0
  1 29  1  0
  6 30  1  0
  6 31  1  0
 13 32  1  0
 13 33  1  0
 15 34  1  0
 17 35  1  0
 18 36  1  0
 20 37  1  0
 20 38  1  0
 23 39  1  0
 24 40  1  0
 25 41  1  0
M  END
>  <smiles>  (87) 
CSC(=O)OCOC(=O)n1c(C(N)=O)cc2ccc(CP(=O)(O)O)cc21

>  <score_type>  (87) 
oracle

>  <origin>  (87) 
adg

>  <m_score__min__energy>  (87) 
-7.6799999999999997

>  <m_primary>  (87) 
energy

$$$$
91:0
     RDKit          3D

 39 40  0  0  1  0  0  0  0  0999 V2000
   -7.5250   18.1740  -32.6490 C   0  0  0  0  0  0  0  0  0  0  0  0
   -7.7130   19.6040  -32.2710 C   0  0  0  0  0  0  0  0  0  0  0  0
   -8.9810   20.1390  -32.2660 C   0  0  0  0  0  0  0  0  0  0  0  0
   -9.1180   21.4450  -31.9150 C   0  0  0  0  0  0  0  0  0  0  0  0
   -8.0200   22.2010  -31.5780 C   0  0  0  0  0  0  0  0  0  0  0  0
   -7.9370   23.4930  -31.1760 C   0  0  0  0  0  0  0  0  0  0  0  0
   -6.5810   23.7930  -30.9220 C   0  0  0  0  0  0  0  0  0  0  0  0
   -6.2290   25.1330  -30.4960 C   0  0  0  0  0  0  0  0  0  0  0  0
   -6.6030   25.6110  -29.1630 N   0  0  0  0  0  0  0  0  0  0  0  0
   -5.6080   26.0020  -31.1490 O   0  0  0  0  0  0  0  0  0  0  0  0
   -5.8450   22.6770  -31.1730 N   0  0  0  0  0  0  0  0  0  0  0  0
   -4.4700   22.6100  -30.9180 C   0  0  0  0  0  0  0  0  0  0  0  0
   -3.7740   23.0320  -31.9680 O   0  0  0  0  0  0  0  0  0  0  0  0
   -3.6420   22.2200  -29.8870 N   0  0  0  0  0  0  0  0  0  0  0  0
   -2.8950   21.0510  -29.5980 C   0  0  0  0  0  0  0  0  0  0  0  0
   -3.5010   23.2630  -28.7820 C   0  0  1  0  0  0  0  0  0  0  0  0
   -2.6270   22.6020  -27.7570 C   0  0  0  0  0  0  0  0  0  0  0  0
   -2.9270   24.4980  -29.3300 C   0  0  0  0  0  0  0  0  0  0  0  0
   -1.8110   24.8740  -28.8600 O   0  0  0  0  0  0  0  0  0  0  0  0
   -3.4860   25.2880  -30.3040 O   0  0  0  0  0  0  0  0  0  0  0  0
   -6.7220   21.7110  -31.5700 C   0  0  0  0  0  0  0  0  0  0  0  0
   -6.6140   20.3860  -31.9270 C   0  0  0  0  0  0  0  0  0  0  0  0
   -7.4445   17.5617  -31.7387 H   0  0  0  0  0  0  0  0  0  0  0  0
   -8.3864   17.8356  -33.2436 H   0  0  0  0  0  0  0  0  0  0  0  0
   -6.6054   18.0697  -33.2436 H   0  0  0  0  0  0  0  0  0  0  0  0
   -9.8555   19.5293  -32.5373 H   0  0  0  0  0  0  0  0  0  0  0  0
  -10.1184   21.9022  -31.9004 H   0  0  0  0  0  0  0  0  0  0  0  0
   -8.7819   24.1888  -31.0664 H   0  0  0  0  0  0  0  0  0  0  0  0
   -6.9830   26.5680  -29.0340 H   0  0  0  0  0  0  0  0  0  0  0  0
   -6.4530   24.9220  -28.3860 H   0  0  0  0  0  0  0  0  0  0  0  0
   -2.8156   20.9268  -28.5079 H   0  0  0  0  0  0  0  0  0  0  0  0
   -3.4016   20.1758  -30.0309 H   0  0  0  0  0  0  0  0  0  0  0  0
   -1.8879   21.1430  -30.0309 H   0  0  0  0  0  0  0  0  0  0  0  0
   -4.4570   23.5697  -28.3325 H   0  0  0  0  0  0  0  0  0  0  0  0
   -2.9785   22.8678  -26.7491 H   0  0  0  0  0  0  0  0  0  0  0  0
   -2.6727   21.5105  -27.8852 H   0  0  0  0  0  0  0  0  0  0  0  0
   -1.5891   22.9431  -27.8852 H   0  0  0  0  0  0  0  0  0  0  0  0
   -3.6830   24.9320  -31.2220 H   0  0  0  0  0  0  0  0  0  0  0  0
   -5.6154   19.9249  -31.9411 H   0  0  0  0  0  0  0  0  0  0  0  0
  1  2  1  0
  2  3  2  0
  3  4  1  0
  4  5  2  0
  5  6  1  0
  6  7  2  0
  7  8  1  0
  8  9  1  0
  8 10  2  0
  7 11  1  0
 11 12  1  0
 12 13  2  0
 12 14  1  0
 14 15  1  0
 14 16  1  0
 16 17  1  0
 16 18  1  0
 18 19  2  0
 18 20  1  0
 11 21  1  0
 21 22  2  0
 22  2  1  0
 21  5  1  0
  1 23  1  0
  1 24  1  0
  1 25  1  0
  3 26  1  0
  4 27  1  0
  6 28  1  0
  9 29  1  0
  9 30  1  0
 15 31  1  0
 15 32  1  0
 15 33  1  0
 16 34  1  1
 17 35  1  0
 17 36  1  0
 17 37  1  0
 20 38  1  0
 22 39  1  0
M  END
>  <smiles>  (88) 
Cc1ccc2cc(C(N)=O)n(C(=O)N(C)C(C)C(=O)O)c2c1

>  <score_type>  (88) 
oracle

>  <origin>  (88) 
adg

>  <m_score__min__energy>  (88) 
-9.3599999999999994

>  <m_primary>  (88) 
energy

$$$$
92:0
     RDKit          3D

 50 52  0  0  0  0  0  0  0  0999 V2000
   -3.1550   21.1410  -27.4680 C   0  0  0  0  0  0  0  0  0  0  0  0
   -3.2260   22.4010  -28.2250 C   0  0  0  0  0  0  0  0  0  0  0  0
   -3.8940   23.3480  -27.7930 O   0  0  0  0  0  0  0  0  0  0  0  0
   -2.5390   22.5710  -29.4580 N   0  0  0  0  0  0  0  0  0  0  0  0
   -1.2140   23.1330  -29.5020 C   0  0  0  0  0  0  0  0  0  0  0  0
   -1.2190   24.5750  -29.0820 C   0  0  0  0  0  0  0  0  0  0  0  0
   -0.2290   25.1120  -28.5190 O   0  0  0  0  0  0  0  0  0  0  0  0
   -2.3770   25.2960  -29.3440 O   0  0  0  0  0  0  0  0  0  0  0  0
   -3.2130   22.1580  -30.7280 C   0  0  0  0  0  0  0  0  0  0  0  0
   -4.3200   23.1160  -30.9970 C   0  0  0  0  0  0  0  0  0  0  0  0
   -3.9020   24.3080  -31.1870 O   0  0  0  0  0  0  0  0  0  0  0  0
   -5.6910   22.8170  -31.0510 N   0  0  0  0  0  0  0  0  0  0  0  0
   -6.6740   23.5570  -30.4920 C   0  0  0  0  0  0  0  0  0  0  0  0
   -6.6480   24.7860  -29.7290 C   0  0  0  0  0  0  0  0  0  0  0  0
   -5.4930   25.0960  -28.9090 N   0  0  0  0  0  0  0  0  0  0  0  0
   -7.5390   25.6610  -29.6820 O   0  0  0  0  0  0  0  0  0  0  0  0
   -7.8780   22.9100  -30.7760 C   0  0  0  0  0  0  0  0  0  0  0  0
   -7.6350   21.7820  -31.5030 C   0  0  0  0  0  0  0  0  0  0  0  0
   -8.4910   20.8340  -32.0080 C   0  0  0  0  0  0  0  0  0  0  0  0
   -7.9910   19.7720  -32.7190 C   0  0  0  0  0  0  0  0  0  0  0  0
   -6.6330   19.6820  -32.9090 C   0  0  0  0  0  0  0  0  0  0  0  0
   -6.0630   18.5890  -33.6470 N   0  0  0  0  0  0  0  0  0  0  0  0
   -4.7750   18.6110  -34.3350 C   0  0  0  0  0  0  0  0  0  0  0  0
   -4.5920   17.2090  -34.8140 C   0  0  0  0  0  0  0  0  0  0  0  0
   -5.5780   16.3430  -34.1000 C   0  0  0  0  0  0  0  0  0  0  0  0
   -6.6960   17.2940  -33.8120 C   0  0  0  0  0  0  0  0  0  0  0  0
   -5.7830   20.6620  -32.3840 C   0  0  0  0  0  0  0  0  0  0  0  0
   -6.2590   21.7380  -31.6670 C   0  0  0  0  0  0  0  0  0  0  0  0
   -3.1673   21.3597  -26.3900 H   0  0  0  0  0  0  0  0  0  0  0  0
   -4.0190   20.5102  -27.7241 H   0  0  0  0  0  0  0  0  0  0  0  0
   -2.2256   20.6113  -27.7241 H   0  0  0  0  0  0  0  0  0  0  0  0
   -0.5608   22.5644  -28.8237 H   0  0  0  0  0  0  0  0  0  0  0  0
   -0.8458   23.0739  -30.5369 H   0  0  0  0  0  0  0  0  0  0  0  0
   -3.2950   24.8900  -29.1740 H   0  0  0  0  0  0  0  0  0  0  0  0
   -2.4909   22.1802  -31.5575 H   0  0  0  0  0  0  0  0  0  0  0  0
   -3.6081   21.1357  -30.6346 H   0  0  0  0  0  0  0  0  0  0  0  0
   -5.6540   25.1090  -27.8740 H   0  0  0  0  0  0  0  0  0  0  0  0
   -4.5580   25.2920  -29.3490 H   0  0  0  0  0  0  0  0  0  0  0  0
   -8.8729   23.2577  -30.4609 H   0  0  0  0  0  0  0  0  0  0  0  0
   -9.5747   20.9258  -31.8430 H   0  0  0  0  0  0  0  0  0  0  0  0
   -8.6655   19.0062  -33.1296 H   0  0  0  0  0  0  0  0  0  0  0  0
   -4.7969   19.3129  -35.1817 H   0  0  0  0  0  0  0  0  0  0  0  0
   -3.9543   18.9440  -33.6826 H   0  0  0  0  0  0  0  0  0  0  0  0
   -4.7686   17.1593  -35.8986 H   0  0  0  0  0  0  0  0  0  0  0  0
   -3.5665   16.8672  -34.6104 H   0  0  0  0  0  0  0  0  0  0  0  0
   -5.9159   15.5145  -34.7399 H   0  0  0  0  0  0  0  0  0  0  0  0
   -5.1681   15.8628  -33.1993 H   0  0  0  0  0  0  0  0  0  0  0  0
   -7.4080   17.3170  -34.6501 H   0  0  0  0  0  0  0  0  0  0  0  0
   -7.2660   16.9989  -32.9187 H   0  0  0  0  0  0  0  0  0  0  0  0
   -4.6993   20.5703  -32.5492 H   0  0  0  0  0  0  0  0  0  0  0  0
  1  2  1  0
  2  3  2  0
  2  4  1  0
  4  5  1  0
  5  6  1  0
  6  7  2  0
  6  8  1  0
  4  9  1  0
  9 10  1  0
 10 11  2  0
 10 12  1  0
 12 13  1  0
 13 14  1  0
 14 15  1  0
 14 16  2  0
 13 17  2  0
 17 18  1  0
 18 19  2  0
 19 20  1  0
 20 21  2  0
 21 22  1  0
 22 23  1  0
 23 24  1  0
 24 25  1  0
 25 26  1  0
 21 27  1  0
 27 28  2  0
 28 12  1  0
 28 18  1  0
 26 22  1  0
  1 29  1  0
  1 30  1  0
  1 31  1  0
  5 32  1  0
  5 33  1  0
  8 34  1  0
  9 35  1  0
  9 36  1  0
 15 37  1  0
 15 38  1  0
 17 39  1  0
 19 40  1  0
 20 41  1  0
 23 42  1  0
 23 43  1  0
 24 44  1  0
 24 45  1  0
 25 46  1  0
 25 47  1  0
 26 48  1  0
 26 49  1  0
 27 50  1  0
M  END
>  <smiles>  (89) 
CC(=O)N(CC(=O)O)CC(=O)n1c(C(N)=O)cc2ccc(N3CCCC3)cc21

>  <score_type>  (89) 
oracle

>  <origin>  (89) 
adg

>  <m_score__min__energy>  (89) 
-9.5700000000000003

>  <m_primary>  (89) 
energy

$$$$
93:0
     RDKit          3D

 40 41  0  0  0  0  0  0  0  0999 V2000
   -4.0950   24.3890  -26.9700 C   0  0  0  0  0  0  0  0  0  0  0  0
   -3.1270   23.7580  -27.7970 N   0  0  0  0  0  0  0  0  0  0  0  0
   -2.0120   24.6380  -28.1940 C   0  0  0  0  0  0  0  0  0  0  0  0
   -1.0360   24.8190  -27.4390 O   0  0  0  0  0  0  0  0  0  0  0  0
   -2.0170   25.2840  -29.4120 O   0  0  0  0  0  0  0  0  0  0  0  0
   -3.0520   22.4650  -28.2960 C   0  0  0  0  0  0  0  0  0  0  0  0
   -2.6940   21.5600  -27.4330 O   0  0  0  0  0  0  0  0  0  0  0  0
   -3.3050   21.9570  -29.6080 N   0  0  0  0  0  0  0  0  0  0  0  0
   -2.6820   20.6930  -29.9290 C   0  0  0  0  0  0  0  0  0  0  0  0
   -4.1100   22.7270  -30.4510 C   0  0  0  0  0  0  0  0  0  0  0  0
   -3.4100   23.6180  -31.1280 O   0  0  0  0  0  0  0  0  0  0  0  0
   -5.4700   22.7990  -30.7530 N   0  0  0  0  0  0  0  0  0  0  0  0
   -6.1420   23.9860  -30.7430 C   0  0  0  0  0  0  0  0  0  0  0  0
   -5.7610   25.3050  -30.2730 C   0  0  0  0  0  0  0  0  0  0  0  0
   -4.4330   25.8270  -30.5620 N   0  0  0  0  0  0  0  0  0  0  0  0
   -6.4690   26.0990  -29.6110 O   0  0  0  0  0  0  0  0  0  0  0  0
   -7.4420   23.7650  -31.2240 C   0  0  0  0  0  0  0  0  0  0  0  0
   -7.5640   22.4520  -31.5280 C   0  0  0  0  0  0  0  0  0  0  0  0
   -8.6260   21.7570  -32.0600 C   0  0  0  0  0  0  0  0  0  0  0  0
   -8.5230   20.4150  -32.3360 C   0  0  0  0  0  0  0  0  0  0  0  0
   -7.3220   19.8070  -32.0620 C   0  0  0  0  0  0  0  0  0  0  0  0
   -7.1610   18.3570  -32.3480 C   0  0  0  0  0  0  0  0  0  0  0  0
   -6.2480   17.7470  -31.5150 F   0  0  0  0  0  0  0  0  0  0  0  0
   -6.7120   18.1890  -33.6640 F   0  0  0  0  0  0  0  0  0  0  0  0
   -8.4050   17.7170  -32.3050 F   0  0  0  0  0  0  0  0  0  0  0  0
   -6.2720   20.5230  -31.5290 C   0  0  0  0  0  0  0  0  0  0  0  0
   -6.3380   21.8690  -31.2330 C   0  0  0  0  0  0  0  0  0  0  0  0
   -3.8391   24.2222  -25.9133 H   0  0  0  0  0  0  0  0  0  0  0  0
   -4.1071   25.4690  -27.1783 H   0  0  0  0  0  0  0  0  0  0  0  0
   -5.0881   23.9642  -27.1783 H   0  0  0  0  0  0  0  0  0  0  0  0
   -1.7730   24.7590  -30.2430 H   0  0  0  0  0  0  0  0  0  0  0  0
   -2.4221   20.1657  -28.9992 H   0  0  0  0  0  0  0  0  0  0  0  0
   -3.3805   20.0786  -30.5160 H   0  0  0  0  0  0  0  0  0  0  0  0
   -1.7693   20.8727  -30.5160 H   0  0  0  0  0  0  0  0  0  0  0  0
   -3.8780   26.3110  -29.8170 H   0  0  0  0  0  0  0  0  0  0  0  0
   -4.0530   25.6990  -31.5440 H   0  0  0  0  0  0  0  0  0  0  0  0
   -8.2267   24.5279  -31.3348 H   0  0  0  0  0  0  0  0  0  0  0  0
   -9.5698   22.2828  -32.2670 H   0  0  0  0  0  0  0  0  0  0  0  0
   -9.3673   19.8508  -32.7589 H   0  0  0  0  0  0  0  0  0  0  0  0
   -5.3296   19.9923  -31.3286 H   0  0  0  0  0  0  0  0  0  0  0  0
  1  2  1  0
  2  3  1  0
  3  4  2  0
  3  5  1  0
  2  6  1  0
  6  7  2  0
  6  8  1  0
  8  9  1  0
  8 10  1  0
 10 11  2  0
 10 12  1  0
 12 13  1  0
 13 14  1  0
 14 15  1  0
 14 16  2  0
 13 17  2  0
 17 18  1  0
 18 19  2  0
 19 20  1  0
 20 21  2  0
 21 22  1  0
 22 23  1  0
 22 24  1  0
 22 25  1  0
 21 26  1  0
 26 27  2  0
 27 12  1  0
 27 18  1  0
  1 28  1  0
  1 29  1  0
  1 30  1  0
  5 31  1  0
  9 32  1  0
  9 33  1  0
  9 34  1  0
 15 35  1  0
 15 36  1  0
 17 37  1  0
 19 38  1  0
 20 39  1  0
 26 40  1  0
M  END
>  <smiles>  (90) 
CN(C(=O)O)C(=O)N(C)C(=O)n1c(C(N)=O)cc2ccc(C(F)(F)F)cc21

>  <score_type>  (90) 
oracle

>  <origin>  (90) 
adg

>  <m_score__min__energy>  (90) 
-9.1999999999999993

>  <m_primary>  (90) 
energy

$$$$
94:0
     RDKit          3D

 33 34  0  0  0  0  0  0  0  0999 V2000
   -6.2210   25.7330  -29.2980 N   0  0  0  0  0  0  0  0  0  0  0  0
   -5.5620   25.0740  -30.4030 C   0  0  0  0  0  0  0  0  0  0  0  0
   -4.5660   25.6820  -30.8520 O   0  0  0  0  0  0  0  0  0  0  0  0
   -6.0830   23.8150  -30.8850 C   0  0  0  0  0  0  0  0  0  0  0  0
   -7.4440   23.4950  -30.8200 C   0  0  0  0  0  0  0  0  0  0  0  0
   -7.6430   22.2450  -31.3470 C   0  0  0  0  0  0  0  0  0  0  0  0
   -8.7840   21.4890  -31.5100 C   0  0  0  0  0  0  0  0  0  0  0  0
   -8.7120   20.2340  -32.0800 C   0  0  0  0  0  0  0  0  0  0  0  0
   -7.4820   19.7640  -32.4760 C   0  0  0  0  0  0  0  0  0  0  0  0
   -7.4080   18.4040  -33.0940 C   0  0  0  0  0  0  0  0  0  0  0  0
   -6.4640   17.2920  -32.1040 Cl  0  0  0  0  0  0  0  0  0  0  0  0
   -6.3440   20.5440  -32.3020 C   0  0  0  0  0  0  0  0  0  0  0  0
   -6.3850   21.8020  -31.7350 C   0  0  0  0  0  0  0  0  0  0  0  0
   -5.4700   22.7610  -31.4470 N   0  0  0  0  0  0  0  0  0  0  0  0
   -4.0940   22.6100  -31.7240 C   0  0  0  0  0  0  0  0  0  0  0  0
   -3.7670   22.1300  -32.8390 O   0  0  0  0  0  0  0  0  0  0  0  0
   -3.0580   22.9420  -30.8750 O   0  0  0  0  0  0  0  0  0  0  0  0
   -2.9850   22.5710  -29.5310 C   0  0  0  0  0  0  0  0  0  0  0  0
   -2.5730   23.8380  -28.7700 C   0  0  0  0  0  0  0  0  0  0  0  0
   -2.4600   24.8660  -29.7190 O   0  0  0  0  0  0  0  0  0  0  0  0
   -6.2720   25.1900  -28.4100 H   0  0  0  0  0  0  0  0  0  0  0  0
   -6.6160   26.7010  -29.4110 H   0  0  0  0  0  0  0  0  0  0  0  0
   -8.2311   24.1449  -30.4101 H   0  0  0  0  0  0  0  0  0  0  0  0
   -9.7562   21.8876  -31.1844 H   0  0  0  0  0  0  0  0  0  0  0  0
   -9.6175   19.6241  -32.2143 H   0  0  0  0  0  0  0  0  0  0  0  0
   -8.4275   18.0061  -33.2045 H   0  0  0  0  0  0  0  0  0  0  0  0
   -6.9145   18.4971  -34.0727 H   0  0  0  0  0  0  0  0  0  0  0  0
   -5.3733   20.1430  -32.6289 H   0  0  0  0  0  0  0  0  0  0  0  0
   -3.9638   22.2136  -29.1785 H   0  0  0  0  0  0  0  0  0  0  0  0
   -2.2663   21.7530  -29.3750 H   0  0  0  0  0  0  0  0  0  0  0  0
   -3.3379   24.0957  -28.0226 H   0  0  0  0  0  0  0  0  0  0  0  0
   -1.6215   23.6862  -28.2393 H   0  0  0  0  0  0  0  0  0  0  0  0
   -2.7560   24.5360  -30.6120 H   0  0  0  0  0  0  0  0  0  0  0  0
  1  2  1  0
  2  3  2  0
  2  4  1  0
  4  5  2  0
  5  6  1  0
  6  7  2  0
  7  8  1  0
  8  9  2  0
  9 10  1  0
 10 11  1  0
  9 12  1  0
 12 13  2  0
 13 14  1  0
 14 15  1  0
 15 16  2  0
 15 17  1  0
 17 18  1  0
 18 19  1  0
 19 20  1  0
 14  4  1  0
 13  6  1  0
  1 21  1  0
  1 22  1  0
  5 23  1  0
  7 24  1  0
  8 25  1  0
 10 26  1  0
 10 27  1  0
 12 28  1  0
 18 29  1  0
 18 30  1  0
 19 31  1  0
 19 32  1  0
 20 33  1  0
M  END
>  <smiles>  (91) 
NC(=O)c1cc2ccc(CCl)cc2n1C(=O)OCCO

>  <score_type>  (91) 
oracle

>  <origin>  (91) 
adg

>  <m_score__min__energy>  (91) 
-8.5800000000000001

>  <m_primary>  (91) 
energy

$$$$
95:0
     RDKit          3D

 44 45  0  0  1  0  0  0  0  0999 V2000
    0.1820   23.0680  -28.9340 C   0  0  0  0  0  0  0  0  0  0  0  0
   -1.1540   23.6720  -28.5720 C   0  0  1  0  0  0  0  0  0  0  0  0
   -1.0320   25.0980  -28.1020 C   0  0  0  0  0  0  0  0  0  0  0  0
   -1.5880   26.0330  -28.9470 O   0  0  0  0  0  0  0  0  0  0  0  0
   -2.0900   23.5300  -29.6630 N   0  0  0  0  0  0  0  0  0  0  0  0
   -2.2710   22.2440  -30.3380 C   0  0  0  0  0  0  0  0  0  0  0  0
   -1.5420   21.3650  -29.8510 O   0  0  0  0  0  0  0  0  0  0  0  0
   -3.2080   22.1730  -31.4030 C   0  0  0  0  0  0  0  0  0  0  0  0
   -2.6690   21.9270  -32.5660 O   0  0  0  0  0  0  0  0  0  0  0  0
   -4.6040   22.3050  -31.4710 N   0  0  0  0  0  0  0  0  0  0  0  0
   -5.2670   23.3570  -30.9100 C   0  0  0  0  0  0  0  0  0  0  0  0
   -4.8300   24.5850  -30.2880 C   0  0  0  0  0  0  0  0  0  0  0  0
   -5.4240   25.0040  -29.0210 N   0  0  0  0  0  0  0  0  0  0  0  0
   -3.9670   25.3870  -30.7000 O   0  0  0  0  0  0  0  0  0  0  0  0
   -6.6440   23.1120  -31.0860 C   0  0  0  0  0  0  0  0  0  0  0  0
   -6.8150   21.9360  -31.7400 C   0  0  0  0  0  0  0  0  0  0  0  0
   -7.9620   21.2760  -32.1200 C   0  0  0  0  0  0  0  0  0  0  0  0
   -7.8850   20.0630  -32.7650 C   0  0  0  0  0  0  0  0  0  0  0  0
   -6.6430   19.5480  -33.0070 C   0  0  0  0  0  0  0  0  0  0  0  0
   -6.4760   18.2870  -33.6740 N   0  0  0  0  0  0  0  0  0  0  0  0
   -5.7300   18.1930  -34.9180 C   0  0  0  0  0  0  0  0  0  0  0  0
   -7.0740   17.1180  -33.0630 C   0  0  0  0  0  0  0  0  0  0  0  0
   -5.5000   20.2320  -32.6140 C   0  0  0  0  0  0  0  0  0  0  0  0
   -5.5380   21.4430  -31.9730 C   0  0  0  0  0  0  0  0  0  0  0  0
    0.7329   22.8189  -28.0150 H   0  0  0  0  0  0  0  0  0  0  0  0
    0.0231   22.1542  -29.5253 H   0  0  0  0  0  0  0  0  0  0  0  0
    0.7631   23.7910  -29.5253 H   0  0  0  0  0  0  0  0  0  0  0  0
   -1.5526   23.1094  -27.7149 H   0  0  0  0  0  0  0  0  0  0  0  0
   -1.5303   25.1803  -27.1248 H   0  0  0  0  0  0  0  0  0  0  0  0
    0.0446   25.3196  -28.0594 H   0  0  0  0  0  0  0  0  0  0  0  0
   -2.0070   25.6910  -29.7580 H   0  0  0  0  0  0  0  0  0  0  0  0
   -2.6210   24.3740  -29.9420 H   0  0  0  0  0  0  0  0  0  0  0  0
   -6.4720   24.9610  -28.9100 H   0  0  0  0  0  0  0  0  0  0  0  0
   -4.8320   25.3370  -28.2430 H   0  0  0  0  0  0  0  0  0  0  0  0
   -7.4549   23.7727  -30.7455 H   0  0  0  0  0  0  0  0  0  0  0  0
   -8.9452   21.7208  -31.9068 H   0  0  0  0  0  0  0  0  0  0  0  0
   -8.7933   19.5258  -33.0755 H   0  0  0  0  0  0  0  0  0  0  0  0
   -4.6612   18.0583  -34.6953 H   0  0  0  0  0  0  0  0  0  0  0  0
   -6.0944   17.3337  -35.5000 H   0  0  0  0  0  0  0  0  0  0  0  0
   -5.8698   19.1159  -35.5000 H   0  0  0  0  0  0  0  0  0  0  0  0
   -7.0261   17.2116  -31.9680 H   0  0  0  0  0  0  0  0  0  0  0  0
   -8.1246   17.0363  -33.3784 H   0  0  0  0  0  0  0  0  0  0  0  0
   -6.5254   16.2182  -33.3784 H   0  0  0  0  0  0  0  0  0  0  0  0
   -4.5194   19.7813  -32.8268 H   0  0  0  0  0  0  0  0  0  0  0  0
  1  2  1  0
  2  3  1  0
  3  4  1  0
  2  5  1  0
  5  6  1  0
  6  7  2  0
  6  8  1  0
  8  9  2  0
  8 10  1  0
 10 11  1  0
 11 12  1  0
 12 13  1  0
 12 14  2  0
 11 15  2  0
 15 16  1  0
 16 17  2  0
 17 18  1  0
 18 19  2  0
 19 20  1  0
 20 21  1  0
 20 22  1  0
 19 23  1  0
 23 24  2  0
 24 10  1  0
 24 16  1  0
  1 25  1  0
  1 26  1  0
  1 27  1  0
  2 28  1  1
  3 29  1  0
  3 30  1  0
  4 31  1  0
  5 32  1  0
 13 33  1  0
 13 34  1  0
 15 35  1  0
 17 36  1  0
 18 37  1  0
 21 38  1  0
 21 39  1  0
 21 40  1  0
 22 41  1  0
 22 42  1  0
 22 43  1  0
 23 44  1  0
M  END
>  <smiles>  (92) 
CC(CO)NC(=O)C(=O)n1c(C(N)=O)cc2ccc(N(C)C)cc21

>  <score_type>  (92) 
oracle

>  <origin>  (92) 
adg

>  <m_score__min__energy>  (92) 
-9.3599999999999994

>  <m_primary>  (92) 
energy

$$$$
96:0
     RDKit          3D

 33 34  0  0  0  0  0  0  0  0999 V2000
   -7.4720   18.4130  -32.5850 C   0  0  0  0  0  0  0  0  0  0  0  0
   -7.5710   19.8610  -32.1990 C   0  0  0  0  0  0  0  0  0  0  0  0
   -8.7790   20.5150  -32.2830 C   0  0  0  0  0  0  0  0  0  0  0  0
   -8.8320   21.8380  -31.9200 C   0  0  0  0  0  0  0  0  0  0  0  0
   -7.7080   22.4820  -31.4890 C   0  0  0  0  0  0  0  0  0  0  0  0
   -7.5040   23.7720  -31.0800 C   0  0  0  0  0  0  0  0  0  0  0  0
   -6.1590   23.9620  -30.7280 C   0  0  0  0  0  0  0  0  0  0  0  0
   -5.6820   25.2250  -30.2650 C   0  0  0  0  0  0  0  0  0  0  0  0
   -6.1280   26.0300  -29.2040 N   0  0  0  0  0  0  0  0  0  0  0  0
   -4.6800   25.7310  -30.9090 O   0  0  0  0  0  0  0  0  0  0  0  0
   -5.5520   22.7620  -30.9310 N   0  0  0  0  0  0  0  0  0  0  0  0
   -4.1880   22.4930  -30.7040 C   0  0  0  0  0  0  0  0  0  0  0  0
   -3.2860   22.6430  -31.5940 O   0  0  0  0  0  0  0  0  0  0  0  0
   -3.6160   21.9990  -29.4060 C   0  0  0  0  0  0  0  0  0  0  0  0
   -3.1480   23.5770  -28.5410 P   0  0  0  0  0  0  0  0  0  0  0  0
   -1.9880   23.3680  -27.6290 O   0  0  0  0  0  0  0  0  0  0  0  0
   -4.5270   24.1220  -27.7400 O   0  0  0  0  0  0  0  0  0  0  0  0
   -2.7420   24.6940  -29.7340 O   0  0  0  0  0  0  0  0  0  0  0  0
   -6.4610   21.8670  -31.3860 C   0  0  0  0  0  0  0  0  0  0  0  0
   -6.4430   20.5370  -31.7570 C   0  0  0  0  0  0  0  0  0  0  0  0
   -7.4296   17.7935  -31.6770 H   0  0  0  0  0  0  0  0  0  0  0  0
   -8.3530   18.1312  -33.1804 H   0  0  0  0  0  0  0  0  0  0  0  0
   -6.5609   18.2537  -33.1804 H   0  0  0  0  0  0  0  0  0  0  0  0
   -9.6804   19.9903  -32.6326 H   0  0  0  0  0  0  0  0  0  0  0  0
   -9.7861   22.3825  -31.9768 H   0  0  0  0  0  0  0  0  0  0  0  0
   -8.2822   24.5480  -31.0339 H   0  0  0  0  0  0  0  0  0  0  0  0
   -6.8700   26.7760  -29.3420 H   0  0  0  0  0  0  0  0  0  0  0  0
   -5.6830   25.8690  -28.2530 H   0  0  0  0  0  0  0  0  0  0  0  0
   -4.3663   21.4379  -28.8296 H   0  0  0  0  0  0  0  0  0  0  0  0
   -2.7725   21.3050  -29.5360 H   0  0  0  0  0  0  0  0  0  0  0  0
   -5.3660   23.8120  -28.1740 H   0  0  0  0  0  0  0  0  0  0  0  0
   -3.0120   24.3910  -30.6500 H   0  0  0  0  0  0  0  0  0  0  0  0
   -5.4911   19.9887  -31.6995 H   0  0  0  0  0  0  0  0  0  0  0  0
  1  2  1  0
  2  3  2  0
  3  4  1  0
  4  5  2  0
  5  6  1  0
  6  7  2  0
  7  8  1  0
  8  9  1  0
  8 10  2  0
  7 11  1  0
 11 12  1  0
 12 13  2  0
 12 14  1  0
 14 15  1  0
 15 16  2  0
 15 17  1  0
 15 18  1  0
 11 19  1  0
 19 20  2  0
 20  2  1  0
 19  5  1  0
  1 21  1  0
  1 22  1  0
  1 23  1  0
  3 24  1  0
  4 25  1  0
  6 26  1  0
  9 27  1  0
  9 28  1  0
 14 29  1  0
 14 30  1  0
 17 31  1  0
 18 32  1  0
 20 33  1  0
M  END
>  <smiles>  (93) 
Cc1ccc2cc(C(N)=O)n(C(=O)CP(=O)(O)O)c2c1

>  <score_type>  (93) 
oracle

>  <origin>  (93) 
adg

>  <m_score__min__energy>  (93) 
-8.6999999999999993

>  <m_primary>  (93) 
energy

$$$$
97:0
     RDKit          3D

 37 38  0  0  1  0  0  0  0  0999 V2000
   -7.2030   17.3200  -33.1620 C   0  0  0  0  0  0  0  0  0  0  0  0
   -7.3070   18.4540  -32.7540 C   0  0  0  0  0  0  0  0  0  0  0  0
   -7.4140   19.8120  -32.2860 C   0  0  0  0  0  0  0  0  0  0  0  0
   -8.6660   20.3830  -32.1820 C   0  0  0  0  0  0  0  0  0  0  0  0
   -8.7610   21.6820  -31.7330 C   0  0  0  0  0  0  0  0  0  0  0  0
   -7.6240   22.3900  -31.4000 C   0  0  0  0  0  0  0  0  0  0  0  0
   -7.4420   23.6730  -30.9360 C   0  0  0  0  0  0  0  0  0  0  0  0
   -6.0800   23.9150  -30.7480 C   0  0  0  0  0  0  0  0  0  0  0  0
   -5.5970   25.1870  -30.2660 C   0  0  0  0  0  0  0  0  0  0  0  0
   -6.1220   25.9720  -29.2250 N   0  0  0  0  0  0  0  0  0  0  0  0
   -4.5650   25.6750  -30.8470 O   0  0  0  0  0  0  0  0  0  0  0  0
   -5.4540   22.7890  -31.0950 N   0  0  0  0  0  0  0  0  0  0  0  0
   -4.0620   22.5440  -31.0750 C   0  0  0  0  0  0  0  0  0  0  0  0
   -3.2810   22.6840  -32.0430 O   0  0  0  0  0  0  0  0  0  0  0  0
   -3.4320   22.0990  -29.8930 O   0  0  0  0  0  0  0  0  0  0  0  0
   -3.9250   22.5180  -28.6170 C   0  0  1  0  0  0  0  0  0  0  0  0
   -3.2120   21.6480  -27.5960 C   0  0  0  0  0  0  0  0  0  0  0  0
   -3.5680   23.9260  -28.3730 C   0  0  0  0  0  0  0  0  0  0  0  0
   -4.2050   24.5640  -27.4880 O   0  0  0  0  0  0  0  0  0  0  0  0
   -2.5610   24.5190  -29.1000 O   0  0  0  0  0  0  0  0  0  0  0  0
   -1.1880   24.2260  -28.9280 C   0  0  0  0  0  0  0  0  0  0  0  0
   -6.3600   21.8520  -31.4920 C   0  0  0  0  0  0  0  0  0  0  0  0
   -6.2810   20.5500  -31.9420 C   0  0  0  0  0  0  0  0  0  0  0  0
   -7.1084   16.2888  -33.5330 H   0  0  0  0  0  0  0  0  0  0  0  0
   -9.5679   19.8138  -32.4515 H   0  0  0  0  0  0  0  0  0  0  0  0
   -9.7485   22.1575  -31.6394 H   0  0  0  0  0  0  0  0  0  0  0  0
   -8.2470   24.3973  -30.7428 H   0  0  0  0  0  0  0  0  0  0  0  0
   -6.8560   26.6860  -29.4770 H   0  0  0  0  0  0  0  0  0  0  0  0
   -5.7840   25.8490  -28.2260 H   0  0  0  0  0  0  0  0  0  0  0  0
   -5.0196   22.4244  -28.5609 H   0  0  0  0  0  0  0  0  0  0  0  0
   -3.4817   21.9771  -26.5816 H   0  0  0  0  0  0  0  0  0  0  0  0
   -3.5137   20.5991  -27.7335 H   0  0  0  0  0  0  0  0  0  0  0  0
   -2.1243   21.7378  -27.7335 H   0  0  0  0  0  0  0  0  0  0  0  0
   -0.9554   24.1764  -27.8540 H   0  0  0  0  0  0  0  0  0  0  0  0
   -0.9578   23.2585  -29.3981 H   0  0  0  0  0  0  0  0  0  0  0  0
   -0.5830   25.0153  -29.3981 H   0  0  0  0  0  0  0  0  0  0  0  0
   -5.2915   20.0780  -32.0326 H   0  0  0  0  0  0  0  0  0  0  0  0
  1  2  3  0
  2  3  1  0
  3  4  2  0
  4  5  1  0
  5  6  2  0
  6  7  1  0
  7  8  2  0
  8  9  1  0
  9 10  1  0
  9 11  2  0
  8 12  1  0
 12 13  1  0
 13 14  2  0
 13 15  1  0
 15 16  1  0
 16 17  1  0
 16 18  1  0
 18 19  2  0
 18 20  1  0
 20 21  1  0
 12 22  1  0
 22 23  2  0
 23  3  1  0
 22  6  1  0
  1 24  1  0
  4 25  1  0
  5 26  1  0
  7 27  1  0
 10 28  1  0
 10 29  1  0
 16 30  1  6
 17 31  1  0
 17 32  1  0
 17 33  1  0
 21 34  1  0
 21 35  1  0
 21 36  1  0
 23 37  1  0
M  END
>  <smiles>  (94) 
C#Cc1ccc2cc(C(N)=O)n(C(=O)OC(C)C(=O)OC)c2c1

>  <score_type>  (94) 
oracle

>  <origin>  (94) 
adg

>  <m_score__min__energy>  (94) 
-9.1600000000000001

>  <m_primary>  (94) 
energy

$$$$
98:0
     RDKit          3D

 74 77  0  0  0  0  0  0  0  0999 V2000
   -9.1300   23.0620  -31.9700 C   0  0  0  0  0  0  0  0  0  0  0  0
   -8.6700   21.9370  -32.1030 C   0  0  0  0  0  0  0  0  0  0  0  0
   -8.1500   20.6040  -32.2610 C   0  0  0  0  0  0  0  0  0  0  0  0
   -8.9600   19.5340  -31.9460 C   0  0  0  0  0  0  0  0  0  0  0  0
   -8.4580   18.2600  -32.0970 C   0  0  0  0  0  0  0  0  0  0  0  0
   -7.1720   18.0790  -32.5560 C   0  0  0  0  0  0  0  0  0  0  0  0
   -6.4390   16.9370  -32.7930 C   0  0  0  0  0  0  0  0  0  0  0  0
   -5.1620   17.2900  -33.2600 C   0  0  0  0  0  0  0  0  0  0  0  0
   -4.1810   16.2880  -33.5900 C   0  0  0  0  0  0  0  0  0  0  0  0
   -3.3640   16.2120  -34.7310 N   0  0  0  0  0  0  0  0  0  0  0  0
   -4.0180   15.3370  -32.7470 O   0  0  0  0  0  0  0  0  0  0  0  0
   -5.1300   18.6310  -33.3010 N   0  0  0  0  0  0  0  0  0  0  0  0
   -4.0450   19.4290  -33.7080 C   0  0  0  0  0  0  0  0  0  0  0  0
   -4.0240   20.6690  -33.7600 O   0  0  0  0  0  0  0  0  0  0  0  0
   -2.8640   18.7920  -34.0950 O   0  0  0  0  0  0  0  0  0  0  0  0
   -1.8120   18.5130  -33.2120 C   0  0  0  0  0  0  0  0  0  0  0  0
   -1.6340   19.6110  -32.2200 C   0  0  0  0  0  0  0  0  0  0  0  0
   -1.5900   20.8390  -32.9210 O   0  0  0  0  0  0  0  0  0  0  0  0
   -1.7240   21.8860  -32.0080 C   0  0  0  0  0  0  0  0  0  0  0  0
   -0.7870   21.7070  -30.8490 C   0  0  0  0  0  0  0  0  0  0  0  0
   -0.7510   22.8720  -30.0700 O   0  0  0  0  0  0  0  0  0  0  0  0
   -1.9820   22.8380  -28.8650 Si  0  0  0  0  0  4  0  0  0  0  0  0
   -3.5870   23.2030  -29.6410 C   0  0  0  0  0  0  0  0  0  0  0  0
   -4.5220   22.2500  -29.9820 C   0  0  0  0  0  0  0  0  0  0  0  0
   -5.7300   22.5740  -30.5710 C   0  0  0  0  0  0  0  0  0  0  0  0
   -5.9940   23.9250  -30.8230 C   0  0  0  0  0  0  0  0  0  0  0  0
   -5.0850   24.9100  -30.4970 C   0  0  0  0  0  0  0  0  0  0  0  0
   -3.8770   24.5480  -29.9040 C   0  0  0  0  0  0  0  0  0  0  0  0
   -1.9930   21.2030  -28.0160 C   0  0  0  0  0  0  0  0  0  0  0  0
   -0.7920   20.5190  -27.9460 C   0  0  0  0  0  0  0  0  0  0  0  0
   -0.7040   19.2740  -27.3230 C   0  0  0  0  0  0  0  0  0  0  0  0
   -1.8410   18.7210  -26.7690 C   0  0  0  0  0  0  0  0  0  0  0  0
   -3.0490   19.4040  -26.8360 C   0  0  0  0  0  0  0  0  0  0  0  0
   -3.1120   20.6460  -27.4630 C   0  0  0  0  0  0  0  0  0  0  0  0
   -1.6110   24.1950  -27.6360 C   0  0  0  0  0  0  0  0  0  0  0  0
   -1.0920   25.4020  -28.3680 C   0  0  0  0  0  0  0  0  0  0  0  0
   -0.5510   23.6770  -26.6600 C   0  0  0  0  0  0  0  0  0  0  0  0
   -2.8600   24.5340  -26.8340 C   0  0  0  0  0  0  0  0  0  0  0  0
   -6.3340   19.1230  -32.8800 C   0  0  0  0  0  0  0  0  0  0  0  0
   -6.8520   20.3950  -32.7220 C   0  0  0  0  0  0  0  0  0  0  0  0
   -9.5438   24.0741  -31.8503 H   0  0  0  0  0  0  0  0  0  0  0  0
   -9.9855   19.6940  -31.5818 H   0  0  0  0  0  0  0  0  0  0  0  0
   -9.0831   17.3888  -31.8514 H   0  0  0  0  0  0  0  0  0  0  0  0
   -6.7979   15.9085  -32.6403 H   0  0  0  0  0  0  0  0  0  0  0  0
   -2.4140   16.6840  -34.6620 H   0  0  0  0  0  0  0  0  0  0  0  0
   -3.6560   15.7090  -35.6220 H   0  0  0  0  0  0  0  0  0  0  0  0
   -2.0320   17.5778  -32.6762 H   0  0  0  0  0  0  0  0  0  0  0  0
   -0.8843   18.4174  -33.7953 H   0  0  0  0  0  0  0  0  0  0  0  0
   -2.4778   19.6154  -31.5144 H   0  0  0  0  0  0  0  0  0  0  0  0
   -0.7023   19.4636  -31.6541 H   0  0  0  0  0  0  0  0  0  0  0  0
   -1.4953   22.8361  -32.5130 H   0  0  0  0  0  0  0  0  0  0  0  0
   -2.7564   21.8924  -31.6285 H   0  0  0  0  0  0  0  0  0  0  0  0
   -1.1323   20.8663  -30.2293 H   0  0  0  0  0  0  0  0  0  0  0  0
    0.2230   21.5011  -31.2330 H   0  0  0  0  0  0  0  0  0  0  0  0
   -4.2990   21.1923  -29.7780 H   0  0  0  0  0  0  0  0  0  0  0  0
   -6.4605   21.7946  -30.8333 H   0  0  0  0  0  0  0  0  0  0  0  0
   -6.9481   24.2079  -31.2917 H   0  0  0  0  0  0  0  0  0  0  0  0
   -5.3106   25.9669  -30.7023 H   0  0  0  0  0  0  0  0  0  0  0  0
   -3.1447   25.3253  -29.6401 H   0  0  0  0  0  0  0  0  0  0  0  0
    0.1100   20.9654  -28.3899 H   0  0  0  0  0  0  0  0  0  0  0  0
    0.2570   18.7409  -27.2739 H   0  0  0  0  0  0  0  0  0  0  0  0
   -1.7906   17.7397  -26.2745 H   0  0  0  0  0  0  0  0  0  0  0  0
   -3.9552   18.9640  -26.3941 H   0  0  0  0  0  0  0  0  0  0  0  0
   -4.0705   21.1833  -27.5136 H   0  0  0  0  0  0  0  0  0  0  0  0
   -0.7661   26.1600  -27.6405 H   0  0  0  0  0  0  0  0  0  0  0  0
   -0.2401   25.1096  -28.9994 H   0  0  0  0  0  0  0  0  0  0  0  0
   -1.8903   25.8192  -28.9994 H   0  0  0  0  0  0  0  0  0  0  0  0
   -0.8911   23.8432  -25.6272 H   0  0  0  0  0  0  0  0  0  0  0  0
   -0.3945   22.6009  -26.8258 H   0  0  0  0  0  0  0  0  0  0  0  0
    0.3941   24.2148  -26.8258 H   0  0  0  0  0  0  0  0  0  0  0  0
   -2.6336   24.4725  -25.7593 H   0  0  0  0  0  0  0  0  0  0  0  0
   -3.1891   25.5540  -27.0816 H   0  0  0  0  0  0  0  0  0  0  0  0
   -3.6597   23.8204  -27.0816 H   0  0  0  0  0  0  0  0  0  0  0  0
   -6.2235   21.2640  -32.9664 H   0  0  0  0  0  0  0  0  0  0  0  0
  1  2  3  0
  2  3  1  0
  3  4  2  0
  4  5  1  0
  5  6  2  0
  6  7  1  0
  7  8  2  0
  8  9  1  0
  9 10  1  0
  9 11  2  0
  8 12  1  0
 12 13  1  0
 13 14  2  0
 13 15  1  0
 15 16  1  0
 16 17  1  0
 17 18  1  0
 18 19  1  0
 19 20  1  0
 20 21  1  0
 21 22  1  0
 22 23  1  0
 23 24  2  0
 24 25  1  0
 25 26  2  0
 26 27  1  0
 27 28  2  0
 22 29  1  0
 29 30  2  0
 30 31  1  0
 31 32  2  0
 32 33  1  0
 33 34  2  0
 22 35  1  0
 35 36  1  0
 35 37  1  0
 35 38  1  0
 12 39  1  0
 39 40  2  0
 40  3  1  0
 39  6  1  0
 28 23  1  0
 34 29  1  0
  1 41  1  0
  4 42  1  0
  5 43  1  0
  7 44  1  0
 10 45  1  0
 10 46  1  0
 16 47  1  0
 16 48  1  0
 17 49  1  0
 17 50  1  0
 19 51  1  0
 19 52  1  0
 20 53  1  0
 20 54  1  0
 24 55  1  0
 25 56  1  0
 26 57  1  0
 27 58  1  0
 28 59  1  0
 30 60  1  0
 31 61  1  0
 32 62  1  0
 33 63  1  0
 34 64  1  0
 36 65  1  0
 36 66  1  0
 36 67  1  0
 37 68  1  0
 37 69  1  0
 37 70  1  0
 38 71  1  0
 38 72  1  0
 38 73  1  0
 40 74  1  0
M  END
>  <smiles>  (95) 
C#Cc1ccc2cc(C(N)=O)n(C(=O)OCCOCCO[Si](c3ccccc3)(c3ccccc3)C(C)(C)C)c2c1

>  <score_type>  (95) 
oracle

>  <origin>  (95) 
adg

>  <m_score__min__energy>  (95) 
-11.19

>  <m_primary>  (95) 
energy

$$$$
99:0
     RDKit          3D

 35 36  0  0  0  0  0  0  0  0999 V2000
   -5.1210   24.8900  -28.8570 N   0  0  0  0  0  0  0  0  0  0  0  0
   -4.7030   24.3990  -30.1650 C   0  0  0  0  0  0  0  0  0  0  0  0
   -3.8900   25.1370  -30.7420 O   0  0  0  0  0  0  0  0  0  0  0  0
   -5.2630   23.1480  -30.6290 C   0  0  0  0  0  0  0  0  0  0  0  0
   -6.6520   23.1010  -30.9140 C   0  0  0  0  0  0  0  0  0  0  0  0
   -6.9230   21.8510  -31.3720 C   0  0  0  0  0  0  0  0  0  0  0  0
   -8.1220   21.3080  -31.7800 C   0  0  0  0  0  0  0  0  0  0  0  0
   -8.1900   20.0050  -32.2100 C   0  0  0  0  0  0  0  0  0  0  0  0
   -7.0230   19.2810  -32.2130 C   0  0  0  0  0  0  0  0  0  0  0  0
   -7.0910   17.8700  -32.6770 C   0  0  0  0  0  0  0  0  0  0  0  0
   -8.3690   17.4110  -32.3620 F   0  0  0  0  0  0  0  0  0  0  0  0
   -6.1540   17.1330  -31.9710 F   0  0  0  0  0  0  0  0  0  0  0  0
   -6.8540   17.8310  -34.0450 F   0  0  0  0  0  0  0  0  0  0  0  0
   -5.8180   19.8430  -31.7990 C   0  0  0  0  0  0  0  0  0  0  0  0
   -5.7350   21.1610  -31.3620 C   0  0  0  0  0  0  0  0  0  0  0  0
   -4.7190   21.9550  -30.9030 N   0  0  0  0  0  0  0  0  0  0  0  0
   -3.4000   21.4780  -30.8320 C   0  0  0  0  0  0  0  0  0  0  0  0
   -3.0970   20.6090  -31.7470 O   0  0  0  0  0  0  0  0  0  0  0  0
   -2.3350   21.7710  -29.9250 C   0  0  0  0  0  0  0  0  0  0  0  0
   -1.8030   21.0320  -29.0800 O   0  0  0  0  0  0  0  0  0  0  0  0
   -1.7510   23.1050  -29.9470 N   0  0  0  0  0  0  0  0  0  0  0  0
   -0.6760   23.3330  -28.9990 C   0  0  0  0  0  0  0  0  0  0  0  0
   -0.5450   24.7710  -28.6540 C   0  0  0  0  0  0  0  0  0  0  0  0
    0.2660   25.0730  -27.7220 O   0  0  0  0  0  0  0  0  0  0  0  0
   -1.2260   25.7890  -29.2590 O   0  0  0  0  0  0  0  0  0  0  0  0
   -6.1330   24.7660  -28.5600 H   0  0  0  0  0  0  0  0  0  0  0  0
   -4.4340   25.3560  -28.2220 H   0  0  0  0  0  0  0  0  0  0  0  0
   -7.3734   23.9218  -30.7879 H   0  0  0  0  0  0  0  0  0  0  0  0
   -9.0333   21.9237  -31.7612 H   0  0  0  0  0  0  0  0  0  0  0  0
   -9.1406   19.5596  -32.5386 H   0  0  0  0  0  0  0  0  0  0  0  0
   -4.9065   19.2276  -31.8181 H   0  0  0  0  0  0  0  0  0  0  0  0
   -2.0840   23.8410  -30.5980 H   0  0  0  0  0  0  0  0  0  0  0  0
   -0.8832   22.7635  -28.0810 H   0  0  0  0  0  0  0  0  0  0  0  0
    0.2658   23.0040  -29.4624 H   0  0  0  0  0  0  0  0  0  0  0  0
   -2.0900   25.6740  -29.7820 H   0  0  0  0  0  0  0  0  0  0  0  0
  1  2  1  0
  2  3  2  0
  2  4  1  0
  4  5  2  0
  5  6  1  0
  6  7  2  0
  7  8  1  0
  8  9  2  0
  9 10  1  0
 10 11  1  0
 10 12  1  0
 10 13  1  0
  9 14  1  0
 14 15  2  0
 15 16  1  0
 16 17  1  0
 17 18  2  0
 17 19  1  0
 19 20  2  0
 19 21  1  0
 21 22  1  0
 22 23  1  0
 23 24  2  0
 23 25  1  0
 16  4  1  0
 15  6  1  0
  1 26  1  0
  1 27  1  0
  5 28  1  0
  7 29  1  0
  8 30  1  0
 14 31  1  0
 21 32  1  0
 22 33  1  0
 22 34  1  0
 25 35  1  0
M  END
>  <smiles>  (96) 
NC(=O)c1cc2ccc(C(F)(F)F)cc2n1C(=O)C(=O)NCC(=O)O

>  <score_type>  (96) 
oracle

>  <origin>  (96) 
adg

>  <m_score__min__energy>  (96) 
-9.1500000000000004

>  <m_primary>  (96) 
energy

$$$$
