0:0
     RDKit          3D

 49 51  0  0  0  0  0  0  0  0999 V2000
   -2.7480   24.8900  -27.4140 C   0  0  0  0  0  0  0  0  0  0  0  0
   -1.9270   25.1380  -28.5480 O   0  0  0  0  0  0  0  0  0  0  0  0
   -0.9190   24.2590  -28.9530 C   0  0  0  0  0  0  0  0  0  0  0  0
    0.2830   24.4680  -28.6350 O   0  0  0  0  0  0  0  0  0  0  0  0
   -1.2690   23.0320  -29.7300 C   0  0  0  0  0  0  0  0  0  0  0  0
   -2.5720   23.1660  -30.2870 O   0  0  0  0  0  0  0  0  0  0  0  0
   -3.4370   22.0820  -30.4580 C   0  0  0  0  0  0  0  0  0  0  0  0
   -2.9960   20.9010  -30.4040 O   0  0  0  0  0  0  0  0  0  0  0  0
   -4.8310   22.3160  -30.7150 N   0  0  0  0  0  0  0  0  0  0  0  0
   -5.5060   23.4980  -30.6230 C   0  0  0  0  0  0  0  0  0  0  0  0
   -4.9720   24.7630  -30.0760 C   0  0  0  0  0  0  0  0  0  0  0  0
   -3.9070   25.4520  -30.7260 N   0  0  0  0  0  0  0  0  0  0  0  0
   -5.4330   25.2190  -28.9950 O   0  0  0  0  0  0  0  0  0  0  0  0
   -6.8240   23.3410  -31.0440 C   0  0  0  0  0  0  0  0  0  0  0  0
   -6.9390   22.0140  -31.3920 C   0  0  0  0  0  0  0  0  0  0  0  0
   -8.0330   21.3140  -31.8850 C   0  0  0  0  0  0  0  0  0  0  0  0
   -7.8620   19.9530  -32.1890 C   0  0  0  0  0  0  0  0  0  0  0  0
   -6.6020   19.3120  -32.0090 C   0  0  0  0  0  0  0  0  0  0  0  0
   -6.4160   17.8990  -32.3240 N   0  0  2  0  0  0  0  0  0  0  0  0
   -5.9540   17.1610  -31.1170 C   0  0  0  0  0  0  0  0  0  0  0  0
   -5.3730   15.7900  -31.4760 C   0  0  0  0  0  0  0  0  0  0  0  0
   -4.1220   15.9370  -32.3600 C   0  0  0  0  0  0  0  0  0  0  0  0
   -4.1470   17.2070  -33.2310 C   0  0  0  0  0  0  0  0  0  0  0  0
   -5.5940   17.6350  -33.5560 C   0  0  2  0  0  0  0  0  0  0  0  0
   -5.6310   18.7620  -34.5650 C   0  0  0  0  0  0  0  0  0  0  0  0
   -6.0840   18.5520  -35.7220 O   0  0  0  0  0  0  0  0  0  0  0  0
   -5.2200   20.0430  -34.2190 O   0  0  0  0  0  0  0  0  0  0  0  0
   -5.5180   20.0700  -31.4980 C   0  0  0  0  0  0  0  0  0  0  0  0
   -5.7240   21.4190  -31.1860 C   0  0  0  0  0  0  0  0  0  0  0  0
   -2.1679   25.0652  -26.4960 H   0  0  0  0  0  0  0  0  0  0  0  0
   -3.6154   25.5662  -27.4343 H   0  0  0  0  0  0  0  0  0  0  0  0
   -3.0959   23.8467  -27.4343 H   0  0  0  0  0  0  0  0  0  0  0  0
   -0.5385   22.8929  -30.5406 H   0  0  0  0  0  0  0  0  0  0  0  0
   -1.2502   22.1608  -29.0586 H   0  0  0  0  0  0  0  0  0  0  0  0
   -2.9130   25.2870  -30.4510 H   0  0  0  0  0  0  0  0  0  0  0  0
   -7.6065   24.1128  -31.0889 H   0  0  0  0  0  0  0  0  0  0  0  0
   -9.0035   21.8102  -32.0329 H   0  0  0  0  0  0  0  0  0  0  0  0
   -8.7144   19.3729  -32.5721 H   0  0  0  0  0  0  0  0  0  0  0  0
   -7.3620   17.4980  -32.5380 H   0  0  0  0  0  0  0  0  0  0  0  0
   -5.1783   17.7551  -30.6117 H   0  0  0  0  0  0  0  0  0  0  0  0
   -6.8219   17.0030  -30.4599 H   0  0  0  0  0  0  0  0  0  0  0  0
   -5.0999   15.2613  -30.5508 H   0  0  0  0  0  0  0  0  0  0  0  0
   -6.1322   15.2222  -32.0338 H   0  0  0  0  0  0  0  0  0  0  0  0
   -3.2357   15.9753  -31.7097 H   0  0  0  0  0  0  0  0  0  0  0  0
   -4.0955   15.0723  -33.0394 H   0  0  0  0  0  0  0  0  0  0  0  0
   -3.6449   18.0226  -32.6900 H   0  0  0  0  0  0  0  0  0  0  0  0
   -3.6281   16.9902  -34.1764 H   0  0  0  0  0  0  0  0  0  0  0  0
   -6.0832   16.7769  -34.0400 H   0  0  0  0  0  0  0  0  0  0  0  0
   -4.5319   19.6058  -31.3493 H   0  0  0  0  0  0  0  0  0  0  0  0
  1  2  1  0
  2  3  1  0
  3  4  2  0
  3  5  1  0
  5  6  1  0
  6  7  1  0
  7  8  2  0
  7  9  1  0
  9 10  1  0
 10 11  1  0
 11 12  1  0
 11 13  2  0
 10 14  2  0
 14 15  1  0
 15 16  2  0
 16 17  1  0
 17 18  2  0
 18 19  1  0
 19 20  1  0
 20 21  1  0
 21 22  1  0
 22 23  1  0
 23 24  1  0
 24 25  1  0
 25 26  2  0
 25 27  1  0
 18 28  1  0
 28 29  2  0
 29  9  1  0
 29 15  1  0
 24 19  1  0
  1 30  1  0
  1 31  1  0
  1 32  1  0
  5 33  1  0
  5 34  1  0
 12 35  1  0
 14 36  1  0
 16 37  1  0
 17 38  1  0
 19 39  1  6
 20 40  1  0
 20 41  1  0
 21 42  1  0
 21 43  1  0
 22 44  1  0
 22 45  1  0
 23 46  1  0
 23 47  1  0
 24 48  1  6
 28 49  1  0
M  CHG  3  12  -1  19   1  27  -1
M  END
>  <UniqueID>  (1) 
1

>  <SMILES>  (1) 
COC(=O)COC(=O)n1c(C([NH-])=O)cc2ccc([N@@H+]3CCCC[C@@H]3C(=O)[O-])cc21

>  <Energy>  (1) 
100.0244553652149

>  <Genealogy>  (1) 
COC(=O)COC(=O)n1c(C([NH-])=O)cc2ccc([NH+]3CCCCC3C(=O)[O-])cc21 (protonated)
COC(=O)COC(=O)n1c(C([NH-])=O)cc2ccc([N@@H+]3CCCC[C@@H]3C(=O)[O-])cc21 (chirality)
COC(=O)COC(=O)n1c(C([NH-])=O)cc2ccc([N@@H+]3CCCC[C@@H]3C(=O)[O-])cc21 (3D coordinates assigned)
COC(=O)COC(=O)n1c(C([NH-])=O)cc2ccc([N@@H+]3CCCC[C@@H]3C(=O)[O-])cc21 (nonaromatic ring conformer: 100.0244553652149 kcal/mol)

>  <smiles>  (1) 
COC(=O)COC(=O)n1c(C(N)=O)cc2ccc(N3CCCCC3C(=O)O)cc21

>  <score_type>  (1) 
oracle

>  <origin>  (1) 
adg

>  <m_score__min__energy>  (1) 
-9.8800000000000008

>  <m_primary>  (1) 
energy

$$$$
1:0
     RDKit          3D

 38 39  0  0  0  0  0  0  0  0999 V2000
   -6.0610   18.4070  -33.9120 C   0  0  0  0  0  0  0  0  0  0  0  0
   -7.1210   18.5320  -32.8220 C   0  0  0  0  0  0  0  0  0  0  0  0
   -7.2250   19.9530  -32.3410 C   0  0  0  0  0  0  0  0  0  0  0  0
   -8.4960   20.5230  -32.0770 C   0  0  0  0  0  0  0  0  0  0  0  0
   -8.6050   21.8420  -31.6080 C   0  0  0  0  0  0  0  0  0  0  0  0
   -7.4310   22.5600  -31.3980 C   0  0  0  0  0  0  0  0  0  0  0  0
   -7.2490   23.8560  -30.9720 C   0  0  0  0  0  0  0  0  0  0  0  0
   -5.8690   24.0470  -30.9480 C   0  0  0  0  0  0  0  0  0  0  0  0
   -5.2270   25.2870  -30.4660 C   0  0  0  0  0  0  0  0  0  0  0  0
   -3.8850   25.5850  -30.8460 N   0  0  0  0  0  0  0  0  0  0  0  0
   -5.8610   26.1060  -29.7520 O   0  0  0  0  0  0  0  0  0  0  0  0
   -5.2230   22.9160  -31.3510 N   0  0  0  0  0  0  0  0  0  0  0  0
   -3.8110   22.7300  -31.5350 C   0  0  0  0  0  0  0  0  0  0  0  0
   -3.3570   22.4680  -32.6830 O   0  0  0  0  0  0  0  0  0  0  0  0
   -2.9440   22.8600  -30.4440 O   0  0  0  0  0  0  0  0  0  0  0  0
   -3.3500   22.6670  -29.0900 C   0  0  0  0  0  0  0  0  0  0  0  0
   -3.0740   23.9280  -28.2640 C   0  0  0  0  0  0  0  0  0  0  0  0
   -1.6360   24.4240  -28.4470 C   0  0  0  0  0  0  0  0  0  0  0  0
   -1.6150   25.7160  -28.9920 O   0  0  0  0  0  0  0  0  0  0  0  0
   -6.1930   22.0140  -31.6210 C   0  0  0  0  0  0  0  0  0  0  0  0
   -6.0540   20.7080  -32.1050 C   0  0  0  0  0  0  0  0  0  0  0  0
   -5.0703   18.2902  -33.4484 H   0  0  0  0  0  0  0  0  0  0  0  0
   -6.2794   17.5284  -34.5368 H   0  0  0  0  0  0  0  0  0  0  0  0
   -6.0690   19.3123  -34.5368 H   0  0  0  0  0  0  0  0  0  0  0  0
   -8.0938   18.2158  -33.2266 H   0  0  0  0  0  0  0  0  0  0  0  0
   -6.8335   17.8923  -31.9746 H   0  0  0  0  0  0  0  0  0  0  0  0
   -9.4054   19.9263  -32.2411 H   0  0  0  0  0  0  0  0  0  0  0  0
   -9.5884   22.2943  -31.4124 H   0  0  0  0  0  0  0  0  0  0  0  0
   -8.0278   24.5862  -30.7067 H   0  0  0  0  0  0  0  0  0  0  0  0
   -3.0830   25.0480  -30.4480 H   0  0  0  0  0  0  0  0  0  0  0  0
   -4.4269   22.4446  -29.0628 H   0  0  0  0  0  0  0  0  0  0  0  0
   -2.7798   21.8290  -28.6628 H   0  0  0  0  0  0  0  0  0  0  0  0
   -3.7673   24.7207  -28.5817 H   0  0  0  0  0  0  0  0  0  0  0  0
   -3.2177   23.6796  -27.2021 H   0  0  0  0  0  0  0  0  0  0  0  0
   -1.1332   24.4381  -27.4687 H   0  0  0  0  0  0  0  0  0  0  0  0
   -1.1162   23.7440  -29.1379 H   0  0  0  0  0  0  0  0  0  0  0  0
   -2.1240   25.6720  -29.8430 H   0  0  0  0  0  0  0  0  0  0  0  0
   -5.0588   20.2803  -32.2967 H   0  0  0  0  0  0  0  0  0  0  0  0
  1  2  1  0
  2  3  1  0
  3  4  2  0
  4  5  1  0
  5  6  2  0
  6  7  1  0
  7  8  2  0
  8  9  1  0
  9 10  1  0
  9 11  2  0
  8 12  1  0
 12 13  1  0
 13 14  2  0
 13 15  1  0
 15 16  1  0
 16 17  1  0
 17 18  1  0
 18 19  1  0
 12 20  1  0
 20 21  2  0
 21  3  1  0
 20  6  1  0
  1 22  1  0
  1 23  1  0
  1 24  1  0
  2 25  1  0
  2 26  1  0
  4 27  1  0
  5 28  1  0
  7 29  1  0
 10 30  1  0
 16 31  1  0
 16 32  1  0
 17 33  1  0
 17 34  1  0
 18 35  1  0
 18 36  1  0
 19 37  1  0
 21 38  1  0
M  CHG  1  10  -1
M  END
>  <UniqueID>  (2) 
2

>  <SMILES>  (2) 
CCc1ccc2cc(C([NH-])=O)n(C(=O)OCCCO)c2c1

>  <Energy>  (2) 
67.9272994012976

>  <Genealogy>  (2) 
CCc1ccc2cc(C([NH-])=O)n(C(=O)OCCCO)c2c1 (protonated)
CCc1ccc2cc(C([NH-])=O)n(C(=O)OCCCO)c2c1 (3D coordinates assigned)
CCc1ccc2cc(C([NH-])=O)n(C(=O)OCCCO)c2c1 (optimized conformer: 67.9272994012976 kcal/mol)

>  <smiles>  (2) 
CCc1ccc2cc(C(N)=O)n(C(=O)OCCCO)c2c1

>  <score_type>  (2) 
oracle

>  <origin>  (2) 
adg

>  <m_score__min__energy>  (2) 
-10.41

>  <m_primary>  (2) 
energy

$$$$
2:0
     RDKit          3D

 32 33  0  0  0  0  0  0  0  0999 V2000
   -3.9820   25.6790  -30.8440 N   0  0  0  0  0  0  0  0  0  0  0  0
   -5.2100   25.0570  -30.4750 C   0  0  0  0  0  0  0  0  0  0  0  0
   -5.9760   25.6360  -29.6600 O   0  0  0  0  0  0  0  0  0  0  0  0
   -5.5490   23.7230  -31.0130 C   0  0  0  0  0  0  0  0  0  0  0  0
   -6.8490   23.3270  -31.3210 C   0  0  0  0  0  0  0  0  0  0  0  0
   -6.7260   22.0720  -31.8730 C   0  0  0  0  0  0  0  0  0  0  0  0
   -7.7040   21.2090  -32.3590 C   0  0  0  0  0  0  0  0  0  0  0  0
   -7.2930   19.9620  -32.8560 C   0  0  0  0  0  0  0  0  0  0  0  0
   -5.9250   19.5870  -32.8360 C   0  0  0  0  0  0  0  0  0  0  0  0
   -5.4930   18.2600  -33.4080 C   0  0  0  0  0  0  0  0  0  0  0  0
   -5.2990   18.3560  -34.7750 F   0  0  0  0  0  0  0  0  0  0  0  0
   -6.4540   17.2920  -33.1750 F   0  0  0  0  0  0  0  0  0  0  0  0
   -4.3080   17.8720  -32.8110 F   0  0  0  0  0  0  0  0  0  0  0  0
   -4.9590   20.5020  -32.3560 C   0  0  0  0  0  0  0  0  0  0  0  0
   -5.3940   21.7460  -31.8830 C   0  0  0  0  0  0  0  0  0  0  0  0
   -4.6580   22.7490  -31.3560 N   0  0  0  0  0  0  0  0  0  0  0  0
   -3.2400   22.7420  -31.1290 C   0  0  0  0  0  0  0  0  0  0  0  0
   -2.4990   21.9730  -31.8010 O   0  0  0  0  0  0  0  0  0  0  0  0
   -2.6900   23.5720  -30.1490 O   0  0  0  0  0  0  0  0  0  0  0  0
   -1.3270   23.4890  -29.7440 C   0  0  0  0  0  0  0  0  0  0  0  0
   -1.0380   24.5370  -28.6750 C   0  0  0  0  0  0  0  0  0  0  0  0
   -1.7480   25.7180  -28.9410 O   0  0  0  0  0  0  0  0  0  0  0  0
   -3.0670   25.2970  -30.5140 H   0  0  0  0  0  0  0  0  0  0  0  0
   -7.7761   23.8961  -31.1578 H   0  0  0  0  0  0  0  0  0  0  0  0
   -8.7661   21.4952  -32.3538 H   0  0  0  0  0  0  0  0  0  0  0  0
   -8.0408   19.2672  -33.2659 H   0  0  0  0  0  0  0  0  0  0  0  0
   -3.8901   20.2421  -32.3544 H   0  0  0  0  0  0  0  0  0  0  0  0
   -1.1283   22.4871  -29.3356 H   0  0  0  0  0  0  0  0  0  0  0  0
   -0.6792   23.6713  -30.6141 H   0  0  0  0  0  0  0  0  0  0  0  0
   -1.3412   24.1456  -27.6927 H   0  0  0  0  0  0  0  0  0  0  0  0
    0.0390   24.7607  -28.6775 H   0  0  0  0  0  0  0  0  0  0  0  0
   -2.0300   25.6730  -29.8920 H   0  0  0  0  0  0  0  0  0  0  0  0
  1  2  1  0
  2  3  2  0
  2  4  1  0
  4  5  2  0
  5  6  1  0
  6  7  2  0
  7  8  1  0
  8  9  2  0
  9 10  1  0
 10 11  1  0
 10 12  1  0
 10 13  1  0
  9 14  1  0
 14 15  2  0
 15 16  1  0
 16 17  1  0
 17 18  2  0
 17 19  1  0
 19 20  1  0
 20 21  1  0
 21 22  1  0
 16  4  1  0
 15  6  1  0
  1 23  1  0
  5 24  1  0
  7 25  1  0
  8 26  1  0
 14 27  1  0
 20 28  1  0
 20 29  1  0
 21 30  1  0
 21 31  1  0
 22 32  1  0
M  CHG  1   1  -1
M  END
>  <UniqueID>  (3) 
3

>  <SMILES>  (3) 
[NH-]C(=O)c1cc2ccc(C(F)(F)F)cc2n1C(=O)OCCO

>  <Energy>  (3) 
67.01976841125182

>  <Genealogy>  (3) 
[NH-]C(=O)c1cc2ccc(C(F)(F)F)cc2n1C(=O)OCCO (protonated)
[NH-]C(=O)c1cc2ccc(C(F)(F)F)cc2n1C(=O)OCCO (3D coordinates assigned)
[NH-]C(=O)c1cc2ccc(C(F)(F)F)cc2n1C(=O)OCCO (optimized conformer: 67.01976841125182 kcal/mol)

>  <smiles>  (3) 
NC(=O)c1cc2ccc(C(F)(F)F)cc2n1C(=O)OCCO

>  <score_type>  (3) 
oracle

>  <origin>  (3) 
adg

>  <m_score__min__energy>  (3) 
-9.5999999999999996

>  <m_primary>  (3) 
energy

$$$$
3:0
     RDKit          3D

 37 39  0  0  0  0  0  0  0  0999 V2000
   -1.0410   23.7340  -28.8810 C   0  0  0  0  0  0  0  0  0  0  0  0
   -2.7790   23.8620  -29.0560 S   0  0  0  0  0  0  0  0  0  0  0  0
   -3.1410   24.9090  -30.1110 O   0  0  0  0  0  0  0  0  0  0  0  0
   -3.4280   24.2750  -27.7830 O   0  0  0  0  0  0  0  0  0  0  0  0
   -3.5240   22.3480  -29.6390 C   0  0  0  0  0  0  0  0  0  0  0  0
   -4.3720   22.6240  -30.7930 C   0  0  0  0  0  0  0  0  0  0  0  0
   -3.6950   22.9290  -31.8560 O   0  0  0  0  0  0  0  0  0  0  0  0
   -5.7670   22.6050  -30.9320 N   0  0  0  0  0  0  0  0  0  0  0  0
   -6.7250   23.4230  -30.4370 C   0  0  0  0  0  0  0  0  0  0  0  0
   -6.6250   24.7030  -29.7780 C   0  0  0  0  0  0  0  0  0  0  0  0
   -5.4790   24.9410  -28.9170 N   0  0  0  0  0  0  0  0  0  0  0  0
   -7.4100   25.6650  -29.8480 O   0  0  0  0  0  0  0  0  0  0  0  0
   -7.9900   22.8910  -30.7610 C   0  0  0  0  0  0  0  0  0  0  0  0
   -7.7830   21.7440  -31.4660 C   0  0  0  0  0  0  0  0  0  0  0  0
   -8.7060   20.8770  -32.0120 C   0  0  0  0  0  0  0  0  0  0  0  0
   -8.2760   19.7740  -32.7030 C   0  0  0  0  0  0  0  0  0  0  0  0
   -6.9240   19.5670  -32.8320 C   0  0  0  0  0  0  0  0  0  0  0  0
   -6.4010   18.4050  -33.5650 C   0  0  0  0  0  0  0  0  0  0  0  0
   -6.6840   17.1160  -33.3370 N   0  0  0  0  0  0  0  0  0  0  0  0
   -6.0200   16.3260  -34.2040 C   0  0  0  0  0  0  0  0  0  0  0  0
   -5.3180   17.1710  -34.9760 N   0  0  0  0  0  0  0  0  0  0  0  0
   -5.5420   18.4120  -34.5990 N   0  0  0  0  0  0  0  0  0  0  0  0
   -6.0060   20.4620  -32.2680 C   0  0  0  0  0  0  0  0  0  0  0  0
   -6.4290   21.5840  -31.5620 C   0  0  0  0  0  0  0  0  0  0  0  0
   -0.7805   23.7148  -27.8125 H   0  0  0  0  0  0  0  0  0  0  0  0
   -0.6914   22.8077  -29.3603 H   0  0  0  0  0  0  0  0  0  0  0  0
   -0.5595   24.5991  -29.3603 H   0  0  0  0  0  0  0  0  0  0  0  0
   -2.7332   21.6403  -29.9285 H   0  0  0  0  0  0  0  0  0  0  0  0
   -4.1365   21.9131  -28.8354 H   0  0  0  0  0  0  0  0  0  0  0  0
   -4.6100   25.3760  -29.2750 H   0  0  0  0  0  0  0  0  0  0  0  0
   -5.6210   24.6380  -27.9310 H   0  0  0  0  0  0  0  0  0  0  0  0
   -8.9655   23.3232  -30.4934 H   0  0  0  0  0  0  0  0  0  0  0  0
   -9.7825   21.0697  -31.8935 H   0  0  0  0  0  0  0  0  0  0  0  0
   -8.9973   19.0704  -33.1443 H   0  0  0  0  0  0  0  0  0  0  0  0
   -6.0473   15.2281  -34.2657 H   0  0  0  0  0  0  0  0  0  0  0  0
   -5.0990   19.2550  -35.0610 H   0  0  0  0  0  0  0  0  0  0  0  0
   -4.9286   20.2741  -32.3856 H   0  0  0  0  0  0  0  0  0  0  0  0
  1  2  1  0
  2  3  2  0
  2  4  2  0
  2  5  1  0
  5  6  1  0
  6  7  2  0
  6  8  1  0
  8  9  1  0
  9 10  1  0
 10 11  1  0
 10 12  2  0
  9 13  2  0
 13 14  1  0
 14 15  2  0
 15 16  1  0
 16 17  2  0
 17 18  1  0
 18 19  2  0
 19 20  1  0
 20 21  2  0
 21 22  1  0
 17 23  1  0
 23 24  2  0
 24  8  1  0
 24 14  1  0
 22 18  1  0
  1 25  1  0
  1 26  1  0
  1 27  1  0
  5 28  1  0
  5 29  1  0
 11 30  1  0
 11 31  1  0
 13 32  1  0
 15 33  1  0
 16 34  1  0
 20 35  1  0
 22 36  1  0
 23 37  1  0
M  END
>  <smiles>  (4) 
CS(=O)(=O)CC(=O)n1c(C(N)=O)cc2ccc(-c3ncn[nH]3)cc21

>  <score_type>  (4) 
oracle

>  <origin>  (4) 
adg

>  <m_score__min__energy>  (4) 
-8.9399999999999995

>  <m_primary>  (4) 
energy

$$$$
4:0
     RDKit          3D

 27 28  0  0  0  0  0  0  0  0999 V2000
   -1.1460   22.7970  -29.9360 N   0  0  0  0  0  0  0  0  0  0  0  0
   -1.5830   21.9280  -30.9810 C   0  0  0  0  0  0  0  0  0  0  0  0
   -0.7310   21.2560  -31.6210 O   0  0  0  0  0  0  0  0  0  0  0  0
   -3.0180   21.7620  -31.2950 C   0  0  0  0  0  0  0  0  0  0  0  0
   -3.4960   20.9400  -32.3120 C   0  0  0  0  0  0  0  0  0  0  0  0
   -4.8660   21.0650  -32.2680 C   0  0  0  0  0  0  0  0  0  0  0  0
   -5.8440   20.4940  -33.0770 C   0  0  0  0  0  0  0  0  0  0  0  0
   -7.1830   20.8490  -32.8430 C   0  0  0  0  0  0  0  0  0  0  0  0
   -7.5170   21.7700  -31.8190 C   0  0  0  0  0  0  0  0  0  0  0  0
   -8.9470   22.1670  -31.5880 C   0  0  0  0  0  0  0  0  0  0  0  0
   -9.2200   23.3460  -32.2590 F   0  0  0  0  0  0  0  0  0  0  0  0
   -9.7870   21.1720  -32.0560 F   0  0  0  0  0  0  0  0  0  0  0  0
   -6.4960   22.3350  -31.0230 C   0  0  0  0  0  0  0  0  0  0  0  0
   -5.1750   21.9420  -31.2610 C   0  0  0  0  0  0  0  0  0  0  0  0
   -4.0500   22.3730  -30.6470 N   0  0  0  0  0  0  0  0  0  0  0  0
   -3.9610   23.3960  -29.6420 C   0  0  0  0  0  0  0  0  0  0  0  0
   -4.2970   23.1330  -28.4570 O   0  0  0  0  0  0  0  0  0  0  0  0
   -3.5150   24.7550  -29.9820 C   0  0  0  0  0  0  0  0  0  0  0  0
   -4.1450   25.4400  -30.8300 O   0  0  0  0  0  0  0  0  0  0  0  0
   -2.4060   25.3010  -29.3480 O   0  0  0  0  0  0  0  0  0  0  0  0
   -1.8210   23.2160  -29.2600 H   0  0  0  0  0  0  0  0  0  0  0  0
   -0.1250   22.9420  -29.7710 H   0  0  0  0  0  0  0  0  0  0  0  0
   -2.9045   20.3221  -33.0036 H   0  0  0  0  0  0  0  0  0  0  0  0
   -5.5767   19.7862  -33.8754 H   0  0  0  0  0  0  0  0  0  0  0  0
   -7.9795   20.4080  -33.4603 H   0  0  0  0  0  0  0  0  0  0  0  0
   -9.1100   22.3120  -30.5099 H   0  0  0  0  0  0  0  0  0  0  0  0
   -6.7339   23.0656  -30.2358 H   0  0  0  0  0  0  0  0  0  0  0  0
  1  2  1  0
  2  3  2  0
  2  4  1  0
  4  5  2  0
  5  6  1  0
  6  7  2  0
  7  8  1  0
  8  9  2  0
  9 10  1  0
 10 11  1  0
 10 12  1  0
  9 13  1  0
 13 14  2  0
 14 15  1  0
 15 16  1  0
 16 17  2  0
 16 18  1  0
 18 19  2  0
 18 20  1  0
 15  4  1  0
 14  6  1  0
  1 21  1  0
  1 22  1  0
  5 23  1  0
  7 24  1  0
  8 25  1  0
 10 26  1  0
 13 27  1  0
M  CHG  1  20  -1
M  END
>  <UniqueID>  (5) 
4

>  <SMILES>  (5) 
NC(=O)c1cc2ccc(C(F)F)cc2n1C(=O)C(=O)[O-]

>  <Energy>  (5) 
67.30352762149123

>  <Genealogy>  (5) 
NC(=O)c1cc2ccc(C(F)F)cc2n1C(=O)C(=O)[O-] (protonated)
NC(=O)c1cc2ccc(C(F)F)cc2n1C(=O)C(=O)[O-] (3D coordinates assigned)
NC(=O)c1cc2ccc(C(F)F)cc2n1C(=O)C(=O)[O-] (optimized conformer: 67.30352762149123 kcal/mol)

>  <smiles>  (5) 
NC(=O)c1cc2ccc(C(F)F)cc2n1C(=O)C(=O)O

>  <score_type>  (5) 
oracle

>  <origin>  (5) 
adg

>  <m_score__min__energy>  (5) 
-8.2200000000000006

>  <m_primary>  (5) 
energy

$$$$
5:0
     RDKit          3D

 48 49  0  0  0  0  0  0  0  0999 V2000
   -0.4940   19.6450  -28.2030 C   0  0  0  0  0  0  0  0  0  0  0  0
   -1.3300   20.8310  -27.8910 N   0  0  0  0  0  0  0  0  0  0  0  0
   -0.8800   21.4320  -26.6120 C   0  0  0  0  0  0  0  0  0  0  0  0
   -2.7230   20.3480  -27.7020 C   0  0  0  0  0  0  0  0  0  0  0  0
   -1.3330   21.8170  -29.0250 C   0  0  0  0  0  0  0  0  0  0  0  0
   -2.4710   22.8930  -29.0700 C   0  0  1  0  0  0  0  0  0  0  0  0
   -2.2330   24.1390  -28.1960 C   0  0  0  0  0  0  0  0  0  0  0  0
   -1.0650   24.9660  -28.6490 C   0  0  0  0  0  0  0  0  0  0  0  0
   -1.2490   26.0040  -29.3360 O   0  0  0  0  0  0  0  0  0  0  0  0
    0.2280   24.5950  -28.3010 O   0  0  0  0  0  0  0  0  0  0  0  0
   -2.6390   23.3380  -30.4190 O   0  0  0  0  0  0  0  0  0  0  0  0
   -3.3390   22.6220  -31.3980 C   0  0  0  0  0  0  0  0  0  0  0  0
   -2.7230   21.8750  -32.2070 O   0  0  0  0  0  0  0  0  0  0  0  0
   -4.7710   22.7190  -31.4600 N   0  0  0  0  0  0  0  0  0  0  0  0
   -5.5600   23.6960  -30.9320 C   0  0  0  0  0  0  0  0  0  0  0  0
   -5.0890   24.9650  -30.3400 C   0  0  0  0  0  0  0  0  0  0  0  0
   -3.9150   25.6090  -30.8270 N   0  0  0  0  0  0  0  0  0  0  0  0
   -5.7610   25.5150  -29.4250 O   0  0  0  0  0  0  0  0  0  0  0  0
   -6.9060   23.3800  -31.0950 C   0  0  0  0  0  0  0  0  0  0  0  0
   -6.9200   22.1720  -31.7530 C   0  0  0  0  0  0  0  0  0  0  0  0
   -7.9950   21.3940  -32.1690 C   0  0  0  0  0  0  0  0  0  0  0  0
   -7.7160   20.1730  -32.8060 C   0  0  0  0  0  0  0  0  0  0  0  0
   -6.3780   19.7400  -32.9920 C   0  0  0  0  0  0  0  0  0  0  0  0
   -6.0910   18.4460  -33.7100 C   0  0  0  0  0  0  0  0  0  0  0  0
   -6.1060   18.6330  -35.0820 F   0  0  0  0  0  0  0  0  0  0  0  0
   -7.0400   17.4910  -33.3940 F   0  0  0  0  0  0  0  0  0  0  0  0
   -4.8430   17.9840  -33.3330 F   0  0  0  0  0  0  0  0  0  0  0  0
   -5.3120   20.5730  -32.5760 C   0  0  0  0  0  0  0  0  0  0  0  0
   -5.6200   21.7930  -31.9610 C   0  0  0  0  0  0  0  0  0  0  0  0
   -0.1619   19.1738  -27.2662 H   0  0  0  0  0  0  0  0  0  0  0  0
   -1.0844   18.9236  -28.7870 H   0  0  0  0  0  0  0  0  0  0  0  0
    0.3838   19.9586  -28.7870 H   0  0  0  0  0  0  0  0  0  0  0  0
   -1.3048   20.8647  -25.7708 H   0  0  0  0  0  0  0  0  0  0  0  0
    0.2182   21.4002  -26.5583 H   0  0  0  0  0  0  0  0  0  0  0  0
   -1.2197   22.4769  -26.5583 H   0  0  0  0  0  0  0  0  0  0  0  0
   -2.9420   20.2721  -26.6267 H   0  0  0  0  0  0  0  0  0  0  0  0
   -3.4232   21.0558  -28.1697 H   0  0  0  0  0  0  0  0  0  0  0  0
   -2.8347   19.3587  -28.1697 H   0  0  0  0  0  0  0  0  0  0  0  0
   -0.3753   22.3570  -28.9897 H   0  0  0  0  0  0  0  0  0  0  0  0
   -1.5057   21.2012  -29.9200 H   0  0  0  0  0  0  0  0  0  0  0  0
   -3.3607   22.3881  -28.6656 H   0  0  0  0  0  0  0  0  0  0  0  0
   -3.1370   24.7649  -28.2263 H   0  0  0  0  0  0  0  0  0  0  0  0
   -2.0081   23.7861  -27.1787 H   0  0  0  0  0  0  0  0  0  0  0  0
   -2.9650   25.2950  -30.5260 H   0  0  0  0  0  0  0  0  0  0  0  0
   -7.7740   23.9708  -30.7672 H   0  0  0  0  0  0  0  0  0  0  0  0
   -9.0313   21.7241  -32.0045 H   0  0  0  0  0  0  0  0  0  0  0  0
   -8.5451   19.5454  -33.1647 H   0  0  0  0  0  0  0  0  0  0  0  0
   -4.2663   20.2694  -32.7320 H   0  0  0  0  0  0  0  0  0  0  0  0
  1  2  1  0
  2  3  1  0
  2  4  1  0
  2  5  1  0
  5  6  1  0
  6  7  1  0
  7  8  1  0
  8  9  2  0
  8 10  1  0
  6 11  1  0
 11 12  1  0
 12 13  2  0
 12 14  1  0
 14 15  1  0
 15 16  1  0
 16 17  1  0
 16 18  2  0
 15 19  2  0
 19 20  1  0
 20 21  2  0
 21 22  1  0
 22 23  2  0
 23 24  1  0
 24 25  1  0
 24 26  1  0
 24 27  1  0
 23 28  1  0
 28 29  2  0
 29 14  1  0
 29 20  1  0
  1 30  1  0
  1 31  1  0
  1 32  1  0
  3 33  1  0
  3 34  1  0
  3 35  1  0
  4 36  1  0
  4 37  1  0
  4 38  1  0
  5 39  1  0
  5 40  1  0
  6 41  1  1
  7 42  1  0
  7 43  1  0
 17 44  1  0
 19 45  1  0
 21 46  1  0
 22 47  1  0
 28 48  1  0
M  CHG  3   2   1  10  -1  17  -1
M  END
>  <UniqueID>  (6) 
5

>  <SMILES>  (6) 
C[N+](C)(C)C[C@@H](CC(=O)[O-])OC(=O)n1c(C([NH-])=O)cc2ccc(C(F)(F)F)cc21

>  <Energy>  (6) 
96.4343246658828

>  <Genealogy>  (6) 
C[N+](C)(C)CC(CC(=O)[O-])OC(=O)n1c(C([NH-])=O)cc2ccc(C(F)(F)F)cc21 (protonated)
C[N+](C)(C)C[C@@H](CC(=O)[O-])OC(=O)n1c(C([NH-])=O)cc2ccc(C(F)(F)F)cc21 (chirality)
C[N+](C)(C)C[C@@H](CC(=O)[O-])OC(=O)n1c(C([NH-])=O)cc2ccc(C(F)(F)F)cc21 (3D coordinates assigned)
C[N+](C)(C)C[C@@H](CC(=O)[O-])OC(=O)n1c(C([NH-])=O)cc2ccc(C(F)(F)F)cc21 (optimized conformer: 96.4343246658828 kcal/mol)

>  <smiles>  (6) 
C[N+](C)(C)CC(CC(=O)O)OC(=O)n1c(C(N)=O)cc2ccc(C(F)(F)F)cc21

>  <score_type>  (6) 
oracle

>  <origin>  (6) 
adg

>  <m_score__min__energy>  (6) 
-12.18

>  <m_primary>  (6) 
energy

$$$$
6:0
     RDKit          3D

 38 39  0  0  0  0  0  0  0  0999 V2000
   -7.4860   22.6820  -29.9330 C   0  0  0  0  0  0  0  0  0  0  0  0
   -6.5660   23.8360  -30.3810 C   0  0  0  0  0  0  0  0  0  0  0  0
   -6.4950   23.9040  -31.9190 C   0  0  0  0  0  0  0  0  0  0  0  0
   -7.1040   25.1740  -29.8220 C   0  0  0  0  0  0  0  0  0  0  0  0
   -6.0930   26.1450  -29.7360 O   0  0  0  0  0  0  0  0  0  0  0  0
   -5.2200   23.6480  -29.8270 N   0  0  0  0  0  0  0  0  0  0  0  0
   -3.9790   24.1060  -30.3830 C   0  0  0  0  0  0  0  0  0  0  0  0
   -3.8380   25.3060  -30.7370 O   0  0  0  0  0  0  0  0  0  0  0  0
   -2.8760   23.1940  -30.5040 N   0  0  0  0  0  0  0  0  0  0  0  0
   -1.5970   23.3700  -30.0670 C   0  0  0  0  0  0  0  0  0  0  0  0
   -1.1160   24.4730  -29.2100 C   0  0  0  0  0  0  0  0  0  0  0  0
   -1.9270   25.6190  -28.9670 N   0  0  0  0  0  0  0  0  0  0  0  0
    0.0080   24.3810  -28.6480 O   0  0  0  0  0  0  0  0  0  0  0  0
   -0.7920   22.3060  -30.4710 C   0  0  0  0  0  0  0  0  0  0  0  0
   -1.6270   21.4610  -31.1670 C   0  0  0  0  0  0  0  0  0  0  0  0
   -1.3510   20.2550  -31.8040 C   0  0  0  0  0  0  0  0  0  0  0  0
   -2.4020   19.6110  -32.4760 C   0  0  0  0  0  0  0  0  0  0  0  0
   -3.6990   20.1820  -32.5070 C   0  0  0  0  0  0  0  0  0  0  0  0
   -4.8050   19.4840  -33.2460 C   0  0  0  0  0  0  0  0  0  0  0  0
   -5.7600   20.4060  -33.6320 F   0  0  0  0  0  0  0  0  0  0  0  0
   -4.2940   18.8600  -34.3700 F   0  0  0  0  0  0  0  0  0  0  0  0
   -3.9400   21.4090  -31.8500 C   0  0  0  0  0  0  0  0  0  0  0  0
   -2.8780   22.0200  -31.1730 C   0  0  0  0  0  0  0  0  0  0  0  0
   -7.5169   22.6432  -28.8341 H   0  0  0  0  0  0  0  0  0  0  0  0
   -8.5009   22.8498  -30.3227 H   0  0  0  0  0  0  0  0  0  0  0  0
   -7.0963   21.7300  -30.3227 H   0  0  0  0  0  0  0  0  0  0  0  0
   -5.7306   24.6360  -32.2188 H   0  0  0  0  0  0  0  0  0  0  0  0
   -6.2306   22.9136  -32.3180 H   0  0  0  0  0  0  0  0  0  0  0  0
   -7.4731   24.2109  -32.3180 H   0  0  0  0  0  0  0  0  0  0  0  0
   -7.8984   25.5444  -30.4867 H   0  0  0  0  0  0  0  0  0  0  0  0
   -7.4912   24.9914  -28.8087 H   0  0  0  0  0  0  0  0  0  0  0  0
   -5.3310   25.7300  -29.2540 H   0  0  0  0  0  0  0  0  0  0  0  0
   -2.9020   25.6750  -29.3360 H   0  0  0  0  0  0  0  0  0  0  0  0
    0.2819   22.1704  -30.2753 H   0  0  0  0  0  0  0  0  0  0  0  0
   -0.3410   19.8199  -31.7817 H   0  0  0  0  0  0  0  0  0  0  0  0
   -2.2170   18.6530  -32.9839 H   0  0  0  0  0  0  0  0  0  0  0  0
   -5.2625   18.7335  -32.5846 H   0  0  0  0  0  0  0  0  0  0  0  0
   -4.9373   21.8728  -31.8699 H   0  0  0  0  0  0  0  0  0  0  0  0
  1  2  1  0
  2  3  1  0
  2  4  1  0
  4  5  1  0
  2  6  1  0
  6  7  1  0
  7  8  2  0
  7  9  1  0
  9 10  1  0
 10 11  1  0
 11 12  1  0
 11 13  2  0
 10 14  2  0
 14 15  1  0
 15 16  2  0
 16 17  1  0
 17 18  2  0
 18 19  1  0
 19 20  1  0
 19 21  1  0
 18 22  1  0
 22 23  2  0
 23  9  1  0
 23 15  1  0
  1 24  1  0
  1 25  1  0
  1 26  1  0
  3 27  1  0
  3 28  1  0
  3 29  1  0
  4 30  1  0
  4 31  1  0
  5 32  1  0
 12 33  1  0
 14 34  1  0
 16 35  1  0
 17 36  1  0
 19 37  1  0
 22 38  1  0
M  CHG  2   6  -1  12  -1
M  END
>  <UniqueID>  (7) 
6

>  <SMILES>  (7) 
CC(C)(CO)[N-]C(=O)n1c(C([NH-])=O)cc2ccc(C(F)F)cc21

>  <Energy>  (7) 
73.1109652970035

>  <Genealogy>  (7) 
CC(C)(CO)[N-]C(=O)n1c(C([NH-])=O)cc2ccc(C(F)F)cc21 (protonated)
CC(C)(CO)[N-]C(=O)n1c(C([NH-])=O)cc2ccc(C(F)F)cc21 (3D coordinates assigned)
CC(C)(CO)[N-]C(=O)n1c(C([NH-])=O)cc2ccc(C(F)F)cc21 (optimized conformer: 73.1109652970035 kcal/mol)

>  <smiles>  (7) 
CC(C)(CO)NC(=O)n1c(C(N)=O)cc2ccc(C(F)F)cc21

>  <score_type>  (7) 
oracle

>  <origin>  (7) 
adg

>  <m_score__min__energy>  (7) 
-11

>  <m_primary>  (7) 
energy

$$$$
7:0
     RDKit          3D

 39 41  0  0  0  0  0  0  0  0999 V2000
   -2.2180   20.8560  -31.9720 C   0  0  0  0  0  0  0  0  0  0  0  0
   -2.9390   21.9120  -32.3430 C   0  0  0  0  0  0  0  0  0  0  0  0
   -3.6820   22.7520  -31.3850 C   0  0  0  0  0  0  0  0  0  0  0  0
   -3.0360   23.4300  -30.5430 O   0  0  0  0  0  0  0  0  0  0  0  0
   -5.1180   22.8260  -31.3940 N   0  0  0  0  0  0  0  0  0  0  0  0
   -5.9120   23.8160  -30.8960 C   0  0  0  0  0  0  0  0  0  0  0  0
   -5.4440   25.0960  -30.3210 C   0  0  0  0  0  0  0  0  0  0  0  0
   -6.0630   25.6650  -29.1680 N   0  0  0  0  0  0  0  0  0  0  0  0
   -4.4520   25.6760  -30.8370 O   0  0  0  0  0  0  0  0  0  0  0  0
   -7.2550   23.4710  -31.0160 C   0  0  0  0  0  0  0  0  0  0  0  0
   -7.2580   22.2370  -31.6280 C   0  0  0  0  0  0  0  0  0  0  0  0
   -8.3200   21.4160  -31.9820 C   0  0  0  0  0  0  0  0  0  0  0  0
   -8.0310   20.1780  -32.5790 C   0  0  0  0  0  0  0  0  0  0  0  0
   -6.6840   19.7630  -32.8170 C   0  0  0  0  0  0  0  0  0  0  0  0
   -6.3910   18.4700  -33.4330 N   0  0  0  0  0  0  0  0  0  0  0  0
   -7.2120   17.2950  -33.0730 C   0  0  0  0  0  0  0  0  0  0  0  0
   -6.8470   16.0290  -33.8530 C   0  0  0  0  0  0  0  0  0  0  0  0
   -5.4550   15.9350  -34.0370 O   0  0  0  0  0  0  0  0  0  0  0  0
   -5.0560   16.9470  -34.9300 C   0  0  0  0  0  0  0  0  0  0  0  0
   -5.1930   18.3300  -34.2870 C   0  0  0  0  0  0  0  0  0  0  0  0
   -5.6340   20.6430  -32.4250 C   0  0  0  0  0  0  0  0  0  0  0  0
   -5.9590   21.8720  -31.8470 C   0  0  0  0  0  0  0  0  0  0  0  0
   -1.6825   20.2627  -32.7278 H   0  0  0  0  0  0  0  0  0  0  0  0
   -2.1578   20.5769  -30.9097 H   0  0  0  0  0  0  0  0  0  0  0  0
   -2.9825   22.1695  -33.4116 H   0  0  0  0  0  0  0  0  0  0  0  0
   -5.7560   26.6000  -28.8190 H   0  0  0  0  0  0  0  0  0  0  0  0
   -6.7510   25.1260  -28.5990 H   0  0  0  0  0  0  0  0  0  0  0  0
   -8.1270   24.0579  -30.6917 H   0  0  0  0  0  0  0  0  0  0  0  0
   -9.3594   21.7266  -31.7999 H   0  0  0  0  0  0  0  0  0  0  0  0
   -8.8584   19.5139  -32.8695 H   0  0  0  0  0  0  0  0  0  0  0  0
   -7.0781   17.0929  -32.0000 H   0  0  0  0  0  0  0  0  0  0  0  0
   -8.2540   17.5402  -33.3261 H   0  0  0  0  0  0  0  0  0  0  0  0
   -7.1964   15.1485  -33.2939 H   0  0  0  0  0  0  0  0  0  0  0  0
   -7.3293   16.0740  -34.8406 H   0  0  0  0  0  0  0  0  0  0  0  0
   -4.0055   16.7840  -35.2127 H   0  0  0  0  0  0  0  0  0  0  0  0
   -5.7041   16.9071  -35.8179 H   0  0  0  0  0  0  0  0  0  0  0  0
   -4.3020   18.5160  -33.6693 H   0  0  0  0  0  0  0  0  0  0  0  0
   -5.2941   19.0576  -35.1058 H   0  0  0  0  0  0  0  0  0  0  0  0
   -4.5822   20.3582  -32.5756 H   0  0  0  0  0  0  0  0  0  0  0  0
  1  2  2  0
  2  3  1  0
  3  4  2  0
  3  5  1  0
  5  6  1  0
  6  7  1  0
  7  8  1  0
  7  9  2  0
  6 10  2  0
 10 11  1  0
 11 12  2  0
 12 13  1  0
 13 14  2  0
 14 15  1  0
 15 16  1  0
 16 17  1  0
 17 18  1  0
 18 19  1  0
 19 20  1  0
 14 21  1  0
 21 22  2  0
 22  5  1  0
 22 11  1  0
 20 15  1  0
  1 23  1  0
  1 24  1  0
  2 25  1  0
  8 26  1  0
  8 27  1  0
 10 28  1  0
 12 29  1  0
 13 30  1  0
 16 31  1  0
 16 32  1  0
 17 33  1  0
 17 34  1  0
 19 35  1  0
 19 36  1  0
 20 37  1  0
 20 38  1  0
 21 39  1  0
M  END
>  <UniqueID>  (8) 
7

>  <SMILES>  (8) 
C=CC(=O)n1c(C(N)=O)cc2ccc(N3CCOCC3)cc21

>  <Energy>  (8) 
87.66397634369321

>  <Genealogy>  (8) 
C=CC(=O)n1c(C(N)=O)cc2ccc(N3CCOCC3)cc21 (3D coordinates assigned)
C=CC(=O)n1c(C(N)=O)cc2ccc(N3CCOCC3)cc21 (nonaromatic ring conformer: 87.66397634369321 kcal/mol)

>  <smiles>  (8) 
C=CC(=O)n1c(C(N)=O)cc2ccc(N3CCOCC3)cc21

>  <score_type>  (8) 
oracle

>  <origin>  (8) 
adg

>  <m_score__min__energy>  (8) 
-9.1300000000000008

>  <m_primary>  (8) 
energy

$$$$
8:0
     RDKit          3D

 45 46  0  0  0  0  0  0  0  0999 V2000
    0.7370   23.7040  -36.0890 C   0  0  0  0  0  0  0  0  0  0  0  0
    0.3440   22.2650  -35.7950 C   0  0  0  0  0  0  0  0  0  0  0  0
    0.7610   21.9150  -34.4800 O   0  0  0  0  0  0  0  0  0  0  0  0
   -0.0850   21.2810  -33.5660 C   0  0  0  0  0  0  0  0  0  0  0  0
    0.2530   21.1560  -32.3570 O   0  0  0  0  0  0  0  0  0  0  0  0
   -1.4230   20.7880  -34.0200 C   0  0  0  0  0  0  0  0  0  0  0  0
   -2.4480   20.8510  -32.8890 C   0  0  0  0  0  0  0  0  0  0  0  0
   -3.0190   22.1890  -32.8040 N   0  0  0  0  0  0  0  0  0  0  0  0
   -3.5920   22.7180  -31.6060 C   0  0  0  0  0  0  0  0  0  0  0  0
   -2.8450   23.1040  -30.6670 O   0  0  0  0  0  0  0  0  0  0  0  0
   -5.0180   22.8300  -31.4830 N   0  0  0  0  0  0  0  0  0  0  0  0
   -5.7380   23.8950  -31.0280 C   0  0  0  0  0  0  0  0  0  0  0  0
   -5.1830   25.1220  -30.4180 C   0  0  0  0  0  0  0  0  0  0  0  0
   -3.9290   25.6520  -30.8430 N   0  0  0  0  0  0  0  0  0  0  0  0
   -5.8020   25.6860  -29.4770 O   0  0  0  0  0  0  0  0  0  0  0  0
   -7.1030   23.6440  -31.1360 C   0  0  0  0  0  0  0  0  0  0  0  0
   -7.2010   22.3780  -31.6650 C   0  0  0  0  0  0  0  0  0  0  0  0
   -8.3250   21.6280  -31.9860 C   0  0  0  0  0  0  0  0  0  0  0  0
   -8.1320   20.3540  -32.5430 C   0  0  0  0  0  0  0  0  0  0  0  0
   -6.8240   19.8450  -32.7810 C   0  0  0  0  0  0  0  0  0  0  0  0
   -6.6340   18.5290  -33.3630 N   0  0  0  0  0  0  0  0  0  0  0  0
   -5.8390   18.3600  -34.5840 C   0  0  0  0  0  0  0  0  0  0  0  0
   -7.2380   17.3440  -32.7400 C   0  0  0  0  0  0  0  0  0  0  0  0
   -5.7070   20.6520  -32.4400 C   0  0  0  0  0  0  0  0  0  0  0  0
   -5.9300   21.9070  -31.8650 C   0  0  0  0  0  0  0  0  0  0  0  0
    0.8846   24.2445  -35.1424 H   0  0  0  0  0  0  0  0  0  0  0  0
    1.6718   23.7177  -36.6687 H   0  0  0  0  0  0  0  0  0  0  0  0
   -0.0611   24.1909  -36.6687 H   0  0  0  0  0  0  0  0  0  0  0  0
   -0.7483   22.1608  -35.8725 H   0  0  0  0  0  0  0  0  0  0  0  0
    0.8302   21.5979  -36.5220 H   0  0  0  0  0  0  0  0  0  0  0  0
   -1.7713   21.4134  -34.8551 H   0  0  0  0  0  0  0  0  0  0  0  0
   -1.3186   19.7400  -34.3374 H   0  0  0  0  0  0  0  0  0  0  0  0
   -3.2507   20.1247  -33.0847 H   0  0  0  0  0  0  0  0  0  0  0  0
   -1.9497   20.6113  -31.9381 H   0  0  0  0  0  0  0  0  0  0  0  0
   -3.0320   25.2740  -30.4660 H   0  0  0  0  0  0  0  0  0  0  0  0
   -7.9283   24.3157  -30.8574 H   0  0  0  0  0  0  0  0  0  0  0  0
   -9.3371   22.0209  -31.8089 H   0  0  0  0  0  0  0  0  0  0  0  0
   -9.0066   19.7383  -32.8000 H   0  0  0  0  0  0  0  0  0  0  0  0
   -4.7958   18.1382  -34.3146 H   0  0  0  0  0  0  0  0  0  0  0  0
   -6.2492   17.5290  -35.1766 H   0  0  0  0  0  0  0  0  0  0  0  0
   -5.8757   19.2860  -35.1766 H   0  0  0  0  0  0  0  0  0  0  0  0
   -7.1890   17.4401  -31.6453 H   0  0  0  0  0  0  0  0  0  0  0  0
   -8.2889   17.2601  -33.0541 H   0  0  0  0  0  0  0  0  0  0  0  0
   -6.6885   16.4443  -33.0541 H   0  0  0  0  0  0  0  0  0  0  0  0
   -4.6828   20.2959  -32.6251 H   0  0  0  0  0  0  0  0  0  0  0  0
  1  2  1  0
  2  3  1  0
  3  4  1  0
  4  5  2  0
  4  6  1  0
  6  7  1  0
  7  8  1  0
  8  9  1  0
  9 10  2  0
  9 11  1  0
 11 12  1  0
 12 13  1  0
 13 14  1  0
 13 15  2  0
 12 16  2  0
 16 17  1  0
 17 18  2  0
 18 19  1  0
 19 20  2  0
 20 21  1  0
 21 22  1  0
 21 23  1  0
 20 24  1  0
 24 25  2  0
 25 11  1  0
 25 17  1  0
  1 26  1  0
  1 27  1  0
  1 28  1  0
  2 29  1  0
  2 30  1  0
  6 31  1  0
  6 32  1  0
  7 33  1  0
  7 34  1  0
 14 35  1  0
 16 36  1  0
 18 37  1  0
 19 38  1  0
 22 39  1  0
 22 40  1  0
 22 41  1  0
 23 42  1  0
 23 43  1  0
 23 44  1  0
 24 45  1  0
M  CHG  2   8  -1  14  -1
M  END
>  <UniqueID>  (9) 
8

>  <SMILES>  (9) 
CCOC(=O)CC[N-]C(=O)n1c(C([NH-])=O)cc2ccc(N(C)C)cc21

>  <Energy>  (9) 
74.43921667967771

>  <Genealogy>  (9) 
CCOC(=O)CC[N-]C(=O)n1c(C([NH-])=O)cc2ccc(N(C)C)cc21 (protonated)
CCOC(=O)CC[N-]C(=O)n1c(C([NH-])=O)cc2ccc(N(C)C)cc21 (3D coordinates assigned)
CCOC(=O)CC[N-]C(=O)n1c(C([NH-])=O)cc2ccc(N(C)C)cc21 (optimized conformer: 74.43921667967771 kcal/mol)

>  <smiles>  (9) 
CCOC(=O)CCNC(=O)n1c(C(N)=O)cc2ccc(N(C)C)cc21

>  <score_type>  (9) 
oracle

>  <origin>  (9) 
adg

>  <m_score__min__energy>  (9) 
-10.98

>  <m_primary>  (9) 
energy

$$$$
9:0
     RDKit          3D

 26 27  0  0  0  0  0  0  0  0999 V2000
   -3.9170   25.4430  -30.5110 N   0  0  0  0  0  0  0  0  0  0  0  0
   -4.2510   24.0990  -30.8440 C   0  0  0  0  0  0  0  0  0  0  0  0
   -5.3990   23.8440  -31.2990 O   0  0  0  0  0  0  0  0  0  0  0  0
   -3.2650   23.0060  -30.6960 C   0  0  0  0  0  0  0  0  0  0  0  0
   -3.1890   21.9120  -31.5550 C   0  0  0  0  0  0  0  0  0  0  0  0
   -2.1260   21.1640  -31.1010 C   0  0  0  0  0  0  0  0  0  0  0  0
   -1.6190   19.9540  -31.5640 C   0  0  0  0  0  0  0  0  0  0  0  0
   -0.5350   19.3860  -30.8730 C   0  0  0  0  0  0  0  0  0  0  0  0
    0.0280   20.0370  -29.7440 C   0  0  0  0  0  0  0  0  0  0  0  0
    1.1500   19.3880  -28.9740 C   0  0  0  0  0  0  0  0  0  0  0  0
    2.1160   18.9010  -29.8380 F   0  0  0  0  0  0  0  0  0  0  0  0
    0.6440   18.3400  -28.2290 F   0  0  0  0  0  0  0  0  0  0  0  0
    1.7500   20.2990  -28.1230 F   0  0  0  0  0  0  0  0  0  0  0  0
   -0.5340   21.2530  -29.2900 C   0  0  0  0  0  0  0  0  0  0  0  0
   -1.5990   21.8040  -30.0100 C   0  0  0  0  0  0  0  0  0  0  0  0
   -2.2850   22.9380  -29.7510 N   0  0  0  0  0  0  0  0  0  0  0  0
   -2.0710   23.8250  -28.6420 C   0  0  0  0  0  0  0  0  0  0  0  0
   -2.7580   23.6890  -27.5930 O   0  0  0  0  0  0  0  0  0  0  0  0
   -1.0660   24.8950  -28.7160 C   0  0  0  0  0  0  0  0  0  0  0  0
    0.1560   24.6330  -28.5660 O   0  0  0  0  0  0  0  0  0  0  0  0
   -1.4600   26.2040  -28.9670 O   0  0  0  0  0  0  0  0  0  0  0  0
   -3.4920   25.6790  -29.5870 H   0  0  0  0  0  0  0  0  0  0  0  0
   -3.8402   21.6923  -32.4139 H   0  0  0  0  0  0  0  0  0  0  0  0
   -2.0533   19.4571  -32.4440 H   0  0  0  0  0  0  0  0  0  0  0  0
   -0.1179   18.4258  -31.2109 H   0  0  0  0  0  0  0  0  0  0  0  0
   -0.1428   21.7535  -28.3920 H   0  0  0  0  0  0  0  0  0  0  0  0
  1  2  1  0
  2  3  2  0
  2  4  1  0
  4  5  2  0
  5  6  1  0
  6  7  2  0
  7  8  1  0
  8  9  2  0
  9 10  1  0
 10 11  1  0
 10 12  1  0
 10 13  1  0
  9 14  1  0
 14 15  2  0
 15 16  1  0
 16 17  1  0
 17 18  2  0
 17 19  1  0
 19 20  2  0
 19 21  1  0
 16  4  1  0
 15  6  1  0
  1 22  1  0
  5 23  1  0
  7 24  1  0
  8 25  1  0
 14 26  1  0
M  CHG  2   1  -1  21  -1
M  END
>  <UniqueID>  (10) 
9

>  <SMILES>  (10) 
[NH-]C(=O)c1cc2ccc(C(F)(F)F)cc2n1C(=O)C(=O)[O-]

>  <Energy>  (10) 
66.6940290370722

>  <Genealogy>  (10) 
[NH-]C(=O)c1cc2ccc(C(F)(F)F)cc2n1C(=O)C(=O)[O-] (protonated)
[NH-]C(=O)c1cc2ccc(C(F)(F)F)cc2n1C(=O)C(=O)[O-] (3D coordinates assigned)
[NH-]C(=O)c1cc2ccc(C(F)(F)F)cc2n1C(=O)C(=O)[O-] (optimized conformer: 66.6940290370722 kcal/mol)

>  <smiles>  (10) 
NC(=O)c1cc2ccc(C(F)(F)F)cc2n1C(=O)C(=O)O

>  <score_type>  (10) 
oracle

>  <origin>  (10) 
adg

>  <m_score__min__energy>  (10) 
-9.5899999999999999

>  <m_primary>  (10) 
energy

$$$$
10:0
     RDKit          3D

 48 50  0  0  0  0  0  0  0  0999 V2000
   -1.6200   25.6900  -27.7310 C   0  0  0  0  0  0  0  0  0  0  0  0
   -1.3650   24.7050  -28.7850 N   0  0  0  0  0  0  0  0  0  0  0  0
   -0.0740   24.0290  -28.5720 C   0  0  0  0  0  0  0  0  0  0  0  0
   -0.1820   22.5140  -28.8640 C   0  0  1  0  0  0  0  0  0  0  0  0
   -0.6890   21.7140  -27.6650 C   0  0  0  0  0  0  0  0  0  0  0  0
   -2.1410   21.3620  -27.9950 C   0  0  0  0  0  0  0  0  0  0  0  0
   -2.4800   22.0380  -29.2520 N   0  0  0  0  0  0  0  0  0  0  0  0
   -3.4780   21.2890  -30.0370 C   0  0  0  0  0  0  0  0  0  0  0  0
   -3.9930   22.1240  -31.1780 C   0  0  0  0  0  0  0  0  0  0  0  0
   -3.2280   22.3850  -32.1450 O   0  0  0  0  0  0  0  0  0  0  0  0
   -5.3570   22.5780  -31.2130 N   0  0  0  0  0  0  0  0  0  0  0  0
   -5.8070   23.8240  -30.8910 C   0  0  0  0  0  0  0  0  0  0  0  0
   -4.9580   24.9910  -30.5780 C   0  0  0  0  0  0  0  0  0  0  0  0
   -3.6270   24.8370  -30.0870 N   0  0  0  0  0  0  0  0  0  0  0  0
   -5.4020   26.1490  -30.7960 O   0  0  0  0  0  0  0  0  0  0  0  0
   -7.1970   23.8650  -30.9060 C   0  0  0  0  0  0  0  0  0  0  0  0
   -7.5950   22.5950  -31.2520 C   0  0  0  0  0  0  0  0  0  0  0  0
   -8.8750   22.0640  -31.3760 C   0  0  0  0  0  0  0  0  0  0  0  0
   -8.9950   20.7000  -31.6890 C   0  0  0  0  0  0  0  0  0  0  0  0
   -7.8430   19.8930  -31.8690 C   0  0  0  0  0  0  0  0  0  0  0  0
   -7.9990   18.4220  -32.1540 C   0  0  0  0  0  0  0  0  0  0  0  0
   -7.2130   17.7000  -31.2780 F   0  0  0  0  0  0  0  0  0  0  0  0
   -9.3200   18.0480  -31.9860 F   0  0  0  0  0  0  0  0  0  0  0  0
   -7.6240   18.1170  -33.4510 F   0  0  0  0  0  0  0  0  0  0  0  0
   -6.5600   20.4670  -31.7030 C   0  0  0  0  0  0  0  0  0  0  0  0
   -6.4670   21.8350  -31.4250 C   0  0  0  0  0  0  0  0  0  0  0  0
   -1.2070   22.2240  -29.9520 C   0  0  0  0  0  0  0  0  0  0  0  0
   -1.4968   25.2142  -26.7469 H   0  0  0  0  0  0  0  0  0  0  0  0
   -0.9078   26.5228  -27.8273 H   0  0  0  0  0  0  0  0  0  0  0  0
   -2.6468   26.0726  -27.8273 H   0  0  0  0  0  0  0  0  0  0  0  0
   -2.1270   23.9850  -28.7300 H   0  0  0  0  0  0  0  0  0  0  0  0
    0.6776   24.4711  -29.2425 H   0  0  0  0  0  0  0  0  0  0  0  0
    0.2195   24.1613  -27.5202 H   0  0  0  0  0  0  0  0  0  0  0  0
    0.8405   22.2237  -29.1472 H   0  0  0  0  0  0  0  0  0  0  0  0
   -0.0921   20.7996  -27.5324 H   0  0  0  0  0  0  0  0  0  0  0  0
   -0.6097   22.2861  -26.7289 H   0  0  0  0  0  0  0  0  0  0  0  0
   -2.2468   20.2735  -28.1128 H   0  0  0  0  0  0  0  0  0  0  0  0
   -2.8130   21.6849  -27.1862 H   0  0  0  0  0  0  0  0  0  0  0  0
   -3.0114   20.3774  -30.4386 H   0  0  0  0  0  0  0  0  0  0  0  0
   -4.3214   21.0287  -29.3805 H   0  0  0  0  0  0  0  0  0  0  0  0
   -3.0700   25.6760  -29.8110 H   0  0  0  0  0  0  0  0  0  0  0  0
   -3.1560   23.9050  -30.0820 H   0  0  0  0  0  0  0  0  0  0  0  0
   -7.8411   24.7295  -30.6875 H   0  0  0  0  0  0  0  0  0  0  0  0
   -9.7659   22.6932  -31.2333 H   0  0  0  0  0  0  0  0  0  0  0  0
   -9.9942   20.2526  -31.7957 H   0  0  0  0  0  0  0  0  0  0  0  0
   -5.6538   19.8497  -31.7908 H   0  0  0  0  0  0  0  0  0  0  0  0
   -0.9347   21.3118  -30.5032 H   0  0  0  0  0  0  0  0  0  0  0  0
   -1.2619   23.0394  -30.6882 H   0  0  0  0  0  0  0  0  0  0  0  0
  1  2  1  0
  2  3  1  0
  3  4  1  0
  4  5  1  0
  5  6  1  0
  6  7  1  0
  7  8  1  0
  8  9  1  0
  9 10  2  0
  9 11  1  0
 11 12  1  0
 12 13  1  0
 13 14  1  0
 13 15  2  0
 12 16  2  0
 16 17  1  0
 17 18  2  0
 18 19  1  0
 19 20  2  0
 20 21  1  0
 21 22  1  0
 21 23  1  0
 21 24  1  0
 20 25  1  0
 25 26  2  0
  7 27  1  0
 27  4  1  0
 26 11  1  0
 26 17  1  0
  1 28  1  0
  1 29  1  0
  1 30  1  0
  2 31  1  0
  3 32  1  0
  3 33  1  0
  4 34  1  6
  5 35  1  0
  5 36  1  0
  6 37  1  0
  6 38  1  0
  8 39  1  0
  8 40  1  0
 14 41  1  0
 14 42  1  0
 16 43  1  0
 18 44  1  0
 19 45  1  0
 25 46  1  0
 27 47  1  0
 27 48  1  0
M  END
>  <UniqueID>  (11) 
10

>  <SMILES>  (11) 
CNC[C@H]1CCN(CC(=O)n2c(C(N)=O)cc3ccc(C(F)(F)F)cc32)C1

>  <Energy>  (11) 
90.00231066393337

>  <Genealogy>  (11) 
CNC[C@H]1CCN(CC(=O)n2c(C(N)=O)cc3ccc(C(F)(F)F)cc32)C1 (chirality)
CNC[C@H]1CCN(CC(=O)n2c(C(N)=O)cc3ccc(C(F)(F)F)cc32)C1 (3D coordinates assigned)
CNC[C@H]1CCN(CC(=O)n2c(C(N)=O)cc3ccc(C(F)(F)F)cc32)C1 (nonaromatic ring conformer: 90.00231066393337 kcal/mol)

>  <smiles>  (11) 
CNCC1CCN(CC(=O)n2c(C(N)=O)cc3ccc(C(F)(F)F)cc32)C1

>  <score_type>  (11) 
oracle

>  <origin>  (11) 
adg

>  <m_score__min__energy>  (11) 
-8.2699999999999996

>  <m_primary>  (11) 
energy

$$$$
11:0
     RDKit          3D

 42 43  0  0  0  0  0  0  0  0999 V2000
   -3.5540   17.7700  -33.6540 C   0  0  0  0  0  0  0  0  0  0  0  0
   -4.2810   19.0560  -33.8570 C   0  0  0  0  0  0  0  0  0  0  0  0
   -3.6680   20.1510  -33.7280 O   0  0  0  0  0  0  0  0  0  0  0  0
   -5.6470   19.0300  -34.1540 O   0  0  0  0  0  0  0  0  0  0  0  0
   -6.5150   17.9610  -33.7770 C   0  0  0  0  0  0  0  0  0  0  0  0
   -7.0820   18.1780  -32.3690 C   0  0  0  0  0  0  0  0  0  0  0  0
   -7.1970   19.6450  -32.0480 C   0  0  0  0  0  0  0  0  0  0  0  0
   -8.3970   20.3440  -32.3300 C   0  0  0  0  0  0  0  0  0  0  0  0
   -8.4940   21.7240  -32.0880 C   0  0  0  0  0  0  0  0  0  0  0  0
   -7.3780   22.3760  -31.5690 C   0  0  0  0  0  0  0  0  0  0  0  0
   -7.1810   23.7080  -31.2880 C   0  0  0  0  0  0  0  0  0  0  0  0
   -5.8670   23.8020  -30.8340 C   0  0  0  0  0  0  0  0  0  0  0  0
   -5.2450   25.0660  -30.3840 C   0  0  0  0  0  0  0  0  0  0  0  0
   -3.8540   25.3090  -30.5640 N   0  0  0  0  0  0  0  0  0  0  0  0
   -5.9510   25.9350  -29.8060 O   0  0  0  0  0  0  0  0  0  0  0  0
   -5.2760   22.5730  -30.8310 N   0  0  0  0  0  0  0  0  0  0  0  0
   -3.9100   22.2560  -30.5150 C   0  0  0  0  0  0  0  0  0  0  0  0
   -3.3150   21.3600  -31.1780 O   0  0  0  0  0  0  0  0  0  0  0  0
   -3.2020   23.0070  -29.5030 N   0  0  0  0  0  0  0  0  0  0  0  0
   -3.7490   22.7330  -28.1630 C   0  0  0  0  0  0  0  0  0  0  0  0
   -1.7700   22.6770  -29.5540 C   0  0  0  0  0  0  0  0  0  0  0  0
   -6.2130   21.7130  -31.2860 C   0  0  0  0  0  0  0  0  0  0  0  0
   -6.0840   20.3420  -31.5300 C   0  0  0  0  0  0  0  0  0  0  0  0
   -3.4447   17.5767  -32.5766 H   0  0  0  0  0  0  0  0  0  0  0  0
   -4.1224   16.9503  -34.1178 H   0  0  0  0  0  0  0  0  0  0  0  0
   -2.5586   17.8343  -34.1178 H   0  0  0  0  0  0  0  0  0  0  0  0
   -7.3471   17.9044  -34.4942 H   0  0  0  0  0  0  0  0  0  0  0  0
   -5.9368   17.0252  -33.7795 H   0  0  0  0  0  0  0  0  0  0  0  0
   -8.0796   17.7184  -32.3092 H   0  0  0  0  0  0  0  0  0  0  0  0
   -6.3975   17.7153  -31.6428 H   0  0  0  0  0  0  0  0  0  0  0  0
   -9.2602   19.8009  -32.7421 H   0  0  0  0  0  0  0  0  0  0  0  0
   -9.4229   22.2731  -32.3018 H   0  0  0  0  0  0  0  0  0  0  0  0
   -7.9076   24.5265  -31.3984 H   0  0  0  0  0  0  0  0  0  0  0  0
   -3.5170   26.0350  -31.2350 H   0  0  0  0  0  0  0  0  0  0  0  0
   -3.3030   24.0310  -29.6950 H   0  0  0  0  0  0  0  0  0  0  0  0
   -3.0416   23.0873  -27.3987 H   0  0  0  0  0  0  0  0  0  0  0  0
   -4.7092   23.2566  -28.0448 H   0  0  0  0  0  0  0  0  0  0  0  0
   -3.9047   21.6505  -28.0448 H   0  0  0  0  0  0  0  0  0  0  0  0
   -1.3779   22.5866  -28.5303 H   0  0  0  0  0  0  0  0  0  0  0  0
   -1.6321   21.7235  -30.0850 H   0  0  0  0  0  0  0  0  0  0  0  0
   -1.2287   23.4740  -30.0850 H   0  0  0  0  0  0  0  0  0  0  0  0
   -5.1383   19.8195  -31.3233 H   0  0  0  0  0  0  0  0  0  0  0  0
  1  2  1  0
  2  3  2  0
  2  4  1  0
  4  5  1  0
  5  6  1  0
  6  7  1  0
  7  8  2  0
  8  9  1  0
  9 10  2  0
 10 11  1  0
 11 12  2  0
 12 13  1  0
 13 14  1  0
 13 15  2  0
 12 16  1  0
 16 17  1  0
 17 18  2  0
 17 19  1  0
 19 20  1  0
 19 21  1  0
 16 22  1  0
 22 23  2  0
 23  7  1  0
 22 10  1  0
  1 24  1  0
  1 25  1  0
  1 26  1  0
  5 27  1  0
  5 28  1  0
  6 29  1  0
  6 30  1  0
  8 31  1  0
  9 32  1  0
 11 33  1  0
 14 34  1  0
 19 35  1  0
 20 36  1  0
 20 37  1  0
 20 38  1  0
 21 39  1  0
 21 40  1  0
 21 41  1  0
 23 42  1  0
M  CHG  2  14  -1  19   1
M  END
>  <UniqueID>  (12) 
11

>  <SMILES>  (12) 
CC(=O)OCCc1ccc2cc(C([NH-])=O)n(C(=O)[NH+](C)C)c2c1

>  <Energy>  (12) 
74.87736558594858

>  <Genealogy>  (12) 
CC(=O)OCCc1ccc2cc(C([NH-])=O)n(C(=O)[NH+](C)C)c2c1 (protonated)
CC(=O)OCCc1ccc2cc(C([NH-])=O)n(C(=O)[NH+](C)C)c2c1 (3D coordinates assigned)
CC(=O)OCCc1ccc2cc(C([NH-])=O)n(C(=O)[NH+](C)C)c2c1 (optimized conformer: 74.87736558594858 kcal/mol)

>  <smiles>  (12) 
CC(=O)OCCc1ccc2cc(C(N)=O)n(C(=O)N(C)C)c2c1

>  <score_type>  (12) 
oracle

>  <origin>  (12) 
adg

>  <m_score__min__energy>  (12) 
-8.9299999999999997

>  <m_primary>  (12) 
energy

$$$$
12:0
     RDKit          3D

 56 60  0  0  0  0  0  0  0  0999 V2000
    0.7040   27.9220  -23.6510 C   0  0  0  0  0  0  0  0  0  0  0  0
   -0.0890   28.5870  -24.7840 C   0  0  0  0  0  0  0  0  0  0  0  0
   -0.8930   27.6430  -25.5900 N   0  0  0  0  0  0  0  0  0  0  0  0
   -0.3600   27.4340  -26.9580 C   0  0  0  0  0  0  0  0  0  0  0  0
   -0.6580   26.0370  -27.5390 C   0  0  0  0  0  0  0  0  0  0  0  0
   -1.9620   25.5270  -27.0790 N   0  0  0  0  0  0  0  0  0  0  0  0
   -2.7580   24.6950  -27.9570 C   0  0  0  0  0  0  0  0  0  0  0  0
   -3.5520   23.6460  -27.4560 C   0  0  0  0  0  0  0  0  0  0  0  0
   -4.3020   22.8660  -28.3370 C   0  0  0  0  0  0  0  0  0  0  0  0
   -4.2690   23.1200  -29.7160 C   0  0  0  0  0  0  0  0  0  0  0  0
   -5.0630   22.2960  -30.6640 C   0  0  0  0  0  0  0  0  0  0  0  0
   -6.4270   22.6000  -30.9110 C   0  0  0  0  0  0  0  0  0  0  0  0
   -7.1850   21.8320  -31.8100 C   0  0  0  0  0  0  0  0  0  0  0  0
   -6.5590   20.7640  -32.4440 C   0  0  0  0  0  0  0  0  0  0  0  0
   -7.0490   19.8660  -33.3660 C   0  0  0  0  0  0  0  0  0  0  0  0
   -5.9830   19.0160  -33.6580 C   0  0  0  0  0  0  0  0  0  0  0  0
   -6.0860   17.8520  -34.5630 C   0  0  0  0  0  0  0  0  0  0  0  0
   -5.3080   17.7770  -35.7550 N   0  0  0  0  0  0  0  0  0  0  0  0
   -6.8480   16.8950  -34.2640 O   0  0  0  0  0  0  0  0  0  0  0  0
   -4.8770   19.3850  -32.9520 N   0  0  0  0  0  0  0  0  0  0  0  0
   -3.5620   18.8120  -33.0000 C   0  0  0  0  0  0  0  0  0  0  0  0
   -2.5960   19.4290  -32.4780 O   0  0  0  0  0  0  0  0  0  0  0  0
   -3.3210   17.5360  -33.6900 C   0  0  0  0  0  0  0  0  0  0  0  0
   -2.6190   17.4240  -34.8350 N   0  0  0  0  0  0  0  0  0  0  0  0
   -2.6430   16.1540  -35.1230 O   0  0  0  0  0  0  0  0  0  0  0  0
   -3.3240   15.4980  -34.2130 C   0  0  0  0  0  0  0  0  0  0  0  0
   -3.7800   16.3420  -33.2720 N   0  0  0  0  0  0  0  0  0  0  0  0
   -5.2480   20.4490  -32.2110 C   0  0  0  0  0  0  0  0  0  0  0  0
   -4.4640   21.2010  -31.3300 C   0  0  0  0  0  0  0  0  0  0  0  0
   -3.4660   24.1750  -30.1770 C   0  0  0  0  0  0  0  0  0  0  0  0
   -2.7450   24.9230  -29.3000 N   0  0  0  0  0  0  0  0  0  0  0  0
   -2.3270   25.6700  -25.6600 C   0  0  0  0  0  0  0  0  0  0  0  0
   -1.2360   26.4010  -24.8790 C   0  0  0  0  0  0  0  0  0  0  0  0
    0.3068   28.2551  -22.6808 H   0  0  0  0  0  0  0  0  0  0  0  0
    0.6097   26.8289  -23.7300 H   0  0  0  0  0  0  0  0  0  0  0  0
    1.7640   28.2053  -23.7300 H   0  0  0  0  0  0  0  0  0  0  0  0
   -0.7689   29.3295  -24.3408 H   0  0  0  0  0  0  0  0  0  0  0  0
    0.6471   29.0397  -25.4646 H   0  0  0  0  0  0  0  0  0  0  0  0
   -0.8071   28.1879  -27.6226 H   0  0  0  0  0  0  0  0  0  0  0  0
    0.7342   27.5248  -26.8913 H   0  0  0  0  0  0  0  0  0  0  0  0
   -0.6666   26.1011  -28.6371 H   0  0  0  0  0  0  0  0  0  0  0  0
    0.1243   25.3455  -27.1929 H   0  0  0  0  0  0  0  0  0  0  0  0
   -3.5810   23.4422  -26.3754 H   0  0  0  0  0  0  0  0  0  0  0  0
   -4.9234   22.0462  -27.9473 H   0  0  0  0  0  0  0  0  0  0  0  0
   -6.8968   23.4482  -30.3916 H   0  0  0  0  0  0  0  0  0  0  0  0
   -8.2413   22.0679  -32.0066 H   0  0  0  0  0  0  0  0  0  0  0  0
   -8.0659   19.8275  -33.7836 H   0  0  0  0  0  0  0  0  0  0  0  0
   -4.3850   17.2890  -35.7640 H   0  0  0  0  0  0  0  0  0  0  0  0
   -3.4970   14.4117  -34.2196 H   0  0  0  0  0  0  0  0  0  0  0  0
   -4.3580   16.1170  -32.4330 H   0  0  0  0  0  0  0  0  0  0  0  0
   -3.4074   20.9472  -31.1591 H   0  0  0  0  0  0  0  0  0  0  0  0
   -3.4198   24.3977  -31.2532 H   0  0  0  0  0  0  0  0  0  0  0  0
   -3.2644   26.2409  -25.5866 H   0  0  0  0  0  0  0  0  0  0  0  0
   -2.4495   24.6653  -25.2292 H   0  0  0  0  0  0  0  0  0  0  0  0
   -1.6023   26.6419  -23.8701 H   0  0  0  0  0  0  0  0  0  0  0  0
   -0.3452   25.7612  -24.7946 H   0  0  0  0  0  0  0  0  0  0  0  0
  1  2  1  0
  2  3  1  0
  3  4  1  0
  4  5  1  0
  5  6  1  0
  6  7  1  0
  7  8  2  0
  8  9  1  0
  9 10  2  0
 10 11  1  0
 11 12  2  0
 12 13  1  0
 13 14  2  0
 14 15  1  0
 15 16  2  0
 16 17  1  0
 17 18  1  0
 17 19  2  0
 16 20  1  0
 20 21  1  0
 21 22  2  0
 21 23  1  0
 23 24  2  0
 24 25  1  0
 25 26  1  0
 26 27  2  0
 20 28  1  0
 28 29  2  0
 10 30  1  0
 30 31  2  0
  6 32  1  0
 32 33  1  0
 33  3  1  0
 31  7  1  0
 29 11  1  0
 28 14  1  0
 27 23  1  0
  1 34  1  0
  1 35  1  0
  1 36  1  0
  2 37  1  0
  2 38  1  0
  4 39  1  0
  4 40  1  0
  5 41  1  0
  5 42  1  0
  8 43  1  0
  9 44  1  0
 12 45  1  0
 13 46  1  0
 15 47  1  0
 18 48  1  0
 26 49  1  0
 27 50  1  0
 29 51  1  0
 30 52  1  0
 32 53  1  0
 32 54  1  0
 33 55  1  0
 33 56  1  0
M  CHG  2  18  -1  27   1
M  END
>  <UniqueID>  (13) 
12

>  <SMILES>  (13) 
CCN1CCN(c2ccc(-c3ccc4cc(C([NH-])=O)n(C(=O)c5noc[nH+]5)c4c3)cn2)CC1

>  <Energy>  (13) 
149.9802259226984

>  <Genealogy>  (13) 
CCN1CCN(c2ccc(-c3ccc4cc(C([NH-])=O)n(C(=O)c5noc[nH+]5)c4c3)cn2)CC1 (protonated)
CCN1CCN(c2ccc(-c3ccc4cc(C([NH-])=O)n(C(=O)c5noc[nH+]5)c4c3)cn2)CC1 (3D coordinates assigned)
CCN1CCN(c2ccc(-c3ccc4cc(C([NH-])=O)n(C(=O)c5noc[nH+]5)c4c3)cn2)CC1 (nonaromatic ring conformer: 149.9802259226984 kcal/mol)

>  <smiles>  (13) 
CCN1CCN(c2ccc(-c3ccc4cc(C(N)=O)n(C(=O)c5ncon5)c4c3)cn2)CC1

>  <score_type>  (13) 
oracle

>  <origin>  (13) 
adg

>  <m_score__min__energy>  (13) 
-8.9199999999999999

>  <m_primary>  (13) 
energy

$$$$
13:0
     RDKit          3D

 33 35  0  0  0  0  0  0  0  0999 V2000
   -1.6190   25.7050  -28.9640 N   0  0  0  0  0  0  0  0  0  0  0  0
   -1.0960   24.3870  -29.1210 C   0  0  0  0  0  0  0  0  0  0  0  0
    0.0230   24.1050  -28.6160 O   0  0  0  0  0  0  0  0  0  0  0  0
   -1.8180   23.3710  -29.9140 C   0  0  0  0  0  0  0  0  0  0  0  0
   -1.2530   22.1570  -30.2970 C   0  0  0  0  0  0  0  0  0  0  0  0
   -2.2000   21.5450  -31.0850 C   0  0  0  0  0  0  0  0  0  0  0  0
   -2.1720   20.3070  -31.7190 C   0  0  0  0  0  0  0  0  0  0  0  0
   -3.3100   19.9100  -32.4390 C   0  0  0  0  0  0  0  0  0  0  0  0
   -4.4480   20.7510  -32.5120 C   0  0  0  0  0  0  0  0  0  0  0  0
   -5.6800   20.2940  -33.2460 C   0  0  0  0  0  0  0  0  0  0  0  0
   -6.9450   20.9130  -32.6300 C   0  0  0  0  0  0  0  0  0  0  0  0
   -7.0770   22.3740  -32.6730 N   0  0  0  0  0  0  0  0  0  0  0  0
   -7.4850   20.2470  -31.3690 C   0  0  0  0  0  0  0  0  0  0  0  0
   -8.2450   20.1230  -32.6910 C   0  0  0  0  0  0  0  0  0  0  0  0
   -4.4420   21.9980  -31.8490 C   0  0  0  0  0  0  0  0  0  0  0  0
   -3.2880   22.3760  -31.1530 C   0  0  0  0  0  0  0  0  0  0  0  0
   -3.0720   23.5010  -30.4360 N   0  0  0  0  0  0  0  0  0  0  0  0
   -4.0170   24.5590  -30.2080 C   0  0  0  0  0  0  0  0  0  0  0  0
   -3.8840   25.6680  -30.7880 O   0  0  0  0  0  0  0  0  0  0  0  0
   -5.0730   24.3760  -29.3230 O   0  0  0  0  0  0  0  0  0  0  0  0
   -2.6470   25.8790  -28.9790 H   0  0  0  0  0  0  0  0  0  0  0  0
   -0.2597   21.7695  -30.0266 H   0  0  0  0  0  0  0  0  0  0  0  0
   -1.2853   19.6589  -31.6580 H   0  0  0  0  0  0  0  0  0  0  0  0
   -3.3182   18.9367  -32.9514 H   0  0  0  0  0  0  0  0  0  0  0  0
   -5.6057   20.5997  -34.3000 H   0  0  0  0  0  0  0  0  0  0  0  0
   -5.7502   19.1990  -33.1683 H   0  0  0  0  0  0  0  0  0  0  0  0
   -6.8480   22.7390  -31.7200 H   0  0  0  0  0  0  0  0  0  0  0  0
   -6.3750   22.7970  -33.3230 H   0  0  0  0  0  0  0  0  0  0  0  0
   -6.9708   19.3717  -30.9453 H   0  0  0  0  0  0  0  0  0  0  0  0
   -7.7373   20.5889  -30.3544 H   0  0  0  0  0  0  0  0  0  0  0  0
   -8.2782   19.1581  -33.2181 H   0  0  0  0  0  0  0  0  0  0  0  0
   -9.2718   20.3386  -33.0215 H   0  0  0  0  0  0  0  0  0  0  0  0
   -5.3229   22.6562  -31.8789 H   0  0  0  0  0  0  0  0  0  0  0  0
  1  2  1  0
  2  3  2  0
  2  4  1  0
  4  5  2  0
  5  6  1  0
  6  7  2  0
  7  8  1  0
  8  9  2  0
  9 10  1  0
 10 11  1  0
 11 12  1  0
 11 13  1  0
 13 14  1  0
  9 15  1  0
 15 16  2  0
 16 17  1  0
 17 18  1  0
 18 19  2  0
 18 20  1  0
 17  4  1  0
 16  6  1  0
 14 11  1  0
  1 21  1  0
  5 22  1  0
  7 23  1  0
  8 24  1  0
 10 25  1  0
 10 26  1  0
 12 27  1  0
 12 28  1  0
 13 29  1  0
 13 30  1  0
 14 31  1  0
 14 32  1  0
 15 33  1  0
M  CHG  2   1  -1  20  -1
M  END
>  <UniqueID>  (14) 
13

>  <SMILES>  (14) 
[NH-]C(=O)c1cc2ccc(CC3(N)CC3)cc2n1C(=O)[O-]

>  <Energy>  (14) 
341.22053461862686

>  <Genealogy>  (14) 
[NH-]C(=O)c1cc2ccc(CC3(N)CC3)cc2n1C(=O)[O-] (protonated)
[NH-]C(=O)c1cc2ccc(CC3(N)CC3)cc2n1C(=O)[O-] (3D coordinates assigned)
[NH-]C(=O)c1cc2ccc(CC3(N)CC3)cc2n1C(=O)[O-] (nonaromatic ring conformer: 341.22053461862686 kcal/mol)

>  <smiles>  (14) 
NC(=O)c1cc2ccc(CC3(N)CC3)cc2n1C(=O)O

>  <score_type>  (14) 
oracle

>  <origin>  (14) 
adg

>  <m_score__min__energy>  (14) 
-11.19

>  <m_primary>  (14) 
energy

$$$$
14:0
     RDKit          3D

 45 46  0  0  0  0  0  0  0  0999 V2000
   -7.3770   22.5910  -29.8340 C   0  0  0  0  0  0  0  0  0  0  0  0
   -7.8540   22.1060  -31.1380 N   0  0  0  0  0  0  0  0  0  0  0  0
   -7.7760   23.1600  -32.1600 C   0  0  0  0  0  0  0  0  0  0  0  0
   -9.1880   21.4680  -31.0630 C   0  0  0  0  0  0  0  0  0  0  0  0
   -9.3610   20.2470  -31.9920 C   0  0  0  0  0  0  0  0  0  0  0  0
   -8.3900   19.1310  -31.6080 C   0  0  0  0  0  0  0  0  0  0  0  0
   -7.7810   18.5770  -32.8100 N   0  0  0  0  0  0  0  0  0  0  0  0
   -6.4820   18.9290  -33.3030 C   0  0  0  0  0  0  0  0  0  0  0  0
   -5.6760   18.0070  -33.6000 O   0  0  0  0  0  0  0  0  0  0  0  0
   -6.0620   20.3590  -33.4980 C   0  0  0  0  0  0  0  0  0  0  0  0
   -4.8010   20.6640  -32.7340 C   0  0  0  0  0  0  0  0  0  0  0  0
   -3.6950   19.7790  -32.7980 C   0  0  0  0  0  0  0  0  0  0  0  0
   -2.5120   20.0610  -32.0950 C   0  0  0  0  0  0  0  0  0  0  0  0
   -2.4630   21.2280  -31.3410 C   0  0  0  0  0  0  0  0  0  0  0  0
   -1.4370   21.7490  -30.5860 C   0  0  0  0  0  0  0  0  0  0  0  0
   -1.9350   22.9400  -30.0600 C   0  0  0  0  0  0  0  0  0  0  0  0
   -1.1930   23.7890  -29.1010 C   0  0  0  0  0  0  0  0  0  0  0  0
   -1.3460   25.2090  -29.1130 N   0  0  0  0  0  0  0  0  0  0  0  0
   -0.3890   23.2650  -28.2840 O   0  0  0  0  0  0  0  0  0  0  0  0
   -3.2160   23.1490  -30.4760 N   0  0  0  0  0  0  0  0  0  0  0  0
   -4.0460   24.2930  -30.2100 C   0  0  0  0  0  0  0  0  0  0  0  0
   -3.8420   25.3820  -30.8090 O   0  0  0  0  0  0  0  0  0  0  0  0
   -5.0710   24.2160  -29.2760 O   0  0  0  0  0  0  0  0  0  0  0  0
   -3.5250   22.0910  -31.2600 C   0  0  0  0  0  0  0  0  0  0  0  0
   -4.7100   21.8450  -31.9640 C   0  0  0  0  0  0  0  0  0  0  0  0
   -7.9028   22.0563  -29.0292 H   0  0  0  0  0  0  0  0  0  0  0  0
   -6.2954   22.4099  -29.7487 H   0  0  0  0  0  0  0  0  0  0  0  0
   -7.5760   23.6695  -29.7487 H   0  0  0  0  0  0  0  0  0  0  0  0
   -7.7033   24.1418  -31.6693 H   0  0  0  0  0  0  0  0  0  0  0  0
   -6.8875   22.9971  -32.7877 H   0  0  0  0  0  0  0  0  0  0  0  0
   -8.6788   23.1297  -32.7877 H   0  0  0  0  0  0  0  0  0  0  0  0
   -9.3548   21.1389  -30.0267 H   0  0  0  0  0  0  0  0  0  0  0  0
   -9.9171   22.2220  -31.3944 H   0  0  0  0  0  0  0  0  0  0  0  0
  -10.3920   19.8729  -31.9076 H   0  0  0  0  0  0  0  0  0  0  0  0
   -9.1499   20.5578  -33.0258 H   0  0  0  0  0  0  0  0  0  0  0  0
   -7.6047   19.5381  -30.9542 H   0  0  0  0  0  0  0  0  0  0  0  0
   -8.9370   18.3379  -31.0772 H   0  0  0  0  0  0  0  0  0  0  0  0
   -5.8853   20.5384  -34.5688 H   0  0  0  0  0  0  0  0  0  0  0  0
   -6.8637   21.0122  -33.1230 H   0  0  0  0  0  0  0  0  0  0  0  0
   -3.7640   18.8633  -33.4036 H   0  0  0  0  0  0  0  0  0  0  0  0
   -1.6502   19.3789  -32.1397 H   0  0  0  0  0  0  0  0  0  0  0  0
   -0.4371   21.3176  -30.4307 H   0  0  0  0  0  0  0  0  0  0  0  0
   -0.7860   25.8020  -28.4620 H   0  0  0  0  0  0  0  0  0  0  0  0
   -2.0430   25.6740  -29.7360 H   0  0  0  0  0  0  0  0  0  0  0  0
   -5.5498   22.5541  -31.9187 H   0  0  0  0  0  0  0  0  0  0  0  0
  1  2  1  0
  2  3  1  0
  2  4  1  0
  4  5  1  0
  5  6  1  0
  6  7  1  0
  7  8  1  0
  8  9  2  0
  8 10  1  0
 10 11  1  0
 11 12  2  0
 12 13  1  0
 13 14  2  0
 14 15  1  0
 15 16  2  0
 16 17  1  0
 17 18  1  0
 17 19  2  0
 16 20  1  0
 20 21  1  0
 21 22  2  0
 21 23  1  0
 20 24  1  0
 24 25  2  0
 25 11  1  0
 24 14  1  0
  1 26  1  0
  1 27  1  0
  1 28  1  0
  3 29  1  0
  3 30  1  0
  3 31  1  0
  4 32  1  0
  4 33  1  0
  5 34  1  0
  5 35  1  0
  6 36  1  0
  6 37  1  0
 10 38  1  0
 10 39  1  0
 12 40  1  0
 13 41  1  0
 15 42  1  0
 18 43  1  0
 18 44  1  0
 25 45  1  0
M  CHG  2   7  -1  23  -1
M  END
>  <UniqueID>  (15) 
14

>  <SMILES>  (15) 
CN(C)CCC[N-]C(=O)Cc1ccc2cc(C(N)=O)n(C(=O)[O-])c2c1

>  <Energy>  (15) 
79.25923276298313

>  <Genealogy>  (15) 
CN(C)CCC[N-]C(=O)Cc1ccc2cc(C(N)=O)n(C(=O)[O-])c2c1 (protonated)
CN(C)CCC[N-]C(=O)Cc1ccc2cc(C(N)=O)n(C(=O)[O-])c2c1 (3D coordinates assigned)
CN(C)CCC[N-]C(=O)Cc1ccc2cc(C(N)=O)n(C(=O)[O-])c2c1 (optimized conformer: 79.25923276298313 kcal/mol)

>  <smiles>  (15) 
CN(C)CCCNC(=O)Cc1ccc2cc(C(N)=O)n(C(=O)O)c2c1

>  <score_type>  (15) 
oracle

>  <origin>  (15) 
adg

>  <m_score__min__energy>  (15) 
-9.1999999999999993

>  <m_primary>  (15) 
energy

$$$$
15:0
     RDKit          3D

 34 35  0  0  0  0  0  0  0  0999 V2000
   -2.7170   24.9030  -27.6250 C   0  0  0  0  0  0  0  0  0  0  0  0
   -1.9060   25.1210  -28.7720 O   0  0  0  0  0  0  0  0  0  0  0  0
   -1.0070   24.1640  -29.2520 C   0  0  0  0  0  0  0  0  0  0  0  0
    0.2160   24.2200  -28.9480 O   0  0  0  0  0  0  0  0  0  0  0  0
   -1.5090   23.0440  -30.1070 C   0  0  0  0  0  0  0  0  0  0  0  0
   -2.9350   23.0320  -30.1270 O   0  0  0  0  0  0  0  0  0  0  0  0
   -3.6830   22.6580  -31.2490 C   0  0  0  0  0  0  0  0  0  0  0  0
   -3.1100   22.1820  -32.2670 O   0  0  0  0  0  0  0  0  0  0  0  0
   -5.1050   22.8450  -31.2500 N   0  0  0  0  0  0  0  0  0  0  0  0
   -5.7960   23.9900  -30.9910 C   0  0  0  0  0  0  0  0  0  0  0  0
   -5.2220   25.2510  -30.4750 C   0  0  0  0  0  0  0  0  0  0  0  0
   -3.9120   25.6670  -30.8490 N   0  0  0  0  0  0  0  0  0  0  0  0
   -5.8800   25.9460  -29.6560 O   0  0  0  0  0  0  0  0  0  0  0  0
   -7.1600   23.7990  -31.2050 C   0  0  0  0  0  0  0  0  0  0  0  0
   -7.2860   22.4870  -31.6020 C   0  0  0  0  0  0  0  0  0  0  0  0
   -8.4200   21.7650  -31.9620 C   0  0  0  0  0  0  0  0  0  0  0  0
   -8.2510   20.4310  -32.3670 C   0  0  0  0  0  0  0  0  0  0  0  0
   -6.9600   19.8470  -32.4110 C   0  0  0  0  0  0  0  0  0  0  0  0
   -6.7810   18.4260  -32.8630 C   0  0  0  0  0  0  0  0  0  0  0  0
   -6.0410   18.3990  -34.0300 F   0  0  0  0  0  0  0  0  0  0  0  0
   -6.1180   17.7060  -31.8860 F   0  0  0  0  0  0  0  0  0  0  0  0
   -5.8320   20.6120  -32.0400 C   0  0  0  0  0  0  0  0  0  0  0  0
   -6.0320   21.9330  -31.6230 C   0  0  0  0  0  0  0  0  0  0  0  0
   -2.1181   25.0640  -26.7165 H   0  0  0  0  0  0  0  0  0  0  0  0
   -3.5634   25.6055  -27.6355 H   0  0  0  0  0  0  0  0  0  0  0  0
   -3.0971   23.8708  -27.6355 H   0  0  0  0  0  0  0  0  0  0  0  0
   -1.1336   23.1751  -31.1326 H   0  0  0  0  0  0  0  0  0  0  0  0
   -1.1508   22.0907  -29.6913 H   0  0  0  0  0  0  0  0  0  0  0  0
   -3.0660   25.1960  -30.4590 H   0  0  0  0  0  0  0  0  0  0  0  0
   -7.9645   24.5391  -31.0827 H   0  0  0  0  0  0  0  0  0  0  0  0
   -9.4185   22.2253  -31.9303 H   0  0  0  0  0  0  0  0  0  0  0  0
   -9.1291   19.8333  -32.6529 H   0  0  0  0  0  0  0  0  0  0  0  0
   -7.7694   17.9780  -33.0429 H   0  0  0  0  0  0  0  0  0  0  0  0
   -4.8211   20.1801  -32.0779 H   0  0  0  0  0  0  0  0  0  0  0  0
  1  2  1  0
  2  3  1  0
  3  4  2  0
  3  5  1  0
  5  6  1  0
  6  7  1  0
  7  8  2  0
  7  9  1  0
  9 10  1  0
 10 11  1  0
 11 12  1  0
 11 13  2  0
 10 14  2  0
 14 15  1  0
 15 16  2  0
 16 17  1  0
 17 18  2  0
 18 19  1  0
 19 20  1  0
 19 21  1  0
 18 22  1  0
 22 23  2  0
 23  9  1  0
 23 15  1  0
  1 24  1  0
  1 25  1  0
  1 26  1  0
  5 27  1  0
  5 28  1  0
 12 29  1  0
 14 30  1  0
 16 31  1  0
 17 32  1  0
 19 33  1  0
 22 34  1  0
M  CHG  1  12  -1
M  END
>  <UniqueID>  (16) 
15

>  <SMILES>  (16) 
COC(=O)COC(=O)n1c(C([NH-])=O)cc2ccc(C(F)F)cc21

>  <Energy>  (16) 
68.28703587945505

>  <Genealogy>  (16) 
COC(=O)COC(=O)n1c(C([NH-])=O)cc2ccc(C(F)F)cc21 (protonated)
COC(=O)COC(=O)n1c(C([NH-])=O)cc2ccc(C(F)F)cc21 (3D coordinates assigned)
COC(=O)COC(=O)n1c(C([NH-])=O)cc2ccc(C(F)F)cc21 (optimized conformer: 68.28703587945505 kcal/mol)

>  <smiles>  (16) 
COC(=O)COC(=O)n1c(C(N)=O)cc2ccc(C(F)F)cc21

>  <score_type>  (16) 
oracle

>  <origin>  (16) 
adg

>  <m_score__min__energy>  (16) 
-9.5899999999999999

>  <m_primary>  (16) 
energy

$$$$
16:0
     RDKit          3D

 38 41  0  0  0  0  0  0  0  0999 V2000
   -3.9980   25.6600  -30.6800 N   0  0  0  0  0  0  0  0  0  0  0  0
   -5.3440   25.2540  -30.4430 C   0  0  0  0  0  0  0  0  0  0  0  0
   -6.1130   26.0150  -29.8000 O   0  0  0  0  0  0  0  0  0  0  0  0
   -5.8060   23.9320  -30.9160 C   0  0  0  0  0  0  0  0  0  0  0  0
   -7.1110   23.6780  -31.3320 C   0  0  0  0  0  0  0  0  0  0  0  0
   -7.1050   22.3760  -31.7780 C   0  0  0  0  0  0  0  0  0  0  0  0
   -8.1370   21.6040  -32.2980 C   0  0  0  0  0  0  0  0  0  0  0  0
   -7.8520   20.2770  -32.6590 C   0  0  0  0  0  0  0  0  0  0  0  0
   -6.5470   19.7390  -32.4900 C   0  0  0  0  0  0  0  0  0  0  0  0
   -6.2470   18.3320  -32.8640 C   0  0  0  0  0  0  0  0  0  0  0  0
   -6.1130   17.8170  -34.1540 C   0  0  0  0  0  0  0  0  0  0  0  0
   -5.8290   16.4460  -34.1840 C   0  0  0  0  0  0  0  0  0  0  0  0
   -5.7370   15.8640  -32.9290 C   0  0  0  0  0  0  0  0  0  0  0  0
   -6.0110   17.0590  -31.7830 S   0  0  0  0  0  0  0  0  0  0  0  0
   -5.5250   20.5630  -31.9600 C   0  0  0  0  0  0  0  0  0  0  0  0
   -5.8350   21.8860  -31.6250 C   0  0  0  0  0  0  0  0  0  0  0  0
   -5.0260   22.8270  -31.0920 N   0  0  0  0  0  0  0  0  0  0  0  0
   -3.6430   22.6590  -30.7440 C   0  0  0  0  0  0  0  0  0  0  0  0
   -2.7440   22.9330  -31.5860 O   0  0  0  0  0  0  0  0  0  0  0  0
   -3.2990   22.2100  -29.4640 O   0  0  0  0  0  0  0  0  0  0  0  0
   -3.0560   23.0870  -28.3670 C   0  0  0  0  0  0  0  0  0  0  0  0
   -1.6040   23.4370  -28.2930 C   0  0  0  0  0  0  0  0  0  0  0  0
   -0.6690   22.6790  -27.7670 O   0  0  0  0  0  0  0  0  0  0  0  0
    0.4520   23.3570  -27.8840 C   0  0  0  0  0  0  0  0  0  0  0  0
    1.5680   22.9340  -27.4840 O   0  0  0  0  0  0  0  0  0  0  0  0
    0.2810   24.5260  -28.4620 O   0  0  0  0  0  0  0  0  0  0  0  0
   -1.0000   24.5960  -28.7250 C   0  0  0  0  0  0  0  0  0  0  0  0
   -1.6250   25.6760  -29.3360 O   0  0  0  0  0  0  0  0  0  0  0  0
   -3.2170   24.9670  -30.6640 H   0  0  0  0  0  0  0  0  0  0  0  0
   -7.9650   24.3710  -31.3089 H   0  0  0  0  0  0  0  0  0  0  0  0
   -9.1475   22.0201  -32.4232 H   0  0  0  0  0  0  0  0  0  0  0  0
   -8.6492   19.6455  -33.0781 H   0  0  0  0  0  0  0  0  0  0  0  0
   -6.2203   18.4298  -35.0612 H   0  0  0  0  0  0  0  0  0  0  0  0
   -5.6914   15.8821  -35.1184 H   0  0  0  0  0  0  0  0  0  0  0  0
   -5.5222   14.8054  -32.7211 H   0  0  0  0  0  0  0  0  0  0  0  0
   -4.5075   20.1712  -31.8144 H   0  0  0  0  0  0  0  0  0  0  0  0
   -3.6444   24.0067  -28.5006 H   0  0  0  0  0  0  0  0  0  0  0  0
   -3.3502   22.5831  -27.4345 H   0  0  0  0  0  0  0  0  0  0  0  0
  1  2  1  0
  2  3  2  0
  2  4  1  0
  4  5  2  0
  5  6  1  0
  6  7  2  0
  7  8  1  0
  8  9  2  0
  9 10  1  0
 10 11  2  0
 11 12  1  0
 12 13  2  0
 13 14  1  0
  9 15  1  0
 15 16  2  0
 16 17  1  0
 17 18  1  0
 18 19  2  0
 18 20  1  0
 20 21  1  0
 21 22  1  0
 22 23  1  0
 23 24  1  0
 24 25  2  0
 24 26  1  0
 26 27  1  0
 27 28  1  0
 17  4  1  0
 27 22  2  0
 16  6  1  0
 14 10  1  0
  1 29  1  0
  5 30  1  0
  7 31  1  0
  8 32  1  0
 11 33  1  0
 12 34  1  0
 13 35  1  0
 15 36  1  0
 21 37  1  0
 21 38  1  0
M  CHG  2   1  -1  28  -1
M  END
>  <UniqueID>  (17) 
16

>  <SMILES>  (17) 
[NH-]C(=O)c1cc2ccc(-c3cccs3)cc2n1C(=O)OCc1oc(=O)oc1[O-]

>  <Energy>  (17) 
141.8537121596446

>  <Genealogy>  (17) 
[NH-]C(=O)c1cc2ccc(-c3cccs3)cc2n1C(=O)OCc1oc(=O)oc1[O-] (protonated)
[NH-]C(=O)c1cc2ccc(-c3cccs3)cc2n1C(=O)OCc1oc(=O)oc1[O-] (3D coordinates assigned)
[NH-]C(=O)c1cc2ccc(-c3cccs3)cc2n1C(=O)OCc1oc(=O)oc1[O-] (optimized conformer: 141.8537121596446 kcal/mol)

>  <smiles>  (17) 
NC(=O)c1cc2ccc(-c3cccs3)cc2n1C(=O)OCc1oc(=O)oc1O

>  <score_type>  (17) 
oracle

>  <origin>  (17) 
adg

>  <m_score__min__energy>  (17) 
-13.859999999999999

>  <m_primary>  (17) 
energy

$$$$
17:0
     RDKit          3D

 42 43  0  0  0  0  0  0  0  0999 V2000
   -4.1450   23.4580  -27.6560 C   0  0  0  0  0  0  0  0  0  0  0  0
   -3.4180   24.5420  -28.1900 O   0  0  0  0  0  0  0  0  0  0  0  0
   -2.3850   24.9300  -27.3040 C   0  0  0  0  0  0  0  0  0  0  0  0
   -1.1040   25.2540  -28.0740 C   0  0  0  0  0  0  0  0  0  0  0  0
   -1.1610   24.6730  -29.3630 O   0  0  0  0  0  0  0  0  0  0  0  0
   -0.6690   23.3520  -29.3420 C   0  0  0  0  0  0  0  0  0  0  0  0
   -1.6630   22.4170  -30.0280 C   0  0  0  0  0  0  0  0  0  0  0  0
   -2.8020   23.1420  -30.4890 O   0  0  0  0  0  0  0  0  0  0  0  0
   -3.6280   22.7050  -31.5310 C   0  0  0  0  0  0  0  0  0  0  0  0
   -3.1270   22.2210  -32.5840 O   0  0  0  0  0  0  0  0  0  0  0  0
   -5.0510   22.8340  -31.4120 N   0  0  0  0  0  0  0  0  0  0  0  0
   -5.7630   23.9370  -31.0490 C   0  0  0  0  0  0  0  0  0  0  0  0
   -5.1990   25.2000  -30.5280 C   0  0  0  0  0  0  0  0  0  0  0  0
   -3.8650   25.5920  -30.8400 N   0  0  0  0  0  0  0  0  0  0  0  0
   -5.8900   25.9210  -29.7580 O   0  0  0  0  0  0  0  0  0  0  0  0
   -7.1310   23.6960  -31.1650 C   0  0  0  0  0  0  0  0  0  0  0  0
   -7.2350   22.3980  -31.6110 C   0  0  0  0  0  0  0  0  0  0  0  0
   -8.3650   21.6440  -31.9190 C   0  0  0  0  0  0  0  0  0  0  0  0
   -8.1740   20.3380  -32.4010 C   0  0  0  0  0  0  0  0  0  0  0  0
   -6.8670   19.8150  -32.5710 C   0  0  0  0  0  0  0  0  0  0  0  0
   -6.6660   18.4250  -33.1040 C   0  0  0  0  0  0  0  0  0  0  0  0
   -5.8920   18.4740  -34.2510 F   0  0  0  0  0  0  0  0  0  0  0  0
   -6.0270   17.6490  -32.1550 F   0  0  0  0  0  0  0  0  0  0  0  0
   -5.7450   20.6100  -32.2490 C   0  0  0  0  0  0  0  0  0  0  0  0
   -5.9660   21.9000  -31.7540 C   0  0  0  0  0  0  0  0  0  0  0  0
   -4.1153   23.5023  -26.5573 H   0  0  0  0  0  0  0  0  0  0  0  0
   -5.1893   23.5133  -27.9971 H   0  0  0  0  0  0  0  0  0  0  0  0
   -3.6975   22.5128  -27.9971 H   0  0  0  0  0  0  0  0  0  0  0  0
   -2.7051   25.8215  -26.7448 H   0  0  0  0  0  0  0  0  0  0  0  0
   -2.1812   24.0984  -26.6135 H   0  0  0  0  0  0  0  0  0  0  0  0
   -1.0009   26.3450  -28.1692 H   0  0  0  0  0  0  0  0  0  0  0  0
   -0.2394   24.8467  -27.5294 H   0  0  0  0  0  0  0  0  0  0  0  0
    0.2942   23.3129  -29.8719 H   0  0  0  0  0  0  0  0  0  0  0  0
   -0.5320   23.0327  -28.2983 H   0  0  0  0  0  0  0  0  0  0  0  0
   -1.1715   21.9336  -30.8852 H   0  0  0  0  0  0  0  0  0  0  0  0
   -1.9955   21.6604  -29.3021 H   0  0  0  0  0  0  0  0  0  0  0  0
   -3.0620   25.2830  -30.2490 H   0  0  0  0  0  0  0  0  0  0  0  0
   -7.9524   24.3943  -30.9466 H   0  0  0  0  0  0  0  0  0  0  0  0
   -9.3757   22.0582  -31.7889 H   0  0  0  0  0  0  0  0  0  0  0  0
   -9.0465   19.7156  -32.6487 H   0  0  0  0  0  0  0  0  0  0  0  0
   -7.6459   17.9840  -33.3391 H   0  0  0  0  0  0  0  0  0  0  0  0
   -4.7235   20.2249  -32.3839 H   0  0  0  0  0  0  0  0  0  0  0  0
  1  2  1  0
  2  3  1  0
  3  4  1  0
  4  5  1  0
  5  6  1  0
  6  7  1  0
  7  8  1  0
  8  9  1  0
  9 10  2  0
  9 11  1  0
 11 12  1  0
 12 13  1  0
 13 14  1  0
 13 15  2  0
 12 16  2  0
 16 17  1  0
 17 18  2  0
 18 19  1  0
 19 20  2  0
 20 21  1  0
 21 22  1  0
 21 23  1  0
 20 24  1  0
 24 25  2  0
 25 11  1  0
 25 17  1  0
  1 26  1  0
  1 27  1  0
  1 28  1  0
  3 29  1  0
  3 30  1  0
  4 31  1  0
  4 32  1  0
  6 33  1  0
  6 34  1  0
  7 35  1  0
  7 36  1  0
 14 37  1  0
 16 38  1  0
 18 39  1  0
 19 40  1  0
 21 41  1  0
 24 42  1  0
M  CHG  1  14  -1
M  END
>  <UniqueID>  (18) 
17

>  <SMILES>  (18) 
COCCOCCOC(=O)n1c(C([NH-])=O)cc2ccc(C(F)F)cc21

>  <Energy>  (18) 
79.80802417873703

>  <Genealogy>  (18) 
COCCOCCOC(=O)n1c(C([NH-])=O)cc2ccc(C(F)F)cc21 (protonated)
COCCOCCOC(=O)n1c(C([NH-])=O)cc2ccc(C(F)F)cc21 (3D coordinates assigned)
COCCOCCOC(=O)n1c(C([NH-])=O)cc2ccc(C(F)F)cc21 (optimized conformer: 79.80802417873703 kcal/mol)

>  <smiles>  (18) 
COCCOCCOC(=O)n1c(C(N)=O)cc2ccc(C(F)F)cc21

>  <score_type>  (18) 
oracle

>  <origin>  (18) 
adg

>  <m_score__min__energy>  (18) 
-9.2699999999999996

>  <m_primary>  (18) 
energy

$$$$
18:0
     RDKit          3D

 34 36  0  0  0  0  0  0  0  0999 V2000
   -6.0320   23.2700  -29.6690 C   0  0  0  0  0  0  0  0  0  0  0  0
   -4.8970   23.7500  -29.1670 C   0  0  0  0  0  0  0  0  0  0  0  0
   -3.7670   24.1800  -30.0120 C   0  0  0  0  0  0  0  0  0  0  0  0
   -3.8160   25.3090  -30.5670 O   0  0  0  0  0  0  0  0  0  0  0  0
   -2.6150   23.3450  -30.2100 N   0  0  0  0  0  0  0  0  0  0  0  0
   -1.3680   23.5120  -29.6900 C   0  0  0  0  0  0  0  0  0  0  0  0
   -0.9070   24.6730  -28.8980 C   0  0  0  0  0  0  0  0  0  0  0  0
   -1.5840   25.9250  -28.9690 N   0  0  0  0  0  0  0  0  0  0  0  0
    0.1130   24.5640  -28.1660 O   0  0  0  0  0  0  0  0  0  0  0  0
   -0.5480   22.4400  -30.0420 C   0  0  0  0  0  0  0  0  0  0  0  0
   -1.3430   21.6050  -30.7960 C   0  0  0  0  0  0  0  0  0  0  0  0
   -1.0470   20.3850  -31.3940 C   0  0  0  0  0  0  0  0  0  0  0  0
   -2.0750   19.7290  -32.0940 C   0  0  0  0  0  0  0  0  0  0  0  0
   -3.3750   20.2940  -32.1790 C   0  0  0  0  0  0  0  0  0  0  0  0
   -4.4540   19.5890  -32.9150 C   0  0  0  0  0  0  0  0  0  0  0  0
   -4.1460   18.6530  -33.9170 C   0  0  0  0  0  0  0  0  0  0  0  0
   -5.1770   18.0000  -34.5970 C   0  0  0  0  0  0  0  0  0  0  0  0
   -6.4740   18.2690  -34.2890 N   0  0  0  0  0  0  0  0  0  0  0  0
   -6.8050   19.1680  -33.3250 C   0  0  0  0  0  0  0  0  0  0  0  0
   -8.1100   19.4030  -33.0450 F   0  0  0  0  0  0  0  0  0  0  0  0
   -5.8060   19.8440  -32.6230 C   0  0  0  0  0  0  0  0  0  0  0  0
   -3.6320   21.5370  -31.5520 C   0  0  0  0  0  0  0  0  0  0  0  0
   -2.5850   22.1720  -30.8760 C   0  0  0  0  0  0  0  0  0  0  0  0
   -6.8451   22.9629  -28.9948 H   0  0  0  0  0  0  0  0  0  0  0  0
   -6.1571   23.1803  -30.7582 H   0  0  0  0  0  0  0  0  0  0  0  0
   -4.7971   23.8296  -28.0744 H   0  0  0  0  0  0  0  0  0  0  0  0
   -2.6280   25.9720  -28.9600 H   0  0  0  0  0  0  0  0  0  0  0  0
    0.5087   22.2927  -29.7744 H   0  0  0  0  0  0  0  0  0  0  0  0
   -0.0406   19.9470  -31.3217 H   0  0  0  0  0  0  0  0  0  0  0  0
   -1.8694   18.7651  -32.5824 H   0  0  0  0  0  0  0  0  0  0  0  0
   -3.0967   18.4352  -34.1650 H   0  0  0  0  0  0  0  0  0  0  0  0
   -4.9394   17.2674  -35.3824 H   0  0  0  0  0  0  0  0  0  0  0  0
   -6.0749   20.5732  -31.8446 H   0  0  0  0  0  0  0  0  0  0  0  0
   -4.6321   21.9929  -31.5955 H   0  0  0  0  0  0  0  0  0  0  0  0
  1  2  2  0
  2  3  1  0
  3  4  2  0
  3  5  1  0
  5  6  1  0
  6  7  1  0
  7  8  1  0
  7  9  2  0
  6 10  2  0
 10 11  1  0
 11 12  2  0
 12 13  1  0
 13 14  2  0
 14 15  1  0
 15 16  2  0
 16 17  1  0
 17 18  2  0
 18 19  1  0
 19 20  1  0
 19 21  2  0
 14 22  1  0
 22 23  2  0
 23  5  1  0
 23 11  1  0
 21 15  1  0
  1 24  1  0
  1 25  1  0
  2 26  1  0
  8 27  1  0
 10 28  1  0
 12 29  1  0
 13 30  1  0
 16 31  1  0
 17 32  1  0
 21 33  1  0
 22 34  1  0
M  CHG  1   8  -1
M  END
>  <UniqueID>  (19) 
18

>  <SMILES>  (19) 
C=CC(=O)n1c(C([NH-])=O)cc2ccc(-c3ccnc(F)c3)cc21

>  <Energy>  (19) 
81.41023271076571

>  <Genealogy>  (19) 
C=CC(=O)n1c(C([NH-])=O)cc2ccc(-c3ccnc(F)c3)cc21 (protonated)
C=CC(=O)n1c(C([NH-])=O)cc2ccc(-c3ccnc(F)c3)cc21 (3D coordinates assigned)
C=CC(=O)n1c(C([NH-])=O)cc2ccc(-c3ccnc(F)c3)cc21 (optimized conformer: 81.41023271076571 kcal/mol)

>  <smiles>  (19) 
C=CC(=O)n1c(C(N)=O)cc2ccc(-c3ccnc(F)c3)cc21

>  <score_type>  (19) 
oracle

>  <origin>  (19) 
adg

>  <m_score__min__energy>  (19) 
-10.56

>  <m_primary>  (19) 
energy

$$$$
19:0
     RDKit          3D

 44 47  0  0  0  0  0  0  0  0999 V2000
   -3.6720   25.2820  -30.4860 N   0  0  0  0  0  0  0  0  0  0  0  0
   -5.0880   25.1370  -30.4010 C   0  0  0  0  0  0  0  0  0  0  0  0
   -5.7770   26.0870  -29.9440 O   0  0  0  0  0  0  0  0  0  0  0  0
   -5.7570   23.9050  -30.8700 C   0  0  0  0  0  0  0  0  0  0  0  0
   -7.1240   23.8160  -31.1260 C   0  0  0  0  0  0  0  0  0  0  0  0
   -7.3280   22.5320  -31.5820 C   0  0  0  0  0  0  0  0  0  0  0  0
   -8.5020   21.8890  -31.9580 C   0  0  0  0  0  0  0  0  0  0  0  0
   -8.4190   20.5420  -32.3500 C   0  0  0  0  0  0  0  0  0  0  0  0
   -7.1700   19.8670  -32.3720 C   0  0  0  0  0  0  0  0  0  0  0  0
   -7.1010   18.4060  -32.7370 C   0  0  0  0  0  0  0  0  0  0  0  0
   -6.2370   17.7610  -31.8720 F   0  0  0  0  0  0  0  0  0  0  0  0
   -6.6410   18.2490  -34.0340 F   0  0  0  0  0  0  0  0  0  0  0  0
   -8.3510   17.8200  -32.6470 F   0  0  0  0  0  0  0  0  0  0  0  0
   -6.0040   20.5500  -31.9570 C   0  0  0  0  0  0  0  0  0  0  0  0
   -6.1160   21.8950  -31.5890 C   0  0  0  0  0  0  0  0  0  0  0  0
   -5.1420   22.7240  -31.1580 N   0  0  0  0  0  0  0  0  0  0  0  0
   -3.7620   22.3820  -30.9630 C   0  0  0  0  0  0  0  0  0  0  0  0
   -2.8700   23.0020  -31.6000 O   0  0  0  0  0  0  0  0  0  0  0  0
   -3.3810   21.3110  -30.0280 C   0  0  0  0  0  0  0  0  0  0  0  0
   -3.8510   20.1500  -30.1750 O   0  0  0  0  0  0  0  0  0  0  0  0
   -2.4830   21.5800  -28.9410 N   0  0  0  0  0  0  0  0  0  0  0  0
   -2.1900   22.9480  -28.5610 C   0  0  0  0  0  0  0  0  0  0  0  0
   -2.9520   23.6080  -27.5780 C   0  0  0  0  0  0  0  0  0  0  0  0
   -2.6540   24.9240  -27.2180 C   0  0  0  0  0  0  0  0  0  0  0  0
   -1.5940   25.5800  -27.8420 C   0  0  0  0  0  0  0  0  0  0  0  0
   -0.8590   24.9380  -28.7870 N   0  0  0  0  0  0  0  0  0  0  0  0
   -1.1260   23.6580  -29.1560 C   0  0  0  0  0  0  0  0  0  0  0  0
   -2.1170   20.4550  -28.0720 C   0  0  0  0  0  0  0  0  0  0  0  0
   -0.6170   20.2120  -27.9640 C   0  0  0  0  0  0  0  0  0  0  0  0
   -1.3630   20.8690  -26.8160 C   0  0  0  0  0  0  0  0  0  0  0  0
   -3.1180   24.7510  -31.1930 H   0  0  0  0  0  0  0  0  0  0  0  0
   -7.8799   24.6039  -30.9923 H   0  0  0  0  0  0  0  0  0  0  0  0
   -9.4662   22.4184  -31.9489 H   0  0  0  0  0  0  0  0  0  0  0  0
   -9.3326   20.0041  -32.6433 H   0  0  0  0  0  0  0  0  0  0  0  0
   -5.0319   20.0362  -31.9242 H   0  0  0  0  0  0  0  0  0  0  0  0
   -3.7872   23.0838  -27.0906 H   0  0  0  0  0  0  0  0  0  0  0  0
   -3.2500   25.4380  -26.4495 H   0  0  0  0  0  0  0  0  0  0  0  0
   -1.3526   26.6179  -27.5691 H   0  0  0  0  0  0  0  0  0  0  0  0
   -0.5077   23.1714  -29.9247 H   0  0  0  0  0  0  0  0  0  0  0  0
   -2.9946   19.8283  -28.2888 H   0  0  0  0  0  0  0  0  0  0  0  0
   -0.2325   19.1872  -27.8549 H   0  0  0  0  0  0  0  0  0  0  0  0
    0.2593   20.4761  -28.5742 H   0  0  0  0  0  0  0  0  0  0  0  0
   -1.5183   20.3199  -25.8756 H   0  0  0  0  0  0  0  0  0  0  0  0
   -1.2500   21.8059  -26.2509 H   0  0  0  0  0  0  0  0  0  0  0  0
  1  2  1  0
  2  3  2  0
  2  4  1  0
  4  5  2  0
  5  6  1  0
  6  7  2  0
  7  8  1  0
  8  9  2  0
  9 10  1  0
 10 11  1  0
 10 12  1  0
 10 13  1  0
  9 14  1  0
 14 15  2  0
 15 16  1  0
 16 17  1  0
 17 18  2  0
 17 19  1  0
 19 20  2  0
 19 21  1  0
 21 22  1  0
 22 23  2  0
 23 24  1  0
 24 25  2  0
 25 26  1  0
 26 27  2  0
 21 28  1  0
 28 29  1  0
 29 30  1  0
 16  4  1  0
 27 22  1  0
 30 28  1  0
 15  6  1  0
  1 31  1  0
  5 32  1  0
  7 33  1  0
  8 34  1  0
 14 35  1  0
 23 36  1  0
 24 37  1  0
 25 38  1  0
 27 39  1  0
 28 40  1  0
 29 41  1  0
 29 42  1  0
 30 43  1  0
 30 44  1  0
M  CHG  1   1  -1
M  END
>  <UniqueID>  (20) 
19

>  <SMILES>  (20) 
[NH-]C(=O)c1cc2ccc(C(F)(F)F)cc2n1C(=O)C(=O)N(c1cccnc1)C1CC1

>  <Energy>  (20) 
361.8563222228615

>  <Genealogy>  (20) 
[NH-]C(=O)c1cc2ccc(C(F)(F)F)cc2n1C(=O)C(=O)N(c1cccnc1)C1CC1 (protonated)
[NH-]C(=O)c1cc2ccc(C(F)(F)F)cc2n1C(=O)C(=O)N(c1cccnc1)C1CC1 (3D coordinates assigned)
[NH-]C(=O)c1cc2ccc(C(F)(F)F)cc2n1C(=O)C(=O)N(c1cccnc1)C1CC1 (nonaromatic ring conformer: 361.8563222228615 kcal/mol)

>  <smiles>  (20) 
NC(=O)c1cc2ccc(C(F)(F)F)cc2n1C(=O)C(=O)N(c1cccnc1)C1CC1

>  <score_type>  (20) 
oracle

>  <origin>  (20) 
adg

>  <m_score__min__energy>  (20) 
-11.42

>  <m_primary>  (20) 
energy

$$$$
20:0
     RDKit          3D

 45 47  0  0  0  0  0  0  0  0999 V2000
   -7.6460   22.4170  -30.0890 C   0  0  0  0  0  0  0  0  0  0  0  0
   -6.4410   22.9280  -30.7620 N   0  0  0  0  0  0  0  0  0  0  0  0
   -6.7960   23.7490  -31.9280 C   0  0  0  0  0  0  0  0  0  0  0  0
   -5.5220   23.6240  -29.8370 C   0  0  0  0  0  0  0  0  0  0  0  0
   -4.2170   24.0390  -30.4760 C   0  0  0  0  0  0  0  0  0  0  0  0
   -4.0800   25.2190  -30.8960 O   0  0  0  0  0  0  0  0  0  0  0  0
   -3.1530   23.0930  -30.6630 N   0  0  0  0  0  0  0  0  0  0  0  0
   -1.9260   23.0800  -30.0710 C   0  0  0  0  0  0  0  0  0  0  0  0
   -1.3580   24.1590  -29.2380 C   0  0  0  0  0  0  0  0  0  0  0  0
   -2.1900   25.1880  -28.7100 N   0  0  0  0  0  0  0  0  0  0  0  0
   -0.1170   24.2000  -29.0300 O   0  0  0  0  0  0  0  0  0  0  0  0
   -1.2120   21.9450  -30.4500 C   0  0  0  0  0  0  0  0  0  0  0  0
   -2.0400   21.2680  -31.3170 C   0  0  0  0  0  0  0  0  0  0  0  0
   -1.8380   20.0740  -32.0030 C   0  0  0  0  0  0  0  0  0  0  0  0
   -2.8780   19.6010  -32.8230 C   0  0  0  0  0  0  0  0  0  0  0  0
   -4.0950   20.3210  -32.9330 C   0  0  0  0  0  0  0  0  0  0  0  0
   -5.1980   19.8180  -33.8240 C   0  0  0  0  0  0  0  0  0  0  0  0
   -6.4120   19.5590  -33.0340 N   0  0  0  0  0  0  0  0  0  0  0  0
   -7.4340   20.4710  -33.0700 C   0  0  0  0  0  0  0  0  0  0  0  0
   -8.6160   20.2470  -32.3600 C   0  0  0  0  0  0  0  0  0  0  0  0
   -8.7540   19.0800  -31.6120 C   0  0  0  0  0  0  0  0  0  0  0  0
   -7.7160   18.1530  -31.5820 C   0  0  0  0  0  0  0  0  0  0  0  0
   -6.5430   18.4030  -32.3040 C   0  0  0  0  0  0  0  0  0  0  0  0
   -5.6120   17.5520  -32.2730 O   0  0  0  0  0  0  0  0  0  0  0  0
   -4.2570   21.5360  -32.2320 C   0  0  0  0  0  0  0  0  0  0  0  0
   -3.2020   21.9850  -31.4320 C   0  0  0  0  0  0  0  0  0  0  0  0
   -7.5096   22.4748  -28.9990 H   0  0  0  0  0  0  0  0  0  0  0  0
   -8.5152   23.0240  -30.3825 H   0  0  0  0  0  0  0  0  0  0  0  0
   -7.8139   21.3702  -30.3825 H   0  0  0  0  0  0  0  0  0  0  0  0
   -7.2112   24.7091  -31.5877 H   0  0  0  0  0  0  0  0  0  0  0  0
   -5.8969   23.9327  -32.5345 H   0  0  0  0  0  0  0  0  0  0  0  0
   -7.5457   23.2197  -32.5345 H   0  0  0  0  0  0  0  0  0  0  0  0
   -6.0262   24.5258  -29.4595 H   0  0  0  0  0  0  0  0  0  0  0  0
   -5.2754   22.9141  -29.0337 H   0  0  0  0  0  0  0  0  0  0  0  0
   -2.8940   25.6720  -29.3110 H   0  0  0  0  0  0  0  0  0  0  0  0
   -0.2024   21.6524  -30.1257 H   0  0  0  0  0  0  0  0  0  0  0  0
   -0.8941   19.5175  -31.9068 H   0  0  0  0  0  0  0  0  0  0  0  0
   -2.7464   18.6641  -33.3842 H   0  0  0  0  0  0  0  0  0  0  0  0
   -5.4186   20.5746  -34.5914 H   0  0  0  0  0  0  0  0  0  0  0  0
   -4.8743   18.8815  -34.3016 H   0  0  0  0  0  0  0  0  0  0  0  0
   -7.3225   21.3897  -33.6646 H   0  0  0  0  0  0  0  0  0  0  0  0
   -9.4306   20.9856  -32.3913 H   0  0  0  0  0  0  0  0  0  0  0  0
   -9.6792   18.8918  -31.0475 H   0  0  0  0  0  0  0  0  0  0  0  0
   -7.8169   17.2288  -30.9940 H   0  0  0  0  0  0  0  0  0  0  0  0
   -5.1892   22.1143  -32.3132 H   0  0  0  0  0  0  0  0  0  0  0  0
  1  2  1  0
  2  3  1  0
  2  4  1  0
  4  5  1  0
  5  6  2  0
  5  7  1  0
  7  8  1  0
  8  9  1  0
  9 10  1  0
  9 11  2  0
  8 12  2  0
 12 13  1  0
 13 14  2  0
 14 15  1  0
 15 16  2  0
 16 17  1  0
 17 18  1  0
 18 19  1  0
 19 20  2  0
 20 21  1  0
 21 22  2  0
 22 23  1  0
 23 24  2  0
 16 25  1  0
 25 26  2  0
 26  7  1  0
 26 13  1  0
 23 18  1  0
  1 27  1  0
  1 28  1  0
  1 29  1  0
  3 30  1  0
  3 31  1  0
  3 32  1  0
  4 33  1  0
  4 34  1  0
 10 35  1  0
 12 36  1  0
 14 37  1  0
 15 38  1  0
 17 39  1  0
 17 40  1  0
 19 41  1  0
 20 42  1  0
 21 43  1  0
 22 44  1  0
 25 45  1  0
M  CHG  1  10  -1
M  END
>  <UniqueID>  (21) 
20

>  <SMILES>  (21) 
CN(C)CC(=O)n1c(C([NH-])=O)cc2ccc(Cn3ccccc3=O)cc21

>  <Energy>  (21) 
89.64838233085547

>  <Genealogy>  (21) 
CN(C)CC(=O)n1c(C([NH-])=O)cc2ccc(Cn3ccccc3=O)cc21 (protonated)
CN(C)CC(=O)n1c(C([NH-])=O)cc2ccc(Cn3ccccc3=O)cc21 (3D coordinates assigned)
CN(C)CC(=O)n1c(C([NH-])=O)cc2ccc(Cn3ccccc3=O)cc21 (optimized conformer: 89.64838233085547 kcal/mol)

>  <smiles>  (21) 
CN(C)CC(=O)n1c(C(N)=O)cc2ccc(Cn3ccccc3=O)cc21

>  <score_type>  (21) 
oracle

>  <origin>  (21) 
adg

>  <m_score__min__energy>  (21) 
-11.51

>  <m_primary>  (21) 
energy

$$$$
21:0
     RDKit          3D

 54 56  0  0  0  0  0  0  0  0999 V2000
   -8.3650   19.5600  -32.7860 C   0  0  0  0  0  0  0  0  0  0  0  0
   -6.9110   19.9340  -33.1140 C   0  0  1  0  0  0  0  0  0  0  0  0
   -6.0050   19.7010  -31.8800 C   0  0  0  0  0  0  0  0  0  0  0  0
   -4.6230   19.4450  -32.3010 N   0  0  0  0  0  0  0  0  0  0  0  0
   -3.5260   20.2060  -31.7580 C   0  0  0  0  0  0  0  0  0  0  0  0
   -2.1900   19.7680  -31.9440 C   0  0  0  0  0  0  0  0  0  0  0  0
   -1.1130   20.5160  -31.4410 C   0  0  0  0  0  0  0  0  0  0  0  0
   -1.3980   21.6910  -30.7560 C   0  0  0  0  0  0  0  0  0  0  0  0
   -0.5480   22.6190  -30.1990 C   0  0  0  0  0  0  0  0  0  0  0  0
   -1.3740   23.6060  -29.6670 C   0  0  0  0  0  0  0  0  0  0  0  0
   -0.8710   24.7670  -28.9040 C   0  0  0  0  0  0  0  0  0  0  0  0
   -1.6060   25.9890  -28.9060 N   0  0  0  0  0  0  0  0  0  0  0  0
    0.2230   24.7050  -28.2830 O   0  0  0  0  0  0  0  0  0  0  0  0
   -2.6850   23.3030  -29.8900 N   0  0  0  0  0  0  0  0  0  0  0  0
   -3.8360   24.1050  -29.5800 C   0  0  0  0  0  0  0  0  0  0  0  0
   -4.5090   23.8690  -28.5410 O   0  0  0  0  0  0  0  0  0  0  0  0
   -4.2190   25.1290  -30.4500 O   0  0  0  0  0  0  0  0  0  0  0  0
   -5.5460   25.2700  -30.9420 C   0  0  0  0  0  0  0  0  0  0  0  0
   -5.8790   24.1310  -31.9230 C   0  0  0  0  0  0  0  0  0  0  0  0
   -6.7930   23.0930  -31.3910 N   0  0  0  0  0  0  0  0  0  0  0  0
   -6.9670   23.1560  -29.9310 C   0  0  0  0  0  0  0  0  0  0  0  0
   -8.0920   23.0540  -32.0820 C   0  0  0  0  0  0  0  0  0  0  0  0
   -2.6820   22.1260  -30.5550 C   0  0  0  0  0  0  0  0  0  0  0  0
   -3.7740   21.4110  -31.0620 C   0  0  0  0  0  0  0  0  0  0  0  0
   -4.3710   18.3740  -33.2730 C   0  0  0  0  0  0  0  0  0  0  0  0
   -5.6610   18.0070  -34.0210 C   0  0  0  0  0  0  0  0  0  0  0  0
   -6.4320   19.2210  -34.3310 N   0  0  0  0  0  0  0  0  0  0  0  0
   -8.4975   19.5259  -31.6945 H   0  0  0  0  0  0  0  0  0  0  0  0
   -9.0429   20.3130  -33.2143 H   0  0  0  0  0  0  0  0  0  0  0  0
   -8.5954   18.5734  -33.2143 H   0  0  0  0  0  0  0  0  0  0  0  0
   -6.8624   21.0069  -33.3517 H   0  0  0  0  0  0  0  0  0  0  0  0
   -6.0289   20.5946  -31.2389 H   0  0  0  0  0  0  0  0  0  0  0  0
   -6.3764   18.8272  -31.3246 H   0  0  0  0  0  0  0  0  0  0  0  0
   -1.9952   18.8321  -32.4882 H   0  0  0  0  0  0  0  0  0  0  0  0
   -0.0749   20.1818  -31.5850 H   0  0  0  0  0  0  0  0  0  0  0  0
    0.5514   22.5878  -30.1784 H   0  0  0  0  0  0  0  0  0  0  0  0
   -2.6470   25.9900  -28.9770 H   0  0  0  0  0  0  0  0  0  0  0  0
   -6.2507   25.2389  -30.0979 H   0  0  0  0  0  0  0  0  0  0  0  0
   -5.6304   26.2314  -31.4698 H   0  0  0  0  0  0  0  0  0  0  0  0
   -6.3478   24.5742  -32.8139 H   0  0  0  0  0  0  0  0  0  0  0  0
   -4.9276   23.6221  -32.1373 H   0  0  0  0  0  0  0  0  0  0  0  0
   -6.0429   22.8214  -29.4368 H   0  0  0  0  0  0  0  0  0  0  0  0
   -7.1883   24.1913  -29.6324 H   0  0  0  0  0  0  0  0  0  0  0  0
   -7.7998   22.5023  -29.6324 H   0  0  0  0  0  0  0  0  0  0  0  0
   -8.9023   23.0297  -31.3384 H   0  0  0  0  0  0  0  0  0  0  0  0
   -8.1992   23.9493  -32.7120 H   0  0  0  0  0  0  0  0  0  0  0  0
   -8.1453   22.1539  -32.7120 H   0  0  0  0  0  0  0  0  0  0  0  0
   -4.8012   21.7786  -30.9219 H   0  0  0  0  0  0  0  0  0  0  0  0
   -3.6172   18.7143  -33.9982 H   0  0  0  0  0  0  0  0  0  0  0  0
   -4.0085   17.4856  -32.7351 H   0  0  0  0  0  0  0  0  0  0  0  0
   -5.4035   17.4911  -34.9578 H   0  0  0  0  0  0  0  0  0  0  0  0
   -6.2698   17.3482  -33.3843 H   0  0  0  0  0  0  0  0  0  0  0  0
   -7.2350   18.9580  -34.9510 H   0  0  0  0  0  0  0  0  0  0  0  0
   -5.8230   19.8670  -34.8870 H   0  0  0  0  0  0  0  0  0  0  0  0
  1  2  1  0
  2  3  1  0
  3  4  1  0
  4  5  1  0
  5  6  2  0
  6  7  1  0
  7  8  2  0
  8  9  1  0
  9 10  2  0
 10 11  1  0
 11 12  1  0
 11 13  2  0
 10 14  1  0
 14 15  1  0
 15 16  2  0
 15 17  1  0
 17 18  1  0
 18 19  1  0
 19 20  1  0
 20 21  1  0
 20 22  1  0
 14 23  1  0
 23 24  2  0
  4 25  1  0
 25 26  1  0
 26 27  1  0
 27  2  1  0
 24  5  1  0
 23  8  1  0
  1 28  1  0
  1 29  1  0
  1 30  1  0
  2 31  1  6
  3 32  1  0
  3 33  1  0
  6 34  1  0
  7 35  1  0
  9 36  1  0
 12 37  1  0
 18 38  1  0
 18 39  1  0
 19 40  1  0
 19 41  1  0
 21 42  1  0
 21 43  1  0
 21 44  1  0
 22 45  1  0
 22 46  1  0
 22 47  1  0
 24 48  1  0
 25 49  1  0
 25 50  1  0
 26 51  1  0
 26 52  1  0
 27 53  1  0
 27 54  1  0
M  CHG  2  12  -1  27   1
M  END
>  <UniqueID>  (22) 
21

>  <SMILES>  (22) 
C[C@H]1CN(c2ccc3cc(C([NH-])=O)n(C(=O)OCCN(C)C)c3c2)CC[NH2+]1

>  <Energy>  (22) 
100.67354459606999

>  <Genealogy>  (22) 
C[C@H]1CN(c2ccc3cc(C([NH-])=O)n(C(=O)OCCN(C)C)c3c2)CC[NH2+]1 (protonated)
C[C@H]1CN(c2ccc3cc(C([NH-])=O)n(C(=O)OCCN(C)C)c3c2)CC[NH2+]1 (3D coordinates assigned)
C[C@H]1CN(c2ccc3cc(C([NH-])=O)n(C(=O)OCCN(C)C)c3c2)CC[NH2+]1 (nonaromatic ring conformer: 100.67354459606999 kcal/mol)

>  <smiles>  (22) 
C[C@H]1CN(c2ccc3cc(C(N)=O)n(C(=O)OCCN(C)C)c3c2)CCN1

>  <score_type>  (22) 
oracle

>  <origin>  (22) 
adg

>  <m_score__min__energy>  (22) 
-10.66

>  <m_primary>  (22) 
energy

$$$$
22:0
     RDKit          3D

 33 34  0  0  0  0  0  0  0  0999 V2000
   -4.2200   25.5280  -30.5870 N   0  0  0  0  0  0  0  0  0  0  0  0
   -5.5830   25.1420  -30.4200 C   0  0  0  0  0  0  0  0  0  0  0  0
   -6.3930   25.9490  -29.8910 O   0  0  0  0  0  0  0  0  0  0  0  0
   -6.0720   23.8400  -30.9110 C   0  0  0  0  0  0  0  0  0  0  0  0
   -7.4130   23.5820  -31.1740 C   0  0  0  0  0  0  0  0  0  0  0  0
   -7.4530   22.2770  -31.6020 C   0  0  0  0  0  0  0  0  0  0  0  0
   -8.5480   21.4940  -31.9590 C   0  0  0  0  0  0  0  0  0  0  0  0
   -8.3160   20.1500  -32.2930 C   0  0  0  0  0  0  0  0  0  0  0  0
   -7.0060   19.6140  -32.2480 C   0  0  0  0  0  0  0  0  0  0  0  0
   -6.7670   18.1650  -32.5700 C   0  0  0  0  0  0  0  0  0  0  0  0
   -7.9190   17.4370  -32.3330 F   0  0  0  0  0  0  0  0  0  0  0  0
   -6.4120   18.0380  -33.8990 F   0  0  0  0  0  0  0  0  0  0  0  0
   -5.9220   20.4360  -31.8700 C   0  0  0  0  0  0  0  0  0  0  0  0
   -6.1730   21.7840  -31.5790 C   0  0  0  0  0  0  0  0  0  0  0  0
   -5.3040   22.7410  -31.1650 N   0  0  0  0  0  0  0  0  0  0  0  0
   -3.8960   22.5910  -30.8890 C   0  0  0  0  0  0  0  0  0  0  0  0
   -3.0540   23.0260  -31.7200 O   0  0  0  0  0  0  0  0  0  0  0  0
   -3.4110   21.9700  -29.6020 C   0  0  0  0  0  0  0  0  0  0  0  0
   -2.9200   23.0030  -28.5770 C   0  0  0  0  0  0  0  0  0  0  0  0
   -1.9000   23.9380  -29.1480 C   0  0  0  0  0  0  0  0  0  0  0  0
   -0.7430   23.5250  -29.4290 O   0  0  0  0  0  0  0  0  0  0  0  0
   -2.2150   25.2780  -29.3350 O   0  0  0  0  0  0  0  0  0  0  0  0
   -3.8750   26.4290  -30.1880 H   0  0  0  0  0  0  0  0  0  0  0  0
   -3.5840   24.9720  -31.1960 H   0  0  0  0  0  0  0  0  0  0  0  0
   -8.2604   24.2746  -31.0631 H   0  0  0  0  0  0  0  0  0  0  0  0
   -9.5638   21.9156  -31.9787 H   0  0  0  0  0  0  0  0  0  0  0  0
   -9.1582   19.5086  -32.5919 H   0  0  0  0  0  0  0  0  0  0  0  0
   -5.9553   17.7833  -31.9332 H   0  0  0  0  0  0  0  0  0  0  0  0
   -4.9027   20.0274  -31.8053 H   0  0  0  0  0  0  0  0  0  0  0  0
   -4.2394   21.4009  -29.1549 H   0  0  0  0  0  0  0  0  0  0  0  0
   -2.5545   21.3269  -29.8527 H   0  0  0  0  0  0  0  0  0  0  0  0
   -3.7818   23.5913  -28.2287 H   0  0  0  0  0  0  0  0  0  0  0  0
   -2.4443   22.4539  -27.7511 H   0  0  0  0  0  0  0  0  0  0  0  0
  1  2  1  0
  2  3  2  0
  2  4  1  0
  4  5  2  0
  5  6  1  0
  6  7  2  0
  7  8  1  0
  8  9  2  0
  9 10  1  0
 10 11  1  0
 10 12  1  0
  9 13  1  0
 13 14  2  0
 14 15  1  0
 15 16  1  0
 16 17  2  0
 16 18  1  0
 18 19  1  0
 19 20  1  0
 20 21  2  0
 20 22  1  0
 15  4  1  0
 14  6  1  0
  1 23  1  0
  1 24  1  0
  5 25  1  0
  7 26  1  0
  8 27  1  0
 10 28  1  0
 13 29  1  0
 18 30  1  0
 18 31  1  0
 19 32  1  0
 19 33  1  0
M  CHG  1  22  -1
M  END
>  <UniqueID>  (23) 
22

>  <SMILES>  (23) 
NC(=O)c1cc2ccc(C(F)F)cc2n1C(=O)CCC(=O)[O-]

>  <Energy>  (23) 
71.04022284297285

>  <Genealogy>  (23) 
NC(=O)c1cc2ccc(C(F)F)cc2n1C(=O)CCC(=O)[O-] (protonated)
NC(=O)c1cc2ccc(C(F)F)cc2n1C(=O)CCC(=O)[O-] (3D coordinates assigned)
NC(=O)c1cc2ccc(C(F)F)cc2n1C(=O)CCC(=O)[O-] (optimized conformer: 71.04022284297285 kcal/mol)

>  <smiles>  (23) 
NC(=O)c1cc2ccc(C(F)F)cc2n1C(=O)CCC(=O)O

>  <score_type>  (23) 
oracle

>  <origin>  (23) 
adg

>  <m_score__min__energy>  (23) 
-9.7799999999999994

>  <m_primary>  (23) 
energy

$$$$
23:0
     RDKit          3D

 43 44  0  0  0  0  0  0  0  0999 V2000
   -6.1660   24.9300  -30.0060 C   0  0  0  0  0  0  0  0  0  0  0  0
   -4.9660   24.5750  -30.8140 C   0  0  0  0  0  0  0  0  0  0  0  0
   -3.9270   25.2850  -30.7250 O   0  0  0  0  0  0  0  0  0  0  0  0
   -5.0010   23.4350  -31.6270 O   0  0  0  0  0  0  0  0  0  0  0  0
   -6.1260   22.9790  -32.3270 C   0  0  0  0  0  0  0  0  0  0  0  0
   -7.0320   23.7810  -32.6830 O   0  0  0  0  0  0  0  0  0  0  0  0
   -6.2490   21.5810  -32.6400 N   0  0  0  0  0  0  0  0  0  0  0  0
   -7.3320   20.7780  -32.4350 C   0  0  0  0  0  0  0  0  0  0  0  0
   -8.6690   21.2230  -31.9940 C   0  0  0  0  0  0  0  0  0  0  0  0
   -8.8280   22.3700  -31.1590 N   0  0  0  0  0  0  0  0  0  0  0  0
   -9.6910   20.6120  -32.4060 O   0  0  0  0  0  0  0  0  0  0  0  0
   -7.0300   19.4560  -32.7490 C   0  0  0  0  0  0  0  0  0  0  0  0
   -5.7200   19.4740  -33.1700 C   0  0  0  0  0  0  0  0  0  0  0  0
   -4.9030   18.4300  -33.5910 C   0  0  0  0  0  0  0  0  0  0  0  0
   -3.5740   18.7270  -33.9330 C   0  0  0  0  0  0  0  0  0  0  0  0
   -3.0790   20.0570  -33.8340 C   0  0  0  0  0  0  0  0  0  0  0  0
   -1.7150   20.3870  -34.1660 N   0  0  0  0  0  0  0  0  0  0  0  0
   -0.5530   19.5580  -33.8390 C   0  0  0  0  0  0  0  0  0  0  0  0
    0.6950   20.4210  -33.6640 C   0  0  0  0  0  0  0  0  0  0  0  0
    0.3480   21.7710  -33.8520 O   0  0  0  0  0  0  0  0  0  0  0  0
    0.6710   22.2020  -35.4600 S   0  0  0  0  0  0  0  0  0  0  0  0
    2.3930   21.9580  -35.8500 C   0  0  0  0  0  0  0  0  0  0  0  0
   -0.1490   21.3240  -36.3620 O   0  0  0  0  0  0  0  0  0  0  0  0
    0.2910   23.6370  -35.7110 O   0  0  0  0  0  0  0  0  0  0  0  0
   -3.9440   21.0880  -33.4060 C   0  0  0  0  0  0  0  0  0  0  0  0
   -5.2710   20.7660  -33.0930 C   0  0  0  0  0  0  0  0  0  0  0  0
   -5.9219   24.8578  -28.9358 H   0  0  0  0  0  0  0  0  0  0  0  0
   -6.4763   25.9584  -30.2427 H   0  0  0  0  0  0  0  0  0  0  0  0
   -6.9859   24.2359  -30.2427 H   0  0  0  0  0  0  0  0  0  0  0  0
   -9.7780   22.6480  -30.8260 H   0  0  0  0  0  0  0  0  0  0  0  0
   -8.0210   22.9950  -30.9430 H   0  0  0  0  0  0  0  0  0  0  0  0
   -7.6960   18.5836  -32.6762 H   0  0  0  0  0  0  0  0  0  0  0  0
   -5.2871   17.4012  -33.6542 H   0  0  0  0  0  0  0  0  0  0  0  0
   -2.9088   17.9230  -34.2810 H   0  0  0  0  0  0  0  0  0  0  0  0
   -1.5310   21.2790  -34.6790 H   0  0  0  0  0  0  0  0  0  0  0  0
   -0.7496   19.0139  -32.9034 H   0  0  0  0  0  0  0  0  0  0  0  0
   -0.3805   18.8506  -34.6635 H   0  0  0  0  0  0  0  0  0  0  0  0
    1.1005   20.2820  -32.6509 H   0  0  0  0  0  0  0  0  0  0  0  0
    1.4567   20.1269  -34.4011 H   0  0  0  0  0  0  0  0  0  0  0  0
    2.9719   21.8760  -34.9183 H   0  0  0  0  0  0  0  0  0  0  0  0
    2.5089   21.0345  -36.4362 H   0  0  0  0  0  0  0  0  0  0  0  0
    2.7609   22.8130  -36.4362 H   0  0  0  0  0  0  0  0  0  0  0  0
   -3.5829   22.1235  -33.3201 H   0  0  0  0  0  0  0  0  0  0  0  0
  1  2  1  0
  2  3  2  0
  2  4  1  0
  4  5  1  0
  5  6  2  0
  5  7  1  0
  7  8  1  0
  8  9  1  0
  9 10  1  0
  9 11  2  0
  8 12  2  0
 12 13  1  0
 13 14  2  0
 14 15  1  0
 15 16  2  0
 16 17  1  0
 17 18  1  0
 18 19  1  0
 19 20  1  0
 20 21  1  0
 21 22  1  0
 21 23  2  0
 21 24  2  0
 16 25  1  0
 25 26  2  0
 26  7  1  0
 26 13  1  0
  1 27  1  0
  1 28  1  0
  1 29  1  0
 10 30  1  0
 10 31  1  0
 12 32  1  0
 14 33  1  0
 15 34  1  0
 17 35  1  0
 18 36  1  0
 18 37  1  0
 19 38  1  0
 19 39  1  0
 22 40  1  0
 22 41  1  0
 22 42  1  0
 25 43  1  0
M  END
>  <UniqueID>  (24) 
23

>  <SMILES>  (24) 
CC(=O)OC(=O)n1c(C(N)=O)cc2ccc(NCCOS(C)(=O)=O)cc21

>  <Energy>  (24) 
76.56051856943111

>  <Genealogy>  (24) 
CC(=O)OC(=O)n1c(C(N)=O)cc2ccc(NCCOS(C)(=O)=O)cc21 (3D coordinates assigned)
CC(=O)OC(=O)n1c(C(N)=O)cc2ccc(NCCOS(C)(=O)=O)cc21 (optimized conformer: 76.56051856943111 kcal/mol)

>  <smiles>  (24) 
CC(=O)OC(=O)n1c(C(N)=O)cc2ccc(NCCOS(C)(=O)=O)cc21

>  <score_type>  (24) 
oracle

>  <origin>  (24) 
adg

>  <m_score__min__energy>  (24) 
-8.6099999999999994

>  <m_primary>  (24) 
energy

$$$$
24:0
     RDKit          3D

 50 51  0  0  0  0  0  0  0  0999 V2000
   -4.1530   16.8770  -34.1440 C   0  0  0  0  0  0  0  0  0  0  0  0
   -4.3270   18.2560  -34.6330 N   0  0  0  0  0  0  0  0  0  0  0  0
   -3.5710   19.1800  -33.7700 C   0  0  0  0  0  0  0  0  0  0  0  0
   -5.7640   18.6050  -34.6590 C   0  0  0  0  0  0  0  0  0  0  0  0
   -6.5810   17.6950  -33.7270 C   0  0  0  0  0  0  0  0  0  0  0  0
   -6.5520   18.1900  -32.3380 N   0  0  0  0  0  0  0  0  0  0  0  0
   -6.1660   17.2790  -31.2570 C   0  0  0  0  0  0  0  0  0  0  0  0
   -6.8320   19.5760  -32.0380 C   0  0  0  0  0  0  0  0  0  0  0  0
   -8.1450   20.0990  -32.1860 C   0  0  0  0  0  0  0  0  0  0  0  0
   -8.4150   21.4520  -31.9250 C   0  0  0  0  0  0  0  0  0  0  0  0
   -7.3640   22.2600  -31.5030 C   0  0  0  0  0  0  0  0  0  0  0  0
   -7.3370   23.6070  -31.2250 C   0  0  0  0  0  0  0  0  0  0  0  0
   -6.0150   23.8880  -30.8820 C   0  0  0  0  0  0  0  0  0  0  0  0
   -5.5420   25.2380  -30.4950 C   0  0  0  0  0  0  0  0  0  0  0  0
   -4.2240   25.6790  -30.8050 N   0  0  0  0  0  0  0  0  0  0  0  0
   -6.3180   26.0110  -29.8700 O   0  0  0  0  0  0  0  0  0  0  0  0
   -5.2600   22.7540  -30.9350 N   0  0  0  0  0  0  0  0  0  0  0  0
   -3.8550   22.6140  -30.6730 C   0  0  0  0  0  0  0  0  0  0  0  0
   -3.0170   22.9410  -31.5570 O   0  0  0  0  0  0  0  0  0  0  0  0
   -3.3670   22.0880  -29.3500 C   0  0  0  0  0  0  0  0  0  0  0  0
   -2.2180   22.9370  -28.7890 C   0  0  0  0  0  0  0  0  0  0  0  0
   -2.6870   24.3320  -28.3600 C   0  0  0  0  0  0  0  0  0  0  0  0
   -2.2190   25.2970  -29.2620 O   0  0  0  0  0  0  0  0  0  0  0  0
   -6.0990   21.7690  -31.3260 C   0  0  0  0  0  0  0  0  0  0  0  0
   -5.7930   20.4340  -31.6060 C   0  0  0  0  0  0  0  0  0  0  0  0
   -4.1528   16.8753  -33.0440 H   0  0  0  0  0  0  0  0  0  0  0  0
   -4.9792   16.2507  -34.5115 H   0  0  0  0  0  0  0  0  0  0  0  0
   -3.1971   16.4755  -34.5115 H   0  0  0  0  0  0  0  0  0  0  0  0
   -3.7676   18.9398  -32.7147 H   0  0  0  0  0  0  0  0  0  0  0  0
   -2.4953   19.0764  -33.9754 H   0  0  0  0  0  0  0  0  0  0  0  0
   -3.8856   20.2138  -33.9754 H   0  0  0  0  0  0  0  0  0  0  0  0
   -5.8843   19.6492  -34.3348 H   0  0  0  0  0  0  0  0  0  0  0  0
   -6.1340   18.4691  -35.6860 H   0  0  0  0  0  0  0  0  0  0  0  0
   -7.6237   17.6672  -34.0763 H   0  0  0  0  0  0  0  0  0  0  0  0
   -6.1381   16.6883  -33.7472 H   0  0  0  0  0  0  0  0  0  0  0  0
   -6.3679   17.7555  -30.2863 H   0  0  0  0  0  0  0  0  0  0  0  0
   -6.7472   16.3485  -31.3366 H   0  0  0  0  0  0  0  0  0  0  0  0
   -5.0932   17.0492  -31.3366 H   0  0  0  0  0  0  0  0  0  0  0  0
   -8.9605   19.4353  -32.5092 H   0  0  0  0  0  0  0  0  0  0  0  0
   -9.4283   21.8613  -32.0506 H   0  0  0  0  0  0  0  0  0  0  0  0
   -8.1797   24.3128  -31.2648 H   0  0  0  0  0  0  0  0  0  0  0  0
   -3.4250   25.0060  -30.8410 H   0  0  0  0  0  0  0  0  0  0  0  0
   -4.2010   22.0988  -28.6328 H   0  0  0  0  0  0  0  0  0  0  0  0
   -2.9929   21.0653  -29.5052 H   0  0  0  0  0  0  0  0  0  0  0  0
   -1.7906   22.4225  -27.9157 H   0  0  0  0  0  0  0  0  0  0  0  0
   -1.4693   23.0617  -29.5852 H   0  0  0  0  0  0  0  0  0  0  0  0
   -3.7866   24.3558  -28.3401 H   0  0  0  0  0  0  0  0  0  0  0  0
   -2.2891   24.5529  -27.3586 H   0  0  0  0  0  0  0  0  0  0  0  0
   -3.0180   25.6700  -29.7190 H   0  0  0  0  0  0  0  0  0  0  0  0
   -4.7654   20.0582  -31.4928 H   0  0  0  0  0  0  0  0  0  0  0  0
  1  2  1  0
  2  3  1  0
  2  4  1  0
  4  5  1  0
  5  6  1  0
  6  7  1  0
  6  8  1  0
  8  9  2  0
  9 10  1  0
 10 11  2  0
 11 12  1  0
 12 13  2  0
 13 14  1  0
 14 15  1  0
 14 16  2  0
 13 17  1  0
 17 18  1  0
 18 19  2  0
 18 20  1  0
 20 21  1  0
 21 22  1  0
 22 23  1  0
 17 24  1  0
 24 25  2  0
 25  8  1  0
 24 11  1  0
  1 26  1  0
  1 27  1  0
  1 28  1  0
  3 29  1  0
  3 30  1  0
  3 31  1  0
  4 32  1  0
  4 33  1  0
  5 34  1  0
  5 35  1  0
  7 36  1  0
  7 37  1  0
  7 38  1  0
  9 39  1  0
 10 40  1  0
 12 41  1  0
 15 42  1  0
 20 43  1  0
 20 44  1  0
 21 45  1  0
 21 46  1  0
 22 47  1  0
 22 48  1  0
 23 49  1  0
 25 50  1  0
M  CHG  1  15  -1
M  END
>  <UniqueID>  (25) 
24

>  <SMILES>  (25) 
CN(C)CCN(C)c1ccc2cc(C([NH-])=O)n(C(=O)CCCO)c2c1

>  <Energy>  (25) 
83.974994671029

>  <Genealogy>  (25) 
CN(C)CCN(C)c1ccc2cc(C([NH-])=O)n(C(=O)CCCO)c2c1 (protonated)
CN(C)CCN(C)c1ccc2cc(C([NH-])=O)n(C(=O)CCCO)c2c1 (3D coordinates assigned)
CN(C)CCN(C)c1ccc2cc(C([NH-])=O)n(C(=O)CCCO)c2c1 (optimized conformer: 83.974994671029 kcal/mol)

>  <smiles>  (25) 
CN(C)CCN(C)c1ccc2cc(C(N)=O)n(C(=O)CCCO)c2c1

>  <score_type>  (25) 
oracle

>  <origin>  (25) 
adg

>  <m_score__min__energy>  (25) 
-10.74

>  <m_primary>  (25) 
energy

$$$$
25:0
     RDKit          3D

 42 44  0  0  0  0  0  0  0  0999 V2000
   -4.0470   25.6730  -30.8450 N   0  0  0  0  0  0  0  0  0  0  0  0
   -5.1630   24.9690  -30.3080 C   0  0  0  0  0  0  0  0  0  0  0  0
   -5.7560   25.4310  -29.2980 O   0  0  0  0  0  0  0  0  0  0  0  0
   -5.5870   23.6890  -30.9120 C   0  0  0  0  0  0  0  0  0  0  0  0
   -6.9190   23.3160  -31.0750 C   0  0  0  0  0  0  0  0  0  0  0  0
   -6.8810   22.1100  -31.7400 C   0  0  0  0  0  0  0  0  0  0  0  0
   -7.9190   21.2710  -32.1320 C   0  0  0  0  0  0  0  0  0  0  0  0
   -7.5850   20.0600  -32.7610 C   0  0  0  0  0  0  0  0  0  0  0  0
   -6.2280   19.7030  -32.9810 C   0  0  0  0  0  0  0  0  0  0  0  0
   -5.8960   18.4410  -33.5960 N   0  0  0  0  0  0  0  0  0  0  0  0
   -4.6830   18.3390  -34.4220 C   0  0  0  0  0  0  0  0  0  0  0  0
   -4.5000   16.9230  -34.9510 C   0  0  0  0  0  0  0  0  0  0  0  0
   -4.7720   16.0110  -33.9120 O   0  0  0  0  0  0  0  0  0  0  0  0
   -6.1680   15.9340  -33.7070 C   0  0  0  0  0  0  0  0  0  0  0  0
   -6.8380   17.3130  -33.4780 C   0  0  0  0  0  0  0  0  0  0  0  0
   -5.2040   20.5840  -32.5610 C   0  0  0  0  0  0  0  0  0  0  0  0
   -5.5660   21.7920  -31.9550 C   0  0  0  0  0  0  0  0  0  0  0  0
   -4.7580   22.7490  -31.4490 N   0  0  0  0  0  0  0  0  0  0  0  0
   -3.3230   22.7140  -31.4020 C   0  0  0  0  0  0  0  0  0  0  0  0
   -2.6860   21.9350  -32.1630 O   0  0  0  0  0  0  0  0  0  0  0  0
   -2.6190   23.5320  -30.4650 N   0  0  0  0  0  0  0  0  0  0  0  0
   -2.6440   23.2900  -29.0290 C   0  0  0  0  0  0  0  0  0  0  0  0
   -2.1440   24.5260  -28.2850 C   0  0  0  0  0  0  0  0  0  0  0  0
   -1.6080   25.4620  -29.1820 O   0  0  0  0  0  0  0  0  0  0  0  0
   -3.0800   25.2860  -30.7640 H   0  0  0  0  0  0  0  0  0  0  0  0
   -7.8114   23.8670  -30.7434 H   0  0  0  0  0  0  0  0  0  0  0  0
   -8.9689   21.5472  -31.9549 H   0  0  0  0  0  0  0  0  0  0  0  0
   -8.3850   19.3793  -33.0874 H   0  0  0  0  0  0  0  0  0  0  0  0
   -4.7673   19.0323  -35.2718 H   0  0  0  0  0  0  0  0  0  0  0  0
   -3.8129   18.5956  -33.7998 H   0  0  0  0  0  0  0  0  0  0  0  0
   -5.1932   16.7483  -35.7871 H   0  0  0  0  0  0  0  0  0  0  0  0
   -3.4678   16.7875  -35.3063 H   0  0  0  0  0  0  0  0  0  0  0  0
   -6.6245   15.4683  -34.5928 H   0  0  0  0  0  0  0  0  0  0  0  0
   -6.3280   15.3417  -32.7940 H   0  0  0  0  0  0  0  0  0  0  0  0
   -7.6351   17.4431  -34.2248 H   0  0  0  0  0  0  0  0  0  0  0  0
   -7.2307   17.3200  -32.4505 H   0  0  0  0  0  0  0  0  0  0  0  0
   -4.1451   20.3247  -32.7078 H   0  0  0  0  0  0  0  0  0  0  0  0
   -3.6742   23.0669  -28.7146 H   0  0  0  0  0  0  0  0  0  0  0  0
   -1.9906   22.4369  -28.7941 H   0  0  0  0  0  0  0  0  0  0  0  0
   -2.9837   24.9853  -27.7428 H   0  0  0  0  0  0  0  0  0  0  0  0
   -1.3564   24.2201  -27.5807 H   0  0  0  0  0  0  0  0  0  0  0  0
   -2.3180   25.6540  -29.8500 H   0  0  0  0  0  0  0  0  0  0  0  0
  1  2  1  0
  2  3  2  0
  2  4  1  0
  4  5  2  0
  5  6  1  0
  6  7  2  0
  7  8  1  0
  8  9  2  0
  9 10  1  0
 10 11  1  0
 11 12  1  0
 12 13  1  0
 13 14  1  0
 14 15  1  0
  9 16  1  0
 16 17  2  0
 17 18  1  0
 18 19  1  0
 19 20  2  0
 19 21  1  0
 21 22  1  0
 22 23  1  0
 23 24  1  0
 18  4  1  0
 17  6  1  0
 15 10  1  0
  1 25  1  0
  5 26  1  0
  7 27  1  0
  8 28  1  0
 11 29  1  0
 11 30  1  0
 12 31  1  0
 12 32  1  0
 14 33  1  0
 14 34  1  0
 15 35  1  0
 15 36  1  0
 16 37  1  0
 22 38  1  0
 22 39  1  0
 23 40  1  0
 23 41  1  0
 24 42  1  0
M  CHG  2   1  -1  21  -1
M  END
>  <UniqueID>  (26) 
25

>  <SMILES>  (26) 
[NH-]C(=O)c1cc2ccc(N3CCOCC3)cc2n1C(=O)[N-]CCO

>  <Energy>  (26) 
87.29949520466874

>  <Genealogy>  (26) 
[NH-]C(=O)c1cc2ccc(N3CCOCC3)cc2n1C(=O)[N-]CCO (protonated)
[NH-]C(=O)c1cc2ccc(N3CCOCC3)cc2n1C(=O)[N-]CCO (3D coordinates assigned)
[NH-]C(=O)c1cc2ccc(N3CCOCC3)cc2n1C(=O)[N-]CCO (nonaromatic ring conformer: 87.29949520466874 kcal/mol)

>  <smiles>  (26) 
NC(=O)c1cc2ccc(N3CCOCC3)cc2n1C(=O)NCCO

>  <score_type>  (26) 
oracle

>  <origin>  (26) 
adg

>  <m_score__min__energy>  (26) 
-11.23

>  <m_primary>  (26) 
energy

$$$$
26:0
     RDKit          3D

 37 38  0  0  0  0  0  0  0  0999 V2000
   -4.2440   25.5160  -30.5510 N   0  0  0  0  0  0  0  0  0  0  0  0
   -5.5740   25.0960  -30.2420 C   0  0  0  0  0  0  0  0  0  0  0  0
   -6.2970   25.8290  -29.5160 O   0  0  0  0  0  0  0  0  0  0  0  0
   -6.0880   23.8000  -30.7350 C   0  0  0  0  0  0  0  0  0  0  0  0
   -7.4160   23.5820  -31.0930 C   0  0  0  0  0  0  0  0  0  0  0  0
   -7.4580   22.2930  -31.5700 C   0  0  0  0  0  0  0  0  0  0  0  0
   -8.5370   21.5500  -32.0360 C   0  0  0  0  0  0  0  0  0  0  0  0
   -8.3030   20.2220  -32.4270 C   0  0  0  0  0  0  0  0  0  0  0  0
   -7.0000   19.6630  -32.3540 C   0  0  0  0  0  0  0  0  0  0  0  0
   -6.7760   18.2160  -32.7180 C   0  0  0  0  0  0  0  0  0  0  0  0
   -6.4360   18.0950  -34.0540 F   0  0  0  0  0  0  0  0  0  0  0  0
   -5.7510   17.6770  -31.9610 F   0  0  0  0  0  0  0  0  0  0  0  0
   -7.9340   17.5030  -32.4800 F   0  0  0  0  0  0  0  0  0  0  0  0
   -5.9350   20.4440  -31.8510 C   0  0  0  0  0  0  0  0  0  0  0  0
   -6.1920   21.7720  -31.4880 C   0  0  0  0  0  0  0  0  0  0  0  0
   -5.3370   22.6880  -30.9780 N   0  0  0  0  0  0  0  0  0  0  0  0
   -3.9500   22.4910  -30.6550 C   0  0  0  0  0  0  0  0  0  0  0  0
   -3.0680   23.2400  -31.1590 O   0  0  0  0  0  0  0  0  0  0  0  0
   -3.5810   21.4580  -29.7890 O   0  0  0  0  0  0  0  0  0  0  0  0
   -3.0740   21.6830  -28.4790 C   0  0  0  0  0  0  0  0  0  0  0  0
   -3.3770   23.1180  -28.0370 C   0  0  0  0  0  0  0  0  0  0  0  0
   -2.1500   23.8420  -27.4610 C   0  0  0  0  0  0  0  0  0  0  0  0
   -1.4570   24.6850  -28.4880 C   0  0  0  0  0  0  0  0  0  0  0  0
   -2.1280   25.3060  -29.3550 O   0  0  0  0  0  0  0  0  0  0  0  0
   -0.0730   24.8060  -28.4750 O   0  0  0  0  0  0  0  0  0  0  0  0
   -3.8790   26.4190  -30.1750 H   0  0  0  0  0  0  0  0  0  0  0  0
   -3.6340   24.9550  -31.1840 H   0  0  0  0  0  0  0  0  0  0  0  0
   -8.2535   24.2905  -31.0115 H   0  0  0  0  0  0  0  0  0  0  0  0
   -9.5436   21.9894  -32.0965 H   0  0  0  0  0  0  0  0  0  0  0  0
   -9.1385   19.6078  -32.7940 H   0  0  0  0  0  0  0  0  0  0  0  0
   -4.9261   20.0181  -31.7469 H   0  0  0  0  0  0  0  0  0  0  0  0
   -3.5482   20.9789  -27.7794 H   0  0  0  0  0  0  0  0  0  0  0  0
   -1.9847   21.5298  -28.4831 H   0  0  0  0  0  0  0  0  0  0  0  0
   -3.7405   23.6834  -28.9078 H   0  0  0  0  0  0  0  0  0  0  0  0
   -4.1311   23.0633  -27.2381 H   0  0  0  0  0  0  0  0  0  0  0  0
   -2.4764   24.4888  -26.6333 H   0  0  0  0  0  0  0  0  0  0  0  0
   -1.4384   23.0779  -27.1149 H   0  0  0  0  0  0  0  0  0  0  0  0
  1  2  1  0
  2  3  2  0
  2  4  1  0
  4  5  2  0
  5  6  1  0
  6  7  2  0
  7  8  1  0
  8  9  2  0
  9 10  1  0
 10 11  1  0
 10 12  1  0
 10 13  1  0
  9 14  1  0
 14 15  2  0
 15 16  1  0
 16 17  1  0
 17 18  2  0
 17 19  1  0
 19 20  1  0
 20 21  1  0
 21 22  1  0
 22 23  1  0
 23 24  2  0
 23 25  1  0
 16  4  1  0
 15  6  1  0
  1 26  1  0
  1 27  1  0
  5 28  1  0
  7 29  1  0
  8 30  1  0
 14 31  1  0
 20 32  1  0
 20 33  1  0
 21 34  1  0
 21 35  1  0
 22 36  1  0
 22 37  1  0
M  CHG  1  25  -1
M  END
>  <UniqueID>  (27) 
26

>  <SMILES>  (27) 
NC(=O)c1cc2ccc(C(F)(F)F)cc2n1C(=O)OCCCC(=O)[O-]

>  <Energy>  (27) 
69.16830277967053

>  <Genealogy>  (27) 
NC(=O)c1cc2ccc(C(F)(F)F)cc2n1C(=O)OCCCC(=O)[O-] (protonated)
NC(=O)c1cc2ccc(C(F)(F)F)cc2n1C(=O)OCCCC(=O)[O-] (3D coordinates assigned)
NC(=O)c1cc2ccc(C(F)(F)F)cc2n1C(=O)OCCCC(=O)[O-] (optimized conformer: 69.16830277967053 kcal/mol)

>  <smiles>  (27) 
NC(=O)c1cc2ccc(C(F)(F)F)cc2n1C(=O)OCCCC(=O)O

>  <score_type>  (27) 
oracle

>  <origin>  (27) 
adg

>  <m_score__min__energy>  (27) 
-10.26

>  <m_primary>  (27) 
energy

$$$$
27:0
     RDKit          3D

 47 49  0  0  0  0  0  0  0  0999 V2000
   -2.0850   20.3470  -29.0790 C   0  0  0  0  0  0  0  0  0  0  0  0
   -1.2150   21.6160  -29.0610 C   0  0  1  0  0  0  0  0  0  0  0  0
   -0.6340   21.8330  -30.3230 O   0  0  0  0  0  0  0  0  0  0  0  0
   -1.9580   22.8830  -28.5690 C   0  0  2  0  0  0  0  0  0  0  0  0
   -3.3380   22.8970  -29.0690 N   0  0  0  0  0  0  0  0  0  0  0  0
   -3.6620   22.9770  -30.4650 C   0  0  0  0  0  0  0  0  0  0  0  0
   -2.7510   22.9520  -31.3360 O   0  0  0  0  0  0  0  0  0  0  0  0
   -5.0350   23.0410  -30.8800 N   0  0  0  0  0  0  0  0  0  0  0  0
   -5.9080   24.0730  -30.7230 C   0  0  0  0  0  0  0  0  0  0  0  0
   -5.5690   25.4190  -30.2180 C   0  0  0  0  0  0  0  0  0  0  0  0
   -4.2780   25.9700  -30.4690 N   0  0  0  0  0  0  0  0  0  0  0  0
   -6.3990   26.0760  -29.5350 O   0  0  0  0  0  0  0  0  0  0  0  0
   -7.1730   23.7170  -31.1880 C   0  0  0  0  0  0  0  0  0  0  0  0
   -7.0410   22.4270  -31.6490 C   0  0  0  0  0  0  0  0  0  0  0  0
   -7.9830   21.5750  -32.2140 C   0  0  0  0  0  0  0  0  0  0  0  0
   -7.5690   20.2830  -32.5800 C   0  0  0  0  0  0  0  0  0  0  0  0
   -6.2280   19.8570  -32.3740 C   0  0  0  0  0  0  0  0  0  0  0  0
   -5.8150   18.5210  -32.7460 N   0  0  0  0  0  0  0  0  0  0  0  0
   -5.0720   18.2080  -33.9590 C   0  0  0  0  0  0  0  0  0  0  0  0
   -5.0070   16.6890  -34.0270 C   0  0  0  0  0  0  0  0  0  0  0  0
   -5.3320   16.1960  -32.6220 C   0  0  0  0  0  0  0  0  0  0  0  0
   -6.0920   17.3340  -31.9520 C   0  0  0  0  0  0  0  0  0  0  0  0
   -5.3020   20.7610  -31.7940 C   0  0  0  0  0  0  0  0  0  0  0  0
   -5.7410   22.0440  -31.4530 C   0  0  0  0  0  0  0  0  0  0  0  0
   -1.2520   24.1580  -28.9530 C   0  0  0  0  0  0  0  0  0  0  0  0
    0.0060   24.1910  -29.0050 O   0  0  0  0  0  0  0  0  0  0  0  0
   -1.9780   25.2970  -29.2870 O   0  0  0  0  0  0  0  0  0  0  0  0
   -2.2992   20.0346  -28.0463 H   0  0  0  0  0  0  0  0  0  0  0  0
   -3.0297   20.5575  -29.6018 H   0  0  0  0  0  0  0  0  0  0  0  0
   -1.5481   19.5417  -29.6018 H   0  0  0  0  0  0  0  0  0  0  0  0
   -0.4234   21.4312  -28.3199 H   0  0  0  0  0  0  0  0  0  0  0  0
   -0.7320   22.7960  -30.5410 H   0  0  0  0  0  0  0  0  0  0  0  0
   -1.9676   22.8378  -27.4700 H   0  0  0  0  0  0  0  0  0  0  0  0
   -4.1260   22.9170  -28.3840 H   0  0  0  0  0  0  0  0  0  0  0  0
   -3.4970   25.3690  -30.8120 H   0  0  0  0  0  0  0  0  0  0  0  0
   -8.0828   24.3353  -31.1867 H   0  0  0  0  0  0  0  0  0  0  0  0
   -9.0215   21.9024  -32.3699 H   0  0  0  0  0  0  0  0  0  0  0  0
   -8.2936   19.5903  -33.0329 H   0  0  0  0  0  0  0  0  0  0  0  0
   -5.5929   18.6087  -34.8411 H   0  0  0  0  0  0  0  0  0  0  0  0
   -4.0672   18.6553  -33.9443 H   0  0  0  0  0  0  0  0  0  0  0  0
   -5.7447   16.3059  -34.7475 H   0  0  0  0  0  0  0  0  0  0  0  0
   -4.0180   16.3406  -34.3596 H   0  0  0  0  0  0  0  0  0  0  0  0
   -5.9569   15.2919  -32.6676 H   0  0  0  0  0  0  0  0  0  0  0  0
   -4.4219   15.9311  -32.0637 H   0  0  0  0  0  0  0  0  0  0  0  0
   -7.1713   17.1215  -31.9454 H   0  0  0  0  0  0  0  0  0  0  0  0
   -5.7801   17.4666  -30.9055 H   0  0  0  0  0  0  0  0  0  0  0  0
   -4.2594   20.4590  -31.6160 H   0  0  0  0  0  0  0  0  0  0  0  0
  1  2  1  0
  2  3  1  0
  2  4  1  0
  4  5  1  0
  5  6  1  0
  6  7  2  0
  6  8  1  0
  8  9  1  0
  9 10  1  0
 10 11  1  0
 10 12  2  0
  9 13  2  0
 13 14  1  0
 14 15  2  0
 15 16  1  0
 16 17  2  0
 17 18  1  0
 18 19  1  0
 19 20  1  0
 20 21  1  0
 21 22  1  0
 17 23  1  0
 23 24  2  0
  4 25  1  0
 25 26  2  0
 25 27  1  0
 24  8  1  0
 24 14  1  0
 22 18  1  0
  1 28  1  0
  1 29  1  0
  1 30  1  0
  2 31  1  1
  3 32  1  0
  4 33  1  1
  5 34  1  0
 11 35  1  0
 13 36  1  0
 15 37  1  0
 16 38  1  0
 19 39  1  0
 19 40  1  0
 20 41  1  0
 20 42  1  0
 21 43  1  0
 21 44  1  0
 22 45  1  0
 22 46  1  0
 23 47  1  0
M  CHG  2  11  -1  27  -1
M  END
>  <UniqueID>  (28) 
27

>  <SMILES>  (28) 
C[C@@H](O)[C@H](NC(=O)n1c(C([NH-])=O)cc2ccc(N3CCCC3)cc21)C(=O)[O-]

>  <Energy>  (28) 
85.96559320906934

>  <Genealogy>  (28) 
CC(O)C(NC(=O)n1c(C([NH-])=O)cc2ccc(N3CCCC3)cc21)C(=O)[O-] (protonated)
C[C@@H](O)[C@H](NC(=O)n1c(C([NH-])=O)cc2ccc(N3CCCC3)cc21)C(=O)[O-] (chirality)
C[C@@H](O)[C@H](NC(=O)n1c(C([NH-])=O)cc2ccc(N3CCCC3)cc21)C(=O)[O-] (3D coordinates assigned)
C[C@@H](O)[C@H](NC(=O)n1c(C([NH-])=O)cc2ccc(N3CCCC3)cc21)C(=O)[O-] (nonaromatic ring conformer: 85.96559320906934 kcal/mol)

>  <smiles>  (28) 
CC(O)C(NC(=O)n1c(C(N)=O)cc2ccc(N3CCCC3)cc21)C(=O)O

>  <score_type>  (28) 
oracle

>  <origin>  (28) 
adg

>  <m_score__min__energy>  (28) 
-12.359999999999999

>  <m_primary>  (28) 
energy

$$$$
28:0
     RDKit          3D

 41 42  0  0  0  0  0  0  0  0999 V2000
   -6.6870   17.5990  -31.9800 C   0  0  0  0  0  0  0  0  0  0  0  0
   -7.0820   18.6180  -33.0440 C   0  0  0  0  0  0  0  0  0  0  0  0
   -7.1810   19.9970  -32.4480 C   0  0  0  0  0  0  0  0  0  0  0  0
   -8.4490   20.5530  -32.1550 C   0  0  0  0  0  0  0  0  0  0  0  0
   -8.5550   21.8450  -31.6140 C   0  0  0  0  0  0  0  0  0  0  0  0
   -7.3800   22.5610  -31.3980 C   0  0  0  0  0  0  0  0  0  0  0  0
   -7.1980   23.8110  -30.8600 C   0  0  0  0  0  0  0  0  0  0  0  0
   -5.8220   24.0210  -30.8700 C   0  0  0  0  0  0  0  0  0  0  0  0
   -5.2010   25.2890  -30.4410 C   0  0  0  0  0  0  0  0  0  0  0  0
   -3.8710   25.6190  -30.8290 N   0  0  0  0  0  0  0  0  0  0  0  0
   -5.8760   26.1210  -29.7770 O   0  0  0  0  0  0  0  0  0  0  0  0
   -5.1720   22.9380  -31.3880 N   0  0  0  0  0  0  0  0  0  0  0  0
   -3.7520   22.7060  -31.4610 C   0  0  0  0  0  0  0  0  0  0  0  0
   -3.2380   22.2830  -32.5290 O   0  0  0  0  0  0  0  0  0  0  0  0
   -2.9320   22.9000  -30.3020 N   0  0  0  0  0  0  0  0  0  0  0  0
   -3.1120   22.1880  -29.0380 C   0  0  0  0  0  0  0  0  0  0  0  0
   -3.8500   23.0280  -27.9810 C   0  0  0  0  0  0  0  0  0  0  0  0
   -3.3360   24.4710  -27.8330 C   0  0  0  0  0  0  0  0  0  0  0  0
   -1.8330   24.6230  -28.0880 C   0  0  0  0  0  0  0  0  0  0  0  0
   -1.6120   25.3230  -29.2810 O   0  0  0  0  0  0  0  0  0  0  0  0
   -6.1450   22.0510  -31.7060 C   0  0  0  0  0  0  0  0  0  0  0  0
   -6.0100   20.7560  -32.2250 C   0  0  0  0  0  0  0  0  0  0  0  0
   -6.8535   18.0286  -30.9811 H   0  0  0  0  0  0  0  0  0  0  0  0
   -7.2987   16.6921  -32.0958 H   0  0  0  0  0  0  0  0  0  0  0  0
   -5.6239   17.3414  -32.0958 H   0  0  0  0  0  0  0  0  0  0  0  0
   -6.3227   18.6221  -33.8399 H   0  0  0  0  0  0  0  0  0  0  0  0
   -8.0634   18.3386  -33.4549 H   0  0  0  0  0  0  0  0  0  0  0  0
   -9.3595   19.9683  -32.3526 H   0  0  0  0  0  0  0  0  0  0  0  0
   -9.5359   22.2780  -31.3685 H   0  0  0  0  0  0  0  0  0  0  0  0
   -7.9749   24.5004  -30.4978 H   0  0  0  0  0  0  0  0  0  0  0  0
   -3.0560   25.0670  -30.4800 H   0  0  0  0  0  0  0  0  0  0  0  0
   -3.6932   21.2739  -29.2291 H   0  0  0  0  0  0  0  0  0  0  0  0
   -2.1119   21.9598  -28.6408 H   0  0  0  0  0  0  0  0  0  0  0  0
   -4.9137   23.0699  -28.2581 H   0  0  0  0  0  0  0  0  0  0  0  0
   -3.6740   22.5347  -27.0137 H   0  0  0  0  0  0  0  0  0  0  0  0
   -3.8753   25.1063  -28.5511 H   0  0  0  0  0  0  0  0  0  0  0  0
   -3.5148   24.7685  -26.7892 H   0  0  0  0  0  0  0  0  0  0  0  0
   -1.3771   25.1753  -27.2531 H   0  0  0  0  0  0  0  0  0  0  0  0
   -1.3805   23.6237  -28.1697 H   0  0  0  0  0  0  0  0  0  0  0  0
   -2.0070   24.7680  -30.0030 H   0  0  0  0  0  0  0  0  0  0  0  0
   -5.0172   20.3408  -32.4531 H   0  0  0  0  0  0  0  0  0  0  0  0
  1  2  1  0
  2  3  1  0
  3  4  2  0
  4  5  1  0
  5  6  2  0
  6  7  1  0
  7  8  2  0
  8  9  1  0
  9 10  1  0
  9 11  2  0
  8 12  1  0
 12 13  1  0
 13 14  2  0
 13 15  1  0
 15 16  1  0
 16 17  1  0
 17 18  1  0
 18 19  1  0
 19 20  1  0
 12 21  1  0
 21 22  2  0
 22  3  1  0
 21  6  1  0
  1 23  1  0
  1 24  1  0
  1 25  1  0
  2 26  1  0
  2 27  1  0
  4 28  1  0
  5 29  1  0
  7 30  1  0
 10 31  1  0
 16 32  1  0
 16 33  1  0
 17 34  1  0
 17 35  1  0
 18 36  1  0
 18 37  1  0
 19 38  1  0
 19 39  1  0
 20 40  1  0
 22 41  1  0
M  CHG  2  10  -1  15  -1
M  END
>  <UniqueID>  (29) 
28

>  <SMILES>  (29) 
CCc1ccc2cc(C([NH-])=O)n(C(=O)[N-]CCCCO)c2c1

>  <Energy>  (29) 
71.08403704773389

>  <Genealogy>  (29) 
CCc1ccc2cc(C([NH-])=O)n(C(=O)[N-]CCCCO)c2c1 (protonated)
CCc1ccc2cc(C([NH-])=O)n(C(=O)[N-]CCCCO)c2c1 (3D coordinates assigned)
CCc1ccc2cc(C([NH-])=O)n(C(=O)[N-]CCCCO)c2c1 (optimized conformer: 71.08403704773389 kcal/mol)

>  <smiles>  (29) 
CCc1ccc2cc(C(N)=O)n(C(=O)NCCCCO)c2c1

>  <score_type>  (29) 
oracle

>  <origin>  (29) 
adg

>  <m_score__min__energy>  (29) 
-11.220000000000001

>  <m_primary>  (29) 
energy

$$$$
29:0
     RDKit          3D

 50 51  0  0  0  0  0  0  0  0999 V2000
   -1.2390   25.5550  -28.5910 C   0  0  0  0  0  0  0  0  0  0  0  0
   -2.2800   24.8750  -29.3500 N   0  0  0  0  0  0  0  0  0  0  0  0
   -3.0190   23.7690  -28.8260 C   0  0  0  0  0  0  0  0  0  0  0  0
   -3.6540   23.8830  -27.7410 O   0  0  0  0  0  0  0  0  0  0  0  0
   -3.0640   22.4780  -29.5840 C   0  0  0  0  0  0  0  0  0  0  0  0
   -3.7950   22.6520  -30.8830 C   0  0  0  0  0  0  0  0  0  0  0  0
   -3.1400   22.7290  -31.9580 O   0  0  0  0  0  0  0  0  0  0  0  0
   -5.2290   22.7340  -30.9180 N   0  0  0  0  0  0  0  0  0  0  0  0
   -5.9890   23.8580  -30.7910 C   0  0  0  0  0  0  0  0  0  0  0  0
   -5.4930   25.2040  -30.4370 C   0  0  0  0  0  0  0  0  0  0  0  0
   -4.1750   25.6270  -30.7900 N   0  0  0  0  0  0  0  0  0  0  0  0
   -6.2270   25.9770  -29.7690 O   0  0  0  0  0  0  0  0  0  0  0  0
   -7.3280   23.5750  -31.0490 C   0  0  0  0  0  0  0  0  0  0  0  0
   -7.3660   22.2310  -31.3440 C   0  0  0  0  0  0  0  0  0  0  0  0
   -8.4370   21.4300  -31.7170 C   0  0  0  0  0  0  0  0  0  0  0  0
   -8.1790   20.0880  -32.0340 C   0  0  0  0  0  0  0  0  0  0  0  0
   -6.8570   19.5660  -31.9850 C   0  0  0  0  0  0  0  0  0  0  0  0
   -6.6030   18.1830  -32.3360 N   0  0  0  0  0  0  0  0  0  0  0  0
   -6.4550   17.1810  -31.2730 C   0  0  0  0  0  0  0  0  0  0  0  0
   -6.5270   17.7510  -33.7430 C   0  0  0  0  0  0  0  0  0  0  0  0
   -5.3530   18.4230  -34.4690 C   0  0  0  0  0  0  0  0  0  0  0  0
   -4.1210   18.3620  -33.6510 N   0  0  0  0  0  0  0  0  0  0  0  0
   -3.3620   19.6210  -33.7370 C   0  0  0  0  0  0  0  0  0  0  0  0
   -3.2720   17.2450  -34.0950 C   0  0  0  0  0  0  0  0  0  0  0  0
   -5.7950   20.4220  -31.6000 C   0  0  0  0  0  0  0  0  0  0  0  0
   -6.0870   21.7490  -31.2660 C   0  0  0  0  0  0  0  0  0  0  0  0
   -1.4294   25.4307  -27.5148 H   0  0  0  0  0  0  0  0  0  0  0  0
   -0.2596   25.1220  -28.8426 H   0  0  0  0  0  0  0  0  0  0  0  0
   -1.2420   26.6258  -28.8426 H   0  0  0  0  0  0  0  0  0  0  0  0
   -2.0364   22.1438  -29.7897 H   0  0  0  0  0  0  0  0  0  0  0  0
   -3.5940   21.7292  -28.9770 H   0  0  0  0  0  0  0  0  0  0  0  0
   -3.4700   24.9480  -31.1500 H   0  0  0  0  0  0  0  0  0  0  0  0
   -3.8650   26.6020  -30.5790 H   0  0  0  0  0  0  0  0  0  0  0  0
   -8.1750   24.2763  -31.0226 H   0  0  0  0  0  0  0  0  0  0  0  0
   -9.4583   21.8360  -31.7626 H   0  0  0  0  0  0  0  0  0  0  0  0
   -9.0112   19.4300  -32.3246 H   0  0  0  0  0  0  0  0  0  0  0  0
   -6.5278   17.6735  -30.2921 H   0  0  0  0  0  0  0  0  0  0  0  0
   -7.2517   16.4282  -31.3653 H   0  0  0  0  0  0  0  0  0  0  0  0
   -5.4747   16.6906  -31.3653 H   0  0  0  0  0  0  0  0  0  0  0  0
   -6.3918   16.6598  -33.7762 H   0  0  0  0  0  0  0  0  0  0  0  0
   -7.4602   18.0425  -34.2471 H   0  0  0  0  0  0  0  0  0  0  0  0
   -5.1770   17.9064  -35.4241 H   0  0  0  0  0  0  0  0  0  0  0  0
   -5.6064   19.4790  -34.6441 H   0  0  0  0  0  0  0  0  0  0  0  0
   -3.1417   19.9863  -32.7231 H   0  0  0  0  0  0  0  0  0  0  0  0
   -2.4195   19.4448  -34.2761 H   0  0  0  0  0  0  0  0  0  0  0  0
   -3.9578   20.3723  -34.2761 H   0  0  0  0  0  0  0  0  0  0  0  0
   -2.8711   16.7176  -33.2169 H   0  0  0  0  0  0  0  0  0  0  0  0
   -3.8702   16.5478  -34.7000 H   0  0  0  0  0  0  0  0  0  0  0  0
   -2.4401   17.6347  -34.7000 H   0  0  0  0  0  0  0  0  0  0  0  0
   -4.7604   20.0500  -31.5644 H   0  0  0  0  0  0  0  0  0  0  0  0
  1  2  1  0
  2  3  1  0
  3  4  2  0
  3  5  1  0
  5  6  1  0
  6  7  2  0
  6  8  1  0
  8  9  1  0
  9 10  1  0
 10 11  1  0
 10 12  2  0
  9 13  2  0
 13 14  1  0
 14 15  2  0
 15 16  1  0
 16 17  2  0
 17 18  1  0
 18 19  1  0
 18 20  1  0
 20 21  1  0
 21 22  1  0
 22 23  1  0
 22 24  1  0
 17 25  1  0
 25 26  2  0
 26  8  1  0
 26 14  1  0
  1 27  1  0
  1 28  1  0
  1 29  1  0
  5 30  1  0
  5 31  1  0
 11 32  1  0
 11 33  1  0
 13 34  1  0
 15 35  1  0
 16 36  1  0
 19 37  1  0
 19 38  1  0
 19 39  1  0
 20 40  1  0
 20 41  1  0
 21 42  1  0
 21 43  1  0
 23 44  1  0
 23 45  1  0
 23 46  1  0
 24 47  1  0
 24 48  1  0
 24 49  1  0
 25 50  1  0
M  CHG  1   2  -1
M  END
>  <UniqueID>  (30) 
29

>  <SMILES>  (30) 
C[N-]C(=O)CC(=O)n1c(C(N)=O)cc2ccc(N(C)CCN(C)C)cc21

>  <Energy>  (30) 
85.260234055451

>  <Genealogy>  (30) 
C[N-]C(=O)CC(=O)n1c(C(N)=O)cc2ccc(N(C)CCN(C)C)cc21 (protonated)
C[N-]C(=O)CC(=O)n1c(C(N)=O)cc2ccc(N(C)CCN(C)C)cc21 (3D coordinates assigned)
C[N-]C(=O)CC(=O)n1c(C(N)=O)cc2ccc(N(C)CCN(C)C)cc21 (optimized conformer: 85.260234055451 kcal/mol)

>  <smiles>  (30) 
CNC(=O)CC(=O)n1c(C(N)=O)cc2ccc(N(C)CCN(C)C)cc21

>  <score_type>  (30) 
oracle

>  <origin>  (30) 
adg

>  <m_score__min__energy>  (30) 
-10.1

>  <m_primary>  (30) 
energy

$$$$
30:0
     RDKit          3D

 38 39  0  0  0  0  0  0  0  0999 V2000
   -3.8850   25.6270  -30.8380 N   0  0  0  0  0  0  0  0  0  0  0  0
   -5.0680   24.9590  -30.4070 C   0  0  0  0  0  0  0  0  0  0  0  0
   -5.7930   25.4960  -29.5270 O   0  0  0  0  0  0  0  0  0  0  0  0
   -5.4840   23.6790  -31.0160 C   0  0  0  0  0  0  0  0  0  0  0  0
   -6.8150   23.3350  -31.2430 C   0  0  0  0  0  0  0  0  0  0  0  0
   -6.7740   22.1240  -31.8960 C   0  0  0  0  0  0  0  0  0  0  0  0
   -7.8100   21.3210  -32.3590 C   0  0  0  0  0  0  0  0  0  0  0  0
   -7.4750   20.1050  -32.9770 C   0  0  0  0  0  0  0  0  0  0  0  0
   -6.1190   19.7010  -33.1000 C   0  0  0  0  0  0  0  0  0  0  0  0
   -5.7720   18.4120  -33.7980 C   0  0  0  0  0  0  0  0  0  0  0  0
   -4.4710   18.0350  -33.5120 F   0  0  0  0  0  0  0  0  0  0  0  0
   -5.8890   18.5530  -35.1700 F   0  0  0  0  0  0  0  0  0  0  0  0
   -6.6330   17.4180  -33.3730 F   0  0  0  0  0  0  0  0  0  0  0  0
   -5.0940   20.5580  -32.6360 C   0  0  0  0  0  0  0  0  0  0  0  0
   -5.4570   21.7720  -32.0410 C   0  0  0  0  0  0  0  0  0  0  0  0
   -4.6520   22.7170  -31.5050 N   0  0  0  0  0  0  0  0  0  0  0  0
   -3.2230   22.6500  -31.3840 C   0  0  0  0  0  0  0  0  0  0  0  0
   -2.5490   22.0090  -32.2370 O   0  0  0  0  0  0  0  0  0  0  0  0
   -2.5870   23.2820  -30.3100 O   0  0  0  0  0  0  0  0  0  0  0  0
   -1.3860   22.7980  -29.7110 C   0  0  0  0  0  0  0  0  0  0  0  0
   -1.4080   23.0410  -28.1990 C   0  0  0  0  0  0  0  0  0  0  0  0
   -0.5480   24.2560  -27.8250 C   0  0  0  0  0  0  0  0  0  0  0  0
   -1.3140   25.5710  -27.9900 C   0  0  0  0  0  0  0  0  0  0  0  0
   -1.2440   26.0250  -29.3150 O   0  0  0  0  0  0  0  0  0  0  0  0
   -2.9420   25.2990  -30.5330 H   0  0  0  0  0  0  0  0  0  0  0  0
   -7.7093   23.9096  -30.9602 H   0  0  0  0  0  0  0  0  0  0  0  0
   -8.8600   21.6285  -32.2449 H   0  0  0  0  0  0  0  0  0  0  0  0
   -8.2726   19.4577  -33.3705 H   0  0  0  0  0  0  0  0  0  0  0  0
   -4.0356   20.2770  -32.7403 H   0  0  0  0  0  0  0  0  0  0  0  0
   -1.2944   21.7188  -29.9034 H   0  0  0  0  0  0  0  0  0  0  0  0
   -0.5293   23.3335  -30.1461 H   0  0  0  0  0  0  0  0  0  0  0  0
   -2.4447   23.2217  -27.8787 H   0  0  0  0  0  0  0  0  0  0  0  0
   -0.9984   22.1531  -27.6952 H   0  0  0  0  0  0  0  0  0  0  0  0
   -0.2315   24.1582  -26.7761 H   0  0  0  0  0  0  0  0  0  0  0  0
    0.3196   24.2801  -28.5008 H   0  0  0  0  0  0  0  0  0  0  0  0
   -2.3680   25.4109  -27.7188 H   0  0  0  0  0  0  0  0  0  0  0  0
   -0.8605   26.3281  -27.3334 H   0  0  0  0  0  0  0  0  0  0  0  0
   -2.0370   25.6620  -29.7870 H   0  0  0  0  0  0  0  0  0  0  0  0
  1  2  1  0
  2  3  2  0
  2  4  1  0
  4  5  2  0
  5  6  1  0
  6  7  2  0
  7  8  1  0
  8  9  2  0
  9 10  1  0
 10 11  1  0
 10 12  1  0
 10 13  1  0
  9 14  1  0
 14 15  2  0
 15 16  1  0
 16 17  1  0
 17 18  2  0
 17 19  1  0
 19 20  1  0
 20 21  1  0
 21 22  1  0
 22 23  1  0
 23 24  1  0
 16  4  1  0
 15  6  1  0
  1 25  1  0
  5 26  1  0
  7 27  1  0
  8 28  1  0
 14 29  1  0
 20 30  1  0
 20 31  1  0
 21 32  1  0
 21 33  1  0
 22 34  1  0
 22 35  1  0
 23 36  1  0
 23 37  1  0
 24 38  1  0
M  CHG  1   1  -1
M  END
>  <UniqueID>  (31) 
30

>  <SMILES>  (31) 
[NH-]C(=O)c1cc2ccc(C(F)(F)F)cc2n1C(=O)OCCCCO

>  <Energy>  (31) 
70.53512314036554

>  <Genealogy>  (31) 
[NH-]C(=O)c1cc2ccc(C(F)(F)F)cc2n1C(=O)OCCCCO (protonated)
[NH-]C(=O)c1cc2ccc(C(F)(F)F)cc2n1C(=O)OCCCCO (3D coordinates assigned)
[NH-]C(=O)c1cc2ccc(C(F)(F)F)cc2n1C(=O)OCCCCO (optimized conformer: 70.53512314036554 kcal/mol)

>  <smiles>  (31) 
NC(=O)c1cc2ccc(C(F)(F)F)cc2n1C(=O)OCCCCO

>  <score_type>  (31) 
oracle

>  <origin>  (31) 
adg

>  <m_score__min__energy>  (31) 
-10.4

>  <m_primary>  (31) 
energy

$$$$
31:0
     RDKit          3D

 34 35  0  0  0  0  0  0  0  0999 V2000
   -4.0690   24.1320  -27.4410 C   0  0  0  0  0  0  0  0  0  0  0  0
   -2.8720   23.3750  -28.5180 S   0  0  0  0  0  0  0  0  0  0  0  0
   -2.2410   24.5220  -29.5720 O   0  0  0  0  0  0  0  0  0  0  0  0
   -3.5880   22.0300  -29.4400 C   0  0  0  0  0  0  0  0  0  0  0  0
   -4.0740   22.5280  -30.7640 C   0  0  0  0  0  0  0  0  0  0  0  0
   -3.2420   22.8440  -31.6560 O   0  0  0  0  0  0  0  0  0  0  0  0
   -5.4730   22.7580  -30.9860 N   0  0  0  0  0  0  0  0  0  0  0  0
   -6.1520   23.9350  -30.8960 C   0  0  0  0  0  0  0  0  0  0  0  0
   -5.5850   25.2090  -30.4000 C   0  0  0  0  0  0  0  0  0  0  0  0
   -4.2380   25.5810  -30.7040 N   0  0  0  0  0  0  0  0  0  0  0  0
   -6.2950   25.9910  -29.7150 O   0  0  0  0  0  0  0  0  0  0  0  0
   -7.4870   23.7510  -31.2570 C   0  0  0  0  0  0  0  0  0  0  0  0
   -7.6000   22.4150  -31.5720 C   0  0  0  0  0  0  0  0  0  0  0  0
   -8.7050   21.6810  -31.9910 C   0  0  0  0  0  0  0  0  0  0  0  0
   -8.5250   20.3110  -32.2520 C   0  0  0  0  0  0  0  0  0  0  0  0
   -7.2480   19.7060  -32.1120 C   0  0  0  0  0  0  0  0  0  0  0  0
   -7.0770   18.2280  -32.3560 C   0  0  0  0  0  0  0  0  0  0  0  0
   -6.2400   17.6690  -31.4070 F   0  0  0  0  0  0  0  0  0  0  0  0
   -6.5260   18.0010  -33.6050 F   0  0  0  0  0  0  0  0  0  0  0  0
   -8.3120   17.6100  -32.2880 F   0  0  0  0  0  0  0  0  0  0  0  0
   -6.1570   20.4830  -31.6580 C   0  0  0  0  0  0  0  0  0  0  0  0
   -6.3700   21.8400  -31.3980 C   0  0  0  0  0  0  0  0  0  0  0  0
   -3.7851   23.9525  -26.3935 H   0  0  0  0  0  0  0  0  0  0  0  0
   -4.1009   25.2149  -27.6318 H   0  0  0  0  0  0  0  0  0  0  0  0
   -5.0610   23.6967  -27.6318 H   0  0  0  0  0  0  0  0  0  0  0  0
   -1.9400   24.0040  -30.3610 H   0  0  0  0  0  0  0  0  0  0  0  0
   -2.8282   21.2506  -29.5991 H   0  0  0  0  0  0  0  0  0  0  0  0
   -4.4343   21.6116  -28.8755 H   0  0  0  0  0  0  0  0  0  0  0  0
   -3.8630   26.4970  -30.3740 H   0  0  0  0  0  0  0  0  0  0  0  0
   -3.5960   24.9360  -31.2140 H   0  0  0  0  0  0  0  0  0  0  0  0
   -8.2811   24.5117  -31.2843 H   0  0  0  0  0  0  0  0  0  0  0  0
   -9.6888   22.1574  -32.1143 H   0  0  0  0  0  0  0  0  0  0  0  0
   -9.3837   19.7007  -32.5684 H   0  0  0  0  0  0  0  0  0  0  0  0
   -5.1649   20.0306  -31.5130 H   0  0  0  0  0  0  0  0  0  0  0  0
  1  2  1  0
  2  3  1  6
  2  4  1  0
  4  5  1  0
  5  6  2  0
  5  7  1  0
  7  8  1  0
  8  9  1  0
  9 10  1  0
  9 11  2  0
  8 12  2  0
 12 13  1  0
 13 14  2  0
 14 15  1  0
 15 16  2  0
 16 17  1  0
 17 18  1  0
 17 19  1  0
 17 20  1  0
 16 21  1  0
 21 22  2  0
 22  7  1  0
 22 13  1  0
  1 23  1  0
  1 24  1  0
  1 25  1  0
  3 26  1  0
  4 27  1  0
  4 28  1  0
 10 29  1  0
 10 30  1  0
 12 31  1  0
 14 32  1  0
 15 33  1  0
 21 34  1  0
M  CHG  1   2   1
M  END
>  <UniqueID>  (32) 
31

>  <SMILES>  (32) 
C[S@+](O)CC(=O)n1c(C(N)=O)cc2ccc(C(F)(F)F)cc21

>  <Energy>  (32) 
66.27002261012315

>  <Genealogy>  (32) 
C[S+](O)CC(=O)n1c(C(N)=O)cc2ccc(C(F)(F)F)cc21 (protonated)
C[S@+](O)CC(=O)n1c(C(N)=O)cc2ccc(C(F)(F)F)cc21 (chirality)
C[S@+](O)CC(=O)n1c(C(N)=O)cc2ccc(C(F)(F)F)cc21 (3D coordinates assigned)
C[S@+](O)CC(=O)n1c(C(N)=O)cc2ccc(C(F)(F)F)cc21 (optimized conformer: 66.27002261012315 kcal/mol)

>  <smiles>  (32) 
C[S+]([O-])CC(=O)n1c(C(N)=O)cc2ccc(C(F)(F)F)cc21

>  <score_type>  (32) 
oracle

>  <origin>  (32) 
adg

>  <m_score__min__energy>  (32) 
-7.0599999999999996

>  <m_primary>  (32) 
energy

$$$$
32:0
     RDKit          3D

 32 33  0  0  0  0  0  0  0  0999 V2000
   -7.2240   20.5010  -32.5940 C   0  0  0  0  0  0  0  0  0  0  0  0
   -5.9990   19.6000  -32.8230 C   0  0  2  0  0  0  0  0  0  0  0  0
   -4.9810   20.2600  -33.6690 N   0  0  0  0  0  0  0  0  0  0  0  0
   -3.8740   20.7530  -32.8820 C   0  0  0  0  0  0  0  0  0  0  0  0
   -2.6490   20.0380  -32.8500 C   0  0  0  0  0  0  0  0  0  0  0  0
   -1.5750   20.4900  -32.0660 C   0  0  0  0  0  0  0  0  0  0  0  0
   -1.7480   21.6600  -31.3330 C   0  0  0  0  0  0  0  0  0  0  0  0
   -0.8870   22.2990  -30.4720 C   0  0  0  0  0  0  0  0  0  0  0  0
   -1.5870   23.4100  -30.0070 C   0  0  0  0  0  0  0  0  0  0  0  0
   -0.9920   24.4260  -29.1130 C   0  0  0  0  0  0  0  0  0  0  0  0
   -1.5880   25.7130  -28.9660 N   0  0  0  0  0  0  0  0  0  0  0  0
    0.0850   24.1730  -28.5100 O   0  0  0  0  0  0  0  0  0  0  0  0
   -2.8360   23.4520  -30.5510 N   0  0  0  0  0  0  0  0  0  0  0  0
   -3.8930   24.3810  -30.2630 C   0  0  0  0  0  0  0  0  0  0  0  0
   -4.8670   24.0350  -29.5430 O   0  0  0  0  0  0  0  0  0  0  0  0
   -3.8650   25.6620  -30.7990 O   0  0  0  0  0  0  0  0  0  0  0  0
   -2.9180   22.3740  -31.3640 C   0  0  0  0  0  0  0  0  0  0  0  0
   -4.0110   21.9370  -32.1210 C   0  0  0  0  0  0  0  0  0  0  0  0
   -6.4450   18.3130  -33.4640 C   0  0  0  0  0  0  0  0  0  0  0  0
   -6.0320   18.0010  -34.6130 O   0  0  0  0  0  0  0  0  0  0  0  0
   -7.3030   17.4540  -32.7870 O   0  0  0  0  0  0  0  0  0  0  0  0
   -7.3917   20.6243  -31.5139 H   0  0  0  0  0  0  0  0  0  0  0  0
   -7.0461   21.4851  -33.0522 H   0  0  0  0  0  0  0  0  0  0  0  0
   -8.1104   20.0381  -33.0522 H   0  0  0  0  0  0  0  0  0  0  0  0
   -5.5339   19.3963  -31.8472 H   0  0  0  0  0  0  0  0  0  0  0  0
   -5.4150   21.0410  -34.2150 H   0  0  0  0  0  0  0  0  0  0  0  0
   -4.6060   19.5700  -34.3630 H   0  0  0  0  0  0  0  0  0  0  0  0
   -2.5392   19.1198  -33.4456 H   0  0  0  0  0  0  0  0  0  0  0  0
   -0.6255   19.9357  -32.0324 H   0  0  0  0  0  0  0  0  0  0  0  0
    0.1369   21.9970  -30.2068 H   0  0  0  0  0  0  0  0  0  0  0  0
   -2.6240   25.8310  -28.9930 H   0  0  0  0  0  0  0  0  0  0  0  0
   -4.9550   22.5016  -32.1240 H   0  0  0  0  0  0  0  0  0  0  0  0
  1  2  1  0
  2  3  1  0
  3  4  1  0
  4  5  2  0
  5  6  1  0
  6  7  2  0
  7  8  1  0
  8  9  2  0
  9 10  1  0
 10 11  1  0
 10 12  2  0
  9 13  1  0
 13 14  1  0
 14 15  2  0
 14 16  1  0
 13 17  1  0
 17 18  2  0
  2 19  1  0
 19 20  2  0
 19 21  1  0
 18  4  1  0
 17  7  1  0
  1 22  1  0
  1 23  1  0
  1 24  1  0
  2 25  1  1
  3 26  1  0
  3 27  1  0
  5 28  1  0
  6 29  1  0
  8 30  1  0
 11 31  1  0
 18 32  1  0
M  CHG  4   3   1  11  -1  16  -1  21  -1
M  END
>  <UniqueID>  (33) 
32

>  <SMILES>  (33) 
C[C@H]([NH2+]c1ccc2cc(C([NH-])=O)n(C(=O)[O-])c2c1)C(=O)[O-]

>  <Energy>  (33) 
72.08064376213248

>  <Genealogy>  (33) 
CC([NH2+]c1ccc2cc(C([NH-])=O)n(C(=O)[O-])c2c1)C(=O)[O-] (protonated)
C[C@H]([NH2+]c1ccc2cc(C([NH-])=O)n(C(=O)[O-])c2c1)C(=O)[O-] (chirality)
C[C@H]([NH2+]c1ccc2cc(C([NH-])=O)n(C(=O)[O-])c2c1)C(=O)[O-] (3D coordinates assigned)
C[C@H]([NH2+]c1ccc2cc(C([NH-])=O)n(C(=O)[O-])c2c1)C(=O)[O-] (optimized conformer: 72.08064376213248 kcal/mol)

>  <smiles>  (33) 
CC(Nc1ccc2cc(C(N)=O)n(C(=O)O)c2c1)C(=O)O

>  <score_type>  (33) 
oracle

>  <origin>  (33) 
adg

>  <m_score__min__energy>  (33) 
-9.9199999999999999

>  <m_primary>  (33) 
energy

$$$$
33:0
     RDKit          3D

 35 36  0  0  0  0  0  0  0  0999 V2000
   -3.1130   24.5620  -30.9960 H   0  0  0  0  0  0  0  0  0  0  0  0
   -3.6320   25.2980  -30.4700 N   0  0  0  0  0  0  0  0  0  0  0  0
   -5.0580   25.3400  -30.4800 C   0  0  0  0  0  0  0  0  0  0  0  0
   -5.6450   26.3920  -30.1110 O   0  0  0  0  0  0  0  0  0  0  0  0
   -5.8500   24.1590  -30.8790 C   0  0  0  0  0  0  0  0  0  0  0  0
   -7.2410   24.1600  -30.9870 C   0  0  0  0  0  0  0  0  0  0  0  0
   -7.9204   25.0132  -30.8439 H   0  0  0  0  0  0  0  0  0  0  0  0
   -7.5830   22.8650  -31.3110 C   0  0  0  0  0  0  0  0  0  0  0  0
   -8.8300   22.3000  -31.5580 C   0  0  0  0  0  0  0  0  0  0  0  0
   -9.7489   22.9002  -31.4840 H   0  0  0  0  0  0  0  0  0  0  0  0
   -8.8800   20.9390  -31.9050 C   0  0  0  0  0  0  0  0  0  0  0  0
   -9.8507   20.4643  -32.1110 H   0  0  0  0  0  0  0  0  0  0  0  0
   -7.6900   20.1720  -31.9920 C   0  0  0  0  0  0  0  0  0  0  0  0
   -7.7540   18.7290  -32.4110 C   0  0  0  0  0  0  0  0  0  0  0  0
   -8.4862   18.6214  -33.2248 H   0  0  0  0  0  0  0  0  0  0  0  0
   -8.0548   18.1221  -31.5443 H   0  0  0  0  0  0  0  0  0  0  0  0
   -6.4110   18.2550  -32.8900 C   0  0  0  0  0  0  0  0  0  0  0  0
   -5.7436   17.7336  -32.1881 H   0  0  0  0  0  0  0  0  0  0  0  0
   -6.0070   18.4530  -34.1540 C   0  0  0  0  0  0  0  0  0  0  0  0
   -6.6701   18.9752  -34.8594 H   0  0  0  0  0  0  0  0  0  0  0  0
   -4.6680   17.9740  -34.6180 C   0  0  0  0  0  0  0  0  0  0  0  0
   -4.0369   17.7482  -33.7458 H   0  0  0  0  0  0  0  0  0  0  0  0
   -4.7938   17.0651  -35.2247 H   0  0  0  0  0  0  0  0  0  0  0  0
   -4.1887   18.7564  -35.2247 H   0  0  0  0  0  0  0  0  0  0  0  0
   -6.4410   20.7820  -31.7410 C   0  0  0  0  0  0  0  0  0  0  0  0
   -5.5059   20.2081  -31.8194 H   0  0  0  0  0  0  0  0  0  0  0  0
   -6.4260   22.1360  -31.3900 C   0  0  0  0  0  0  0  0  0  0  0  0
   -5.3560   22.9150  -31.1320 N   0  0  0  0  0  0  0  0  0  0  0  0
   -3.9830   22.5050  -31.2050 C   0  0  0  0  0  0  0  0  0  0  0  0
   -3.3750   22.5520  -32.3070 O   0  0  0  0  0  0  0  0  0  0  0  0
   -3.2340   22.1330  -29.9620 C   0  0  0  0  0  0  0  0  0  0  0  0
   -3.9130   22.1855  -29.0981 H   0  0  0  0  0  0  0  0  0  0  0  0
   -2.8437   21.1101  -30.0682 H   0  0  0  0  0  0  0  0  0  0  0  0
   -2.1630   23.0160  -29.7650 O   0  0  0  0  0  0  0  0  0  0  0  0
   -2.1900   23.6650  -30.5170 H   0  0  0  0  0  0  0  0  0  0  0  0
  1  2  1  0
  2  3  1  0
  3  4  2  0
  3  5  1  0
  5  6  2  0
  6  7  1  0
  6  8  1  0
  8  9  2  0
  9 10  1  0
  9 11  1  0
 11 12  1  0
 11 13  2  0
 13 14  1  0
 14 15  1  0
 14 16  1  0
 14 17  1  0
 17 18  1  0
 17 19  2  0
 19 20  1  0
 19 21  1  0
 21 22  1  0
 21 23  1  0
 21 24  1  0
 13 25  1  0
 25 26  1  0
 25 27  2  0
 27 28  1  0
 28 29  1  0
 29 30  2  0
 29 31  1  0
 31 32  1  0
 31 33  1  0
 31 34  1  0
 34 35  1  0
 28  5  1  0
 27  8  1  0
M  CHG  1   2  -1
M  END
>  <UniqueID>  (34) 
33

>  <SMILES>  (34) 
C/C=C/Cc1ccc2cc(C([NH-])=O)n(C(=O)CO)c2c1

>  <Energy>  (34) 
68.02822594446143

>  <Genealogy>  (34) 
C/C=C/Cc1ccc2cc(C([NH-])=O)n(C(=O)CO)c2c1 (protonated)
C/C=C/Cc1ccc2cc(C([NH-])=O)n(C(=O)CO)c2c1 (cis-trans isomerization)
C/C=C/Cc1ccc2cc(C([NH-])=O)n(C(=O)CO)c2c1 (3D coordinates assigned)
C/C=C/Cc1ccc2cc(C([NH-])=O)n(C(=O)CO)c2c1 (optimized conformer: 68.02822594446143 kcal/mol)

>  <smiles>  (34) 
C/C=C/Cc1ccc2cc(C(N)=O)n(C(=O)CO)c2c1

>  <score_type>  (34) 
oracle

>  <origin>  (34) 
adg

>  <m_score__min__energy>  (34) 
-9.5500000000000007

>  <m_primary>  (34) 
energy

$$$$
34:0
     RDKit          3D

 35 36  0  0  0  0  0  0  0  0999 V2000
   -1.8310   23.6340  -27.2410 C   0  0  0  0  0  0  0  0  0  0  0  0
   -1.3030   24.2090  -28.8400 S   0  0  0  0  0  0  0  0  0  0  0  0
   -1.5800   25.6810  -28.9500 O   0  0  0  0  0  0  0  0  0  0  0  0
    0.1690   23.9540  -28.9940 O   0  0  0  0  0  0  0  0  0  0  0  0
   -2.1880   23.3450  -30.0860 C   0  0  0  0  0  0  0  0  0  0  0  0
   -3.3200   22.7040  -29.7930 C   0  0  0  0  0  0  0  0  0  0  0  0
   -4.0930   21.9600  -30.8060 C   0  0  0  0  0  0  0  0  0  0  0  0
   -3.5340   21.0750  -31.5100 O   0  0  0  0  0  0  0  0  0  0  0  0
   -5.4790   22.2690  -31.0270 N   0  0  0  0  0  0  0  0  0  0  0  0
   -6.0930   23.4820  -30.9270 C   0  0  0  0  0  0  0  0  0  0  0  0
   -5.4640   24.7210  -30.4160 C   0  0  0  0  0  0  0  0  0  0  0  0
   -5.8410   25.2640  -29.1500 N   0  0  0  0  0  0  0  0  0  0  0  0
   -4.5650   25.2960  -31.0860 O   0  0  0  0  0  0  0  0  0  0  0  0
   -7.4370   23.3780  -31.2830 C   0  0  0  0  0  0  0  0  0  0  0  0
   -7.6290   22.0510  -31.6010 C   0  0  0  0  0  0  0  0  0  0  0  0
   -8.7740   21.3900  -32.0330 C   0  0  0  0  0  0  0  0  0  0  0  0
   -8.6760   20.0150  -32.3090 C   0  0  0  0  0  0  0  0  0  0  0  0
   -7.4460   19.3320  -32.1420 C   0  0  0  0  0  0  0  0  0  0  0  0
   -7.3420   17.8760  -32.4870 C   0  0  0  0  0  0  0  0  0  0  0  0
   -6.8080   17.7380  -33.7540 F   0  0  0  0  0  0  0  0  0  0  0  0
   -6.3000   20.0400  -31.7160 C   0  0  0  0  0  0  0  0  0  0  0  0
   -6.4320   21.4040  -31.4350 C   0  0  0  0  0  0  0  0  0  0  0  0
   -1.3095   24.2020  -26.4565 H   0  0  0  0  0  0  0  0  0  0  0  0
   -2.9165   23.7798  -27.1390 H   0  0  0  0  0  0  0  0  0  0  0  0
   -1.5934   22.5648  -27.1390 H   0  0  0  0  0  0  0  0  0  0  0  0
   -1.8054   23.3323  -31.1172 H   0  0  0  0  0  0  0  0  0  0  0  0
   -3.6913   22.7309  -28.7579 H   0  0  0  0  0  0  0  0  0  0  0  0
   -6.6210   24.8520  -28.5910 H   0  0  0  0  0  0  0  0  0  0  0  0
   -5.3640   26.1180  -28.7840 H   0  0  0  0  0  0  0  0  0  0  0  0
   -8.1852   24.1840  -31.3053 H   0  0  0  0  0  0  0  0  0  0  0  0
   -9.7266   21.9264  -32.1549 H   0  0  0  0  0  0  0  0  0  0  0  0
   -9.5622   19.4645  -32.6577 H   0  0  0  0  0  0  0  0  0  0  0  0
   -6.6902   17.3724  -31.7579 H   0  0  0  0  0  0  0  0  0  0  0  0
   -8.3433   17.4213  -32.4605 H   0  0  0  0  0  0  0  0  0  0  0  0
   -5.3301   19.5324  -31.6082 H   0  0  0  0  0  0  0  0  0  0  0  0
  1  2  1  0
  2  3  2  0
  2  4  2  0
  2  5  1  0
  5  6  2  3
  6  7  1  0
  7  8  2  0
  7  9  1  0
  9 10  1  0
 10 11  1  0
 11 12  1  0
 11 13  2  0
 10 14  2  0
 14 15  1  0
 15 16  2  0
 16 17  1  0
 17 18  2  0
 18 19  1  0
 19 20  1  0
 18 21  1  0
 21 22  2  0
 22  9  1  0
 22 15  1  0
  1 23  1  0
  1 24  1  0
  1 25  1  0
  5 26  1  0
  6 27  1  0
 12 28  1  0
 12 29  1  0
 14 30  1  0
 16 31  1  0
 17 32  1  0
 19 33  1  0
 19 34  1  0
 21 35  1  0
M  END
>  <UniqueID>  (35) 
34

>  <SMILES>  (35) 
CS(=O)(=O)C=CC(=O)n1c(C(N)=O)cc2ccc(CF)cc21

>  <Energy>  (35) 
69.48856646632275

>  <Genealogy>  (35) 
CS(=O)(=O)C=CC(=O)n1c(C(N)=O)cc2ccc(CF)cc21 (3D coordinates assigned)
CS(=O)(=O)C=CC(=O)n1c(C(N)=O)cc2ccc(CF)cc21 (optimized conformer: 69.48856646632275 kcal/mol)

>  <smiles>  (35) 
CS(=O)(=O)C=CC(=O)n1c(C(N)=O)cc2ccc(CF)cc21

>  <score_type>  (35) 
oracle

>  <origin>  (35) 
adg

>  <m_score__min__energy>  (35) 
-9.3900000000000006

>  <m_primary>  (35) 
energy

$$$$
35:0
     RDKit          3D

 46 48  0  0  0  0  0  0  0  0999 V2000
   -4.2700   23.1440  -27.6800 C   0  0  0  0  0  0  0  0  0  0  0  0
   -4.6330   23.9750  -28.6550 C   0  0  0  0  0  0  0  0  0  0  0  0
   -3.7380   24.3210  -29.7770 C   0  0  0  0  0  0  0  0  0  0  0  0
   -3.9990   25.3050  -30.5220 O   0  0  0  0  0  0  0  0  0  0  0  0
   -2.5890   23.5070  -30.0590 N   0  0  0  0  0  0  0  0  0  0  0  0
   -1.3120   23.6690  -29.6110 C   0  0  0  0  0  0  0  0  0  0  0  0
   -0.8080   24.8200  -28.8330 C   0  0  0  0  0  0  0  0  0  0  0  0
   -1.5550   26.0340  -28.7980 N   0  0  0  0  0  0  0  0  0  0  0  0
    0.2600   24.7330  -28.1720 O   0  0  0  0  0  0  0  0  0  0  0  0
   -0.5010   22.6280  -30.0620 C   0  0  0  0  0  0  0  0  0  0  0  0
   -1.3270   21.8220  -30.8140 C   0  0  0  0  0  0  0  0  0  0  0  0
   -1.0490   20.6440  -31.5000 C   0  0  0  0  0  0  0  0  0  0  0  0
   -2.1050   20.0150  -32.1820 C   0  0  0  0  0  0  0  0  0  0  0  0
   -3.4110   20.5660  -32.1610 C   0  0  0  0  0  0  0  0  0  0  0  0
   -4.4820   19.9160  -32.8690 N   0  0  0  0  0  0  0  0  0  0  0  0
   -4.5610   18.4510  -32.8800 C   0  0  0  0  0  0  0  0  0  0  0  0
   -5.8170   17.9530  -33.6150 C   0  0  0  0  0  0  0  0  0  0  0  0
   -7.0450   18.6950  -33.2390 N   0  0  0  0  0  0  0  0  0  0  0  0
   -7.9330   18.0050  -32.2780 C   0  0  0  0  0  0  0  0  0  0  0  0
   -9.2160   18.7820  -31.9360 C   0  0  0  0  0  0  0  0  0  0  0  0
   -9.7590   19.3580  -33.0910 O   0  0  0  0  0  0  0  0  0  0  0  0
   -6.9010   20.1490  -32.9850 C   0  0  0  0  0  0  0  0  0  0  0  0
   -5.5630   20.6950  -33.4780 C   0  0  0  0  0  0  0  0  0  0  0  0
   -3.6510   21.7670  -31.4580 C   0  0  0  0  0  0  0  0  0  0  0  0
   -2.5790   22.3780  -30.7990 C   0  0  0  0  0  0  0  0  0  0  0  0
   -4.9704   22.9149  -26.8633 H   0  0  0  0  0  0  0  0  0  0  0  0
   -3.2697   22.6866  -27.6912 H   0  0  0  0  0  0  0  0  0  0  0  0
   -5.6381   24.4207  -28.6233 H   0  0  0  0  0  0  0  0  0  0  0  0
   -2.5830   26.0370  -28.9810 H   0  0  0  0  0  0  0  0  0  0  0  0
    0.5704   22.4817  -29.8602 H   0  0  0  0  0  0  0  0  0  0  0  0
   -0.0348   20.2182  -31.5084 H   0  0  0  0  0  0  0  0  0  0  0  0
   -1.9159   19.0850  -32.7381 H   0  0  0  0  0  0  0  0  0  0  0  0
   -3.6701   18.0500  -33.3854 H   0  0  0  0  0  0  0  0  0  0  0  0
   -4.6139   18.1033  -31.8378 H   0  0  0  0  0  0  0  0  0  0  0  0
   -5.6571   18.0667  -34.6974 H   0  0  0  0  0  0  0  0  0  0  0  0
   -5.9689   16.9018  -33.3287 H   0  0  0  0  0  0  0  0  0  0  0  0
   -8.2216   17.0353  -32.7097 H   0  0  0  0  0  0  0  0  0  0  0  0
   -7.3661   17.9022  -31.3410 H   0  0  0  0  0  0  0  0  0  0  0  0
   -9.9508   18.0925  -31.4947 H   0  0  0  0  0  0  0  0  0  0  0  0
   -8.9702   19.5803  -31.2202 H   0  0  0  0  0  0  0  0  0  0  0  0
   -9.0710   19.2610  -33.7990 H   0  0  0  0  0  0  0  0  0  0  0  0
   -7.7124   20.6805  -33.5037 H   0  0  0  0  0  0  0  0  0  0  0  0
   -6.9478   20.3063  -31.8973 H   0  0  0  0  0  0  0  0  0  0  0  0
   -5.5094   20.6085  -34.5733 H   0  0  0  0  0  0  0  0  0  0  0  0
   -5.4649   21.7539  -33.1967 H   0  0  0  0  0  0  0  0  0  0  0  0
   -4.6568   22.2114  -31.4293 H   0  0  0  0  0  0  0  0  0  0  0  0
  1  2  2  0
  2  3  1  0
  3  4  2  0
  3  5  1  0
  5  6  1  0
  6  7  1  0
  7  8  1  0
  7  9  2  0
  6 10  2  0
 10 11  1  0
 11 12  2  0
 12 13  1  0
 13 14  2  0
 14 15  1  0
 15 16  1  0
 16 17  1  0
 17 18  1  0
 18 19  1  0
 19 20  1  0
 20 21  1  0
 18 22  1  0
 22 23  1  0
 14 24  1  0
 24 25  2  0
 25  5  1  0
 25 11  1  0
 23 15  1  0
  1 26  1  0
  1 27  1  0
  2 28  1  0
  8 29  1  0
 10 30  1  0
 12 31  1  0
 13 32  1  0
 16 33  1  0
 16 34  1  0
 17 35  1  0
 17 36  1  0
 19 37  1  0
 19 38  1  0
 20 39  1  0
 20 40  1  0
 21 41  1  0
 22 42  1  0
 22 43  1  0
 23 44  1  0
 23 45  1  0
 24 46  1  0
M  CHG  1   8  -1
M  END
>  <UniqueID>  (36) 
35

>  <SMILES>  (36) 
C=CC(=O)n1c(C([NH-])=O)cc2ccc(N3CCN(CCO)CC3)cc21

>  <Energy>  (36) 
99.27547597854598

>  <Genealogy>  (36) 
C=CC(=O)n1c(C([NH-])=O)cc2ccc(N3CCN(CCO)CC3)cc21 (protonated)
C=CC(=O)n1c(C([NH-])=O)cc2ccc(N3CCN(CCO)CC3)cc21 (3D coordinates assigned)
C=CC(=O)n1c(C([NH-])=O)cc2ccc(N3CCN(CCO)CC3)cc21 (nonaromatic ring conformer: 99.27547597854598 kcal/mol)

>  <smiles>  (36) 
C=CC(=O)n1c(C(N)=O)cc2ccc(N3CCN(CCO)CC3)cc21

>  <score_type>  (36) 
oracle

>  <origin>  (36) 
adg

>  <m_score__min__energy>  (36) 
-10.74

>  <m_primary>  (36) 
energy

$$$$
36:0
     RDKit          3D

 45 46  0  0  0  0  0  0  0  0999 V2000
   -4.3750   15.9310  -34.8570 C   0  0  0  0  0  0  0  0  0  0  0  0
   -5.4850   15.7820  -33.8040 C   0  0  0  0  0  0  0  0  0  0  0  0
   -4.9860   14.9190  -32.6390 C   0  0  0  0  0  0  0  0  0  0  0  0
   -6.6100   15.1570  -34.3710 O   0  0  0  0  0  0  0  0  0  0  0  0
   -5.8620   17.1120  -33.2870 C   0  0  0  0  0  0  0  0  0  0  0  0
   -6.1660   18.2000  -32.8660 C   0  0  0  0  0  0  0  0  0  0  0  0
   -6.5240   19.4990  -32.3630 C   0  0  0  0  0  0  0  0  0  0  0  0
   -7.8830   19.8260  -32.1540 C   0  0  0  0  0  0  0  0  0  0  0  0
   -8.2420   21.0890  -31.6520 C   0  0  0  0  0  0  0  0  0  0  0  0
   -7.2220   21.9970  -31.3800 C   0  0  0  0  0  0  0  0  0  0  0  0
   -7.2840   23.2740  -30.8700 C   0  0  0  0  0  0  0  0  0  0  0  0
   -5.9630   23.7100  -30.7990 C   0  0  0  0  0  0  0  0  0  0  0  0
   -5.5760   25.0730  -30.3820 C   0  0  0  0  0  0  0  0  0  0  0  0
   -4.3680   25.6500  -30.8740 N   0  0  0  0  0  0  0  0  0  0  0  0
   -6.2820   25.7250  -29.5690 O   0  0  0  0  0  0  0  0  0  0  0  0
   -5.1150   22.7370  -31.2410 N   0  0  0  0  0  0  0  0  0  0  0  0
   -3.6800   22.7650  -31.2790 C   0  0  0  0  0  0  0  0  0  0  0  0
   -3.0580   22.0170  -32.0820 O   0  0  0  0  0  0  0  0  0  0  0  0
   -2.9850   23.6570  -30.4470 O   0  0  0  0  0  0  0  0  0  0  0  0
   -1.9670   23.2950  -29.5040 C   0  0  0  0  0  0  0  0  0  0  0  0
   -2.6680   22.7800  -28.2400 C   0  0  0  0  0  0  0  0  0  0  0  0
   -1.0890   22.1700  -30.0870 C   0  0  0  0  0  0  0  0  0  0  0  0
   -1.1350   24.5020  -29.1300 C   0  0  0  0  0  0  0  0  0  0  0  0
   -1.5870   25.6630  -29.3160 O   0  0  0  0  0  0  0  0  0  0  0  0
    0.0970   24.3470  -28.5040 O   0  0  0  0  0  0  0  0  0  0  0  0
   -5.9010   21.6970  -31.5960 C   0  0  0  0  0  0  0  0  0  0  0  0
   -5.5150   20.4390  -32.0770 C   0  0  0  0  0  0  0  0  0  0  0  0
   -3.4062   16.0611  -34.3526 H   0  0  0  0  0  0  0  0  0  0  0  0
   -4.3428   15.0291  -35.4860 H   0  0  0  0  0  0  0  0  0  0  0  0
   -4.5818   16.8094  -35.4860 H   0  0  0  0  0  0  0  0  0  0  0  0
   -5.2611   15.3948  -31.6861 H   0  0  0  0  0  0  0  0  0  0  0  0
   -5.4470   13.9220  -32.6975 H   0  0  0  0  0  0  0  0  0  0  0  0
   -3.8919   14.8211  -32.6975 H   0  0  0  0  0  0  0  0  0  0  0  0
   -6.2980   14.3650  -34.8850 H   0  0  0  0  0  0  0  0  0  0  0  0
   -8.6647   19.0876  -32.3856 H   0  0  0  0  0  0  0  0  0  0  0  0
   -9.2961   21.3519  -31.4794 H   0  0  0  0  0  0  0  0  0  0  0  0
   -8.1863   23.8323  -30.5798 H   0  0  0  0  0  0  0  0  0  0  0  0
   -3.5030   25.6640  -30.2910 H   0  0  0  0  0  0  0  0  0  0  0  0
   -2.1470   23.1628  -27.3500 H   0  0  0  0  0  0  0  0  0  0  0  0
   -3.7115   23.1278  -28.2319 H   0  0  0  0  0  0  0  0  0  0  0  0
   -2.6480   21.6802  -28.2319 H   0  0  0  0  0  0  0  0  0  0  0  0
   -0.6389   21.5932  -29.2656 H   0  0  0  0  0  0  0  0  0  0  0  0
   -1.7089   21.5044  -30.7057 H   0  0  0  0  0  0  0  0  0  0  0  0
   -0.2928   22.6096  -30.7057 H   0  0  0  0  0  0  0  0  0  0  0  0
   -4.4536   20.1924  -32.2271 H   0  0  0  0  0  0  0  0  0  0  0  0
  1  2  1  0
  2  3  1  0
  2  4  1  0
  2  5  1  0
  5  6  3  0
  6  7  1  0
  7  8  2  0
  8  9  1  0
  9 10  2  0
 10 11  1  0
 11 12  2  0
 12 13  1  0
 13 14  1  0
 13 15  2  0
 12 16  1  0
 16 17  1  0
 17 18  2  0
 17 19  1  0
 19 20  1  0
 20 21  1  0
 20 22  1  0
 20 23  1  0
 23 24  2  0
 23 25  1  0
 16 26  1  0
 26 27  2  0
 27  7  1  0
 26 10  1  0
  1 28  1  0
  1 29  1  0
  1 30  1  0
  3 31  1  0
  3 32  1  0
  3 33  1  0
  4 34  1  0
  8 35  1  0
  9 36  1  0
 11 37  1  0
 14 38  1  0
 21 39  1  0
 21 40  1  0
 21 41  1  0
 22 42  1  0
 22 43  1  0
 22 44  1  0
 27 45  1  0
M  CHG  2  14  -1  25  -1
M  END
>  <UniqueID>  (37) 
36

>  <SMILES>  (37) 
CC(C)(O)C#Cc1ccc2cc(C([NH-])=O)n(C(=O)OC(C)(C)C(=O)[O-])c2c1

>  <Energy>  (37) 
72.85508202567986

>  <Genealogy>  (37) 
CC(C)(O)C#Cc1ccc2cc(C([NH-])=O)n(C(=O)OC(C)(C)C(=O)[O-])c2c1 (protonated)
CC(C)(O)C#Cc1ccc2cc(C([NH-])=O)n(C(=O)OC(C)(C)C(=O)[O-])c2c1 (3D coordinates assigned)
CC(C)(O)C#Cc1ccc2cc(C([NH-])=O)n(C(=O)OC(C)(C)C(=O)[O-])c2c1 (optimized conformer: 72.85508202567986 kcal/mol)

>  <smiles>  (37) 
CC(C)(O)C#Cc1ccc2cc(C(N)=O)n(C(=O)OC(C)(C)C(=O)O)c2c1

>  <score_type>  (37) 
oracle

>  <origin>  (37) 
adg

>  <m_score__min__energy>  (37) 
-13.42

>  <m_primary>  (37) 
energy

$$$$
37:0
     RDKit          3D

 47 49  0  0  0  0  0  0  0  0999 V2000
   -2.8770   21.2160  -33.3890 C   0  0  0  0  0  0  0  0  0  0  0  0
   -3.4570   21.2530  -32.1910 C   0  0  0  0  0  0  0  0  0  0  0  0
   -4.0380   22.4840  -31.6230 C   0  0  0  0  0  0  0  0  0  0  0  0
   -3.2640   23.3840  -31.2060 O   0  0  0  0  0  0  0  0  0  0  0  0
   -5.4590   22.6840  -31.5480 N   0  0  0  0  0  0  0  0  0  0  0  0
   -6.1160   23.6950  -30.9160 C   0  0  0  0  0  0  0  0  0  0  0  0
   -5.4870   24.8890  -30.3140 C   0  0  0  0  0  0  0  0  0  0  0  0
   -5.7890   25.2970  -28.9790 N   0  0  0  0  0  0  0  0  0  0  0  0
   -4.6340   25.5380  -30.9770 O   0  0  0  0  0  0  0  0  0  0  0  0
   -7.4880   23.4570  -30.9060 C   0  0  0  0  0  0  0  0  0  0  0  0
   -7.6530   22.2540  -31.5550 C   0  0  0  0  0  0  0  0  0  0  0  0
   -8.8080   21.5210  -31.8050 C   0  0  0  0  0  0  0  0  0  0  0  0
   -8.6760   20.2790  -32.4490 C   0  0  0  0  0  0  0  0  0  0  0  0
   -7.3950   19.7840  -32.8170 C   0  0  0  0  0  0  0  0  0  0  0  0
   -7.2290   18.5050  -33.4590 N   0  0  0  0  0  0  0  0  0  0  0  0
   -7.1170   17.2270  -32.7550 C   0  0  0  0  0  0  0  0  0  0  0  0
   -5.7980   17.1260  -31.9810 C   0  0  0  0  0  0  0  0  0  0  0  0
   -4.6790   16.8600  -32.9130 N   0  0  0  0  0  0  0  0  0  0  0  0
   -5.0940   16.0080  -34.0420 C   0  0  0  0  0  0  0  0  0  0  0  0
   -3.8810   15.6940  -34.9420 C   0  0  0  0  0  0  0  0  0  0  0  0
   -2.7410   16.4630  -34.6000 O   0  0  0  0  0  0  0  0  0  0  0  0
   -3.0840   17.8330  -34.5580 C   0  0  0  0  0  0  0  0  0  0  0  0
   -4.0920   18.1150  -33.4260 C   0  0  0  0  0  0  0  0  0  0  0  0
   -6.2490   20.5630  -32.5450 C   0  0  0  0  0  0  0  0  0  0  0  0
   -6.4130   21.8050  -31.9250 C   0  0  0  0  0  0  0  0  0  0  0  0
   -2.4583   20.2722  -33.7684 H   0  0  0  0  0  0  0  0  0  0  0  0
   -2.8166   22.1292  -33.9993 H   0  0  0  0  0  0  0  0  0  0  0  0
   -3.5049   20.3265  -31.6000 H   0  0  0  0  0  0  0  0  0  0  0  0
   -6.3310   24.6820  -28.3340 H   0  0  0  0  0  0  0  0  0  0  0  0
   -5.3780   26.1770  -28.5960 H   0  0  0  0  0  0  0  0  0  0  0  0
   -8.2726   24.0942  -30.4721 H   0  0  0  0  0  0  0  0  0  0  0  0
   -9.7960   21.9022  -31.5074 H   0  0  0  0  0  0  0  0  0  0  0  0
   -9.5737   19.6832  -32.6708 H   0  0  0  0  0  0  0  0  0  0  0  0
   -7.1740   18.4770  -34.5030 H   0  0  0  0  0  0  0  0  0  0  0  0
   -7.9544   17.1338  -32.0479 H   0  0  0  0  0  0  0  0  0  0  0  0
   -7.1424   16.4187  -33.5007 H   0  0  0  0  0  0  0  0  0  0  0  0
   -5.6134   18.0726  -31.4520 H   0  0  0  0  0  0  0  0  0  0  0  0
   -5.8678   16.3000  -31.2580 H   0  0  0  0  0  0  0  0  0  0  0  0
   -5.5123   15.0676  -33.6538 H   0  0  0  0  0  0  0  0  0  0  0  0
   -5.8540   16.5391  -34.6339 H   0  0  0  0  0  0  0  0  0  0  0  0
   -3.6315   14.6276  -34.8392 H   0  0  0  0  0  0  0  0  0  0  0  0
   -4.1571   15.9455  -35.9767 H   0  0  0  0  0  0  0  0  0  0  0  0
   -2.1741   18.4266  -34.3858 H   0  0  0  0  0  0  0  0  0  0  0  0
   -3.5474   18.1081  -35.5169 H   0  0  0  0  0  0  0  0  0  0  0  0
   -3.5745   18.6319  -32.6044 H   0  0  0  0  0  0  0  0  0  0  0  0
   -4.9021   18.7418  -33.8271 H   0  0  0  0  0  0  0  0  0  0  0  0
   -5.2467   20.1995  -32.8158 H   0  0  0  0  0  0  0  0  0  0  0  0
  1  2  2  0
  2  3  1  0
  3  4  2  0
  3  5  1  0
  5  6  1  0
  6  7  1  0
  7  8  1  0
  7  9  2  0
  6 10  2  0
 10 11  1  0
 11 12  2  0
 12 13  1  0
 13 14  2  0
 14 15  1  0
 15 16  1  0
 16 17  1  0
 17 18  1  0
 18 19  1  0
 19 20  1  0
 20 21  1  0
 21 22  1  0
 22 23  1  0
 14 24  1  0
 24 25  2  0
 25  5  1  0
 25 11  1  0
 23 18  1  0
  1 26  1  0
  1 27  1  0
  2 28  1  0
  8 29  1  0
  8 30  1  0
 10 31  1  0
 12 32  1  0
 13 33  1  0
 15 34  1  0
 16 35  1  0
 16 36  1  0
 17 37  1  0
 17 38  1  0
 19 39  1  0
 19 40  1  0
 20 41  1  0
 20 42  1  0
 22 43  1  0
 22 44  1  0
 23 45  1  0
 23 46  1  0
 24 47  1  0
M  END
>  <UniqueID>  (38) 
37

>  <SMILES>  (38) 
C=CC(=O)n1c(C(N)=O)cc2ccc(NCCN3CCOCC3)cc21

>  <Energy>  (38) 
95.68653306009165

>  <Genealogy>  (38) 
C=CC(=O)n1c(C(N)=O)cc2ccc(NCCN3CCOCC3)cc21 (3D coordinates assigned)
C=CC(=O)n1c(C(N)=O)cc2ccc(NCCN3CCOCC3)cc21 (nonaromatic ring conformer: 95.68653306009165 kcal/mol)

>  <smiles>  (38) 
C=CC(=O)n1c(C(N)=O)cc2ccc(NCCN3CCOCC3)cc21

>  <score_type>  (38) 
oracle

>  <origin>  (38) 
adg

>  <m_score__min__energy>  (38) 
-9.0500000000000007

>  <m_primary>  (38) 
energy

$$$$
38:0
     RDKit          3D

 40 41  0  0  0  0  0  0  0  0999 V2000
   -5.7800   18.0550  -34.7600 C   0  0  0  0  0  0  0  0  0  0  0  0
   -6.2870   17.2700  -33.5410 C   0  0  1  0  0  0  0  0  0  0  0  0
   -5.7210   15.8420  -33.4600 C   0  0  0  0  0  0  0  0  0  0  0  0
   -4.9770   15.6940  -32.2820 O   0  0  0  0  0  0  0  0  0  0  0  0
   -6.0940   18.0190  -32.2880 N   0  0  0  0  0  0  0  0  0  0  0  0
   -6.3590   19.4190  -32.0400 C   0  0  0  0  0  0  0  0  0  0  0  0
   -7.6970   19.8820  -32.1410 C   0  0  0  0  0  0  0  0  0  0  0  0
   -8.0180   21.2310  -31.9130 C   0  0  0  0  0  0  0  0  0  0  0  0
   -6.9850   22.0970  -31.5760 C   0  0  0  0  0  0  0  0  0  0  0  0
   -7.0120   23.4470  -31.3060 C   0  0  0  0  0  0  0  0  0  0  0  0
   -5.6920   23.7930  -31.0200 C   0  0  0  0  0  0  0  0  0  0  0  0
   -5.2860   25.1430  -30.5760 C   0  0  0  0  0  0  0  0  0  0  0  0
   -4.0050   25.6730  -30.9090 N   0  0  0  0  0  0  0  0  0  0  0  0
   -6.0620   25.8210  -29.8520 O   0  0  0  0  0  0  0  0  0  0  0  0
   -4.8800   22.7020  -31.1250 N   0  0  0  0  0  0  0  0  0  0  0  0
   -3.4550   22.6350  -30.9600 C   0  0  0  0  0  0  0  0  0  0  0  0
   -2.7770   21.8170  -31.6400 O   0  0  0  0  0  0  0  0  0  0  0  0
   -2.8350   23.4530  -30.0110 O   0  0  0  0  0  0  0  0  0  0  0  0
   -1.5390   23.1870  -29.4870 C   0  0  0  0  0  0  0  0  0  0  0  0
   -0.9520   24.4610  -28.9810 C   0  0  0  0  0  0  0  0  0  0  0  0
   -1.7380   25.6510  -28.9680 N   0  0  0  0  0  0  0  0  0  0  0  0
    0.2540   24.5010  -28.6180 O   0  0  0  0  0  0  0  0  0  0  0  0
   -5.6890   21.6730  -31.4630 C   0  0  0  0  0  0  0  0  0  0  0  0
   -5.3360   20.3440  -31.7210 C   0  0  0  0  0  0  0  0  0  0  0  0
   -5.2124   18.9338  -34.4200 H   0  0  0  0  0  0  0  0  0  0  0  0
   -5.1278   17.4094  -35.3665 H   0  0  0  0  0  0  0  0  0  0  0  0
   -6.6367   18.3840  -35.3665 H   0  0  0  0  0  0  0  0  0  0  0  0
   -7.3710   17.1505  -33.6848 H   0  0  0  0  0  0  0  0  0  0  0  0
   -6.5504   15.1195  -33.4616 H   0  0  0  0  0  0  0  0  0  0  0  0
   -5.0695   15.6591  -34.3272 H   0  0  0  0  0  0  0  0  0  0  0  0
   -5.5810   15.2530  -31.6280 H   0  0  0  0  0  0  0  0  0  0  0  0
   -5.6110   17.4940  -31.5240 H   0  0  0  0  0  0  0  0  0  0  0  0
   -8.4962   19.1728  -32.4022 H   0  0  0  0  0  0  0  0  0  0  0  0
   -9.0542   21.5900  -31.9986 H   0  0  0  0  0  0  0  0  0  0  0  0
   -7.8887   24.1113  -31.3142 H   0  0  0  0  0  0  0  0  0  0  0  0
   -3.1310   25.2390  -30.5380 H   0  0  0  0  0  0  0  0  0  0  0  0
   -1.6155   22.4626  -28.6627 H   0  0  0  0  0  0  0  0  0  0  0  0
   -0.8968   22.7680  -30.2757 H   0  0  0  0  0  0  0  0  0  0  0  0
   -2.7130   25.6550  -29.3420 H   0  0  0  0  0  0  0  0  0  0  0  0
   -4.2844   20.0242  -31.6768 H   0  0  0  0  0  0  0  0  0  0  0  0
  1  2  1  0
  2  3  1  0
  3  4  1  0
  2  5  1  0
  5  6  1  0
  6  7  2  0
  7  8  1  0
  8  9  2  0
  9 10  1  0
 10 11  2  0
 11 12  1  0
 12 13  1  0
 12 14  2  0
 11 15  1  0
 15 16  1  0
 16 17  2  0
 16 18  1  0
 18 19  1  0
 19 20  1  0
 20 21  1  0
 20 22  2  0
 15 23  1  0
 23 24  2  0
 24  6  1  0
 23  9  1  0
  1 25  1  0
  1 26  1  0
  1 27  1  0
  2 28  1  6
  3 29  1  0
  3 30  1  0
  4 31  1  0
  5 32  1  0
  7 33  1  0
  8 34  1  0
 10 35  1  0
 13 36  1  0
 19 37  1  0
 19 38  1  0
 21 39  1  0
 24 40  1  0
M  CHG  2  13  -1  21  -1
M  END
>  <UniqueID>  (39) 
38

>  <SMILES>  (39) 
C[C@@H](CO)Nc1ccc2cc(C([NH-])=O)n(C(=O)OCC([NH-])=O)c2c1

>  <Energy>  (39) 
74.57850826629493

>  <Genealogy>  (39) 
CC(CO)Nc1ccc2cc(C([NH-])=O)n(C(=O)OCC([NH-])=O)c2c1 (protonated)
C[C@@H](CO)Nc1ccc2cc(C([NH-])=O)n(C(=O)OCC([NH-])=O)c2c1 (chirality)
C[C@@H](CO)Nc1ccc2cc(C([NH-])=O)n(C(=O)OCC([NH-])=O)c2c1 (3D coordinates assigned)
C[C@@H](CO)Nc1ccc2cc(C([NH-])=O)n(C(=O)OCC([NH-])=O)c2c1 (optimized conformer: 74.57850826629493 kcal/mol)

>  <smiles>  (39) 
CC(CO)Nc1ccc2cc(C(N)=O)n(C(=O)OCC(N)=O)c2c1

>  <score_type>  (39) 
oracle

>  <origin>  (39) 
adg

>  <m_score__min__energy>  (39) 
-12.01

>  <m_primary>  (39) 
energy

$$$$
39:0
     RDKit          3D

 33 34  0  0  0  0  0  0  0  0999 V2000
   -3.0850   23.4480  -27.4240 C   0  0  0  0  0  0  0  0  0  0  0  0
   -2.8700   23.4200  -28.9090 C   0  0  0  0  0  0  0  0  0  0  0  0
   -2.3570   24.3800  -29.4640 O   0  0  0  0  0  0  0  0  0  0  0  0
   -3.2520   22.2070  -29.7100 C   0  0  0  0  0  0  0  0  0  0  0  0
   -3.9320   22.6050  -30.9910 C   0  0  0  0  0  0  0  0  0  0  0  0
   -3.2400   22.8250  -32.0210 O   0  0  0  0  0  0  0  0  0  0  0  0
   -5.3610   22.7440  -31.0540 N   0  0  0  0  0  0  0  0  0  0  0  0
   -6.0840   23.8900  -30.9100 C   0  0  0  0  0  0  0  0  0  0  0  0
   -5.5450   25.2110  -30.5280 C   0  0  0  0  0  0  0  0  0  0  0  0
   -4.2060   25.5920  -30.8490 N   0  0  0  0  0  0  0  0  0  0  0  0
   -6.2680   26.0040  -29.8670 O   0  0  0  0  0  0  0  0  0  0  0  0
   -7.4280   23.6600  -31.1910 C   0  0  0  0  0  0  0  0  0  0  0  0
   -7.5100   22.3260  -31.5140 C   0  0  0  0  0  0  0  0  0  0  0  0
   -8.6040   21.5730  -31.9270 C   0  0  0  0  0  0  0  0  0  0  0  0
   -8.3880   20.2260  -32.2660 C   0  0  0  0  0  0  0  0  0  0  0  0
   -7.0890   19.6580  -32.1880 C   0  0  0  0  0  0  0  0  0  0  0  0
   -6.8450   18.2380  -32.6340 C   0  0  0  0  0  0  0  0  0  0  0  0
   -6.4900   18.2390  -33.9710 F   0  0  0  0  0  0  0  0  0  0  0  0
   -7.9800   17.4650  -32.4690 F   0  0  0  0  0  0  0  0  0  0  0  0
   -5.8220   17.6710  -31.8940 F   0  0  0  0  0  0  0  0  0  0  0  0
   -5.9990   20.4650  -31.7930 C   0  0  0  0  0  0  0  0  0  0  0  0
   -6.2490   21.7950  -31.4290 C   0  0  0  0  0  0  0  0  0  0  0  0
   -2.1199   23.3223  -26.9114 H   0  0  0  0  0  0  0  0  0  0  0  0
   -3.5304   24.4117  -27.1361 H   0  0  0  0  0  0  0  0  0  0  0  0
   -3.7623   22.6305  -27.1361 H   0  0  0  0  0  0  0  0  0  0  0  0
   -2.3452   21.6311  -29.9469 H   0  0  0  0  0  0  0  0  0  0  0  0
   -3.9486   21.5973  -29.1158 H   0  0  0  0  0  0  0  0  0  0  0  0
   -3.8690   26.5540  -30.6210 H   0  0  0  0  0  0  0  0  0  0  0  0
   -3.5200   24.9000  -31.2180 H   0  0  0  0  0  0  0  0  0  0  0  0
   -8.2499   24.3905  -31.1610 H   0  0  0  0  0  0  0  0  0  0  0  0
   -9.6081   22.0182  -31.9866 H   0  0  0  0  0  0  0  0  0  0  0  0
   -9.2344   19.6053  -32.5952 H   0  0  0  0  0  0  0  0  0  0  0  0
   -4.9770   20.0586  -31.7716 H   0  0  0  0  0  0  0  0  0  0  0  0
  1  2  1  0
  2  3  2  0
  2  4  1  0
  4  5  1  0
  5  6  2  0
  5  7  1  0
  7  8  1  0
  8  9  1  0
  9 10  1  0
  9 11  2  0
  8 12  2  0
 12 13  1  0
 13 14  2  0
 14 15  1  0
 15 16  2  0
 16 17  1  0
 17 18  1  0
 17 19  1  0
 17 20  1  0
 16 21  1  0
 21 22  2  0
 22  7  1  0
 22 13  1  0
  1 23  1  0
  1 24  1  0
  1 25  1  0
  4 26  1  0
  4 27  1  0
 10 28  1  0
 10 29  1  0
 12 30  1  0
 14 31  1  0
 15 32  1  0
 21 33  1  0
M  END
>  <UniqueID>  (40) 
39

>  <SMILES>  (40) 
CC(=O)CC(=O)n1c(C(N)=O)cc2ccc(C(F)(F)F)cc21

>  <Energy>  (40) 
70.47735550355308

>  <Genealogy>  (40) 
CC(=O)CC(=O)n1c(C(N)=O)cc2ccc(C(F)(F)F)cc21 (3D coordinates assigned)
CC(=O)CC(=O)n1c(C(N)=O)cc2ccc(C(F)(F)F)cc21 (optimized conformer: 70.47735550355308 kcal/mol)

>  <smiles>  (40) 
CC(=O)CC(=O)n1c(C(N)=O)cc2ccc(C(F)(F)F)cc21

>  <score_type>  (40) 
oracle

>  <origin>  (40) 
adg

>  <m_score__min__energy>  (40) 
-8.0800000000000001

>  <m_primary>  (40) 
energy

$$$$
40:0
     RDKit          3D

 33 35  0  0  0  0  0  0  0  0999 V2000
   -8.8470   18.9380  -32.3010 C   0  0  0  0  0  0  0  0  0  0  0  0
   -8.9560   20.4190  -32.1240 C   0  0  0  0  0  0  0  0  0  0  0  0
  -10.1330   21.0620  -32.0170 N   0  0  0  0  0  0  0  0  0  0  0  0
   -9.8680   22.3320  -31.9060 O   0  0  0  0  0  0  0  0  0  0  0  0
   -8.5750   22.5570  -31.9330 C   0  0  0  0  0  0  0  0  0  0  0  0
   -7.9250   21.3450  -32.0610 C   0  0  0  0  0  0  0  0  0  0  0  0
   -6.4610   21.1340  -32.1380 C   0  0  0  0  0  0  0  0  0  0  0  0
   -5.9350   20.1770  -33.0420 C   0  0  0  0  0  0  0  0  0  0  0  0
   -4.5510   19.9520  -33.1270 C   0  0  0  0  0  0  0  0  0  0  0  0
   -3.7150   20.7130  -32.3160 C   0  0  0  0  0  0  0  0  0  0  0  0
   -2.3480   20.6700  -32.1630 C   0  0  0  0  0  0  0  0  0  0  0  0
   -2.0550   21.6340  -31.2020 C   0  0  0  0  0  0  0  0  0  0  0  0
   -0.6860   21.9280  -30.7290 C   0  0  0  0  0  0  0  0  0  0  0  0
   -0.4560   22.7220  -29.5640 N   0  0  0  0  0  0  0  0  0  0  0  0
    0.3000   21.5060  -31.3910 O   0  0  0  0  0  0  0  0  0  0  0  0
   -3.1930   22.2500  -30.7780 N   0  0  0  0  0  0  0  0  0  0  0  0
   -3.3210   23.1900  -29.6990 C   0  0  0  0  0  0  0  0  0  0  0  0
   -3.5950   22.7760  -28.5420 O   0  0  0  0  0  0  0  0  0  0  0  0
   -3.1060   24.6280  -29.9180 C   0  0  0  0  0  0  0  0  0  0  0  0
   -3.9010   25.2900  -30.6380 O   0  0  0  0  0  0  0  0  0  0  0  0
   -2.0090   25.2630  -29.3500 O   0  0  0  0  0  0  0  0  0  0  0  0
   -4.2030   21.6690  -31.4620 C   0  0  0  0  0  0  0  0  0  0  0  0
   -5.5780   21.8940  -31.3370 C   0  0  0  0  0  0  0  0  0  0  0  0
   -8.8113   18.4525  -31.3146 H   0  0  0  0  0  0  0  0  0  0  0  0
   -9.7205   18.5702  -32.8593 H   0  0  0  0  0  0  0  0  0  0  0  0
   -7.9291   18.7020  -32.8593 H   0  0  0  0  0  0  0  0  0  0  0  0
   -8.0916   23.5427  -31.8652 H   0  0  0  0  0  0  0  0  0  0  0  0
   -6.6191   19.6035  -33.6848 H   0  0  0  0  0  0  0  0  0  0  0  0
   -4.1407   19.1971  -33.8139 H   0  0  0  0  0  0  0  0  0  0  0  0
   -1.6381   20.0139  -32.6880 H   0  0  0  0  0  0  0  0  0  0  0  0
   -1.2300   23.2490  -29.1050 H   0  0  0  0  0  0  0  0  0  0  0  0
    0.5180   22.8680  -29.2160 H   0  0  0  0  0  0  0  0  0  0  0  0
   -5.9634   22.6450  -30.6317 H   0  0  0  0  0  0  0  0  0  0  0  0
  1  2  1  0
  2  3  2  0
  3  4  1  0
  4  5  1  0
  5  6  2  0
  6  7  1  0
  7  8  2  0
  8  9  1  0
  9 10  2  0
 10 11  1  0
 11 12  2  0
 12 13  1  0
 13 14  1  0
 13 15  2  0
 12 16  1  0
 16 17  1  0
 17 18  2  0
 17 19  1  0
 19 20  2  0
 19 21  1  0
 16 22  1  0
 22 23  2  0
  6  2  1  0
 23  7  1  0
 22 10  1  0
  1 24  1  0
  1 25  1  0
  1 26  1  0
  5 27  1  0
  8 28  1  0
  9 29  1  0
 11 30  1  0
 14 31  1  0
 14 32  1  0
 23 33  1  0
M  CHG  1  21  -1
M  END
>  <UniqueID>  (41) 
40

>  <SMILES>  (41) 
Cc1nocc1-c1ccc2cc(C(N)=O)n(C(=O)C(=O)[O-])c2c1

>  <Energy>  (41) 
109.33631865254637

>  <Genealogy>  (41) 
Cc1nocc1-c1ccc2cc(C(N)=O)n(C(=O)C(=O)[O-])c2c1 (protonated)
Cc1nocc1-c1ccc2cc(C(N)=O)n(C(=O)C(=O)[O-])c2c1 (3D coordinates assigned)
Cc1nocc1-c1ccc2cc(C(N)=O)n(C(=O)C(=O)[O-])c2c1 (optimized conformer: 109.33631865254637 kcal/mol)

>  <smiles>  (41) 
Cc1nocc1-c1ccc2cc(C(N)=O)n(C(=O)C(=O)O)c2c1

>  <score_type>  (41) 
oracle

>  <origin>  (41) 
adg

>  <m_score__min__energy>  (41) 
-9.8900000000000006

>  <m_primary>  (41) 
energy

$$$$
41:0
     RDKit          3D

 41 42  0  0  0  0  0  0  0  0999 V2000
   -4.0170   25.6640  -30.8630 N   0  0  0  0  0  0  0  0  0  0  0  0
   -5.3030   25.2020  -30.4590 C   0  0  0  0  0  0  0  0  0  0  0  0
   -5.9720   25.8780  -29.6330 O   0  0  0  0  0  0  0  0  0  0  0  0
   -5.8350   23.9170  -30.9560 C   0  0  0  0  0  0  0  0  0  0  0  0
   -7.1800   23.7000  -31.2490 C   0  0  0  0  0  0  0  0  0  0  0  0
   -7.2740   22.3630  -31.5640 C   0  0  0  0  0  0  0  0  0  0  0  0
   -8.3780   21.6040  -31.9420 C   0  0  0  0  0  0  0  0  0  0  0  0
   -8.1760   20.2430  -32.2270 C   0  0  0  0  0  0  0  0  0  0  0  0
   -6.8840   19.6670  -32.1230 C   0  0  0  0  0  0  0  0  0  0  0  0
   -6.6720   18.2140  -32.4460 C   0  0  0  0  0  0  0  0  0  0  0  0
   -5.9550   18.0650  -33.7500 C   0  0  0  0  0  0  0  0  0  0  0  0
   -6.1080   18.9340  -34.6510 O   0  0  0  0  0  0  0  0  0  0  0  0
   -5.1240   16.9580  -33.9550 O   0  0  0  0  0  0  0  0  0  0  0  0
   -5.3110   15.7040  -33.2990 C   0  0  0  0  0  0  0  0  0  0  0  0
   -6.0550   14.7280  -34.2030 C   0  0  0  0  0  0  0  0  0  0  0  0
   -7.2740   15.2660  -34.5750 F   0  0  0  0  0  0  0  0  0  0  0  0
   -5.7850   20.4720  -31.7450 C   0  0  0  0  0  0  0  0  0  0  0  0
   -6.0190   21.8210  -31.4610 C   0  0  0  0  0  0  0  0  0  0  0  0
   -5.1250   22.7640  -31.1020 N   0  0  0  0  0  0  0  0  0  0  0  0
   -3.7040   22.5790  -31.0040 C   0  0  0  0  0  0  0  0  0  0  0  0
   -3.0600   22.1630  -32.0040 O   0  0  0  0  0  0  0  0  0  0  0  0
   -2.9580   22.9920  -29.7650 C   0  0  0  0  0  0  0  0  0  0  0  0
   -1.4870   23.2940  -30.0730 C   0  0  0  0  0  0  0  0  0  0  0  0
   -0.9880   24.4690  -29.2890 C   0  0  0  0  0  0  0  0  0  0  0  0
   -1.6230   25.5560  -29.2970 O   0  0  0  0  0  0  0  0  0  0  0  0
    0.1730   24.3580  -28.5360 O   0  0  0  0  0  0  0  0  0  0  0  0
   -3.1490   25.2800  -30.4290 H   0  0  0  0  0  0  0  0  0  0  0  0
   -7.9938   24.4399  -31.2322 H   0  0  0  0  0  0  0  0  0  0  0  0
   -9.3782   22.0560  -32.0154 H   0  0  0  0  0  0  0  0  0  0  0  0
   -9.0279   19.6183  -32.5337 H   0  0  0  0  0  0  0  0  0  0  0  0
   -6.0729   17.7499  -31.6487 H   0  0  0  0  0  0  0  0  0  0  0  0
   -7.6521   17.7202  -32.5212 H   0  0  0  0  0  0  0  0  0  0  0  0
   -4.3286   15.2810  -33.0421 H   0  0  0  0  0  0  0  0  0  0  0  0
   -5.9066   15.8668  -32.3887 H   0  0  0  0  0  0  0  0  0  0  0  0
   -5.4528   14.5327  -35.1026 H   0  0  0  0  0  0  0  0  0  0  0  0
   -6.2254   13.7878  -33.6580 H   0  0  0  0  0  0  0  0  0  0  0  0
   -4.7723   20.0482  -31.6761 H   0  0  0  0  0  0  0  0  0  0  0  0
   -3.4289   23.8943  -29.3476 H   0  0  0  0  0  0  0  0  0  0  0  0
   -2.9977   22.1622  -29.0440 H   0  0  0  0  0  0  0  0  0  0  0  0
   -0.8809   22.4120  -29.8186 H   0  0  0  0  0  0  0  0  0  0  0  0
   -1.4024   23.5342  -31.1431 H   0  0  0  0  0  0  0  0  0  0  0  0
  1  2  1  0
  2  3  2  0
  2  4  1  0
  4  5  2  0
  5  6  1  0
  6  7  2  0
  7  8  1  0
  8  9  2  0
  9 10  1  0
 10 11  1  0
 11 12  2  0
 11 13  1  0
 13 14  1  0
 14 15  1  0
 15 16  1  0
  9 17  1  0
 17 18  2  0
 18 19  1  0
 19 20  1  0
 20 21  2  0
 20 22  1  0
 22 23  1  0
 23 24  1  0
 24 25  2  0
 24 26  1  0
 19  4  1  0
 18  6  1  0
  1 27  1  0
  5 28  1  0
  7 29  1  0
  8 30  1  0
 10 31  1  0
 10 32  1  0
 14 33  1  0
 14 34  1  0
 15 35  1  0
 15 36  1  0
 17 37  1  0
 22 38  1  0
 22 39  1  0
 23 40  1  0
 23 41  1  0
M  CHG  2   1  -1  26  -1
M  END
>  <UniqueID>  (42) 
41

>  <SMILES>  (42) 
[NH-]C(=O)c1cc2ccc(CC(=O)OCCF)cc2n1C(=O)CCC(=O)[O-]

>  <Energy>  (42) 
69.98257256735081

>  <Genealogy>  (42) 
[NH-]C(=O)c1cc2ccc(CC(=O)OCCF)cc2n1C(=O)CCC(=O)[O-] (protonated)
[NH-]C(=O)c1cc2ccc(CC(=O)OCCF)cc2n1C(=O)CCC(=O)[O-] (3D coordinates assigned)
[NH-]C(=O)c1cc2ccc(CC(=O)OCCF)cc2n1C(=O)CCC(=O)[O-] (optimized conformer: 69.98257256735081 kcal/mol)

>  <smiles>  (42) 
NC(=O)c1cc2ccc(CC(=O)OCCF)cc2n1C(=O)CCC(=O)O

>  <score_type>  (42) 
oracle

>  <origin>  (42) 
adg

>  <m_score__min__energy>  (42) 
-11.84

>  <m_primary>  (42) 
energy

$$$$
42:0
     RDKit          3D

 39 40  0  0  0  0  0  0  0  0999 V2000
   -2.1250   24.4030  -29.6160 H   0  0  0  0  0  0  0  0  0  0  0  0
   -2.3160   25.2800  -29.1920 O   0  0  0  0  0  0  0  0  0  0  0  0
   -2.1510   25.1030  -27.8100 C   0  0  0  0  0  0  0  0  0  0  0  0
   -3.1396   25.0197  -27.3349 H   0  0  0  0  0  0  0  0  0  0  0  0
   -1.6068   25.9678  -27.4025 H   0  0  0  0  0  0  0  0  0  0  0  0
   -1.3470   23.8330  -27.5260 C   0  0  0  0  0  0  0  0  0  0  0  0
   -1.4080   23.6007  -26.4525 H   0  0  0  0  0  0  0  0  0  0  0  0
   -0.3020   24.0050  -27.8233 H   0  0  0  0  0  0  0  0  0  0  0  0
   -1.8570   22.7300  -28.2720 O   0  0  0  0  0  0  0  0  0  0  0  0
   -1.4200   22.3980  -29.5590 C   0  0  0  0  0  0  0  0  0  0  0  0
   -0.4880   23.0500  -30.1030 O   0  0  0  0  0  0  0  0  0  0  0  0
   -2.0840   21.3330  -30.3270 C   0  0  0  0  0  0  0  0  0  0  0  0
   -1.6311   20.3312  -30.2903 H   0  0  0  0  0  0  0  0  0  0  0  0
   -3.1930   21.4760  -31.0680 C   0  0  0  0  0  0  0  0  0  0  0  0
   -3.4744   20.6297  -31.7119 H   0  0  0  0  0  0  0  0  0  0  0  0
   -4.0730   22.6640  -31.1010 C   0  0  0  0  0  0  0  0  0  0  0  0
   -3.5350   23.7990  -31.2130 O   0  0  0  0  0  0  0  0  0  0  0  0
   -5.5090   22.5660  -31.1010 N   0  0  0  0  0  0  0  0  0  0  0  0
   -6.3960   23.4740  -30.6000 C   0  0  0  0  0  0  0  0  0  0  0  0
   -6.0350   24.6810  -29.8200 C   0  0  0  0  0  0  0  0  0  0  0  0
   -6.8380   25.6490  -29.7450 O   0  0  0  0  0  0  0  0  0  0  0  0
   -4.7680   24.7800  -29.1680 N   0  0  0  0  0  0  0  0  0  0  0  0
   -4.0990   23.9790  -29.1520 H   0  0  0  0  0  0  0  0  0  0  0  0
   -4.5090   25.6530  -28.6560 H   0  0  0  0  0  0  0  0  0  0  0  0
   -7.7060   23.0620  -30.8400 C   0  0  0  0  0  0  0  0  0  0  0  0
   -8.6318   23.5776  -30.5450 H   0  0  0  0  0  0  0  0  0  0  0  0
   -7.5950   21.8740  -31.5240 C   0  0  0  0  0  0  0  0  0  0  0  0
   -8.5880   21.0330  -32.0180 C   0  0  0  0  0  0  0  0  0  0  0  0
   -9.6532   21.2634  -31.8685 H   0  0  0  0  0  0  0  0  0  0  0  0
   -8.1860   19.8800  -32.7140 C   0  0  0  0  0  0  0  0  0  0  0  0
   -8.9454   19.1849  -33.1014 H   0  0  0  0  0  0  0  0  0  0  0  0
   -6.8130   19.6050  -32.9210 C   0  0  0  0  0  0  0  0  0  0  0  0
   -6.3960   18.3600  -33.6450 C   0  0  0  0  0  0  0  0  0  0  0  0
   -6.5341   18.5015  -34.7271 H   0  0  0  0  0  0  0  0  0  0  0  0
   -5.3367   18.1510  -33.4347 H   0  0  0  0  0  0  0  0  0  0  0  0
   -7.1690   17.2970  -33.2170 F   0  0  0  0  0  0  0  0  0  0  0  0
   -5.8340   20.4750  -32.3930 C   0  0  0  0  0  0  0  0  0  0  0  0
   -4.7626   20.2727  -32.5385 H   0  0  0  0  0  0  0  0  0  0  0  0
   -6.2610   21.6010  -31.6800 C   0  0  0  0  0  0  0  0  0  0  0  0
  1  2  1  0
  2  3  1  0
  3  4  1  0
  3  5  1  0
  3  6  1  0
  6  7  1  0
  6  8  1  0
  6  9  1  0
  9 10  1  0
 10 11  2  0
 10 12  1  0
 12 13  1  0
 12 14  2  0
 14 15  1  0
 14 16  1  0
 16 17  2  0
 16 18  1  0
 18 19  1  0
 19 20  1  0
 20 21  2  0
 20 22  1  0
 22 23  1  0
 22 24  1  0
 19 25  2  0
 25 26  1  0
 25 27  1  0
 27 28  2  0
 28 29  1  0
 28 30  1  0
 30 31  1  0
 30 32  2  0
 32 33  1  0
 33 34  1  0
 33 35  1  0
 33 36  1  0
 32 37  1  0
 37 38  1  0
 37 39  2  0
 39 18  1  0
 39 27  1  0
M  END
>  <UniqueID>  (43) 
42

>  <SMILES>  (43) 
NC(=O)c1cc2ccc(CF)cc2n1C(=O)/C=C\C(=O)OCCO

>  <Energy>  (43) 
76.86961159071019

>  <Genealogy>  (43) 
NC(=O)c1cc2ccc(CF)cc2n1C(=O)/C=C\C(=O)OCCO (cis-trans isomerization)
NC(=O)c1cc2ccc(CF)cc2n1C(=O)/C=C\C(=O)OCCO (3D coordinates assigned)
NC(=O)c1cc2ccc(CF)cc2n1C(=O)/C=C\C(=O)OCCO (optimized conformer: 76.86961159071019 kcal/mol)

>  <smiles>  (43) 
NC(=O)c1cc2ccc(CF)cc2n1C(=O)C=CC(=O)OCCO

>  <score_type>  (43) 
oracle

>  <origin>  (43) 
adg

>  <m_score__min__energy>  (43) 
-8.1600000000000001

>  <m_primary>  (43) 
energy

$$$$
43:0
     RDKit          3D

 43 44  0  0  0  0  0  0  0  0999 V2000
   -8.1400   22.2980  -30.4100 C   0  0  0  0  0  0  0  0  0  0  0  0
   -9.3010   22.1600  -31.3040 N   0  0  0  0  0  0  0  0  0  0  0  0
   -9.3480   23.2460  -32.2970 C   0  0  0  0  0  0  0  0  0  0  0  0
   -9.3910   20.8190  -31.9210 C   0  0  0  0  0  0  0  0  0  0  0  0
   -8.1300   19.9960  -31.7960 C   0  0  0  0  0  0  0  0  0  0  0  0
   -7.7420   19.2000  -32.7950 C   0  0  0  0  0  0  0  0  0  0  0  0
   -6.5200   18.3770  -32.7260 C   0  0  0  0  0  0  0  0  0  0  0  0
   -6.5780   17.1810  -32.3280 O   0  0  0  0  0  0  0  0  0  0  0  0
   -5.2580   18.9220  -33.1420 N   0  0  0  0  0  0  0  0  0  0  0  0
   -4.3520   18.3540  -33.9880 C   0  0  0  0  0  0  0  0  0  0  0  0
   -4.5570   17.1160  -34.7660 C   0  0  0  0  0  0  0  0  0  0  0  0
   -5.1880   15.9710  -34.1900 N   0  0  0  0  0  0  0  0  0  0  0  0
   -4.2110   17.0830  -35.9770 O   0  0  0  0  0  0  0  0  0  0  0  0
   -3.1870   19.1140  -34.0410 C   0  0  0  0  0  0  0  0  0  0  0  0
   -3.4080   20.1790  -33.1970 C   0  0  0  0  0  0  0  0  0  0  0  0
   -2.5660   21.2300  -32.8450 C   0  0  0  0  0  0  0  0  0  0  0  0
   -3.0340   22.1600  -31.9010 C   0  0  0  0  0  0  0  0  0  0  0  0
   -4.3230   22.0220  -31.3300 C   0  0  0  0  0  0  0  0  0  0  0  0
   -4.7920   22.9940  -30.2830 C   0  0  0  0  0  0  0  0  0  0  0  0
   -4.8300   24.3780  -30.8470 C   0  0  0  0  0  0  0  0  0  0  0  0
   -3.7840   25.2980  -30.5480 N   0  0  0  0  0  0  0  0  0  0  0  0
   -5.8050   24.7450  -31.5540 O   0  0  0  0  0  0  0  0  0  0  0  0
   -5.1430   20.9340  -31.7020 C   0  0  0  0  0  0  0  0  0  0  0  0
   -4.6630   20.0380  -32.6630 C   0  0  0  0  0  0  0  0  0  0  0  0
   -8.4763   22.2580  -29.3634 H   0  0  0  0  0  0  0  0  0  0  0  0
   -7.4320   21.4777  -30.5992 H   0  0  0  0  0  0  0  0  0  0  0  0
   -7.6440   23.2614  -30.5992 H   0  0  0  0  0  0  0  0  0  0  0  0
   -9.3899   24.2153  -31.7786 H   0  0  0  0  0  0  0  0  0  0  0  0
   -8.4473   23.2059  -32.9272 H   0  0  0  0  0  0  0  0  0  0  0  0
  -10.2419   23.1282  -32.9272 H   0  0  0  0  0  0  0  0  0  0  0  0
  -10.2113   20.2699  -31.4356 H   0  0  0  0  0  0  0  0  0  0  0  0
   -9.5620   20.9756  -32.9963 H   0  0  0  0  0  0  0  0  0  0  0  0
   -7.5284   20.0531  -30.8768 H   0  0  0  0  0  0  0  0  0  0  0  0
   -8.3579   19.1562  -33.7054 H   0  0  0  0  0  0  0  0  0  0  0  0
   -5.6560   16.0220  -33.2580 H   0  0  0  0  0  0  0  0  0  0  0  0
   -5.2750   15.0880  -34.7400 H   0  0  0  0  0  0  0  0  0  0  0  0
   -2.2823   18.9076  -34.6316 H   0  0  0  0  0  0  0  0  0  0  0  0
   -1.5657   21.3295  -33.2917 H   0  0  0  0  0  0  0  0  0  0  0  0
   -2.3934   23.0030  -31.6027 H   0  0  0  0  0  0  0  0  0  0  0  0
   -5.8006   22.7097  -29.9484 H   0  0  0  0  0  0  0  0  0  0  0  0
   -4.0950   22.9709  -29.4323 H   0  0  0  0  0  0  0  0  0  0  0  0
   -3.4900   26.0200  -31.2420 H   0  0  0  0  0  0  0  0  0  0  0  0
   -6.1348   20.7946  -31.2472 H   0  0  0  0  0  0  0  0  0  0  0  0
  1  2  1  0
  2  3  1  0
  2  4  1  0
  4  5  1  0
  5  6  2  3
  6  7  1  0
  7  8  2  0
  7  9  1  0
  9 10  1  0
 10 11  1  0
 11 12  1  0
 11 13  2  0
 10 14  2  0
 14 15  1  0
 15 16  2  0
 16 17  1  0
 17 18  2  0
 18 19  1  0
 19 20  1  0
 20 21  1  0
 20 22  2  0
 18 23  1  0
 23 24  2  0
 24  9  1  0
 24 15  1  0
  1 25  1  0
  1 26  1  0
  1 27  1  0
  3 28  1  0
  3 29  1  0
  3 30  1  0
  4 31  1  0
  4 32  1  0
  5 33  1  0
  6 34  1  0
 12 35  1  0
 12 36  1  0
 14 37  1  0
 16 38  1  0
 17 39  1  0
 19 40  1  0
 19 41  1  0
 21 42  1  0
 23 43  1  0
M  CHG  1  21  -1
M  END
>  <UniqueID>  (44) 
43

>  <SMILES>  (44) 
CN(C)CC=CC(=O)n1c(C(N)=O)cc2ccc(CC([NH-])=O)cc21

>  <Energy>  (44) 
80.50248129609928

>  <Genealogy>  (44) 
CN(C)CC=CC(=O)n1c(C(N)=O)cc2ccc(CC([NH-])=O)cc21 (protonated)
CN(C)CC=CC(=O)n1c(C(N)=O)cc2ccc(CC([NH-])=O)cc21 (3D coordinates assigned)
CN(C)CC=CC(=O)n1c(C(N)=O)cc2ccc(CC([NH-])=O)cc21 (optimized conformer: 80.50248129609928 kcal/mol)

>  <smiles>  (44) 
CN(C)CC=CC(=O)n1c(C(N)=O)cc2ccc(CC(N)=O)cc21

>  <score_type>  (44) 
oracle

>  <origin>  (44) 
adg

>  <m_score__min__energy>  (44) 
-10.15

>  <m_primary>  (44) 
energy

$$$$
44:0
     RDKit          3D

 54 57  0  0  0  0  0  0  0  0999 V2000
   -3.8570   25.4560  -30.7630 N   0  0  0  0  0  0  0  0  0  0  0  0
   -4.9880   24.8120  -30.1810 C   0  0  0  0  0  0  0  0  0  0  0  0
   -5.5070   25.2960  -29.1420 O   0  0  0  0  0  0  0  0  0  0  0  0
   -5.5200   23.5720  -30.7840 C   0  0  0  0  0  0  0  0  0  0  0  0
   -6.8690   23.2230  -30.7780 C   0  0  0  0  0  0  0  0  0  0  0  0
   -6.9430   22.0350  -31.4700 C   0  0  0  0  0  0  0  0  0  0  0  0
   -8.0340   21.2180  -31.7360 C   0  0  0  0  0  0  0  0  0  0  0  0
   -7.8070   20.0120  -32.4220 C   0  0  0  0  0  0  0  0  0  0  0  0
   -6.4950   19.6370  -32.8240 C   0  0  0  0  0  0  0  0  0  0  0  0
   -6.2620   18.3760  -33.4950 N   0  0  0  0  0  0  0  0  0  0  0  0
   -5.3840   18.2160  -34.6460 C   0  0  0  0  0  0  0  0  0  0  0  0
   -5.3170   16.7180  -34.9110 C   0  0  0  0  0  0  0  0  0  0  0  0
   -6.5360   16.1250  -34.2100 C   0  0  1  0  0  0  0  0  0  0  0  0
   -6.2350   14.8620  -33.6770 O   0  0  0  0  0  0  0  0  0  0  0  0
   -6.8940   17.1220  -33.1100 C   0  0  0  0  0  0  0  0  0  0  0  0
   -5.4140   20.5080  -32.5420 C   0  0  0  0  0  0  0  0  0  0  0  0
   -5.6750   21.7060  -31.8690 C   0  0  0  0  0  0  0  0  0  0  0  0
   -4.7910   22.6390  -31.4580 N   0  0  0  0  0  0  0  0  0  0  0  0
   -3.3670   22.5760  -31.6070 C   0  0  0  0  0  0  0  0  0  0  0  0
   -2.8660   21.9300  -32.5680 O   0  0  0  0  0  0  0  0  0  0  0  0
   -2.5430   23.1800  -30.6520 O   0  0  0  0  0  0  0  0  0  0  0  0
   -1.7230   22.4400  -29.7510 C   0  0  0  0  0  0  0  0  0  0  0  0
   -1.8870   22.9610  -28.3480 C   0  0  0  0  0  0  0  0  0  0  0  0
   -1.2940   22.4040  -27.4330 O   0  0  0  0  0  0  0  0  0  0  0  0
   -2.7480   24.0980  -28.0780 N   0  0  0  0  0  0  0  0  0  0  0  0
   -1.9620   25.2690  -27.6110 C   0  0  0  0  0  0  0  0  0  0  0  0
   -2.0370   25.4320  -26.0820 C   0  0  0  0  0  0  0  0  0  0  0  0
   -3.3620   25.6030  -25.5940 O   0  0  0  0  0  0  0  0  0  0  0  0
   -4.3510   24.9350  -26.3680 C   0  0  0  0  0  0  0  0  0  0  0  0
   -3.8190   23.7090  -27.1290 C   0  0  0  0  0  0  0  0  0  0  0  0
   -2.8950   25.2940  -30.3880 H   0  0  0  0  0  0  0  0  0  0  0  0
   -7.6991   23.7790  -30.3178 H   0  0  0  0  0  0  0  0  0  0  0  0
   -9.0471   21.5063  -31.4189 H   0  0  0  0  0  0  0  0  0  0  0  0
   -8.6550   19.3498  -32.6509 H   0  0  0  0  0  0  0  0  0  0  0  0
   -5.7976   18.7415  -35.5194 H   0  0  0  0  0  0  0  0  0  0  0  0
   -4.3864   18.6388  -34.4563 H   0  0  0  0  0  0  0  0  0  0  0  0
   -5.3591   16.5165  -35.9916 H   0  0  0  0  0  0  0  0  0  0  0  0
   -4.3791   16.2794  -34.5395 H   0  0  0  0  0  0  0  0  0  0  0  0
   -7.3772   15.9721  -34.9021 H   0  0  0  0  0  0  0  0  0  0  0  0
   -5.2510   14.8410  -33.5460 H   0  0  0  0  0  0  0  0  0  0  0  0
   -7.9850   17.2463  -33.0451 H   0  0  0  0  0  0  0  0  0  0  0  0
   -6.5493   16.7794  -32.1232 H   0  0  0  0  0  0  0  0  0  0  0  0
   -4.3896   20.2473  -32.8463 H   0  0  0  0  0  0  0  0  0  0  0  0
   -2.0155   21.3800  -29.7811 H   0  0  0  0  0  0  0  0  0  0  0  0
   -0.6708   22.5490  -30.0527 H   0  0  0  0  0  0  0  0  0  0  0  0
   -3.2120   24.3750  -28.9760 H   0  0  0  0  0  0  0  0  0  0  0  0
   -0.9105   25.1322  -27.9038 H   0  0  0  0  0  0  0  0  0  0  0  0
   -2.3856   26.1728  -28.0734 H   0  0  0  0  0  0  0  0  0  0  0  0
   -1.6070   24.5339  -25.6146 H   0  0  0  0  0  0  0  0  0  0  0  0
   -1.4777   26.3439  -25.8260 H   0  0  0  0  0  0  0  0  0  0  0  0
   -5.1538   24.6030  -25.6933 H   0  0  0  0  0  0  0  0  0  0  0  0
   -4.7057   25.6520  -27.1230 H   0  0  0  0  0  0  0  0  0  0  0  0
   -3.4144   22.9847  -26.4068 H   0  0  0  0  0  0  0  0  0  0  0  0
   -4.6475   23.2625  -27.6984 H   0  0  0  0  0  0  0  0  0  0  0  0
  1  2  1  0
  2  3  2  0
  2  4  1  0
  4  5  2  0
  5  6  1  0
  6  7  2  0
  7  8  1  0
  8  9  2  0
  9 10  1  0
 10 11  1  0
 11 12  1  0
 12 13  1  0
 13 14  1  0
 13 15  1  0
  9 16  1  0
 16 17  2  0
 17 18  1  0
 18 19  1  0
 19 20  2  0
 19 21  1  0
 21 22  1  0
 22 23  1  0
 23 24  2  0
 23 25  1  0
 25 26  1  0
 26 27  1  0
 27 28  1  0
 28 29  1  0
 29 30  1  0
 18  4  1  0
 30 25  1  0
 17  6  1  0
 15 10  1  0
  1 31  1  0
  5 32  1  0
  7 33  1  0
  8 34  1  0
 11 35  1  0
 11 36  1  0
 12 37  1  0
 12 38  1  0
 13 39  1  6
 14 40  1  0
 15 41  1  0
 15 42  1  0
 16 43  1  0
 22 44  1  0
 22 45  1  0
 25 46  1  0
 26 47  1  0
 26 48  1  0
 27 49  1  0
 27 50  1  0
 29 51  1  0
 29 52  1  0
 30 53  1  0
 30 54  1  0
M  CHG  2   1  -1  25   1
M  END
>  <UniqueID>  (45) 
44

>  <SMILES>  (45) 
[NH-]C(=O)c1cc2ccc(N3CC[C@@H](O)C3)cc2n1C(=O)OCC(=O)[NH+]1CCOCC1

>  <Energy>  (45) 
106.5187659930718

>  <Genealogy>  (45) 
[NH-]C(=O)c1cc2ccc(N3CCC(O)C3)cc2n1C(=O)OCC(=O)[NH+]1CCOCC1 (protonated)
[NH-]C(=O)c1cc2ccc(N3CC[C@@H](O)C3)cc2n1C(=O)OCC(=O)[NH+]1CCOCC1 (chirality)
[NH-]C(=O)c1cc2ccc(N3CC[C@@H](O)C3)cc2n1C(=O)OCC(=O)[NH+]1CCOCC1 (3D coordinates assigned)
[NH-]C(=O)c1cc2ccc(N3CC[C@@H](O)C3)cc2n1C(=O)OCC(=O)[NH+]1CCOCC1 (nonaromatic ring conformer: 106.5187659930718 kcal/mol)

>  <smiles>  (45) 
NC(=O)c1cc2ccc(N3CCC(O)C3)cc2n1C(=O)OCC(=O)N1CCOCC1

>  <score_type>  (45) 
oracle

>  <origin>  (45) 
adg

>  <m_score__min__energy>  (45) 
-9.3900000000000006

>  <m_primary>  (45) 
energy

$$$$
45:0
     RDKit          3D

 40 41  0  0  0  0  0  0  0  0999 V2000
   -3.2210   24.2850  -27.7380 C   0  0  0  0  0  0  0  0  0  0  0  0
   -2.1510   24.4720  -28.7310 N   0  0  0  0  0  0  0  0  0  0  0  0
   -1.2600   25.5570  -28.2870 C   0  0  0  0  0  0  0  0  0  0  0  0
   -1.4080   23.2060  -28.9040 C   0  0  0  0  0  0  0  0  0  0  0  0
   -2.3150   22.0030  -28.8380 C   0  0  0  0  0  0  0  0  0  0  0  0
   -3.3220   21.7280  -29.6820 C   0  0  0  0  0  0  0  0  0  0  0  0
   -3.7810   22.5720  -30.8050 C   0  0  0  0  0  0  0  0  0  0  0  0
   -2.9160   23.0390  -31.5940 O   0  0  0  0  0  0  0  0  0  0  0  0
   -5.1690   22.8460  -31.0520 N   0  0  0  0  0  0  0  0  0  0  0  0
   -5.8270   24.0360  -30.9540 C   0  0  0  0  0  0  0  0  0  0  0  0
   -5.2450   25.3180  -30.5050 C   0  0  0  0  0  0  0  0  0  0  0  0
   -3.9000   25.6650  -30.8220 N   0  0  0  0  0  0  0  0  0  0  0  0
   -5.9330   26.1020  -29.7990 O   0  0  0  0  0  0  0  0  0  0  0  0
   -7.1720   23.8760  -31.2850 C   0  0  0  0  0  0  0  0  0  0  0  0
   -7.3230   22.5350  -31.5630 C   0  0  0  0  0  0  0  0  0  0  0  0
   -8.4490   21.8220  -31.9640 C   0  0  0  0  0  0  0  0  0  0  0  0
   -8.3020   20.4470  -32.2100 C   0  0  0  0  0  0  0  0  0  0  0  0
   -7.0460   19.8120  -32.0430 C   0  0  0  0  0  0  0  0  0  0  0  0
   -6.8910   18.3480  -32.3480 C   0  0  0  0  0  0  0  0  0  0  0  0
   -6.2700   18.1740  -33.6640 C   0  0  0  0  0  0  0  0  0  0  0  0
   -5.7790   18.0370  -34.7030 N   0  0  0  0  0  0  0  0  0  0  0  0
   -5.9250   20.5710  -31.6410 C   0  0  0  0  0  0  0  0  0  0  0  0
   -6.1020   21.9370  -31.4010 C   0  0  0  0  0  0  0  0  0  0  0  0
   -2.7983   24.3589  -26.7252 H   0  0  0  0  0  0  0  0  0  0  0  0
   -3.9869   25.0629  -27.8733 H   0  0  0  0  0  0  0  0  0  0  0  0
   -3.6776   23.2934  -27.8733 H   0  0  0  0  0  0  0  0  0  0  0  0
   -1.2366   25.5855  -27.1876 H   0  0  0  0  0  0  0  0  0  0  0  0
   -0.2448   25.3780  -28.6709 H   0  0  0  0  0  0  0  0  0  0  0  0
   -1.6330   26.5180  -28.6709 H   0  0  0  0  0  0  0  0  0  0  0  0
   -0.9072   23.2195  -29.8833 H   0  0  0  0  0  0  0  0  0  0  0  0
   -0.6788   23.1262  -28.0843 H   0  0  0  0  0  0  0  0  0  0  0  0
   -2.1350   21.2854  -28.0240 H   0  0  0  0  0  0  0  0  0  0  0  0
   -3.8584   20.7811  -29.5220 H   0  0  0  0  0  0  0  0  0  0  0  0
   -3.1120   25.0150  -30.6050 H   0  0  0  0  0  0  0  0  0  0  0  0
   -7.9479   24.6551  -31.3173 H   0  0  0  0  0  0  0  0  0  0  0  0
   -9.4227   22.3193  -32.0844 H   0  0  0  0  0  0  0  0  0  0  0  0
   -9.1711   19.8566  -32.5358 H   0  0  0  0  0  0  0  0  0  0  0  0
   -6.2559   17.8812  -31.5807 H   0  0  0  0  0  0  0  0  0  0  0  0
   -7.8829   17.8724  -32.3507 H   0  0  0  0  0  0  0  0  0  0  0  0
   -4.9384   20.0999  -31.5199 H   0  0  0  0  0  0  0  0  0  0  0  0
  1  2  1  0
  2  3  1  0
  2  4  1  0
  4  5  1  0
  5  6  2  3
  6  7  1  0
  7  8  2  0
  7  9  1  0
  9 10  1  0
 10 11  1  0
 11 12  1  0
 11 13  2  0
 10 14  2  0
 14 15  1  0
 15 16  2  0
 16 17  1  0
 17 18  2  0
 18 19  1  0
 19 20  1  0
 20 21  3  0
 18 22  1  0
 22 23  2  0
 23  9  1  0
 23 15  1  0
  1 24  1  0
  1 25  1  0
  1 26  1  0
  3 27  1  0
  3 28  1  0
  3 29  1  0
  4 30  1  0
  4 31  1  0
  5 32  1  0
  6 33  1  0
 12 34  1  0
 14 35  1  0
 16 36  1  0
 17 37  1  0
 19 38  1  0
 19 39  1  0
 22 40  1  0
M  CHG  1  12  -1
M  END
>  <UniqueID>  (46) 
45

>  <SMILES>  (46) 
CN(C)CC=CC(=O)n1c(C([NH-])=O)cc2ccc(CC#N)cc21

>  <Energy>  (46) 
76.68736926303362

>  <Genealogy>  (46) 
CN(C)CC=CC(=O)n1c(C([NH-])=O)cc2ccc(CC#N)cc21 (protonated)
CN(C)CC=CC(=O)n1c(C([NH-])=O)cc2ccc(CC#N)cc21 (3D coordinates assigned)
CN(C)CC=CC(=O)n1c(C([NH-])=O)cc2ccc(CC#N)cc21 (optimized conformer: 76.68736926303362 kcal/mol)

>  <smiles>  (46) 
CN(C)CC=CC(=O)n1c(C(N)=O)cc2ccc(CC#N)cc21

>  <score_type>  (46) 
oracle

>  <origin>  (46) 
adg

>  <m_score__min__energy>  (46) 
-10.74

>  <m_primary>  (46) 
energy

$$$$
46:0
     RDKit          3D

 39 41  0  0  0  0  0  0  0  0999 V2000
   -2.0180   25.4760  -28.4890 N   0  0  0  0  0  0  0  0  0  0  0  0
   -1.1850   24.4270  -28.9870 C   0  0  0  0  0  0  0  0  0  0  0  0
    0.0250   24.3880  -28.6410 O   0  0  0  0  0  0  0  0  0  0  0  0
   -1.7210   23.4200  -29.9300 C   0  0  0  0  0  0  0  0  0  0  0  0
   -1.0000   22.3140  -30.3760 C   0  0  0  0  0  0  0  0  0  0  0  0
   -1.8810   21.5900  -31.1450 C   0  0  0  0  0  0  0  0  0  0  0  0
   -1.6930   20.3980  -31.8360 C   0  0  0  0  0  0  0  0  0  0  0  0
   -2.7740   19.8850  -32.5710 C   0  0  0  0  0  0  0  0  0  0  0  0
   -4.0120   20.5750  -32.6170 C   0  0  0  0  0  0  0  0  0  0  0  0
   -5.1620   20.0160  -33.4240 C   0  0  0  0  0  0  0  0  0  0  0  0
   -6.4540   19.7550  -32.6110 C   0  0  2  0  0  0  0  0  0  0  0  0
   -7.1270   18.4150  -32.9510 C   0  0  0  0  0  0  0  0  0  0  0  0
   -8.3380   18.1800  -32.0350 C   0  0  0  0  0  0  0  0  0  0  0  0
   -9.0380   19.5040  -31.6750 C   0  0  0  0  0  0  0  0  0  0  0  0
   -8.8370   20.4690  -32.6890 O   0  0  0  0  0  0  0  0  0  0  0  0
   -7.4880   20.9150  -32.6930 C   0  0  0  0  0  0  0  0  0  0  0  0
   -4.1690   21.7750  -31.8860 C   0  0  0  0  0  0  0  0  0  0  0  0
   -3.0800   22.2540  -31.1480 C   0  0  0  0  0  0  0  0  0  0  0  0
   -2.9980   23.3820  -30.4050 N   0  0  0  0  0  0  0  0  0  0  0  0
   -4.0250   24.3730  -30.2300 C   0  0  0  0  0  0  0  0  0  0  0  0
   -5.0870   24.0880  -29.6140 O   0  0  0  0  0  0  0  0  0  0  0  0
   -3.8660   25.6490  -30.7520 O   0  0  0  0  0  0  0  0  0  0  0  0
   -1.6190   26.2050  -27.8560 H   0  0  0  0  0  0  0  0  0  0  0  0
   -3.0370   25.5120  -28.7110 H   0  0  0  0  0  0  0  0  0  0  0  0
    0.0508   22.0715  -30.1591 H   0  0  0  0  0  0  0  0  0  0  0  0
   -0.7269   19.8729  -31.8077 H   0  0  0  0  0  0  0  0  0  0  0  0
   -2.6591   18.9372  -33.1173 H   0  0  0  0  0  0  0  0  0  0  0  0
   -5.3993   20.7321  -34.2246 H   0  0  0  0  0  0  0  0  0  0  0  0
   -4.8300   19.0384  -33.8036 H   0  0  0  0  0  0  0  0  0  0  0  0
   -6.1047   19.6996  -31.5694 H   0  0  0  0  0  0  0  0  0  0  0  0
   -7.4622   18.4326  -33.9986 H   0  0  0  0  0  0  0  0  0  0  0  0
   -6.4016   17.6017  -32.8015 H   0  0  0  0  0  0  0  0  0  0  0  0
   -9.0553   17.5252  -32.5515 H   0  0  0  0  0  0  0  0  0  0  0  0
   -7.9820   17.7134  -31.1047 H   0  0  0  0  0  0  0  0  0  0  0  0
  -10.1166   19.3219  -31.5588 H   0  0  0  0  0  0  0  0  0  0  0  0
   -8.6112   19.8849  -30.7355 H   0  0  0  0  0  0  0  0  0  0  0  0
   -7.3091   21.4767  -33.6217 H   0  0  0  0  0  0  0  0  0  0  0  0
   -7.3491   21.5381  -31.7972 H   0  0  0  0  0  0  0  0  0  0  0  0
   -5.1246   22.3196  -31.8969 H   0  0  0  0  0  0  0  0  0  0  0  0
  1  2  1  0
  2  3  2  0
  2  4  1  0
  4  5  2  0
  5  6  1  0
  6  7  2  0
  7  8  1  0
  8  9  2  0
  9 10  1  0
 10 11  1  0
 11 12  1  0
 12 13  1  0
 13 14  1  0
 14 15  1  0
 15 16  1  0
  9 17  1  0
 17 18  2  0
 18 19  1  0
 19 20  1  0
 20 21  2  0
 20 22  1  0
 19  4  1  0
 18  6  1  0
 16 11  1  0
  1 23  1  0
  1 24  1  0
  5 25  1  0
  7 26  1  0
  8 27  1  0
 10 28  1  0
 10 29  1  0
 11 30  1  1
 12 31  1  0
 12 32  1  0
 13 33  1  0
 13 34  1  0
 14 35  1  0
 14 36  1  0
 16 37  1  0
 16 38  1  0
 17 39  1  0
M  CHG  1  22  -1
M  END
>  <UniqueID>  (47) 
46

>  <SMILES>  (47) 
NC(=O)c1cc2ccc(C[C@@H]3CCCOC3)cc2n1C(=O)[O-]

>  <Energy>  (47) 
86.05200511266627

>  <Genealogy>  (47) 
NC(=O)c1cc2ccc(CC3CCCOC3)cc2n1C(=O)[O-] (protonated)
NC(=O)c1cc2ccc(C[C@@H]3CCCOC3)cc2n1C(=O)[O-] (chirality)
NC(=O)c1cc2ccc(C[C@@H]3CCCOC3)cc2n1C(=O)[O-] (3D coordinates assigned)
NC(=O)c1cc2ccc(C[C@@H]3CCCOC3)cc2n1C(=O)[O-] (nonaromatic ring conformer: 86.05200511266627 kcal/mol)

>  <smiles>  (47) 
NC(=O)c1cc2ccc(CC3CCCOC3)cc2n1C(=O)O

>  <score_type>  (47) 
oracle

>  <origin>  (47) 
adg

>  <m_score__min__energy>  (47) 
-9.5999999999999996

>  <m_primary>  (47) 
energy

$$$$
47:0
     RDKit          3D

 65 67  0  0  0  0  0  0  0  0999 V2000
   -5.8850   18.5150  -34.9720 C   0  0  0  0  0  0  0  0  0  0  0  0
   -5.4930   17.5240  -33.8590 C   0  0  0  0  0  0  0  0  0  0  0  0
   -5.9750   16.0970  -34.2140 C   0  0  0  0  0  0  0  0  0  0  0  0
   -3.9440   17.4760  -33.7630 C   0  0  0  0  0  0  0  0  0  0  0  0
   -3.4340   18.7040  -33.2730 O   0  0  0  0  0  0  0  0  0  0  0  0
   -2.1020   18.9000  -33.7110 C   0  0  0  0  0  0  0  0  0  0  0  0
   -1.9270   20.3410  -34.2080 C   0  0  0  0  0  0  0  0  0  0  0  0
   -0.5170   20.8840  -33.9480 C   0  0  0  0  0  0  0  0  0  0  0  0
    0.0950   21.4810  -35.1790 C   0  0  0  0  0  0  0  0  0  0  0  0
   -0.0790   20.9370  -36.3020 O   0  0  0  0  0  0  0  0  0  0  0  0
    0.8120   22.6690  -35.0930 O   0  0  0  0  0  0  0  0  0  0  0  0
   -6.0470   17.9700  -32.5570 N   0  0  0  0  0  0  0  0  0  0  0  0
   -6.3030   19.3330  -32.1360 C   0  0  0  0  0  0  0  0  0  0  0  0
   -7.6410   19.8030  -32.1420 C   0  0  0  0  0  0  0  0  0  0  0  0
   -7.9460   21.1380  -31.8260 C   0  0  0  0  0  0  0  0  0  0  0  0
   -6.8950   21.9820  -31.4900 C   0  0  0  0  0  0  0  0  0  0  0  0
   -6.8860   23.3350  -31.2300 C   0  0  0  0  0  0  0  0  0  0  0  0
   -5.5450   23.6620  -31.0360 C   0  0  0  0  0  0  0  0  0  0  0  0
   -5.0550   25.0420  -30.8540 C   0  0  0  0  0  0  0  0  0  0  0  0
   -3.7010   25.2690  -30.4690 N   0  0  0  0  0  0  0  0  0  0  0  0
   -5.8200   26.0250  -31.0370 O   0  0  0  0  0  0  0  0  0  0  0  0
   -4.7650   22.5520  -31.1350 N   0  0  0  0  0  0  0  0  0  0  0  0
   -3.3400   22.4530  -30.9690 C   0  0  0  0  0  0  0  0  0  0  0  0
   -2.6180   22.3510  -31.9980 O   0  0  0  0  0  0  0  0  0  0  0  0
   -2.6990   22.3360  -29.5840 C   0  0  0  0  0  0  0  0  0  0  0  0
   -1.8750   21.0300  -29.4830 C   0  0  0  0  0  0  0  0  0  0  0  0
   -1.7470   23.5530  -29.3620 C   0  0  0  0  0  0  0  0  0  0  0  0
   -1.8570   24.1160  -27.9400 C   0  0  0  0  0  0  0  0  0  0  0  0
   -3.2160   24.6100  -27.6700 N   0  0  0  0  0  0  0  0  0  0  0  0
   -4.2990   23.6830  -28.0600 C   0  0  0  0  0  0  0  0  0  0  0  0
   -3.8090   22.2860  -28.4880 C   0  0  0  0  0  0  0  0  0  0  0  0
   -5.6010   21.5380  -31.4320 C   0  0  0  0  0  0  0  0  0  0  0  0
   -5.2710   20.2130  -31.7300 C   0  0  0  0  0  0  0  0  0  0  0  0
   -6.2538   19.4474  -34.5196 H   0  0  0  0  0  0  0  0  0  0  0  0
   -5.0053   18.7329  -35.5955 H   0  0  0  0  0  0  0  0  0  0  0  0
   -6.6757   18.0722  -35.5955 H   0  0  0  0  0  0  0  0  0  0  0  0
   -6.1653   15.5335  -33.2887 H   0  0  0  0  0  0  0  0  0  0  0  0
   -6.9021   16.1590  -34.8028 H   0  0  0  0  0  0  0  0  0  0  0  0
   -5.2002   15.5842  -34.8028 H   0  0  0  0  0  0  0  0  0  0  0  0
   -3.6495   16.6649  -33.0809 H   0  0  0  0  0  0  0  0  0  0  0  0
   -3.5328   17.2981  -34.7676 H   0  0  0  0  0  0  0  0  0  0  0  0
   -1.4114   18.7153  -32.8750 H   0  0  0  0  0  0  0  0  0  0  0  0
   -1.8827   18.2024  -34.5328 H   0  0  0  0  0  0  0  0  0  0  0  0
   -2.1211   20.3669  -35.2904 H   0  0  0  0  0  0  0  0  0  0  0  0
   -2.6365   20.9740  -33.6549 H   0  0  0  0  0  0  0  0  0  0  0  0
   -0.5736   21.6586  -33.1690 H   0  0  0  0  0  0  0  0  0  0  0  0
    0.1159   20.0424  -33.6300 H   0  0  0  0  0  0  0  0  0  0  0  0
   -6.4800   17.2350  -31.9510 H   0  0  0  0  0  0  0  0  0  0  0  0
   -8.4554   19.1096  -32.3988 H   0  0  0  0  0  0  0  0  0  0  0  0
   -8.9836   21.5029  -31.8441 H   0  0  0  0  0  0  0  0  0  0  0  0
   -7.7517   24.0121  -31.1851 H   0  0  0  0  0  0  0  0  0  0  0  0
   -3.4720   25.6730  -29.5350 H   0  0  0  0  0  0  0  0  0  0  0  0
   -1.7159   20.7778  -28.4242 H   0  0  0  0  0  0  0  0  0  0  0  0
   -2.4213   20.2127  -29.9765 H   0  0  0  0  0  0  0  0  0  0  0  0
   -0.9021   21.1712  -29.9765 H   0  0  0  0  0  0  0  0  0  0  0  0
   -0.7103   23.2295  -29.5367 H   0  0  0  0  0  0  0  0  0  0  0  0
   -2.0399   24.3464  -30.0653 H   0  0  0  0  0  0  0  0  0  0  0  0
   -1.6137   23.3215  -27.2192 H   0  0  0  0  0  0  0  0  0  0  0  0
   -1.1537   24.9560  -27.8413 H   0  0  0  0  0  0  0  0  0  0  0  0
   -3.3430   25.5040  -28.1990 H   0  0  0  0  0  0  0  0  0  0  0  0
   -4.9767   23.5633  -27.2019 H   0  0  0  0  0  0  0  0  0  0  0  0
   -4.7956   24.1265  -28.9356 H   0  0  0  0  0  0  0  0  0  0  0  0
   -3.4053   21.7706  -27.6041 H   0  0  0  0  0  0  0  0  0  0  0  0
   -4.6704   21.7535  -28.9175 H   0  0  0  0  0  0  0  0  0  0  0  0
   -4.2317   19.8614  -31.6508 H   0  0  0  0  0  0  0  0  0  0  0  0
  1  2  1  0
  2  3  1  0
  2  4  1  0
  4  5  1  0
  5  6  1  0
  6  7  1  0
  7  8  1  0
  8  9  1  0
  9 10  2  0
  9 11  1  0
  2 12  1  0
 12 13  1  0
 13 14  2  0
 14 15  1  0
 15 16  2  0
 16 17  1  0
 17 18  2  0
 18 19  1  0
 19 20  1  0
 19 21  2  0
 18 22  1  0
 22 23  1  0
 23 24  2  0
 23 25  1  0
 25 26  1  0
 25 27  1  0
 27 28  1  0
 28 29  1  0
 29 30  1  0
 30 31  1  0
 22 32  1  0
 32 33  2  0
 33 13  1  0
 32 16  1  0
 31 25  1  0
  1 34  1  0
  1 35  1  0
  1 36  1  0
  3 37  1  0
  3 38  1  0
  3 39  1  0
  4 40  1  0
  4 41  1  0
  6 42  1  0
  6 43  1  0
  7 44  1  0
  7 45  1  0
  8 46  1  0
  8 47  1  0
 12 48  1  0
 14 49  1  0
 15 50  1  0
 17 51  1  0
 20 52  1  0
 26 53  1  0
 26 54  1  0
 26 55  1  0
 27 56  1  0
 27 57  1  0
 28 58  1  0
 28 59  1  0
 29 60  1  0
 30 61  1  0
 30 62  1  0
 31 63  1  0
 31 64  1  0
 33 65  1  0
M  CHG  2  11  -1  20  -1
M  END
>  <UniqueID>  (48) 
47

>  <SMILES>  (48) 
CC(C)(COCCCC(=O)[O-])Nc1ccc2cc(C([NH-])=O)n(C(=O)C3(C)CCNCC3)c2c1

>  <Energy>  (48) 
115.91016172391787

>  <Genealogy>  (48) 
CC(C)(COCCCC(=O)[O-])Nc1ccc2cc(C([NH-])=O)n(C(=O)C3(C)CCNCC3)c2c1 (protonated)
CC(C)(COCCCC(=O)[O-])Nc1ccc2cc(C([NH-])=O)n(C(=O)C3(C)CCNCC3)c2c1 (3D coordinates assigned)
CC(C)(COCCCC(=O)[O-])Nc1ccc2cc(C([NH-])=O)n(C(=O)C3(C)CCNCC3)c2c1 (nonaromatic ring conformer: 115.91016172391787 kcal/mol)

>  <smiles>  (48) 
CC(C)(COCCCC(=O)O)Nc1ccc2cc(C(N)=O)n(C(=O)C3(C)CCNCC3)c2c1

>  <score_type>  (48) 
oracle

>  <origin>  (48) 
adg

>  <m_score__min__energy>  (48) 
-13.109999999999999

>  <m_primary>  (48) 
energy

$$$$
48:0
     RDKit          3D

 48 50  0  0  0  0  0  0  0  0999 V2000
    2.4510   22.8610  -35.7170 C   0  0  0  0  0  0  0  0  0  0  0  0
    1.0500   23.0980  -35.3260 N   0  0  0  0  0  0  0  0  0  0  0  0
    0.5010   24.2050  -36.1250 C   0  0  0  0  0  0  0  0  0  0  0  0
    0.2320   21.8780  -35.5130 C   0  0  0  0  0  0  0  0  0  0  0  0
    0.7280   20.7470  -34.6030 C   0  0  0  0  0  0  0  0  0  0  0  0
   -0.3750   20.0130  -34.0720 O   0  0  0  0  0  0  0  0  0  0  0  0
   -1.2940   20.5490  -33.1630 C   0  0  0  0  0  0  0  0  0  0  0  0
   -2.5250   21.0150  -33.6280 C   0  0  0  0  0  0  0  0  0  0  0  0
   -3.4390   21.5620  -32.7250 C   0  0  0  0  0  0  0  0  0  0  0  0
   -3.1210   21.6440  -31.3600 C   0  0  0  0  0  0  0  0  0  0  0  0
   -4.0760   22.2380  -30.3950 C   0  0  0  0  0  0  0  0  0  0  0  0
   -3.7460   22.3690  -29.1840 O   0  0  0  0  0  0  0  0  0  0  0  0
   -5.3850   22.6580  -30.8110 N   0  0  0  0  0  0  0  0  0  0  0  0
   -5.9260   23.9050  -30.7300 C   0  0  0  0  0  0  0  0  0  0  0  0
   -5.2160   25.1310  -30.3060 C   0  0  0  0  0  0  0  0  0  0  0  0
   -3.8280   25.3060  -30.5750 N   0  0  0  0  0  0  0  0  0  0  0  0
   -5.8500   26.0490  -29.7210 O   0  0  0  0  0  0  0  0  0  0  0  0
   -7.2530   23.8890  -31.1570 C   0  0  0  0  0  0  0  0  0  0  0  0
   -7.5090   22.5810  -31.5040 C   0  0  0  0  0  0  0  0  0  0  0  0
   -8.6770   21.9890  -31.9740 C   0  0  0  0  0  0  0  0  0  0  0  0
   -8.6610   20.6070  -32.2230 C   0  0  0  0  0  0  0  0  0  0  0  0
   -7.4830   19.8430  -32.0090 C   0  0  0  0  0  0  0  0  0  0  0  0
   -7.4920   18.3520  -32.2310 C   0  0  0  0  0  0  0  0  0  0  0  0
   -8.7570   17.8330  -32.0230 F   0  0  0  0  0  0  0  0  0  0  0  0
   -7.1080   18.0500  -33.5260 F   0  0  0  0  0  0  0  0  0  0  0  0
   -6.6100   17.7570  -31.3480 F   0  0  0  0  0  0  0  0  0  0  0  0
   -6.3260   20.4780  -31.5020 C   0  0  0  0  0  0  0  0  0  0  0  0
   -6.3670   21.8590  -31.2810 C   0  0  0  0  0  0  0  0  0  0  0  0
   -1.8770   21.1460  -30.9340 C   0  0  0  0  0  0  0  0  0  0  0  0
   -1.0050   20.6200  -31.8340 N   0  0  0  0  0  0  0  0  0  0  0  0
    3.0709   22.7561  -34.8144 H   0  0  0  0  0  0  0  0  0  0  0  0
    2.5141   21.9394  -36.3142 H   0  0  0  0  0  0  0  0  0  0  0  0
    2.8137   23.7105  -36.3142 H   0  0  0  0  0  0  0  0  0  0  0  0
    0.1140   24.9853  -35.4532 H   0  0  0  0  0  0  0  0  0  0  0  0
    1.2939   24.6276  -36.7595 H   0  0  0  0  0  0  0  0  0  0  0  0
   -0.3153   23.8296  -36.7595 H   0  0  0  0  0  0  0  0  0  0  0  0
   -0.8161   22.1051  -35.2680 H   0  0  0  0  0  0  0  0  0  0  0  0
    0.3176   21.5523  -36.5602 H   0  0  0  0  0  0  0  0  0  0  0  0
    1.3680   20.0679  -35.1855 H   0  0  0  0  0  0  0  0  0  0  0  0
    1.2984   21.1844  -33.7703 H   0  0  0  0  0  0  0  0  0  0  0  0
   -2.7732   20.9518  -34.6978 H   0  0  0  0  0  0  0  0  0  0  0  0
   -4.4114   21.9299  -33.0844 H   0  0  0  0  0  0  0  0  0  0  0  0
   -3.4970   26.0460  -31.2330 H   0  0  0  0  0  0  0  0  0  0  0  0
   -7.9480   24.7402  -31.2063 H   0  0  0  0  0  0  0  0  0  0  0  0
   -9.5853   22.5853  -32.1454 H   0  0  0  0  0  0  0  0  0  0  0  0
   -9.5719   20.1102  -32.5882 H   0  0  0  0  0  0  0  0  0  0  0  0
   -5.4152   19.9001  -31.2864 H   0  0  0  0  0  0  0  0  0  0  0  0
   -1.6085   21.1823  -29.8679 H   0  0  0  0  0  0  0  0  0  0  0  0
  1  2  1  0
  2  3  1  0
  2  4  1  0
  4  5  1  0
  5  6  1  0
  6  7  1  0
  7  8  2  0
  8  9  1  0
  9 10  2  0
 10 11  1  0
 11 12  2  0
 11 13  1  0
 13 14  1  0
 14 15  1  0
 15 16  1  0
 15 17  2  0
 14 18  2  0
 18 19  1  0
 19 20  2  0
 20 21  1  0
 21 22  2  0
 22 23  1  0
 23 24  1  0
 23 25  1  0
 23 26  1  0
 22 27  1  0
 27 28  2  0
 10 29  1  0
 29 30  2  0
 30  7  1  0
 28 13  1  0
 28 19  1  0
  1 31  1  0
  1 32  1  0
  1 33  1  0
  3 34  1  0
  3 35  1  0
  3 36  1  0
  4 37  1  0
  4 38  1  0
  5 39  1  0
  5 40  1  0
  8 41  1  0
  9 42  1  0
 16 43  1  0
 18 44  1  0
 20 45  1  0
 21 46  1  0
 27 47  1  0
 29 48  1  0
M  CHG  1  16  -1
M  END
>  <UniqueID>  (49) 
48

>  <SMILES>  (49) 
CN(C)CCOc1ccc(C(=O)n2c(C([NH-])=O)cc3ccc(C(F)(F)F)cc32)cn1

>  <Energy>  (49) 
89.68232256201337

>  <Genealogy>  (49) 
CN(C)CCOc1ccc(C(=O)n2c(C([NH-])=O)cc3ccc(C(F)(F)F)cc32)cn1 (protonated)
CN(C)CCOc1ccc(C(=O)n2c(C([NH-])=O)cc3ccc(C(F)(F)F)cc32)cn1 (3D coordinates assigned)
CN(C)CCOc1ccc(C(=O)n2c(C([NH-])=O)cc3ccc(C(F)(F)F)cc32)cn1 (optimized conformer: 89.68232256201337 kcal/mol)

>  <smiles>  (49) 
CN(C)CCOc1ccc(C(=O)n2c(C(N)=O)cc3ccc(C(F)(F)F)cc32)cn1

>  <score_type>  (49) 
oracle

>  <origin>  (49) 
adg

>  <m_score__min__energy>  (49) 
-11.300000000000001

>  <m_primary>  (49) 
energy

$$$$
49:0
     RDKit          3D

 31 32  0  0  0  0  0  0  0  0999 V2000
   -3.8800   25.6420  -30.8310 N   0  0  0  0  0  0  0  0  0  0  0  0
   -5.0010   24.8920  -30.3710 C   0  0  0  0  0  0  0  0  0  0  0  0
   -5.7460   25.3800  -29.4810 O   0  0  0  0  0  0  0  0  0  0  0  0
   -5.3010   23.5750  -30.9700 C   0  0  0  0  0  0  0  0  0  0  0  0
   -6.4540   23.3100  -31.7050 C   0  0  0  0  0  0  0  0  0  0  0  0
   -6.3980   21.9670  -32.0010 C   0  0  0  0  0  0  0  0  0  0  0  0
   -7.2820   21.1710  -32.7240 C   0  0  0  0  0  0  0  0  0  0  0  0
   -6.9570   19.8150  -32.8960 C   0  0  0  0  0  0  0  0  0  0  0  0
   -5.7620   19.2840  -32.3520 C   0  0  0  0  0  0  0  0  0  0  0  0
   -5.4250   17.8350  -32.5610 C   0  0  0  0  0  0  0  0  0  0  0  0
   -6.5430   17.1570  -33.0120 F   0  0  0  0  0  0  0  0  0  0  0  0
   -4.4140   17.7230  -33.4990 F   0  0  0  0  0  0  0  0  0  0  0  0
   -4.8870   20.1230  -31.6250 C   0  0  0  0  0  0  0  0  0  0  0  0
   -5.2440   21.4650  -31.4560 C   0  0  0  0  0  0  0  0  0  0  0  0
   -4.5580   22.4420  -30.8210 N   0  0  0  0  0  0  0  0  0  0  0  0
   -3.2730   22.3060  -30.1950 C   0  0  0  0  0  0  0  0  0  0  0  0
   -2.9880   21.2510  -29.5680 O   0  0  0  0  0  0  0  0  0  0  0  0
   -2.3070   23.3530  -30.3140 N   0  0  0  0  0  0  0  0  0  0  0  0
   -1.5740   24.1190  -28.9440 S   0  0  0  0  0  0  0  0  0  0  0  0
   -0.0860   23.9320  -29.0210 O   0  0  0  0  0  0  0  0  0  0  0  0
   -1.8820   25.5900  -28.9610 O   0  0  0  0  0  0  0  0  0  0  0  0
   -2.1810   23.3830  -27.4400 C   0  0  0  0  0  0  0  0  0  0  0  0
   -1.7660   24.1340  -26.3570 F   0  0  0  0  0  0  0  0  0  0  0  0
   -1.6870   22.0980  -27.3230 F   0  0  0  0  0  0  0  0  0  0  0  0
   -3.5630   23.3420  -27.4650 F   0  0  0  0  0  0  0  0  0  0  0  0
   -2.9050   25.3040  -30.6700 H   0  0  0  0  0  0  0  0  0  0  0  0
   -7.2422   24.0229  -31.9888 H   0  0  0  0  0  0  0  0  0  0  0  0
   -8.2064   21.5907  -33.1475 H   0  0  0  0  0  0  0  0  0  0  0  0
   -7.6375   19.1592  -33.4588 H   0  0  0  0  0  0  0  0  0  0  0  0
   -5.0918   17.4010  -31.6068 H   0  0  0  0  0  0  0  0  0  0  0  0
   -3.9498   19.7309  -31.2032 H   0  0  0  0  0  0  0  0  0  0  0  0
  1  2  1  0
  2  3  2  0
  2  4  1  0
  4  5  2  0
  5  6  1  0
  6  7  2  0
  7  8  1  0
  8  9  2  0
  9 10  1  0
 10 11  1  0
 10 12  1  0
  9 13  1  0
 13 14  2  0
 14 15  1  0
 15 16  1  0
 16 17  2  0
 16 18  1  0
 18 19  1  0
 19 20  2  0
 19 21  2  0
 19 22  1  0
 22 23  1  0
 22 24  1  0
 22 25  1  0
 15  4  1  0
 14  6  1  0
  1 26  1  0
  5 27  1  0
  7 28  1  0
  8 29  1  0
 10 30  1  0
 13 31  1  0
M  CHG  2   1  -1  18  -1
M  END
>  <UniqueID>  (50) 
49

>  <SMILES>  (50) 
[NH-]C(=O)c1cc2ccc(C(F)F)cc2n1C(=O)[N-]S(=O)(=O)C(F)(F)F

>  <Energy>  (50) 
67.54591449911895

>  <Genealogy>  (50) 
[NH-]C(=O)c1cc2ccc(C(F)F)cc2n1C(=O)[N-]S(=O)(=O)C(F)(F)F (protonated)
[NH-]C(=O)c1cc2ccc(C(F)F)cc2n1C(=O)[N-]S(=O)(=O)C(F)(F)F (3D coordinates assigned)
[NH-]C(=O)c1cc2ccc(C(F)F)cc2n1C(=O)[N-]S(=O)(=O)C(F)(F)F (optimized conformer: 67.54591449911895 kcal/mol)

>  <smiles>  (50) 
NC(=O)c1cc2ccc(C(F)F)cc2n1C(=O)NS(=O)(=O)C(F)(F)F

>  <score_type>  (50) 
oracle

>  <origin>  (50) 
adg

>  <m_score__min__energy>  (50) 
-9.6400000000000006

>  <m_primary>  (50) 
energy

$$$$
50:0
     RDKit          3D

 41 43  0  0  0  0  0  0  0  0999 V2000
   -6.8550   15.0340  -34.2150 C   0  0  0  0  0  0  0  0  0  0  0  0
   -6.4700   16.4370  -34.1550 N   0  0  0  0  0  0  0  0  0  0  0  0
   -6.9600   17.3510  -33.2980 C   0  0  0  0  0  0  0  0  0  0  0  0
   -6.3950   18.5770  -33.6050 C   0  0  0  0  0  0  0  0  0  0  0  0
   -6.6320   19.8800  -32.9340 C   0  0  0  0  0  0  0  0  0  0  0  0
   -7.9540   20.3170  -32.6550 C   0  0  0  0  0  0  0  0  0  0  0  0
   -8.1870   21.5430  -32.0100 C   0  0  0  0  0  0  0  0  0  0  0  0
   -7.0870   22.3180  -31.6630 C   0  0  0  0  0  0  0  0  0  0  0  0
   -7.0300   23.5290  -31.0130 C   0  0  0  0  0  0  0  0  0  0  0  0
   -5.6730   23.8340  -30.9210 C   0  0  0  0  0  0  0  0  0  0  0  0
   -5.1620   25.1020  -30.3590 C   0  0  0  0  0  0  0  0  0  0  0  0
   -3.9310   25.6430  -30.8350 N   0  0  0  0  0  0  0  0  0  0  0  0
   -5.7790   25.6970  -29.4370 O   0  0  0  0  0  0  0  0  0  0  0  0
   -4.9220   22.8460  -31.4860 N   0  0  0  0  0  0  0  0  0  0  0  0
   -3.4890   22.7520  -31.5520 C   0  0  0  0  0  0  0  0  0  0  0  0
   -2.7840   23.2310  -30.6230 O   0  0  0  0  0  0  0  0  0  0  0  0
   -2.8880   22.1000  -32.6350 O   0  0  0  0  0  0  0  0  0  0  0  0
   -2.1670   20.8720  -32.5250 C   0  0  0  0  0  0  0  0  0  0  0  0
   -2.3730   19.9990  -33.7670 C   0  0  0  0  0  0  0  0  0  0  0  0
   -2.4220   18.5090  -33.4350 C   0  0  0  0  0  0  0  0  0  0  0  0
   -2.5460   17.7770  -34.6020 F   0  0  0  0  0  0  0  0  0  0  0  0
   -5.8040   21.9270  -31.9380 C   0  0  0  0  0  0  0  0  0  0  0  0
   -5.5400   20.7010  -32.5620 C   0  0  0  0  0  0  0  0  0  0  0  0
   -5.5670   18.3180  -34.6900 C   0  0  0  0  0  0  0  0  0  0  0  0
   -5.6390   17.0120  -35.0090 N   0  0  0  0  0  0  0  0  0  0  0  0
   -6.9633   14.6395  -33.1939 H   0  0  0  0  0  0  0  0  0  0  0  0
   -7.8124   14.9390  -34.7482 H   0  0  0  0  0  0  0  0  0  0  0  0
   -6.0802   14.4636  -34.7482 H   0  0  0  0  0  0  0  0  0  0  0  0
   -7.6841   17.1577  -32.4928 H   0  0  0  0  0  0  0  0  0  0  0  0
   -8.8069   19.6871  -32.9478 H   0  0  0  0  0  0  0  0  0  0  0  0
   -9.2100   21.8796  -31.7862 H   0  0  0  0  0  0  0  0  0  0  0  0
   -7.8752   24.1288  -30.6444 H   0  0  0  0  0  0  0  0  0  0  0  0
   -3.0160   25.2980  -30.4690 H   0  0  0  0  0  0  0  0  0  0  0  0
   -1.0951   21.0932  -32.4150 H   0  0  0  0  0  0  0  0  0  0  0  0
   -2.5406   20.3246  -31.6470 H   0  0  0  0  0  0  0  0  0  0  0  0
   -3.3214   20.2849  -34.2454 H   0  0  0  0  0  0  0  0  0  0  0  0
   -1.5157   20.1636  -34.4363 H   0  0  0  0  0  0  0  0  0  0  0  0
   -1.4958   18.2187  -32.9175 H   0  0  0  0  0  0  0  0  0  0  0  0
   -3.2860   18.3081  -32.7845 H   0  0  0  0  0  0  0  0  0  0  0  0
   -4.5057   20.3826  -32.7590 H   0  0  0  0  0  0  0  0  0  0  0  0
   -4.9479   19.0649  -35.2086 H   0  0  0  0  0  0  0  0  0  0  0  0
  1  2  1  0
  2  3  1  0
  3  4  2  0
  4  5  1  0
  5  6  2  0
  6  7  1  0
  7  8  2  0
  8  9  1  0
  9 10  2  0
 10 11  1  0
 11 12  1  0
 11 13  2  0
 10 14  1  0
 14 15  1  0
 15 16  2  0
 15 17  1  0
 17 18  1  0
 18 19  1  0
 19 20  1  0
 20 21  1  0
 14 22  1  0
 22 23  2  0
  4 24  1  0
 24 25  2  0
 25  2  1  0
 23  5  1  0
 22  8  1  0
  1 26  1  0
  1 27  1  0
  1 28  1  0
  3 29  1  0
  6 30  1  0
  7 31  1  0
  9 32  1  0
 12 33  1  0
 18 34  1  0
 18 35  1  0
 19 36  1  0
 19 37  1  0
 20 38  1  0
 20 39  1  0
 23 40  1  0
 24 41  1  0
M  CHG  1  12  -1
M  END
>  <UniqueID>  (51) 
50

>  <SMILES>  (51) 
Cn1cc(-c2ccc3cc(C([NH-])=O)n(C(=O)OCCCF)c3c2)cn1

>  <Energy>  (51) 
107.96300069631549

>  <Genealogy>  (51) 
Cn1cc(-c2ccc3cc(C([NH-])=O)n(C(=O)OCCCF)c3c2)cn1 (protonated)
Cn1cc(-c2ccc3cc(C([NH-])=O)n(C(=O)OCCCF)c3c2)cn1 (3D coordinates assigned)
Cn1cc(-c2ccc3cc(C([NH-])=O)n(C(=O)OCCCF)c3c2)cn1 (optimized conformer: 107.96300069631549 kcal/mol)

>  <smiles>  (51) 
Cn1cc(-c2ccc3cc(C(N)=O)n(C(=O)OCCCF)c3c2)cn1

>  <score_type>  (51) 
oracle

>  <origin>  (51) 
adg

>  <m_score__min__energy>  (51) 
-10.67

>  <m_primary>  (51) 
energy

$$$$
51:0
     RDKit          3D

 51 53  0  0  0  0  0  0  0  0999 V2000
   -3.4270   17.0360  -33.4250 C   0  0  0  0  0  0  0  0  0  0  0  0
   -4.6540   16.2260  -33.5250 N   0  0  0  0  0  0  0  0  0  0  0  0
   -5.6290   16.8160  -34.4800 C   0  0  0  0  0  0  0  0  0  0  0  0
   -6.8250   17.5120  -33.8020 C   0  0  0  0  0  0  0  0  0  0  0  0
   -6.4150   18.0910  -32.5190 N   0  0  0  0  0  0  0  0  0  0  0  0
   -6.6110   19.4890  -32.2310 C   0  0  0  0  0  0  0  0  0  0  0  0
   -7.8260   20.1300  -32.5880 C   0  0  0  0  0  0  0  0  0  0  0  0
   -8.0180   21.4990  -32.3380 C   0  0  0  0  0  0  0  0  0  0  0  0
   -6.9820   22.2030  -31.7320 C   0  0  0  0  0  0  0  0  0  0  0  0
   -6.8870   23.5360  -31.4020 C   0  0  0  0  0  0  0  0  0  0  0  0
   -5.6230   23.6900  -30.8380 C   0  0  0  0  0  0  0  0  0  0  0  0
   -5.1300   24.9610  -30.2690 C   0  0  0  0  0  0  0  0  0  0  0  0
   -4.0060   25.6300  -30.8350 N   0  0  0  0  0  0  0  0  0  0  0  0
   -5.6840   25.4430  -29.2460 O   0  0  0  0  0  0  0  0  0  0  0  0
   -4.9580   22.5000  -30.8290 N   0  0  0  0  0  0  0  0  0  0  0  0
   -3.6060   22.2440  -30.4180 C   0  0  0  0  0  0  0  0  0  0  0  0
   -3.0760   21.1350  -30.6910 O   0  0  0  0  0  0  0  0  0  0  0  0
   -2.8590   23.2710  -29.7410 N   0  0  0  0  0  0  0  0  0  0  0  0
   -1.4720   23.1360  -29.2520 C   0  0  0  0  0  0  0  0  0  0  0  0
   -1.4430   22.3790  -27.9090 C   0  0  0  0  0  0  0  0  0  0  0  0
   -0.6250   22.3820  -30.2980 C   0  0  0  0  0  0  0  0  0  0  0  0
   -0.8960   24.5210  -29.0160 C   0  0  0  0  0  0  0  0  0  0  0  0
    0.2630   24.6450  -28.5370 O   0  0  0  0  0  0  0  0  0  0  0  0
   -1.6180   25.6670  -29.3380 O   0  0  0  0  0  0  0  0  0  0  0  0
   -5.8050   21.6000  -31.3750 C   0  0  0  0  0  0  0  0  0  0  0  0
   -5.5790   20.2420  -31.6250 C   0  0  0  0  0  0  0  0  0  0  0  0
   -5.7840   17.2140  -31.5270 C   0  0  0  0  0  0  0  0  0  0  0  0
   -5.2350   15.9420  -32.1950 C   0  0  0  0  0  0  0  0  0  0  0  0
   -3.1804   17.1988  -32.3654 H   0  0  0  0  0  0  0  0  0  0  0  0
   -2.5975   16.5074  -33.9175 H   0  0  0  0  0  0  0  0  0  0  0  0
   -3.5871   18.0065  -33.9175 H   0  0  0  0  0  0  0  0  0  0  0  0
   -5.1023   17.5574  -35.0988 H   0  0  0  0  0  0  0  0  0  0  0  0
   -6.0379   15.9846  -35.0729 H   0  0  0  0  0  0  0  0  0  0  0  0
   -7.1994   18.3116  -34.4581 H   0  0  0  0  0  0  0  0  0  0  0  0
   -7.6171   16.7700  -33.6234 H   0  0  0  0  0  0  0  0  0  0  0  0
   -8.6272   19.5476  -33.0664 H   0  0  0  0  0  0  0  0  0  0  0  0
   -8.9584   21.9990  -32.6129 H   0  0  0  0  0  0  0  0  0  0  0  0
   -7.6488   24.3152  -31.5521 H   0  0  0  0  0  0  0  0  0  0  0  0
   -3.0330   25.3080  -30.6370 H   0  0  0  0  0  0  0  0  0  0  0  0
   -3.3360   24.1970  -29.6420 H   0  0  0  0  0  0  0  0  0  0  0  0
   -1.4707   23.1016  -27.0801 H   0  0  0  0  0  0  0  0  0  0  0  0
   -2.3163   21.7133  -27.8444 H   0  0  0  0  0  0  0  0  0  0  0  0
   -0.5213   21.7821  -27.8444 H   0  0  0  0  0  0  0  0  0  0  0  0
    0.1015   21.7353  -29.7843 H   0  0  0  0  0  0  0  0  0  0  0  0
   -1.2835   21.7657  -30.9278 H   0  0  0  0  0  0  0  0  0  0  0  0
   -0.0891   23.1074  -30.9278 H   0  0  0  0  0  0  0  0  0  0  0  0
   -4.6216   19.7716  -31.3566 H   0  0  0  0  0  0  0  0  0  0  0  0
   -4.9564   17.7534  -31.0430 H   0  0  0  0  0  0  0  0  0  0  0  0
   -6.5389   16.9236  -30.7815 H   0  0  0  0  0  0  0  0  0  0  0  0
   -4.4550   15.5100  -31.5508 H   0  0  0  0  0  0  0  0  0  0  0  0
   -6.0706   15.2395  -32.3303 H   0  0  0  0  0  0  0  0  0  0  0  0
  1  2  1  0
  2  3  1  0
  3  4  1  0
  4  5  1  0
  5  6  1  0
  6  7  2  0
  7  8  1  0
  8  9  2  0
  9 10  1  0
 10 11  2  0
 11 12  1  0
 12 13  1  0
 12 14  2  0
 11 15  1  0
 15 16  1  0
 16 17  2  0
 16 18  1  0
 18 19  1  0
 19 20  1  0
 19 21  1  0
 19 22  1  0
 22 23  2  0
 22 24  1  0
 15 25  1  0
 25 26  2  0
  5 27  1  0
 27 28  1  0
 28  2  1  0
 26  6  1  0
 25  9  1  0
  1 29  1  0
  1 30  1  0
  1 31  1  0
  3 32  1  0
  3 33  1  0
  4 34  1  0
  4 35  1  0
  7 36  1  0
  8 37  1  0
 10 38  1  0
 13 39  1  0
 18 40  1  0
 20 41  1  0
 20 42  1  0
 20 43  1  0
 21 44  1  0
 21 45  1  0
 21 46  1  0
 26 47  1  0
 27 48  1  0
 27 49  1  0
 28 50  1  0
 28 51  1  0
M  CHG  2  13  -1  24  -1
M  END
>  <UniqueID>  (52) 
51

>  <SMILES>  (52) 
CN1CCN(c2ccc3cc(C([NH-])=O)n(C(=O)NC(C)(C)C(=O)[O-])c3c2)CC1

>  <Energy>  (52) 
101.33192821158575

>  <Genealogy>  (52) 
CN1CCN(c2ccc3cc(C([NH-])=O)n(C(=O)NC(C)(C)C(=O)[O-])c3c2)CC1 (protonated)
CN1CCN(c2ccc3cc(C([NH-])=O)n(C(=O)NC(C)(C)C(=O)[O-])c3c2)CC1 (3D coordinates assigned)
CN1CCN(c2ccc3cc(C([NH-])=O)n(C(=O)NC(C)(C)C(=O)[O-])c3c2)CC1 (nonaromatic ring conformer: 101.33192821158575 kcal/mol)

>  <smiles>  (52) 
CN1CCN(c2ccc3cc(C(N)=O)n(C(=O)NC(C)(C)C(=O)O)c3c2)CC1

>  <score_type>  (52) 
oracle

>  <origin>  (52) 
adg

>  <m_score__min__energy>  (52) 
-13.42

>  <m_primary>  (52) 
energy

$$$$
52:0
     RDKit          3D

 32 33  0  0  0  0  0  0  0  0999 V2000
   -3.1862   20.4797  -30.0449 H   0  0  0  0  0  0  0  0  0  0  0  0
   -3.4380   21.5050  -29.7360 C   0  0  0  0  0  0  0  0  0  0  0  0
   -3.9140   22.4310  -30.7890 C   0  0  0  0  0  0  0  0  0  0  0  0
   -3.1030   23.0980  -31.4850 O   0  0  0  0  0  0  0  0  0  0  0  0
   -5.3240   22.6230  -30.9820 N   0  0  0  0  0  0  0  0  0  0  0  0
   -6.0420   23.7730  -30.8280 C   0  0  0  0  0  0  0  0  0  0  0  0
   -5.5150   25.0430  -30.2820 C   0  0  0  0  0  0  0  0  0  0  0  0
   -6.2270   25.7450  -29.5160 O   0  0  0  0  0  0  0  0  0  0  0  0
   -4.2100   25.5060  -30.6350 N   0  0  0  0  0  0  0  0  0  0  0  0
   -3.8640   26.4220  -30.2720 H   0  0  0  0  0  0  0  0  0  0  0  0
   -3.5680   24.9270  -31.2180 H   0  0  0  0  0  0  0  0  0  0  0  0
   -7.3780   23.5620  -31.1680 C   0  0  0  0  0  0  0  0  0  0  0  0
   -8.1951   24.2982  -31.1492 H   0  0  0  0  0  0  0  0  0  0  0  0
   -7.4570   22.2370  -31.5320 C   0  0  0  0  0  0  0  0  0  0  0  0
   -8.5510   21.4880  -31.9580 C   0  0  0  0  0  0  0  0  0  0  0  0
   -9.5508   21.9395  -32.0393 H   0  0  0  0  0  0  0  0  0  0  0  0
   -8.3370   20.1360  -32.2810 C   0  0  0  0  0  0  0  0  0  0  0  0
   -9.1831   19.5130  -32.6065 H   0  0  0  0  0  0  0  0  0  0  0  0
   -7.0420   19.5690  -32.1910 C   0  0  0  0  0  0  0  0  0  0  0  0
   -6.8350   18.1180  -32.5090 C   0  0  0  0  0  0  0  0  0  0  0  0
   -6.7533   17.5456  -31.5732 H   0  0  0  0  0  0  0  0  0  0  0  0
   -7.6891   17.7453  -33.0935 H   0  0  0  0  0  0  0  0  0  0  0  0
   -5.9108   17.9989  -33.0935 H   0  0  0  0  0  0  0  0  0  0  0  0
   -5.9610   20.3550  -31.7380 C   0  0  0  0  0  0  0  0  0  0  0  0
   -4.9521   19.9265  -31.6451 H   0  0  0  0  0  0  0  0  0  0  0  0
   -6.2050   21.6930  -31.4100 C   0  0  0  0  0  0  0  0  0  0  0  0
   -3.2870   21.8090  -28.4350 C   0  0  0  0  0  0  0  0  0  0  0  0
   -3.6060   23.4140  -27.7750 Cl  0  0  0  0  0  0  0  0  0  0  0  0
   -2.7950   20.7560  -27.4890 C   0  0  0  0  0  0  0  0  0  0  0  0
   -2.9518   21.0915  -26.4532 H   0  0  0  0  0  0  0  0  0  0  0  0
   -3.3498   19.8216  -27.6597 H   0  0  0  0  0  0  0  0  0  0  0  0
   -1.7223   20.5820  -27.6597 H   0  0  0  0  0  0  0  0  0  0  0  0
  1  2  1  0
  2  3  1  0
  3  4  2  0
  3  5  1  0
  5  6  1  0
  6  7  1  0
  7  8  2  0
  7  9  1  0
  9 10  1  0
  9 11  1  0
  6 12  2  0
 12 13  1  0
 12 14  1  0
 14 15  2  0
 15 16  1  0
 15 17  1  0
 17 18  1  0
 17 19  2  0
 19 20  1  0
 20 21  1  0
 20 22  1  0
 20 23  1  0
 19 24  1  0
 24 25  1  0
 24 26  2  0
  2 27  2  0
 27 28  1  0
 27 29  1  0
 29 30  1  0
 29 31  1  0
 29 32  1  0
 26  5  1  0
 26 14  1  0
M  END
>  <UniqueID>  (53) 
52

>  <SMILES>  (53) 
C/C(Cl)=C/C(=O)n1c(C(N)=O)cc2ccc(C)cc21

>  <Energy>  (53) 
70.78155442097808

>  <Genealogy>  (53) 
C/C(Cl)=C/C(=O)n1c(C(N)=O)cc2ccc(C)cc21 (cis-trans isomerization)
C/C(Cl)=C/C(=O)n1c(C(N)=O)cc2ccc(C)cc21 (3D coordinates assigned)
C/C(Cl)=C/C(=O)n1c(C(N)=O)cc2ccc(C)cc21 (optimized conformer: 70.78155442097808 kcal/mol)

>  <smiles>  (53) 
CC(Cl)=CC(=O)n1c(C(N)=O)cc2ccc(C)cc21

>  <score_type>  (53) 
oracle

>  <origin>  (53) 
adg

>  <m_score__min__energy>  (53) 
-8.6899999999999995

>  <m_primary>  (53) 
energy

$$$$
53:0
     RDKit          3D

 39 40  0  0  0  0  0  0  0  0999 V2000
   -7.5840   22.6560  -31.1340 C   0  0  0  0  0  0  0  0  0  0  0  0
   -7.0840   21.2160  -31.2510 C   0  0  0  0  0  0  0  0  0  0  0  0
   -6.6600   20.8500  -32.6900 C   0  0  2  0  0  0  0  0  0  0  0  0
   -7.7610   20.0970  -33.4500 C   0  0  0  0  0  0  0  0  0  0  0  0
   -5.4120   20.0600  -32.6760 N   0  0  0  0  0  0  0  0  0  0  0  0
   -5.3650   18.7100  -33.2550 C   0  0  0  0  0  0  0  0  0  0  0  0
   -4.2310   20.5810  -32.0330 C   0  0  0  0  0  0  0  0  0  0  0  0
   -3.0370   19.8120  -31.9910 C   0  0  0  0  0  0  0  0  0  0  0  0
   -1.8840   20.3080  -31.3630 C   0  0  0  0  0  0  0  0  0  0  0  0
   -1.9440   21.5750  -30.7940 C   0  0  0  0  0  0  0  0  0  0  0  0
   -0.9830   22.2830  -30.1080 C   0  0  0  0  0  0  0  0  0  0  0  0
   -1.5900   23.4870  -29.7580 C   0  0  0  0  0  0  0  0  0  0  0  0
   -0.8860   24.5990  -29.0840 C   0  0  0  0  0  0  0  0  0  0  0  0
   -1.5230   25.8650  -28.9070 N   0  0  0  0  0  0  0  0  0  0  0  0
    0.2760   24.4290  -28.6280 O   0  0  0  0  0  0  0  0  0  0  0  0
   -2.8770   23.5230  -30.2090 N   0  0  0  0  0  0  0  0  0  0  0  0
   -3.8500   24.5590  -29.9930 C   0  0  0  0  0  0  0  0  0  0  0  0
   -4.6580   24.4840  -29.0300 O   0  0  0  0  0  0  0  0  0  0  0  0
   -3.8970   25.6650  -30.8330 O   0  0  0  0  0  0  0  0  0  0  0  0
   -3.0780   22.3440  -30.8430 C   0  0  0  0  0  0  0  0  0  0  0  0
   -4.2480   21.8680  -31.4450 C   0  0  0  0  0  0  0  0  0  0  0  0
   -7.6779   22.9264  -30.0719 H   0  0  0  0  0  0  0  0  0  0  0  0
   -6.8685   23.3335  -31.6230 H   0  0  0  0  0  0  0  0  0  0  0  0
   -8.5654   22.7443  -31.6230 H   0  0  0  0  0  0  0  0  0  0  0  0
   -6.2177   21.0886  -30.5852 H   0  0  0  0  0  0  0  0  0  0  0  0
   -7.9136   20.5512  -30.9687 H   0  0  0  0  0  0  0  0  0  0  0  0
   -6.4840   21.7949  -33.2250 H   0  0  0  0  0  0  0  0  0  0  0  0
   -8.4477   19.6273  -32.7304 H   0  0  0  0  0  0  0  0  0  0  0  0
   -8.3191   20.8034  -34.0821 H   0  0  0  0  0  0  0  0  0  0  0  0
   -7.3051   19.3207  -34.0821 H   0  0  0  0  0  0  0  0  0  0  0  0
   -5.3391   17.9649  -32.4462 H   0  0  0  0  0  0  0  0  0  0  0  0
   -6.2580   18.5461  -33.8761 H   0  0  0  0  0  0  0  0  0  0  0  0
   -4.4628   18.6086  -33.8761 H   0  0  0  0  0  0  0  0  0  0  0  0
   -3.0160   18.8155  -32.4564 H   0  0  0  0  0  0  0  0  0  0  0  0
   -0.9604   19.7120  -31.3222 H   0  0  0  0  0  0  0  0  0  0  0  0
    0.0460   21.9653  -29.8838 H   0  0  0  0  0  0  0  0  0  0  0  0
   -1.0330   26.6320  -28.3950 H   0  0  0  0  0  0  0  0  0  0  0  0
   -2.4630   26.0610  -29.3170 H   0  0  0  0  0  0  0  0  0  0  0  0
   -5.1612   22.4810  -31.4608 H   0  0  0  0  0  0  0  0  0  0  0  0
  1  2  1  0
  2  3  1  0
  3  4  1  0
  3  5  1  0
  5  6  1  0
  5  7  1  0
  7  8  2  0
  8  9  1  0
  9 10  2  0
 10 11  1  0
 11 12  2  0
 12 13  1  0
 13 14  1  0
 13 15  2  0
 12 16  1  0
 16 17  1  0
 17 18  2  0
 17 19  1  0
 16 20  1  0
 20 21  2  0
 21  7  1  0
 20 10  1  0
  1 22  1  0
  1 23  1  0
  1 24  1  0
  2 25  1  0
  2 26  1  0
  3 27  1  6
  4 28  1  0
  4 29  1  0
  4 30  1  0
  6 31  1  0
  6 32  1  0
  6 33  1  0
  8 34  1  0
  9 35  1  0
 11 36  1  0
 14 37  1  0
 14 38  1  0
 21 39  1  0
M  CHG  1  19  -1
M  END
>  <UniqueID>  (54) 
53

>  <SMILES>  (54) 
CC[C@H](C)N(C)c1ccc2cc(C(N)=O)n(C(=O)[O-])c2c1

>  <Energy>  (54) 
76.40744371012126

>  <Genealogy>  (54) 
CCC(C)N(C)c1ccc2cc(C(N)=O)n(C(=O)[O-])c2c1 (protonated)
CC[C@H](C)N(C)c1ccc2cc(C(N)=O)n(C(=O)[O-])c2c1 (chirality)
CC[C@H](C)N(C)c1ccc2cc(C(N)=O)n(C(=O)[O-])c2c1 (3D coordinates assigned)
CC[C@H](C)N(C)c1ccc2cc(C(N)=O)n(C(=O)[O-])c2c1 (optimized conformer: 76.40744371012126 kcal/mol)

>  <smiles>  (54) 
CCC(C)N(C)c1ccc2cc(C(N)=O)n(C(=O)O)c2c1

>  <score_type>  (54) 
oracle

>  <origin>  (54) 
adg

>  <m_score__min__energy>  (54) 
-9

>  <m_primary>  (54) 
energy

$$$$
54:0
     RDKit          3D

 35 36  0  0  0  0  0  0  0  0999 V2000
   -5.7130   18.0810  -34.7390 C   0  0  0  0  0  0  0  0  0  0  0  0
   -5.5170   18.1650  -33.2290 C   0  0  0  0  0  0  0  0  0  0  0  0
   -5.9080   19.5250  -32.7170 C   0  0  0  0  0  0  0  0  0  0  0  0
   -7.2520   19.9660  -32.8170 C   0  0  0  0  0  0  0  0  0  0  0  0
   -7.6220   21.2420  -32.3600 C   0  0  0  0  0  0  0  0  0  0  0  0
   -6.6280   22.0580  -31.8280 C   0  0  0  0  0  0  0  0  0  0  0  0
   -6.7110   23.3260  -31.3000 C   0  0  0  0  0  0  0  0  0  0  0  0
   -5.4120   23.6560  -30.9220 C   0  0  0  0  0  0  0  0  0  0  0  0
   -5.0340   24.9810  -30.3860 C   0  0  0  0  0  0  0  0  0  0  0  0
   -3.8670   25.6550  -30.8490 N   0  0  0  0  0  0  0  0  0  0  0  0
   -5.7780   25.5470  -29.5420 O   0  0  0  0  0  0  0  0  0  0  0  0
   -4.5590   22.6280  -31.1960 N   0  0  0  0  0  0  0  0  0  0  0  0
   -3.1560   22.5380  -30.9010 C   0  0  0  0  0  0  0  0  0  0  0  0
   -2.4870   21.5510  -31.3140 O   0  0  0  0  0  0  0  0  0  0  0  0
   -2.5340   23.5610  -30.1810 O   0  0  0  0  0  0  0  0  0  0  0  0
   -2.1360   23.4160  -28.8220 C   0  0  0  0  0  0  0  0  0  0  0  0
   -2.1000   24.7830  -28.1460 C   0  0  0  0  0  0  0  0  0  0  0  0
   -1.5250   25.7370  -28.9970 O   0  0  0  0  0  0  0  0  0  0  0  0
   -5.3190   21.6590  -31.7520 C   0  0  0  0  0  0  0  0  0  0  0  0
   -4.9260   20.3850  -32.1790 C   0  0  0  0  0  0  0  0  0  0  0  0
   -6.7040   17.6563  -34.9570 H   0  0  0  0  0  0  0  0  0  0  0  0
   -5.6420   19.0886  -35.1746 H   0  0  0  0  0  0  0  0  0  0  0  0
   -4.9344   17.4375  -35.1746 H   0  0  0  0  0  0  0  0  0  0  0  0
   -6.1413   17.4021  -32.7408 H   0  0  0  0  0  0  0  0  0  0  0  0
   -4.4550   17.9926  -33.0000 H   0  0  0  0  0  0  0  0  0  0  0  0
   -8.0118   19.3030  -33.2564 H   0  0  0  0  0  0  0  0  0  0  0  0
   -8.6652   21.5855  -32.4208 H   0  0  0  0  0  0  0  0  0  0  0  0
   -7.6128   23.9476  -31.1981 H   0  0  0  0  0  0  0  0  0  0  0  0
   -2.9130   25.3010  -30.6140 H   0  0  0  0  0  0  0  0  0  0  0  0
   -2.8543   22.7682  -28.2981 H   0  0  0  0  0  0  0  0  0  0  0  0
   -1.1335   22.9648  -28.7831 H   0  0  0  0  0  0  0  0  0  0  0  0
   -3.1264   25.0912  -27.8979 H   0  0  0  0  0  0  0  0  0  0  0  0
   -1.4937   24.7113  -27.2310 H   0  0  0  0  0  0  0  0  0  0  0  0
   -2.0030   25.6730  -29.8650 H   0  0  0  0  0  0  0  0  0  0  0  0
   -3.8777   20.0619  -32.0973 H   0  0  0  0  0  0  0  0  0  0  0  0
  1  2  1  0
  2  3  1  0
  3  4  2  0
  4  5  1  0
  5  6  2  0
  6  7  1  0
  7  8  2  0
  8  9  1  0
  9 10  1  0
  9 11  2  0
  8 12  1  0
 12 13  1  0
 13 14  2  0
 13 15  1  0
 15 16  1  0
 16 17  1  0
 17 18  1  0
 12 19  1  0
 19 20  2  0
 20  3  1  0
 19  6  1  0
  1 21  1  0
  1 22  1  0
  1 23  1  0
  2 24  1  0
  2 25  1  0
  4 26  1  0
  5 27  1  0
  7 28  1  0
 10 29  1  0
 16 30  1  0
 16 31  1  0
 17 32  1  0
 17 33  1  0
 18 34  1  0
 20 35  1  0
M  CHG  1  10  -1
M  END
>  <UniqueID>  (55) 
54

>  <SMILES>  (55) 
CCc1ccc2cc(C([NH-])=O)n(C(=O)OCCO)c2c1

>  <Energy>  (55) 
65.99776729909985

>  <Genealogy>  (55) 
CCc1ccc2cc(C([NH-])=O)n(C(=O)OCCO)c2c1 (protonated)
CCc1ccc2cc(C([NH-])=O)n(C(=O)OCCO)c2c1 (3D coordinates assigned)
CCc1ccc2cc(C([NH-])=O)n(C(=O)OCCO)c2c1 (optimized conformer: 65.99776729909985 kcal/mol)

>  <smiles>  (55) 
CCc1ccc2cc(C(N)=O)n(C(=O)OCCO)c2c1

>  <score_type>  (55) 
oracle

>  <origin>  (55) 
adg

>  <m_score__min__energy>  (55) 
-10.039999999999999

>  <m_primary>  (55) 
energy

$$$$
55:0
     RDKit          3D

 27 28  0  0  0  0  0  0  0  0999 V2000
   -4.2160   25.5170  -30.6450 N   0  0  0  0  0  0  0  0  0  0  0  0
   -5.5660   25.1020  -30.4220 C   0  0  0  0  0  0  0  0  0  0  0  0
   -6.3440   25.8670  -29.7950 O   0  0  0  0  0  0  0  0  0  0  0  0
   -6.0460   23.7850  -30.9020 C   0  0  0  0  0  0  0  0  0  0  0  0
   -7.3900   23.4420  -31.0600 C   0  0  0  0  0  0  0  0  0  0  0  0
   -7.3830   22.1620  -31.5660 C   0  0  0  0  0  0  0  0  0  0  0  0
   -8.4440   21.3230  -31.8920 C   0  0  0  0  0  0  0  0  0  0  0  0
   -8.1440   20.0330  -32.3620 C   0  0  0  0  0  0  0  0  0  0  0  0
   -6.7980   19.6060  -32.4890 C   0  0  0  0  0  0  0  0  0  0  0  0
   -6.4990   18.2160  -32.9750 C   0  0  0  0  0  0  0  0  0  0  0  0
   -6.2120   18.2480  -34.3270 F   0  0  0  0  0  0  0  0  0  0  0  0
   -7.5950   17.4020  -32.7600 F   0  0  0  0  0  0  0  0  0  0  0  0
   -5.7480   20.4850  -32.1440 C   0  0  0  0  0  0  0  0  0  0  0  0
   -6.0770   21.7700  -31.7000 C   0  0  0  0  0  0  0  0  0  0  0  0
   -5.2460   22.7590  -31.3050 N   0  0  0  0  0  0  0  0  0  0  0  0
   -3.8120   22.6950  -31.2420 C   0  0  0  0  0  0  0  0  0  0  0  0
   -3.1480   22.5060  -32.2960 O   0  0  0  0  0  0  0  0  0  0  0  0
   -3.1020   22.8250  -29.9640 C   0  0  0  0  0  0  0  0  0  0  0  0
   -2.4680   23.8780  -29.6850 O   0  0  0  0  0  0  0  0  0  0  0  0
   -3.8830   26.4330  -30.2680 H   0  0  0  0  0  0  0  0  0  0  0  0
   -3.5550   24.9470  -31.2160 H   0  0  0  0  0  0  0  0  0  0  0  0
   -8.2682   24.0629  -30.8291 H   0  0  0  0  0  0  0  0  0  0  0  0
   -9.4859   21.6592  -31.7851 H   0  0  0  0  0  0  0  0  0  0  0  0
   -8.9609   19.3483  -32.6338 H   0  0  0  0  0  0  0  0  0  0  0  0
   -5.6332   17.8195  -32.4243 H   0  0  0  0  0  0  0  0  0  0  0  0
   -4.6978   20.1672  -32.2224 H   0  0  0  0  0  0  0  0  0  0  0  0
   -3.1234   21.9950  -29.2424 H   0  0  0  0  0  0  0  0  0  0  0  0
  1  2  1  0
  2  3  2  0
  2  4  1  0
  4  5  2  0
  5  6  1  0
  6  7  2  0
  7  8  1  0
  8  9  2  0
  9 10  1  0
 10 11  1  0
 10 12  1  0
  9 13  1  0
 13 14  2  0
 14 15  1  0
 15 16  1  0
 16 17  2  0
 16 18  1  0
 18 19  2  0
 15  4  1  0
 14  6  1  0
  1 20  1  0
  1 21  1  0
  5 22  1  0
  7 23  1  0
  8 24  1  0
 10 25  1  0
 13 26  1  0
 18 27  1  0
M  END
>  <UniqueID>  (56) 
55

>  <SMILES>  (56) 
NC(=O)c1cc2ccc(C(F)F)cc2n1C(=O)C=O

>  <Energy>  (56) 
66.01754805204214

>  <Genealogy>  (56) 
NC(=O)c1cc2ccc(C(F)F)cc2n1C(=O)C=O (3D coordinates assigned)
NC(=O)c1cc2ccc(C(F)F)cc2n1C(=O)C=O (optimized conformer: 66.01754805204214 kcal/mol)

>  <smiles>  (56) 
NC(=O)c1cc2ccc(C(F)F)cc2n1C(=O)C=O

>  <score_type>  (56) 
oracle

>  <origin>  (56) 
adg

>  <m_score__min__energy>  (56) 
-7.54

>  <m_primary>  (56) 
energy

$$$$
56:0
     RDKit          3D

 40 41  0  0  0  0  0  0  0  0999 V2000
   -6.0690   18.9310  -34.3690 C   0  0  0  0  0  0  0  0  0  0  0  0
   -5.4790   18.4450  -33.0290 C   0  0  2  0  0  0  0  0  0  0  0  0
   -6.0420   17.0920  -32.6630 C   0  0  0  0  0  0  0  0  0  0  0  0
   -6.1230   16.7520  -31.4530 O   0  0  0  0  0  0  0  0  0  0  0  0
   -6.5290   16.2350  -33.6450 O   0  0  0  0  0  0  0  0  0  0  0  0
   -5.6220   19.4130  -31.9030 N   0  0  2  0  0  0  0  0  0  0  0  0
   -6.8250   20.2720  -31.9800 C   0  0  0  0  0  0  0  0  0  0  0  0
   -4.3980   20.1760  -31.6920 C   0  0  0  0  0  0  0  0  0  0  0  0
   -3.1790   19.8570  -32.3630 C   0  0  0  0  0  0  0  0  0  0  0  0
   -2.0070   20.5960  -32.1250 C   0  0  0  0  0  0  0  0  0  0  0  0
   -2.0650   21.6370  -31.2060 C   0  0  0  0  0  0  0  0  0  0  0  0
   -1.0870   22.5150  -30.7920 C   0  0  0  0  0  0  0  0  0  0  0  0
   -1.7060   23.3410  -29.8550 C   0  0  0  0  0  0  0  0  0  0  0  0
   -1.0070   24.3980  -29.0970 C   0  0  0  0  0  0  0  0  0  0  0  0
   -1.6030   25.6850  -28.9570 N   0  0  0  0  0  0  0  0  0  0  0  0
    0.1230   24.1820  -28.5840 O   0  0  0  0  0  0  0  0  0  0  0  0
   -3.0120   22.9860  -29.7020 N   0  0  0  0  0  0  0  0  0  0  0  0
   -4.0050   23.6090  -28.8760 C   0  0  0  0  0  0  0  0  0  0  0  0
   -3.9030   23.5450  -27.6220 O   0  0  0  0  0  0  0  0  0  0  0  0
   -5.2200   24.2310  -29.4920 C   0  0  0  0  0  0  0  0  0  0  0  0
   -4.8490   24.8820  -30.7860 C   0  0  0  0  0  0  0  0  0  0  0  0
   -3.8700   25.6710  -30.8390 O   0  0  0  0  0  0  0  0  0  0  0  0
   -5.5540   24.5800  -31.9440 O   0  0  0  0  0  0  0  0  0  0  0  0
   -3.2150   21.9430  -30.5310 C   0  0  0  0  0  0  0  0  0  0  0  0
   -4.3990   21.2360  -30.7500 C   0  0  0  0  0  0  0  0  0  0  0  0
   -6.9045   19.6193  -34.1736 H   0  0  0  0  0  0  0  0  0  0  0  0
   -5.2905   19.4534  -34.9444 H   0  0  0  0  0  0  0  0  0  0  0  0
   -6.4326   18.0669  -34.9444 H   0  0  0  0  0  0  0  0  0  0  0  0
   -4.3947   18.3581  -33.1927 H   0  0  0  0  0  0  0  0  0  0  0  0
   -5.7680   18.8400  -31.0380 H   0  0  0  0  0  0  0  0  0  0  0  0
   -7.1669   20.5161  -30.9634 H   0  0  0  0  0  0  0  0  0  0  0  0
   -6.5791   21.2000  -32.5169 H   0  0  0  0  0  0  0  0  0  0  0  0
   -7.6230   19.7382  -32.5169 H   0  0  0  0  0  0  0  0  0  0  0  0
   -3.1564   19.0205  -33.0769 H   0  0  0  0  0  0  0  0  0  0  0  0
   -1.0709   20.3572  -32.6510 H   0  0  0  0  0  0  0  0  0  0  0  0
   -0.0407   22.5555  -31.1291 H   0  0  0  0  0  0  0  0  0  0  0  0
   -2.6360   25.8100  -29.0390 H   0  0  0  0  0  0  0  0  0  0  0  0
   -5.9756   23.4533  -29.6769 H   0  0  0  0  0  0  0  0  0  0  0  0
   -5.6302   24.9875  -28.8069 H   0  0  0  0  0  0  0  0  0  0  0  0
   -5.3162   21.4966  -30.2016 H   0  0  0  0  0  0  0  0  0  0  0  0
  1  2  1  0
  2  3  1  0
  3  4  2  0
  3  5  1  0
  2  6  1  0
  6  7  1  0
  6  8  1  0
  8  9  2  0
  9 10  1  0
 10 11  2  0
 11 12  1  0
 12 13  2  0
 13 14  1  0
 14 15  1  0
 14 16  2  0
 13 17  1  0
 17 18  1  0
 18 19  2  0
 18 20  1  0
 20 21  1  0
 21 22  2  0
 21 23  1  0
 17 24  1  0
 24 25  2  0
 25  8  1  0
 24 11  1  0
  1 26  1  0
  1 27  1  0
  1 28  1  0
  2 29  1  6
  6 30  1  1
  7 31  1  0
  7 32  1  0
  7 33  1  0
  9 34  1  0
 10 35  1  0
 12 36  1  0
 15 37  1  0
 20 38  1  0
 20 39  1  0
 25 40  1  0
M  CHG  4   5  -1   6   1  15  -1  23  -1
M  END
>  <UniqueID>  (57) 
56

>  <SMILES>  (57) 
C[C@H](C(=O)[O-])[N@H+](C)c1ccc2cc(C([NH-])=O)n(C(=O)CC(=O)[O-])c2c1

>  <Energy>  (57) 
86.43389633640837

>  <Genealogy>  (57) 
CC(C(=O)[O-])[NH+](C)c1ccc2cc(C([NH-])=O)n(C(=O)CC(=O)[O-])c2c1 (protonated)
C[C@H](C(=O)[O-])[N@H+](C)c1ccc2cc(C([NH-])=O)n(C(=O)CC(=O)[O-])c2c1 (chirality)
C[C@H](C(=O)[O-])[N@H+](C)c1ccc2cc(C([NH-])=O)n(C(=O)CC(=O)[O-])c2c1 (3D coordinates assigned)
C[C@H](C(=O)[O-])[N@H+](C)c1ccc2cc(C([NH-])=O)n(C(=O)CC(=O)[O-])c2c1 (optimized conformer: 86.43389633640837 kcal/mol)

>  <smiles>  (57) 
CC(C(=O)O)N(C)c1ccc2cc(C(N)=O)n(C(=O)CC(=O)O)c2c1

>  <score_type>  (57) 
oracle

>  <origin>  (57) 
adg

>  <m_score__min__energy>  (57) 
-11.27

>  <m_primary>  (57) 
energy

$$$$
57:0
     RDKit          3D

 42 44  0  0  0  0  0  0  0  0999 V2000
   -3.9210   25.6690  -30.8580 N   0  0  0  0  0  0  0  0  0  0  0  0
   -5.2260   25.2840  -30.4330 C   0  0  0  0  0  0  0  0  0  0  0  0
   -5.9030   26.0820  -29.7300 O   0  0  0  0  0  0  0  0  0  0  0  0
   -5.8090   23.9860  -30.8320 C   0  0  0  0  0  0  0  0  0  0  0  0
   -7.1660   23.8000  -31.0930 C   0  0  0  0  0  0  0  0  0  0  0  0
   -7.2840   22.4920  -31.5040 C   0  0  0  0  0  0  0  0  0  0  0  0
   -8.4070   21.7770  -31.9080 C   0  0  0  0  0  0  0  0  0  0  0  0
   -8.2350   20.4360  -32.2870 C   0  0  0  0  0  0  0  0  0  0  0  0
   -6.9520   19.8330  -32.2400 C   0  0  0  0  0  0  0  0  0  0  0  0
   -6.7660   18.4040  -32.6650 C   0  0  0  0  0  0  0  0  0  0  0  0
   -6.4880   18.3490  -34.0180 F   0  0  0  0  0  0  0  0  0  0  0  0
   -7.9230   17.6910  -32.4060 F   0  0  0  0  0  0  0  0  0  0  0  0
   -5.8370   20.5870  -31.8170 C   0  0  0  0  0  0  0  0  0  0  0  0
   -6.0340   21.9290  -31.4730 C   0  0  0  0  0  0  0  0  0  0  0  0
   -5.1160   22.8360  -31.0690 N   0  0  0  0  0  0  0  0  0  0  0  0
   -3.7050   22.6130  -30.9020 C   0  0  0  0  0  0  0  0  0  0  0  0
   -2.9630   22.5320  -31.9170 O   0  0  0  0  0  0  0  0  0  0  0  0
   -3.0910   22.4910  -29.5390 C   0  0  0  0  0  0  0  0  0  0  0  0
   -3.1020   23.7540  -28.8810 O   0  0  0  0  0  0  0  0  0  0  0  0
   -1.9410   24.4100  -28.4690 C   0  0  0  0  0  0  0  0  0  0  0  0
   -1.6040   25.5060  -28.9970 O   0  0  0  0  0  0  0  0  0  0  0  0
   -1.1400   23.8390  -27.4290 N   0  0  0  0  0  0  0  0  0  0  0  0
   -1.5050   22.6200  -26.7300 C   0  0  0  0  0  0  0  0  0  0  0  0
   -0.5100   22.4960  -25.5830 C   0  0  0  0  0  0  0  0  0  0  0  0
    0.6390   23.4470  -25.9170 C   0  0  0  0  0  0  0  0  0  0  0  0
    0.0800   24.4410  -26.9280 C   0  0  0  0  0  0  0  0  0  0  0  0
   -3.0700   25.2970  -30.3810 H   0  0  0  0  0  0  0  0  0  0  0  0
   -7.9718   24.5419  -30.9918 H   0  0  0  0  0  0  0  0  0  0  0  0
   -9.4006   22.2485  -31.9299 H   0  0  0  0  0  0  0  0  0  0  0  0
   -9.1021   19.8484  -32.6230 H   0  0  0  0  0  0  0  0  0  0  0  0
   -5.9276   17.9666  -32.1031 H   0  0  0  0  0  0  0  0  0  0  0  0
   -4.8376   20.1312  -31.7591 H   0  0  0  0  0  0  0  0  0  0  0  0
   -3.6666   21.7663  -28.9445 H   0  0  0  0  0  0  0  0  0  0  0  0
   -2.0507   22.1488  -29.6427 H   0  0  0  0  0  0  0  0  0  0  0  0
   -2.5319   22.6918  -26.3422 H   0  0  0  0  0  0  0  0  0  0  0  0
   -1.4741   21.7436  -27.3940 H   0  0  0  0  0  0  0  0  0  0  0  0
   -0.9831   22.7869  -24.6335 H   0  0  0  0  0  0  0  0  0  0  0  0
   -0.1556   21.4611  -25.4673 H   0  0  0  0  0  0  0  0  0  0  0  0
    0.9765   23.9719  -25.0111 H   0  0  0  0  0  0  0  0  0  0  0  0
    1.5064   22.9050  -26.3216 H   0  0  0  0  0  0  0  0  0  0  0  0
   -0.1378   25.4031  -26.4412 H   0  0  0  0  0  0  0  0  0  0  0  0
    0.7961   24.6463  -27.7374 H   0  0  0  0  0  0  0  0  0  0  0  0
  1  2  1  0
  2  3  2  0
  2  4  1  0
  4  5  2  0
  5  6  1  0
  6  7  2  0
  7  8  1  0
  8  9  2  0
  9 10  1  0
 10 11  1  0
 10 12  1  0
  9 13  1  0
 13 14  2  0
 14 15  1  0
 15 16  1  0
 16 17  2  0
 16 18  1  0
 18 19  1  0
 19 20  1  0
 20 21  2  0
 20 22  1  0
 22 23  1  0
 23 24  1  0
 24 25  1  0
 25 26  1  0
 15  4  1  0
 26 22  1  0
 14  6  1  0
  1 27  1  0
  5 28  1  0
  7 29  1  0
  8 30  1  0
 10 31  1  0
 13 32  1  0
 18 33  1  0
 18 34  1  0
 23 35  1  0
 23 36  1  0
 24 37  1  0
 24 38  1  0
 25 39  1  0
 25 40  1  0
 26 41  1  0
 26 42  1  0
M  CHG  1   1  -1
M  END
>  <UniqueID>  (58) 
57

>  <SMILES>  (58) 
[NH-]C(=O)c1cc2ccc(C(F)F)cc2n1C(=O)COC(=O)N1CCCC1

>  <Energy>  (58) 
76.20190280376657

>  <Genealogy>  (58) 
[NH-]C(=O)c1cc2ccc(C(F)F)cc2n1C(=O)COC(=O)N1CCCC1 (protonated)
[NH-]C(=O)c1cc2ccc(C(F)F)cc2n1C(=O)COC(=O)N1CCCC1 (3D coordinates assigned)
[NH-]C(=O)c1cc2ccc(C(F)F)cc2n1C(=O)COC(=O)N1CCCC1 (nonaromatic ring conformer: 76.20190280376657 kcal/mol)

>  <smiles>  (58) 
NC(=O)c1cc2ccc(C(F)F)cc2n1C(=O)COC(=O)N1CCCC1

>  <score_type>  (58) 
oracle

>  <origin>  (58) 
adg

>  <m_score__min__energy>  (58) 
-10.449999999999999

>  <m_primary>  (58) 
energy

$$$$
58:0
     RDKit          3D

 43 45  0  0  0  0  0  0  0  0999 V2000
   -5.3560   16.4690  -32.0040 C   0  0  0  0  0  0  0  0  0  0  0  0
   -5.4900   17.9470  -32.4210 C   0  0  2  0  0  0  0  0  0  0  0  0
   -6.9670   18.4000  -32.4510 C   0  0  0  0  0  0  0  0  0  0  0  0
   -7.1170   19.8710  -32.1550 C   0  0  0  0  0  0  0  0  0  0  0  0
   -8.4020   20.4710  -32.1330 C   0  0  0  0  0  0  0  0  0  0  0  0
   -8.5530   21.8280  -31.7970 C   0  0  0  0  0  0  0  0  0  0  0  0
   -7.4070   22.5570  -31.4940 C   0  0  0  0  0  0  0  0  0  0  0  0
   -7.2700   23.8640  -31.0870 C   0  0  0  0  0  0  0  0  0  0  0  0
   -5.9020   24.0490  -30.8880 C   0  0  0  0  0  0  0  0  0  0  0  0
   -5.3030   25.3410  -30.4940 C   0  0  0  0  0  0  0  0  0  0  0  0
   -3.9620   25.6710  -30.8510 N   0  0  0  0  0  0  0  0  0  0  0  0
   -5.9950   26.1790  -29.8580 O   0  0  0  0  0  0  0  0  0  0  0  0
   -5.2230   22.8980  -31.1590 N   0  0  0  0  0  0  0  0  0  0  0  0
   -3.8200   22.6400  -30.9970 C   0  0  0  0  0  0  0  0  0  0  0  0
   -3.1790   22.0600  -31.9150 O   0  0  0  0  0  0  0  0  0  0  0  0
   -3.1600   23.0120  -29.7820 N   0  0  0  0  0  0  0  0  0  0  0  0
   -1.7150   22.9330  -29.5960 C   0  0  0  0  0  0  0  0  0  0  0  0
   -1.1620   24.2850  -29.2760 C   0  0  0  0  0  0  0  0  0  0  0  0
   -1.9090   25.2980  -29.3040 O   0  0  0  0  0  0  0  0  0  0  0  0
    0.1730   24.4210  -28.9110 O   0  0  0  0  0  0  0  0  0  0  0  0
   -6.1580   21.9960  -31.5280 C   0  0  0  0  0  0  0  0  0  0  0  0
   -5.9770   20.6470  -31.8470 C   0  0  0  0  0  0  0  0  0  0  0  0
   -4.7950   18.3330  -33.7570 C   0  0  0  0  0  0  0  0  0  0  0  0
   -5.7130   18.5420  -34.9560 C   0  0  0  0  0  0  0  0  0  0  0  0
   -4.7610   17.3570  -34.9320 C   0  0  0  0  0  0  0  0  0  0  0  0
   -5.3495   16.3968  -30.9064 H   0  0  0  0  0  0  0  0  0  0  0  0
   -6.2059   15.8966  -32.4040 H   0  0  0  0  0  0  0  0  0  0  0  0
   -4.4170   16.0588  -32.4040 H   0  0  0  0  0  0  0  0  0  0  0  0
   -4.9439   18.4872  -31.6336 H   0  0  0  0  0  0  0  0  0  0  0  0
   -7.3802   18.1956  -33.4497 H   0  0  0  0  0  0  0  0  0  0  0  0
   -7.5077   17.8417  -31.6725 H   0  0  0  0  0  0  0  0  0  0  0  0
   -9.2887   19.8692  -32.3811 H   0  0  0  0  0  0  0  0  0  0  0  0
   -9.5468   22.2990  -31.7743 H   0  0  0  0  0  0  0  0  0  0  0  0
   -8.0700   24.6060  -30.9480 H   0  0  0  0  0  0  0  0  0  0  0  0
   -3.1580   25.1130  -30.4890 H   0  0  0  0  0  0  0  0  0  0  0  0
   -1.4921   22.2438  -28.7682 H   0  0  0  0  0  0  0  0  0  0  0  0
   -1.2527   22.5661  -30.5242 H   0  0  0  0  0  0  0  0  0  0  0  0
   -4.9717   20.2006  -31.8580 H   0  0  0  0  0  0  0  0  0  0  0  0
   -4.0158   18.9020  -33.2288 H   0  0  0  0  0  0  0  0  0  0  0  0
   -6.7960   18.3788  -34.8537 H   0  0  0  0  0  0  0  0  0  0  0  0
   -5.9029   19.3714  -35.6532 H   0  0  0  0  0  0  0  0  0  0  0  0
   -5.1552   16.3372  -34.8114 H   0  0  0  0  0  0  0  0  0  0  0  0
   -3.9778   16.9749  -35.6032 H   0  0  0  0  0  0  0  0  0  0  0  0
  1  2  1  0
  2  3  1  0
  3  4  1  0
  4  5  2  0
  5  6  1  0
  6  7  2  0
  7  8  1  0
  8  9  2  0
  9 10  1  0
 10 11  1  0
 10 12  2  0
  9 13  1  0
 13 14  1  0
 14 15  2  0
 14 16  1  0
 16 17  1  0
 17 18  1  0
 18 19  2  0
 18 20  1  0
 13 21  1  0
 21 22  2  0
  2 23  1  0
 23 24  1  0
 24 25  1  0
 22  4  1  0
 25 23  1  0
 21  7  1  0
  1 26  1  0
  1 27  1  0
  1 28  1  0
  2 29  1  1
  3 30  1  0
  3 31  1  0
  5 32  1  0
  6 33  1  0
  8 34  1  0
 11 35  1  0
 17 36  1  0
 17 37  1  0
 22 38  1  0
 23 39  1  0
 24 40  1  0
 24 41  1  0
 25 42  1  0
 25 43  1  0
M  CHG  3  11  -1  16  -1  20  -1
M  END
>  <UniqueID>  (59) 
58

>  <SMILES>  (59) 
C[C@H](Cc1ccc2cc(C([NH-])=O)n(C(=O)[N-]CC(=O)[O-])c2c1)C1CC1

>  <Energy>  (59) 
345.8036773774668

>  <Genealogy>  (59) 
CC(Cc1ccc2cc(C([NH-])=O)n(C(=O)[N-]CC(=O)[O-])c2c1)C1CC1 (protonated)
C[C@H](Cc1ccc2cc(C([NH-])=O)n(C(=O)[N-]CC(=O)[O-])c2c1)C1CC1 (chirality)
C[C@H](Cc1ccc2cc(C([NH-])=O)n(C(=O)[N-]CC(=O)[O-])c2c1)C1CC1 (3D coordinates assigned)
C[C@H](Cc1ccc2cc(C([NH-])=O)n(C(=O)[N-]CC(=O)[O-])c2c1)C1CC1 (nonaromatic ring conformer: 345.8036773774668 kcal/mol)

>  <smiles>  (59) 
CC(Cc1ccc2cc(C(N)=O)n(C(=O)NCC(=O)O)c2c1)C1CC1

>  <score_type>  (59) 
oracle

>  <origin>  (59) 
adg

>  <m_score__min__energy>  (59) 
-13.84

>  <m_primary>  (59) 
energy

$$$$
59:0
     RDKit          3D

 37 38  0  0  0  0  0  0  0  0999 V2000
   -3.0600   24.5160  -29.5350 C   0  0  0  0  0  0  0  0  0  0  0  0
   -3.8160   25.2990  -30.5000 N   0  0  0  0  0  0  0  0  0  0  0  0
   -5.2380   25.2120  -30.6200 C   0  0  0  0  0  0  0  0  0  0  0  0
   -5.9780   26.0820  -30.0870 O   0  0  0  0  0  0  0  0  0  0  0  0
   -5.8470   24.1080  -31.4260 C   0  0  0  0  0  0  0  0  0  0  0  0
   -7.2380   23.7530  -30.8830 C   0  0  0  0  0  0  0  0  0  0  0  0
   -8.1560   23.1700  -31.9650 C   0  0  0  0  0  0  0  0  0  0  0  0
   -8.0380   21.6700  -32.0590 C   0  0  0  0  0  0  0  0  0  0  0  0
   -9.1510   20.8470  -31.7590 C   0  0  0  0  0  0  0  0  0  0  0  0
   -9.0620   19.4500  -31.8800 C   0  0  0  0  0  0  0  0  0  0  0  0
   -7.8480   18.9090  -32.2970 C   0  0  0  0  0  0  0  0  0  0  0  0
   -7.5030   17.5970  -32.5320 C   0  0  0  0  0  0  0  0  0  0  0  0
   -6.1760   17.6380  -32.9490 C   0  0  0  0  0  0  0  0  0  0  0  0
   -5.3830   16.4290  -33.2460 C   0  0  0  0  0  0  0  0  0  0  0  0
   -4.6590   16.3030  -34.4710 N   0  0  0  0  0  0  0  0  0  0  0  0
   -5.2960   15.5160  -32.3820 O   0  0  0  0  0  0  0  0  0  0  0  0
   -5.7180   18.9210  -32.9850 N   0  0  0  0  0  0  0  0  0  0  0  0
   -4.4480   19.3790  -33.4790 C   0  0  0  0  0  0  0  0  0  0  0  0
   -3.9600   18.8930  -34.5330 O   0  0  0  0  0  0  0  0  0  0  0  0
   -3.7410   20.3590  -32.7950 O   0  0  0  0  0  0  0  0  0  0  0  0
   -6.7570   19.6890  -32.5790 C   0  0  0  0  0  0  0  0  0  0  0  0
   -6.8250   21.0850  -32.4850 C   0  0  0  0  0  0  0  0  0  0  0  0
   -3.3473   24.8136  -28.5157 H   0  0  0  0  0  0  0  0  0  0  0  0
   -3.2766   23.4473  -29.6797 H   0  0  0  0  0  0  0  0  0  0  0  0
   -1.9844   24.6950  -29.6797 H   0  0  0  0  0  0  0  0  0  0  0  0
   -5.9386   24.4319  -32.4732 H   0  0  0  0  0  0  0  0  0  0  0  0
   -5.2011   23.2201  -31.3599 H   0  0  0  0  0  0  0  0  0  0  0  0
   -7.1246   23.0114  -30.0785 H   0  0  0  0  0  0  0  0  0  0  0  0
   -7.7009   24.6800  -30.5138 H   0  0  0  0  0  0  0  0  0  0  0  0
   -9.1975   23.4297  -31.7246 H   0  0  0  0  0  0  0  0  0  0  0  0
   -7.8525   23.5956  -32.9329 H   0  0  0  0  0  0  0  0  0  0  0  0
  -10.0943   21.3060  -31.4281 H   0  0  0  0  0  0  0  0  0  0  0  0
   -9.9231   18.8044  -31.6528 H   0  0  0  0  0  0  0  0  0  0  0  0
   -8.1395   16.7075  -32.4152 H   0  0  0  0  0  0  0  0  0  0  0  0
   -4.5780   17.1050  -35.1350 H   0  0  0  0  0  0  0  0  0  0  0  0
   -4.1320   15.4260  -34.6810 H   0  0  0  0  0  0  0  0  0  0  0  0
   -5.9555   21.7100  -32.7367 H   0  0  0  0  0  0  0  0  0  0  0  0
  1  2  1  0
  2  3  1  0
  3  4  2  0
  3  5  1  0
  5  6  1  0
  6  7  1  0
  7  8  1  0
  8  9  2  0
  9 10  1  0
 10 11  2  0
 11 12  1  0
 12 13  2  0
 13 14  1  0
 14 15  1  0
 14 16  2  0
 13 17  1  0
 17 18  1  0
 18 19  2  0
 18 20  1  0
 17 21  1  0
 21 22  2  0
 22  8  1  0
 21 11  1  0
  1 23  1  0
  1 24  1  0
  1 25  1  0
  5 26  1  0
  5 27  1  0
  6 28  1  0
  6 29  1  0
  7 30  1  0
  7 31  1  0
  9 32  1  0
 10 33  1  0
 12 34  1  0
 15 35  1  0
 15 36  1  0
 22 37  1  0
M  CHG  2   2  -1  20  -1
M  END
>  <UniqueID>  (60) 
59

>  <SMILES>  (60) 
C[N-]C(=O)CCCc1ccc2cc(C(N)=O)n(C(=O)[O-])c2c1

>  <Energy>  (60) 
68.6339910095239

>  <Genealogy>  (60) 
C[N-]C(=O)CCCc1ccc2cc(C(N)=O)n(C(=O)[O-])c2c1 (protonated)
C[N-]C(=O)CCCc1ccc2cc(C(N)=O)n(C(=O)[O-])c2c1 (3D coordinates assigned)
C[N-]C(=O)CCCc1ccc2cc(C(N)=O)n(C(=O)[O-])c2c1 (optimized conformer: 68.6339910095239 kcal/mol)

>  <smiles>  (60) 
CNC(=O)CCCc1ccc2cc(C(N)=O)n(C(=O)O)c2c1

>  <score_type>  (60) 
oracle

>  <origin>  (60) 
adg

>  <m_score__min__energy>  (60) 
-9.6699999999999999

>  <m_primary>  (60) 
energy

$$$$
60:0
     RDKit          3D

 43 45  0  0  0  0  0  0  0  0999 V2000
   -9.1050   21.9740  -31.9730 C   0  0  0  0  0  0  0  0  0  0  0  0
   -8.1530   22.8980  -31.8600 C   0  0  0  0  0  0  0  0  0  0  0  0
   -7.0960   22.8280  -30.8320 C   0  0  0  0  0  0  0  0  0  0  0  0
   -7.3920   22.9120  -29.6080 O   0  0  0  0  0  0  0  0  0  0  0  0
   -5.7250   22.6470  -31.2190 N   0  0  0  0  0  0  0  0  0  0  0  0
   -4.6780   23.4850  -30.9680 C   0  0  0  0  0  0  0  0  0  0  0  0
   -4.7410   24.7050  -30.1300 C   0  0  0  0  0  0  0  0  0  0  0  0
   -5.4140   24.6950  -28.8700 N   0  0  0  0  0  0  0  0  0  0  0  0
   -4.2140   25.7750  -30.5340 O   0  0  0  0  0  0  0  0  0  0  0  0
   -3.5120   22.9920  -31.5520 C   0  0  0  0  0  0  0  0  0  0  0  0
   -3.8830   21.8240  -32.1790 C   0  0  0  0  0  0  0  0  0  0  0  0
   -3.1240   20.9310  -32.9280 C   0  0  0  0  0  0  0  0  0  0  0  0
   -3.7760   19.8180  -33.4860 C   0  0  0  0  0  0  0  0  0  0  0  0
   -5.1710   19.6240  -33.2990 C   0  0  0  0  0  0  0  0  0  0  0  0
   -5.8320   18.4780  -33.8770 N   0  0  0  0  0  0  0  0  0  0  0  0
   -6.9410   17.8430  -33.1360 C   0  0  0  0  0  0  0  0  0  0  0  0
   -6.8360   16.3090  -33.0710 C   0  0  0  0  0  0  0  0  0  0  0  0
   -6.4390   15.6660  -34.4150 C   0  0  0  0  0  0  0  0  0  0  0  0
   -4.9840   15.5290  -34.5900 N   0  0  0  0  0  0  0  0  0  0  0  0
   -4.3400   16.7940  -34.9720 C   0  0  0  0  0  0  0  0  0  0  0  0
   -5.3680   17.9310  -35.1650 C   0  0  0  0  0  0  0  0  0  0  0  0
   -5.9040   20.5540  -32.5280 C   0  0  0  0  0  0  0  0  0  0  0  0
   -5.2220   21.6400  -31.9660 C   0  0  0  0  0  0  0  0  0  0  0  0
   -9.8727   22.0680  -32.7552 H   0  0  0  0  0  0  0  0  0  0  0  0
   -9.1238   21.1166  -31.2842 H   0  0  0  0  0  0  0  0  0  0  0  0
   -8.1542   23.7466  -32.5600 H   0  0  0  0  0  0  0  0  0  0  0  0
   -5.4830   25.5720  -28.3080 H   0  0  0  0  0  0  0  0  0  0  0  0
   -5.8080   23.8170  -28.4690 H   0  0  0  0  0  0  0  0  0  0  0  0
   -2.5084   23.4411  -31.5188 H   0  0  0  0  0  0  0  0  0  0  0  0
   -2.0462   21.0910  -33.0790 H   0  0  0  0  0  0  0  0  0  0  0  0
   -3.1997   19.0887  -34.0742 H   0  0  0  0  0  0  0  0  0  0  0  0
   -6.9433   18.2358  -32.1085 H   0  0  0  0  0  0  0  0  0  0  0  0
   -7.8694   18.0815  -33.6756 H   0  0  0  0  0  0  0  0  0  0  0  0
   -6.0782   16.0427  -32.3195 H   0  0  0  0  0  0  0  0  0  0  0  0
   -7.8332   15.9256  -32.8090 H   0  0  0  0  0  0  0  0  0  0  0  0
   -6.8926   14.6654  -34.4704 H   0  0  0  0  0  0  0  0  0  0  0  0
   -6.8009   16.3312  -35.2128 H   0  0  0  0  0  0  0  0  0  0  0  0
   -4.8280   14.8430  -35.3650 H   0  0  0  0  0  0  0  0  0  0  0  0
   -3.6324   17.0852  -34.1817 H   0  0  0  0  0  0  0  0  0  0  0  0
   -3.8232   16.6366  -35.9302 H   0  0  0  0  0  0  0  0  0  0  0  0
   -4.8996   18.7389  -35.7463 H   0  0  0  0  0  0  0  0  0  0  0  0
   -6.2395   17.5163  -35.6927 H   0  0  0  0  0  0  0  0  0  0  0  0
   -6.9857   20.4277  -32.3729 H   0  0  0  0  0  0  0  0  0  0  0  0
  1  2  2  0
  2  3  1  0
  3  4  2  0
  3  5  1  0
  5  6  1  0
  6  7  1  0
  7  8  1  0
  7  9  2  0
  6 10  2  0
 10 11  1  0
 11 12  2  0
 12 13  1  0
 13 14  2  0
 14 15  1  0
 15 16  1  0
 16 17  1  0
 17 18  1  0
 18 19  1  0
 19 20  1  0
 20 21  1  0
 14 22  1  0
 22 23  2  0
 23  5  1  0
 23 11  1  0
 21 15  1  0
  1 24  1  0
  1 25  1  0
  2 26  1  0
  8 27  1  0
  8 28  1  0
 10 29  1  0
 12 30  1  0
 13 31  1  0
 16 32  1  0
 16 33  1  0
 17 34  1  0
 17 35  1  0
 18 36  1  0
 18 37  1  0
 19 38  1  0
 20 39  1  0
 20 40  1  0
 21 41  1  0
 21 42  1  0
 22 43  1  0
M  END
>  <UniqueID>  (61) 
60

>  <SMILES>  (61) 
C=CC(=O)n1c(C(N)=O)cc2ccc(N3CCCNCC3)cc21

>  <Energy>  (61) 
91.68107400628102

>  <Genealogy>  (61) 
C=CC(=O)n1c(C(N)=O)cc2ccc(N3CCCNCC3)cc21 (3D coordinates assigned)
C=CC(=O)n1c(C(N)=O)cc2ccc(N3CCCNCC3)cc21 (nonaromatic ring conformer: 91.68107400628102 kcal/mol)

>  <smiles>  (61) 
C=CC(=O)n1c(C(N)=O)cc2ccc(N3CCCNCC3)cc21

>  <score_type>  (61) 
oracle

>  <origin>  (61) 
adg

>  <m_score__min__energy>  (61) 
-7.2400000000000002

>  <m_primary>  (61) 
energy

$$$$
62:0
     RDKit          3D

 31 32  0  0  0  0  0  0  0  0999 V2000
   -1.2350   20.8210  -31.3260 C   0  0  0  0  0  0  0  0  0  0  0  0
   -1.5860   21.9130  -32.1490 O   0  0  0  0  0  0  0  0  0  0  0  0
   -2.9830   21.9270  -32.3680 C   0  0  0  0  0  0  0  0  0  0  0  0
   -3.6720   22.6760  -31.2650 C   0  0  0  0  0  0  0  0  0  0  0  0
   -2.9900   23.1520  -30.3180 O   0  0  0  0  0  0  0  0  0  0  0  0
   -5.0910   22.8860  -31.2980 N   0  0  0  0  0  0  0  0  0  0  0  0
   -5.7790   23.9980  -30.9170 C   0  0  0  0  0  0  0  0  0  0  0  0
   -5.1870   25.2790  -30.4690 C   0  0  0  0  0  0  0  0  0  0  0  0
   -3.8710   25.6600  -30.8600 N   0  0  0  0  0  0  0  0  0  0  0  0
   -5.8630   26.0590  -29.7470 O   0  0  0  0  0  0  0  0  0  0  0  0
   -7.1510   23.7910  -31.0500 C   0  0  0  0  0  0  0  0  0  0  0  0
   -7.2820   22.5060  -31.5250 C   0  0  0  0  0  0  0  0  0  0  0  0
   -8.4260   21.7700  -31.8180 C   0  0  0  0  0  0  0  0  0  0  0  0
   -8.2630   20.4450  -32.2600 C   0  0  0  0  0  0  0  0  0  0  0  0
   -6.9680   19.8820  -32.3910 C   0  0  0  0  0  0  0  0  0  0  0  0
   -6.7990   18.4600  -32.8440 C   0  0  0  0  0  0  0  0  0  0  0  0
   -6.4570   18.4370  -34.1830 F   0  0  0  0  0  0  0  0  0  0  0  0
   -7.9820   17.7670  -32.6630 F   0  0  0  0  0  0  0  0  0  0  0  0
   -5.8310   20.6590  -32.0790 C   0  0  0  0  0  0  0  0  0  0  0  0
   -6.0240   21.9810  -31.6620 C   0  0  0  0  0  0  0  0  0  0  0  0
   -1.3288   21.1130  -30.2696 H   0  0  0  0  0  0  0  0  0  0  0  0
   -1.9064   19.9747  -31.5336 H   0  0  0  0  0  0  0  0  0  0  0  0
   -0.1963   20.5244  -31.5336 H   0  0  0  0  0  0  0  0  0  0  0  0
   -3.1954   22.4183  -33.3290 H   0  0  0  0  0  0  0  0  0  0  0  0
   -3.3543   20.8917  -32.3859 H   0  0  0  0  0  0  0  0  0  0  0  0
   -3.0330   25.2990  -30.3520 H   0  0  0  0  0  0  0  0  0  0  0  0
   -7.9578   24.5035  -30.8234 H   0  0  0  0  0  0  0  0  0  0  0  0
   -9.4275   22.2113  -31.7072 H   0  0  0  0  0  0  0  0  0  0  0  0
   -9.1479   19.8398  -32.5063 H   0  0  0  0  0  0  0  0  0  0  0  0
   -6.0028   17.9859  -32.2514 H   0  0  0  0  0  0  0  0  0  0  0  0
   -4.8190   20.2359  -32.1616 H   0  0  0  0  0  0  0  0  0  0  0  0
  1  2  1  0
  2  3  1  0
  3  4  1  0
  4  5  2  0
  4  6  1  0
  6  7  1  0
  7  8  1  0
  8  9  1  0
  8 10  2  0
  7 11  2  0
 11 12  1  0
 12 13  2  0
 13 14  1  0
 14 15  2  0
 15 16  1  0
 16 17  1  0
 16 18  1  0
 15 19  1  0
 19 20  2  0
 20  6  1  0
 20 12  1  0
  1 21  1  0
  1 22  1  0
  1 23  1  0
  3 24  1  0
  3 25  1  0
  9 26  1  0
 11 27  1  0
 13 28  1  0
 14 29  1  0
 16 30  1  0
 19 31  1  0
M  CHG  1   9  -1
M  END
>  <UniqueID>  (62) 
61

>  <SMILES>  (62) 
COCC(=O)n1c(C([NH-])=O)cc2ccc(C(F)F)cc21

>  <Energy>  (62) 
71.38273066687019

>  <Genealogy>  (62) 
COCC(=O)n1c(C([NH-])=O)cc2ccc(C(F)F)cc21 (protonated)
COCC(=O)n1c(C([NH-])=O)cc2ccc(C(F)F)cc21 (3D coordinates assigned)
COCC(=O)n1c(C([NH-])=O)cc2ccc(C(F)F)cc21 (optimized conformer: 71.38273066687019 kcal/mol)

>  <smiles>  (62) 
COCC(=O)n1c(C(N)=O)cc2ccc(C(F)F)cc21

>  <score_type>  (62) 
oracle

>  <origin>  (62) 
adg

>  <m_score__min__energy>  (62) 
-9.0700000000000003

>  <m_primary>  (62) 
energy

$$$$
63:0
     RDKit          3D

 40 41  0  0  0  0  0  0  0  0999 V2000
   -2.8360   23.0490  -27.9140 C   0  0  0  0  0  0  0  0  0  0  0  0
   -3.5430   23.4550  -29.2120 C   0  0  2  0  0  0  0  0  0  0  0  0
   -3.3560   22.3990  -30.3110 C   0  0  0  0  0  0  0  0  0  0  0  0
   -3.9180   22.8620  -31.5350 O   0  0  0  0  0  0  0  0  0  0  0  0
   -4.7560   22.0730  -32.3290 C   0  0  0  0  0  0  0  0  0  0  0  0
   -4.3320   21.5870  -33.4150 O   0  0  0  0  0  0  0  0  0  0  0  0
   -6.1040   21.8160  -31.9070 N   0  0  0  0  0  0  0  0  0  0  0  0
   -6.9760   22.6870  -31.3250 C   0  0  0  0  0  0  0  0  0  0  0  0
   -6.6600   24.0570  -30.8770 C   0  0  0  0  0  0  0  0  0  0  0  0
   -5.6990   24.8590  -31.5660 N   0  0  0  0  0  0  0  0  0  0  0  0
   -7.2070   24.5090  -29.8360 O   0  0  0  0  0  0  0  0  0  0  0  0
   -8.2240   22.0930  -31.1560 C   0  0  0  0  0  0  0  0  0  0  0  0
   -8.0870   20.8130  -31.6450 C   0  0  0  0  0  0  0  0  0  0  0  0
   -9.0190   19.7830  -31.7320 C   0  0  0  0  0  0  0  0  0  0  0  0
   -8.6100   18.5720  -32.3170 C   0  0  0  0  0  0  0  0  0  0  0  0
   -7.2950   18.4240  -32.8230 C   0  0  0  0  0  0  0  0  0  0  0  0
   -6.8610   17.1210  -33.4390 C   0  0  0  0  0  0  0  0  0  0  0  0
   -5.6950   17.3320  -34.4030 C   0  0  0  0  0  0  0  0  0  0  0  0
   -6.0040   18.3170  -35.3240 F   0  0  0  0  0  0  0  0  0  0  0  0
   -6.3760   19.4900  -32.7130 C   0  0  0  0  0  0  0  0  0  0  0  0
   -6.8000   20.6740  -32.0980 C   0  0  0  0  0  0  0  0  0  0  0  0
   -3.0290   24.7860  -29.6850 C   0  0  0  0  0  0  0  0  0  0  0  0
   -3.5080   25.3180  -30.7210 O   0  0  0  0  0  0  0  0  0  0  0  0
   -2.0210   25.4390  -28.9850 O   0  0  0  0  0  0  0  0  0  0  0  0
   -3.4285   23.3892  -27.0519 H   0  0  0  0  0  0  0  0  0  0  0  0
   -2.7333   21.9543  -27.8793 H   0  0  0  0  0  0  0  0  0  0  0  0
   -1.8388   23.5121  -27.8793 H   0  0  0  0  0  0  0  0  0  0  0  0
   -4.6192   23.5331  -28.9984 H   0  0  0  0  0  0  0  0  0  0  0  0
   -2.2821   22.2079  -30.4530 H   0  0  0  0  0  0  0  0  0  0  0  0
   -3.8645   21.4714  -30.0094 H   0  0  0  0  0  0  0  0  0  0  0  0
   -5.0990   24.4560  -32.3190 H   0  0  0  0  0  0  0  0  0  0  0  0
   -5.5210   25.8420  -31.2610 H   0  0  0  0  0  0  0  0  0  0  0  0
   -9.1270   22.5491  -30.7239 H   0  0  0  0  0  0  0  0  0  0  0  0
  -10.0441   19.9126  -31.3546 H   0  0  0  0  0  0  0  0  0  0  0  0
   -9.3171   17.7319  -32.3825 H   0  0  0  0  0  0  0  0  0  0  0  0
   -6.5473   16.4326  -32.6405 H   0  0  0  0  0  0  0  0  0  0  0  0
   -7.7079   16.6999  -34.0006 H   0  0  0  0  0  0  0  0  0  0  0  0
   -4.8039   17.6347  -33.8335 H   0  0  0  0  0  0  0  0  0  0  0  0
   -5.4993   16.3912  -34.9383 H   0  0  0  0  0  0  0  0  0  0  0  0
   -5.3514   19.3926  -33.1012 H   0  0  0  0  0  0  0  0  0  0  0  0
  1  2  1  0
  2  3  1  0
  3  4  1  0
  4  5  1  0
  5  6  2  0
  5  7  1  0
  7  8  1  0
  8  9  1  0
  9 10  1  0
  9 11  2  0
  8 12  2  0
 12 13  1  0
 13 14  2  0
 14 15  1  0
 15 16  2  0
 16 17  1  0
 17 18  1  0
 18 19  1  0
 16 20  1  0
 20 21  2  0
  2 22  1  0
 22 23  2  0
 22 24  1  0
 21  7  1  0
 21 13  1  0
  1 25  1  0
  1 26  1  0
  1 27  1  0
  2 28  1  1
  3 29  1  0
  3 30  1  0
 10 31  1  0
 10 32  1  0
 12 33  1  0
 14 34  1  0
 15 35  1  0
 17 36  1  0
 17 37  1  0
 18 38  1  0
 18 39  1  0
 20 40  1  0
M  CHG  1  24  -1
M  END
>  <UniqueID>  (63) 
62

>  <SMILES>  (63) 
C[C@H](COC(=O)n1c(C(N)=O)cc2ccc(CCF)cc21)C(=O)[O-]

>  <Energy>  (63) 
69.31556299358375

>  <Genealogy>  (63) 
CC(COC(=O)n1c(C(N)=O)cc2ccc(CCF)cc21)C(=O)[O-] (protonated)
C[C@H](COC(=O)n1c(C(N)=O)cc2ccc(CCF)cc21)C(=O)[O-] (chirality)
C[C@H](COC(=O)n1c(C(N)=O)cc2ccc(CCF)cc21)C(=O)[O-] (3D coordinates assigned)
C[C@H](COC(=O)n1c(C(N)=O)cc2ccc(CCF)cc21)C(=O)[O-] (optimized conformer: 69.31556299358375 kcal/mol)

>  <smiles>  (63) 
CC(COC(=O)n1c(C(N)=O)cc2ccc(CCF)cc21)C(=O)O

>  <score_type>  (63) 
oracle

>  <origin>  (63) 
adg

>  <m_score__min__energy>  (63) 
-10.73

>  <m_primary>  (63) 
energy

$$$$
64:0
     RDKit          3D

 40 41  0  0  0  0  0  0  0  0999 V2000
   -1.7480   24.5330  -27.9390 C   0  0  0  0  0  0  0  0  0  0  0  0
   -2.4980   23.5530  -28.7430 N   0  0  0  0  0  0  0  0  0  0  0  0
   -3.0060   22.4860  -27.8650 C   0  0  0  0  0  0  0  0  0  0  0  0
   -1.6340   23.0000  -29.8100 C   0  0  0  0  0  0  0  0  0  0  0  0
   -2.1870   21.6730  -30.3340 C   0  0  0  0  0  0  0  0  0  0  0  0
   -3.2010   21.9230  -31.3490 N   0  0  0  0  0  0  0  0  0  0  0  0
   -4.1510   22.9880  -31.2570 C   0  0  0  0  0  0  0  0  0  0  0  0
   -3.7530   24.1830  -31.2040 O   0  0  0  0  0  0  0  0  0  0  0  0
   -5.5590   22.6970  -31.2330 N   0  0  0  0  0  0  0  0  0  0  0  0
   -6.5230   23.3360  -30.5120 C   0  0  0  0  0  0  0  0  0  0  0  0
   -6.3360   24.5680  -29.7200 C   0  0  0  0  0  0  0  0  0  0  0  0
   -5.1280   24.8090  -28.9970 N   0  0  0  0  0  0  0  0  0  0  0  0
   -7.2370   25.4490  -29.7260 O   0  0  0  0  0  0  0  0  0  0  0  0
   -7.7510   22.6980  -30.6570 C   0  0  0  0  0  0  0  0  0  0  0  0
   -7.5140   21.6430  -31.5090 C   0  0  0  0  0  0  0  0  0  0  0  0
   -8.3840   20.6680  -31.9860 C   0  0  0  0  0  0  0  0  0  0  0  0
   -7.8610   19.6730  -32.8270 C   0  0  0  0  0  0  0  0  0  0  0  0
   -6.4850   19.6640  -33.1670 C   0  0  0  0  0  0  0  0  0  0  0  0
   -5.9240   18.5860  -34.0490 C   0  0  0  0  0  0  0  0  0  0  0  0
   -6.5490   17.3830  -33.7740 F   0  0  0  0  0  0  0  0  0  0  0  0
   -6.1330   18.9160  -35.3760 F   0  0  0  0  0  0  0  0  0  0  0  0
   -5.6300   20.6670  -32.6580 C   0  0  0  0  0  0  0  0  0  0  0  0
   -6.1830   21.6620  -31.8410 C   0  0  0  0  0  0  0  0  0  0  0  0
   -1.9054   24.3274  -26.8699 H   0  0  0  0  0  0  0  0  0  0  0  0
   -0.6760   24.4559  -28.1733 H   0  0  0  0  0  0  0  0  0  0  0  0
   -2.1025   25.5476  -28.1733 H   0  0  0  0  0  0  0  0  0  0  0  0
   -2.8666   22.7787  -26.8139 H   0  0  0  0  0  0  0  0  0  0  0  0
   -4.0764   22.3271  -28.0626 H   0  0  0  0  0  0  0  0  0  0  0  0
   -2.4545   21.5550  -28.0626 H   0  0  0  0  0  0  0  0  0  0  0  0
   -1.5822   23.7203  -30.6397 H   0  0  0  0  0  0  0  0  0  0  0  0
   -0.6329   22.8203  -29.3910 H   0  0  0  0  0  0  0  0  0  0  0  0
   -1.3679   21.0852  -30.7741 H   0  0  0  0  0  0  0  0  0  0  0  0
   -2.6395   21.1157  -29.5006 H   0  0  0  0  0  0  0  0  0  0  0  0
   -4.2980   24.1850  -29.1110 H   0  0  0  0  0  0  0  0  0  0  0  0
   -5.0310   25.6660  -28.4090 H   0  0  0  0  0  0  0  0  0  0  0  0
   -8.7072   22.9771  -30.1904 H   0  0  0  0  0  0  0  0  0  0  0  0
   -9.4494   20.6764  -31.7125 H   0  0  0  0  0  0  0  0  0  0  0  0
   -8.5256   18.8926  -33.2261 H   0  0  0  0  0  0  0  0  0  0  0  0
   -4.8450   18.4901  -33.8577 H   0  0  0  0  0  0  0  0  0  0  0  0
   -4.5563   20.6668  -32.8973 H   0  0  0  0  0  0  0  0  0  0  0  0
  1  2  1  0
  2  3  1  0
  2  4  1  0
  4  5  1  0
  5  6  1  0
  6  7  1  0
  7  8  2  0
  7  9  1  0
  9 10  1  0
 10 11  1  0
 11 12  1  0
 11 13  2  0
 10 14  2  0
 14 15  1  0
 15 16  2  0
 16 17  1  0
 17 18  2  0
 18 19  1  0
 19 20  1  0
 19 21  1  0
 18 22  1  0
 22 23  2  0
 23  9  1  0
 23 15  1  0
  1 24  1  0
  1 25  1  0
  1 26  1  0
  3 27  1  0
  3 28  1  0
  3 29  1  0
  4 30  1  0
  4 31  1  0
  5 32  1  0
  5 33  1  0
 12 34  1  0
 12 35  1  0
 14 36  1  0
 16 37  1  0
 17 38  1  0
 19 39  1  0
 22 40  1  0
M  CHG  1   6  -1
M  END
>  <UniqueID>  (64) 
63

>  <SMILES>  (64) 
CN(C)CC[N-]C(=O)n1c(C(N)=O)cc2ccc(C(F)F)cc21

>  <Energy>  (64) 
75.28053486079257

>  <Genealogy>  (64) 
CN(C)CC[N-]C(=O)n1c(C(N)=O)cc2ccc(C(F)F)cc21 (protonated)
CN(C)CC[N-]C(=O)n1c(C(N)=O)cc2ccc(C(F)F)cc21 (3D coordinates assigned)
CN(C)CC[N-]C(=O)n1c(C(N)=O)cc2ccc(C(F)F)cc21 (optimized conformer: 75.28053486079257 kcal/mol)

>  <smiles>  (64) 
CN(C)CCNC(=O)n1c(C(N)=O)cc2ccc(C(F)F)cc21

>  <score_type>  (64) 
oracle

>  <origin>  (64) 
adg

>  <m_score__min__energy>  (64) 
-8.4000000000000004

>  <m_primary>  (64) 
energy

$$$$
65:0
     RDKit          3D

 42 44  0  0  0  0  0  0  0  0999 V2000
   -3.5130   25.6460  -29.7880 H   0  0  0  0  0  0  0  0  0  0  0  0
   -4.2420   25.6830  -30.5340 N   0  0  0  0  0  0  0  0  0  0  0  0
   -5.5400   25.1370  -30.3190 C   0  0  0  0  0  0  0  0  0  0  0  0
   -6.3510   25.7480  -29.5730 O   0  0  0  0  0  0  0  0  0  0  0  0
   -5.9330   23.8460  -30.9230 C   0  0  0  0  0  0  0  0  0  0  0  0
   -7.2400   23.5350  -31.2930 C   0  0  0  0  0  0  0  0  0  0  0  0
   -8.1221   24.1900  -31.2387 H   0  0  0  0  0  0  0  0  0  0  0  0
   -7.1930   22.2340  -31.7410 C   0  0  0  0  0  0  0  0  0  0  0  0
   -8.2020   21.4230  -32.2490 C   0  0  0  0  0  0  0  0  0  0  0  0
   -9.2378   21.7859  -32.3228 H   0  0  0  0  0  0  0  0  0  0  0  0
   -7.8580   20.1260  -32.6650 C   0  0  0  0  0  0  0  0  0  0  0  0
   -8.6357   19.4634  -33.0727 H   0  0  0  0  0  0  0  0  0  0  0  0
   -6.5240   19.6590  -32.5670 C   0  0  0  0  0  0  0  0  0  0  0  0
   -6.2190   18.2850  -33.0370 C   0  0  0  0  0  0  0  0  0  0  0  0
   -6.3156   18.0685  -34.1112 H   0  0  0  0  0  0  0  0  0  0  0  0
   -5.8310   17.2910  -32.2200 C   0  0  0  0  0  0  0  0  0  0  0  0
   -5.7357   17.5102  -31.1463 H   0  0  0  0  0  0  0  0  0  0  0  0
   -5.5240   15.9160  -32.6820 C   0  0  0  0  0  0  0  0  0  0  0  0
   -4.6270   15.0670  -32.0040 C   0  0  0  0  0  0  0  0  0  0  0  0
   -4.1264   15.4100  -31.0865 H   0  0  0  0  0  0  0  0  0  0  0  0
   -4.3770   13.7850  -32.5050 C   0  0  0  0  0  0  0  0  0  0  0  0
   -3.6826   13.1161  -31.9754 H   0  0  0  0  0  0  0  0  0  0  0  0
   -4.9880   13.3620  -33.6430 N   0  0  0  0  0  0  0  0  0  0  0  0
   -4.7890   12.4020  -34.0030 H   0  0  0  0  0  0  0  0  0  0  0  0
   -5.8460   14.1640  -34.3260 C   0  0  0  0  0  0  0  0  0  0  0  0
   -6.3234   13.7979  -35.2469 H   0  0  0  0  0  0  0  0  0  0  0  0
   -6.1240   15.4530  -33.8620 C   0  0  0  0  0  0  0  0  0  0  0  0
   -6.8124   16.1033  -34.4217 H   0  0  0  0  0  0  0  0  0  0  0  0
   -5.5210   20.5240  -32.0640 C   0  0  0  0  0  0  0  0  0  0  0  0
   -4.4718   20.1981  -32.0096 H   0  0  0  0  0  0  0  0  0  0  0  0
   -5.8970   21.8030  -31.6380 C   0  0  0  0  0  0  0  0  0  0  0  0
   -5.1110   22.7790  -31.1360 N   0  0  0  0  0  0  0  0  0  0  0  0
   -3.6850   22.7170  -30.9650 C   0  0  0  0  0  0  0  0  0  0  0  0
   -2.9630   22.3590  -31.9350 O   0  0  0  0  0  0  0  0  0  0  0  0
   -3.0820   23.0090  -29.6900 N   0  0  0  0  0  0  0  0  0  0  0  0
   -1.8730   23.7900  -29.6120 C   0  0  0  0  0  0  0  0  0  0  0  0
   -0.7510   23.2500  -29.8030 O   0  0  0  0  0  0  0  0  0  0  0  0
   -1.9250   25.1550  -29.3480 O   0  0  0  0  0  0  0  0  0  0  0  0
   -3.6040   22.3630  -28.4830 C   0  0  0  0  0  0  0  0  0  0  0  0
   -3.1977   22.8659  -27.5930 H   0  0  0  0  0  0  0  0  0  0  0  0
   -4.7017   22.4336  -28.4749 H   0  0  0  0  0  0  0  0  0  0  0  0
   -3.3045   21.3046  -28.4749 H   0  0  0  0  0  0  0  0  0  0  0  0
  1  2  1  0
  2  3  1  0
  3  4  2  0
  3  5  1  0
  5  6  2  0
  6  7  1  0
  6  8  1  0
  8  9  2  0
  9 10  1  0
  9 11  1  0
 11 12  1  0
 11 13  2  0
 13 14  1  0
 14 15  1  0
 14 16  2  0
 16 17  1  0
 16 18  1  0
 18 19  2  0
 19 20  1  0
 19 21  1  0
 21 22  1  0
 21 23  2  0
 23 24  1  0
 23 25  1  0
 25 26  1  0
 25 27  2  0
 27 28  1  0
 13 29  1  0
 29 30  1  0
 29 31  2  0
 31 32  1  0
 32 33  1  0
 33 34  2  0
 33 35  1  0
 35 36  1  0
 36 37  2  0
 36 38  1  0
 35 39  1  0
 39 40  1  0
 39 41  1  0
 39 42  1  0
 32  5  1  0
 31  8  1  0
 27 18  1  0
M  CHG  3   2  -1  23   1  38  -1
M  END
>  <UniqueID>  (65) 
64

>  <SMILES>  (65) 
CN(C(=O)[O-])C(=O)n1c(C([NH-])=O)cc2ccc(/C=C/c3cc[nH+]cc3)cc21

>  <Energy>  (65) 
90.2314976844161

>  <Genealogy>  (65) 
CN(C(=O)[O-])C(=O)n1c(C([NH-])=O)cc2ccc(C=Cc3cc[nH+]cc3)cc21 (protonated)
CN(C(=O)[O-])C(=O)n1c(C([NH-])=O)cc2ccc(/C=C/c3cc[nH+]cc3)cc21 (cis-trans isomerization)
CN(C(=O)[O-])C(=O)n1c(C([NH-])=O)cc2ccc(/C=C/c3cc[nH+]cc3)cc21 (3D coordinates assigned)
CN(C(=O)[O-])C(=O)n1c(C([NH-])=O)cc2ccc(/C=C/c3cc[nH+]cc3)cc21 (optimized conformer: 90.2314976844161 kcal/mol)

>  <smiles>  (65) 
CN(C(=O)O)C(=O)n1c(C(N)=O)cc2ccc(C=Cc3ccncc3)cc21

>  <score_type>  (65) 
oracle

>  <origin>  (65) 
adg

>  <m_score__min__energy>  (65) 
-12.220000000000001

>  <m_primary>  (65) 
energy

$$$$
66:0
     RDKit          3D

 41 42  0  0  0  0  0  0  0  0999 V2000
   -2.9210   25.2600  -26.3070 C   0  0  0  0  0  0  0  0  0  0  0  0
   -2.9280   24.6710  -27.6020 O   0  0  0  0  0  0  0  0  0  0  0  0
   -1.7660   24.5060  -28.3610 C   0  0  0  0  0  0  0  0  0  0  0  0
   -1.4710   25.3260  -29.2730 O   0  0  0  0  0  0  0  0  0  0  0  0
   -0.8430   23.3670  -28.0560 C   0  0  0  0  0  0  0  0  0  0  0  0
   -0.8740   22.2960  -29.1560 C   0  0  0  0  0  0  0  0  0  0  0  0
   -2.2980   21.9340  -29.6080 C   0  0  0  0  0  0  0  0  0  0  0  0
   -2.8000   22.8820  -30.5470 O   0  0  0  0  0  0  0  0  0  0  0  0
   -3.6600   22.5490  -31.5980 C   0  0  0  0  0  0  0  0  0  0  0  0
   -3.1940   22.1330  -32.6940 O   0  0  0  0  0  0  0  0  0  0  0  0
   -5.0800   22.6840  -31.4300 N   0  0  0  0  0  0  0  0  0  0  0  0
   -5.7700   23.8050  -31.0810 C   0  0  0  0  0  0  0  0  0  0  0  0
   -5.1770   25.0860  -30.6460 C   0  0  0  0  0  0  0  0  0  0  0  0
   -3.9140   25.1270  -29.9800 N   0  0  0  0  0  0  0  0  0  0  0  0
   -5.8200   26.1550  -30.8160 O   0  0  0  0  0  0  0  0  0  0  0  0
   -7.1420   23.5730  -31.1240 C   0  0  0  0  0  0  0  0  0  0  0  0
   -7.2740   22.2550  -31.4970 C   0  0  0  0  0  0  0  0  0  0  0  0
   -8.4220   21.4920  -31.6860 C   0  0  0  0  0  0  0  0  0  0  0  0
   -8.2660   20.1560  -32.0930 C   0  0  0  0  0  0  0  0  0  0  0  0
   -6.9750   19.6150  -32.3270 C   0  0  0  0  0  0  0  0  0  0  0  0
   -6.8160   18.1700  -32.7260 C   0  0  0  0  0  0  0  0  0  0  0  0
   -6.5250   18.1000  -34.0760 F   0  0  0  0  0  0  0  0  0  0  0  0
   -7.9810   17.4650  -32.4790 F   0  0  0  0  0  0  0  0  0  0  0  0
   -5.7910   17.5740  -32.0120 F   0  0  0  0  0  0  0  0  0  0  0  0
   -5.8320   20.4180  -32.1030 C   0  0  0  0  0  0  0  0  0  0  0  0
   -6.0170   21.7400  -31.6780 C   0  0  0  0  0  0  0  0  0  0  0  0
   -2.9304   24.4678  -25.5438 H   0  0  0  0  0  0  0  0  0  0  0  0
   -2.0155   25.8731  -26.1879 H   0  0  0  0  0  0  0  0  0  0  0  0
   -3.8117   25.8945  -26.1879 H   0  0  0  0  0  0  0  0  0  0  0  0
    0.1825   23.7545  -27.9654 H   0  0  0  0  0  0  0  0  0  0  0  0
   -1.1747   22.9010  -27.1164 H   0  0  0  0  0  0  0  0  0  0  0  0
   -0.3159   22.6721  -30.0261 H   0  0  0  0  0  0  0  0  0  0  0  0
   -0.4218   21.3845  -28.7380 H   0  0  0  0  0  0  0  0  0  0  0  0
   -2.2831   20.9389  -30.0765 H   0  0  0  0  0  0  0  0  0  0  0  0
   -2.9543   21.9387  -28.7252 H   0  0  0  0  0  0  0  0  0  0  0  0
   -3.4900   26.0440  -29.7160 H   0  0  0  0  0  0  0  0  0  0  0  0
   -3.4380   24.2500  -29.6710 H   0  0  0  0  0  0  0  0  0  0  0  0
   -7.9478   24.2896  -30.9065 H   0  0  0  0  0  0  0  0  0  0  0  0
   -9.4213   21.9214  -31.5218 H   0  0  0  0  0  0  0  0  0  0  0  0
   -9.1545   19.5225  -32.2318 H   0  0  0  0  0  0  0  0  0  0  0  0
   -4.8210   20.0135  -32.2590 H   0  0  0  0  0  0  0  0  0  0  0  0
  1  2  1  0
  2  3  1  0
  3  4  2  0
  3  5  1  0
  5  6  1  0
  6  7  1  0
  7  8  1  0
  8  9  1  0
  9 10  2  0
  9 11  1  0
 11 12  1  0
 12 13  1  0
 13 14  1  0
 13 15  2  0
 12 16  2  0
 16 17  1  0
 17 18  2  0
 18 19  1  0
 19 20  2  0
 20 21  1  0
 21 22  1  0
 21 23  1  0
 21 24  1  0
 20 25  1  0
 25 26  2  0
 26 11  1  0
 26 17  1  0
  1 27  1  0
  1 28  1  0
  1 29  1  0
  5 30  1  0
  5 31  1  0
  6 32  1  0
  6 33  1  0
  7 34  1  0
  7 35  1  0
 14 36  1  0
 14 37  1  0
 16 38  1  0
 18 39  1  0
 19 40  1  0
 25 41  1  0
M  END
>  <UniqueID>  (66) 
65

>  <SMILES>  (66) 
COC(=O)CCCOC(=O)n1c(C(N)=O)cc2ccc(C(F)(F)F)cc21

>  <Energy>  (66) 
72.07109959668225

>  <Genealogy>  (66) 
COC(=O)CCCOC(=O)n1c(C(N)=O)cc2ccc(C(F)(F)F)cc21 (3D coordinates assigned)
COC(=O)CCCOC(=O)n1c(C(N)=O)cc2ccc(C(F)(F)F)cc21 (optimized conformer: 72.07109959668225 kcal/mol)

>  <smiles>  (66) 
COC(=O)CCCOC(=O)n1c(C(N)=O)cc2ccc(C(F)(F)F)cc21

>  <score_type>  (66) 
oracle

>  <origin>  (66) 
adg

>  <m_score__min__energy>  (66) 
-8.3800000000000008

>  <m_primary>  (66) 
energy

$$$$
67:0
     RDKit          3D

 39 40  0  0  0  0  0  0  0  0999 V2000
   -6.0930   18.1970  -34.0840 C   0  0  0  0  0  0  0  0  0  0  0  0
   -7.2430   18.2520  -33.0840 C   0  0  0  0  0  0  0  0  0  0  0  0
   -7.4050   19.6450  -32.5390 C   0  0  0  0  0  0  0  0  0  0  0  0
   -8.7000   20.1680  -32.2900 C   0  0  0  0  0  0  0  0  0  0  0  0
   -8.8610   21.4510  -31.7420 C   0  0  0  0  0  0  0  0  0  0  0  0
   -7.7140   22.1830  -31.4470 C   0  0  0  0  0  0  0  0  0  0  0  0
   -7.5780   23.4310  -30.8810 C   0  0  0  0  0  0  0  0  0  0  0  0
   -6.2050   23.6490  -30.7980 C   0  0  0  0  0  0  0  0  0  0  0  0
   -5.6080   24.9080  -30.3050 C   0  0  0  0  0  0  0  0  0  0  0  0
   -6.1530   25.5970  -29.1800 N   0  0  0  0  0  0  0  0  0  0  0  0
   -4.5710   25.3580  -30.8610 O   0  0  0  0  0  0  0  0  0  0  0  0
   -5.5190   22.5750  -31.2790 N   0  0  0  0  0  0  0  0  0  0  0  0
   -4.1030   22.3340  -31.2350 C   0  0  0  0  0  0  0  0  0  0  0  0
   -3.3820   22.6750  -32.2110 O   0  0  0  0  0  0  0  0  0  0  0  0
   -3.4860   21.5910  -30.0830 C   0  0  0  0  0  0  0  0  0  0  0  0
   -2.2540   22.3250  -29.5240 C   0  0  0  0  0  0  0  0  0  0  0  0
   -2.2910   23.7840  -29.7270 N   0  0  0  0  0  0  0  0  0  0  0  0
   -2.7710   24.5000  -28.5430 C   0  0  0  0  0  0  0  0  0  0  0  0
   -6.4560   21.6910  -31.6810 C   0  0  0  0  0  0  0  0  0  0  0  0
   -6.2640   20.4140  -32.2170 C   0  0  0  0  0  0  0  0  0  0  0  0
   -5.1372   18.1513  -33.5415 H   0  0  0  0  0  0  0  0  0  0  0  0
   -6.1990   17.3029  -34.7159 H   0  0  0  0  0  0  0  0  0  0  0  0
   -6.1132   19.0971  -34.7159 H   0  0  0  0  0  0  0  0  0  0  0  0
   -8.1737   17.9499  -33.5865 H   0  0  0  0  0  0  0  0  0  0  0  0
   -7.0213   17.5689  -32.2508 H   0  0  0  0  0  0  0  0  0  0  0  0
   -9.5869   19.5626  -32.5285 H   0  0  0  0  0  0  0  0  0  0  0  0
   -9.8623   21.8648  -31.5517 H   0  0  0  0  0  0  0  0  0  0  0  0
   -8.3821   24.1106  -30.5624 H   0  0  0  0  0  0  0  0  0  0  0  0
   -6.9040   25.1700  -28.5950 H   0  0  0  0  0  0  0  0  0  0  0  0
   -5.7450   26.5100  -28.8770 H   0  0  0  0  0  0  0  0  0  0  0  0
   -4.2339   21.4902  -29.2827 H   0  0  0  0  0  0  0  0  0  0  0  0
   -3.1609   20.6050  -30.4466 H   0  0  0  0  0  0  0  0  0  0  0  0
   -2.1918   22.1261  -28.4439 H   0  0  0  0  0  0  0  0  0  0  0  0
   -1.3784   21.9464  -30.0717 H   0  0  0  0  0  0  0  0  0  0  0  0
   -2.9040   24.0230  -30.5390 H   0  0  0  0  0  0  0  0  0  0  0  0
   -2.4243   23.9828  -27.6362 H   0  0  0  0  0  0  0  0  0  0  0  0
   -2.3786   25.5276  -28.5518 H   0  0  0  0  0  0  0  0  0  0  0  0
   -3.8706   24.5273  -28.5518 H   0  0  0  0  0  0  0  0  0  0  0  0
   -5.2513   20.0183  -32.3837 H   0  0  0  0  0  0  0  0  0  0  0  0
  1  2  1  0
  2  3  1  0
  3  4  2  0
  4  5  1  0
  5  6  2  0
  6  7  1  0
  7  8  2  0
  8  9  1  0
  9 10  1  0
  9 11  2  0
  8 12  1  0
 12 13  1  0
 13 14  2  0
 13 15  1  0
 15 16  1  0
 16 17  1  0
 17 18  1  0
 12 19  1  0
 19 20  2  0
 20  3  1  0
 19  6  1  0
  1 21  1  0
  1 22  1  0
  1 23  1  0
  2 24  1  0
  2 25  1  0
  4 26  1  0
  5 27  1  0
  7 28  1  0
 10 29  1  0
 10 30  1  0
 15 31  1  0
 15 32  1  0
 16 33  1  0
 16 34  1  0
 17 35  1  0
 18 36  1  0
 18 37  1  0
 18 38  1  0
 20 39  1  0
M  END
>  <UniqueID>  (67) 
66

>  <SMILES>  (67) 
CCc1ccc2cc(C(N)=O)n(C(=O)CCNC)c2c1

>  <Energy>  (67) 
73.47032115510676

>  <Genealogy>  (67) 
CCc1ccc2cc(C(N)=O)n(C(=O)CCNC)c2c1 (3D coordinates assigned)
CCc1ccc2cc(C(N)=O)n(C(=O)CCNC)c2c1 (optimized conformer: 73.47032115510676 kcal/mol)

>  <smiles>  (67) 
CCc1ccc2cc(C(N)=O)n(C(=O)CCNC)c2c1

>  <score_type>  (67) 
oracle

>  <origin>  (67) 
adg

>  <m_score__min__energy>  (67) 
-8.5899999999999999

>  <m_primary>  (67) 
energy

$$$$
68:0
     RDKit          3D

 30 31  0  0  0  0  0  0  0  0999 V2000
   -3.8930   25.6720  -30.7950 N   0  0  0  0  0  0  0  0  0  0  0  0
   -5.1210   25.0360  -30.4470 C   0  0  0  0  0  0  0  0  0  0  0  0
   -5.8950   25.5970  -29.6260 O   0  0  0  0  0  0  0  0  0  0  0  0
   -5.4700   23.7060  -30.9890 C   0  0  0  0  0  0  0  0  0  0  0  0
   -6.6260   23.4580  -31.7250 C   0  0  0  0  0  0  0  0  0  0  0  0
   -6.6260   22.1020  -31.9590 C   0  0  0  0  0  0  0  0  0  0  0  0
   -7.5390   21.3130  -32.6540 C   0  0  0  0  0  0  0  0  0  0  0  0
   -7.2720   19.9390  -32.7640 C   0  0  0  0  0  0  0  0  0  0  0  0
   -6.1030   19.3820  -32.1860 C   0  0  0  0  0  0  0  0  0  0  0  0
   -5.8120   17.9140  -32.3210 C   0  0  0  0  0  0  0  0  0  0  0  0
   -6.2090   17.2540  -31.1730 F   0  0  0  0  0  0  0  0  0  0  0  0
   -6.5000   17.3990  -33.4050 F   0  0  0  0  0  0  0  0  0  0  0  0
   -5.1980   20.2140  -31.4910 C   0  0  0  0  0  0  0  0  0  0  0  0
   -5.4990   21.5770  -31.3810 C   0  0  0  0  0  0  0  0  0  0  0  0
   -4.7750   22.5500  -30.7850 N   0  0  0  0  0  0  0  0  0  0  0  0
   -3.5000   22.3880  -30.1470 C   0  0  0  0  0  0  0  0  0  0  0  0
   -3.3730   21.5730  -29.1930 O   0  0  0  0  0  0  0  0  0  0  0  0
   -2.4090   23.1550  -30.5730 O   0  0  0  0  0  0  0  0  0  0  0  0
   -1.2620   23.4030  -29.7630 C   0  0  0  0  0  0  0  0  0  0  0  0
   -1.5050   24.5700  -28.8600 C   0  0  0  0  0  0  0  0  0  0  0  0
   -1.9740   24.3890  -27.7060 O   0  0  0  0  0  0  0  0  0  0  0  0
   -1.2430   25.8610  -29.3020 O   0  0  0  0  0  0  0  0  0  0  0  0
   -2.9780   25.2840  -30.4760 H   0  0  0  0  0  0  0  0  0  0  0  0
   -7.3793   24.1907  -32.0503 H   0  0  0  0  0  0  0  0  0  0  0  0
   -8.4417   21.7528  -33.1031 H   0  0  0  0  0  0  0  0  0  0  0  0
   -7.9761   19.2886  -33.3035 H   0  0  0  0  0  0  0  0  0  0  0  0
   -4.7315   17.7735  -32.4719 H   0  0  0  0  0  0  0  0  0  0  0  0
   -4.2798   19.8017  -31.0473 H   0  0  0  0  0  0  0  0  0  0  0  0
   -1.0483   22.5119  -29.1544 H   0  0  0  0  0  0  0  0  0  0  0  0
   -0.4058   23.6286  -30.4157 H   0  0  0  0  0  0  0  0  0  0  0  0
  1  2  1  0
  2  3  2  0
  2  4  1  0
  4  5  2  0
  5  6  1  0
  6  7  2  0
  7  8  1  0
  8  9  2  0
  9 10  1  0
 10 11  1  0
 10 12  1  0
  9 13  1  0
 13 14  2  0
 14 15  1  0
 15 16  1  0
 16 17  2  0
 16 18  1  0
 18 19  1  0
 19 20  1  0
 20 21  2  0
 20 22  1  0
 15  4  1  0
 14  6  1  0
  1 23  1  0
  5 24  1  0
  7 25  1  0
  8 26  1  0
 10 27  1  0
 13 28  1  0
 19 29  1  0
 19 30  1  0
M  CHG  2   1  -1  22  -1
M  END
>  <UniqueID>  (68) 
67

>  <SMILES>  (68) 
[NH-]C(=O)c1cc2ccc(C(F)F)cc2n1C(=O)OCC(=O)[O-]

>  <Energy>  (68) 
67.02548250576749

>  <Genealogy>  (68) 
[NH-]C(=O)c1cc2ccc(C(F)F)cc2n1C(=O)OCC(=O)[O-] (protonated)
[NH-]C(=O)c1cc2ccc(C(F)F)cc2n1C(=O)OCC(=O)[O-] (3D coordinates assigned)
[NH-]C(=O)c1cc2ccc(C(F)F)cc2n1C(=O)OCC(=O)[O-] (optimized conformer: 67.02548250576749 kcal/mol)

>  <smiles>  (68) 
NC(=O)c1cc2ccc(C(F)F)cc2n1C(=O)OCC(=O)O

>  <score_type>  (68) 
oracle

>  <origin>  (68) 
adg

>  <m_score__min__energy>  (68) 
-11.5

>  <m_primary>  (68) 
energy

$$$$
69:0
     RDKit          3D

 49 51  0  0  0  0  0  0  0  0999 V2000
   -2.9606   22.5715  -33.4657 H   0  0  0  0  0  0  0  0  0  0  0  0
   -3.0870   21.8570  -32.6390 C   0  0  0  0  0  0  0  0  0  0  0  0
   -3.7830   22.3050  -31.4180 C   0  0  0  0  0  0  0  0  0  0  0  0
   -3.1050   22.5430  -30.3840 O   0  0  0  0  0  0  0  0  0  0  0  0
   -5.2060   22.4990  -31.3850 N   0  0  0  0  0  0  0  0  0  0  0  0
   -5.9040   23.5350  -30.8420 C   0  0  0  0  0  0  0  0  0  0  0  0
   -5.3240   24.7590  -30.2500 C   0  0  0  0  0  0  0  0  0  0  0  0
   -4.3720   25.3370  -30.8380 O   0  0  0  0  0  0  0  0  0  0  0  0
   -5.7850   25.2750  -29.0000 N   0  0  0  0  0  0  0  0  0  0  0  0
   -6.4200   24.7230  -28.3830 H   0  0  0  0  0  0  0  0  0  0  0  0
   -5.4020   26.1750  -28.6360 H   0  0  0  0  0  0  0  0  0  0  0  0
   -7.2750   23.2980  -30.9290 C   0  0  0  0  0  0  0  0  0  0  0  0
   -8.0885   23.9434  -30.5661 H   0  0  0  0  0  0  0  0  0  0  0  0
   -7.3930   22.0820  -31.5670 C   0  0  0  0  0  0  0  0  0  0  0  0
   -8.5300   21.3560  -31.9080 C   0  0  0  0  0  0  0  0  0  0  0  0
   -9.5367   21.7420  -31.6898 H   0  0  0  0  0  0  0  0  0  0  0  0
   -8.3510   20.1140  -32.5400 C   0  0  0  0  0  0  0  0  0  0  0  0
   -9.2304   19.5170  -32.8233 H   0  0  0  0  0  0  0  0  0  0  0  0
   -7.0470   19.6190  -32.8180 C   0  0  0  0  0  0  0  0  0  0  0  0
   -6.8520   18.2690  -33.4840 C   0  0  1  0  0  0  0  0  0  0  0  0
   -7.8414   18.0460  -33.9099 H   0  0  0  0  0  0  0  0  0  0  0  0
   -5.7680   18.3000  -34.5640 C   0  0  0  0  0  0  0  0  0  0  0  0
   -5.1260   19.1823  -34.4248 H   0  0  0  0  0  0  0  0  0  0  0  0
   -6.2229   18.3568  -35.5639 H   0  0  0  0  0  0  0  0  0  0  0  0
   -4.9730   17.0810  -34.4330 N   0  0  0  0  0  0  0  0  0  0  0  0
   -5.4400   16.3330  -35.0000 H   0  0  0  0  0  0  0  0  0  0  0  0
   -5.0730   16.6980  -33.0270 C   0  0  0  0  0  0  0  0  0  0  0  0
   -4.2614   17.1683  -32.4525 H   0  0  0  0  0  0  0  0  0  0  0  0
   -4.9872   15.6067  -32.9192 H   0  0  0  0  0  0  0  0  0  0  0  0
   -6.4180   17.1780  -32.5090 C   0  0  0  0  0  0  0  0  0  0  0  0
   -6.3173   17.5861  -31.4925 H   0  0  0  0  0  0  0  0  0  0  0  0
   -7.1526   16.3614  -32.4499 H   0  0  0  0  0  0  0  0  0  0  0  0
   -5.9200   20.3870  -32.4490 C   0  0  0  0  0  0  0  0  0  0  0  0
   -4.9012   20.0201  -32.6423 H   0  0  0  0  0  0  0  0  0  0  0  0
   -6.1300   21.6250  -31.8320 C   0  0  0  0  0  0  0  0  0  0  0  0
   -2.6030   20.6180  -32.7830 C   0  0  0  0  0  0  0  0  0  0  0  0
   -2.6867   19.9089  -31.9462 H   0  0  0  0  0  0  0  0  0  0  0  0
   -1.9450   20.1690  -34.0650 C   0  0  0  0  0  0  0  0  0  0  0  0
   -2.3900   20.7308  -34.8995 H   0  0  0  0  0  0  0  0  0  0  0  0
   -2.1145   19.0856  -34.1521 H   0  0  0  0  0  0  0  0  0  0  0  0
   -0.4800   20.3820  -34.0860 N   0  0  0  0  0  0  0  0  0  0  0  0
   -0.0880   21.5130  -34.9390 C   0  0  0  0  0  0  0  0  0  0  0  0
    0.2069   22.3638  -34.3072 H   0  0  0  0  0  0  0  0  0  0  0  0
    0.7599   21.2167  -35.5741 H   0  0  0  0  0  0  0  0  0  0  0  0
   -0.9374   21.8049  -35.5741 H   0  0  0  0  0  0  0  0  0  0  0  0
    0.0820   20.5220  -32.7330 C   0  0  0  0  0  0  0  0  0  0  0  0
   -0.7031   20.3264  -31.9878 H   0  0  0  0  0  0  0  0  0  0  0  0
    0.9017   19.8006  -32.6000 H   0  0  0  0  0  0  0  0  0  0  0  0
    0.4675   21.5436  -32.6000 H   0  0  0  0  0  0  0  0  0  0  0  0
  1  2  1  0
  2  3  1  0
  3  4  2  0
  3  5  1  0
  5  6  1  0
  6  7  1  0
  7  8  2  0
  7  9  1  0
  9 10  1  0
  9 11  1  0
  6 12  2  0
 12 13  1  0
 12 14  1  0
 14 15  2  0
 15 16  1  0
 15 17  1  0
 17 18  1  0
 17 19  2  0
 19 20  1  0
 20 21  1  6
 20 22  1  0
 22 23  1  0
 22 24  1  0
 22 25  1  0
 25 26  1  0
 25 27  1  0
 27 28  1  0
 27 29  1  0
 27 30  1  0
 30 31  1  0
 30 32  1  0
 19 33  1  0
 33 34  1  0
 33 35  2  0
  2 36  2  0
 36 37  1  0
 36 38  1  0
 38 39  1  0
 38 40  1  0
 38 41  1  0
 41 42  1  0
 42 43  1  0
 42 44  1  0
 42 45  1  0
 41 46  1  0
 46 47  1  0
 46 48  1  0
 46 49  1  0
 35  5  1  0
 35 14  1  0
 30 20  1  0
M  END
>  <UniqueID>  (69) 
68

>  <SMILES>  (69) 
CN(C)C/C=C/C(=O)n1c(C(N)=O)cc2ccc([C@@H]3CCNC3)cc21

>  <Energy>  (69) 
91.36275261349809

>  <Genealogy>  (69) 
CN(C)C/C=C/C(=O)n1c(C(N)=O)cc2ccc([C@@H]3CCNC3)cc21 (chirality)
CN(C)C/C=C/C(=O)n1c(C(N)=O)cc2ccc([C@@H]3CCNC3)cc21 (cis-trans isomerization)
CN(C)C/C=C/C(=O)n1c(C(N)=O)cc2ccc([C@@H]3CCNC3)cc21 (3D coordinates assigned)
CN(C)C/C=C/C(=O)n1c(C(N)=O)cc2ccc([C@@H]3CCNC3)cc21 (nonaromatic ring conformer: 91.36275261349809 kcal/mol)

>  <smiles>  (69) 
CN(C)C/C=C/C(=O)n1c(C(N)=O)cc2ccc(C3CCNC3)cc21

>  <score_type>  (69) 
oracle

>  <origin>  (69) 
adg

>  <m_score__min__energy>  (69) 
-10.039999999999999

>  <m_primary>  (69) 
energy

$$$$
70:0
     RDKit          3D

 38 40  0  0  0  0  0  0  0  0999 V2000
    0.5890   24.1300  -26.8910 C   0  0  0  0  0  0  0  0  0  0  0  0
    0.3120   24.5690  -28.2170 O   0  0  0  0  0  0  0  0  0  0  0  0
   -0.9830   24.6100  -28.7400 C   0  0  0  0  0  0  0  0  0  0  0  0
   -1.7160   25.6210  -28.5650 O   0  0  0  0  0  0  0  0  0  0  0  0
   -1.4870   23.4590  -29.4950 C   0  0  0  0  0  0  0  0  0  0  0  0
   -1.0860   22.1440  -29.3460 C   0  0  0  0  0  0  0  0  0  0  0  0
   -1.8190   21.4230  -30.2640 C   0  0  0  0  0  0  0  0  0  0  0  0
   -2.6180   22.3450  -30.9150 C   0  0  0  0  0  0  0  0  0  0  0  0
   -3.5800   22.0530  -31.9880 C   0  0  0  0  0  0  0  0  0  0  0  0
   -3.1610   21.7380  -33.1340 O   0  0  0  0  0  0  0  0  0  0  0  0
   -4.9930   22.0900  -31.7330 N   0  0  0  0  0  0  0  0  0  0  0  0
   -5.6830   23.0510  -31.0580 C   0  0  0  0  0  0  0  0  0  0  0  0
   -5.1270   24.3270  -30.5620 C   0  0  0  0  0  0  0  0  0  0  0  0
   -4.3470   24.3840  -29.3650 N   0  0  0  0  0  0  0  0  0  0  0  0
   -5.3060   25.3800  -31.2300 O   0  0  0  0  0  0  0  0  0  0  0  0
   -7.0160   22.6790  -30.9010 C   0  0  0  0  0  0  0  0  0  0  0  0
   -7.1240   21.4510  -31.5120 C   0  0  0  0  0  0  0  0  0  0  0  0
   -8.2210   20.6020  -31.6260 C   0  0  0  0  0  0  0  0  0  0  0  0
   -8.0330   19.3640  -32.2640 C   0  0  0  0  0  0  0  0  0  0  0  0
   -6.7610   18.9970  -32.7750 C   0  0  0  0  0  0  0  0  0  0  0  0
   -6.5550   17.6410  -33.4010 C   0  0  0  0  0  0  0  0  0  0  0  0
   -7.6160   16.8030  -33.1060 F   0  0  0  0  0  0  0  0  0  0  0  0
   -5.3950   17.0530  -32.9250 F   0  0  0  0  0  0  0  0  0  0  0  0
   -6.4590   17.7830  -34.7720 F   0  0  0  0  0  0  0  0  0  0  0  0
   -5.6650   19.8740  -32.6090 C   0  0  0  0  0  0  0  0  0  0  0  0
   -5.8890   21.1140  -32.0000 C   0  0  0  0  0  0  0  0  0  0  0  0
   -2.4010   23.5470  -30.4330 O   0  0  0  0  0  0  0  0  0  0  0  0
    0.1450   24.8337  -26.1715 H   0  0  0  0  0  0  0  0  0  0  0  0
    0.1584   23.1293  -26.7386 H   0  0  0  0  0  0  0  0  0  0  0  0
    1.6776   24.0879  -26.7386 H   0  0  0  0  0  0  0  0  0  0  0  0
   -0.3371   21.7541  -28.6409 H   0  0  0  0  0  0  0  0  0  0  0  0
   -1.7771   20.3383  -30.4420 H   0  0  0  0  0  0  0  0  0  0  0  0
   -4.0120   25.3040  -29.0040 H   0  0  0  0  0  0  0  0  0  0  0  0
   -4.0160   23.5140  -28.8940 H   0  0  0  0  0  0  0  0  0  0  0  0
   -7.8122   23.2459  -30.3964 H   0  0  0  0  0  0  0  0  0  0  0  0
   -9.2052   20.8912  -31.2288 H   0  0  0  0  0  0  0  0  0  0  0  0
   -8.8814   18.6717  -32.3684 H   0  0  0  0  0  0  0  0  0  0  0  0
   -4.6591   19.5885  -32.9506 H   0  0  0  0  0  0  0  0  0  0  0  0
  1  2  1  0
  2  3  1  0
  3  4  2  0
  3  5  1  0
  5  6  2  0
  6  7  1  0
  7  8  2  0
  8  9  1  0
  9 10  2  0
  9 11  1  0
 11 12  1  0
 12 13  1  0
 13 14  1  0
 13 15  2  0
 12 16  2  0
 16 17  1  0
 17 18  2  0
 18 19  1  0
 19 20  2  0
 20 21  1  0
 21 22  1  0
 21 23  1  0
 21 24  1  0
 20 25  1  0
 25 26  2  0
  8 27  1  0
 27  5  1  0
 26 11  1  0
 26 17  1  0
  1 28  1  0
  1 29  1  0
  1 30  1  0
  6 31  1  0
  7 32  1  0
 14 33  1  0
 14 34  1  0
 16 35  1  0
 18 36  1  0
 19 37  1  0
 25 38  1  0
M  END
>  <UniqueID>  (70) 
69

>  <SMILES>  (70) 
COC(=O)c1ccc(C(=O)n2c(C(N)=O)cc3ccc(C(F)(F)F)cc32)o1

>  <Energy>  (70) 
102.81871689542817

>  <Genealogy>  (70) 
COC(=O)c1ccc(C(=O)n2c(C(N)=O)cc3ccc(C(F)(F)F)cc32)o1 (3D coordinates assigned)
COC(=O)c1ccc(C(=O)n2c(C(N)=O)cc3ccc(C(F)(F)F)cc32)o1 (optimized conformer: 102.81871689542817 kcal/mol)

>  <smiles>  (70) 
COC(=O)c1ccc(C(=O)n2c(C(N)=O)cc3ccc(C(F)(F)F)cc32)o1

>  <score_type>  (70) 
oracle

>  <origin>  (70) 
adg

>  <m_score__min__energy>  (70) 
-9.6500000000000004

>  <m_primary>  (70) 
energy

$$$$
71:0
     RDKit          3D

 41 42  0  0  0  0  0  0  0  0999 V2000
   -2.6720   20.2690  -33.8340 C   0  0  0  0  0  0  0  0  0  0  0  0
   -2.2550   20.9400  -32.5260 C   0  0  0  0  0  0  0  0  0  0  0  0
   -0.7330   21.0920  -32.4630 C   0  0  0  0  0  0  0  0  0  0  0  0
   -2.8860   22.2180  -32.4430 O   0  0  0  0  0  0  0  0  0  0  0  0
   -3.5380   22.6870  -31.2970 C   0  0  0  0  0  0  0  0  0  0  0  0
   -2.8790   22.9820  -30.2630 O   0  0  0  0  0  0  0  0  0  0  0  0
   -4.9710   22.7990  -31.2890 N   0  0  0  0  0  0  0  0  0  0  0  0
   -5.7170   23.9130  -31.0410 C   0  0  0  0  0  0  0  0  0  0  0  0
   -5.2050   25.2090  -30.5500 C   0  0  0  0  0  0  0  0  0  0  0  0
   -3.8750   25.6290  -30.8410 N   0  0  0  0  0  0  0  0  0  0  0  0
   -5.9350   25.9330  -29.8220 O   0  0  0  0  0  0  0  0  0  0  0  0
   -7.0690   23.6490  -31.2390 C   0  0  0  0  0  0  0  0  0  0  0  0
   -7.1320   22.3260  -31.6110 C   0  0  0  0  0  0  0  0  0  0  0  0
   -8.2300   21.5440  -31.9450 C   0  0  0  0  0  0  0  0  0  0  0  0
   -8.0000   20.2120  -32.3270 C   0  0  0  0  0  0  0  0  0  0  0  0
   -6.6810   19.6800  -32.3780 C   0  0  0  0  0  0  0  0  0  0  0  0
   -6.4560   18.3060  -32.7900 N   0  0  0  0  0  0  0  0  0  0  0  0
   -7.5560   17.3350  -32.7580 C   0  0  0  0  0  0  0  0  0  0  0  0
   -5.1390   17.8590  -33.2710 C   0  0  0  0  0  0  0  0  0  0  0  0
   -5.0890   17.8650  -34.7680 C   0  0  0  0  0  0  0  0  0  0  0  0
   -5.8930   18.5760  -35.4290 O   0  0  0  0  0  0  0  0  0  0  0  0
   -4.1760   17.0600  -35.4370 O   0  0  0  0  0  0  0  0  0  0  0  0
   -5.5930   20.5190  -32.0300 C   0  0  0  0  0  0  0  0  0  0  0  0
   -5.8540   21.8360  -31.6350 C   0  0  0  0  0  0  0  0  0  0  0  0
   -3.2406   19.3540  -33.6117 H   0  0  0  0  0  0  0  0  0  0  0  0
   -3.3006   20.9591  -34.4160 H   0  0  0  0  0  0  0  0  0  0  0  0
   -1.7749   20.0109  -34.4160 H   0  0  0  0  0  0  0  0  0  0  0  0
   -2.5688   20.3162  -31.6760 H   0  0  0  0  0  0  0  0  0  0  0  0
   -0.4109   21.1242  -31.4117 H   0  0  0  0  0  0  0  0  0  0  0  0
   -0.2580   20.2368  -32.9660 H   0  0  0  0  0  0  0  0  0  0  0  0
   -0.4365   22.0242  -32.9660 H   0  0  0  0  0  0  0  0  0  0  0  0
   -3.0530   25.1380  -30.4240 H   0  0  0  0  0  0  0  0  0  0  0  0
   -7.9091   24.3496  -31.1227 H   0  0  0  0  0  0  0  0  0  0  0  0
   -9.2496   21.9555  -31.9114 H   0  0  0  0  0  0  0  0  0  0  0  0
   -8.8531   19.5697  -32.5910 H   0  0  0  0  0  0  0  0  0  0  0  0
   -7.8139   17.1074  -31.7132 H   0  0  0  0  0  0  0  0  0  0  0  0
   -8.4337   17.7583  -33.2684 H   0  0  0  0  0  0  0  0  0  0  0  0
   -7.2449   16.4116  -33.2684 H   0  0  0  0  0  0  0  0  0  0  0  0
   -4.3642   18.5358  -32.8816 H   0  0  0  0  0  0  0  0  0  0  0  0
   -4.9642   16.8324  -32.9166 H   0  0  0  0  0  0  0  0  0  0  0  0
   -4.5606   20.1413  -32.0697 H   0  0  0  0  0  0  0  0  0  0  0  0
  1  2  1  0
  2  3  1  0
  2  4  1  0
  4  5  1  0
  5  6  2  0
  5  7  1  0
  7  8  1  0
  8  9  1  0
  9 10  1  0
  9 11  2  0
  8 12  2  0
 12 13  1  0
 13 14  2  0
 14 15  1  0
 15 16  2  0
 16 17  1  0
 17 18  1  0
 17 19  1  0
 19 20  1  0
 20 21  2  0
 20 22  1  0
 16 23  1  0
 23 24  2  0
 24  7  1  0
 24 13  1  0
  1 25  1  0
  1 26  1  0
  1 27  1  0
  2 28  1  0
  3 29  1  0
  3 30  1  0
  3 31  1  0
 10 32  1  0
 12 33  1  0
 14 34  1  0
 15 35  1  0
 18 36  1  0
 18 37  1  0
 18 38  1  0
 19 39  1  0
 19 40  1  0
 23 41  1  0
M  CHG  2  10  -1  22  -1
M  END
>  <UniqueID>  (71) 
70

>  <SMILES>  (71) 
CC(C)OC(=O)n1c(C([NH-])=O)cc2ccc(N(C)CC(=O)[O-])cc21

>  <Energy>  (71) 
75.12718589234746

>  <Genealogy>  (71) 
CC(C)OC(=O)n1c(C([NH-])=O)cc2ccc(N(C)CC(=O)[O-])cc21 (protonated)
CC(C)OC(=O)n1c(C([NH-])=O)cc2ccc(N(C)CC(=O)[O-])cc21 (3D coordinates assigned)
CC(C)OC(=O)n1c(C([NH-])=O)cc2ccc(N(C)CC(=O)[O-])cc21 (optimized conformer: 75.12718589234746 kcal/mol)

>  <smiles>  (71) 
CC(C)OC(=O)n1c(C(N)=O)cc2ccc(N(C)CC(=O)O)cc21

>  <score_type>  (71) 
oracle

>  <origin>  (71) 
adg

>  <m_score__min__energy>  (71) 
-9.6899999999999995

>  <m_primary>  (71) 
energy

$$$$
72:0
     RDKit          3D

 37 39  0  0  0  0  0  0  0  0999 V2000
   -6.8320   15.2610  -34.2190 C   0  0  0  0  0  0  0  0  0  0  0  0
   -6.6010   16.3470  -33.2790 N   0  0  0  0  0  0  0  0  0  0  0  0
   -7.0960   17.5660  -33.4080 N   0  0  0  0  0  0  0  0  0  0  0  0
   -6.5660   18.2440  -32.3670 C   0  0  0  0  0  0  0  0  0  0  0  0
   -6.8330   19.6690  -32.0780 C   0  0  0  0  0  0  0  0  0  0  0  0
   -8.1310   20.2080  -32.2750 C   0  0  0  0  0  0  0  0  0  0  0  0
   -8.3930   21.5640  -32.0130 C   0  0  0  0  0  0  0  0  0  0  0  0
   -7.3430   22.3540  -31.5520 C   0  0  0  0  0  0  0  0  0  0  0  0
   -7.3090   23.6950  -31.2420 C   0  0  0  0  0  0  0  0  0  0  0  0
   -5.9960   23.9490  -30.8460 C   0  0  0  0  0  0  0  0  0  0  0  0
   -5.5250   25.2630  -30.3580 C   0  0  0  0  0  0  0  0  0  0  0  0
   -4.1720   25.6710  -30.5410 N   0  0  0  0  0  0  0  0  0  0  0  0
   -6.3210   26.0230  -29.7440 O   0  0  0  0  0  0  0  0  0  0  0  0
   -5.2520   22.8110  -30.9170 N   0  0  0  0  0  0  0  0  0  0  0  0
   -3.8460   22.6580  -30.6750 C   0  0  0  0  0  0  0  0  0  0  0  0
   -3.0370   22.7240  -31.6380 O   0  0  0  0  0  0  0  0  0  0  0  0
   -3.3240   22.5370  -29.2720 C   0  0  0  0  0  0  0  0  0  0  0  0
   -1.9430   23.1780  -29.1470 C   0  0  0  0  0  0  0  0  0  0  0  0
   -1.9790   24.4940  -29.6290 O   0  0  0  0  0  0  0  0  0  0  0  0
   -6.0890   21.8460  -31.3460 C   0  0  0  0  0  0  0  0  0  0  0  0
   -5.7940   20.5040  -31.6080 C   0  0  0  0  0  0  0  0  0  0  0  0
   -5.7510   17.4560  -31.6280 N   0  0  0  0  0  0  0  0  0  0  0  0
   -5.7970   16.2830  -32.2330 N   0  0  0  0  0  0  0  0  0  0  0  0
   -7.0296   14.3318  -33.6644 H   0  0  0  0  0  0  0  0  0  0  0  0
   -7.6990   15.5019  -34.8517 H   0  0  0  0  0  0  0  0  0  0  0  0
   -5.9420   15.1281  -34.8517 H   0  0  0  0  0  0  0  0  0  0  0  0
   -8.9410   19.5575  -32.6367 H   0  0  0  0  0  0  0  0  0  0  0  0
   -9.3963   21.9879  -32.1673 H   0  0  0  0  0  0  0  0  0  0  0  0
   -8.1404   24.4132  -31.2953 H   0  0  0  0  0  0  0  0  0  0  0  0
   -3.5020   25.6820  -29.7410 H   0  0  0  0  0  0  0  0  0  0  0  0
   -4.0188   23.0415  -28.5845 H   0  0  0  0  0  0  0  0  0  0  0  0
   -3.2403   21.4698  -29.0190 H   0  0  0  0  0  0  0  0  0  0  0  0
   -1.6394   23.1856  -28.0897 H   0  0  0  0  0  0  0  0  0  0  0  0
   -1.2206   22.5967  -29.7388 H   0  0  0  0  0  0  0  0  0  0  0  0
   -2.5710   24.4800  -30.4250 H   0  0  0  0  0  0  0  0  0  0  0  0
   -4.7794   20.1087  -31.4522 H   0  0  0  0  0  0  0  0  0  0  0  0
   -5.2660   15.4360  -31.9310 H   0  0  0  0  0  0  0  0  0  0  0  0
  1  2  1  0
  2  3  1  0
  3  4  2  0
  4  5  1  0
  5  6  2  0
  6  7  1  0
  7  8  2  0
  8  9  1  0
  9 10  2  0
 10 11  1  0
 11 12  1  0
 11 13  2  0
 10 14  1  0
 14 15  1  0
 15 16  2  0
 15 17  1  0
 17 18  1  0
 18 19  1  0
 14 20  1  0
 20 21  2  0
  4 22  1  0
 22 23  2  0
 23  2  1  0
 21  5  1  0
 20  8  1  0
  1 24  1  0
  1 25  1  0
  1 26  1  0
  6 27  1  0
  7 28  1  0
  9 29  1  0
 12 30  1  0
 17 31  1  0
 17 32  1  0
 18 33  1  0
 18 34  1  0
 19 35  1  0
 21 36  1  0
 23 37  1  0
M  CHG  2  12  -1  23   1
M  END
>  <UniqueID>  (72) 
71

>  <SMILES>  (72) 
Cn1nc(-c2ccc3cc(C([NH-])=O)n(C(=O)CCO)c3c2)n[nH+]1

>  <Energy>  (72) 
113.4059900395323

>  <Genealogy>  (72) 
Cn1nc(-c2ccc3cc(C([NH-])=O)n(C(=O)CCO)c3c2)n[nH+]1 (protonated)
Cn1nc(-c2ccc3cc(C([NH-])=O)n(C(=O)CCO)c3c2)n[nH+]1 (3D coordinates assigned)
Cn1nc(-c2ccc3cc(C([NH-])=O)n(C(=O)CCO)c3c2)n[nH+]1 (optimized conformer: 113.4059900395323 kcal/mol)

>  <smiles>  (72) 
Cn1nnc(-c2ccc3cc(C(N)=O)n(C(=O)CCO)c3c2)n1

>  <score_type>  (72) 
oracle

>  <origin>  (72) 
adg

>  <m_score__min__energy>  (72) 
-10.140000000000001

>  <m_primary>  (72) 
energy

$$$$
73:0
     RDKit          3D

 39 40  0  0  0  0  0  0  0  0999 V2000
   -2.3080   24.8940  -27.4530 C   0  0  0  0  0  0  0  0  0  0  0  0
   -2.9790   23.7530  -28.0830 N   0  0  0  0  0  0  0  0  0  0  0  0
   -4.1930   23.1900  -27.4800 C   0  0  0  0  0  0  0  0  0  0  0  0
   -2.4410   23.2110  -29.3100 C   0  0  0  0  0  0  0  0  0  0  0  0
   -1.4800   23.8020  -29.8790 O   0  0  0  0  0  0  0  0  0  0  0  0
   -3.0540   21.9970  -29.9650 C   0  0  0  0  0  0  0  0  0  0  0  0
   -3.7770   22.3440  -31.2360 C   0  0  0  0  0  0  0  0  0  0  0  0
   -3.1250   22.4770  -32.3060 O   0  0  0  0  0  0  0  0  0  0  0  0
   -5.1870   22.6180  -31.2230 N   0  0  0  0  0  0  0  0  0  0  0  0
   -5.8130   23.7920  -30.9340 C   0  0  0  0  0  0  0  0  0  0  0  0
   -5.1650   25.0120  -30.4080 C   0  0  0  0  0  0  0  0  0  0  0  0
   -3.8630   25.3960  -30.8450 N   0  0  0  0  0  0  0  0  0  0  0  0
   -5.7510   25.7040  -29.5330 O   0  0  0  0  0  0  0  0  0  0  0  0
   -7.1880   23.6720  -31.1280 C   0  0  0  0  0  0  0  0  0  0  0  0
   -7.3860   22.3720  -31.5380 C   0  0  0  0  0  0  0  0  0  0  0  0
   -8.5590   21.7080  -31.8870 C   0  0  0  0  0  0  0  0  0  0  0  0
   -8.4590   20.3680  -32.3000 C   0  0  0  0  0  0  0  0  0  0  0  0
   -7.2000   19.7190  -32.3480 C   0  0  0  0  0  0  0  0  0  0  0  0
   -7.0990   18.3010  -32.8360 C   0  0  0  0  0  0  0  0  0  0  0  0
   -5.9490   18.1640  -33.7810 C   0  0  0  0  0  0  0  0  0  0  0  0
   -4.8730   17.6360  -33.3980 O   0  0  0  0  0  0  0  0  0  0  0  0
   -6.0470   18.6660  -35.0740 O   0  0  0  0  0  0  0  0  0  0  0  0
   -6.0310   20.4280  -31.9950 C   0  0  0  0  0  0  0  0  0  0  0  0
   -6.1620   21.7570  -31.5810 C   0  0  0  0  0  0  0  0  0  0  0  0
   -2.3661   24.7952  -26.3590 H   0  0  0  0  0  0  0  0  0  0  0  0
   -1.2530   24.9162  -27.7636 H   0  0  0  0  0  0  0  0  0  0  0  0
   -2.8014   25.8268  -27.7636 H   0  0  0  0  0  0  0  0  0  0  0  0
   -4.1097   23.2286  -26.3838 H   0  0  0  0  0  0  0  0  0  0  0  0
   -5.0674   23.7745  -27.8021 H   0  0  0  0  0  0  0  0  0  0  0  0
   -4.3117   22.1449  -27.8021 H   0  0  0  0  0  0  0  0  0  0  0  0
   -2.2548   21.2776  -30.1968 H   0  0  0  0  0  0  0  0  0  0  0  0
   -3.7865   21.5685  -29.2651 H   0  0  0  0  0  0  0  0  0  0  0  0
   -3.0330   25.2900  -30.2200 H   0  0  0  0  0  0  0  0  0  0  0  0
   -7.9524   24.4499  -30.9843 H   0  0  0  0  0  0  0  0  0  0  0  0
   -9.5335   22.2161  -31.8410 H   0  0  0  0  0  0  0  0  0  0  0  0
   -9.3667   19.8178  -32.5887 H   0  0  0  0  0  0  0  0  0  0  0  0
   -6.9462   17.6307  -31.9773 H   0  0  0  0  0  0  0  0  0  0  0  0
   -8.0289   18.0330  -33.3590 H   0  0  0  0  0  0  0  0  0  0  0  0
   -5.0429   19.9472  -32.0444 H   0  0  0  0  0  0  0  0  0  0  0  0
  1  2  1  0
  2  3  1  0
  2  4  1  0
  4  5  2  0
  4  6  1  0
  6  7  1  0
  7  8  2  0
  7  9  1  0
  9 10  1  0
 10 11  1  0
 11 12  1  0
 11 13  2  0
 10 14  2  0
 14 15  1  0
 15 16  2  0
 16 17  1  0
 17 18  2  0
 18 19  1  0
 19 20  1  0
 20 21  2  0
 20 22  1  0
 18 23  1  0
 23 24  2  0
 24  9  1  0
 24 15  1  0
  1 25  1  0
  1 26  1  0
  1 27  1  0
  3 28  1  0
  3 29  1  0
  3 30  1  0
  6 31  1  0
  6 32  1  0
 12 33  1  0
 14 34  1  0
 16 35  1  0
 17 36  1  0
 19 37  1  0
 19 38  1  0
 23 39  1  0
M  CHG  2  12  -1  22  -1
M  END
>  <UniqueID>  (73) 
72

>  <SMILES>  (73) 
CN(C)C(=O)CC(=O)n1c(C([NH-])=O)cc2ccc(CC(=O)[O-])cc21

>  <Energy>  (73) 
74.2466598702956

>  <Genealogy>  (73) 
CN(C)C(=O)CC(=O)n1c(C([NH-])=O)cc2ccc(CC(=O)[O-])cc21 (protonated)
CN(C)C(=O)CC(=O)n1c(C([NH-])=O)cc2ccc(CC(=O)[O-])cc21 (3D coordinates assigned)
CN(C)C(=O)CC(=O)n1c(C([NH-])=O)cc2ccc(CC(=O)[O-])cc21 (optimized conformer: 74.2466598702956 kcal/mol)

>  <smiles>  (73) 
CN(C)C(=O)CC(=O)n1c(C(N)=O)cc2ccc(CC(=O)O)cc21

>  <score_type>  (73) 
oracle

>  <origin>  (73) 
adg

>  <m_score__min__energy>  (73) 
-10.02

>  <m_primary>  (73) 
energy

$$$$
74:0
     RDKit          3D

 35 36  0  0  0  0  0  0  0  0999 V2000
   -2.3910   22.3020  -31.8630 C   0  0  0  0  0  0  0  0  0  0  0  0
   -2.7050   22.9560  -30.5810 N   0  0  2  0  0  0  0  0  0  0  0  0
   -1.5650   22.9440  -29.6300 C   0  0  0  0  0  0  0  0  0  0  0  0
   -1.1010   24.3120  -29.2010 C   0  0  0  0  0  0  0  0  0  0  0  0
   -1.8550   25.3110  -29.3390 O   0  0  0  0  0  0  0  0  0  0  0  0
    0.1700   24.4820  -28.6640 O   0  0  0  0  0  0  0  0  0  0  0  0
   -3.9120   22.3910  -30.0190 C   0  0  0  0  0  0  0  0  0  0  0  0
   -3.8540   21.5940  -29.0420 O   0  0  0  0  0  0  0  0  0  0  0  0
   -5.1850   22.6420  -30.6380 N   0  0  0  0  0  0  0  0  0  0  0  0
   -5.7850   23.8500  -30.8370 C   0  0  0  0  0  0  0  0  0  0  0  0
   -5.2740   25.1560  -30.3690 C   0  0  0  0  0  0  0  0  0  0  0  0
   -4.0270   25.6470  -30.8580 N   0  0  0  0  0  0  0  0  0  0  0  0
   -5.9330   25.8540  -29.5540 O   0  0  0  0  0  0  0  0  0  0  0  0
   -6.9970   23.6880  -31.5050 C   0  0  0  0  0  0  0  0  0  0  0  0
   -7.1200   22.3340  -31.7130 C   0  0  0  0  0  0  0  0  0  0  0  0
   -8.1340   21.6130  -32.3360 C   0  0  0  0  0  0  0  0  0  0  0  0
   -7.9910   20.2180  -32.4250 C   0  0  0  0  0  0  0  0  0  0  0  0
   -6.8330   19.5720  -31.9180 C   0  0  0  0  0  0  0  0  0  0  0  0
   -6.7110   18.0710  -31.9840 C   0  0  0  0  0  0  0  0  0  0  0  0
   -5.8080   17.6990  -32.9660 F   0  0  0  0  0  0  0  0  0  0  0  0
   -7.9470   17.5270  -32.2780 F   0  0  0  0  0  0  0  0  0  0  0  0
   -6.2690   17.5630  -30.7750 F   0  0  0  0  0  0  0  0  0  0  0  0
   -5.8370   20.3400  -31.2720 C   0  0  0  0  0  0  0  0  0  0  0  0
   -6.0130   21.7250  -31.1830 C   0  0  0  0  0  0  0  0  0  0  0  0
   -1.9222   21.3255  -31.6713 H   0  0  0  0  0  0  0  0  0  0  0  0
   -3.3178   22.1573  -32.4375 H   0  0  0  0  0  0  0  0  0  0  0  0
   -1.6985   22.9348  -32.4375 H   0  0  0  0  0  0  0  0  0  0  0  0
   -2.8960   23.9610  -30.8030 H   0  0  0  0  0  0  0  0  0  0  0  0
   -1.8711   22.3868  -28.7323 H   0  0  0  0  0  0  0  0  0  0  0  0
   -0.7204   22.4756  -30.1566 H   0  0  0  0  0  0  0  0  0  0  0  0
   -3.1240   25.2970  -30.4700 H   0  0  0  0  0  0  0  0  0  0  0  0
   -7.7049   24.4755  -31.8027 H   0  0  0  0  0  0  0  0  0  0  0  0
   -9.0202   22.1194  -32.7462 H   0  0  0  0  0  0  0  0  0  0  0  0
   -8.7861   19.6192  -32.8933 H   0  0  0  0  0  0  0  0  0  0  0  0
   -4.9430   19.8589  -30.8485 H   0  0  0  0  0  0  0  0  0  0  0  0
  1  2  1  0
  2  3  1  0
  3  4  1  0
  4  5  2  0
  4  6  1  0
  2  7  1  0
  7  8  2  0
  7  9  1  0
  9 10  1  0
 10 11  1  0
 11 12  1  0
 11 13  2  0
 10 14  2  0
 14 15  1  0
 15 16  2  0
 16 17  1  0
 17 18  2  0
 18 19  1  0
 19 20  1  0
 19 21  1  0
 19 22  1  0
 18 23  1  0
 23 24  2  0
 24  9  1  0
 24 15  1  0
  1 25  1  0
  1 26  1  0
  1 27  1  0
  2 28  1  6
  3 29  1  0
  3 30  1  0
 12 31  1  0
 14 32  1  0
 16 33  1  0
 17 34  1  0
 23 35  1  0
M  CHG  3   2   1   6  -1  12  -1
M  END
>  <UniqueID>  (74) 
73

>  <SMILES>  (74) 
C[N@H+](CC(=O)[O-])C(=O)n1c(C([NH-])=O)cc2ccc(C(F)(F)F)cc21

>  <Energy>  (74) 
79.74752710962717

>  <Genealogy>  (74) 
C[NH+](CC(=O)[O-])C(=O)n1c(C([NH-])=O)cc2ccc(C(F)(F)F)cc21 (protonated)
C[N@H+](CC(=O)[O-])C(=O)n1c(C([NH-])=O)cc2ccc(C(F)(F)F)cc21 (chirality)
C[N@H+](CC(=O)[O-])C(=O)n1c(C([NH-])=O)cc2ccc(C(F)(F)F)cc21 (3D coordinates assigned)
C[N@H+](CC(=O)[O-])C(=O)n1c(C([NH-])=O)cc2ccc(C(F)(F)F)cc21 (optimized conformer: 79.74752710962717 kcal/mol)

>  <smiles>  (74) 
CN(CC(=O)O)C(=O)n1c(C(N)=O)cc2ccc(C(F)(F)F)cc21

>  <score_type>  (74) 
oracle

>  <origin>  (74) 
adg

>  <m_score__min__energy>  (74) 
-9.9299999999999997

>  <m_primary>  (74) 
energy

$$$$
75:0
     RDKit          3D

 27 29  0  0  0  0  0  0  0  0999 V2000
   -1.5400   25.9770  -28.9300 N   0  0  0  0  0  0  0  0  0  0  0  0
   -0.8780   24.7170  -28.9910 C   0  0  0  0  0  0  0  0  0  0  0  0
    0.2600   24.5910  -28.4650 O   0  0  0  0  0  0  0  0  0  0  0  0
   -1.4790   23.5760  -29.7120 C   0  0  0  0  0  0  0  0  0  0  0  0
   -0.7700   22.4250  -30.0520 C   0  0  0  0  0  0  0  0  0  0  0  0
   -1.6460   21.6600  -30.7850 C   0  0  0  0  0  0  0  0  0  0  0  0
   -1.4700   20.4070  -31.3640 C   0  0  0  0  0  0  0  0  0  0  0  0
   -2.5600   19.8360  -32.0410 C   0  0  0  0  0  0  0  0  0  0  0  0
   -3.8040   20.5140  -32.1240 C   0  0  0  0  0  0  0  0  0  0  0  0
   -4.9400   19.8790  -32.8360 C   0  0  0  0  0  0  0  0  0  0  0  0
   -6.2820   19.9650  -32.5120 C   0  0  0  0  0  0  0  0  0  0  0  0
   -6.9140   19.2080  -33.4730 C   0  0  0  0  0  0  0  0  0  0  0  0
   -5.9980   18.7020  -34.3200 N   0  0  0  0  0  0  0  0  0  0  0  0
   -4.7990   19.1090  -33.9340 N   0  0  0  0  0  0  0  0  0  0  0  0
   -3.9410   21.7870  -31.5190 C   0  0  0  0  0  0  0  0  0  0  0  0
   -2.8320   22.3400  -30.8660 C   0  0  0  0  0  0  0  0  0  0  0  0
   -2.7470   23.5200  -30.2090 N   0  0  0  0  0  0  0  0  0  0  0  0
   -3.8130   24.4600  -30.0010 C   0  0  0  0  0  0  0  0  0  0  0  0
   -4.6990   24.2370  -29.1340 O   0  0  0  0  0  0  0  0  0  0  0  0
   -3.8610   25.6390  -30.7360 O   0  0  0  0  0  0  0  0  0  0  0  0
   -2.5810   26.0390  -28.9810 H   0  0  0  0  0  0  0  0  0  0  0  0
    0.2699   22.1807  -29.7895 H   0  0  0  0  0  0  0  0  0  0  0  0
   -0.5070   19.8800  -31.2936 H   0  0  0  0  0  0  0  0  0  0  0  0
   -2.4479   18.8491  -32.5137 H   0  0  0  0  0  0  0  0  0  0  0  0
   -6.7404   20.5138  -31.6761 H   0  0  0  0  0  0  0  0  0  0  0  0
   -7.9995   19.0423  -33.5385 H   0  0  0  0  0  0  0  0  0  0  0  0
   -4.8970   22.3295  -31.5609 H   0  0  0  0  0  0  0  0  0  0  0  0
  1  2  1  0
  2  3  2  0
  2  4  1  0
  4  5  2  0
  5  6  1  0
  6  7  2  0
  7  8  1  0
  8  9  2  0
  9 10  1  0
 10 11  2  0
 11 12  1  0
 12 13  2  0
 13 14  1  0
  9 15  1  0
 15 16  2  0
 16 17  1  0
 17 18  1  0
 18 19  2  0
 18 20  1  0
 17  4  1  0
 16  6  1  0
 14 10  1  0
  1 21  1  0
  5 22  1  0
  7 23  1  0
  8 24  1  0
 11 25  1  0
 12 26  1  0
 15 27  1  0
M  CHG  3   1  -1  14  -1  20  -1
M  END
>  <UniqueID>  (75) 
74

>  <SMILES>  (75) 
[NH-]C(=O)c1cc2ccc(-c3ccn[n-]3)cc2n1C(=O)[O-]

>  <Energy>  (75) 
100.2995107179987

>  <Genealogy>  (75) 
[NH-]C(=O)c1cc2ccc(-c3ccn[n-]3)cc2n1C(=O)[O-] (protonated)
[NH-]C(=O)c1cc2ccc(-c3ccn[n-]3)cc2n1C(=O)[O-] (3D coordinates assigned)
[NH-]C(=O)c1cc2ccc(-c3ccn[n-]3)cc2n1C(=O)[O-] (optimized conformer: 100.2995107179987 kcal/mol)

>  <smiles>  (75) 
NC(=O)c1cc2ccc(-c3ccn[nH]3)cc2n1C(=O)O

>  <score_type>  (75) 
oracle

>  <origin>  (75) 
adg

>  <m_score__min__energy>  (75) 
-10.51

>  <m_primary>  (75) 
energy

$$$$
76:0
     RDKit          3D

 32 33  0  0  0  0  0  0  0  0999 V2000
   -1.6250   25.6890  -28.9250 N   0  0  0  0  0  0  0  0  0  0  0  0
   -1.0610   24.3910  -29.0980 C   0  0  0  0  0  0  0  0  0  0  0  0
    0.0820   24.1470  -28.6290 O   0  0  0  0  0  0  0  0  0  0  0  0
   -1.8280   23.3420  -29.8000 C   0  0  0  0  0  0  0  0  0  0  0  0
   -1.2830   22.4870  -30.7570 C   0  0  0  0  0  0  0  0  0  0  0  0
   -2.3380   21.7220  -31.2050 C   0  0  0  0  0  0  0  0  0  0  0  0
   -2.3700   20.7040  -32.1550 C   0  0  0  0  0  0  0  0  0  0  0  0
   -3.6040   20.0750  -32.4030 C   0  0  0  0  0  0  0  0  0  0  0  0
   -4.7650   20.4740  -31.7010 C   0  0  0  0  0  0  0  0  0  0  0  0
   -6.0200   19.8170  -31.9580 C   0  0  0  0  0  0  0  0  0  0  0  0
   -7.0700   19.2680  -32.1740 C   0  0  0  0  0  0  0  0  0  0  0  0
   -8.3470   18.6030  -32.4360 C   0  0  0  0  0  0  0  0  0  0  0  0
   -9.2600   19.5340  -32.9400 O   0  0  0  0  0  0  0  0  0  0  0  0
   -4.6990   21.5090  -30.7470 C   0  0  0  0  0  0  0  0  0  0  0  0
   -3.4610   22.1220  -30.5290 C   0  0  0  0  0  0  0  0  0  0  0  0
   -3.1630   23.1100  -29.6610 N   0  0  0  0  0  0  0  0  0  0  0  0
   -4.0780   23.7310  -28.7490 C   0  0  0  0  0  0  0  0  0  0  0  0
   -3.7920   23.7940  -27.5230 O   0  0  0  0  0  0  0  0  0  0  0  0
   -5.3130   24.4100  -29.2570 C   0  0  0  0  0  0  0  0  0  0  0  0
   -5.0440   25.0030  -30.6020 C   0  0  0  0  0  0  0  0  0  0  0  0
   -5.8670   24.8430  -31.5410 O   0  0  0  0  0  0  0  0  0  0  0  0
   -3.8590   25.6890  -30.8350 O   0  0  0  0  0  0  0  0  0  0  0  0
   -2.6550   25.8410  -29.0040 H   0  0  0  0  0  0  0  0  0  0  0  0
   -0.2342   22.4343  -31.0846 H   0  0  0  0  0  0  0  0  0  0  0  0
   -1.4600   20.4015  -32.6940 H   0  0  0  0  0  0  0  0  0  0  0  0
   -3.6660   19.2678  -33.1477 H   0  0  0  0  0  0  0  0  0  0  0  0
   -8.1981   17.7993  -33.1721 H   0  0  0  0  0  0  0  0  0  0  0  0
   -8.7371   18.1746  -31.5009 H   0  0  0  0  0  0  0  0  0  0  0  0
   -8.9820   19.7140  -33.8750 H   0  0  0  0  0  0  0  0  0  0  0  0
   -5.5938   21.8251  -30.1908 H   0  0  0  0  0  0  0  0  0  0  0  0
   -6.1276   23.6751  -29.3375 H   0  0  0  0  0  0  0  0  0  0  0  0
   -5.6038   25.2082  -28.5582 H   0  0  0  0  0  0  0  0  0  0  0  0
  1  2  1  0
  2  3  2  0
  2  4  1  0
  4  5  2  0
  5  6  1  0
  6  7  2  0
  7  8  1  0
  8  9  2  0
  9 10  1  0
 10 11  3  0
 11 12  1  0
 12 13  1  0
  9 14  1  0
 14 15  2  0
 15 16  1  0
 16 17  1  0
 17 18  2  0
 17 19  1  0
 19 20  1  0
 20 21  2  0
 20 22  1  0
 16  4  1  0
 15  6  1  0
  1 23  1  0
  5 24  1  0
  7 25  1  0
  8 26  1  0
 12 27  1  0
 12 28  1  0
 13 29  1  0
 14 30  1  0
 19 31  1  0
 19 32  1  0
M  CHG  2   1  -1  22  -1
M  END
>  <UniqueID>  (76) 
75

>  <SMILES>  (76) 
[NH-]C(=O)c1cc2ccc(C#CCO)cc2n1C(=O)CC(=O)[O-]

>  <Energy>  (76) 
64.49507787631978

>  <Genealogy>  (76) 
[NH-]C(=O)c1cc2ccc(C#CCO)cc2n1C(=O)CC(=O)[O-] (protonated)
[NH-]C(=O)c1cc2ccc(C#CCO)cc2n1C(=O)CC(=O)[O-] (3D coordinates assigned)
[NH-]C(=O)c1cc2ccc(C#CCO)cc2n1C(=O)CC(=O)[O-] (optimized conformer: 64.49507787631978 kcal/mol)

>  <smiles>  (76) 
NC(=O)c1cc2ccc(C#CCO)cc2n1C(=O)CC(=O)O

>  <score_type>  (76) 
oracle

>  <origin>  (76) 
adg

>  <m_score__min__energy>  (76) 
-11.710000000000001

>  <m_primary>  (76) 
energy

$$$$
77:0
     RDKit          3D

 33 34  0  0  0  0  0  0  0  0999 V2000
   -3.9610   25.6510  -30.8420 N   0  0  0  0  0  0  0  0  0  0  0  0
   -5.2160   25.1110  -30.4410 C   0  0  0  0  0  0  0  0  0  0  0  0
   -5.8710   25.6830  -29.5290 O   0  0  0  0  0  0  0  0  0  0  0  0
   -5.7290   23.8600  -31.0350 C   0  0  0  0  0  0  0  0  0  0  0  0
   -7.0870   23.5760  -31.1590 C   0  0  0  0  0  0  0  0  0  0  0  0
   -7.1470   22.2990  -31.6680 C   0  0  0  0  0  0  0  0  0  0  0  0
   -8.2510   21.5180  -31.9910 C   0  0  0  0  0  0  0  0  0  0  0  0
   -8.0200   20.2400  -32.5270 C   0  0  0  0  0  0  0  0  0  0  0  0
   -6.6990   19.7780  -32.7550 C   0  0  0  0  0  0  0  0  0  0  0  0
   -6.4630   18.3900  -33.2960 C   0  0  0  0  0  0  0  0  0  0  0  0
   -5.4290   17.7980  -32.5970 F   0  0  0  0  0  0  0  0  0  0  0  0
   -7.6010   17.6130  -33.1640 F   0  0  0  0  0  0  0  0  0  0  0  0
   -6.1280   18.4400  -34.6380 F   0  0  0  0  0  0  0  0  0  0  0  0
   -5.6030   20.5950  -32.3920 C   0  0  0  0  0  0  0  0  0  0  0  0
   -5.8620   21.8560  -31.8420 C   0  0  0  0  0  0  0  0  0  0  0  0
   -4.9770   22.8040  -31.4580 N   0  0  0  0  0  0  0  0  0  0  0  0
   -3.5470   22.7330  -31.5870 C   0  0  0  0  0  0  0  0  0  0  0  0
   -2.8100   23.0900  -30.6300 O   0  0  0  0  0  0  0  0  0  0  0  0
   -2.9610   22.2170  -32.7860 N   0  0  0  0  0  0  0  0  0  0  0  0
   -2.1970   20.6660  -32.8670 S   0  0  0  0  0  0  0  0  0  0  0  0
   -2.4580   19.9130  -31.5940 O   0  0  0  0  0  0  0  0  0  0  0  0
   -2.7820   19.8960  -34.0180 O   0  0  0  0  0  0  0  0  0  0  0  0
   -0.4360   20.8310  -33.1160 C   0  0  0  0  0  0  0  0  0  0  0  0
   -0.1310   21.0900  -34.5550 C   0  0  0  0  0  0  0  0  0  0  0  0
   -0.3270   20.1930  -35.4150 O   0  0  0  0  0  0  0  0  0  0  0  0
    0.3870   22.3180  -34.9470 O   0  0  0  0  0  0  0  0  0  0  0  0
   -3.0650   25.2680  -30.4650 H   0  0  0  0  0  0  0  0  0  0  0  0
   -7.9318   24.2328  -30.9042 H   0  0  0  0  0  0  0  0  0  0  0  0
   -9.2741   21.8894  -31.8317 H   0  0  0  0  0  0  0  0  0  0  0  0
   -8.8733   19.5907  -32.7725 H   0  0  0  0  0  0  0  0  0  0  0  0
   -4.5698   20.2472  -32.5386 H   0  0  0  0  0  0  0  0  0  0  0  0
   -0.0622   21.6698  -32.5105 H   0  0  0  0  0  0  0  0  0  0  0  0
    0.0546   19.8945  -32.8123 H   0  0  0  0  0  0  0  0  0  0  0  0
  1  2  1  0
  2  3  2  0
  2  4  1  0
  4  5  2  0
  5  6  1  0
  6  7  2  0
  7  8  1  0
  8  9  2  0
  9 10  1  0
 10 11  1  0
 10 12  1  0
 10 13  1  0
  9 14  1  0
 14 15  2  0
 15 16  1  0
 16 17  1  0
 17 18  2  0
 17 19  1  0
 19 20  1  0
 20 21  2  0
 20 22  2  0
 20 23  1  0
 23 24  1  0
 24 25  2  0
 24 26  1  0
 16  4  1  0
 15  6  1  0
  1 27  1  0
  5 28  1  0
  7 29  1  0
  8 30  1  0
 14 31  1  0
 23 32  1  0
 23 33  1  0
M  CHG  3   1  -1  19  -1  26  -1
M  END
>  <UniqueID>  (77) 
76

>  <SMILES>  (77) 
[NH-]C(=O)c1cc2ccc(C(F)(F)F)cc2n1C(=O)[N-]S(=O)(=O)CC(=O)[O-]

>  <Energy>  (77) 
69.7483181025798

>  <Genealogy>  (77) 
[NH-]C(=O)c1cc2ccc(C(F)(F)F)cc2n1C(=O)[N-]S(=O)(=O)CC(=O)[O-] (protonated)
[NH-]C(=O)c1cc2ccc(C(F)(F)F)cc2n1C(=O)[N-]S(=O)(=O)CC(=O)[O-] (3D coordinates assigned)
[NH-]C(=O)c1cc2ccc(C(F)(F)F)cc2n1C(=O)[N-]S(=O)(=O)CC(=O)[O-] (optimized conformer: 69.7483181025798 kcal/mol)

>  <smiles>  (77) 
NC(=O)c1cc2ccc(C(F)(F)F)cc2n1C(=O)NS(=O)(=O)CC(=O)O

>  <score_type>  (77) 
oracle

>  <origin>  (77) 
adg

>  <m_score__min__energy>  (77) 
-12.92

>  <m_primary>  (77) 
energy

$$$$
78:0
     RDKit          3D

 36 38  0  0  0  0  0  0  0  0999 V2000
   -1.5990   25.6490  -28.9550 N   0  0  0  0  0  0  0  0  0  0  0  0
   -0.8410   24.4430  -29.0310 C   0  0  0  0  0  0  0  0  0  0  0  0
    0.2210   24.3400  -28.3640 O   0  0  0  0  0  0  0  0  0  0  0  0
   -1.3190   23.3250  -29.8720 C   0  0  0  0  0  0  0  0  0  0  0  0
   -0.4800   22.3660  -30.4360 C   0  0  0  0  0  0  0  0  0  0  0  0
   -1.3060   21.5460  -31.1720 C   0  0  0  0  0  0  0  0  0  0  0  0
   -1.0060   20.4260  -31.9410 C   0  0  0  0  0  0  0  0  0  0  0  0
   -2.0670   19.7620  -32.5810 C   0  0  0  0  0  0  0  0  0  0  0  0
   -3.4000   20.2150  -32.4230 C   0  0  0  0  0  0  0  0  0  0  0  0
   -4.5240   19.5260  -33.1440 C   0  0  0  0  0  0  0  0  0  0  0  0
   -5.8020   19.9410  -32.5740 N   0  0  0  0  0  0  0  0  0  0  0  0
   -6.7380   19.1270  -32.0470 C   0  0  0  0  0  0  0  0  0  0  0  0
   -7.8400   19.8880  -31.7020 C   0  0  0  0  0  0  0  0  0  0  0  0
   -7.5000   21.1810  -32.0660 C   0  0  0  0  0  0  0  0  0  0  0  0
   -8.3440   22.3740  -31.9290 C   0  0  0  0  0  0  0  0  0  0  0  0
   -7.9810   23.4710  -32.4280 O   0  0  0  0  0  0  0  0  0  0  0  0
   -9.5520   22.2990  -31.2460 O   0  0  0  0  0  0  0  0  0  0  0  0
   -6.2620   21.1810  -32.5960 N   0  0  0  0  0  0  0  0  0  0  0  0
   -3.6660   21.3590  -31.6410 C   0  0  0  0  0  0  0  0  0  0  0  0
   -2.5870   22.0130  -31.0360 C   0  0  0  0  0  0  0  0  0  0  0  0
   -2.6110   23.1090  -30.2470 N   0  0  0  0  0  0  0  0  0  0  0  0
   -3.7760   23.8480  -29.8490 C   0  0  0  0  0  0  0  0  0  0  0  0
   -4.0940   23.9010  -28.6320 O   0  0  0  0  0  0  0  0  0  0  0  0
   -4.6000   24.5520  -30.8430 C   0  0  0  0  0  0  0  0  0  0  0  0
   -4.6570   25.8100  -30.8480 O   0  0  0  0  0  0  0  0  0  0  0  0
   -5.3350   23.8290  -31.7740 O   0  0  0  0  0  0  0  0  0  0  0  0
   -2.5930   25.6790  -29.2700 H   0  0  0  0  0  0  0  0  0  0  0  0
    0.6104   22.2818  -30.3183 H   0  0  0  0  0  0  0  0  0  0  0  0
    0.0299   20.0709  -32.0450 H   0  0  0  0  0  0  0  0  0  0  0  0
   -1.8605   18.8833  -33.2097 H   0  0  0  0  0  0  0  0  0  0  0  0
   -4.4943   19.7957  -34.2100 H   0  0  0  0  0  0  0  0  0  0  0  0
   -4.4131   18.4370  -33.0352 H   0  0  0  0  0  0  0  0  0  0  0  0
   -6.6416   18.0394  -31.9136 H   0  0  0  0  0  0  0  0  0  0  0  0
   -8.7776   19.5436  -31.2413 H   0  0  0  0  0  0  0  0  0  0  0  0
   -5.7460   22.0050  -32.9800 H   0  0  0  0  0  0  0  0  0  0  0  0
   -4.6944   21.7270  -31.5104 H   0  0  0  0  0  0  0  0  0  0  0  0
  1  2  1  0
  2  3  2  0
  2  4  1  0
  4  5  2  0
  5  6  1  0
  6  7  2  0
  7  8  1  0
  8  9  2  0
  9 10  1  0
 10 11  1  0
 11 12  1  0
 12 13  2  0
 13 14  1  0
 14 15  1  0
 15 16  2  0
 15 17  1  0
 14 18  2  0
  9 19  1  0
 19 20  2  0
 20 21  1  0
 21 22  1  0
 22 23  2  0
 22 24  1  0
 24 25  2  0
 24 26  1  0
 21  4  1  0
 20  6  1  0
 18 11  1  0
  1 27  1  0
  5 28  1  0
  7 29  1  0
  8 30  1  0
 10 31  1  0
 10 32  1  0
 12 33  1  0
 13 34  1  0
 18 35  1  0
 19 36  1  0
M  CHG  4   1  -1  17  -1  18   1  26  -1
M  END
>  <UniqueID>  (78) 
77

>  <SMILES>  (78) 
[NH-]C(=O)c1cc2ccc(Cn3ccc(C(=O)[O-])[nH+]3)cc2n1C(=O)C(=O)[O-]

>  <Energy>  (78) 
104.69470774521825

>  <Genealogy>  (78) 
[NH-]C(=O)c1cc2ccc(Cn3ccc(C(=O)[O-])[nH+]3)cc2n1C(=O)C(=O)[O-] (protonated)
[NH-]C(=O)c1cc2ccc(Cn3ccc(C(=O)[O-])[nH+]3)cc2n1C(=O)C(=O)[O-] (3D coordinates assigned)
[NH-]C(=O)c1cc2ccc(Cn3ccc(C(=O)[O-])[nH+]3)cc2n1C(=O)C(=O)[O-] (optimized conformer: 104.69470774521825 kcal/mol)

>  <smiles>  (78) 
NC(=O)c1cc2ccc(Cn3ccc(C(=O)O)n3)cc2n1C(=O)C(=O)O

>  <score_type>  (78) 
oracle

>  <origin>  (78) 
adg

>  <m_score__min__energy>  (78) 
-10.859999999999999

>  <m_primary>  (78) 
energy

$$$$
79:0
     RDKit          3D

 38 39  0  0  0  0  0  0  0  0999 V2000
   -2.1130   22.4110  -29.1990 C   0  0  0  0  0  0  0  0  0  0  0  0
   -2.8790   23.7470  -29.2140 C   0  0  0  0  0  0  0  0  0  0  0  0
   -4.0310   23.7190  -28.1930 C   0  0  0  0  0  0  0  0  0  0  0  0
   -1.9120   24.8830  -28.8480 C   0  0  0  0  0  0  0  0  0  0  0  0
   -3.3970   24.0200  -30.5590 N   0  0  0  0  0  0  0  0  0  0  0  0
   -4.0420   23.0900  -31.4420 C   0  0  0  0  0  0  0  0  0  0  0  0
   -3.3630   22.4010  -32.2500 O   0  0  0  0  0  0  0  0  0  0  0  0
   -5.4710   22.9630  -31.4200 N   0  0  0  0  0  0  0  0  0  0  0  0
   -6.3830   23.8920  -31.0140 C   0  0  0  0  0  0  0  0  0  0  0  0
   -6.0610   25.1770  -30.3540 C   0  0  0  0  0  0  0  0  0  0  0  0
   -4.9870   25.9910  -30.8290 N   0  0  0  0  0  0  0  0  0  0  0  0
   -6.7550   25.5820  -29.3850 O   0  0  0  0  0  0  0  0  0  0  0  0
   -7.6800   23.4250  -31.2200 C   0  0  0  0  0  0  0  0  0  0  0  0
   -7.5340   22.1700  -31.7650 C   0  0  0  0  0  0  0  0  0  0  0  0
   -8.4990   21.2610  -32.1850 C   0  0  0  0  0  0  0  0  0  0  0  0
   -8.0620   20.0480  -32.7460 C   0  0  0  0  0  0  0  0  0  0  0  0
   -6.6780   19.7610  -32.8650 C   0  0  0  0  0  0  0  0  0  0  0  0
   -6.2230   18.4850  -33.5250 C   0  0  0  0  0  0  0  0  0  0  0  0
   -7.1770   17.5050  -33.3270 F   0  0  0  0  0  0  0  0  0  0  0  0
   -5.0200   18.0590  -32.9890 F   0  0  0  0  0  0  0  0  0  0  0  0
   -6.0470   18.6740  -34.8850 F   0  0  0  0  0  0  0  0  0  0  0  0
   -5.7290   20.7230  -32.4460 C   0  0  0  0  0  0  0  0  0  0  0  0
   -6.1930   21.9140  -31.8760 C   0  0  0  0  0  0  0  0  0  0  0  0
   -1.9357   22.1017  -28.1584 H   0  0  0  0  0  0  0  0  0  0  0  0
   -2.7073   21.6418  -29.7139 H   0  0  0  0  0  0  0  0  0  0  0  0
   -1.1490   22.5353  -29.7139 H   0  0  0  0  0  0  0  0  0  0  0  0
   -3.6178   23.7290  -27.1736 H   0  0  0  0  0  0  0  0  0  0  0  0
   -4.6710   24.6019  -28.3380 H   0  0  0  0  0  0  0  0  0  0  0  0
   -4.6273   22.8061  -28.3380 H   0  0  0  0  0  0  0  0  0  0  0  0
   -1.8414   24.9660  -27.7534 H   0  0  0  0  0  0  0  0  0  0  0  0
   -0.9172   24.6661  -29.2642 H   0  0  0  0  0  0  0  0  0  0  0  0
   -2.2850   25.8304  -29.2642 H   0  0  0  0  0  0  0  0  0  0  0  0
   -4.3560   25.6660  -31.5950 H   0  0  0  0  0  0  0  0  0  0  0  0
   -4.7920   26.9140  -30.3810 H   0  0  0  0  0  0  0  0  0  0  0  0
   -8.6208   23.9486  -30.9947 H   0  0  0  0  0  0  0  0  0  0  0  0
   -9.5712   21.4841  -32.0815 H   0  0  0  0  0  0  0  0  0  0  0  0
   -8.8018   19.3133  -33.0966 H   0  0  0  0  0  0  0  0  0  0  0  0
   -4.6511   20.5391  -32.5655 H   0  0  0  0  0  0  0  0  0  0  0  0
  1  2  1  0
  2  3  1  0
  2  4  1  0
  2  5  1  0
  5  6  1  0
  6  7  2  0
  6  8  1  0
  8  9  1  0
  9 10  1  0
 10 11  1  0
 10 12  2  0
  9 13  2  0
 13 14  1  0
 14 15  2  0
 15 16  1  0
 16 17  2  0
 17 18  1  0
 18 19  1  0
 18 20  1  0
 18 21  1  0
 17 22  1  0
 22 23  2  0
 23  8  1  0
 23 14  1  0
  1 24  1  0
  1 25  1  0
  1 26  1  0
  3 27  1  0
  3 28  1  0
  3 29  1  0
  4 30  1  0
  4 31  1  0
  4 32  1  0
 11 33  1  0
 11 34  1  0
 13 35  1  0
 15 36  1  0
 16 37  1  0
 22 38  1  0
M  CHG  1   5  -1
M  END
>  <UniqueID>  (79) 
78

>  <SMILES>  (79) 
CC(C)(C)[N-]C(=O)n1c(C(N)=O)cc2ccc(C(F)(F)F)cc21

>  <Energy>  (79) 
71.61531710802386

>  <Genealogy>  (79) 
CC(C)(C)[N-]C(=O)n1c(C(N)=O)cc2ccc(C(F)(F)F)cc21 (protonated)
CC(C)(C)[N-]C(=O)n1c(C(N)=O)cc2ccc(C(F)(F)F)cc21 (3D coordinates assigned)
CC(C)(C)[N-]C(=O)n1c(C(N)=O)cc2ccc(C(F)(F)F)cc21 (optimized conformer: 71.61531710802386 kcal/mol)

>  <smiles>  (79) 
CC(C)(C)NC(=O)n1c(C(N)=O)cc2ccc(C(F)(F)F)cc21

>  <score_type>  (79) 
oracle

>  <origin>  (79) 
adg

>  <m_score__min__energy>  (79) 
-8.9700000000000006

>  <m_primary>  (79) 
energy

$$$$
80:0
     RDKit          3D

 40 41  0  0  0  0  0  0  0  0999 V2000
   -3.8750   25.6430  -30.8750 N   0  0  0  0  0  0  0  0  0  0  0  0
   -5.1750   25.2460  -30.4440 C   0  0  0  0  0  0  0  0  0  0  0  0
   -5.8540   26.0290  -29.7280 O   0  0  0  0  0  0  0  0  0  0  0  0
   -5.7570   23.9570  -30.8750 C   0  0  0  0  0  0  0  0  0  0  0  0
   -7.1290   23.7260  -30.9560 C   0  0  0  0  0  0  0  0  0  0  0  0
   -7.2560   22.4660  -31.4920 C   0  0  0  0  0  0  0  0  0  0  0  0
   -8.4000   21.7290  -31.7860 C   0  0  0  0  0  0  0  0  0  0  0  0
   -8.2340   20.4380  -32.3150 C   0  0  0  0  0  0  0  0  0  0  0  0
   -6.9370   19.9110  -32.5410 C   0  0  0  0  0  0  0  0  0  0  0  0
   -6.7700   18.5130  -33.0680 C   0  0  0  0  0  0  0  0  0  0  0  0
   -5.7570   18.4860  -34.1710 C   0  0  0  0  0  0  0  0  0  0  0  0
   -6.0470   18.8840  -35.2880 O   0  0  0  0  0  0  0  0  0  0  0  0
   -5.7990   20.6860  -32.2200 C   0  0  0  0  0  0  0  0  0  0  0  0
   -5.9950   21.9740  -31.7100 C   0  0  0  0  0  0  0  0  0  0  0  0
   -5.0630   22.8760  -31.3280 N   0  0  0  0  0  0  0  0  0  0  0  0
   -3.6400   22.6880  -31.3550 C   0  0  0  0  0  0  0  0  0  0  0  0
   -3.0970   22.1320  -32.3480 O   0  0  0  0  0  0  0  0  0  0  0  0
   -2.8630   23.1380  -30.2830 O   0  0  0  0  0  0  0  0  0  0  0  0
   -2.8640   22.5260  -28.9960 C   0  0  0  0  0  0  0  0  0  0  0  0
   -3.6490   23.3640  -27.9760 C   0  0  0  0  0  0  0  0  0  0  0  0
   -2.8620   24.5690  -27.4280 C   0  0  0  0  0  0  0  0  0  0  0  0
   -1.5290   24.8180  -28.1460 C   0  0  0  0  0  0  0  0  0  0  0  0
   -1.6090   25.9740  -28.9340 O   0  0  0  0  0  0  0  0  0  0  0  0
   -3.0180   25.2810  -30.4000 H   0  0  0  0  0  0  0  0  0  0  0  0
   -7.9386   24.4071  -30.6550 H   0  0  0  0  0  0  0  0  0  0  0  0
   -9.4030   22.1447  -31.6095 H   0  0  0  0  0  0  0  0  0  0  0  0
   -9.1186   19.8302  -32.5562 H   0  0  0  0  0  0  0  0  0  0  0  0
   -6.4343   17.8562  -32.2520 H   0  0  0  0  0  0  0  0  0  0  0  0
   -7.7355   18.1638  -33.4629 H   0  0  0  0  0  0  0  0  0  0  0  0
   -4.7443   18.1047  -33.9731 H   0  0  0  0  0  0  0  0  0  0  0  0
   -4.7848   20.2864  -32.3675 H   0  0  0  0  0  0  0  0  0  0  0  0
   -3.3269   21.5312  -29.0734 H   0  0  0  0  0  0  0  0  0  0  0  0
   -1.8228   22.4470  -28.6501 H   0  0  0  0  0  0  0  0  0  0  0  0
   -4.5619   23.7378  -28.4628 H   0  0  0  0  0  0  0  0  0  0  0  0
   -3.8679   22.7074  -27.1211 H   0  0  0  0  0  0  0  0  0  0  0  0
   -3.4864   25.4683  -27.5347 H   0  0  0  0  0  0  0  0  0  0  0  0
   -2.6227   24.3440  -26.3782 H   0  0  0  0  0  0  0  0  0  0  0  0
   -0.7320   24.9431  -27.3982 H   0  0  0  0  0  0  0  0  0  0  0  0
   -1.3060   23.9579  -28.7945 H   0  0  0  0  0  0  0  0  0  0  0  0
   -1.9910   25.6890  -29.8040 H   0  0  0  0  0  0  0  0  0  0  0  0
  1  2  1  0
  2  3  2  0
  2  4  1  0
  4  5  2  0
  5  6  1  0
  6  7  2  0
  7  8  1  0
  8  9  2  0
  9 10  1  0
 10 11  1  0
 11 12  2  0
  9 13  1  0
 13 14  2  0
 14 15  1  0
 15 16  1  0
 16 17  2  0
 16 18  1  0
 18 19  1  0
 19 20  1  0
 20 21  1  0
 21 22  1  0
 22 23  1  0
 15  4  1  0
 14  6  1  0
  1 24  1  0
  5 25  1  0
  7 26  1  0
  8 27  1  0
 10 28  1  0
 10 29  1  0
 11 30  1  0
 13 31  1  0
 19 32  1  0
 19 33  1  0
 20 34  1  0
 20 35  1  0
 21 36  1  0
 21 37  1  0
 22 38  1  0
 22 39  1  0
 23 40  1  0
M  CHG  1   1  -1
M  END
>  <UniqueID>  (80) 
79

>  <SMILES>  (80) 
[NH-]C(=O)c1cc2ccc(CC=O)cc2n1C(=O)OCCCCO

>  <Energy>  (80) 
70.66499427888417

>  <Genealogy>  (80) 
[NH-]C(=O)c1cc2ccc(CC=O)cc2n1C(=O)OCCCCO (protonated)
[NH-]C(=O)c1cc2ccc(CC=O)cc2n1C(=O)OCCCCO (3D coordinates assigned)
[NH-]C(=O)c1cc2ccc(CC=O)cc2n1C(=O)OCCCCO (optimized conformer: 70.66499427888417 kcal/mol)

>  <smiles>  (80) 
NC(=O)c1cc2ccc(CC=O)cc2n1C(=O)OCCCCO

>  <score_type>  (80) 
oracle

>  <origin>  (80) 
adg

>  <m_score__min__energy>  (80) 
-10.74

>  <m_primary>  (80) 
energy

$$$$
81:0
     RDKit          3D

 40 42  0  0  0  0  0  0  0  0999 V2000
   -4.8060   15.8000  -34.5080 C   0  0  0  0  0  0  0  0  0  0  0  0
   -5.7590   16.7170  -33.8200 C   0  0  0  0  0  0  0  0  0  0  0  0
   -5.5030   18.0210  -33.5940 N   0  0  0  0  0  0  0  0  0  0  0  0
   -6.6020   18.4460  -32.9370 C   0  0  0  0  0  0  0  0  0  0  0  0
   -6.7950   19.8390  -32.4670 C   0  0  0  0  0  0  0  0  0  0  0  0
   -8.1080   20.3730  -32.3700 C   0  0  0  0  0  0  0  0  0  0  0  0
   -8.3210   21.6860  -31.9190 C   0  0  0  0  0  0  0  0  0  0  0  0
   -7.2090   22.4480  -31.5780 C   0  0  0  0  0  0  0  0  0  0  0  0
   -7.1290   23.7320  -31.0890 C   0  0  0  0  0  0  0  0  0  0  0  0
   -5.7680   23.9750  -30.9080 C   0  0  0  0  0  0  0  0  0  0  0  0
   -5.2180   25.2650  -30.4430 C   0  0  0  0  0  0  0  0  0  0  0  0
   -3.9100   25.6660  -30.8470 N   0  0  0  0  0  0  0  0  0  0  0  0
   -5.8820   26.0100  -29.6750 O   0  0  0  0  0  0  0  0  0  0  0  0
   -5.0390   22.8840  -31.2730 N   0  0  0  0  0  0  0  0  0  0  0  0
   -3.6150   22.7090  -31.1880 C   0  0  0  0  0  0  0  0  0  0  0  0
   -2.9870   23.2290  -30.2280 O   0  0  0  0  0  0  0  0  0  0  0  0
   -2.8930   21.9550  -32.2370 C   0  0  0  0  0  0  0  0  0  0  0  0
   -3.3850   21.9340  -33.3980 O   0  0  0  0  0  0  0  0  0  0  0  0
   -1.6570   21.2520  -31.9790 N   0  0  0  0  0  0  0  0  0  0  0  0
   -0.8410   20.8170  -33.1170 C   0  0  0  0  0  0  0  0  0  0  0  0
   -1.2650   20.8740  -30.6170 C   0  0  0  0  0  0  0  0  0  0  0  0
   -5.9340   21.9580  -31.6770 C   0  0  0  0  0  0  0  0  0  0  0  0
   -5.6910   20.6470  -32.1050 C   0  0  0  0  0  0  0  0  0  0  0  0
   -7.4750   17.3830  -32.7870 C   0  0  0  0  0  0  0  0  0  0  0  0
   -6.9190   16.3340  -33.3400 O   0  0  0  0  0  0  0  0  0  0  0  0
   -4.2267   15.2426  -33.7572 H   0  0  0  0  0  0  0  0  0  0  0  0
   -5.3668   15.0932  -35.1372 H   0  0  0  0  0  0  0  0  0  0  0  0
   -4.1213   16.3876  -35.1372 H   0  0  0  0  0  0  0  0  0  0  0  0
   -8.9694   19.7497  -32.6519 H   0  0  0  0  0  0  0  0  0  0  0  0
   -9.3372   22.0992  -31.8380 H   0  0  0  0  0  0  0  0  0  0  0  0
   -7.9621   24.4205  -30.8844 H   0  0  0  0  0  0  0  0  0  0  0  0
   -3.0630   25.2960  -30.3630 H   0  0  0  0  0  0  0  0  0  0  0  0
    0.0733   20.3296  -32.7475 H   0  0  0  0  0  0  0  0  0  0  0  0
   -1.4146   20.1050  -33.7286 H   0  0  0  0  0  0  0  0  0  0  0  0
   -0.5696   21.6901  -33.7286 H   0  0  0  0  0  0  0  0  0  0  0  0
   -1.8602   21.4479  -29.8915 H   0  0  0  0  0  0  0  0  0  0  0  0
   -1.4438   19.7988  -30.4690 H   0  0  0  0  0  0  0  0  0  0  0  0
   -0.1970   21.0918  -30.4690 H   0  0  0  0  0  0  0  0  0  0  0  0
   -4.6650   20.2540  -32.1586 H   0  0  0  0  0  0  0  0  0  0  0  0
   -8.4574   17.4134  -32.2931 H   0  0  0  0  0  0  0  0  0  0  0  0
  1  2  1  0
  2  3  2  0
  3  4  1  0
  4  5  1  0
  5  6  2  0
  6  7  1  0
  7  8  2  0
  8  9  1  0
  9 10  2  0
 10 11  1  0
 11 12  1  0
 11 13  2  0
 10 14  1  0
 14 15  1  0
 15 16  2  0
 15 17  1  0
 17 18  2  0
 17 19  1  0
 19 20  1  0
 19 21  1  0
 14 22  1  0
 22 23  2  0
  4 24  2  0
 24 25  1  0
 25  2  1  0
 23  5  1  0
 22  8  1  0
  1 26  1  0
  1 27  1  0
  1 28  1  0
  6 29  1  0
  7 30  1  0
  9 31  1  0
 12 32  1  0
 20 33  1  0
 20 34  1  0
 20 35  1  0
 21 36  1  0
 21 37  1  0
 21 38  1  0
 23 39  1  0
 24 40  1  0
M  CHG  1  12  -1
M  END
>  <UniqueID>  (81) 
80

>  <SMILES>  (81) 
Cc1nc(-c2ccc3cc(C([NH-])=O)n(C(=O)C(=O)N(C)C)c3c2)co1

>  <Energy>  (81) 
110.59388768693738

>  <Genealogy>  (81) 
Cc1nc(-c2ccc3cc(C([NH-])=O)n(C(=O)C(=O)N(C)C)c3c2)co1 (protonated)
Cc1nc(-c2ccc3cc(C([NH-])=O)n(C(=O)C(=O)N(C)C)c3c2)co1 (3D coordinates assigned)
Cc1nc(-c2ccc3cc(C([NH-])=O)n(C(=O)C(=O)N(C)C)c3c2)co1 (optimized conformer: 110.59388768693738 kcal/mol)

>  <smiles>  (81) 
Cc1nc(-c2ccc3cc(C(N)=O)n(C(=O)C(=O)N(C)C)c3c2)co1

>  <score_type>  (81) 
oracle

>  <origin>  (81) 
adg

>  <m_score__min__energy>  (81) 
-10.619999999999999

>  <m_primary>  (81) 
energy

$$$$
82:0
     RDKit          3D

 43 45  0  0  0  0  0  0  0  0999 V2000
   -3.1090   24.3320  -27.2590 C   0  0  0  0  0  0  0  0  0  0  0  0
   -2.4800   24.1160  -28.6010 C   0  0  0  0  0  0  0  0  0  0  0  0
   -2.2020   25.0820  -29.2960 O   0  0  0  0  0  0  0  0  0  0  0  0
   -2.1820   22.7290  -29.0970 C   0  0  0  0  0  0  0  0  0  0  0  0
   -3.3170   22.1850  -29.7670 O   0  0  0  0  0  0  0  0  0  0  0  0
   -3.7480   22.6210  -31.0260 C   0  0  0  0  0  0  0  0  0  0  0  0
   -2.9090   22.9000  -31.9250 O   0  0  0  0  0  0  0  0  0  0  0  0
   -5.1550   22.7470  -31.2910 N   0  0  0  0  0  0  0  0  0  0  0  0
   -5.9670   23.7890  -30.9570 C   0  0  0  0  0  0  0  0  0  0  0  0
   -5.5260   25.0840  -30.4010 C   0  0  0  0  0  0  0  0  0  0  0  0
   -4.1750   25.5270  -30.5350 N   0  0  0  0  0  0  0  0  0  0  0  0
   -6.3700   25.8380  -29.8460 O   0  0  0  0  0  0  0  0  0  0  0  0
   -7.2950   23.4940  -31.2520 C   0  0  0  0  0  0  0  0  0  0  0  0
   -7.2720   22.2290  -31.7930 C   0  0  0  0  0  0  0  0  0  0  0  0
   -8.3180   21.4350  -32.2470 C   0  0  0  0  0  0  0  0  0  0  0  0
   -8.0130   20.1480  -32.7180 C   0  0  0  0  0  0  0  0  0  0  0  0
   -6.6750   19.6670  -32.7210 C   0  0  0  0  0  0  0  0  0  0  0  0
   -6.3740   18.3330  -33.1950 N   0  0  0  0  0  0  0  0  0  0  0  0
   -7.2430   17.1820  -32.9930 C   0  0  0  0  0  0  0  0  0  0  0  0
   -6.4630   15.9760  -33.4960 C   0  0  0  0  0  0  0  0  0  0  0  0
   -5.3520   16.5400  -34.3740 C   0  0  0  0  0  0  0  0  0  0  0  0
   -5.1680   17.9840  -33.9320 C   0  0  0  0  0  0  0  0  0  0  0  0
   -5.6410   20.5120  -32.2460 C   0  0  0  0  0  0  0  0  0  0  0  0
   -5.9720   21.7980  -31.8050 C   0  0  0  0  0  0  0  0  0  0  0  0
   -2.3841   24.0831  -26.4700 H   0  0  0  0  0  0  0  0  0  0  0  0
   -3.4107   25.3852  -27.1607 H   0  0  0  0  0  0  0  0  0  0  0  0
   -3.9941   23.6863  -27.1607 H   0  0  0  0  0  0  0  0  0  0  0  0
   -1.3334   22.7687  -29.7958 H   0  0  0  0  0  0  0  0  0  0  0  0
   -1.9348   22.0886  -28.2374 H   0  0  0  0  0  0  0  0  0  0  0  0
   -3.4940   25.0080  -31.1320 H   0  0  0  0  0  0  0  0  0  0  0  0
   -3.8720   26.4260  -30.1000 H   0  0  0  0  0  0  0  0  0  0  0  0
   -8.1741   24.1346  -31.0879 H   0  0  0  0  0  0  0  0  0  0  0  0
   -9.3543   21.8038  -32.2377 H   0  0  0  0  0  0  0  0  0  0  0  0
   -8.8216   19.5019  -33.0904 H   0  0  0  0  0  0  0  0  0  0  0  0
   -7.4812   17.0653  -31.9255 H   0  0  0  0  0  0  0  0  0  0  0  0
   -8.1968   17.2976  -33.5286 H   0  0  0  0  0  0  0  0  0  0  0  0
   -6.0367   15.4154  -32.6510 H   0  0  0  0  0  0  0  0  0  0  0  0
   -7.1069   15.2798  -34.0534 H   0  0  0  0  0  0  0  0  0  0  0  0
   -4.4214   15.9725  -34.2261 H   0  0  0  0  0  0  0  0  0  0  0  0
   -5.6061   16.4725  -35.4421 H   0  0  0  0  0  0  0  0  0  0  0  0
   -4.2837   18.0760  -33.2842 H   0  0  0  0  0  0  0  0  0  0  0  0
   -5.0126   18.6526  -34.7916 H   0  0  0  0  0  0  0  0  0  0  0  0
   -4.5979   20.1634  -32.2244 H   0  0  0  0  0  0  0  0  0  0  0  0
  1  2  1  0
  2  3  2  0
  2  4  1  0
  4  5  1  0
  5  6  1  0
  6  7  2  0
  6  8  1  0
  8  9  1  0
  9 10  1  0
 10 11  1  0
 10 12  2  0
  9 13  2  0
 13 14  1  0
 14 15  2  0
 15 16  1  0
 16 17  2  0
 17 18  1  0
 18 19  1  0
 19 20  1  0
 20 21  1  0
 21 22  1  0
 17 23  1  0
 23 24  2  0
 24  8  1  0
 24 14  1  0
 22 18  1  0
  1 25  1  0
  1 26  1  0
  1 27  1  0
  4 28  1  0
  4 29  1  0
 11 30  1  0
 11 31  1  0
 13 32  1  0
 15 33  1  0
 16 34  1  0
 19 35  1  0
 19 36  1  0
 20 37  1  0
 20 38  1  0
 21 39  1  0
 21 40  1  0
 22 41  1  0
 22 42  1  0
 23 43  1  0
M  END
>  <UniqueID>  (82) 
81

>  <SMILES>  (82) 
CC(=O)COC(=O)n1c(C(N)=O)cc2ccc(N3CCCC3)cc21

>  <Energy>  (82) 
79.60273967196949

>  <Genealogy>  (82) 
CC(=O)COC(=O)n1c(C(N)=O)cc2ccc(N3CCCC3)cc21 (3D coordinates assigned)
CC(=O)COC(=O)n1c(C(N)=O)cc2ccc(N3CCCC3)cc21 (nonaromatic ring conformer: 79.60273967196949 kcal/mol)

>  <smiles>  (82) 
CC(=O)COC(=O)n1c(C(N)=O)cc2ccc(N3CCCC3)cc21

>  <score_type>  (82) 
oracle

>  <origin>  (82) 
adg

>  <m_score__min__energy>  (82) 
-9.9000000000000004

>  <m_primary>  (82) 
energy

$$$$
83:0
     RDKit          3D

 37 39  0  0  0  0  0  0  0  0999 V2000
   -1.6410   25.5100  -29.2500 N   0  0  0  0  0  0  0  0  0  0  0  0
   -1.0910   24.1950  -29.2200 C   0  0  0  0  0  0  0  0  0  0  0  0
   -0.1240   23.9480  -28.4510 O   0  0  0  0  0  0  0  0  0  0  0  0
   -1.6420   23.1450  -30.1020 C   0  0  0  0  0  0  0  0  0  0  0  0
   -0.8560   22.2650  -30.8460 C   0  0  0  0  0  0  0  0  0  0  0  0
   -1.7480   21.4310  -31.4840 C   0  0  0  0  0  0  0  0  0  0  0  0
   -1.5170   20.3710  -32.3550 C   0  0  0  0  0  0  0  0  0  0  0  0
   -2.6320   19.6950  -32.8800 C   0  0  0  0  0  0  0  0  0  0  0  0
   -3.9500   20.1050  -32.5510 C   0  0  0  0  0  0  0  0  0  0  0  0
   -5.1380   19.3470  -33.0880 C   0  0  0  0  0  0  0  0  0  0  0  0
   -4.7290   18.5430  -34.1350 F   0  0  0  0  0  0  0  0  0  0  0  0
   -5.6980   18.5540  -32.1020 F   0  0  0  0  0  0  0  0  0  0  0  0
   -6.1090   20.2220  -33.5430 F   0  0  0  0  0  0  0  0  0  0  0  0
   -4.1410   21.1750  -31.6460 C   0  0  0  0  0  0  0  0  0  0  0  0
   -3.0110   21.8140  -31.1230 C   0  0  0  0  0  0  0  0  0  0  0  0
   -2.9640   22.8610  -30.2720 N   0  0  0  0  0  0  0  0  0  0  0  0
   -4.0880   23.5630  -29.7190 C   0  0  0  0  0  0  0  0  0  0  0  0
   -4.4550   23.3190  -28.5380 O   0  0  0  0  0  0  0  0  0  0  0  0
   -4.8150   24.5640  -30.5130 C   0  0  0  0  0  0  0  0  0  0  0  0
   -4.2420   25.6390  -30.8370 O   0  0  0  0  0  0  0  0  0  0  0  0
   -6.1680   24.3020  -30.9150 N   0  0  0  0  0  0  0  0  0  0  0  0
   -6.6750   23.1240  -31.6270 C   0  0  0  0  0  0  0  0  0  0  0  0
   -8.0150   23.3460  -32.3220 C   0  0  0  0  0  0  0  0  0  0  0  0
   -8.6500   22.2980  -31.4140 C   0  0  0  0  0  0  0  0  0  0  0  0
   -7.3100   22.0760  -30.7170 C   0  0  0  0  0  0  0  0  0  0  0  0
   -2.6720   25.6580  -29.3330 H   0  0  0  0  0  0  0  0  0  0  0  0
    0.2419   22.2418  -30.9097 H   0  0  0  0  0  0  0  0  0  0  0  0
   -0.4935   20.0712  -32.6245 H   0  0  0  0  0  0  0  0  0  0  0  0
   -2.4811   18.8385  -33.5535 H   0  0  0  0  0  0  0  0  0  0  0  0
   -5.1532   21.4971  -31.3601 H   0  0  0  0  0  0  0  0  0  0  0  0
   -5.7804   22.8770  -32.2174 H   0  0  0  0  0  0  0  0  0  0  0  0
   -8.4252   24.3589  -32.1962 H   0  0  0  0  0  0  0  0  0  0  0  0
   -8.0985   23.2633  -33.4157 H   0  0  0  0  0  0  0  0  0  0  0  0
   -9.4370   22.6940  -30.7554 H   0  0  0  0  0  0  0  0  0  0  0  0
   -9.1959   21.4473  -31.8479 H   0  0  0  0  0  0  0  0  0  0  0  0
   -7.3071   22.3443  -29.6502 H   0  0  0  0  0  0  0  0  0  0  0  0
   -6.8794   21.0668  -30.6392 H   0  0  0  0  0  0  0  0  0  0  0  0
  1  2  1  0
  2  3  2  0
  2  4  1  0
  4  5  2  0
  5  6  1  0
  6  7  2  0
  7  8  1  0
  8  9  2  0
  9 10  1  0
 10 11  1  0
 10 12  1  0
 10 13  1  0
  9 14  1  0
 14 15  2  0
 15 16  1  0
 16 17  1  0
 17 18  2  0
 17 19  1  0
 19 20  2  0
 19 21  1  0
 21 22  1  0
 22 23  1  0
 23 24  1  0
 24 25  1  0
 16  4  1  0
 25 22  1  0
 15  6  1  0
  1 26  1  0
  5 27  1  0
  7 28  1  0
  8 29  1  0
 14 30  1  0
 22 31  1  0
 23 32  1  0
 23 33  1  0
 24 34  1  0
 24 35  1  0
 25 36  1  0
 25 37  1  0
M  CHG  2   1  -1  21  -1
M  END
>  <UniqueID>  (83) 
82

>  <SMILES>  (83) 
[NH-]C(=O)c1cc2ccc(C(F)(F)F)cc2n1C(=O)C(=O)[N-]C1CCC1

>  <Energy>  (83) 
138.31775679317056

>  <Genealogy>  (83) 
[NH-]C(=O)c1cc2ccc(C(F)(F)F)cc2n1C(=O)C(=O)[N-]C1CCC1 (protonated)
[NH-]C(=O)c1cc2ccc(C(F)(F)F)cc2n1C(=O)C(=O)[N-]C1CCC1 (3D coordinates assigned)
[NH-]C(=O)c1cc2ccc(C(F)(F)F)cc2n1C(=O)C(=O)[N-]C1CCC1 (nonaromatic ring conformer: 138.31775679317056 kcal/mol)

>  <smiles>  (83) 
NC(=O)c1cc2ccc(C(F)(F)F)cc2n1C(=O)C(=O)NC1CCC1

>  <score_type>  (83) 
oracle

>  <origin>  (83) 
adg

>  <m_score__min__energy>  (83) 
-10.66

>  <m_primary>  (83) 
energy

$$$$
84:0
     RDKit          3D

 56 58  0  0  0  0  0  0  0  0999 V2000
   -0.4520   27.5540  -23.8970 C   0  0  0  0  0  0  0  0  0  0  0  0
    0.4750   26.0980  -24.3390 S   0  0  0  0  0  0  0  0  0  0  0  0
    1.9300   26.0220  -23.5000 O   0  0  0  0  0  0  0  0  0  0  0  0
   -0.4370   24.6330  -24.1380 N   0  0  0  0  0  0  0  0  0  0  0  0
   -0.8030   24.0820  -25.4480 C   0  0  0  0  0  0  0  0  0  0  0  0
   -1.4420   25.1680  -26.3470 C   0  0  0  0  0  0  0  0  0  0  0  0
   -0.6230   25.3750  -27.6510 C   0  0  0  0  0  0  0  0  0  0  0  0
   -1.1410   24.5320  -28.8330 C   0  0  0  0  0  0  0  0  0  0  0  0
   -1.8190   23.3240  -28.3310 N   0  0  0  0  0  0  0  0  0  0  0  0
   -1.9550   22.2460  -29.3330 C   0  0  0  0  0  0  0  0  0  0  0  0
   -3.4150   21.8410  -29.6560 C   0  0  0  0  0  0  0  0  0  0  0  0
   -3.8830   22.4350  -30.9570 C   0  0  0  0  0  0  0  0  0  0  0  0
   -3.0580   22.6030  -31.8950 O   0  0  0  0  0  0  0  0  0  0  0  0
   -5.2670   22.7550  -31.1650 N   0  0  0  0  0  0  0  0  0  0  0  0
   -5.9030   23.9350  -30.9230 C   0  0  0  0  0  0  0  0  0  0  0  0
   -5.2530   25.2000  -30.5260 C   0  0  0  0  0  0  0  0  0  0  0  0
   -3.8780   25.4200  -30.8360 N   0  0  0  0  0  0  0  0  0  0  0  0
   -5.8910   26.0790  -29.8900 O   0  0  0  0  0  0  0  0  0  0  0  0
   -7.2700   23.8080  -31.1700 C   0  0  0  0  0  0  0  0  0  0  0  0
   -7.4480   22.5060  -31.5790 C   0  0  0  0  0  0  0  0  0  0  0  0
   -8.6120   21.8200  -31.9120 C   0  0  0  0  0  0  0  0  0  0  0  0
   -8.5040   20.4590  -32.2450 C   0  0  0  0  0  0  0  0  0  0  0  0
   -7.2400   19.8110  -32.2520 C   0  0  0  0  0  0  0  0  0  0  0  0
   -7.1490   18.3350  -32.5430 C   0  0  0  0  0  0  0  0  0  0  0  0
   -6.7710   18.1160  -33.8570 F   0  0  0  0  0  0  0  0  0  0  0  0
   -6.2120   17.7630  -31.7020 F   0  0  0  0  0  0  0  0  0  0  0  0
   -8.3750   17.7240  -32.3370 F   0  0  0  0  0  0  0  0  0  0  0  0
   -6.0840   20.5390  -31.8880 C   0  0  0  0  0  0  0  0  0  0  0  0
   -6.2220   21.8940  -31.5730 C   0  0  0  0  0  0  0  0  0  0  0  0
   -3.0730   23.6410  -27.6160 C   0  0  0  0  0  0  0  0  0  0  0  0
   -2.9180   24.8700  -26.6930 C   0  0  0  0  0  0  0  0  0  0  0  0
   -0.5046   27.6366  -22.8014 H   0  0  0  0  0  0  0  0  0  0  0  0
    0.0458   28.4445  -24.3084 H   0  0  0  0  0  0  0  0  0  0  0  0
   -1.4695   27.4798  -24.3084 H   0  0  0  0  0  0  0  0  0  0  0  0
    1.8040   25.3150  -22.8200 H   0  0  0  0  0  0  0  0  0  0  0  0
    0.2110   23.9600  -23.6700 H   0  0  0  0  0  0  0  0  0  0  0  0
    0.1008   23.6935  -25.9402 H   0  0  0  0  0  0  0  0  0  0  0  0
   -1.5360   23.2758  -25.2970 H   0  0  0  0  0  0  0  0  0  0  0  0
   -1.4232   26.0970  -25.7583 H   0  0  0  0  0  0  0  0  0  0  0  0
   -0.6735   26.4376  -27.9307 H   0  0  0  0  0  0  0  0  0  0  0  0
    0.4077   25.0508  -27.4449 H   0  0  0  0  0  0  0  0  0  0  0  0
   -1.8512   25.1297  -29.4232 H   0  0  0  0  0  0  0  0  0  0  0  0
   -0.2907   24.2333  -29.4637 H   0  0  0  0  0  0  0  0  0  0  0  0
   -1.4790   22.5833  -30.2655 H   0  0  0  0  0  0  0  0  0  0  0  0
   -1.4754   21.3565  -28.8985 H   0  0  0  0  0  0  0  0  0  0  0  0
   -3.4742   20.7446  -29.7230 H   0  0  0  0  0  0  0  0  0  0  0  0
   -4.0622   22.2226  -28.8526 H   0  0  0  0  0  0  0  0  0  0  0  0
   -3.2520   24.6270  -31.0960 H   0  0  0  0  0  0  0  0  0  0  0  0
   -8.0420   24.5840  -31.0610 H   0  0  0  0  0  0  0  0  0  0  0  0
   -9.5877   22.3280  -31.9145 H   0  0  0  0  0  0  0  0  0  0  0  0
   -9.4087   19.8890  -32.5032 H   0  0  0  0  0  0  0  0  0  0  0  0
   -5.0990   20.0506  -31.8535 H   0  0  0  0  0  0  0  0  0  0  0  0
   -3.8605   23.8491  -28.3553 H   0  0  0  0  0  0  0  0  0  0  0  0
   -3.3346   22.7759  -26.9889 H   0  0  0  0  0  0  0  0  0  0  0  0
   -3.3457   25.7478  -27.1996 H   0  0  0  0  0  0  0  0  0  0  0  0
   -3.4438   24.6498  -25.7522 H   0  0  0  0  0  0  0  0  0  0  0  0
  1  2  1  0
  2  3  1  1
  2  4  1  0
  4  5  1  0
  5  6  1  0
  6  7  1  0
  7  8  1  0
  8  9  1  0
  9 10  1  0
 10 11  1  0
 11 12  1  0
 12 13  2  0
 12 14  1  0
 14 15  1  0
 15 16  1  0
 16 17  1  0
 16 18  2  0
 15 19  2  0
 19 20  1  0
 20 21  2  0
 21 22  1  0
 22 23  2  0
 23 24  1  0
 24 25  1  0
 24 26  1  0
 24 27  1  0
 23 28  1  0
 28 29  2  0
  9 30  1  0
 30 31  1  0
 31  6  1  0
 29 14  1  0
 29 20  1  0
  1 32  1  0
  1 33  1  0
  1 34  1  0
  3 35  1  0
  4 36  1  0
  5 37  1  0
  5 38  1  0
  6 39  1  0
  7 40  1  0
  7 41  1  0
  8 42  1  0
  8 43  1  0
 10 44  1  0
 10 45  1  0
 11 46  1  0
 11 47  1  0
 17 48  1  0
 19 49  1  0
 21 50  1  0
 22 51  1  0
 28 52  1  0
 30 53  1  0
 30 54  1  0
 31 55  1  0
 31 56  1  0
M  CHG  2   2   1  17  -1
M  END
>  <UniqueID>  (84) 
83

>  <SMILES>  (84) 
C[S@@+](O)NCC1CCN(CCC(=O)n2c(C([NH-])=O)cc3ccc(C(F)(F)F)cc32)CC1

>  <Energy>  (84) 
98.72719538814663

>  <Genealogy>  (84) 
C[S+](O)NCC1CCN(CCC(=O)n2c(C([NH-])=O)cc3ccc(C(F)(F)F)cc32)CC1 (protonated)
C[S@@+](O)NCC1CCN(CCC(=O)n2c(C([NH-])=O)cc3ccc(C(F)(F)F)cc32)CC1 (chirality)
C[S@@+](O)NCC1CCN(CCC(=O)n2c(C([NH-])=O)cc3ccc(C(F)(F)F)cc32)CC1 (3D coordinates assigned)
C[S@@+](O)NCC1CCN(CCC(=O)n2c(C([NH-])=O)cc3ccc(C(F)(F)F)cc32)CC1 (nonaromatic ring conformer: 98.72719538814663 kcal/mol)

>  <smiles>  (84) 
C[S+]([O-])NCC1CCN(CCC(=O)n2c(C(N)=O)cc3ccc(C(F)(F)F)cc32)CC1

>  <score_type>  (84) 
oracle

>  <origin>  (84) 
adg

>  <m_score__min__energy>  (84) 
-12.01

>  <m_primary>  (84) 
energy

$$$$
85:0
     RDKit          3D

 33 34  0  0  0  0  0  0  0  0999 V2000
   -3.8120   18.6910  -33.8660 C   0  0  0  0  0  0  0  0  0  0  0  0
   -4.8650   17.7760  -34.0770 O   0  0  0  0  0  0  0  0  0  0  0  0
   -6.0940   18.4630  -34.2360 C   0  0  0  0  0  0  0  0  0  0  0  0
   -6.8870   18.4900  -32.9240 C   0  0  0  0  0  0  0  0  0  0  0  0
   -7.0430   19.8950  -32.4060 C   0  0  0  0  0  0  0  0  0  0  0  0
   -8.3310   20.4780  -32.3100 C   0  0  0  0  0  0  0  0  0  0  0  0
   -8.4850   21.8040  -31.8690 C   0  0  0  0  0  0  0  0  0  0  0  0
   -7.3370   22.5170  -31.5330 C   0  0  0  0  0  0  0  0  0  0  0  0
   -7.1930   23.8210  -31.1160 C   0  0  0  0  0  0  0  0  0  0  0  0
   -5.8210   24.0100  -30.9580 C   0  0  0  0  0  0  0  0  0  0  0  0
   -5.2180   25.2720  -30.4780 C   0  0  0  0  0  0  0  0  0  0  0  0
   -3.8890   25.6350  -30.8420 N   0  0  0  0  0  0  0  0  0  0  0  0
   -5.8760   26.0270  -29.7130 O   0  0  0  0  0  0  0  0  0  0  0  0
   -5.1460   22.8670  -31.2610 N   0  0  0  0  0  0  0  0  0  0  0  0
   -3.7230   22.6710  -31.3030 C   0  0  0  0  0  0  0  0  0  0  0  0
   -3.0040   23.1290  -30.3740 O   0  0  0  0  0  0  0  0  0  0  0  0
   -3.0950   21.9410  -32.4130 C   0  0  0  0  0  0  0  0  0  0  0  0
   -3.6510   21.8950  -33.5420 O   0  0  0  0  0  0  0  0  0  0  0  0
   -1.8870   21.2830  -32.2170 O   0  0  0  0  0  0  0  0  0  0  0  0
   -6.0860   21.9640  -31.6160 C   0  0  0  0  0  0  0  0  0  0  0  0
   -5.9010   20.6540  -32.0670 C   0  0  0  0  0  0  0  0  0  0  0  0
   -3.6554   18.8271  -32.7857 H   0  0  0  0  0  0  0  0  0  0  0  0
   -2.8907   18.3017  -34.3239 H   0  0  0  0  0  0  0  0  0  0  0  0
   -4.0689   19.6576  -34.3239 H   0  0  0  0  0  0  0  0  0  0  0  0
   -5.8892   19.4962  -34.5530 H   0  0  0  0  0  0  0  0  0  0  0  0
   -6.6922   17.9364  -34.9942 H   0  0  0  0  0  0  0  0  0  0  0  0
   -7.8843   18.0604  -33.0995 H   0  0  0  0  0  0  0  0  0  0  0  0
   -6.3361   17.9034  -32.1741 H   0  0  0  0  0  0  0  0  0  0  0  0
   -9.2182   19.8878  -32.5830 H   0  0  0  0  0  0  0  0  0  0  0  0
   -9.4812   22.2639  -31.7918 H   0  0  0  0  0  0  0  0  0  0  0  0
   -7.9915   24.5578  -30.9439 H   0  0  0  0  0  0  0  0  0  0  0  0
   -3.0690   25.2890  -30.2950 H   0  0  0  0  0  0  0  0  0  0  0  0
   -4.8919   20.2251  -32.1557 H   0  0  0  0  0  0  0  0  0  0  0  0
  1  2  1  0
  2  3  1  0
  3  4  1  0
  4  5  1  0
  5  6  2  0
  6  7  1  0
  7  8  2  0
  8  9  1  0
  9 10  2  0
 10 11  1  0
 11 12  1  0
 11 13  2  0
 10 14  1  0
 14 15  1  0
 15 16  2  0
 15 17  1  0
 17 18  2  0
 17 19  1  0
 14 20  1  0
 20 21  2  0
 21  5  1  0
 20  8  1  0
  1 22  1  0
  1 23  1  0
  1 24  1  0
  3 25  1  0
  3 26  1  0
  4 27  1  0
  4 28  1  0
  6 29  1  0
  7 30  1  0
  9 31  1  0
 12 32  1  0
 21 33  1  0
M  CHG  2  12  -1  19  -1
M  END
>  <UniqueID>  (85) 
84

>  <SMILES>  (85) 
COCCc1ccc2cc(C([NH-])=O)n(C(=O)C(=O)[O-])c2c1

>  <Energy>  (85) 
71.99260247335155

>  <Genealogy>  (85) 
COCCc1ccc2cc(C([NH-])=O)n(C(=O)C(=O)[O-])c2c1 (protonated)
COCCc1ccc2cc(C([NH-])=O)n(C(=O)C(=O)[O-])c2c1 (3D coordinates assigned)
COCCc1ccc2cc(C([NH-])=O)n(C(=O)C(=O)[O-])c2c1 (optimized conformer: 71.99260247335155 kcal/mol)

>  <smiles>  (85) 
COCCc1ccc2cc(C(N)=O)n(C(=O)C(=O)O)c2c1

>  <score_type>  (85) 
oracle

>  <origin>  (85) 
adg

>  <m_score__min__energy>  (85) 
-10.16

>  <m_primary>  (85) 
energy

$$$$
86:0
     RDKit          3D

 45 47  0  0  0  0  0  0  0  0999 V2000
   -1.9529   22.7802  -30.3153 H   0  0  0  0  0  0  0  0  0  0  0  0
   -2.9850   22.4040  -30.2580 C   0  0  0  0  0  0  0  0  0  0  0  0
   -3.7720   22.2950  -31.5010 C   0  0  0  0  0  0  0  0  0  0  0  0
   -3.2050   22.0280  -32.5960 O   0  0  0  0  0  0  0  0  0  0  0  0
   -5.1990   22.4500  -31.4640 N   0  0  0  0  0  0  0  0  0  0  0  0
   -5.9030   23.4600  -30.8810 C   0  0  0  0  0  0  0  0  0  0  0  0
   -5.3260   24.6850  -30.2900 C   0  0  0  0  0  0  0  0  0  0  0  0
   -4.4110   25.2960  -30.9040 O   0  0  0  0  0  0  0  0  0  0  0  0
   -5.7450   25.1620  -29.0100 N   0  0  0  0  0  0  0  0  0  0  0  0
   -6.3530   24.5840  -28.3890 H   0  0  0  0  0  0  0  0  0  0  0  0
   -5.3630   26.0590  -28.6350 H   0  0  0  0  0  0  0  0  0  0  0  0
   -7.2700   23.2000  -30.9330 C   0  0  0  0  0  0  0  0  0  0  0  0
   -8.0844   23.8278  -30.5424 H   0  0  0  0  0  0  0  0  0  0  0  0
   -7.3840   21.9890  -31.5780 C   0  0  0  0  0  0  0  0  0  0  0  0
   -8.5170   21.2400  -31.8800 C   0  0  0  0  0  0  0  0  0  0  0  0
   -9.5232   21.6100  -31.6337 H   0  0  0  0  0  0  0  0  0  0  0  0
   -8.3370   19.9970  -32.5090 C   0  0  0  0  0  0  0  0  0  0  0  0
   -9.2139   19.3851  -32.7672 H   0  0  0  0  0  0  0  0  0  0  0  0
   -7.0370   19.5240  -32.8140 C   0  0  0  0  0  0  0  0  0  0  0  0
   -6.8640   18.1820  -33.4670 C   0  0  0  0  0  0  0  0  0  0  0  0
   -7.8536   17.7759  -33.7236 H   0  0  0  0  0  0  0  0  0  0  0  0
   -6.2240   17.3180  -32.5980 F   0  0  0  0  0  0  0  0  0  0  0  0
   -6.1070   18.3190  -34.6170 F   0  0  0  0  0  0  0  0  0  0  0  0
   -5.9090   20.3090  -32.4870 C   0  0  0  0  0  0  0  0  0  0  0  0
   -4.8912   19.9509  -32.7008 H   0  0  0  0  0  0  0  0  0  0  0  0
   -6.1200   21.5540  -31.8840 C   0  0  0  0  0  0  0  0  0  0  0  0
   -3.4810   22.0620  -29.0640 C   0  0  0  0  0  0  0  0  0  0  0  0
   -4.5025   21.6586  -29.0028 H   0  0  0  0  0  0  0  0  0  0  0  0
   -2.6740   22.2160  -27.8000 C   0  0  0  0  0  0  0  0  0  0  0  0
   -3.3503   22.5315  -26.9919 H   0  0  0  0  0  0  0  0  0  0  0  0
   -2.2045   21.2423  -27.5964 H   0  0  0  0  0  0  0  0  0  0  0  0
   -1.5840   23.2080  -27.9110 N   0  0  0  0  0  0  0  0  0  0  0  0
   -1.9800   24.5630  -27.4950 C   0  0  0  0  0  0  0  0  0  0  0  0
   -2.8891   24.8611  -28.0378 H   0  0  0  0  0  0  0  0  0  0  0  0
   -2.1773   24.5687  -26.4129 H   0  0  0  0  0  0  0  0  0  0  0  0
   -0.8420   25.5590  -27.8130 C   0  0  0  0  0  0  0  0  0  0  0  0
   -1.1615   26.2070  -28.6425 H   0  0  0  0  0  0  0  0  0  0  0  0
   -0.6411   26.1403  -26.9010 H   0  0  0  0  0  0  0  0  0  0  0  0
    0.3620   24.9060  -28.1830 O   0  0  0  0  0  0  0  0  0  0  0  0
    0.6930   23.9220  -27.2240 C   0  0  0  0  0  0  0  0  0  0  0  0
    1.6838   23.5069  -27.4605 H   0  0  0  0  0  0  0  0  0  0  0  0
    0.7012   24.3890  -26.2281 H   0  0  0  0  0  0  0  0  0  0  0  0
   -0.3460   22.7830  -27.2270 C   0  0  0  0  0  0  0  0  0  0  0  0
    0.0748   21.9117  -27.7502 H   0  0  0  0  0  0  0  0  0  0  0  0
   -0.5884   22.5225  -26.1861 H   0  0  0  0  0  0  0  0  0  0  0  0
  1  2  1  0
  2  3  1  0
  3  4  2  0
  3  5  1  0
  5  6  1  0
  6  7  1  0
  7  8  2  0
  7  9  1  0
  9 10  1  0
  9 11  1  0
  6 12  2  0
 12 13  1  0
 12 14  1  0
 14 15  2  0
 15 16  1  0
 15 17  1  0
 17 18  1  0
 17 19  2  0
 19 20  1  0
 20 21  1  0
 20 22  1  0
 20 23  1  0
 19 24  1  0
 24 25  1  0
 24 26  2  0
  2 27  2  0
 27 28  1  0
 27 29  1  0
 29 30  1  0
 29 31  1  0
 29 32  1  0
 32 33  1  0
 33 34  1  0
 33 35  1  0
 33 36  1  0
 36 37  1  0
 36 38  1  0
 36 39  1  0
 39 40  1  0
 40 41  1  0
 40 42  1  0
 40 43  1  0
 43 44  1  0
 43 45  1  0
 26  5  1  0
 43 32  1  0
 26 14  1  0
M  END
>  <UniqueID>  (86) 
85

>  <SMILES>  (86) 
NC(=O)c1cc2ccc(C(F)F)cc2n1C(=O)/C=C/CN1CCOCC1

>  <Energy>  (86) 
95.44269893283516

>  <Genealogy>  (86) 
NC(=O)c1cc2ccc(C(F)F)cc2n1C(=O)/C=C/CN1CCOCC1 (cis-trans isomerization)
NC(=O)c1cc2ccc(C(F)F)cc2n1C(=O)/C=C/CN1CCOCC1 (3D coordinates assigned)
NC(=O)c1cc2ccc(C(F)F)cc2n1C(=O)/C=C/CN1CCOCC1 (nonaromatic ring conformer: 95.44269893283516 kcal/mol)

>  <smiles>  (86) 
NC(=O)c1cc2ccc(C(F)F)cc2n1C(=O)/C=C/CN1CCOCC1

>  <score_type>  (86) 
oracle

>  <origin>  (86) 
adg

>  <m_score__min__energy>  (86) 
-9.3200000000000003

>  <m_primary>  (86) 
energy

$$$$
87:0
     RDKit          3D

 35 36  0  0  0  0  0  0  0  0999 V2000
   -1.7700   23.2880  -29.0200 C   0  0  0  0  0  0  0  0  0  0  0  0
   -2.9200   22.4810  -28.5810 N   0  0  0  0  0  0  0  0  0  0  0  0
   -3.9330   23.3210  -27.9210 C   0  0  0  0  0  0  0  0  0  0  0  0
   -3.4810   21.6550  -29.6700 C   0  0  0  0  0  0  0  0  0  0  0  0
   -3.9380   22.4550  -30.8680 C   0  0  0  0  0  0  0  0  0  0  0  0
   -3.1130   22.7320  -31.7810 O   0  0  0  0  0  0  0  0  0  0  0  0
   -5.3100   22.8580  -31.0100 N   0  0  0  0  0  0  0  0  0  0  0  0
   -5.8470   24.0940  -30.8090 C   0  0  0  0  0  0  0  0  0  0  0  0
   -5.0870   25.3360  -30.5620 C   0  0  0  0  0  0  0  0  0  0  0  0
   -3.6650   25.2940  -30.4740 N   0  0  0  0  0  0  0  0  0  0  0  0
   -5.6860   26.4310  -30.3910 O   0  0  0  0  0  0  0  0  0  0  0  0
   -7.2290   24.0600  -30.9900 C   0  0  0  0  0  0  0  0  0  0  0  0
   -7.5190   22.7570  -31.3290 C   0  0  0  0  0  0  0  0  0  0  0  0
   -8.7370   22.1610  -31.6390 C   0  0  0  0  0  0  0  0  0  0  0  0
   -8.7390   20.7920  -31.9580 C   0  0  0  0  0  0  0  0  0  0  0  0
   -7.5330   20.0410  -31.9440 C   0  0  0  0  0  0  0  0  0  0  0  0
   -7.5420   18.5840  -32.3290 C   0  0  0  0  0  0  0  0  0  0  0  0
   -6.8030   17.8360  -31.4290 F   0  0  0  0  0  0  0  0  0  0  0  0
   -6.9950   18.4100  -33.5890 F   0  0  0  0  0  0  0  0  0  0  0  0
   -8.8450   18.1230  -32.3370 F   0  0  0  0  0  0  0  0  0  0  0  0
   -6.3130   20.6920  -31.6510 C   0  0  0  0  0  0  0  0  0  0  0  0
   -6.3430   22.0550  -31.3410 C   0  0  0  0  0  0  0  0  0  0  0  0
   -1.2303   23.6667  -28.1395 H   0  0  0  0  0  0  0  0  0  0  0  0
   -1.0942   22.6650  -29.6243 H   0  0  0  0  0  0  0  0  0  0  0  0
   -2.1260   24.1354  -29.6243 H   0  0  0  0  0  0  0  0  0  0  0  0
   -3.8274   23.2334  -26.8296 H   0  0  0  0  0  0  0  0  0  0  0  0
   -3.7910   24.3700  -28.2201 H   0  0  0  0  0  0  0  0  0  0  0  0
   -4.9375   22.9872  -28.2201 H   0  0  0  0  0  0  0  0  0  0  0  0
   -2.7081   20.9457  -30.0008 H   0  0  0  0  0  0  0  0  0  0  0  0
   -4.3697   21.1496  -29.2639 H   0  0  0  0  0  0  0  0  0  0  0  0
   -3.0960   24.8190  -31.2090 H   0  0  0  0  0  0  0  0  0  0  0  0
   -7.9367   24.8955  -30.8846 H   0  0  0  0  0  0  0  0  0  0  0  0
   -9.6702   22.7433  -31.6347 H   0  0  0  0  0  0  0  0  0  0  0  0
   -9.6851   20.2965  -32.2215 H   0  0  0  0  0  0  0  0  0  0  0  0
   -5.3622   20.1391  -31.6665 H   0  0  0  0  0  0  0  0  0  0  0  0
  1  2  1  0
  2  3  1  0
  2  4  1  0
  4  5  1  0
  5  6  2  0
  5  7  1  0
  7  8  1  0
  8  9  1  0
  9 10  1  0
  9 11  2  0
  8 12  2  0
 12 13  1  0
 13 14  2  0
 14 15  1  0
 15 16  2  0
 16 17  1  0
 17 18  1  0
 17 19  1  0
 17 20  1  0
 16 21  1  0
 21 22  2  0
 22  7  1  0
 22 13  1  0
  1 23  1  0
  1 24  1  0
  1 25  1  0
  3 26  1  0
  3 27  1  0
  3 28  1  0
  4 29  1  0
  4 30  1  0
 10 31  1  0
 12 32  1  0
 14 33  1  0
 15 34  1  0
 21 35  1  0
M  CHG  1  10  -1
M  END
>  <UniqueID>  (87) 
86

>  <SMILES>  (87) 
CN(C)CC(=O)n1c(C([NH-])=O)cc2ccc(C(F)(F)F)cc21

>  <Energy>  (87) 
76.44869308972288

>  <Genealogy>  (87) 
CN(C)CC(=O)n1c(C([NH-])=O)cc2ccc(C(F)(F)F)cc21 (protonated)
CN(C)CC(=O)n1c(C([NH-])=O)cc2ccc(C(F)(F)F)cc21 (3D coordinates assigned)
CN(C)CC(=O)n1c(C([NH-])=O)cc2ccc(C(F)(F)F)cc21 (optimized conformer: 76.44869308972288 kcal/mol)

>  <smiles>  (87) 
CN(C)CC(=O)n1c(C(N)=O)cc2ccc(C(F)(F)F)cc21

>  <score_type>  (87) 
oracle

>  <origin>  (87) 
adg

>  <m_score__min__energy>  (87) 
-9.2599999999999998

>  <m_primary>  (87) 
energy

$$$$
88:0
     RDKit          3D

 41 43  0  0  0  0  0  0  0  0999 V2000
   -4.2220   25.5490  -30.4270 N   0  0  0  0  0  0  0  0  0  0  0  0
   -5.4880   24.9790  -30.0890 C   0  0  0  0  0  0  0  0  0  0  0  0
   -6.2050   25.5480  -29.2230 O   0  0  0  0  0  0  0  0  0  0  0  0
   -5.9410   23.7180  -30.7180 C   0  0  0  0  0  0  0  0  0  0  0  0
   -7.2650   23.4510  -31.0610 C   0  0  0  0  0  0  0  0  0  0  0  0
   -7.2380   22.2330  -31.7010 C   0  0  0  0  0  0  0  0  0  0  0  0
   -8.2780   21.4850  -32.2420 C   0  0  0  0  0  0  0  0  0  0  0  0
   -7.9660   20.2440  -32.8210 C   0  0  0  0  0  0  0  0  0  0  0  0
   -6.6270   19.7730  -32.8480 C   0  0  0  0  0  0  0  0  0  0  0  0
   -6.3170   18.4900  -33.4230 N   0  0  0  0  0  0  0  0  0  0  0  0
   -6.7580   17.2600  -32.7540 C   0  0  0  0  0  0  0  0  0  0  0  0
   -6.0530   16.0440  -33.3600 C   0  0  0  0  0  0  0  0  0  0  0  0
   -4.7130   16.3800  -33.6540 O   0  0  0  0  0  0  0  0  0  0  0  0
   -4.6590   17.2320  -34.7870 C   0  0  0  0  0  0  0  0  0  0  0  0
   -5.6740   18.3990  -34.7400 C   0  0  0  0  0  0  0  0  0  0  0  0
   -5.6000   20.5620  -32.2810 C   0  0  0  0  0  0  0  0  0  0  0  0
   -5.9380   21.8030  -31.7290 C   0  0  0  0  0  0  0  0  0  0  0  0
   -5.1280   22.7020  -31.1270 N   0  0  0  0  0  0  0  0  0  0  0  0
   -3.7120   22.5710  -30.9210 C   0  0  0  0  0  0  0  0  0  0  0  0
   -3.0640   21.6830  -31.5420 O   0  0  0  0  0  0  0  0  0  0  0  0
   -3.0540   23.4400  -30.0430 O   0  0  0  0  0  0  0  0  0  0  0  0
   -1.6810   23.3050  -29.6890 C   0  0  0  0  0  0  0  0  0  0  0  0
   -1.1810   24.5630  -29.0540 C   0  0  0  0  0  0  0  0  0  0  0  0
   -0.0250   24.6100  -28.5580 O   0  0  0  0  0  0  0  0  0  0  0  0
   -2.0060   25.6780  -28.9830 O   0  0  0  0  0  0  0  0  0  0  0  0
   -3.6250   25.1400  -31.1780 H   0  0  0  0  0  0  0  0  0  0  0  0
   -3.8940   26.4180  -29.9490 H   0  0  0  0  0  0  0  0  0  0  0  0
   -8.1450   24.0803  -30.8623 H   0  0  0  0  0  0  0  0  0  0  0  0
   -9.3139   21.8542  -32.2172 H   0  0  0  0  0  0  0  0  0  0  0  0
   -8.7676   19.6305  -33.2582 H   0  0  0  0  0  0  0  0  0  0  0  0
   -6.5165   17.3230  -31.6827 H   0  0  0  0  0  0  0  0  0  0  0  0
   -7.8439   17.1485  -32.8894 H   0  0  0  0  0  0  0  0  0  0  0  0
   -6.0739   15.2113  -32.6416 H   0  0  0  0  0  0  0  0  0  0  0  0
   -6.5683   15.7416  -34.2836 H   0  0  0  0  0  0  0  0  0  0  0  0
   -3.6462   17.6558  -34.8542 H   0  0  0  0  0  0  0  0  0  0  0  0
   -4.9174   16.6178  -35.6622 H   0  0  0  0  0  0  0  0  0  0  0  0
   -5.1468   19.3418  -34.9479 H   0  0  0  0  0  0  0  0  0  0  0  0
   -6.4519   18.2151  -35.4957 H   0  0  0  0  0  0  0  0  0  0  0  0
   -4.5584   20.2084  -32.2738 H   0  0  0  0  0  0  0  0  0  0  0  0
   -1.5697   22.4717  -28.9796 H   0  0  0  0  0  0  0  0  0  0  0  0
   -1.0954   23.1071  -30.5989 H   0  0  0  0  0  0  0  0  0  0  0  0
  1  2  1  0
  2  3  2  0
  2  4  1  0
  4  5  2  0
  5  6  1  0
  6  7  2  0
  7  8  1  0
  8  9  2  0
  9 10  1  0
 10 11  1  0
 11 12  1  0
 12 13  1  0
 13 14  1  0
 14 15  1  0
  9 16  1  0
 16 17  2  0
 17 18  1  0
 18 19  1  0
 19 20  2  0
 19 21  1  0
 21 22  1  0
 22 23  1  0
 23 24  2  0
 23 25  1  0
 18  4  1  0
 17  6  1  0
 15 10  1  0
  1 26  1  0
  1 27  1  0
  5 28  1  0
  7 29  1  0
  8 30  1  0
 11 31  1  0
 11 32  1  0
 12 33  1  0
 12 34  1  0
 14 35  1  0
 14 36  1  0
 15 37  1  0
 15 38  1  0
 16 39  1  0
 22 40  1  0
 22 41  1  0
M  CHG  1  25  -1
M  END
>  <UniqueID>  (88) 
87

>  <SMILES>  (88) 
NC(=O)c1cc2ccc(N3CCOCC3)cc2n1C(=O)OCC(=O)[O-]

>  <Energy>  (88) 
89.24505402272005

>  <Genealogy>  (88) 
NC(=O)c1cc2ccc(N3CCOCC3)cc2n1C(=O)OCC(=O)[O-] (protonated)
NC(=O)c1cc2ccc(N3CCOCC3)cc2n1C(=O)OCC(=O)[O-] (3D coordinates assigned)
NC(=O)c1cc2ccc(N3CCOCC3)cc2n1C(=O)OCC(=O)[O-] (nonaromatic ring conformer: 89.24505402272005 kcal/mol)

>  <smiles>  (88) 
NC(=O)c1cc2ccc(N3CCOCC3)cc2n1C(=O)OCC(=O)O

>  <score_type>  (88) 
oracle

>  <origin>  (88) 
adg

>  <m_score__min__energy>  (88) 
-10.720000000000001

>  <m_primary>  (88) 
energy

$$$$
89:0
     RDKit          3D

 46 47  0  0  0  0  0  0  0  0999 V2000
   -1.7650   24.6160  -26.7820 C   0  0  0  0  0  0  0  0  0  0  0  0
   -1.0570   25.2340  -27.9900 C   0  0  2  0  0  0  0  0  0  0  0  0
   -1.9970   25.6400  -28.9580 O   0  0  0  0  0  0  0  0  0  0  0  0
   -0.0450   24.2830  -28.5740 C   0  0  0  0  0  0  0  0  0  0  0  0
    1.1050   24.1850  -28.0640 O   0  0  0  0  0  0  0  0  0  0  0  0
   -0.4120   23.4730  -29.6540 O   0  0  0  0  0  0  0  0  0  0  0  0
   -0.7770   22.1050  -29.5040 C   0  0  0  0  0  0  0  0  0  0  0  0
   -2.3000   21.9740  -29.4950 C   0  0  0  0  0  0  0  0  0  0  0  0
   -2.9030   22.9930  -30.2910 O   0  0  0  0  0  0  0  0  0  0  0  0
   -3.6200   22.7330  -31.4620 C   0  0  0  0  0  0  0  0  0  0  0  0
   -3.0390   22.2820  -32.4870 O   0  0  0  0  0  0  0  0  0  0  0  0
   -5.0390   22.9230  -31.4770 N   0  0  0  0  0  0  0  0  0  0  0  0
   -5.7480   23.9790  -30.9910 C   0  0  0  0  0  0  0  0  0  0  0  0
   -5.1750   25.2330  -30.4550 C   0  0  0  0  0  0  0  0  0  0  0  0
   -3.8630   25.6550  -30.8170 N   0  0  0  0  0  0  0  0  0  0  0  0
   -5.8640   25.9570  -29.6890 O   0  0  0  0  0  0  0  0  0  0  0  0
   -7.1160   23.7370  -31.1060 C   0  0  0  0  0  0  0  0  0  0  0  0
   -7.2190   22.4840  -31.6720 C   0  0  0  0  0  0  0  0  0  0  0  0
   -8.3430   21.7280  -31.9800 C   0  0  0  0  0  0  0  0  0  0  0  0
   -8.1480   20.4420  -32.5120 C   0  0  0  0  0  0  0  0  0  0  0  0
   -6.8370   19.9220  -32.7230 C   0  0  0  0  0  0  0  0  0  0  0  0
   -6.6460   18.5860  -33.2600 N   0  0  0  0  0  0  0  0  0  0  0  0
   -7.2500   17.4230  -32.5990 C   0  0  0  0  0  0  0  0  0  0  0  0
   -5.8470   18.3760  -34.4760 C   0  0  0  0  0  0  0  0  0  0  0  0
   -5.7220   20.7360  -32.3930 C   0  0  0  0  0  0  0  0  0  0  0  0
   -5.9510   22.0170  -31.8810 C   0  0  0  0  0  0  0  0  0  0  0  0
   -1.3179   25.0062  -25.8558 H   0  0  0  0  0  0  0  0  0  0  0  0
   -2.8336   24.8754  -26.8110 H   0  0  0  0  0  0  0  0  0  0  0  0
   -1.6523   23.5222  -26.8110 H   0  0  0  0  0  0  0  0  0  0  0  0
   -0.5103   26.1257  -27.6493 H   0  0  0  0  0  0  0  0  0  0  0  0
   -2.0640   24.9130  -29.6330 H   0  0  0  0  0  0  0  0  0  0  0  0
   -0.3653   21.5231  -30.3418 H   0  0  0  0  0  0  0  0  0  0  0  0
   -0.3738   21.7233  -28.5544 H   0  0  0  0  0  0  0  0  0  0  0  0
   -2.5792   20.9894  -29.8982 H   0  0  0  0  0  0  0  0  0  0  0  0
   -2.6559   22.0799  -28.4596 H   0  0  0  0  0  0  0  0  0  0  0  0
   -3.0190   25.1570  -30.4570 H   0  0  0  0  0  0  0  0  0  0  0  0
   -7.9385   24.4040  -30.8084 H   0  0  0  0  0  0  0  0  0  0  0  0
   -9.3554   22.1242  -31.8125 H   0  0  0  0  0  0  0  0  0  0  0  0
   -9.0218   19.8257  -32.7702 H   0  0  0  0  0  0  0  0  0  0  0  0
   -7.1856   17.5470  -31.5079 H   0  0  0  0  0  0  0  0  0  0  0  0
   -8.3056   17.3392  -32.8969 H   0  0  0  0  0  0  0  0  0  0  0  0
   -6.7115   16.5113  -32.8969 H   0  0  0  0  0  0  0  0  0  0  0  0
   -4.8181   18.1056  -34.1965 H   0  0  0  0  0  0  0  0  0  0  0  0
   -6.2909   17.5640  -35.0707 H   0  0  0  0  0  0  0  0  0  0  0  0
   -5.8342   19.3013  -35.0707 H   0  0  0  0  0  0  0  0  0  0  0  0
   -4.6963   20.3659  -32.5374 H   0  0  0  0  0  0  0  0  0  0  0  0
  1  2  1  0
  2  3  1  0
  2  4  1  0
  4  5  2  0
  4  6  1  0
  6  7  1  0
  7  8  1  0
  8  9  1  0
  9 10  1  0
 10 11  2  0
 10 12  1  0
 12 13  1  0
 13 14  1  0
 14 15  1  0
 14 16  2  0
 13 17  2  0
 17 18  1  0
 18 19  2  0
 19 20  1  0
 20 21  2  0
 21 22  1  0
 22 23  1  0
 22 24  1  0
 21 25  1  0
 25 26  2  0
 26 12  1  0
 26 18  1  0
  1 27  1  0
  1 28  1  0
  1 29  1  0
  2 30  1  1
  3 31  1  0
  7 32  1  0
  7 33  1  0
  8 34  1  0
  8 35  1  0
 15 36  1  0
 17 37  1  0
 19 38  1  0
 20 39  1  0
 23 40  1  0
 23 41  1  0
 23 42  1  0
 24 43  1  0
 24 44  1  0
 24 45  1  0
 25 46  1  0
M  CHG  1  15  -1
M  END
>  <UniqueID>  (89) 
88

>  <SMILES>  (89) 
C[C@H](O)C(=O)OCCOC(=O)n1c(C([NH-])=O)cc2ccc(N(C)C)cc21

>  <Energy>  (89) 
78.41321815160855

>  <Genealogy>  (89) 
C[C@H](O)C(=O)OCCOC(=O)n1c(C([NH-])=O)cc2ccc(N(C)C)cc21 (protonated)
C[C@H](O)C(=O)OCCOC(=O)n1c(C([NH-])=O)cc2ccc(N(C)C)cc21 (3D coordinates assigned)
C[C@H](O)C(=O)OCCOC(=O)n1c(C([NH-])=O)cc2ccc(N(C)C)cc21 (optimized conformer: 78.41321815160855 kcal/mol)

>  <smiles>  (89) 
C[C@H](O)C(=O)OCCOC(=O)n1c(C(N)=O)cc2ccc(N(C)C)cc21

>  <score_type>  (89) 
oracle

>  <origin>  (89) 
adg

>  <m_score__min__energy>  (89) 
-10.140000000000001

>  <m_primary>  (89) 
energy

$$$$
90:0
     RDKit          3D

 34 35  0  0  0  0  0  0  0  0999 V2000
   -3.7230   24.1410  -27.7330 C   0  0  0  0  0  0  0  0  0  0  0  0
   -2.8830   23.6220  -28.8160 N   0  0  0  0  0  0  0  0  0  0  0  0
   -3.2460   22.3740  -29.4950 C   0  0  0  0  0  0  0  0  0  0  0  0
   -3.7540   22.6750  -30.8720 C   0  0  0  0  0  0  0  0  0  0  0  0
   -2.9660   22.6480  -31.8540 O   0  0  0  0  0  0  0  0  0  0  0  0
   -5.1530   22.8910  -31.0870 N   0  0  0  0  0  0  0  0  0  0  0  0
   -5.8690   24.0250  -30.8600 C   0  0  0  0  0  0  0  0  0  0  0  0
   -5.3040   25.3300  -30.4600 C   0  0  0  0  0  0  0  0  0  0  0  0
   -3.9730   25.6740  -30.8360 N   0  0  0  0  0  0  0  0  0  0  0  0
   -5.9810   26.1380  -29.7720 O   0  0  0  0  0  0  0  0  0  0  0  0
   -7.2250   23.7970  -31.0920 C   0  0  0  0  0  0  0  0  0  0  0  0
   -7.3130   22.4740  -31.4680 C   0  0  0  0  0  0  0  0  0  0  0  0
   -8.4220   21.7060  -31.8070 C   0  0  0  0  0  0  0  0  0  0  0  0
   -8.2140   20.3540  -32.1310 C   0  0  0  0  0  0  0  0  0  0  0  0
   -6.9120   19.7890  -32.0900 C   0  0  0  0  0  0  0  0  0  0  0  0
   -6.6950   18.3480  -32.4740 C   0  0  0  0  0  0  0  0  0  0  0  0
   -7.8770   17.6350  -32.3900 F   0  0  0  0  0  0  0  0  0  0  0  0
   -6.2260   18.2900  -33.7730 F   0  0  0  0  0  0  0  0  0  0  0  0
   -5.7700   17.7530  -31.6340 F   0  0  0  0  0  0  0  0  0  0  0  0
   -5.8080   20.6100  -31.7650 C   0  0  0  0  0  0  0  0  0  0  0  0
   -6.0470   21.9520  -31.4560 C   0  0  0  0  0  0  0  0  0  0  0  0
   -1.6510   24.2920  -29.1430 C   0  0  0  0  0  0  0  0  0  0  0  0
   -0.5940   23.6320  -29.3270 O   0  0  0  0  0  0  0  0  0  0  0  0
   -1.6130   25.6760  -29.2650 O   0  0  0  0  0  0  0  0  0  0  0  0
   -3.2812   23.8680  -26.7633 H   0  0  0  0  0  0  0  0  0  0  0  0
   -3.7871   25.2363  -27.8114 H   0  0  0  0  0  0  0  0  0  0  0  0
   -4.7312   23.7082  -27.8114 H   0  0  0  0  0  0  0  0  0  0  0  0
   -2.3601   21.7259  -29.5661 H   0  0  0  0  0  0  0  0  0  0  0  0
   -4.0333   21.8637  -28.9208 H   0  0  0  0  0  0  0  0  0  0  0  0
   -3.1750   25.0330  -30.6300 H   0  0  0  0  0  0  0  0  0  0  0  0
   -8.0490   24.5193  -30.9955 H   0  0  0  0  0  0  0  0  0  0  0  0
   -9.4312   22.1433  -31.8211 H   0  0  0  0  0  0  0  0  0  0  0  0
   -9.0700   19.7264  -32.4197 H   0  0  0  0  0  0  0  0  0  0  0  0
   -4.7862   20.2028  -31.7555 H   0  0  0  0  0  0  0  0  0  0  0  0
  1  2  1  0
  2  3  1  0
  3  4  1  0
  4  5  2  0
  4  6  1  0
  6  7  1  0
  7  8  1  0
  8  9  1  0
  8 10  2  0
  7 11  2  0
 11 12  1  0
 12 13  2  0
 13 14  1  0
 14 15  2  0
 15 16  1  0
 16 17  1  0
 16 18  1  0
 16 19  1  0
 15 20  1  0
 20 21  2  0
  2 22  1  0
 22 23  2  0
 22 24  1  0
 21  6  1  0
 21 12  1  0
  1 25  1  0
  1 26  1  0
  1 27  1  0
  3 28  1  0
  3 29  1  0
  9 30  1  0
 11 31  1  0
 13 32  1  0
 14 33  1  0
 20 34  1  0
M  CHG  2   9  -1  24  -1
M  END
>  <UniqueID>  (90) 
89

>  <SMILES>  (90) 
CN(CC(=O)n1c(C([NH-])=O)cc2ccc(C(F)(F)F)cc21)C(=O)[O-]

>  <Energy>  (90) 
69.87332902149929

>  <Genealogy>  (90) 
CN(CC(=O)n1c(C([NH-])=O)cc2ccc(C(F)(F)F)cc21)C(=O)[O-] (protonated)
CN(CC(=O)n1c(C([NH-])=O)cc2ccc(C(F)(F)F)cc21)C(=O)[O-] (3D coordinates assigned)
CN(CC(=O)n1c(C([NH-])=O)cc2ccc(C(F)(F)F)cc21)C(=O)[O-] (optimized conformer: 69.87332902149929 kcal/mol)

>  <smiles>  (90) 
CN(CC(=O)n1c(C(N)=O)cc2ccc(C(F)(F)F)cc21)C(=O)O

>  <score_type>  (90) 
oracle

>  <origin>  (90) 
adg

>  <m_score__min__energy>  (90) 
-11.630000000000001

>  <m_primary>  (90) 
energy

$$$$
91:0
     RDKit          3D

 33 34  0  0  0  0  0  0  0  0999 V2000
   -2.4850   22.5990  -28.2570 C   0  0  0  0  0  0  0  0  0  0  0  0
   -1.8180   23.1870  -29.5030 C   0  0  1  0  0  0  0  0  0  0  0  0
   -2.8010   23.5660  -30.4670 O   0  0  0  0  0  0  0  0  0  0  0  0
   -3.5400   22.6500  -31.2240 C   0  0  0  0  0  0  0  0  0  0  0  0
   -2.9520   21.7850  -31.9300 O   0  0  0  0  0  0  0  0  0  0  0  0
   -4.9740   22.7200  -31.2250 N   0  0  0  0  0  0  0  0  0  0  0  0
   -5.7540   23.8040  -30.9460 C   0  0  0  0  0  0  0  0  0  0  0  0
   -5.2850   25.0940  -30.4020 C   0  0  0  0  0  0  0  0  0  0  0  0
   -4.0530   25.6660  -30.8330 N   0  0  0  0  0  0  0  0  0  0  0  0
   -5.9550   25.6740  -29.5060 O   0  0  0  0  0  0  0  0  0  0  0  0
   -7.0980   23.5100  -31.1690 C   0  0  0  0  0  0  0  0  0  0  0  0
   -7.1210   22.2000  -31.5880 C   0  0  0  0  0  0  0  0  0  0  0  0
   -8.1950   21.4020  -31.9680 C   0  0  0  0  0  0  0  0  0  0  0  0
   -7.9230   20.0910  -32.3960 C   0  0  0  0  0  0  0  0  0  0  0  0
   -6.5930   19.6070  -32.4350 C   0  0  0  0  0  0  0  0  0  0  0  0
   -6.3110   18.2230  -32.9410 C   0  0  0  0  0  0  0  0  0  0  0  0
   -5.7430   18.3040  -34.6270 Cl  0  0  0  0  0  0  0  0  0  0  0  0
   -5.5260   20.4510  -32.0560 C   0  0  0  0  0  0  0  0  0  0  0  0
   -5.8270   21.7460  -31.6150 C   0  0  0  0  0  0  0  0  0  0  0  0
   -1.0090   24.3900  -29.1260 C   0  0  0  0  0  0  0  0  0  0  0  0
    0.1650   24.2570  -28.6910 O   0  0  0  0  0  0  0  0  0  0  0  0
   -1.5360   25.6640  -29.3000 O   0  0  0  0  0  0  0  0  0  0  0  0
   -2.0115   23.0164  -27.3561 H   0  0  0  0  0  0  0  0  0  0  0  0
   -3.5553   22.8528  -28.2597 H   0  0  0  0  0  0  0  0  0  0  0  0
   -2.3675   21.5053  -28.2597 H   0  0  0  0  0  0  0  0  0  0  0  0
   -1.1630   22.4195  -29.9411 H   0  0  0  0  0  0  0  0  0  0  0  0
   -3.1400   25.2940  -30.4910 H   0  0  0  0  0  0  0  0  0  0  0  0
   -7.9582   24.1830  -31.0377 H   0  0  0  0  0  0  0  0  0  0  0  0
   -9.2256   21.7851  -31.9346 H   0  0  0  0  0  0  0  0  0  0  0  0
   -8.7509   19.4352  -32.7034 H   0  0  0  0  0  0  0  0  0  0  0  0
   -5.5355   17.7562  -32.3160 H   0  0  0  0  0  0  0  0  0  0  0  0
   -7.2324   17.6239  -32.8956 H   0  0  0  0  0  0  0  0  0  0  0  0
   -4.4846   20.1002  -32.1059 H   0  0  0  0  0  0  0  0  0  0  0  0
  1  2  1  0
  2  3  1  0
  3  4  1  0
  4  5  2  0
  4  6  1  0
  6  7  1  0
  7  8  1  0
  8  9  1  0
  8 10  2  0
  7 11  2  0
 11 12  1  0
 12 13  2  0
 13 14  1  0
 14 15  2  0
 15 16  1  0
 16 17  1  0
 15 18  1  0
 18 19  2  0
  2 20  1  0
 20 21  2  0
 20 22  1  0
 19  6  1  0
 19 12  1  0
  1 23  1  0
  1 24  1  0
  1 25  1  0
  2 26  1  6
  9 27  1  0
 11 28  1  0
 13 29  1  0
 14 30  1  0
 16 31  1  0
 16 32  1  0
 18 33  1  0
M  CHG  2   9  -1  22  -1
M  END
>  <UniqueID>  (91) 
90

>  <SMILES>  (91) 
C[C@@H](OC(=O)n1c(C([NH-])=O)cc2ccc(CCl)cc21)C(=O)[O-]

>  <Energy>  (91) 
67.02617899935278

>  <Genealogy>  (91) 
CC(OC(=O)n1c(C([NH-])=O)cc2ccc(CCl)cc21)C(=O)[O-] (protonated)
C[C@@H](OC(=O)n1c(C([NH-])=O)cc2ccc(CCl)cc21)C(=O)[O-] (chirality)
C[C@@H](OC(=O)n1c(C([NH-])=O)cc2ccc(CCl)cc21)C(=O)[O-] (3D coordinates assigned)
C[C@@H](OC(=O)n1c(C([NH-])=O)cc2ccc(CCl)cc21)C(=O)[O-] (optimized conformer: 67.02617899935278 kcal/mol)

>  <smiles>  (91) 
CC(OC(=O)n1c(C(N)=O)cc2ccc(CCl)cc21)C(=O)O

>  <score_type>  (91) 
oracle

>  <origin>  (91) 
adg

>  <m_score__min__energy>  (91) 
-12.550000000000001

>  <m_primary>  (91) 
energy

$$$$
92:0
     RDKit          3D

 35 36  0  0  0  0  0  0  0  0999 V2000
   -0.6750   20.9810  -33.9240 C   0  0  0  0  0  0  0  0  0  0  0  0
   -1.3140   21.5540  -32.7000 C   0  0  0  0  0  0  0  0  0  0  0  0
   -0.6150   21.7450  -31.6680 O   0  0  0  0  0  0  0  0  0  0  0  0
   -2.7210   21.8390  -32.7000 N   0  0  0  0  0  0  0  0  0  0  0  0
   -3.4200   22.4240  -31.5910 C   0  0  0  0  0  0  0  0  0  0  0  0
   -2.7850   22.8850  -30.6040 O   0  0  0  0  0  0  0  0  0  0  0  0
   -4.8540   22.5140  -31.6140 N   0  0  0  0  0  0  0  0  0  0  0  0
   -5.6330   23.4620  -31.0220 C   0  0  0  0  0  0  0  0  0  0  0  0
   -5.1470   24.6850  -30.3500 C   0  0  0  0  0  0  0  0  0  0  0  0
   -5.7140   25.1300  -29.1170 N   0  0  0  0  0  0  0  0  0  0  0  0
   -4.1810   25.3220  -30.8490 O   0  0  0  0  0  0  0  0  0  0  0  0
   -6.9820   23.1430  -31.1570 C   0  0  0  0  0  0  0  0  0  0  0  0
   -7.0060   21.9610  -31.8610 C   0  0  0  0  0  0  0  0  0  0  0  0
   -8.0850   21.1810  -32.2650 C   0  0  0  0  0  0  0  0  0  0  0  0
   -7.8150   19.9820  -32.9440 C   0  0  0  0  0  0  0  0  0  0  0  0
   -6.4780   19.5670  -33.1820 C   0  0  0  0  0  0  0  0  0  0  0  0
   -6.1930   18.2860  -33.9360 C   0  0  0  0  0  0  0  0  0  0  0  0
   -7.2190   17.3800  -33.7310 F   0  0  0  0  0  0  0  0  0  0  0  0
   -6.1130   18.5320  -35.2980 F   0  0  0  0  0  0  0  0  0  0  0  0
   -4.8790   17.6660  -33.4620 C   0  0  0  0  0  0  0  0  0  0  0  0
   -3.8060   18.2400  -34.1210 F   0  0  0  0  0  0  0  0  0  0  0  0
   -5.4090   20.3950  -32.7670 C   0  0  0  0  0  0  0  0  0  0  0  0
   -5.7090   21.5990  -32.1190 C   0  0  0  0  0  0  0  0  0  0  0  0
    0.1139   20.2736  -33.6288 H   0  0  0  0  0  0  0  0  0  0  0  0
   -1.4340   20.4552  -34.5219 H   0  0  0  0  0  0  0  0  0  0  0  0
   -0.2348   21.7926  -34.5219 H   0  0  0  0  0  0  0  0  0  0  0  0
   -3.2660   21.6210  -33.5630 H   0  0  0  0  0  0  0  0  0  0  0  0
   -6.3810   24.5340  -28.5800 H   0  0  0  0  0  0  0  0  0  0  0  0
   -5.3900   26.0250  -28.6860 H   0  0  0  0  0  0  0  0  0  0  0  0
   -7.8439   23.7139  -30.7812 H   0  0  0  0  0  0  0  0  0  0  0  0
   -9.1190   21.4944  -32.0586 H   0  0  0  0  0  0  0  0  0  0  0  0
   -8.6490   19.3568  -33.2957 H   0  0  0  0  0  0  0  0  0  0  0  0
   -4.7701   17.8321  -32.3801 H   0  0  0  0  0  0  0  0  0  0  0  0
   -4.8952   16.5881  -33.6808 H   0  0  0  0  0  0  0  0  0  0  0  0
   -4.3653   20.0994  -32.9494 H   0  0  0  0  0  0  0  0  0  0  0  0
  1  2  1  0
  2  3  2  0
  2  4  1  0
  4  5  1  0
  5  6  2  0
  5  7  1  0
  7  8  1  0
  8  9  1  0
  9 10  1  0
  9 11  2  0
  8 12  2  0
 12 13  1  0
 13 14  2  0
 14 15  1  0
 15 16  2  0
 16 17  1  0
 17 18  1  0
 17 19  1  0
 17 20  1  0
 20 21  1  0
 16 22  1  0
 22 23  2  0
 23  7  1  0
 23 13  1  0
  1 24  1  0
  1 25  1  0
  1 26  1  0
  4 27  1  0
 10 28  1  0
 10 29  1  0
 12 30  1  0
 14 31  1  0
 15 32  1  0
 20 33  1  0
 20 34  1  0
 22 35  1  0
M  END
>  <UniqueID>  (92) 
91

>  <SMILES>  (92) 
CC(=O)NC(=O)n1c(C(N)=O)cc2ccc(C(F)(F)CF)cc21

>  <Energy>  (92) 
71.81981194753624

>  <Genealogy>  (92) 
CC(=O)NC(=O)n1c(C(N)=O)cc2ccc(C(F)(F)CF)cc21 (3D coordinates assigned)
CC(=O)NC(=O)n1c(C(N)=O)cc2ccc(C(F)(F)CF)cc21 (optimized conformer: 71.81981194753624 kcal/mol)

>  <smiles>  (92) 
CC(=O)NC(=O)n1c(C(N)=O)cc2ccc(C(F)(F)CF)cc21

>  <score_type>  (92) 
oracle

>  <origin>  (92) 
adg

>  <m_score__min__energy>  (92) 
-8.4399999999999995

>  <m_primary>  (92) 
energy

$$$$
93:0
     RDKit          3D

 40 42  0  0  0  0  0  0  0  0999 V2000
   -1.7250   20.5990  -30.9340 C   0  0  0  0  0  0  0  0  0  0  0  0
   -2.5660   21.5190  -31.7040 N   0  0  0  0  0  0  0  0  0  0  0  0
   -2.4460   21.5220  -33.1380 C   0  0  0  0  0  0  0  0  0  0  0  0
   -3.3990   21.9550  -33.8400 O   0  0  0  0  0  0  0  0  0  0  0  0
   -1.2140   21.0720  -33.8060 C   0  0  0  0  0  0  0  0  0  0  0  0
   -0.3670   21.9060  -34.2170 O   0  0  0  0  0  0  0  0  0  0  0  0
   -0.9940   19.7160  -34.0150 O   0  0  0  0  0  0  0  0  0  0  0  0
   -3.3280   22.5400  -31.0260 C   0  0  0  0  0  0  0  0  0  0  0  0
   -2.7680   23.3170  -30.2070 O   0  0  0  0  0  0  0  0  0  0  0  0
   -4.7400   22.6660  -31.2450 N   0  0  0  0  0  0  0  0  0  0  0  0
   -5.5420   23.7210  -30.9370 C   0  0  0  0  0  0  0  0  0  0  0  0
   -5.0960   25.0020  -30.3490 C   0  0  0  0  0  0  0  0  0  0  0  0
   -3.9060   25.6420  -30.7990 N   0  0  0  0  0  0  0  0  0  0  0  0
   -5.7810   25.5430  -29.4400 O   0  0  0  0  0  0  0  0  0  0  0  0
   -6.8640   23.4380  -31.2780 C   0  0  0  0  0  0  0  0  0  0  0  0
   -6.8410   22.1650  -31.8050 C   0  0  0  0  0  0  0  0  0  0  0  0
   -7.8750   21.3780  -32.3020 C   0  0  0  0  0  0  0  0  0  0  0  0
   -7.5570   20.0930  -32.7740 C   0  0  0  0  0  0  0  0  0  0  0  0
   -6.2190   19.6140  -32.7380 C   0  0  0  0  0  0  0  0  0  0  0  0
   -5.8930   18.2550  -33.2390 C   0  0  0  0  0  0  0  0  0  0  0  0
   -6.9010   17.2810  -33.3770 C   0  0  0  0  0  0  0  0  0  0  0  0
   -6.5900   16.0020  -33.8480 C   0  0  0  0  0  0  0  0  0  0  0  0
   -5.2740   15.6790  -34.1850 C   0  0  0  0  0  0  0  0  0  0  0  0
   -4.9750   14.4380  -34.6400 F   0  0  0  0  0  0  0  0  0  0  0  0
   -4.2650   16.6360  -34.0520 C   0  0  0  0  0  0  0  0  0  0  0  0
   -4.5700   17.9170  -33.5830 C   0  0  0  0  0  0  0  0  0  0  0  0
   -5.1980   20.4470  -32.2210 C   0  0  0  0  0  0  0  0  0  0  0  0
   -5.5460   21.7210  -31.7670 C   0  0  0  0  0  0  0  0  0  0  0  0
   -1.8823   20.7711  -29.8590 H   0  0  0  0  0  0  0  0  0  0  0  0
   -1.9936   19.5616  -31.1825 H   0  0  0  0  0  0  0  0  0  0  0  0
   -0.6677   20.7736  -31.1825 H   0  0  0  0  0  0  0  0  0  0  0  0
   -2.9660   25.2880  -30.5160 H   0  0  0  0  0  0  0  0  0  0  0  0
   -7.7395   24.0921  -31.1529 H   0  0  0  0  0  0  0  0  0  0  0  0
   -8.9099   21.7502  -32.3248 H   0  0  0  0  0  0  0  0  0  0  0  0
   -8.3535   19.4498  -33.1764 H   0  0  0  0  0  0  0  0  0  0  0  0
   -7.9397   17.5283  -33.1125 H   0  0  0  0  0  0  0  0  0  0  0  0
   -7.3841   15.2481  -33.9534 H   0  0  0  0  0  0  0  0  0  0  0  0
   -3.2283   16.3809  -34.3169 H   0  0  0  0  0  0  0  0  0  0  0  0
   -3.7710   18.6662  -33.4819 H   0  0  0  0  0  0  0  0  0  0  0  0
   -4.1553   20.0992  -32.1779 H   0  0  0  0  0  0  0  0  0  0  0  0
  1  2  1  0
  2  3  1  0
  3  4  2  0
  3  5  1  0
  5  6  2  0
  5  7  1  0
  2  8  1  0
  8  9  2  0
  8 10  1  0
 10 11  1  0
 11 12  1  0
 12 13  1  0
 12 14  2  0
 11 15  2  0
 15 16  1  0
 16 17  2  0
 17 18  1  0
 18 19  2  0
 19 20  1  0
 20 21  2  0
 21 22  1  0
 22 23  2  0
 23 24  1  0
 23 25  1  0
 25 26  2  0
 19 27  1  0
 27 28  2  0
 28 10  1  0
 28 16  1  0
 26 20  1  0
  1 29  1  0
  1 30  1  0
  1 31  1  0
 13 32  1  0
 15 33  1  0
 17 34  1  0
 18 35  1  0
 21 36  1  0
 22 37  1  0
 25 38  1  0
 26 39  1  0
 27 40  1  0
M  CHG  2   7  -1  13  -1
M  END
>  <UniqueID>  (93) 
92

>  <SMILES>  (93) 
CN(C(=O)C(=O)[O-])C(=O)n1c(C([NH-])=O)cc2ccc(-c3ccc(F)cc3)cc21

>  <Energy>  (93) 
91.61204519557906

>  <Genealogy>  (93) 
CN(C(=O)C(=O)[O-])C(=O)n1c(C([NH-])=O)cc2ccc(-c3ccc(F)cc3)cc21 (protonated)
CN(C(=O)C(=O)[O-])C(=O)n1c(C([NH-])=O)cc2ccc(-c3ccc(F)cc3)cc21 (3D coordinates assigned)
CN(C(=O)C(=O)[O-])C(=O)n1c(C([NH-])=O)cc2ccc(-c3ccc(F)cc3)cc21 (optimized conformer: 91.61204519557906 kcal/mol)

>  <smiles>  (93) 
CN(C(=O)C(=O)O)C(=O)n1c(C(N)=O)cc2ccc(-c3ccc(F)cc3)cc21

>  <score_type>  (93) 
oracle

>  <origin>  (93) 
adg

>  <m_score__min__energy>  (93) 
-13.42

>  <m_primary>  (93) 
energy

$$$$
94:0
     RDKit          3D

 35 37  0  0  0  0  0  0  0  0999 V2000
   -3.8900   25.5250  -30.9830 N   0  0  0  0  0  0  0  0  0  0  0  0
   -5.1740   25.2160  -30.4490 C   0  0  0  0  0  0  0  0  0  0  0  0
   -5.7450   26.0480  -29.6930 O   0  0  0  0  0  0  0  0  0  0  0  0
   -5.8630   23.9590  -30.8080 C   0  0  0  0  0  0  0  0  0  0  0  0
   -7.2400   23.8640  -30.9990 C   0  0  0  0  0  0  0  0  0  0  0  0
   -7.4620   22.5660  -31.4040 C   0  0  0  0  0  0  0  0  0  0  0  0
   -8.6500   21.9180  -31.7290 C   0  0  0  0  0  0  0  0  0  0  0  0
   -8.5830   20.5610  -32.0900 C   0  0  0  0  0  0  0  0  0  0  0  0
   -7.3370   19.8800  -32.1270 C   0  0  0  0  0  0  0  0  0  0  0  0
   -7.2530   18.4170  -32.4800 C   0  0  0  0  0  0  0  0  0  0  0  0
   -8.4980   17.8310  -32.3340 F   0  0  0  0  0  0  0  0  0  0  0  0
   -6.8450   18.2890  -33.7940 F   0  0  0  0  0  0  0  0  0  0  0  0
   -6.3550   17.7450  -31.6670 F   0  0  0  0  0  0  0  0  0  0  0  0
   -6.1540   20.5760  -31.7850 C   0  0  0  0  0  0  0  0  0  0  0  0
   -6.2510   21.9270  -31.4410 C   0  0  0  0  0  0  0  0  0  0  0  0
   -5.2610   22.7680  -31.0750 N   0  0  0  0  0  0  0  0  0  0  0  0
   -3.8760   22.4220  -30.9280 C   0  0  0  0  0  0  0  0  0  0  0  0
   -3.1800   22.2070  -31.9600 O   0  0  0  0  0  0  0  0  0  0  0  0
   -3.3200   22.2150  -29.6080 N   0  0  2  0  0  0  0  0  0  0  0  0
   -3.9240   23.0490  -28.5600 C   0  0  0  0  0  0  0  0  0  0  0  0
   -2.6290   23.8170  -28.3280 C   0  0  2  0  0  0  0  0  0  0  0  0
   -2.7180   25.1510  -28.7500 O   0  0  0  0  0  0  0  0  0  0  0  0
   -2.0460   22.9200  -29.4090 C   0  0  0  0  0  0  0  0  0  0  0  0
   -3.0190   25.2950  -30.4560 H   0  0  0  0  0  0  0  0  0  0  0  0
   -7.9897   24.6562  -30.8568 H   0  0  0  0  0  0  0  0  0  0  0  0
   -9.6118   22.4512  -31.7042 H   0  0  0  0  0  0  0  0  0  0  0  0
   -9.5060   20.0204  -32.3467 H   0  0  0  0  0  0  0  0  0  0  0  0
   -5.1797   20.0654  -31.7897 H   0  0  0  0  0  0  0  0  0  0  0  0
   -3.2580   21.2050  -29.3330 H   0  0  0  0  0  0  0  0  0  0  0  0
   -4.7492   23.6796  -28.9223 H   0  0  0  0  0  0  0  0  0  0  0  0
   -4.4144   22.5597  -27.7055 H   0  0  0  0  0  0  0  0  0  0  0  0
   -2.1758   23.9387  -27.3331 H   0  0  0  0  0  0  0  0  0  0  0  0
   -3.6860   25.3350  -28.8570 H   0  0  0  0  0  0  0  0  0  0  0  0
   -1.7057   23.4701  -30.2987 H   0  0  0  0  0  0  0  0  0  0  0  0
   -1.1424   22.3341  -29.1848 H   0  0  0  0  0  0  0  0  0  0  0  0
  1  2  1  0
  2  3  2  0
  2  4  1  0
  4  5  2  0
  5  6  1  0
  6  7  2  0
  7  8  1  0
  8  9  2  0
  9 10  1  0
 10 11  1  0
 10 12  1  0
 10 13  1  0
  9 14  1  0
 14 15  2  0
 15 16  1  0
 16 17  1  0
 17 18  2  0
 17 19  1  0
 19 20  1  0
 20 21  1  0
 21 22  1  0
 21 23  1  0
 16  4  1  0
 23 19  1  0
 15  6  1  0
  1 24  1  0
  5 25  1  0
  7 26  1  0
  8 27  1  0
 14 28  1  0
 19 29  1  1
 20 30  1  0
 20 31  1  0
 21 32  1  1
 22 33  1  0
 23 34  1  0
 23 35  1  0
M  CHG  2   1  -1  19   1
M  END
>  <UniqueID>  (94) 
93

>  <SMILES>  (94) 
[NH-]C(=O)c1cc2ccc(C(F)(F)F)cc2n1C(=O)[NH+]1CC(O)C1

>  <Energy>  (94) 
151.20644030998025

>  <Genealogy>  (94) 
[NH-]C(=O)c1cc2ccc(C(F)(F)F)cc2n1C(=O)[NH+]1CC(O)C1 (protonated)
[NH-]C(=O)c1cc2ccc(C(F)(F)F)cc2n1C(=O)[NH+]1CC(O)C1 (3D coordinates assigned)
[NH-]C(=O)c1cc2ccc(C(F)(F)F)cc2n1C(=O)[NH+]1CC(O)C1 (nonaromatic ring conformer: 151.20644030998025 kcal/mol)

>  <smiles>  (94) 
NC(=O)c1cc2ccc(C(F)(F)F)cc2n1C(=O)N1CC(O)C1

>  <score_type>  (94) 
oracle

>  <origin>  (94) 
adg

>  <m_score__min__energy>  (94) 
-9.1500000000000004

>  <m_primary>  (94) 
energy

$$$$
95:0
     RDKit          3D

 37 38  0  0  0  0  0  0  0  0999 V2000
   -3.7100   24.8780  -26.7010 C   0  0  0  0  0  0  0  0  0  0  0  0
   -4.1700   23.9080  -27.7820 C   0  0  0  0  0  0  0  0  0  0  0  0
   -2.7840   23.1070  -28.5820 S   0  0  0  0  0  0  0  0  0  0  0  0
   -1.9050   22.4850  -27.5340 O   0  0  0  0  0  0  0  0  0  0  0  0
   -1.9900   24.1420  -29.3290 O   0  0  0  0  0  0  0  0  0  0  0  0
   -3.3110   21.8490  -29.7350 C   0  0  0  0  0  0  0  0  0  0  0  0
   -3.8220   22.4610  -31.0080 C   0  0  0  0  0  0  0  0  0  0  0  0
   -3.0170   22.6960  -31.9470 O   0  0  0  0  0  0  0  0  0  0  0  0
   -5.2190   22.7530  -31.1790 N   0  0  0  0  0  0  0  0  0  0  0  0
   -5.8600   23.9390  -30.9700 C   0  0  0  0  0  0  0  0  0  0  0  0
   -5.2320   25.2140  -30.5520 C   0  0  0  0  0  0  0  0  0  0  0  0
   -3.8660   25.4980  -30.8390 N   0  0  0  0  0  0  0  0  0  0  0  0
   -5.9230   26.0780  -29.9470 O   0  0  0  0  0  0  0  0  0  0  0  0
   -7.2230   23.8080  -31.2280 C   0  0  0  0  0  0  0  0  0  0  0  0
   -7.4030   22.4930  -31.5910 C   0  0  0  0  0  0  0  0  0  0  0  0
   -8.5700   21.8070  -31.9160 C   0  0  0  0  0  0  0  0  0  0  0  0
   -8.4690   20.4340  -32.1930 C   0  0  0  0  0  0  0  0  0  0  0  0
   -7.2170   19.7740  -32.1290 C   0  0  0  0  0  0  0  0  0  0  0  0
   -7.1320   18.2940  -32.3720 C   0  0  0  0  0  0  0  0  0  0  0  0
   -6.4530   18.0340  -33.6460 C   0  0  0  0  0  0  0  0  0  0  0  0
   -5.9170   17.8300  -34.6510 N   0  0  0  0  0  0  0  0  0  0  0  0
   -6.0580   20.5000  -31.7790 C   0  0  0  0  0  0  0  0  0  0  0  0
   -6.1810   21.8750  -31.5430 C   0  0  0  0  0  0  0  0  0  0  0  0
   -3.9146   24.4466  -25.7100 H   0  0  0  0  0  0  0  0  0  0  0  0
   -2.6301   25.0591  -26.8062 H   0  0  0  0  0  0  0  0  0  0  0  0
   -4.2532   25.8287  -26.8062 H   0  0  0  0  0  0  0  0  0  0  0  0
   -4.8101   23.1399  -27.3234 H   0  0  0  0  0  0  0  0  0  0  0  0
   -4.7236   24.4780  -28.5426 H   0  0  0  0  0  0  0  0  0  0  0  0
   -2.4576   21.1953  -29.9681 H   0  0  0  0  0  0  0  0  0  0  0  0
   -4.1258   21.2719  -29.2735 H   0  0  0  0  0  0  0  0  0  0  0  0
   -3.1880   24.7290  -31.0330 H   0  0  0  0  0  0  0  0  0  0  0  0
   -7.9927   24.5906  -31.1566 H   0  0  0  0  0  0  0  0  0  0  0  0
   -9.5402   22.3239  -31.9546 H   0  0  0  0  0  0  0  0  0  0  0  0
   -9.3711   19.8652  -32.4624 H   0  0  0  0  0  0  0  0  0  0  0  0
   -6.5666   17.8224  -31.5548 H   0  0  0  0  0  0  0  0  0  0  0  0
   -8.1484   17.8752  -32.4120 H   0  0  0  0  0  0  0  0  0  0  0  0
   -5.0828   19.9983  -31.6938 H   0  0  0  0  0  0  0  0  0  0  0  0
  1  2  1  0
  2  3  1  0
  3  4  2  0
  3  5  2  0
  3  6  1  0
  6  7  1  0
  7  8  2  0
  7  9  1  0
  9 10  1  0
 10 11  1  0
 11 12  1  0
 11 13  2  0
 10 14  2  0
 14 15  1  0
 15 16  2  0
 16 17  1  0
 17 18  2  0
 18 19  1  0
 19 20  1  0
 20 21  3  0
 18 22  1  0
 22 23  2  0
 23  9  1  0
 23 15  1  0
  1 24  1  0
  1 25  1  0
  1 26  1  0
  2 27  1  0
  2 28  1  0
  6 29  1  0
  6 30  1  0
 12 31  1  0
 14 32  1  0
 16 33  1  0
 17 34  1  0
 19 35  1  0
 19 36  1  0
 22 37  1  0
M  CHG  1  12  -1
M  END
>  <UniqueID>  (95) 
94

>  <SMILES>  (95) 
CCS(=O)(=O)CC(=O)n1c(C([NH-])=O)cc2ccc(CC#N)cc21

>  <Energy>  (95) 
62.78335686326615

>  <Genealogy>  (95) 
CCS(=O)(=O)CC(=O)n1c(C([NH-])=O)cc2ccc(CC#N)cc21 (protonated)
CCS(=O)(=O)CC(=O)n1c(C([NH-])=O)cc2ccc(CC#N)cc21 (3D coordinates assigned)
CCS(=O)(=O)CC(=O)n1c(C([NH-])=O)cc2ccc(CC#N)cc21 (optimized conformer: 62.78335686326615 kcal/mol)

>  <smiles>  (95) 
CCS(=O)(=O)CC(=O)n1c(C(N)=O)cc2ccc(CC#N)cc21

>  <score_type>  (95) 
oracle

>  <origin>  (95) 
adg

>  <m_score__min__energy>  (95) 
-10.6

>  <m_primary>  (95) 
energy

$$$$
96:0
     RDKit          3D

 33 34  0  0  0  0  0  0  0  0999 V2000
   -0.7880   20.2580  -31.6250 C   0  0  0  0  0  0  0  0  0  0  0  0
   -1.1720   21.5370  -32.2270 N   0  0  0  0  0  0  0  0  0  0  0  0
   -2.6200   21.5950  -32.5080 C   0  0  0  0  0  0  0  0  0  0  0  0
   -3.3650   22.3130  -31.4100 C   0  0  0  0  0  0  0  0  0  0  0  0
   -2.7150   22.8250  -30.4520 O   0  0  0  0  0  0  0  0  0  0  0  0
   -4.8070   22.4020  -31.4200 N   0  0  0  0  0  0  0  0  0  0  0  0
   -5.5880   23.3520  -30.8290 C   0  0  0  0  0  0  0  0  0  0  0  0
   -5.1070   24.6180  -30.2480 C   0  0  0  0  0  0  0  0  0  0  0  0
   -5.7140   25.1310  -29.0610 N   0  0  0  0  0  0  0  0  0  0  0  0
   -4.2360   25.3070  -30.8460 O   0  0  0  0  0  0  0  0  0  0  0  0
   -6.9360   23.0450  -30.9730 C   0  0  0  0  0  0  0  0  0  0  0  0
   -6.9640   21.8680  -31.6810 C   0  0  0  0  0  0  0  0  0  0  0  0
   -8.0480   21.1200  -32.1250 C   0  0  0  0  0  0  0  0  0  0  0  0
   -7.7840   19.9480  -32.8600 C   0  0  0  0  0  0  0  0  0  0  0  0
   -6.4510   19.5500  -33.1410 C   0  0  0  0  0  0  0  0  0  0  0  0
   -6.1530   18.3260  -33.9750 C   0  0  0  0  0  0  0  0  0  0  0  0
   -4.9250   17.7980  -33.5920 F   0  0  0  0  0  0  0  0  0  0  0  0
   -6.0910   18.6250  -35.3310 F   0  0  0  0  0  0  0  0  0  0  0  0
   -7.1450   17.3740  -33.7690 F   0  0  0  0  0  0  0  0  0  0  0  0
   -5.3760   20.3250  -32.6460 C   0  0  0  0  0  0  0  0  0  0  0  0
   -5.6660   21.4930  -31.9300 C   0  0  0  0  0  0  0  0  0  0  0  0
   -0.8144   20.3461  -30.5288 H   0  0  0  0  0  0  0  0  0  0  0  0
   -1.4908   19.4755  -31.9470 H   0  0  0  0  0  0  0  0  0  0  0  0
    0.2296   19.9920  -31.9470 H   0  0  0  0  0  0  0  0  0  0  0  0
   -0.9480   22.2880  -31.5310 H   0  0  0  0  0  0  0  0  0  0  0  0
   -2.7795   22.1283  -33.4568 H   0  0  0  0  0  0  0  0  0  0  0  0
   -3.0023   20.5654  -32.5701 H   0  0  0  0  0  0  0  0  0  0  0  0
   -6.3930   24.5520  -28.5150 H   0  0  0  0  0  0  0  0  0  0  0  0
   -5.4470   26.0680  -28.6930 H   0  0  0  0  0  0  0  0  0  0  0  0
   -7.7958   23.6209  -30.6001 H   0  0  0  0  0  0  0  0  0  0  0  0
   -9.0800   21.4336  -31.9091 H   0  0  0  0  0  0  0  0  0  0  0  0
   -8.6217   19.3332  -33.2209 H   0  0  0  0  0  0  0  0  0  0  0  0
   -4.3345   20.0167  -32.8198 H   0  0  0  0  0  0  0  0  0  0  0  0
  1  2  1  0
  2  3  1  0
  3  4  1  0
  4  5  2  0
  4  6  1  0
  6  7  1  0
  7  8  1  0
  8  9  1  0
  8 10  2  0
  7 11  2  0
 11 12  1  0
 12 13  2  0
 13 14  1  0
 14 15  2  0
 15 16  1  0
 16 17  1  0
 16 18  1  0
 16 19  1  0
 15 20  1  0
 20 21  2  0
 21  6  1  0
 21 12  1  0
  1 22  1  0
  1 23  1  0
  1 24  1  0
  2 25  1  0
  3 26  1  0
  3 27  1  0
  9 28  1  0
  9 29  1  0
 11 30  1  0
 13 31  1  0
 14 32  1  0
 20 33  1  0
M  END
>  <UniqueID>  (96) 
95

>  <SMILES>  (96) 
CNCC(=O)n1c(C(N)=O)cc2ccc(C(F)(F)F)cc21

>  <Energy>  (96) 
73.1721448371036

>  <Genealogy>  (96) 
CNCC(=O)n1c(C(N)=O)cc2ccc(C(F)(F)F)cc21 (3D coordinates assigned)
CNCC(=O)n1c(C(N)=O)cc2ccc(C(F)(F)F)cc21 (optimized conformer: 73.1721448371036 kcal/mol)

>  <smiles>  (96) 
CNCC(=O)n1c(C(N)=O)cc2ccc(C(F)(F)F)cc21

>  <score_type>  (96) 
oracle

>  <origin>  (96) 
adg

>  <m_score__min__energy>  (96) 
-7.6799999999999997

>  <m_primary>  (96) 
energy

$$$$
97:0
     RDKit          3D

 38 39  0  0  0  0  0  0  0  0999 V2000
   -6.1070   17.1550  -31.7170 C   0  0  0  0  0  0  0  0  0  0  0  0
   -6.2340   18.2020  -32.7380 N   0  0  0  0  0  0  0  0  0  0  0  0
   -6.0730   17.8380  -34.1510 C   0  0  0  0  0  0  0  0  0  0  0  0
   -6.5140   19.5740  -32.3560 C   0  0  0  0  0  0  0  0  0  0  0  0
   -7.8420   20.0880  -32.4040 C   0  0  0  0  0  0  0  0  0  0  0  0
   -8.1250   21.4110  -32.0270 C   0  0  0  0  0  0  0  0  0  0  0  0
   -7.0680   22.2100  -31.6080 C   0  0  0  0  0  0  0  0  0  0  0  0
   -7.0590   23.5150  -31.1660 C   0  0  0  0  0  0  0  0  0  0  0  0
   -5.7260   23.7940  -30.8660 C   0  0  0  0  0  0  0  0  0  0  0  0
   -5.2450   25.1120  -30.4010 C   0  0  0  0  0  0  0  0  0  0  0  0
   -4.0130   25.6500  -30.8720 N   0  0  0  0  0  0  0  0  0  0  0  0
   -5.9450   25.7850  -29.5990 O   0  0  0  0  0  0  0  0  0  0  0  0
   -4.9490   22.7030  -31.1100 N   0  0  0  0  0  0  0  0  0  0  0  0
   -3.5470   22.5430  -30.8610 C   0  0  0  0  0  0  0  0  0  0  0  0
   -2.8610   21.7940  -31.6080 O   0  0  0  0  0  0  0  0  0  0  0  0
   -2.9190   23.1620  -29.6480 C   0  0  0  0  0  0  0  0  0  0  0  0
   -1.4060   23.2760  -29.8390 C   0  0  0  0  0  0  0  0  0  0  0  0
   -0.8680   24.4440  -29.0730 C   0  0  0  0  0  0  0  0  0  0  0  0
   -1.6130   25.6590  -29.0110 N   0  0  0  0  0  0  0  0  0  0  0  0
    0.2220   24.3430  -28.4500 O   0  0  0  0  0  0  0  0  0  0  0  0
   -5.7830   21.7450  -31.5630 C   0  0  0  0  0  0  0  0  0  0  0  0
   -5.4690   20.4320  -31.9220 C   0  0  0  0  0  0  0  0  0  0  0  0
   -6.1621   17.6096  -30.7168 H   0  0  0  0  0  0  0  0  0  0  0  0
   -6.9235   16.4273  -31.8345 H   0  0  0  0  0  0  0  0  0  0  0  0
   -5.1402   16.6436  -31.8345 H   0  0  0  0  0  0  0  0  0  0  0  0
   -5.6290   16.8342  -34.2227 H   0  0  0  0  0  0  0  0  0  0  0  0
   -7.0561   17.8402  -34.6445 H   0  0  0  0  0  0  0  0  0  0  0  0
   -5.4133   18.5669  -34.6445 H   0  0  0  0  0  0  0  0  0  0  0  0
   -8.6610   19.4364  -32.7427 H   0  0  0  0  0  0  0  0  0  0  0  0
   -9.1522   21.8029  -32.0623 H   0  0  0  0  0  0  0  0  0  0  0  0
   -7.9202   24.1927  -31.0702 H   0  0  0  0  0  0  0  0  0  0  0  0
   -3.0990   25.2850  -30.5230 H   0  0  0  0  0  0  0  0  0  0  0  0
   -3.3424   24.1651  -29.4910 H   0  0  0  0  0  0  0  0  0  0  0  0
   -3.1244   22.5276  -28.7732 H   0  0  0  0  0  0  0  0  0  0  0  0
   -0.9251   22.3545  -29.4791 H   0  0  0  0  0  0  0  0  0  0  0  0
   -1.1922   23.4224  -30.9080 H   0  0  0  0  0  0  0  0  0  0  0  0
   -2.6340   25.6730  -29.2330 H   0  0  0  0  0  0  0  0  0  0  0  0
   -4.4318   20.0695  -31.8695 H   0  0  0  0  0  0  0  0  0  0  0  0
  1  2  1  0
  2  3  1  0
  2  4  1  0
  4  5  2  0
  5  6  1  0
  6  7  2  0
  7  8  1  0
  8  9  2  0
  9 10  1  0
 10 11  1  0
 10 12  2  0
  9 13  1  0
 13 14  1  0
 14 15  2  0
 14 16  1  0
 16 17  1  0
 17 18  1  0
 18 19  1  0
 18 20  2  0
 13 21  1  0
 21 22  2  0
 22  4  1  0
 21  7  1  0
  1 23  1  0
  1 24  1  0
  1 25  1  0
  3 26  1  0
  3 27  1  0
  3 28  1  0
  5 29  1  0
  6 30  1  0
  8 31  1  0
 11 32  1  0
 16 33  1  0
 16 34  1  0
 17 35  1  0
 17 36  1  0
 19 37  1  0
 22 38  1  0
M  CHG  2  11  -1  19  -1
M  END
>  <UniqueID>  (97) 
96

>  <SMILES>  (97) 
CN(C)c1ccc2cc(C([NH-])=O)n(C(=O)CCC([NH-])=O)c2c1

>  <Energy>  (97) 
74.0094605752553

>  <Genealogy>  (97) 
CN(C)c1ccc2cc(C([NH-])=O)n(C(=O)CCC([NH-])=O)c2c1 (protonated)
CN(C)c1ccc2cc(C([NH-])=O)n(C(=O)CCC([NH-])=O)c2c1 (3D coordinates assigned)
CN(C)c1ccc2cc(C([NH-])=O)n(C(=O)CCC([NH-])=O)c2c1 (optimized conformer: 74.0094605752553 kcal/mol)

>  <smiles>  (97) 
CN(C)c1ccc2cc(C(N)=O)n(C(=O)CCC(N)=O)c2c1

>  <score_type>  (97) 
oracle

>  <origin>  (97) 
adg

>  <m_score__min__energy>  (97) 
-12.99

>  <m_primary>  (97) 
energy

$$$$
