0:0
     RDKit          3D

 37 38  0  0  0  0  0  0  0  0999 V2000
   -1.8750   24.2500  -28.9050 C   0  0  0  0  0  0  0  0  0  0  0  0
   -2.4230   23.0050  -29.6180 C   0  0  0  0  0  0  0  0  0  0  0  0
   -1.2580   22.0320  -29.8850 C   0  0  0  0  0  0  0  0  0  0  0  0
   -3.4880   22.3450  -28.7230 C   0  0  0  0  0  0  0  0  0  0  0  0
   -3.0060   23.4480  -30.8520 O   0  0  0  0  0  0  0  0  0  0  0  0
   -3.8050   22.6860  -31.7200 C   0  0  0  0  0  0  0  0  0  0  0  0
   -3.2810   21.9500  -32.5980 O   0  0  0  0  0  0  0  0  0  0  0  0
   -5.2360   22.7460  -31.5970 N   0  0  0  0  0  0  0  0  0  0  0  0
   -5.9620   23.6610  -30.8950 C   0  0  0  0  0  0  0  0  0  0  0  0
   -5.4310   24.8830  -30.2600 C   0  0  0  0  0  0  0  0  0  0  0  0
   -5.8540   25.2800  -28.9540 N   0  0  0  0  0  0  0  0  0  0  0  0
   -4.5510   25.5590  -30.8560 O   0  0  0  0  0  0  0  0  0  0  0  0
   -7.3120   23.3190  -30.8890 C   0  0  0  0  0  0  0  0  0  0  0  0
   -7.3950   22.1610  -31.6280 C   0  0  0  0  0  0  0  0  0  0  0  0
   -8.5030   21.3740  -31.9310 C   0  0  0  0  0  0  0  0  0  0  0  0
   -8.2930   20.2050  -32.6810 C   0  0  0  0  0  0  0  0  0  0  0  0
   -6.9910   19.8410  -33.0990 C   0  0  0  0  0  0  0  0  0  0  0  0
   -6.7900   18.6400  -33.8480 N   0  0  0  0  0  0  0  0  0  0  0  0
   -5.8900   20.6610  -32.7710 C   0  0  0  0  0  0  0  0  0  0  0  0
   -6.1290   21.8340  -32.0420 C   0  0  0  0  0  0  0  0  0  0  0  0
   -1.9381   24.1066  -27.8162 H   0  0  0  0  0  0  0  0  0  0  0  0
   -0.8251   24.4057  -29.1941 H   0  0  0  0  0  0  0  0  0  0  0  0
   -2.4692   25.1294  -29.1941 H   0  0  0  0  0  0  0  0  0  0  0  0
   -0.8429   21.6853  -28.9271 H   0  0  0  0  0  0  0  0  0  0  0  0
   -1.6255   21.1688  -30.4592 H   0  0  0  0  0  0  0  0  0  0  0  0
   -0.4740   22.5474  -30.4592 H   0  0  0  0  0  0  0  0  0  0  0  0
   -3.2292   22.5054  -27.6660 H   0  0  0  0  0  0  0  0  0  0  0  0
   -4.4709   22.7925  -28.9318 H   0  0  0  0  0  0  0  0  0  0  0  0
   -3.5247   21.2656  -28.9318 H   0  0  0  0  0  0  0  0  0  0  0  0
   -6.4480   24.6540  -28.3680 H   0  0  0  0  0  0  0  0  0  0  0  0
   -5.5070   26.1720  -28.5400 H   0  0  0  0  0  0  0  0  0  0  0  0
   -8.1355   23.8588  -30.3986 H   0  0  0  0  0  0  0  0  0  0  0  0
   -9.5106   21.6586  -31.5938 H   0  0  0  0  0  0  0  0  0  0  0  0
   -9.1487   19.5665  -32.9459 H   0  0  0  0  0  0  0  0  0  0  0  0
   -6.5560   17.7430  -33.3670 H   0  0  0  0  0  0  0  0  0  0  0  0
   -6.8740   18.6390  -34.8900 H   0  0  0  0  0  0  0  0  0  0  0  0
   -4.8705   20.3865  -33.0796 H   0  0  0  0  0  0  0  0  0  0  0  0
  1  2  1  0
  2  3  1  0
  2  4  1  0
  2  5  1  0
  5  6  1  0
  6  7  2  0
  6  8  1  0
  8  9  1  0
  9 10  1  0
 10 11  1  0
 10 12  2  0
  9 13  2  0
 13 14  1  0
 14 15  2  0
 15 16  1  0
 16 17  2  0
 17 18  1  0
 17 19  1  0
 19 20  2  0
 20  8  1  0
 20 14  1  0
  1 21  1  0
  1 22  1  0
  1 23  1  0
  3 24  1  0
  3 25  1  0
  3 26  1  0
  4 27  1  0
  4 28  1  0
  4 29  1  0
 11 30  1  0
 11 31  1  0
 13 32  1  0
 15 33  1  0
 16 34  1  0
 18 35  1  0
 18 36  1  0
 19 37  1  0
M  END
>  <UniqueID>  (1) 
1

>  <SMILES>  (1) 
CC(C)(C)OC(=O)n1c(C(N)=O)cc2ccc(N)cc21

>  <Energy>  (1) 
70.2238627198923

>  <Genealogy>  (1) 
CC(C)(C)OC(=O)n1c(C(N)=O)cc2ccc(N)cc21 (3D coordinates assigned)
CC(C)(C)OC(=O)n1c(C(N)=O)cc2ccc(N)cc21 (optimized conformer: 70.2238627198923 kcal/mol)

>  <smiles>  (1) 
CC(C)(C)OC(=O)n1c(C(N)=O)cc2ccc(N)cc21

>  <score_type>  (1) 
oracle

>  <origin>  (1) 
adg

>  <m_score__min__energy>  (1) 
-8.0500000000000007

>  <m_primary>  (1) 
energy

$$$$
1:0
     RDKit          3D

 51 54  0  0  0  0  0  0  0  0999 V2000
   -1.0810   21.5630  -32.0280 C   0  0  0  0  0  0  0  0  0  0  0  0
   -2.5650   21.1570  -32.1030 C   0  0  0  0  0  0  0  0  0  0  0  0
   -2.7140   19.6240  -32.0710 C   0  0  0  0  0  0  0  0  0  0  0  0
   -3.1610   21.6860  -33.4170 C   0  0  0  0  0  0  0  0  0  0  0  0
   -3.3080   21.7580  -31.0330 O   0  0  0  0  0  0  0  0  0  0  0  0
   -4.0540   22.9450  -31.0910 C   0  0  0  0  0  0  0  0  0  0  0  0
   -3.4700   24.0600  -31.1220 O   0  0  0  0  0  0  0  0  0  0  0  0
   -5.4940   22.8780  -31.1570 N   0  0  0  0  0  0  0  0  0  0  0  0
   -6.3870   23.8640  -30.8540 C   0  0  0  0  0  0  0  0  0  0  0  0
   -6.0690   25.1580  -30.2280 C   0  0  0  0  0  0  0  0  0  0  0  0
   -5.0410   25.9930  -30.7620 N   0  0  0  0  0  0  0  0  0  0  0  0
   -6.6590   25.4980  -29.1680 O   0  0  0  0  0  0  0  0  0  0  0  0
   -7.6730   23.5100  -31.2450 C   0  0  0  0  0  0  0  0  0  0  0  0
   -7.5550   22.2500  -31.7780 C   0  0  0  0  0  0  0  0  0  0  0  0
   -8.5290   21.4120  -32.3110 C   0  0  0  0  0  0  0  0  0  0  0  0
   -8.1300   20.1520  -32.7860 C   0  0  0  0  0  0  0  0  0  0  0  0
   -6.7730   19.7440  -32.7070 C   0  0  0  0  0  0  0  0  0  0  0  0
   -6.3570   18.4070  -33.2020 C   0  0  0  0  0  0  0  0  0  0  0  0
   -7.2120   17.2970  -33.0680 C   0  0  0  0  0  0  0  0  0  0  0  0
   -6.8190   16.0360  -33.5240 C   0  0  0  0  0  0  0  0  0  0  0  0
   -5.5640   15.8600  -34.1210 C   0  0  0  0  0  0  0  0  0  0  0  0
   -5.1610   14.5960  -34.5800 C   0  0  0  0  0  0  0  0  0  0  0  0
   -3.9050   14.4330  -35.1750 C   0  0  0  0  0  0  0  0  0  0  0  0
   -3.5210   13.2110  -35.6160 F   0  0  0  0  0  0  0  0  0  0  0  0
   -3.0470   15.5270  -35.3150 C   0  0  0  0  0  0  0  0  0  0  0  0
   -3.4380   16.7910  -34.8620 C   0  0  0  0  0  0  0  0  0  0  0  0
   -4.6950   16.9670  -34.2630 C   0  0  0  0  0  0  0  0  0  0  0  0
   -5.0970   18.2300  -33.8040 C   0  0  0  0  0  0  0  0  0  0  0  0
   -5.8150   20.6230  -32.1500 C   0  0  0  0  0  0  0  0  0  0  0  0
   -6.2340   21.8860  -31.7110 C   0  0  0  0  0  0  0  0  0  0  0  0
   -0.7765   21.6463  -30.9743 H   0  0  0  0  0  0  0  0  0  0  0  0
   -0.4664   20.8000  -32.5281 H   0  0  0  0  0  0  0  0  0  0  0  0
   -0.9404   22.5326  -32.5281 H   0  0  0  0  0  0  0  0  0  0  0  0
   -2.7474   19.2806  -31.0265 H   0  0  0  0  0  0  0  0  0  0  0  0
   -3.6444   19.3353  -32.5818 H   0  0  0  0  0  0  0  0  0  0  0  0
   -1.8566   19.1615  -32.5818 H   0  0  0  0  0  0  0  0  0  0  0  0
   -3.9664   22.4009  -33.1927 H   0  0  0  0  0  0  0  0  0  0  0  0
   -2.3754   22.1896  -33.9994 H   0  0  0  0  0  0  0  0  0  0  0  0
   -3.5678   20.8462  -33.9994 H   0  0  0  0  0  0  0  0  0  0  0  0
   -4.4550   25.6710  -31.5630 H   0  0  0  0  0  0  0  0  0  0  0  0
   -4.8290   26.9150  -30.3190 H   0  0  0  0  0  0  0  0  0  0  0  0
   -8.5894   24.1108  -31.1482 H   0  0  0  0  0  0  0  0  0  0  0  0
   -9.5818   21.7272  -32.3591 H   0  0  0  0  0  0  0  0  0  0  0  0
   -8.8773   19.4740  -33.2240 H   0  0  0  0  0  0  0  0  0  0  0  0
   -8.1993   17.4234  -32.5997 H   0  0  0  0  0  0  0  0  0  0  0  0
   -7.4981   15.1777  -33.4137 H   0  0  0  0  0  0  0  0  0  0  0  0
   -5.8336   13.7324  -34.4718 H   0  0  0  0  0  0  0  0  0  0  0  0
   -2.0606   15.3935  -35.7832 H   0  0  0  0  0  0  0  0  0  0  0  0
   -2.7590   17.6490  -34.9754 H   0  0  0  0  0  0  0  0  0  0  0  0
   -4.4210   19.0906  -33.9156 H   0  0  0  0  0  0  0  0  0  0  0  0
   -4.7609   20.3208  -32.0631 H   0  0  0  0  0  0  0  0  0  0  0  0
  1  2  1  0
  2  3  1  0
  2  4  1  0
  2  5  1  0
  5  6  1  0
  6  7  2  0
  6  8  1  0
  8  9  1  0
  9 10  1  0
 10 11  1  0
 10 12  2  0
  9 13  2  0
 13 14  1  0
 14 15  2  0
 15 16  1  0
 16 17  2  0
 17 18  1  0
 18 19  2  0
 19 20  1  0
 20 21  2  0
 21 22  1  0
 22 23  2  0
 23 24  1  0
 23 25  1  0
 25 26  2  0
 26 27  1  0
 27 28  2  0
 17 29  1  0
 29 30  2  0
 30  8  1  0
 30 14  1  0
 28 18  1  0
 27 21  1  0
  1 31  1  0
  1 32  1  0
  1 33  1  0
  3 34  1  0
  3 35  1  0
  3 36  1  0
  4 37  1  0
  4 38  1  0
  4 39  1  0
 11 40  1  0
 11 41  1  0
 13 42  1  0
 15 43  1  0
 16 44  1  0
 19 45  1  0
 20 46  1  0
 22 47  1  0
 25 48  1  0
 26 49  1  0
 28 50  1  0
 29 51  1  0
M  END
>  <UniqueID>  (2) 
2

>  <SMILES>  (2) 
CC(C)(C)OC(=O)n1c(C(N)=O)cc2ccc(-c3ccc4cc(F)ccc4c3)cc21

>  <Energy>  (2) 
100.18544544087939

>  <Genealogy>  (2) 
CC(C)(C)OC(=O)n1c(C(N)=O)cc2ccc(-c3ccc4cc(F)ccc4c3)cc21 (3D coordinates assigned)
CC(C)(C)OC(=O)n1c(C(N)=O)cc2ccc(-c3ccc4cc(F)ccc4c3)cc21 (optimized conformer: 100.18544544087939 kcal/mol)

>  <smiles>  (2) 
CC(C)(C)OC(=O)n1c(C(N)=O)cc2ccc(-c3ccc4cc(F)ccc4c3)cc21

>  <score_type>  (2) 
oracle

>  <origin>  (2) 
adg

>  <m_score__min__energy>  (2) 
-10.42

>  <m_primary>  (2) 
energy

$$$$
2:0
     RDKit          3D

 60 63  0  0  0  0  0  0  0  0999 V2000
   -1.5450   24.2190  -28.9690 C   0  0  0  0  0  0  0  0  0  0  0  0
   -2.4080   23.1240  -29.6300 C   0  0  0  0  0  0  0  0  0  0  0  0
   -1.5460   21.9150  -30.0250 C   0  0  0  0  0  0  0  0  0  0  0  0
   -3.4740   22.6660  -28.6230 C   0  0  0  0  0  0  0  0  0  0  0  0
   -3.1010   23.6390  -30.7770 O   0  0  0  0  0  0  0  0  0  0  0  0
   -3.8870   22.9110  -31.6810 C   0  0  0  0  0  0  0  0  0  0  0  0
   -3.3400   22.2210  -32.5880 O   0  0  0  0  0  0  0  0  0  0  0  0
   -5.3230   22.9390  -31.5530 N   0  0  0  0  0  0  0  0  0  0  0  0
   -6.0610   23.8530  -30.8600 C   0  0  0  0  0  0  0  0  0  0  0  0
   -5.5620   25.1210  -30.2970 C   0  0  0  0  0  0  0  0  0  0  0  0
   -6.1140   25.6560  -29.0940 N   0  0  0  0  0  0  0  0  0  0  0  0
   -4.5950   25.7060  -30.8520 O   0  0  0  0  0  0  0  0  0  0  0  0
   -7.3990   23.4800  -30.8140 C   0  0  0  0  0  0  0  0  0  0  0  0
   -7.4750   22.3100  -31.5300 C   0  0  0  0  0  0  0  0  0  0  0  0
   -8.5780   21.5130  -31.8120 C   0  0  0  0  0  0  0  0  0  0  0  0
   -8.3780   20.3630  -32.5900 C   0  0  0  0  0  0  0  0  0  0  0  0
   -7.0840   20.0240  -33.0690 C   0  0  0  0  0  0  0  0  0  0  0  0
   -6.8620   18.8780  -33.9140 N   0  0  0  0  0  0  0  0  0  0  0  0
   -6.1660   17.6550  -33.4870 C   0  0  1  0  0  0  0  0  0  0  0  0
   -5.1930   17.1590  -34.5760 C   0  0  0  0  0  0  0  0  0  0  0  0
   -3.9780   18.0910  -34.8230 C   0  0  0  0  0  0  0  0  0  0  0  0
   -3.6210   19.0280  -33.6360 C   0  0  2  0  0  0  0  0  0  0  0  0
   -2.1380   19.3130  -33.5870 C   0  0  0  0  0  0  0  0  0  0  0  0
   -1.6070   20.4510  -34.2220 C   0  0  0  0  0  0  0  0  0  0  0  0
   -0.2350   20.7090  -34.1750 C   0  0  0  0  0  0  0  0  0  0  0  0
    0.6180   19.8430  -33.4860 C   0  0  0  0  0  0  0  0  0  0  0  0
    0.0980   18.7230  -32.8340 C   0  0  0  0  0  0  0  0  0  0  0  0
   -1.2750   18.4590  -32.8780 C   0  0  0  0  0  0  0  0  0  0  0  0
   -4.0690   18.4780  -32.3580 N   0  0  0  0  0  0  0  0  0  0  0  0
   -5.3760   17.9200  -32.2400 C   0  0  0  0  0  0  0  0  0  0  0  0
   -5.8520   17.6610  -31.1000 O   0  0  0  0  0  0  0  0  0  0  0  0
   -5.9870   20.8520  -32.7400 C   0  0  0  0  0  0  0  0  0  0  0  0
   -6.2130   22.0030  -31.9710 C   0  0  0  0  0  0  0  0  0  0  0  0
   -1.6149   24.1303  -27.8748 H   0  0  0  0  0  0  0  0  0  0  0  0
   -0.4970   24.0977  -29.2805 H   0  0  0  0  0  0  0  0  0  0  0  0
   -1.9078   25.2096  -29.2805 H   0  0  0  0  0  0  0  0  0  0  0  0
   -1.1855   21.4094  -29.1170 H   0  0  0  0  0  0  0  0  0  0  0  0
   -2.1490   21.2136  -30.6204 H   0  0  0  0  0  0  0  0  0  0  0  0
   -0.6864   22.2564  -30.6204 H   0  0  0  0  0  0  0  0  0  0  0  0
   -3.1038   22.8250  -27.5994 H   0  0  0  0  0  0  0  0  0  0  0  0
   -4.3953   23.2477  -28.7743 H   0  0  0  0  0  0  0  0  0  0  0  0
   -3.6862   21.5973  -28.7743 H   0  0  0  0  0  0  0  0  0  0  0  0
   -6.8380   25.1330  -28.5560 H   0  0  0  0  0  0  0  0  0  0  0  0
   -5.7740   26.5720  -28.7250 H   0  0  0  0  0  0  0  0  0  0  0  0
   -8.2220   24.0090  -30.3113 H   0  0  0  0  0  0  0  0  0  0  0  0
   -9.5779   21.7760  -31.4364 H   0  0  0  0  0  0  0  0  0  0  0  0
   -9.2337   19.7156  -32.8323 H   0  0  0  0  0  0  0  0  0  0  0  0
   -7.1610   18.9510  -34.9130 H   0  0  0  0  0  0  0  0  0  0  0  0
   -6.9314   16.8868  -33.3024 H   0  0  0  0  0  0  0  0  0  0  0  0
   -4.8134   16.1717  -34.2742 H   0  0  0  0  0  0  0  0  0  0  0  0
   -5.7628   17.1305  -35.5165 H   0  0  0  0  0  0  0  0  0  0  0  0
   -3.1019   17.4611  -35.0367 H   0  0  0  0  0  0  0  0  0  0  0  0
   -4.2572   18.7468  -35.6609 H   0  0  0  0  0  0  0  0  0  0  0  0
   -4.1542   19.9748  -33.8071 H   0  0  0  0  0  0  0  0  0  0  0  0
   -2.2756   21.1407  -34.7580 H   0  0  0  0  0  0  0  0  0  0  0  0
    0.1746   21.5955  -34.6813 H   0  0  0  0  0  0  0  0  0  0  0  0
    1.6992   20.0435  -33.4572 H   0  0  0  0  0  0  0  0  0  0  0  0
    0.7695   18.0468  -32.2846 H   0  0  0  0  0  0  0  0  0  0  0  0
   -1.6810   17.5800  -32.3560 H   0  0  0  0  0  0  0  0  0  0  0  0
   -4.9726   20.5980  -33.0814 H   0  0  0  0  0  0  0  0  0  0  0  0
  1  2  1  0
  2  3  1  0
  2  4  1  0
  2  5  1  0
  5  6  1  0
  6  7  2  0
  6  8  1  0
  8  9  1  0
  9 10  1  0
 10 11  1  0
 10 12  2  0
  9 13  2  0
 13 14  1  0
 14 15  2  0
 15 16  1  0
 16 17  2  0
 17 18  1  0
 18 19  1  0
 19 20  1  0
 20 21  1  0
 21 22  1  0
 22 23  1  0
 23 24  2  0
 24 25  1  0
 25 26  2  0
 26 27  1  0
 27 28  2  0
 22 29  1  0
 29 30  1  0
 30 31  2  0
 17 32  1  0
 32 33  2  0
 33  8  1  0
 33 14  1  0
 30 19  1  0
 28 23  1  0
  1 34  1  0
  1 35  1  0
  1 36  1  0
  3 37  1  0
  3 38  1  0
  3 39  1  0
  4 40  1  0
  4 41  1  0
  4 42  1  0
 11 43  1  0
 11 44  1  0
 13 45  1  0
 15 46  1  0
 16 47  1  0
 18 48  1  0
 19 49  1  1
 20 50  1  0
 20 51  1  0
 21 52  1  0
 21 53  1  0
 22 54  1  6
 24 55  1  0
 25 56  1  0
 26 57  1  0
 27 58  1  0
 28 59  1  0
 32 60  1  0
M  CHG  1  29  -1
M  END
>  <UniqueID>  (3) 
3

>  <SMILES>  (3) 
CC(C)(C)OC(=O)n1c(C(N)=O)cc2ccc(N[C@H]3CC[C@H](c4ccccc4)[N-]C3=O)cc21

>  <Energy>  (3) 
102.66864983215089

>  <Genealogy>  (3) 
CC(C)(C)OC(=O)n1c(C(N)=O)cc2ccc(NC3CCC(c4ccccc4)[N-]C3=O)cc21 (protonated)
CC(C)(C)OC(=O)n1c(C(N)=O)cc2ccc(N[C@H]3CC[C@H](c4ccccc4)[N-]C3=O)cc21 (chirality)
CC(C)(C)OC(=O)n1c(C(N)=O)cc2ccc(N[C@H]3CC[C@H](c4ccccc4)[N-]C3=O)cc21 (3D coordinates assigned)
CC(C)(C)OC(=O)n1c(C(N)=O)cc2ccc(N[C@H]3CC[C@H](c4ccccc4)[N-]C3=O)cc21 (nonaromatic ring conformer: 102.66864983215089 kcal/mol)

>  <smiles>  (3) 
CC(C)(C)OC(=O)n1c(C(N)=O)cc2ccc(NC3CCC(c4ccccc4)NC3=O)cc21

>  <score_type>  (3) 
oracle

>  <origin>  (3) 
adg

>  <m_score__min__energy>  (3) 
-11.359999999999999

>  <m_primary>  (3) 
energy

$$$$
3:0
     RDKit          3D

 52 55  0  0  0  0  0  0  0  0999 V2000
   -1.4910   19.5470  -34.4570 C   0  0  0  0  0  0  0  0  0  0  0  0
   -2.4330   18.6450  -33.6540 C   0  0  0  0  0  0  0  0  0  0  0  0
   -3.3470   17.8330  -34.5840 C   0  0  0  0  0  0  0  0  0  0  0  0
   -3.1980   19.4320  -32.6630 N   0  0  0  0  0  0  0  0  0  0  0  0
   -4.6360   19.3880  -32.5950 C   0  0  0  0  0  0  0  0  0  0  0  0
   -5.4170   20.4220  -33.1310 C   0  0  0  0  0  0  0  0  0  0  0  0
   -6.8110   20.3610  -33.0600 C   0  0  0  0  0  0  0  0  0  0  0  0
   -7.4430   19.2640  -32.4550 C   0  0  0  0  0  0  0  0  0  0  0  0
   -8.9200   19.2100  -32.3930 C   0  0  0  0  0  0  0  0  0  0  0  0
   -9.4790   18.1390  -32.0400 O   0  0  0  0  0  0  0  0  0  0  0  0
   -9.7380   20.3520  -32.6780 N   0  0  0  0  0  0  0  0  0  0  0  0
   -9.8930   21.5010  -31.7930 C   0  0  0  0  0  0  0  0  0  0  0  0
   -8.7820   22.5290  -31.9120 C   0  0  0  0  0  0  0  0  0  0  0  0
   -8.8120   21.5700  -30.7310 C   0  0  0  0  0  0  0  0  0  0  0  0
   -6.6600   18.2500  -31.8820 C   0  0  0  0  0  0  0  0  0  0  0  0
   -5.2660   18.3130  -31.9540 C   0  0  0  0  0  0  0  0  0  0  0  0
   -2.5050   20.3130  -31.7580 C   0  0  0  0  0  0  0  0  0  0  0  0
   -1.2170   19.9650  -31.2810 C   0  0  0  0  0  0  0  0  0  0  0  0
   -0.5170   20.8210  -30.4150 C   0  0  0  0  0  0  0  0  0  0  0  0
   -1.1300   22.0130  -30.0410 C   0  0  0  0  0  0  0  0  0  0  0  0
   -0.6670   23.0320  -29.2400 C   0  0  0  0  0  0  0  0  0  0  0  0
   -1.6860   23.9820  -29.2260 C   0  0  0  0  0  0  0  0  0  0  0  0
   -1.6380   25.2120  -28.4070 C   0  0  0  0  0  0  0  0  0  0  0  0
   -1.1130   26.4150  -28.9640 N   0  0  0  0  0  0  0  0  0  0  0  0
   -2.0230   25.2040  -27.2080 O   0  0  0  0  0  0  0  0  0  0  0  0
   -2.7350   23.5700  -29.9950 N   0  0  0  0  0  0  0  0  0  0  0  0
   -3.9470   24.2840  -30.2890 C   0  0  0  0  0  0  0  0  0  0  0  0
   -5.0670   23.7550  -30.0700 O   0  0  0  0  0  0  0  0  0  0  0  0
   -3.8930   25.5770  -30.7940 O   0  0  0  0  0  0  0  0  0  0  0  0
   -2.3790   22.3620  -30.4840 C   0  0  0  0  0  0  0  0  0  0  0  0
   -3.0900   21.5370  -31.3630 C   0  0  0  0  0  0  0  0  0  0  0  0
   -0.8728   20.1390  -33.7661 H   0  0  0  0  0  0  0  0  0  0  0  0
   -0.8407   18.9262  -35.0908 H   0  0  0  0  0  0  0  0  0  0  0  0
   -2.0830   20.2236  -35.0908 H   0  0  0  0  0  0  0  0  0  0  0  0
   -1.8250   17.9206  -33.0922 H   0  0  0  0  0  0  0  0  0  0  0  0
   -4.0346   17.2222  -33.9806 H   0  0  0  0  0  0  0  0  0  0  0  0
   -3.9270   18.5191  -35.2187 H   0  0  0  0  0  0  0  0  0  0  0  0
   -2.7340   17.1762  -35.2187 H   0  0  0  0  0  0  0  0  0  0  0  0
   -4.9301   21.2847  -33.6093 H   0  0  0  0  0  0  0  0  0  0  0  0
   -7.4164   21.1774  -33.4807 H   0  0  0  0  0  0  0  0  0  0  0  0
  -10.9920   21.5472  -31.8036 H   0  0  0  0  0  0  0  0  0  0  0  0
   -8.0122   22.4199  -32.6902 H   0  0  0  0  0  0  0  0  0  0  0  0
   -8.7418   23.6223  -32.0263 H   0  0  0  0  0  0  0  0  0  0  0  0
   -8.0636   20.7675  -30.6549 H   0  0  0  0  0  0  0  0  0  0  0  0
   -8.8023   21.6826  -29.6368 H   0  0  0  0  0  0  0  0  0  0  0  0
   -7.1452   17.4031  -31.3747 H   0  0  0  0  0  0  0  0  0  0  0  0
   -4.6591   17.5133  -31.5044 H   0  0  0  0  0  0  0  0  0  0  0  0
   -0.7603   19.0140  -31.5923 H   0  0  0  0  0  0  0  0  0  0  0  0
    0.4844   20.5574  -30.0440 H   0  0  0  0  0  0  0  0  0  0  0  0
    0.3015   23.0851  -28.7212 H   0  0  0  0  0  0  0  0  0  0  0  0
   -0.8890   26.4820  -29.9820 H   0  0  0  0  0  0  0  0  0  0  0  0
   -4.0806   21.8344  -31.7374 H   0  0  0  0  0  0  0  0  0  0  0  0
  1  2  1  0
  2  3  1  0
  2  4  1  0
  4  5  1  0
  5  6  2  0
  6  7  1  0
  7  8  2  0
  8  9  1  0
  9 10  2  0
  9 11  1  0
 11 12  1  0
 12 13  1  0
 13 14  1  0
  8 15  1  0
 15 16  2  0
  4 17  1  0
 17 18  2  0
 18 19  1  0
 19 20  2  0
 20 21  1  0
 21 22  2  0
 22 23  1  0
 23 24  1  0
 23 25  2  0
 22 26  1  0
 26 27  1  0
 27 28  2  0
 27 29  1  0
 26 30  1  0
 30 31  2  0
 16  5  1  0
 31 17  1  0
 14 12  1  0
 30 20  1  0
  1 32  1  0
  1 33  1  0
  1 34  1  0
  2 35  1  0
  3 36  1  0
  3 37  1  0
  3 38  1  0
  6 39  1  0
  7 40  1  0
 12 41  1  0
 13 42  1  0
 13 43  1  0
 14 44  1  0
 14 45  1  0
 15 46  1  0
 16 47  1  0
 18 48  1  0
 19 49  1  0
 21 50  1  0
 24 51  1  0
 31 52  1  0
M  CHG  3  11  -1  24  -1  29  -1
M  END
>  <UniqueID>  (4) 
4

>  <SMILES>  (4) 
CC(C)N(c1ccc(C(=O)[N-]C2CC2)cc1)c1ccc2cc(C([NH-])=O)n(C(=O)[O-])c2c1

>  <Energy>  (4) 
370.80424842276074

>  <Genealogy>  (4) 
CC(C)N(c1ccc(C(=O)[N-]C2CC2)cc1)c1ccc2cc(C([NH-])=O)n(C(=O)[O-])c2c1 (protonated)
CC(C)N(c1ccc(C(=O)[N-]C2CC2)cc1)c1ccc2cc(C([NH-])=O)n(C(=O)[O-])c2c1 (3D coordinates assigned)
CC(C)N(c1ccc(C(=O)[N-]C2CC2)cc1)c1ccc2cc(C([NH-])=O)n(C(=O)[O-])c2c1 (nonaromatic ring conformer: 370.80424842276074 kcal/mol)

>  <smiles>  (4) 
CC(C)N(c1ccc(C(=O)NC2CC2)cc1)c1ccc2cc(C(N)=O)n(C(=O)O)c2c1

>  <score_type>  (4) 
oracle

>  <origin>  (4) 
adg

>  <m_score__min__energy>  (4) 
-12.789999999999999

>  <m_primary>  (4) 
energy

$$$$
4:0
     RDKit          3D

 37 40  0  0  0  0  0  0  0  0999 V2000
   -3.8890   25.6700  -30.8180 N   0  0  0  0  0  0  0  0  0  0  0  0
   -5.1300   25.0040  -30.6040 C   0  0  0  0  0  0  0  0  0  0  0  0
   -5.9680   25.5010  -29.8060 O   0  0  0  0  0  0  0  0  0  0  0  0
   -5.4220   23.7110  -31.2580 C   0  0  0  0  0  0  0  0  0  0  0  0
   -6.6990   23.3270  -31.6610 C   0  0  0  0  0  0  0  0  0  0  0  0
   -6.5640   22.0400  -32.1260 C   0  0  0  0  0  0  0  0  0  0  0  0
   -7.5150   21.1770  -32.6620 C   0  0  0  0  0  0  0  0  0  0  0  0
   -7.0870   19.9100  -33.0920 C   0  0  0  0  0  0  0  0  0  0  0  0
   -5.7260   19.5300  -32.9770 C   0  0  0  0  0  0  0  0  0  0  0  0
   -5.2780   18.2040  -33.4590 C   0  0  0  0  0  0  0  0  0  0  0  0
   -4.6740   18.1130  -34.7240 C   0  0  0  0  0  0  0  0  0  0  0  0
   -4.2500   16.8810  -35.2250 C   0  0  0  0  0  0  0  0  0  0  0  0
   -4.4190   15.7190  -34.4630 C   0  0  0  0  0  0  0  0  0  0  0  0
   -4.0010   14.4710  -34.9460 C   0  0  0  0  0  0  0  0  0  0  0  0
   -4.1750   13.3300  -34.1620 C   0  0  0  0  0  0  0  0  0  0  0  0
   -4.7640   13.4460  -32.9020 C   0  0  0  0  0  0  0  0  0  0  0  0
   -5.1670   14.6620  -32.4450 N   0  0  0  0  0  0  0  0  0  0  0  0
   -5.0140   15.7960  -33.1840 C   0  0  0  0  0  0  0  0  0  0  0  0
   -5.4410   17.0370  -32.6790 C   0  0  0  0  0  0  0  0  0  0  0  0
   -6.1170   17.1180  -31.0490 Cl  0  0  0  0  0  0  0  0  0  0  0  0
   -4.7870   20.4370  -32.4370 C   0  0  0  0  0  0  0  0  0  0  0  0
   -5.2450   21.6860  -32.0020 C   0  0  0  0  0  0  0  0  0  0  0  0
   -4.5290   22.7040  -31.4740 N   0  0  0  0  0  0  0  0  0  0  0  0
   -3.1060   22.7310  -31.2850 C   0  0  0  0  0  0  0  0  0  0  0  0
   -2.5470   23.3540  -30.1310 N   0  0  0  0  0  0  0  0  0  0  0  0
   -2.3410   22.2310  -32.1540 O   0  0  0  0  0  0  0  0  0  0  0  0
   -3.0060   25.3080  -30.3980 H   0  0  0  0  0  0  0  0  0  0  0  0
   -7.6203   23.9264  -31.6166 H   0  0  0  0  0  0  0  0  0  0  0  0
   -8.5697   21.4778  -32.7464 H   0  0  0  0  0  0  0  0  0  0  0  0
   -7.8147   19.2061  -33.5220 H   0  0  0  0  0  0  0  0  0  0  0  0
   -4.5336   19.0226  -35.3264 H   0  0  0  0  0  0  0  0  0  0  0  0
   -3.7828   16.8233  -36.2192 H   0  0  0  0  0  0  0  0  0  0  0  0
   -3.5372   14.3916  -35.9403 H   0  0  0  0  0  0  0  0  0  0  0  0
   -3.8506   12.3470  -34.5340 H   0  0  0  0  0  0  0  0  0  0  0  0
   -4.9027   12.5516  -32.2769 H   0  0  0  0  0  0  0  0  0  0  0  0
   -3.7230   20.1684  -32.3604 H   0  0  0  0  0  0  0  0  0  0  0  0
   -2.2540   24.3550  -30.1510 H   0  0  0  0  0  0  0  0  0  0  0  0
  1  2  1  0
  2  3  2  0
  2  4  1  0
  4  5  2  0
  5  6  1  0
  6  7  2  0
  7  8  1  0
  8  9  2  0
  9 10  1  0
 10 11  2  0
 11 12  1  0
 12 13  2  0
 13 14  1  0
 14 15  2  0
 15 16  1  0
 16 17  2  0
 17 18  1  0
 18 19  2  0
 19 20  1  0
  9 21  1  0
 21 22  2  0
 22 23  1  0
 23 24  1  0
 24 25  1  0
 24 26  2  0
 23  4  1  0
 22  6  1  0
 19 10  1  0
 18 13  1  0
  1 27  1  0
  5 28  1  0
  7 29  1  0
  8 30  1  0
 11 31  1  0
 12 32  1  0
 14 33  1  0
 15 34  1  0
 16 35  1  0
 21 36  1  0
 25 37  1  0
M  CHG  2   1  -1  25  -1
M  END
>  <UniqueID>  (5) 
5

>  <SMILES>  (5) 
[NH-]C(=O)c1cc2ccc(-c3ccc4cccnc4c3Cl)cc2n1C([NH-])=O

>  <Energy>  (5) 
93.13047403438212

>  <Genealogy>  (5) 
[NH-]C(=O)c1cc2ccc(-c3ccc4cccnc4c3Cl)cc2n1C([NH-])=O (protonated)
[NH-]C(=O)c1cc2ccc(-c3ccc4cccnc4c3Cl)cc2n1C([NH-])=O (3D coordinates assigned)
[NH-]C(=O)c1cc2ccc(-c3ccc4cccnc4c3Cl)cc2n1C([NH-])=O (optimized conformer: 93.13047403438212 kcal/mol)

>  <smiles>  (5) 
NC(=O)c1cc2ccc(-c3ccc4cccnc4c3Cl)cc2n1C(N)=O

>  <score_type>  (5) 
oracle

>  <origin>  (5) 
adg

>  <m_score__min__energy>  (5) 
-11.369999999999999

>  <m_primary>  (5) 
energy

$$$$
5:0
     RDKit          3D

 40 41  0  0  0  0  0  0  0  0999 V2000
   -2.6990   19.3860  -33.0380 C   0  0  0  0  0  0  0  0  0  0  0  0
   -3.4100   18.5760  -34.1170 C   0  0  0  0  0  0  0  0  0  0  0  0
   -4.6350   18.0480  -33.6160 O   0  0  0  0  0  0  0  0  0  0  0  0
   -5.8940   18.5050  -34.0230 C   0  0  0  0  0  0  0  0  0  0  0  0
   -6.1140   18.8050  -35.2280 O   0  0  0  0  0  0  0  0  0  0  0  0
   -7.0040   18.5720  -33.0240 C   0  0  0  0  0  0  0  0  0  0  0  0
   -7.1490   19.9820  -32.5170 C   0  0  0  0  0  0  0  0  0  0  0  0
   -8.4330   20.5200  -32.2480 C   0  0  0  0  0  0  0  0  0  0  0  0
   -8.5700   21.8300  -31.7560 C   0  0  0  0  0  0  0  0  0  0  0  0
   -7.4110   22.5660  -31.5260 C   0  0  0  0  0  0  0  0  0  0  0  0
   -7.2550   23.8490  -31.0550 C   0  0  0  0  0  0  0  0  0  0  0  0
   -5.8790   24.0620  -31.0090 C   0  0  0  0  0  0  0  0  0  0  0  0
   -5.2650   25.2910  -30.4640 C   0  0  0  0  0  0  0  0  0  0  0  0
   -3.9420   25.6550  -30.8520 N   0  0  0  0  0  0  0  0  0  0  0  0
   -5.9070   26.0440  -29.6850 O   0  0  0  0  0  0  0  0  0  0  0  0
   -5.2090   22.9560  -31.4450 N   0  0  0  0  0  0  0  0  0  0  0  0
   -3.7910   22.7710  -31.5710 C   0  0  0  0  0  0  0  0  0  0  0  0
   -3.3130   22.2610  -32.6210 O   0  0  0  0  0  0  0  0  0  0  0  0
   -2.9490   23.1310  -30.5120 O   0  0  0  0  0  0  0  0  0  0  0  0
   -2.9300   22.4590  -29.2560 C   0  0  0  0  0  0  0  0  0  0  0  0
   -3.8850   23.1290  -28.2740 C   0  0  0  0  0  0  0  0  0  0  0  0
   -6.1620   22.0500  -31.7570 C   0  0  0  0  0  0  0  0  0  0  0  0
   -5.9970   20.7620  -32.2760 C   0  0  0  0  0  0  0  0  0  0  0  0
   -3.0121   19.0293  -32.0457 H   0  0  0  0  0  0  0  0  0  0  0  0
   -1.6110   19.2640  -33.1450 H   0  0  0  0  0  0  0  0  0  0  0  0
   -2.9610   20.4490  -33.1450 H   0  0  0  0  0  0  0  0  0  0  0  0
   -3.6212   19.2266  -34.9784 H   0  0  0  0  0  0  0  0  0  0  0  0
   -2.7609   17.7423  -34.4230 H   0  0  0  0  0  0  0  0  0  0  0  0
   -7.9439   18.2568  -33.5007 H   0  0  0  0  0  0  0  0  0  0  0  0
   -6.7743   17.9044  -32.1804 H   0  0  0  0  0  0  0  0  0  0  0  0
   -9.3293   19.9075  -32.4257 H   0  0  0  0  0  0  0  0  0  0  0  0
   -9.5630   22.2603  -31.5588 H   0  0  0  0  0  0  0  0  0  0  0  0
   -8.0487   24.5569  -30.7741 H   0  0  0  0  0  0  0  0  0  0  0  0
   -3.1110   25.2940  -30.3320 H   0  0  0  0  0  0  0  0  0  0  0  0
   -3.2364   21.4126  -29.4013 H   0  0  0  0  0  0  0  0  0  0  0  0
   -1.9105   22.5037  -28.8454 H   0  0  0  0  0  0  0  0  0  0  0  0
   -3.5679   22.9065  -27.2445 H   0  0  0  0  0  0  0  0  0  0  0  0
   -3.8722   24.2171  -28.4346 H   0  0  0  0  0  0  0  0  0  0  0  0
   -4.9038   22.7466  -28.4346 H   0  0  0  0  0  0  0  0  0  0  0  0
   -4.9936   20.3660  -32.4914 H   0  0  0  0  0  0  0  0  0  0  0  0
  1  2  1  0
  2  3  1  0
  3  4  1  0
  4  5  2  0
  4  6  1  0
  6  7  1  0
  7  8  2  0
  8  9  1  0
  9 10  2  0
 10 11  1  0
 11 12  2  0
 12 13  1  0
 13 14  1  0
 13 15  2  0
 12 16  1  0
 16 17  1  0
 17 18  2  0
 17 19  1  0
 19 20  1  0
 20 21  1  0
 16 22  1  0
 22 23  2  0
 23  7  1  0
 22 10  1  0
  1 24  1  0
  1 25  1  0
  1 26  1  0
  2 27  1  0
  2 28  1  0
  6 29  1  0
  6 30  1  0
  8 31  1  0
  9 32  1  0
 11 33  1  0
 14 34  1  0
 20 35  1  0
 20 36  1  0
 21 37  1  0
 21 38  1  0
 21 39  1  0
 23 40  1  0
M  CHG  1  14  -1
M  END
>  <UniqueID>  (6) 
6

>  <SMILES>  (6) 
CCOC(=O)Cc1ccc2cc(C([NH-])=O)n(C(=O)OCC)c2c1

>  <Energy>  (6) 
67.77714597634822

>  <Genealogy>  (6) 
CCOC(=O)Cc1ccc2cc(C([NH-])=O)n(C(=O)OCC)c2c1 (protonated)
CCOC(=O)Cc1ccc2cc(C([NH-])=O)n(C(=O)OCC)c2c1 (3D coordinates assigned)
CCOC(=O)Cc1ccc2cc(C([NH-])=O)n(C(=O)OCC)c2c1 (optimized conformer: 67.77714597634822 kcal/mol)

>  <smiles>  (6) 
CCOC(=O)Cc1ccc2cc(C(N)=O)n(C(=O)OCC)c2c1

>  <score_type>  (6) 
oracle

>  <origin>  (6) 
adg

>  <m_score__min__energy>  (6) 
-9.8200000000000003

>  <m_primary>  (6) 
energy

$$$$
6:0
     RDKit          3D

 53 56  0  0  0  0  0  0  0  0999 V2000
   -7.3590   22.1860  -30.4300 C   0  0  0  0  0  0  0  0  0  0  0  0
   -6.3500   23.2880  -30.8000 C   0  0  0  0  0  0  0  0  0  0  0  0
   -6.7610   24.5940  -30.1050 C   0  0  0  0  0  0  0  0  0  0  0  0
   -6.3290   23.5210  -32.3220 C   0  0  0  0  0  0  0  0  0  0  0  0
   -5.0390   22.9530  -30.3250 O   0  0  0  0  0  0  0  0  0  0  0  0
   -3.8520   23.6580  -30.5760 C   0  0  0  0  0  0  0  0  0  0  0  0
   -3.8690   24.8950  -30.8180 O   0  0  0  0  0  0  0  0  0  0  0  0
   -2.6000   22.9570  -30.5280 N   0  0  0  0  0  0  0  0  0  0  0  0
   -1.5480   23.1630  -29.6860 C   0  0  0  0  0  0  0  0  0  0  0  0
   -1.4440   24.2310  -28.6700 C   0  0  0  0  0  0  0  0  0  0  0  0
   -1.9410   25.5360  -28.9580 N   0  0  0  0  0  0  0  0  0  0  0  0
   -0.9530   23.9950  -27.5340 O   0  0  0  0  0  0  0  0  0  0  0  0
   -0.5150   22.2710  -29.9720 C   0  0  0  0  0  0  0  0  0  0  0  0
   -0.9660   21.5160  -31.0300 C   0  0  0  0  0  0  0  0  0  0  0  0
   -0.3430   20.4860  -31.7290 C   0  0  0  0  0  0  0  0  0  0  0  0
   -1.0540   19.8780  -32.7780 C   0  0  0  0  0  0  0  0  0  0  0  0
   -2.3680   20.2990  -33.1040 C   0  0  0  0  0  0  0  0  0  0  0  0
   -3.1260   19.6250  -34.2210 C   0  0  0  0  0  0  0  0  0  0  0  0
   -3.7730   18.3770  -33.7490 N   0  0  0  0  0  0  0  0  0  0  0  0
   -3.0620   17.1970  -33.7980 C   0  0  0  0  0  0  0  0  0  0  0  0
   -1.8730   17.1780  -34.2230 O   0  0  0  0  0  0  0  0  0  0  0  0
   -3.6240   16.0290  -33.3930 N   0  0  0  0  0  0  0  0  0  0  0  0
   -4.8970   15.9730  -32.9340 C   0  0  0  0  0  0  0  0  0  0  0  0
   -5.3750   14.8630  -32.5700 O   0  0  0  0  0  0  0  0  0  0  0  0
   -5.6650   17.1400  -32.8670 C   0  0  0  0  0  0  0  0  0  0  0  0
   -6.9920   17.1120  -32.3980 C   0  0  0  0  0  0  0  0  0  0  0  0
   -7.7450   18.2820  -32.3400 C   0  0  0  0  0  0  0  0  0  0  0  0
   -7.1840   19.4910  -32.7430 C   0  0  0  0  0  0  0  0  0  0  0  0
   -5.8690   19.5370  -33.2080 C   0  0  0  0  0  0  0  0  0  0  0  0
   -5.0780   18.3630  -33.2860 C   0  0  0  0  0  0  0  0  0  0  0  0
   -2.9720   21.3360  -32.3580 C   0  0  0  0  0  0  0  0  0  0  0  0
   -2.2290   21.9460  -31.3420 C   0  0  0  0  0  0  0  0  0  0  0  0
   -7.4310   22.1074  -29.3352 H   0  0  0  0  0  0  0  0  0  0  0  0
   -8.3459   22.4381  -30.8452 H   0  0  0  0  0  0  0  0  0  0  0  0
   -7.0211   21.2250  -30.8452 H   0  0  0  0  0  0  0  0  0  0  0  0
   -6.7182   24.4581  -29.0143 H   0  0  0  0  0  0  0  0  0  0  0  0
   -6.0729   25.3994  -30.4014 H   0  0  0  0  0  0  0  0  0  0  0  0
   -7.7863   24.8602  -30.4014 H   0  0  0  0  0  0  0  0  0  0  0  0
   -6.2320   24.5974  -32.5268 H   0  0  0  0  0  0  0  0  0  0  0  0
   -5.4755   22.9854  -32.7632 H   0  0  0  0  0  0  0  0  0  0  0  0
   -7.2645   23.1466  -32.7632 H   0  0  0  0  0  0  0  0  0  0  0  0
   -2.9100   25.6730  -29.3210 H   0  0  0  0  0  0  0  0  0  0  0  0
    0.4551   22.1885  -29.4601 H   0  0  0  0  0  0  0  0  0  0  0  0
    0.6742   20.1581  -31.4685 H   0  0  0  0  0  0  0  0  0  0  0  0
   -0.5853   19.0657  -33.3530 H   0  0  0  0  0  0  0  0  0  0  0  0
   -3.8996   20.3114  -34.5957 H   0  0  0  0  0  0  0  0  0  0  0  0
   -2.4158   19.3697  -35.0213 H   0  0  0  0  0  0  0  0  0  0  0  0
   -3.0610   15.1480  -33.4420 H   0  0  0  0  0  0  0  0  0  0  0  0
   -7.4372   16.1594  -32.0751 H   0  0  0  0  0  0  0  0  0  0  0  0
   -8.7826   18.2511  -31.9760 H   0  0  0  0  0  0  0  0  0  0  0  0
   -7.7801   20.4142  -32.6946 H   0  0  0  0  0  0  0  0  0  0  0  0
   -5.4389   20.5004  -33.5193 H   0  0  0  0  0  0  0  0  0  0  0  0
   -4.0025   21.6561  -32.5713 H   0  0  0  0  0  0  0  0  0  0  0  0
  1  2  1  0
  2  3  1  0
  2  4  1  0
  2  5  1  0
  5  6  1  0
  6  7  2  0
  6  8  1  0
  8  9  1  0
  9 10  1  0
 10 11  1  0
 10 12  2  0
  9 13  2  0
 13 14  1  0
 14 15  2  0
 15 16  1  0
 16 17  2  0
 17 18  1  0
 18 19  1  0
 19 20  1  0
 20 21  2  0
 20 22  1  0
 22 23  1  0
 23 24  2  0
 23 25  1  0
 25 26  2  0
 26 27  1  0
 27 28  2  0
 28 29  1  0
 29 30  2  0
 17 31  1  0
 31 32  2  0
 32  8  1  0
 32 14  1  0
 30 19  1  0
 30 25  1  0
  1 33  1  0
  1 34  1  0
  1 35  1  0
  3 36  1  0
  3 37  1  0
  3 38  1  0
  4 39  1  0
  4 40  1  0
  4 41  1  0
 11 42  1  0
 13 43  1  0
 15 44  1  0
 16 45  1  0
 18 46  1  0
 18 47  1  0
 22 48  1  0
 26 49  1  0
 27 50  1  0
 28 51  1  0
 29 52  1  0
 31 53  1  0
M  CHG  1  11  -1
M  END
>  <UniqueID>  (7) 
7

>  <SMILES>  (7) 
CC(C)(C)OC(=O)n1c(C([NH-])=O)cc2ccc(Cn3c(=O)[nH]c(=O)c4ccccc43)cc21

>  <Energy>  (7) 
101.48252859550975

>  <Genealogy>  (7) 
CC(C)(C)OC(=O)n1c(C([NH-])=O)cc2ccc(Cn3c(=O)[nH]c(=O)c4ccccc43)cc21 (protonated)
CC(C)(C)OC(=O)n1c(C([NH-])=O)cc2ccc(Cn3c(=O)[nH]c(=O)c4ccccc43)cc21 (3D coordinates assigned)
CC(C)(C)OC(=O)n1c(C([NH-])=O)cc2ccc(Cn3c(=O)[nH]c(=O)c4ccccc43)cc21 (optimized conformer: 101.48252859550975 kcal/mol)

>  <smiles>  (7) 
CC(C)(C)OC(=O)n1c(C(N)=O)cc2ccc(Cn3c(=O)[nH]c(=O)c4ccccc43)cc21

>  <score_type>  (7) 
oracle

>  <origin>  (7) 
adg

>  <m_score__min__energy>  (7) 
-12.15

>  <m_primary>  (7) 
energy

$$$$
7:0
     RDKit          3D

 61 63  0  0  0  0  0  0  0  0999 V2000
   -5.6000   19.6570  -31.8450 C   0  0  0  0  0  0  0  0  0  0  0  0
   -6.3350   20.9750  -31.9170 C   0  0  0  0  0  0  0  0  0  0  0  0
   -7.7220   21.0210  -31.6300 C   0  0  0  0  0  0  0  0  0  0  0  0
   -8.3930   19.8260  -31.3180 O   0  0  0  0  0  0  0  0  0  0  0  0
   -8.9230   18.8940  -32.2620 C   0  0  0  0  0  0  0  0  0  0  0  0
   -7.8860   18.3930  -33.0240 F   0  0  0  0  0  0  0  0  0  0  0  0
   -9.5390   17.8460  -31.6040 F   0  0  0  0  0  0  0  0  0  0  0  0
   -9.8250   19.5250  -33.1000 F   0  0  0  0  0  0  0  0  0  0  0  0
   -8.3930   22.2570  -31.6590 C   0  0  0  0  0  0  0  0  0  0  0  0
   -7.7070   23.4280  -31.9690 C   0  0  0  0  0  0  0  0  0  0  0  0
   -6.3470   23.3870  -32.2700 C   0  0  0  0  0  0  0  0  0  0  0  0
   -5.6520   22.1700  -32.2680 C   0  0  0  0  0  0  0  0  0  0  0  0
   -4.2120   22.1870  -32.6190 C   0  0  0  0  0  0  0  0  0  0  0  0
   -3.8580   22.3990  -33.8100 O   0  0  0  0  0  0  0  0  0  0  0  0
   -3.2090   21.9780  -31.6110 N   0  0  0  0  0  0  0  0  0  0  0  0
   -2.9420   22.7570  -30.5250 C   0  0  0  0  0  0  0  0  0  0  0  0
   -3.7570   23.8970  -30.0580 C   0  0  0  0  0  0  0  0  0  0  0  0
   -3.4980   25.2210  -30.5190 N   0  0  0  0  0  0  0  0  0  0  0  0
   -4.7210   23.6940  -29.2710 O   0  0  0  0  0  0  0  0  0  0  0  0
   -1.8130   22.2910  -29.8540 C   0  0  0  0  0  0  0  0  0  0  0  0
   -1.3940   21.1900  -30.5660 C   0  0  0  0  0  0  0  0  0  0  0  0
   -0.3130   20.3410  -30.3510 C   0  0  0  0  0  0  0  0  0  0  0  0
   -0.1140   19.2860  -31.2560 C   0  0  0  0  0  0  0  0  0  0  0  0
   -0.9830   19.1110  -32.3620 C   0  0  0  0  0  0  0  0  0  0  0  0
   -0.8290   17.9120  -33.2570 C   0  0  0  0  0  0  0  0  0  0  0  0
   -2.1070   17.1330  -33.2780 C   0  0  0  0  0  0  0  0  0  0  0  0
   -2.0980   15.9050  -32.9940 O   0  0  0  0  0  0  0  0  0  0  0  0
   -3.3340   17.7980  -33.5950 N   0  0  0  0  0  0  0  0  0  0  0  0
   -4.5010   17.1190  -34.1510 C   0  0  2  0  0  0  0  0  0  0  0  0
   -5.3470   18.1120  -34.9500 C   0  0  0  0  0  0  0  0  0  0  0  0
   -5.3210   16.4840  -33.0100 C   0  0  0  0  0  0  0  0  0  0  0  0
   -5.3320   15.0040  -33.0780 N   0  0  0  0  0  0  0  0  0  0  0  0
   -4.5950   14.4010  -31.9520 C   0  0  0  0  0  0  0  0  0  0  0  0
   -4.7270   14.5630  -34.3470 C   0  0  0  0  0  0  0  0  0  0  0  0
   -2.0640   19.9970  -32.5520 C   0  0  0  0  0  0  0  0  0  0  0  0
   -2.2510   21.0240  -31.6220 C   0  0  0  0  0  0  0  0  0  0  0  0
   -5.4457   19.3803  -30.7916 H   0  0  0  0  0  0  0  0  0  0  0  0
   -6.1940   18.8781  -32.3455 H   0  0  0  0  0  0  0  0  0  0  0  0
   -4.6252   19.7530  -32.3455 H   0  0  0  0  0  0  0  0  0  0  0  0
   -9.4691   22.2986  -31.4348 H   0  0  0  0  0  0  0  0  0  0  0  0
   -8.2408   24.3898  -31.9764 H   0  0  0  0  0  0  0  0  0  0  0  0
   -5.8140   24.3185  -32.5114 H   0  0  0  0  0  0  0  0  0  0  0  0
   -3.8510   26.0510  -29.9920 H   0  0  0  0  0  0  0  0  0  0  0  0
   -1.3541   22.7133  -28.9479 H   0  0  0  0  0  0  0  0  0  0  0  0
    0.3651   20.4916  -29.4981 H   0  0  0  0  0  0  0  0  0  0  0  0
    0.7237   18.5892  -31.1053 H   0  0  0  0  0  0  0  0  0  0  0  0
   -0.5867   18.2453  -34.2769 H   0  0  0  0  0  0  0  0  0  0  0  0
   -0.0185   17.2735  -32.8757 H   0  0  0  0  0  0  0  0  0  0  0  0
   -4.1757   16.3192  -34.8325 H   0  0  0  0  0  0  0  0  0  0  0  0
   -5.9011   18.7623  -34.2571 H   0  0  0  0  0  0  0  0  0  0  0  0
   -4.6905   18.7263  -35.5837 H   0  0  0  0  0  0  0  0  0  0  0  0
   -6.0578   17.5614  -35.5837 H   0  0  0  0  0  0  0  0  0  0  0  0
   -4.8839   16.7902  -32.0481 H   0  0  0  0  0  0  0  0  0  0  0  0
   -6.3597   16.8320  -33.1098 H   0  0  0  0  0  0  0  0  0  0  0  0
   -5.0246   14.7525  -31.0023 H   0  0  0  0  0  0  0  0  0  0  0  0
   -4.6740   13.3052  -32.0069 H   0  0  0  0  0  0  0  0  0  0  0  0
   -3.5366   14.6955  -32.0069 H   0  0  0  0  0  0  0  0  0  0  0  0
   -3.8546   13.9271  -34.1358 H   0  0  0  0  0  0  0  0  0  0  0  0
   -5.4664   13.9905  -34.9263 H   0  0  0  0  0  0  0  0  0  0  0  0
   -4.4083   15.4421  -34.9263 H   0  0  0  0  0  0  0  0  0  0  0  0
   -2.7427   19.8828  -33.4101 H   0  0  0  0  0  0  0  0  0  0  0  0
  1  2  1  0
  2  3  2  0
  3  4  1  0
  4  5  1  0
  5  6  1  0
  5  7  1  0
  5  8  1  0
  3  9  1  0
  9 10  2  0
 10 11  1  0
 11 12  2  0
 12 13  1  0
 13 14  2  0
 13 15  1  0
 15 16  1  0
 16 17  1  0
 17 18  1  0
 17 19  2  0
 16 20  2  0
 20 21  1  0
 21 22  2  0
 22 23  1  0
 23 24  2  0
 24 25  1  0
 25 26  1  0
 26 27  2  0
 26 28  1  0
 28 29  1  0
 29 30  1  0
 29 31  1  0
 31 32  1  0
 32 33  1  0
 32 34  1  0
 24 35  1  0
 35 36  2  0
 12  2  1  0
 36 15  1  0
 36 21  1  0
  1 37  1  0
  1 38  1  0
  1 39  1  0
  9 40  1  0
 10 41  1  0
 11 42  1  0
 18 43  1  0
 20 44  1  0
 22 45  1  0
 23 46  1  0
 25 47  1  0
 25 48  1  0
 29 49  1  6
 30 50  1  0
 30 51  1  0
 30 52  1  0
 31 53  1  0
 31 54  1  0
 33 55  1  0
 33 56  1  0
 33 57  1  0
 34 58  1  0
 34 59  1  0
 34 60  1  0
 35 61  1  0
M  CHG  2  18  -1  28  -1
M  END
>  <UniqueID>  (8) 
8

>  <SMILES>  (8) 
Cc1c(OC(F)(F)F)cccc1C(=O)n1c(C([NH-])=O)cc2ccc(CC(=O)[N-][C@H](C)CN(C)C)cc21

>  <Energy>  (8) 
97.92459056161756

>  <Genealogy>  (8) 
Cc1c(OC(F)(F)F)cccc1C(=O)n1c(C([NH-])=O)cc2ccc(CC(=O)[N-]C(C)CN(C)C)cc21 (protonated)
Cc1c(OC(F)(F)F)cccc1C(=O)n1c(C([NH-])=O)cc2ccc(CC(=O)[N-][C@H](C)CN(C)C)cc21 (chirality)
Cc1c(OC(F)(F)F)cccc1C(=O)n1c(C([NH-])=O)cc2ccc(CC(=O)[N-][C@H](C)CN(C)C)cc21 (3D coordinates assigned)
Cc1c(OC(F)(F)F)cccc1C(=O)n1c(C([NH-])=O)cc2ccc(CC(=O)[N-][C@H](C)CN(C)C)cc21 (optimized conformer: 97.92459056161756 kcal/mol)

>  <smiles>  (8) 
Cc1c(OC(F)(F)F)cccc1C(=O)n1c(C(N)=O)cc2ccc(CC(=O)NC(C)CN(C)C)cc21

>  <score_type>  (8) 
oracle

>  <origin>  (8) 
adg

>  <m_score__min__energy>  (8) 
-11.41

>  <m_primary>  (8) 
energy

$$$$
8:0
     RDKit          3D

 48 49  0  0  0  0  0  0  0  0999 V2000
   -8.7120   20.3430  -32.0330 C   0  0  0  0  0  0  0  0  0  0  0  0
   -7.6840   19.7080  -32.6080 C   0  0  0  0  0  0  0  0  0  0  0  0
   -6.4600   20.4370  -33.1000 C   0  0  0  0  0  0  0  0  0  0  0  0
   -5.1750   19.5660  -33.1440 C   0  0  2  0  0  0  0  0  0  0  0  0
   -5.4910   18.1400  -32.7120 C   0  0  0  0  0  0  0  0  0  0  0  0
   -5.7400   17.1400  -33.5700 C   0  0  0  0  0  0  0  0  0  0  0  0
   -3.9630   20.1960  -32.4470 C   0  0  0  0  0  0  0  0  0  0  0  0
   -2.6760   19.5810  -32.4550 C   0  0  0  0  0  0  0  0  0  0  0  0
   -1.5770   20.1870  -31.8250 C   0  0  0  0  0  0  0  0  0  0  0  0
   -1.7760   21.4120  -31.2010 C   0  0  0  0  0  0  0  0  0  0  0  0
   -0.8900   22.2060  -30.5110 C   0  0  0  0  0  0  0  0  0  0  0  0
   -1.6320   23.3080  -30.0920 C   0  0  0  0  0  0  0  0  0  0  0  0
   -1.0830   24.3570  -29.2110 C   0  0  0  0  0  0  0  0  0  0  0  0
   -1.7990   25.5690  -28.9820 N   0  0  0  0  0  0  0  0  0  0  0  0
    0.0050   24.1560  -28.6050 O   0  0  0  0  0  0  0  0  0  0  0  0
   -2.9210   23.2130  -30.5290 N   0  0  0  0  0  0  0  0  0  0  0  0
   -3.9910   24.1580  -30.3490 C   0  0  0  0  0  0  0  0  0  0  0  0
   -3.8600   25.3430  -30.7630 O   0  0  0  0  0  0  0  0  0  0  0  0
   -5.1770   23.7480  -29.7200 O   0  0  0  0  0  0  0  0  0  0  0  0
   -6.5170   23.9310  -30.2060 C   0  0  0  0  0  0  0  0  0  0  0  0
   -7.0870   25.2910  -29.7440 C   0  0  0  0  0  0  0  0  0  0  0  0
   -7.4210   22.7720  -29.7430 C   0  0  0  0  0  0  0  0  0  0  0  0
   -6.4430   23.9250  -31.7430 C   0  0  0  0  0  0  0  0  0  0  0  0
   -2.9900   22.0420  -31.2060 C   0  0  0  0  0  0  0  0  0  0  0  0
   -4.0860   21.4840  -31.8710 C   0  0  0  0  0  0  0  0  0  0  0  0
   -9.5870   19.7728  -31.6877 H   0  0  0  0  0  0  0  0  0  0  0  0
   -8.6821   21.4352  -31.9057 H   0  0  0  0  0  0  0  0  0  0  0  0
   -7.7340   18.6155  -32.7257 H   0  0  0  0  0  0  0  0  0  0  0  0
   -6.6627   20.8043  -34.1168 H   0  0  0  0  0  0  0  0  0  0  0  0
   -6.2668   21.2494  -32.3840 H   0  0  0  0  0  0  0  0  0  0  0  0
   -4.8410   19.5176  -34.1909 H   0  0  0  0  0  0  0  0  0  0  0  0
   -5.5164   17.9178  -31.6350 H   0  0  0  0  0  0  0  0  0  0  0  0
   -5.9617   16.1317  -33.1901 H   0  0  0  0  0  0  0  0  0  0  0  0
   -5.7226   17.3279  -34.6537 H   0  0  0  0  0  0  0  0  0  0  0  0
   -2.5420   18.6149  -32.9637 H   0  0  0  0  0  0  0  0  0  0  0  0
   -0.5878   19.7059  -31.8256 H   0  0  0  0  0  0  0  0  0  0  0  0
    0.1773   22.0121  -30.3288 H   0  0  0  0  0  0  0  0  0  0  0  0
   -2.7930   25.6740  -29.2890 H   0  0  0  0  0  0  0  0  0  0  0  0
   -7.1024   25.3277  -28.6447 H   0  0  0  0  0  0  0  0  0  0  0  0
   -6.4538   26.1039  -30.1292 H   0  0  0  0  0  0  0  0  0  0  0  0
   -8.1105   25.4095  -30.1292 H   0  0  0  0  0  0  0  0  0  0  0  0
   -7.4445   22.7419  -28.6437 H   0  0  0  0  0  0  0  0  0  0  0  0
   -8.4401   22.9258  -30.1274 H   0  0  0  0  0  0  0  0  0  0  0  0
   -7.0237   21.8210  -30.1274 H   0  0  0  0  0  0  0  0  0  0  0  0
   -5.3929   23.8398  -32.0592 H   0  0  0  0  0  0  0  0  0  0  0  0
   -7.0142   23.0702  -32.1343 H   0  0  0  0  0  0  0  0  0  0  0  0
   -6.8690   24.8606  -32.1343 H   0  0  0  0  0  0  0  0  0  0  0  0
   -5.0328   22.0389  -31.9460 H   0  0  0  0  0  0  0  0  0  0  0  0
  1  2  2  0
  2  3  1  0
  3  4  1  0
  4  5  1  0
  5  6  2  0
  4  7  1  0
  7  8  2  0
  8  9  1  0
  9 10  2  0
 10 11  1  0
 11 12  2  0
 12 13  1  0
 13 14  1  0
 13 15  2  0
 12 16  1  0
 16 17  1  0
 17 18  2  0
 17 19  1  0
 19 20  1  0
 20 21  1  0
 20 22  1  0
 20 23  1  0
 16 24  1  0
 24 25  2  0
 25  7  1  0
 24 10  1  0
  1 26  1  0
  1 27  1  0
  2 28  1  0
  3 29  1  0
  3 30  1  0
  4 31  1  6
  5 32  1  0
  6 33  1  0
  6 34  1  0
  8 35  1  0
  9 36  1  0
 11 37  1  0
 14 38  1  0
 21 39  1  0
 21 40  1  0
 21 41  1  0
 22 42  1  0
 22 43  1  0
 22 44  1  0
 23 45  1  0
 23 46  1  0
 23 47  1  0
 25 48  1  0
M  CHG  1  14  -1
M  END
>  <UniqueID>  (9) 
9

>  <SMILES>  (9) 
C=CC[C@H](C=C)c1ccc2cc(C([NH-])=O)n(C(=O)OC(C)(C)C)c2c1

>  <Energy>  (9) 
83.22576885857553

>  <Genealogy>  (9) 
C=CCC(C=C)c1ccc2cc(C([NH-])=O)n(C(=O)OC(C)(C)C)c2c1 (protonated)
C=CC[C@H](C=C)c1ccc2cc(C([NH-])=O)n(C(=O)OC(C)(C)C)c2c1 (chirality)
C=CC[C@H](C=C)c1ccc2cc(C([NH-])=O)n(C(=O)OC(C)(C)C)c2c1 (3D coordinates assigned)
C=CC[C@H](C=C)c1ccc2cc(C([NH-])=O)n(C(=O)OC(C)(C)C)c2c1 (optimized conformer: 83.22576885857553 kcal/mol)

>  <smiles>  (9) 
C=CCC(C=C)c1ccc2cc(C(N)=O)n(C(=O)OC(C)(C)C)c2c1

>  <score_type>  (9) 
oracle

>  <origin>  (9) 
adg

>  <m_score__min__energy>  (9) 
-10.91

>  <m_primary>  (9) 
energy

$$$$
9:0
     RDKit          3D

 55 57  0  0  0  0  0  0  0  0999 V2000
   -2.7940   15.7030  -35.2780 C   0  0  0  0  0  0  0  0  0  0  0  0
   -3.5280   16.1330  -34.0720 N   0  0  2  0  0  0  0  0  0  0  0  0
   -4.8620   15.4860  -34.0460 C   0  0  0  0  0  0  0  0  0  0  0  0
   -5.7600   15.9730  -32.8950 C   0  0  0  0  0  0  0  0  0  0  0  0
   -6.6890   17.1590  -33.2370 C   0  0  0  0  0  0  0  0  0  0  0  0
   -5.9500   18.3580  -33.6730 N   0  0  0  0  0  0  0  0  0  0  0  0
   -6.2640   19.6320  -33.0820 C   0  0  0  0  0  0  0  0  0  0  0  0
   -7.6140   20.0380  -32.9370 C   0  0  0  0  0  0  0  0  0  0  0  0
   -7.9320   21.2740  -32.3490 C   0  0  0  0  0  0  0  0  0  0  0  0
   -6.8820   22.0830  -31.9230 C   0  0  0  0  0  0  0  0  0  0  0  0
   -6.9050   23.3070  -31.2940 C   0  0  0  0  0  0  0  0  0  0  0  0
   -5.5680   23.6400  -31.0820 C   0  0  0  0  0  0  0  0  0  0  0  0
   -5.1330   24.9240  -30.4960 C   0  0  0  0  0  0  0  0  0  0  0  0
   -3.7580   25.3010  -30.4880 N   0  0  0  0  0  0  0  0  0  0  0  0
   -5.9920   25.7220  -30.0340 O   0  0  0  0  0  0  0  0  0  0  0  0
   -4.7510   22.6570  -31.5570 N   0  0  0  0  0  0  0  0  0  0  0  0
   -3.3210   22.5700  -31.4600 C   0  0  0  0  0  0  0  0  0  0  0  0
   -2.7540   22.8040  -30.3600 O   0  0  0  0  0  0  0  0  0  0  0  0
   -2.5790   22.1950  -32.5910 O   0  0  0  0  0  0  0  0  0  0  0  0
   -1.8090   20.9960  -32.7440 C   0  0  0  0  0  0  0  0  0  0  0  0
   -1.9960   20.4090  -34.1570 C   0  0  0  0  0  0  0  0  0  0  0  0
   -2.1930   19.9620  -31.6690 C   0  0  0  0  0  0  0  0  0  0  0  0
   -0.3330   21.3810  -32.5590 C   0  0  0  0  0  0  0  0  0  0  0  0
   -5.5710   21.7130  -32.0710 C   0  0  0  0  0  0  0  0  0  0  0  0
   -5.2260   20.4810  -32.6380 C   0  0  0  0  0  0  0  0  0  0  0  0
   -4.8000   18.2770  -34.5930 C   0  0  0  0  0  0  0  0  0  0  0  0
   -3.5520   17.6170  -33.9690 C   0  0  0  0  0  0  0  0  0  0  0  0
   -1.8804   15.1678  -34.9798 H   0  0  0  0  0  0  0  0  0  0  0  0
   -3.4312   15.0354  -35.8765 H   0  0  0  0  0  0  0  0  0  0  0  0
   -2.5233   16.5853  -35.8765 H   0  0  0  0  0  0  0  0  0  0  0  0
   -2.9880   15.7730  -33.2500 H   0  0  0  0  0  0  0  0  0  0  0  0
   -5.3705   15.6989  -34.9979 H   0  0  0  0  0  0  0  0  0  0  0  0
   -4.6957   14.4095  -33.8925 H   0  0  0  0  0  0  0  0  0  0  0  0
   -6.3897   15.1296  -32.5754 H   0  0  0  0  0  0  0  0  0  0  0  0
   -5.0788   16.3370  -32.1117 H   0  0  0  0  0  0  0  0  0  0  0  0
   -7.3679   16.8514  -34.0460 H   0  0  0  0  0  0  0  0  0  0  0  0
   -7.2379   17.4238  -32.3212 H   0  0  0  0  0  0  0  0  0  0  0  0
   -8.4214   19.3787  -33.2884 H   0  0  0  0  0  0  0  0  0  0  0  0
   -8.9780   21.5925  -32.2290 H   0  0  0  0  0  0  0  0  0  0  0  0
   -7.7908   23.8975  -31.0172 H   0  0  0  0  0  0  0  0  0  0  0  0
   -3.0640   24.8150  -31.0980 H   0  0  0  0  0  0  0  0  0  0  0  0
   -2.3290   19.3636  -34.0786 H   0  0  0  0  0  0  0  0  0  0  0  0
   -2.7520   20.9949  -34.7004 H   0  0  0  0  0  0  0  0  0  0  0  0
   -1.0404   20.4497  -34.7004 H   0  0  0  0  0  0  0  0  0  0  0  0
   -2.0324   20.3944  -30.6704 H   0  0  0  0  0  0  0  0  0  0  0  0
   -3.2524   19.6892  -31.7844 H   0  0  0  0  0  0  0  0  0  0  0  0
   -1.5685   19.0639  -31.7844 H   0  0  0  0  0  0  0  0  0  0  0  0
   -0.1016   21.4414  -31.4853 H   0  0  0  0  0  0  0  0  0  0  0  0
    0.3063   20.6196  -33.0296 H   0  0  0  0  0  0  0  0  0  0  0  0
   -0.1471   22.3577  -33.0296 H   0  0  0  0  0  0  0  0  0  0  0  0
   -4.1722   20.1810  -32.7356 H   0  0  0  0  0  0  0  0  0  0  0  0
   -5.1001   17.6896  -35.4733 H   0  0  0  0  0  0  0  0  0  0  0  0
   -4.5222   19.3093  -34.8523 H   0  0  0  0  0  0  0  0  0  0  0  0
   -2.6615   18.0122  -34.4798 H   0  0  0  0  0  0  0  0  0  0  0  0
   -3.5716   17.8580  -32.8959 H   0  0  0  0  0  0  0  0  0  0  0  0
  1  2  1  0
  2  3  1  0
  3  4  1  0
  4  5  1  0
  5  6  1  0
  6  7  1  0
  7  8  2  0
  8  9  1  0
  9 10  2  0
 10 11  1  0
 11 12  2  0
 12 13  1  0
 13 14  1  0
 13 15  2  0
 12 16  1  0
 16 17  1  0
 17 18  2  0
 17 19  1  0
 19 20  1  0
 20 21  1  0
 20 22  1  0
 20 23  1  0
 16 24  1  0
 24 25  2  0
  6 26  1  0
 26 27  1  0
 27  2  1  0
 25  7  1  0
 24 10  1  0
  1 28  1  0
  1 29  1  0
  1 30  1  0
  2 31  1  1
  3 32  1  0
  3 33  1  0
  4 34  1  0
  4 35  1  0
  5 36  1  0
  5 37  1  0
  8 38  1  0
  9 39  1  0
 11 40  1  0
 14 41  1  0
 21 42  1  0
 21 43  1  0
 21 44  1  0
 22 45  1  0
 22 46  1  0
 22 47  1  0
 23 48  1  0
 23 49  1  0
 23 50  1  0
 25 51  1  0
 26 52  1  0
 26 53  1  0
 27 54  1  0
 27 55  1  0
M  CHG  2   2   1  14  -1
M  END
>  <UniqueID>  (10) 
10

>  <SMILES>  (10) 
C[N@@H+]1CCCN(c2ccc3cc(C([NH-])=O)n(C(=O)OC(C)(C)C)c3c2)CC1

>  <Energy>  (10) 
105.54045329536754

>  <Genealogy>  (10) 
C[NH+]1CCCN(c2ccc3cc(C([NH-])=O)n(C(=O)OC(C)(C)C)c3c2)CC1 (protonated)
C[N@@H+]1CCCN(c2ccc3cc(C([NH-])=O)n(C(=O)OC(C)(C)C)c3c2)CC1 (chirality)
C[N@@H+]1CCCN(c2ccc3cc(C([NH-])=O)n(C(=O)OC(C)(C)C)c3c2)CC1 (3D coordinates assigned)
C[N@@H+]1CCCN(c2ccc3cc(C([NH-])=O)n(C(=O)OC(C)(C)C)c3c2)CC1 (nonaromatic ring conformer: 105.54045329536754 kcal/mol)

>  <smiles>  (10) 
CN1CCCN(c2ccc3cc(C(N)=O)n(C(=O)OC(C)(C)C)c3c2)CC1

>  <score_type>  (10) 
oracle

>  <origin>  (10) 
adg

>  <m_score__min__energy>  (10) 
-8.1600000000000001

>  <m_primary>  (10) 
energy

$$$$
10:0
     RDKit          3D

 54 56  0  0  0  0  0  0  0  0999 V2000
   -2.4910   20.1270  -33.8420 C   0  0  0  0  0  0  0  0  0  0  0  0
   -2.0370   20.9260  -32.6060 C   0  0  0  0  0  0  0  0  0  0  0  0
   -2.2770   20.1180  -31.3170 C   0  0  0  0  0  0  0  0  0  0  0  0
   -0.5360   21.2250  -32.7310 C   0  0  0  0  0  0  0  0  0  0  0  0
   -2.7150   22.1880  -32.5430 O   0  0  0  0  0  0  0  0  0  0  0  0
   -3.3920   22.7160  -31.4340 C   0  0  0  0  0  0  0  0  0  0  0  0
   -2.7590   23.1490  -30.4340 O   0  0  0  0  0  0  0  0  0  0  0  0
   -4.8270   22.7890  -31.4550 N   0  0  0  0  0  0  0  0  0  0  0  0
   -5.6200   23.8380  -31.0960 C   0  0  0  0  0  0  0  0  0  0  0  0
   -5.1650   25.0960  -30.4680 C   0  0  0  0  0  0  0  0  0  0  0  0
   -3.9120   25.6640  -30.8440 N   0  0  0  0  0  0  0  0  0  0  0  0
   -5.8860   25.6950  -29.6260 O   0  0  0  0  0  0  0  0  0  0  0  0
   -6.9610   23.5350  -31.3220 C   0  0  0  0  0  0  0  0  0  0  0  0
   -6.9650   22.2550  -31.8300 C   0  0  0  0  0  0  0  0  0  0  0  0
   -8.0290   21.4550  -32.2340 C   0  0  0  0  0  0  0  0  0  0  0  0
   -7.7380   20.1770  -32.7410 C   0  0  0  0  0  0  0  0  0  0  0  0
   -6.3960   19.7240  -32.8520 C   0  0  0  0  0  0  0  0  0  0  0  0
   -6.1210   18.3710  -33.4000 C   0  0  0  0  0  0  0  0  0  0  0  0
   -7.0650   17.3340  -33.3270 C   0  0  0  0  0  0  0  0  0  0  0  0
   -6.7350   16.0890  -33.8590 C   0  0  0  0  0  0  0  0  0  0  0  0
   -5.5180   15.8940  -34.4260 N   0  0  0  0  0  0  0  0  0  0  0  0
   -4.6020   16.8960  -34.4860 C   0  0  0  0  0  0  0  0  0  0  0  0
   -3.3240   16.6480  -35.0930 N   0  0  0  0  0  0  0  0  0  0  0  0
   -2.0680   16.7100  -34.3910 C   0  0  0  0  0  0  0  0  0  0  0  0
   -2.0450   16.8630  -33.1400 O   0  0  0  0  0  0  0  0  0  0  0  0
   -0.8190   16.5750  -35.0830 N   0  0  0  0  0  0  0  0  0  0  0  0
   -0.1190   17.6390  -35.7950 C   0  0  0  0  0  0  0  0  0  0  0  0
    0.4250   18.6780  -34.8160 C   0  0  0  0  0  0  0  0  0  0  0  0
    0.5840   18.0910  -33.5540 O   0  0  0  0  0  0  0  0  0  0  0  0
   -4.9130   18.1180  -33.9740 N   0  0  0  0  0  0  0  0  0  0  0  0
   -5.3440   20.5680  -32.4200 C   0  0  0  0  0  0  0  0  0  0  0  0
   -5.6650   21.8290  -31.9020 C   0  0  0  0  0  0  0  0  0  0  0  0
   -3.0102   19.2132  -33.5175 H   0  0  0  0  0  0  0  0  0  0  0  0
   -3.1744   20.7423  -34.4456 H   0  0  0  0  0  0  0  0  0  0  0  0
   -1.6126   19.8549  -34.4456 H   0  0  0  0  0  0  0  0  0  0  0  0
   -2.0870   20.7577  -30.4425 H   0  0  0  0  0  0  0  0  0  0  0  0
   -3.3187   19.7653  -31.2939 H   0  0  0  0  0  0  0  0  0  0  0  0
   -1.5967   19.2539  -31.2939 H   0  0  0  0  0  0  0  0  0  0  0  0
   -0.0948   21.3129  -31.7272 H   0  0  0  0  0  0  0  0  0  0  0  0
   -0.0435   20.4073  -33.2777 H   0  0  0  0  0  0  0  0  0  0  0  0
   -0.3945   22.1690  -33.2777 H   0  0  0  0  0  0  0  0  0  0  0  0
   -3.0170   25.2960  -30.4520 H   0  0  0  0  0  0  0  0  0  0  0  0
   -7.8315   24.1809  -31.1345 H   0  0  0  0  0  0  0  0  0  0  0  0
   -9.0668   21.8120  -32.1589 H   0  0  0  0  0  0  0  0  0  0  0  0
   -8.5606   19.5183  -33.0563 H   0  0  0  0  0  0  0  0  0  0  0  0
   -8.0462   17.5012  -32.8588 H   0  0  0  0  0  0  0  0  0  0  0  0
   -7.4615   15.2640  -33.8192 H   0  0  0  0  0  0  0  0  0  0  0  0
   -3.3270   16.3980  -36.1050 H   0  0  0  0  0  0  0  0  0  0  0  0
    0.7176   17.2043  -36.3617 H   0  0  0  0  0  0  0  0  0  0  0  0
   -0.8269   18.1328  -36.4770 H   0  0  0  0  0  0  0  0  0  0  0  0
    1.3976   19.0460  -35.1746 H   0  0  0  0  0  0  0  0  0  0  0  0
   -0.2806   19.5188  -34.7435 H   0  0  0  0  0  0  0  0  0  0  0  0
    0.0270   17.2680  -33.5600 H   0  0  0  0  0  0  0  0  0  0  0  0
   -4.2964   20.2399  -32.4899 H   0  0  0  0  0  0  0  0  0  0  0  0
  1  2  1  0
  2  3  1  0
  2  4  1  0
  2  5  1  0
  5  6  1  0
  6  7  2  0
  6  8  1  0
  8  9  1  0
  9 10  1  0
 10 11  1  0
 10 12  2  0
  9 13  2  0
 13 14  1  0
 14 15  2  0
 15 16  1  0
 16 17  2  0
 17 18  1  0
 18 19  2  0
 19 20  1  0
 20 21  2  0
 21 22  1  0
 22 23  1  0
 23 24  1  0
 24 25  2  0
 24 26  1  0
 26 27  1  0
 27 28  1  0
 28 29  1  0
 22 30  2  0
 17 31  1  0
 31 32  2  0
 32  8  1  0
 32 14  1  0
 30 18  1  0
  1 33  1  0
  1 34  1  0
  1 35  1  0
  3 36  1  0
  3 37  1  0
  3 38  1  0
  4 39  1  0
  4 40  1  0
  4 41  1  0
 11 42  1  0
 13 43  1  0
 15 44  1  0
 16 45  1  0
 19 46  1  0
 20 47  1  0
 23 48  1  0
 27 49  1  0
 27 50  1  0
 28 51  1  0
 28 52  1  0
 29 53  1  0
 31 54  1  0
M  CHG  2  11  -1  26  -1
M  END
>  <UniqueID>  (11) 
11

>  <SMILES>  (11) 
CC(C)(C)OC(=O)n1c(C([NH-])=O)cc2ccc(-c3ccnc(NC(=O)[N-]CCO)n3)cc21

>  <Energy>  (11) 
90.51004889564128

>  <Genealogy>  (11) 
CC(C)(C)OC(=O)n1c(C([NH-])=O)cc2ccc(-c3ccnc(NC(=O)[N-]CCO)n3)cc21 (protonated)
CC(C)(C)OC(=O)n1c(C([NH-])=O)cc2ccc(-c3ccnc(NC(=O)[N-]CCO)n3)cc21 (3D coordinates assigned)
CC(C)(C)OC(=O)n1c(C([NH-])=O)cc2ccc(-c3ccnc(NC(=O)[N-]CCO)n3)cc21 (optimized conformer: 90.51004889564128 kcal/mol)

>  <smiles>  (11) 
CC(C)(C)OC(=O)n1c(C(N)=O)cc2ccc(-c3ccnc(NC(=O)NCCO)n3)cc21

>  <score_type>  (11) 
oracle

>  <origin>  (11) 
adg

>  <m_score__min__energy>  (11) 
-10.35

>  <m_primary>  (11) 
energy

$$$$
11:0
     RDKit          3D

 74 80  0  0  0  0  0  0  0  0999 V2000
   -1.0490   12.2790  -35.3980 C   0  0  0  0  0  0  0  0  0  0  0  0
   -1.1690   13.4740  -35.5560 C   0  0  0  0  0  0  0  0  0  0  0  0
   -1.2530   14.9680  -35.8300 C   0  0  2  0  0  0  0  0  0  0  0  0
   -1.7170   14.8350  -37.2850 C   0  0  0  0  0  0  0  0  0  0  0  0
   -3.1230   14.4410  -37.3210 O   0  0  0  0  0  0  0  0  0  0  0  0
   -3.8260   14.1460  -36.0590 C   0  0  0  0  0  0  0  0  0  0  0  0
   -3.4410   15.0270  -34.7610 C   0  0  2  0  0  0  0  0  0  0  0  0
   -2.8130   14.2600  -33.5040 C   0  0  0  0  0  0  0  0  0  0  0  0
   -1.4640   14.8180  -32.8080 C   0  0  1  0  0  0  0  0  0  0  0  0
   -1.2580   13.9800  -31.5230 C   0  0  0  0  0  0  0  0  0  0  0  0
   -0.0100   15.1290  -33.5650 C   0  0  2  0  0  0  0  0  0  0  0  0
    0.8850   13.9550  -33.3560 C   0  0  0  0  0  0  0  0  0  0  0  0
    1.5820   13.0440  -33.1980 N   0  0  0  0  0  0  0  0  0  0  0  0
    0.5790   16.3340  -32.8120 C   0  0  0  0  0  0  0  0  0  0  0  0
    1.8490   16.4590  -32.3970 C   0  0  0  0  0  0  0  0  0  0  0  0
    0.0710   15.4250  -35.1890 C   0  0  2  0  0  0  0  0  0  0  0  0
    0.6840   16.7690  -35.6330 C   0  0  0  0  0  0  0  0  0  0  0  0
    1.7700   16.7180  -36.5530 C   0  0  0  0  0  0  0  0  0  0  0  0
    2.4000   17.8850  -37.0070 C   0  0  0  0  0  0  0  0  0  0  0  0
    1.9140   19.1040  -36.5570 C   0  0  0  0  0  0  0  0  0  0  0  0
    2.3550   20.3760  -36.8280 C   0  0  0  0  0  0  0  0  0  0  0  0
    1.5170   21.2120  -36.1020 C   0  0  0  0  0  0  0  0  0  0  0  0
    1.6630   22.6770  -36.0980 C   0  0  0  0  0  0  0  0  0  0  0  0
    0.5140   23.5250  -36.0990 N   0  0  0  0  0  0  0  0  0  0  0  0
    2.8110   23.1860  -36.0120 O   0  0  0  0  0  0  0  0  0  0  0  0
    0.5690   20.4970  -35.4280 N   0  0  0  0  0  0  0  0  0  0  0  0
   -0.5660   21.0180  -34.7020 C   0  0  0  0  0  0  0  0  0  0  0  0
   -0.5050   22.1380  -34.1320 O   0  0  0  0  0  0  0  0  0  0  0  0
   -1.7680   20.3220  -34.6650 O   0  0  0  0  0  0  0  0  0  0  0  0
    0.8410   19.1970  -35.7090 C   0  0  0  0  0  0  0  0  0  0  0  0
    0.2050   18.0430  -35.2300 C   0  0  0  0  0  0  0  0  0  0  0  0
   -4.6180   15.8710  -34.2700 C   0  0  0  0  0  0  0  0  0  0  0  0
   -5.8530   15.2570  -34.0040 C   0  0  0  0  0  0  0  0  0  0  0  0
   -6.9230   15.9930  -33.5070 C   0  0  0  0  0  0  0  0  0  0  0  0
   -6.7850   17.3600  -33.2520 C   0  0  0  0  0  0  0  0  0  0  0  0
   -7.8800   18.0970  -32.7740 C   0  0  0  0  0  0  0  0  0  0  0  0
   -7.7540   19.4640  -32.5250 C   0  0  0  0  0  0  0  0  0  0  0  0
   -6.5390   20.1070  -32.7530 C   0  0  0  0  0  0  0  0  0  0  0  0
   -5.4380   19.3880  -33.2240 C   0  0  0  0  0  0  0  0  0  0  0  0
   -5.5370   18.0010  -33.4750 C   0  0  0  0  0  0  0  0  0  0  0  0
   -4.4340   17.2370  -33.9420 C   0  0  0  0  0  0  0  0  0  0  0  0
   -3.0640   17.8680  -34.1540 C   0  0  0  0  0  0  0  0  0  0  0  0
   -2.0260   16.9220  -34.3530 O   0  0  0  0  0  0  0  0  0  0  0  0
   -2.4040   15.9280  -35.2920 C   0  0  1  0  0  0  0  0  0  0  0  0
   -0.9400   11.1939  -35.2545 H   0  0  0  0  0  0  0  0  0  0  0  0
   -1.5950   15.8009  -37.7971 H   0  0  0  0  0  0  0  0  0  0  0  0
   -1.1116   14.0686  -37.7911 H   0  0  0  0  0  0  0  0  0  0  0  0
   -4.9018   14.2840  -36.2423 H   0  0  0  0  0  0  0  0  0  0  0  0
   -3.5170   13.1222  -35.8015 H   0  0  0  0  0  0  0  0  0  0  0  0
   -3.5883   14.2408  -32.7239 H   0  0  0  0  0  0  0  0  0  0  0  0
   -2.4984   13.2949  -33.9279 H   0  0  0  0  0  0  0  0  0  0  0  0
   -1.7235   15.8838  -32.7260 H   0  0  0  0  0  0  0  0  0  0  0  0
   -1.4147   14.6176  -30.6404 H   0  0  0  0  0  0  0  0  0  0  0  0
   -1.9786   13.1491  -31.5077 H   0  0  0  0  0  0  0  0  0  0  0  0
   -0.2343   13.5779  -31.5077 H   0  0  0  0  0  0  0  0  0  0  0  0
   -0.1028   17.1692  -32.5939 H   0  0  0  0  0  0  0  0  0  0  0  0
    2.1667   17.3676  -31.8645 H   0  0  0  0  0  0  0  0  0  0  0  0
    2.5723   15.6529  -32.5893 H   0  0  0  0  0  0  0  0  0  0  0  0
    0.8699   14.8068  -35.6245 H   0  0  0  0  0  0  0  0  0  0  0  0
    2.1223   15.7410  -36.9154 H   0  0  0  0  0  0  0  0  0  0  0  0
    3.2537   17.8357  -37.6990 H   0  0  0  0  0  0  0  0  0  0  0  0
    3.1914   20.6693  -37.4795 H   0  0  0  0  0  0  0  0  0  0  0  0
    0.6260   24.5630  -36.0970 H   0  0  0  0  0  0  0  0  0  0  0  0
   -0.4470   23.1200  -36.0460 H   0  0  0  0  0  0  0  0  0  0  0  0
   -0.6555   18.1239  -34.5496 H   0  0  0  0  0  0  0  0  0  0  0  0
   -5.9753   14.1800  -34.1913 H   0  0  0  0  0  0  0  0  0  0  0  0
   -7.8848   15.4957  -33.3132 H   0  0  0  0  0  0  0  0  0  0  0  0
   -8.8419   17.5944  -32.5949 H   0  0  0  0  0  0  0  0  0  0  0  0
   -8.6152   20.0351  -32.1481 H   0  0  0  0  0  0  0  0  0  0  0  0
   -6.4465   21.1862  -32.5611 H   0  0  0  0  0  0  0  0  0  0  0  0
   -4.4843   19.9067  -33.4013 H   0  0  0  0  0  0  0  0  0  0  0  0
   -3.1147   18.5195  -35.0389 H   0  0  0  0  0  0  0  0  0  0  0  0
   -2.8207   18.4246  -33.2370 H   0  0  0  0  0  0  0  0  0  0  0  0
   -2.7516   16.5546  -36.1266 H   0  0  0  0  0  0  0  0  0  0  0  0
  1  2  3  0
  3  2  1  1
  3  4  1  0
  4  5  1  0
  5  6  1  0
  7  6  1  6
  7  8  1  0
  8  9  1  0
  9 10  1  0
  9 11  1  0
 11 12  1  6
 12 13  3  0
 11 14  1  0
 14 15  2  0
 11 16  1  0
 16 17  1  0
 17 18  2  0
 18 19  1  0
 19 20  2  0
 20 21  1  0
 21 22  2  0
 22 23  1  0
 23 24  1  0
 23 25  2  0
 22 26  1  0
 26 27  1  0
 27 28  2  0
 27 29  1  0
 26 30  1  0
 30 31  2  0
  7 32  1  0
 32 33  2  0
 33 34  1  0
 34 35  2  0
 35 36  1  0
 36 37  2  0
 37 38  1  0
 38 39  2  0
 39 40  1  0
 40 41  2  0
 41 42  1  0
 42 43  1  0
 43 44  1  0
 16  3  1  0
 31 17  1  0
 41 32  1  0
 44  3  1  0
 44  7  1  0
 30 20  1  0
 40 35  1  0
  1 45  1  0
  4 46  1  0
  4 47  1  0
  6 48  1  0
  6 49  1  0
  8 50  1  0
  8 51  1  0
  9 52  1  1
 10 53  1  0
 10 54  1  0
 10 55  1  0
 14 56  1  0
 15 57  1  0
 15 58  1  0
 16 59  1  6
 18 60  1  0
 19 61  1  0
 21 62  1  0
 24 63  1  0
 24 64  1  0
 31 65  1  0
 33 66  1  0
 34 67  1  0
 36 68  1  0
 37 69  1  0
 38 70  1  0
 39 71  1  0
 42 72  1  0
 42 73  1  0
 44 74  1  6
M  CHG  1  29  -1
M  END
>  <UniqueID>  (12) 
12

>  <SMILES>  (12) 
C#C[C@]12COC[C@]3(C[C@@H](C)[C@](C#N)(C=C)[C@@H]1c1ccc4cc(C(N)=O)n(C(=O)[O-])c4c1)c1ccc4ccccc4c1CO[C@H]32

>  <Energy>  (12) 
311.6586151599612

>  <Genealogy>  (12) 
C#C[C@]12COC[C@]3(C[C@@H](C)[C@](C#N)(C=C)[C@@H]1c1ccc4cc(C(N)=O)n(C(=O)[O-])c4c1)c1ccc4ccccc4c1CO[C@H]32 (protonated)
C#C[C@]12COC[C@]3(C[C@@H](C)[C@](C#N)(C=C)[C@@H]1c1ccc4cc(C(N)=O)n(C(=O)[O-])c4c1)c1ccc4ccccc4c1CO[C@H]32 (3D coordinates assigned)
C#C[C@]12COC[C@]3(C[C@@H](C)[C@](C#N)(C=C)[C@@H]1c1ccc4cc(C(N)=O)n(C(=O)[O-])c4c1)c1ccc4ccccc4c1CO[C@H]32 (nonaromatic ring conformer: 311.6586151599612 kcal/mol)

>  <smiles>  (12) 
C#C[C@]12COC[C@]3(C[C@@H](C)[C@](C#N)(C=C)[C@@H]1c1ccc4cc(C(N)=O)n(C(=O)O)c4c1)c1ccc4ccccc4c1CO[C@H]32

>  <score_type>  (12) 
oracle

>  <origin>  (12) 
adg

>  <m_score__min__energy>  (12) 
-9.9299999999999997

>  <m_primary>  (12) 
energy

$$$$
12:0
     RDKit          3D

 52 53  0  0  0  0  0  0  0  0999 V2000
   -1.5620   20.3700  -32.7920 C   0  0  0  0  0  0  0  0  0  0  0  0
   -2.7400   20.4680  -33.7570 C   0  0  0  0  0  0  0  0  0  0  0  0
   -3.8560   19.7220  -33.2730 O   0  0  0  0  0  0  0  0  0  0  0  0
   -4.6510   18.9110  -34.0960 C   0  0  0  0  0  0  0  0  0  0  0  0
   -4.1370   17.9870  -34.7880 O   0  0  0  0  0  0  0  0  0  0  0  0
   -6.1300   19.1420  -34.1480 C   0  0  0  0  0  0  0  0  0  0  0  0
   -6.9120   18.0010  -33.4770 C   0  0  0  0  0  0  0  0  0  0  0  0
   -7.3920   18.3490  -32.0570 C   0  0  0  0  0  0  0  0  0  0  0  0
   -7.4000   19.8380  -31.8180 C   0  0  0  0  0  0  0  0  0  0  0  0
   -8.6260   20.5480  -31.8370 C   0  0  0  0  0  0  0  0  0  0  0  0
   -8.6580   21.9310  -31.5930 C   0  0  0  0  0  0  0  0  0  0  0  0
   -7.4520   22.5770  -31.3380 C   0  0  0  0  0  0  0  0  0  0  0  0
   -7.2020   23.9000  -31.0570 C   0  0  0  0  0  0  0  0  0  0  0  0
   -5.8230   23.9850  -30.8820 C   0  0  0  0  0  0  0  0  0  0  0  0
   -5.1130   25.2610  -30.6470 C   0  0  0  0  0  0  0  0  0  0  0  0
   -3.6980   25.2870  -30.4660 N   0  0  0  0  0  0  0  0  0  0  0  0
   -5.7550   26.3440  -30.6570 O   0  0  0  0  0  0  0  0  0  0  0  0
   -5.2430   22.7610  -31.0360 N   0  0  0  0  0  0  0  0  0  0  0  0
   -3.8700   22.4000  -30.8310 C   0  0  0  0  0  0  0  0  0  0  0  0
   -2.9890   22.8270  -31.6230 O   0  0  0  0  0  0  0  0  0  0  0  0
   -3.5220   21.6060  -29.7310 O   0  0  0  0  0  0  0  0  0  0  0  0
   -2.9950   22.0690  -28.4770 C   0  0  0  0  0  0  0  0  0  0  0  0
   -2.7520   20.8830  -27.5230 C   0  0  0  0  0  0  0  0  0  0  0  0
   -1.6940   22.8670  -28.6970 C   0  0  0  0  0  0  0  0  0  0  0  0
   -4.0520   22.9950  -27.8610 C   0  0  0  0  0  0  0  0  0  0  0  0
   -6.2540   21.9100  -31.3210 C   0  0  0  0  0  0  0  0  0  0  0  0
   -6.1970   20.5250  -31.5400 C   0  0  0  0  0  0  0  0  0  0  0  0
   -1.9325   20.4008  -31.7567 H   0  0  0  0  0  0  0  0  0  0  0  0
   -1.0266   19.4242  -32.9618 H   0  0  0  0  0  0  0  0  0  0  0  0
   -0.8777   21.2143  -32.9618 H   0  0  0  0  0  0  0  0  0  0  0  0
   -3.0311   21.5233  -33.8645 H   0  0  0  0  0  0  0  0  0  0  0  0
   -2.4344   20.0538  -34.7291 H   0  0  0  0  0  0  0  0  0  0  0  0
   -6.3612   20.0844  -33.6299 H   0  0  0  0  0  0  0  0  0  0  0  0
   -6.4313   19.1865  -35.2050 H   0  0  0  0  0  0  0  0  0  0  0  0
   -7.7910   17.7682  -34.0960 H   0  0  0  0  0  0  0  0  0  0  0  0
   -6.2290   17.1431  -33.3904 H   0  0  0  0  0  0  0  0  0  0  0  0
   -8.4123   17.9610  -31.9209 H   0  0  0  0  0  0  0  0  0  0  0  0
   -6.6959   17.8911  -31.3388 H   0  0  0  0  0  0  0  0  0  0  0  0
   -9.5629   20.0104  -32.0451 H   0  0  0  0  0  0  0  0  0  0  0  0
   -9.6074   22.4865  -31.6032 H   0  0  0  0  0  0  0  0  0  0  0  0
   -7.9351   24.7170  -30.9857 H   0  0  0  0  0  0  0  0  0  0  0  0
   -3.0550   24.9370  -31.2130 H   0  0  0  0  0  0  0  0  0  0  0  0
   -2.8230   21.2297  -26.4815 H   0  0  0  0  0  0  0  0  0  0  0  0
   -3.5096   20.1062  -27.7033 H   0  0  0  0  0  0  0  0  0  0  0  0
   -1.7499   20.4667  -27.7033 H   0  0  0  0  0  0  0  0  0  0  0  0
   -1.2585   23.1341  -27.7228 H   0  0  0  0  0  0  0  0  0  0  0  0
   -0.9781   22.2525  -29.2626 H   0  0  0  0  0  0  0  0  0  0  0  0
   -1.9173   23.7837  -29.2626 H   0  0  0  0  0  0  0  0  0  0  0  0
   -3.9914   22.9419  -26.7640 H   0  0  0  0  0  0  0  0  0  0  0  0
   -3.8693   24.0290  -28.1887 H   0  0  0  0  0  0  0  0  0  0  0  0
   -5.0530   22.6779  -28.1887 H   0  0  0  0  0  0  0  0  0  0  0  0
   -5.2385   19.9870  -31.4963 H   0  0  0  0  0  0  0  0  0  0  0  0
  1  2  1  0
  2  3  1  0
  3  4  1  0
  4  5  2  0
  4  6  1  0
  6  7  1  0
  7  8  1  0
  8  9  1  0
  9 10  2  0
 10 11  1  0
 11 12  2  0
 12 13  1  0
 13 14  2  0
 14 15  1  0
 15 16  1  0
 15 17  2  0
 14 18  1  0
 18 19  1  0
 19 20  2  0
 19 21  1  0
 21 22  1  0
 22 23  1  0
 22 24  1  0
 22 25  1  0
 18 26  1  0
 26 27  2  0
 27  9  1  0
 26 12  1  0
  1 28  1  0
  1 29  1  0
  1 30  1  0
  2 31  1  0
  2 32  1  0
  6 33  1  0
  6 34  1  0
  7 35  1  0
  7 36  1  0
  8 37  1  0
  8 38  1  0
 10 39  1  0
 11 40  1  0
 13 41  1  0
 16 42  1  0
 23 43  1  0
 23 44  1  0
 23 45  1  0
 24 46  1  0
 24 47  1  0
 24 48  1  0
 25 49  1  0
 25 50  1  0
 25 51  1  0
 27 52  1  0
M  CHG  1  16  -1
M  END
>  <UniqueID>  (13) 
13

>  <SMILES>  (13) 
CCOC(=O)CCCc1ccc2cc(C([NH-])=O)n(C(=O)OC(C)(C)C)c2c1

>  <Energy>  (13) 
74.8608942155892

>  <Genealogy>  (13) 
CCOC(=O)CCCc1ccc2cc(C([NH-])=O)n(C(=O)OC(C)(C)C)c2c1 (protonated)
CCOC(=O)CCCc1ccc2cc(C([NH-])=O)n(C(=O)OC(C)(C)C)c2c1 (3D coordinates assigned)
CCOC(=O)CCCc1ccc2cc(C([NH-])=O)n(C(=O)OC(C)(C)C)c2c1 (optimized conformer: 74.8608942155892 kcal/mol)

>  <smiles>  (13) 
CCOC(=O)CCCc1ccc2cc(C(N)=O)n(C(=O)OC(C)(C)C)c2c1

>  <score_type>  (13) 
oracle

>  <origin>  (13) 
adg

>  <m_score__min__energy>  (13) 
-10.41

>  <m_primary>  (13) 
energy

$$$$
13:0
     RDKit          3D

 32 33  0  0  0  0  0  0  0  0999 V2000
   -9.4110   21.1750  -31.1710 C   0  0  0  0  0  0  0  0  0  0  0  0
   -9.2780   22.4600  -31.9780 C   0  0  0  0  0  0  0  0  0  0  0  0
   -8.2120   23.2630  -31.4750 O   0  0  0  0  0  0  0  0  0  0  0  0
   -7.2260   22.7800  -30.6080 C   0  0  0  0  0  0  0  0  0  0  0  0
   -7.4590   22.6770  -29.3720 O   0  0  0  0  0  0  0  0  0  0  0  0
   -5.9350   22.4180  -31.1250 N   0  0  0  0  0  0  0  0  0  0  0  0
   -4.7780   23.1360  -31.0570 C   0  0  0  0  0  0  0  0  0  0  0  0
   -4.5910   24.3920  -30.2960 C   0  0  0  0  0  0  0  0  0  0  0  0
   -5.2520   24.5920  -29.0440 N   0  0  0  0  0  0  0  0  0  0  0  0
   -3.8680   25.3120  -30.7610 O   0  0  0  0  0  0  0  0  0  0  0  0
   -3.7520   22.4740  -31.7290 C   0  0  0  0  0  0  0  0  0  0  0  0
   -4.3200   21.3170  -32.2140 C   0  0  0  0  0  0  0  0  0  0  0  0
   -3.7580   20.2950  -32.9710 C   0  0  0  0  0  0  0  0  0  0  0  0
   -4.5880   19.2300  -33.3600 C   0  0  0  0  0  0  0  0  0  0  0  0
   -5.9520   19.2050  -32.9810 C   0  0  0  0  0  0  0  0  0  0  0  0
   -6.8400   18.0890  -33.4460 C   0  0  0  0  0  0  0  0  0  0  0  0
   -6.4920   20.2670  -32.2230 C   0  0  0  0  0  0  0  0  0  0  0  0
   -5.6380   21.3070  -31.8340 C   0  0  0  0  0  0  0  0  0  0  0  0
   -9.3864   21.4122  -30.0972 H   0  0  0  0  0  0  0  0  0  0  0  0
  -10.3647   20.6849  -31.4165 H   0  0  0  0  0  0  0  0  0  0  0  0
   -8.5779   20.4999  -31.4165 H   0  0  0  0  0  0  0  0  0  0  0  0
   -9.0746   22.2070  -33.0290 H   0  0  0  0  0  0  0  0  0  0  0  0
  -10.2169   23.0274  -31.8969 H   0  0  0  0  0  0  0  0  0  0  0  0
   -5.1430   25.4980  -28.5350 H   0  0  0  0  0  0  0  0  0  0  0  0
   -5.8130   23.8340  -28.5990 H   0  0  0  0  0  0  0  0  0  0  0  0
   -2.7097   22.8054  -31.8469 H   0  0  0  0  0  0  0  0  0  0  0  0
   -2.6960   20.3195  -33.2566 H   0  0  0  0  0  0  0  0  0  0  0  0
   -4.1746   18.4088  -33.9640 H   0  0  0  0  0  0  0  0  0  0  0  0
   -7.2572   17.5647  -32.5737 H   0  0  0  0  0  0  0  0  0  0  0  0
   -7.6598   18.5012  -34.0527 H   0  0  0  0  0  0  0  0  0  0  0  0
   -6.2542   17.3828  -34.0527 H   0  0  0  0  0  0  0  0  0  0  0  0
   -7.5563   20.2773  -31.9451 H   0  0  0  0  0  0  0  0  0  0  0  0
  1  2  1  0
  2  3  1  0
  3  4  1  0
  4  5  2  0
  4  6  1  0
  6  7  1  0
  7  8  1  0
  8  9  1  0
  8 10  2  0
  7 11  2  0
 11 12  1  0
 12 13  2  0
 13 14  1  0
 14 15  2  0
 15 16  1  0
 15 17  1  0
 17 18  2  0
 18  6  1  0
 18 12  1  0
  1 19  1  0
  1 20  1  0
  1 21  1  0
  2 22  1  0
  2 23  1  0
  9 24  1  0
  9 25  1  0
 11 26  1  0
 13 27  1  0
 14 28  1  0
 16 29  1  0
 16 30  1  0
 16 31  1  0
 17 32  1  0
M  END
>  <UniqueID>  (14) 
14

>  <SMILES>  (14) 
CCOC(=O)n1c(C(N)=O)cc2ccc(C)cc21

>  <Energy>  (14) 
66.01523537280111

>  <Genealogy>  (14) 
CCOC(=O)n1c(C(N)=O)cc2ccc(C)cc21 (3D coordinates assigned)
CCOC(=O)n1c(C(N)=O)cc2ccc(C)cc21 (optimized conformer: 66.01523537280111 kcal/mol)

>  <smiles>  (14) 
CCOC(=O)n1c(C(N)=O)cc2ccc(C)cc21

>  <score_type>  (14) 
oracle

>  <origin>  (14) 
adg

>  <m_score__min__energy>  (14) 
-7.4100000000000001

>  <m_primary>  (14) 
energy

$$$$
14:0
     RDKit          3D

 46 48  0  0  0  0  0  0  0  0999 V2000
   -3.3710   21.8500  -33.3130 C   0  0  0  0  0  0  0  0  0  0  0  0
   -2.6730   21.0060  -32.2350 C   0  0  0  0  0  0  0  0  0  0  0  0
   -2.8370   21.7020  -30.8710 C   0  0  0  0  0  0  0  0  0  0  0  0
   -1.1830   20.8670  -32.6010 C   0  0  0  0  0  0  0  0  0  0  0  0
   -3.3110   19.7210  -32.2270 O   0  0  0  0  0  0  0  0  0  0  0  0
   -4.1040   19.1790  -33.2490 C   0  0  0  0  0  0  0  0  0  0  0  0
   -3.6050   18.8840  -34.3690 O   0  0  0  0  0  0  0  0  0  0  0  0
   -5.5040   18.9610  -33.0140 N   0  0  0  0  0  0  0  0  0  0  0  0
   -6.2350   17.8510  -33.3090 C   0  0  0  0  0  0  0  0  0  0  0  0
   -5.6960   16.5650  -33.7970 C   0  0  0  0  0  0  0  0  0  0  0  0
   -4.7300   16.5170  -34.8470 N   0  0  0  0  0  0  0  0  0  0  0  0
   -6.0550   15.4920  -33.2400 O   0  0  0  0  0  0  0  0  0  0  0  0
   -7.5840   18.0640  -33.0420 C   0  0  0  0  0  0  0  0  0  0  0  0
   -7.6570   19.3490  -32.5550 C   0  0  0  0  0  0  0  0  0  0  0  0
   -8.7620   20.0870  -32.1410 C   0  0  0  0  0  0  0  0  0  0  0  0
   -8.5500   21.4090  -31.7170 C   0  0  0  0  0  0  0  0  0  0  0  0
   -7.2520   21.9810  -31.7220 C   0  0  0  0  0  0  0  0  0  0  0  0
   -7.1200   23.4230  -31.2620 C   0  0  1  0  0  0  0  0  0  0  0  0
   -7.1480   23.6710  -29.7530 C   0  0  0  0  0  0  0  0  0  0  0  0
   -5.8360   23.8070  -30.5270 C   0  0  2  0  0  0  0  0  0  0  0  0
   -5.3090   25.2350  -30.7630 C   0  0  0  0  0  0  0  0  0  0  0  0
   -3.9070   25.3210  -30.7210 O   0  0  0  0  0  0  0  0  0  0  0  0
   -6.1530   21.1940  -32.1580 C   0  0  0  0  0  0  0  0  0  0  0  0
   -6.3900   19.8710  -32.5500 C   0  0  0  0  0  0  0  0  0  0  0  0
   -4.0012   22.6120  -32.8311 H   0  0  0  0  0  0  0  0  0  0  0  0
   -2.6136   22.3435  -33.9398 H   0  0  0  0  0  0  0  0  0  0  0  0
   -3.9978   21.1987  -33.9398 H   0  0  0  0  0  0  0  0  0  0  0  0
   -2.6654   20.9737  -30.0647 H   0  0  0  0  0  0  0  0  0  0  0  0
   -2.1072   22.5207  -30.7870 H   0  0  0  0  0  0  0  0  0  0  0  0
   -3.8556   22.1087  -30.7870 H   0  0  0  0  0  0  0  0  0  0  0  0
   -0.5831   20.8110  -31.6807 H   0  0  0  0  0  0  0  0  0  0  0  0
   -1.0345   19.9511  -33.1918 H   0  0  0  0  0  0  0  0  0  0  0  0
   -0.8676   21.7396  -33.1918 H   0  0  0  0  0  0  0  0  0  0  0  0
   -4.2830   17.3880  -35.2100 H   0  0  0  0  0  0  0  0  0  0  0  0
   -4.3920   15.5970  -35.2070 H   0  0  0  0  0  0  0  0  0  0  0  0
   -8.4138   17.3570  -33.1887 H   0  0  0  0  0  0  0  0  0  0  0  0
   -9.7707   19.6482  -32.1457 H   0  0  0  0  0  0  0  0  0  0  0  0
   -9.4049   22.0110  -31.3753 H   0  0  0  0  0  0  0  0  0  0  0  0
   -7.6670   23.8218  -32.1290 H   0  0  0  0  0  0  0  0  0  0  0  0
   -7.6454   24.5664  -29.3518 H   0  0  0  0  0  0  0  0  0  0  0  0
   -7.4778   23.0950  -28.8758 H   0  0  0  0  0  0  0  0  0  0  0  0
   -4.8303   23.3716  -30.4321 H   0  0  0  0  0  0  0  0  0  0  0  0
   -5.6508   25.5750  -31.7517 H   0  0  0  0  0  0  0  0  0  0  0  0
   -5.7000   25.8663  -29.9515 H   0  0  0  0  0  0  0  0  0  0  0  0
   -3.6110   25.6740  -31.6000 H   0  0  0  0  0  0  0  0  0  0  0  0
   -5.1372   21.6150  -32.1871 H   0  0  0  0  0  0  0  0  0  0  0  0
  1  2  1  0
  2  3  1  0
  2  4  1  0
  2  5  1  0
  5  6  1  0
  6  7  2  0
  6  8  1  0
  8  9  1  0
  9 10  1  0
 10 11  1  0
 10 12  2  0
  9 13  2  0
 13 14  1  0
 14 15  2  0
 15 16  1  0
 16 17  2  0
 17 18  1  0
 18 19  1  0
 19 20  1  0
 20 21  1  0
 21 22  1  0
 17 23  1  0
 23 24  2  0
 24  8  1  0
 24 14  1  0
 20 18  1  0
  1 25  1  0
  1 26  1  0
  1 27  1  0
  3 28  1  0
  3 29  1  0
  3 30  1  0
  4 31  1  0
  4 32  1  0
  4 33  1  0
 11 34  1  0
 11 35  1  0
 13 36  1  0
 15 37  1  0
 16 38  1  0
 18 39  1  6
 19 40  1  0
 19 41  1  0
 20 42  1  1
 21 43  1  0
 21 44  1  0
 22 45  1  0
 23 46  1  0
M  END
>  <UniqueID>  (15) 
15

>  <SMILES>  (15) 
CC(C)(C)OC(=O)n1c(C(N)=O)cc2ccc([C@H]3C[C@@H]3CO)cc21

>  <Energy>  (15) 
351.77977711077205

>  <Genealogy>  (15) 
CC(C)(C)OC(=O)n1c(C(N)=O)cc2ccc([C@H]3C[C@@H]3CO)cc21 (chirality)
CC(C)(C)OC(=O)n1c(C(N)=O)cc2ccc([C@H]3C[C@@H]3CO)cc21 (3D coordinates assigned)
CC(C)(C)OC(=O)n1c(C(N)=O)cc2ccc([C@H]3C[C@@H]3CO)cc21 (nonaromatic ring conformer: 351.77977711077205 kcal/mol)

>  <smiles>  (15) 
CC(C)(C)OC(=O)n1c(C(N)=O)cc2ccc(C3CC3CO)cc21

>  <score_type>  (15) 
oracle

>  <origin>  (15) 
adg

>  <m_score__min__energy>  (15) 
-9.3000000000000007

>  <m_primary>  (15) 
energy

$$$$
15:0
     RDKit          3D

 67 71  0  0  0  0  0  0  0  0999 V2000
   -1.0320   15.2150  -36.4150 C   0  0  0  0  0  0  0  0  0  0  0  0
   -1.4100   16.0390  -35.2650 N   0  0  0  0  0  0  0  0  0  0  0  0
   -0.9110   17.3830  -35.1290 C   0  0  0  0  0  0  0  0  0  0  0  0
   -0.1090   17.9150  -36.0920 N   0  0  0  0  0  0  0  0  0  0  0  0
    0.3930   19.1710  -35.9740 C   0  0  0  0  0  0  0  0  0  0  0  0
    0.0890   19.9430  -34.8500 C   0  0  0  0  0  0  0  0  0  0  0  0
    0.6830   21.2490  -34.6950 C   0  0  0  0  0  0  0  0  0  0  0  0
    1.1600   22.2960  -34.5700 N   0  0  0  0  0  0  0  0  0  0  0  0
   -0.7520   19.3900  -33.8690 C   0  0  0  0  0  0  0  0  0  0  0  0
   -1.0740   20.1100  -32.6650 N   0  0  0  0  0  0  0  0  0  0  0  0
   -0.0180   20.3080  -31.6660 C   0  0  0  0  0  0  0  0  0  0  0  0
   -2.3520   20.7880  -32.5530 C   0  0  0  0  0  0  0  0  0  0  0  0
   -3.4300   20.4750  -33.4310 C   0  0  0  0  0  0  0  0  0  0  0  0
   -4.6600   21.1470  -33.3340 C   0  0  0  0  0  0  0  0  0  0  0  0
   -4.7980   22.1190  -32.3490 C   0  0  0  0  0  0  0  0  0  0  0  0
   -5.8630   22.9410  -32.0610 C   0  0  0  0  0  0  0  0  0  0  0  0
   -5.4420   23.7230  -30.9890 C   0  0  0  0  0  0  0  0  0  0  0  0
   -6.3030   24.7120  -30.3140 C   0  0  0  0  0  0  0  0  0  0  0  0
   -5.7450   25.7050  -29.4520 N   0  0  0  0  0  0  0  0  0  0  0  0
   -7.5530   24.6550  -30.4650 O   0  0  0  0  0  0  0  0  0  0  0  0
   -4.1650   23.4070  -30.6340 N   0  0  0  0  0  0  0  0  0  0  0  0
   -3.3510   24.0580  -29.6460 C   0  0  0  0  0  0  0  0  0  0  0  0
   -3.1070   25.2900  -29.7310 O   0  0  0  0  0  0  0  0  0  0  0  0
   -2.8250   23.3320  -28.5840 O   0  0  0  0  0  0  0  0  0  0  0  0
   -3.7860   22.4220  -31.4780 C   0  0  0  0  0  0  0  0  0  0  0  0
   -2.5400   21.7910  -31.5700 C   0  0  0  0  0  0  0  0  0  0  0  0
   -1.2200   18.1230  -34.0310 N   0  0  0  0  0  0  0  0  0  0  0  0
   -2.0810   15.4130  -34.1620 C   0  0  0  0  0  0  0  0  0  0  0  0
   -1.3630   14.5040  -33.3690 C   0  0  0  0  0  0  0  0  0  0  0  0
   -1.9690   13.8850  -32.2760 C   0  0  0  0  0  0  0  0  0  0  0  0
   -3.2970   14.1660  -31.9650 C   0  0  0  0  0  0  0  0  0  0  0  0
   -4.0260   15.0650  -32.7460 C   0  0  0  0  0  0  0  0  0  0  0  0
   -3.4370   15.7020  -33.8560 C   0  0  0  0  0  0  0  0  0  0  0  0
   -4.2600   16.6430  -34.6620 C   0  0  0  0  0  0  0  0  0  0  0  0
   -3.8770   17.0240  -35.8030 O   0  0  0  0  0  0  0  0  0  0  0  0
   -5.4780   17.1090  -34.1490 O   0  0  0  0  0  0  0  0  0  0  0  0
   -5.9870   18.4190  -34.3950 C   0  0  0  0  0  0  0  0  0  0  0  0
   -6.9430   18.8330  -33.3080 C   0  0  0  0  0  0  0  0  0  0  0  0
   -7.5620   20.0940  -33.3460 C   0  0  0  0  0  0  0  0  0  0  0  0
   -8.4550   20.4690  -32.3380 C   0  0  0  0  0  0  0  0  0  0  0  0
   -8.7460   19.5860  -31.2940 C   0  0  0  0  0  0  0  0  0  0  0  0
   -8.1440   18.3260  -31.2560 C   0  0  0  0  0  0  0  0  0  0  0  0
   -7.2490   17.9470  -32.2610 C   0  0  0  0  0  0  0  0  0  0  0  0
   -0.5978   14.2684  -36.0609 H   0  0  0  0  0  0  0  0  0  0  0  0
   -1.9235   15.0043  -37.0240 H   0  0  0  0  0  0  0  0  0  0  0  0
   -0.2908   15.7533  -37.0240 H   0  0  0  0  0  0  0  0  0  0  0  0
    1.0395   19.5810  -36.7639 H   0  0  0  0  0  0  0  0  0  0  0  0
   -0.4482   20.2273  -30.6568 H   0  0  0  0  0  0  0  0  0  0  0  0
    0.7585   19.5398  -31.7961 H   0  0  0  0  0  0  0  0  0  0  0  0
    0.4275   21.3053  -31.7961 H   0  0  0  0  0  0  0  0  0  0  0  0
   -3.2971   19.6958  -34.1959 H   0  0  0  0  0  0  0  0  0  0  0  0
   -5.4894   20.9113  -34.0170 H   0  0  0  0  0  0  0  0  0  0  0  0
   -6.8382   22.9734  -32.5689 H   0  0  0  0  0  0  0  0  0  0  0  0
   -6.3600   26.4310  -29.0190 H   0  0  0  0  0  0  0  0  0  0  0  0
   -4.7420   25.6640  -29.1630 H   0  0  0  0  0  0  0  0  0  0  0  0
   -1.7207   22.0690  -30.8907 H   0  0  0  0  0  0  0  0  0  0  0  0
   -0.3141   14.2782  -33.6116 H   0  0  0  0  0  0  0  0  0  0  0  0
   -1.3981   13.1749  -31.6597 H   0  0  0  0  0  0  0  0  0  0  0  0
   -3.7731   13.6783  -31.1016 H   0  0  0  0  0  0  0  0  0  0  0  0
   -5.0745   15.2788  -32.4911 H   0  0  0  0  0  0  0  0  0  0  0  0
   -5.1493   19.1311  -34.4292 H   0  0  0  0  0  0  0  0  0  0  0  0
   -6.5244   18.4144  -35.3548 H   0  0  0  0  0  0  0  0  0  0  0  0
   -7.3433   20.7878  -34.1711 H   0  0  0  0  0  0  0  0  0  0  0  0
   -8.9297   21.4609  -32.3664 H   0  0  0  0  0  0  0  0  0  0  0  0
   -9.4492   19.8835  -30.5022 H   0  0  0  0  0  0  0  0  0  0  0  0
   -8.3743   17.6315  -30.4347 H   0  0  0  0  0  0  0  0  0  0  0  0
   -6.7825   16.9513  -32.2321 H   0  0  0  0  0  0  0  0  0  0  0  0
  1  2  1  0
  2  3  1  0
  3  4  2  0
  4  5  1  0
  5  6  2  0
  6  7  1  0
  7  8  3  0
  6  9  1  0
  9 10  1  0
 10 11  1  0
 10 12  1  0
 12 13  2  0
 13 14  1  0
 14 15  2  0
 15 16  1  0
 16 17  2  0
 17 18  1  0
 18 19  1  0
 18 20  2  0
 17 21  1  0
 21 22  1  0
 22 23  2  0
 22 24  1  0
 21 25  1  0
 25 26  2  0
  9 27  2  0
  2 28  1  0
 28 29  2  0
 29 30  1  0
 30 31  2  0
 31 32  1  0
 32 33  2  0
 33 34  1  0
 34 35  2  0
 34 36  1  0
 36 37  1  0
 37 38  1  0
 38 39  2  0
 39 40  1  0
 40 41  2  0
 41 42  1  0
 42 43  2  0
 27  3  1  0
 33 28  1  0
 43 38  1  0
 26 12  1  0
 25 15  1  0
  1 44  1  0
  1 45  1  0
  1 46  1  0
  5 47  1  0
 11 48  1  0
 11 49  1  0
 11 50  1  0
 13 51  1  0
 14 52  1  0
 16 53  1  0
 19 54  1  0
 19 55  1  0
 26 56  1  0
 29 57  1  0
 30 58  1  0
 31 59  1  0
 32 60  1  0
 37 61  1  0
 37 62  1  0
 39 63  1  0
 40 64  1  0
 41 65  1  0
 42 66  1  0
 43 67  1  0
M  CHG  1  24  -1
M  END
>  <UniqueID>  (16) 
16

>  <SMILES>  (16) 
CN(c1ncc(C#N)c(N(C)c2ccc3cc(C(N)=O)n(C(=O)[O-])c3c2)n1)c1ccccc1C(=O)OCc1ccccc1

>  <Energy>  (16) 
127.64899752528092

>  <Genealogy>  (16) 
CN(c1ncc(C#N)c(N(C)c2ccc3cc(C(N)=O)n(C(=O)[O-])c3c2)n1)c1ccccc1C(=O)OCc1ccccc1 (protonated)
CN(c1ncc(C#N)c(N(C)c2ccc3cc(C(N)=O)n(C(=O)[O-])c3c2)n1)c1ccccc1C(=O)OCc1ccccc1 (3D coordinates assigned)
CN(c1ncc(C#N)c(N(C)c2ccc3cc(C(N)=O)n(C(=O)[O-])c3c2)n1)c1ccccc1C(=O)OCc1ccccc1 (optimized conformer: 127.64899752528092 kcal/mol)

>  <smiles>  (16) 
CN(c1ncc(C#N)c(N(C)c2ccc3cc(C(N)=O)n(C(=O)O)c3c2)n1)c1ccccc1C(=O)OCc1ccccc1

>  <score_type>  (16) 
oracle

>  <origin>  (16) 
adg

>  <m_score__min__energy>  (16) 
-11.92

>  <m_primary>  (16) 
energy

$$$$
16:0
     RDKit          3D

 38 40  0  0  0  0  0  0  0  0999 V2000
   -7.1940   17.1480  -33.1060 C   0  0  0  0  0  0  0  0  0  0  0  0
   -5.8830   17.4340  -31.9370 S   0  0  0  0  0  0  0  0  0  0  0  0
   -5.7130   16.2090  -31.0850 O   0  0  0  0  0  0  0  0  0  0  0  0
   -6.2650   18.5680  -31.0280 O   0  0  0  0  0  0  0  0  0  0  0  0
   -4.3800   17.8380  -32.8090 C   0  0  0  0  0  0  0  0  0  0  0  0
   -3.4830   16.8060  -33.1820 C   0  0  0  0  0  0  0  0  0  0  0  0
   -3.7330   15.1220  -32.7250 Cl  0  0  0  0  0  0  0  0  0  0  0  0
   -2.3340   17.1010  -33.9220 C   0  0  0  0  0  0  0  0  0  0  0  0
   -2.0520   18.4120  -34.2950 C   0  0  0  0  0  0  0  0  0  0  0  0
   -2.9020   19.4440  -33.9100 C   0  0  0  0  0  0  0  0  0  0  0  0
   -4.0550   19.1780  -33.1560 C   0  0  0  0  0  0  0  0  0  0  0  0
   -4.8670   20.3310  -32.7260 C   0  0  0  0  0  0  0  0  0  0  0  0
   -6.2450   20.3820  -33.0460 C   0  0  0  0  0  0  0  0  0  0  0  0
   -7.0280   21.4790  -32.6480 C   0  0  0  0  0  0  0  0  0  0  0  0
   -6.4110   22.4900  -31.9170 C   0  0  0  0  0  0  0  0  0  0  0  0
   -6.9260   23.6720  -31.4360 C   0  0  0  0  0  0  0  0  0  0  0  0
   -5.8650   24.3000  -30.7920 C   0  0  0  0  0  0  0  0  0  0  0  0
   -5.9990   25.5810  -30.0700 C   0  0  0  0  0  0  0  0  0  0  0  0
   -6.8860   25.7130  -28.9580 N   0  0  0  0  0  0  0  0  0  0  0  0
   -5.3640   26.5890  -30.4770 O   0  0  0  0  0  0  0  0  0  0  0  0
   -4.7320   23.5470  -30.8790 N   0  0  0  0  0  0  0  0  0  0  0  0
   -3.4100   23.9100  -30.4450 C   0  0  0  0  0  0  0  0  0  0  0  0
   -2.4620   23.0860  -30.5280 O   0  0  0  0  0  0  0  0  0  0  0  0
   -3.1620   25.1800  -29.9380 O   0  0  0  0  0  0  0  0  0  0  0  0
   -5.0840   22.4390  -31.5700 C   0  0  0  0  0  0  0  0  0  0  0  0
   -4.2760   21.3680  -31.9730 C   0  0  0  0  0  0  0  0  0  0  0  0
   -8.1297   16.9439  -32.5649 H   0  0  0  0  0  0  0  0  0  0  0  0
   -7.3228   18.0392  -33.7378 H   0  0  0  0  0  0  0  0  0  0  0  0
   -6.9399   16.2842  -33.7378 H   0  0  0  0  0  0  0  0  0  0  0  0
   -1.6480   16.2913  -34.2115 H   0  0  0  0  0  0  0  0  0  0  0  0
   -1.1565   18.6323  -34.8946 H   0  0  0  0  0  0  0  0  0  0  0  0
   -2.6677   20.4790  -34.1997 H   0  0  0  0  0  0  0  0  0  0  0  0
   -6.7059   19.5576  -33.6099 H   0  0  0  0  0  0  0  0  0  0  0  0
   -8.0957   21.5369  -32.9063 H   0  0  0  0  0  0  0  0  0  0  0  0
   -7.9570   24.0415  -31.5389 H   0  0  0  0  0  0  0  0  0  0  0  0
   -6.9400   26.6150  -28.4350 H   0  0  0  0  0  0  0  0  0  0  0  0
   -7.5480   24.9480  -28.7030 H   0  0  0  0  0  0  0  0  0  0  0  0
   -3.2085   21.3361  -31.7094 H   0  0  0  0  0  0  0  0  0  0  0  0
  1  2  1  0
  2  3  2  0
  2  4  2  0
  2  5  1  0
  5  6  2  0
  6  7  1  0
  6  8  1  0
  8  9  2  0
  9 10  1  0
 10 11  2  0
 11 12  1  0
 12 13  2  0
 13 14  1  0
 14 15  2  0
 15 16  1  0
 16 17  2  0
 17 18  1  0
 18 19  1  0
 18 20  2  0
 17 21  1  0
 21 22  1  0
 22 23  2  0
 22 24  1  0
 21 25  1  0
 25 26  2  0
 11  5  1  0
 26 12  1  0
 25 15  1  0
  1 27  1  0
  1 28  1  0
  1 29  1  0
  8 30  1  0
  9 31  1  0
 10 32  1  0
 13 33  1  0
 14 34  1  0
 16 35  1  0
 19 36  1  0
 19 37  1  0
 26 38  1  0
M  CHG  1  24  -1
M  END
>  <UniqueID>  (17) 
17

>  <SMILES>  (17) 
CS(=O)(=O)c1c(Cl)cccc1-c1ccc2cc(C(N)=O)n(C(=O)[O-])c2c1

>  <Energy>  (17) 
89.80807690886698

>  <Genealogy>  (17) 
CS(=O)(=O)c1c(Cl)cccc1-c1ccc2cc(C(N)=O)n(C(=O)[O-])c2c1 (protonated)
CS(=O)(=O)c1c(Cl)cccc1-c1ccc2cc(C(N)=O)n(C(=O)[O-])c2c1 (3D coordinates assigned)
CS(=O)(=O)c1c(Cl)cccc1-c1ccc2cc(C(N)=O)n(C(=O)[O-])c2c1 (optimized conformer: 89.80807690886698 kcal/mol)

>  <smiles>  (17) 
CS(=O)(=O)c1c(Cl)cccc1-c1ccc2cc(C(N)=O)n(C(=O)O)c2c1

>  <score_type>  (17) 
oracle

>  <origin>  (17) 
adg

>  <m_score__min__energy>  (17) 
-10.23

>  <m_primary>  (17) 
energy

$$$$
17:0
     RDKit          3D

 29 31  0  0  0  0  0  0  0  0999 V2000
   -3.8570   25.4020  -30.4670 N   0  0  0  0  0  0  0  0  0  0  0  0
   -5.2310   25.0570  -30.3080 C   0  0  0  0  0  0  0  0  0  0  0  0
   -6.0030   25.8600  -29.7210 O   0  0  0  0  0  0  0  0  0  0  0  0
   -5.7680   23.7950  -30.8610 C   0  0  0  0  0  0  0  0  0  0  0  0
   -7.1310   23.5370  -31.0000 C   0  0  0  0  0  0  0  0  0  0  0  0
   -7.2080   22.3020  -31.6040 C   0  0  0  0  0  0  0  0  0  0  0  0
   -8.3210   21.5480  -31.9630 C   0  0  0  0  0  0  0  0  0  0  0  0
   -8.1040   20.2850  -32.5400 C   0  0  0  0  0  0  0  0  0  0  0  0
   -6.7880   19.7960  -32.7380 C   0  0  0  0  0  0  0  0  0  0  0  0
   -6.5790   18.4620  -33.3340 C   0  0  0  0  0  0  0  0  0  0  0  0
   -5.6850   18.2080  -34.3150 N   0  0  0  0  0  0  0  0  0  0  0  0
   -5.8350   16.8890  -34.5400 C   0  0  0  0  0  0  0  0  0  0  0  0
   -6.8030   16.3940  -33.6990 C   0  0  0  0  0  0  0  0  0  0  0  0
   -7.2420   17.3870  -32.9670 O   0  0  0  0  0  0  0  0  0  0  0  0
   -5.6820   20.5920  -32.3580 C   0  0  0  0  0  0  0  0  0  0  0  0
   -5.9290   21.8530  -31.8050 C   0  0  0  0  0  0  0  0  0  0  0  0
   -5.0340   22.7600  -31.3560 N   0  0  0  0  0  0  0  0  0  0  0  0
   -3.6070   22.6050  -31.3350 C   0  0  0  0  0  0  0  0  0  0  0  0
   -2.8410   23.1200  -30.2460 N   0  0  0  0  0  0  0  0  0  0  0  0
   -3.0230   22.0200  -32.2850 O   0  0  0  0  0  0  0  0  0  0  0  0
   -3.5490   26.0430  -31.2310 H   0  0  0  0  0  0  0  0  0  0  0  0
   -7.9669   24.1826  -30.6926 H   0  0  0  0  0  0  0  0  0  0  0  0
   -9.3400   21.9290  -31.8001 H   0  0  0  0  0  0  0  0  0  0  0  0
   -8.9643   19.6693  -32.8412 H   0  0  0  0  0  0  0  0  0  0  0  0
   -5.2721   16.3008  -35.2797 H   0  0  0  0  0  0  0  0  0  0  0  0
   -7.1473   15.3504  -33.6497 H   0  0  0  0  0  0  0  0  0  0  0  0
   -4.6528   20.2282  -32.4941 H   0  0  0  0  0  0  0  0  0  0  0  0
   -1.8010   23.0330  -30.2450 H   0  0  0  0  0  0  0  0  0  0  0  0
   -3.3140   23.5510  -29.4210 H   0  0  0  0  0  0  0  0  0  0  0  0
  1  2  1  0
  2  3  2  0
  2  4  1  0
  4  5  2  0
  5  6  1  0
  6  7  2  0
  7  8  1  0
  8  9  2  0
  9 10  1  0
 10 11  2  0
 11 12  1  0
 12 13  2  0
 13 14  1  0
  9 15  1  0
 15 16  2  0
 16 17  1  0
 17 18  1  0
 18 19  1  0
 18 20  2  0
 17  4  1  0
 16  6  1  0
 14 10  1  0
  1 21  1  0
  5 22  1  0
  7 23  1  0
  8 24  1  0
 12 25  1  0
 13 26  1  0
 15 27  1  0
 19 28  1  0
 19 29  1  0
M  CHG  1   1  -1
M  END
>  <UniqueID>  (18) 
18

>  <SMILES>  (18) 
[NH-]C(=O)c1cc2ccc(-c3ncco3)cc2n1C(N)=O

>  <Energy>  (18) 
99.65287047308223

>  <Genealogy>  (18) 
[NH-]C(=O)c1cc2ccc(-c3ncco3)cc2n1C(N)=O (protonated)
[NH-]C(=O)c1cc2ccc(-c3ncco3)cc2n1C(N)=O (3D coordinates assigned)
[NH-]C(=O)c1cc2ccc(-c3ncco3)cc2n1C(N)=O (optimized conformer: 99.65287047308223 kcal/mol)

>  <smiles>  (18) 
NC(=O)c1cc2ccc(-c3ncco3)cc2n1C(N)=O

>  <score_type>  (18) 
oracle

>  <origin>  (18) 
adg

>  <m_score__min__energy>  (18) 
-9.8800000000000008

>  <m_primary>  (18) 
energy

$$$$
18:0
     RDKit          3D

 46 49  0  0  0  0  0  0  0  0999 V2000
   -4.4340   14.6270  -34.6610 N   0  0  0  0  0  0  0  0  0  0  0  0
   -5.7300   15.0240  -34.2140 C   0  0  0  0  0  0  0  0  0  0  0  0
   -6.6800   14.2010  -34.2750 O   0  0  0  0  0  0  0  0  0  0  0  0
   -5.9530   16.3730  -33.6470 C   0  0  0  0  0  0  0  0  0  0  0  0
   -7.2120   16.9140  -33.3980 C   0  0  0  0  0  0  0  0  0  0  0  0
   -6.9790   18.2010  -32.9760 C   0  0  0  0  0  0  0  0  0  0  0  0
   -7.8770   19.1910  -32.5870 C   0  0  0  0  0  0  0  0  0  0  0  0
   -7.3560   20.4280  -32.1720 C   0  0  0  0  0  0  0  0  0  0  0  0
   -5.9550   20.6540  -32.1460 C   0  0  0  0  0  0  0  0  0  0  0  0
   -5.4160   21.9620  -31.6930 C   0  0  0  0  0  0  0  0  0  0  0  0
   -6.1970   23.1290  -31.7890 C   0  0  0  0  0  0  0  0  0  0  0  0
   -5.6880   24.3590  -31.3640 C   0  0  0  0  0  0  0  0  0  0  0  0
   -4.3960   24.4410  -30.8390 C   0  0  0  0  0  0  0  0  0  0  0  0
   -3.8940   25.6670  -30.4170 O   0  0  0  0  0  0  0  0  0  0  0  0
   -3.6100   23.2880  -30.7380 C   0  0  0  0  0  0  0  0  0  0  0  0
   -2.3570   23.3620  -30.2230 F   0  0  0  0  0  0  0  0  0  0  0  0
   -4.1160   22.0560  -31.1630 C   0  0  0  0  0  0  0  0  0  0  0  0
   -5.0760   19.6220  -32.5510 C   0  0  0  0  0  0  0  0  0  0  0  0
   -5.6250   18.4060  -32.9770 C   0  0  0  0  0  0  0  0  0  0  0  0
   -4.9790   17.2910  -33.3880 N   0  0  0  0  0  0  0  0  0  0  0  0
   -3.5570   17.0940  -33.4500 C   0  0  0  0  0  0  0  0  0  0  0  0
   -3.0210   16.1640  -32.7870 O   0  0  0  0  0  0  0  0  0  0  0  0
   -2.7760   17.9210  -34.2650 O   0  0  0  0  0  0  0  0  0  0  0  0
   -1.3640   18.0550  -34.1250 C   0  0  0  0  0  0  0  0  0  0  0  0
   -1.0320   19.2130  -33.2250 C   0  0  0  0  0  0  0  0  0  0  0  0
   -0.1850   19.0410  -32.1170 C   0  0  0  0  0  0  0  0  0  0  0  0
    0.0930   20.1180  -31.2710 C   0  0  0  0  0  0  0  0  0  0  0  0
   -0.4740   21.3710  -31.5200 C   0  0  0  0  0  0  0  0  0  0  0  0
   -1.3220   21.5490  -32.6170 C   0  0  0  0  0  0  0  0  0  0  0  0
   -1.6030   20.4750  -33.4670 C   0  0  0  0  0  0  0  0  0  0  0  0
   -3.6340   15.2980  -34.6720 H   0  0  0  0  0  0  0  0  0  0  0  0
   -4.2790   13.6600  -35.0240 H   0  0  0  0  0  0  0  0  0  0  0  0
   -8.1862   16.4167  -33.5144 H   0  0  0  0  0  0  0  0  0  0  0  0
   -8.9619   19.0102  -32.6040 H   0  0  0  0  0  0  0  0  0  0  0  0
   -8.0419   21.2308  -31.8636 H   0  0  0  0  0  0  0  0  0  0  0  0
   -7.2152   23.0724  -32.2015 H   0  0  0  0  0  0  0  0  0  0  0  0
   -6.3064   25.2653  -31.4431 H   0  0  0  0  0  0  0  0  0  0  0  0
   -3.4929   21.1531  -31.0824 H   0  0  0  0  0  0  0  0  0  0  0  0
   -3.9863   19.7713  -32.5317 H   0  0  0  0  0  0  0  0  0  0  0  0
   -0.9537   17.1307  -33.6921 H   0  0  0  0  0  0  0  0  0  0  0  0
   -0.9237   18.2371  -35.1164 H   0  0  0  0  0  0  0  0  0  0  0  0
    0.2605   18.0557  -31.9150 H   0  0  0  0  0  0  0  0  0  0  0  0
    0.7596   19.9793  -30.4071 H   0  0  0  0  0  0  0  0  0  0  0  0
   -0.2530   22.2171  -30.8527 H   0  0  0  0  0  0  0  0  0  0  0  0
   -1.7687   22.5352  -32.8117 H   0  0  0  0  0  0  0  0  0  0  0  0
   -2.2729   20.6177  -34.3278 H   0  0  0  0  0  0  0  0  0  0  0  0
  1  2  1  0
  2  3  2  0
  2  4  1  0
  4  5  2  0
  5  6  1  0
  6  7  2  0
  7  8  1  0
  8  9  2  0
  9 10  1  0
 10 11  2  0
 11 12  1  0
 12 13  2  0
 13 14  1  0
 13 15  1  0
 15 16  1  0
 15 17  2  0
  9 18  1  0
 18 19  2  0
 19 20  1  0
 20 21  1  0
 21 22  2  0
 21 23  1  0
 23 24  1  0
 24 25  1  0
 25 26  2  0
 26 27  1  0
 27 28  2  0
 28 29  1  0
 29 30  2  0
 20  4  1  0
 30 25  1  0
 19  6  1  0
 17 10  1  0
  1 31  1  0
  1 32  1  0
  5 33  1  0
  7 34  1  0
  8 35  1  0
 11 36  1  0
 12 37  1  0
 17 38  1  0
 18 39  1  0
 24 40  1  0
 24 41  1  0
 26 42  1  0
 27 43  1  0
 28 44  1  0
 29 45  1  0
 30 46  1  0
M  CHG  1  14  -1
M  END
>  <UniqueID>  (19) 
19

>  <SMILES>  (19) 
NC(=O)c1cc2ccc(-c3ccc([O-])c(F)c3)cc2n1C(=O)OCc1ccccc1

>  <Energy>  (19) 
92.82208412208547

>  <Genealogy>  (19) 
NC(=O)c1cc2ccc(-c3ccc([O-])c(F)c3)cc2n1C(=O)OCc1ccccc1 (protonated)
NC(=O)c1cc2ccc(-c3ccc([O-])c(F)c3)cc2n1C(=O)OCc1ccccc1 (3D coordinates assigned)
NC(=O)c1cc2ccc(-c3ccc([O-])c(F)c3)cc2n1C(=O)OCc1ccccc1 (optimized conformer: 92.82208412208547 kcal/mol)

>  <smiles>  (19) 
NC(=O)c1cc2ccc(-c3ccc(O)c(F)c3)cc2n1C(=O)OCc1ccccc1

>  <score_type>  (19) 
oracle

>  <origin>  (19) 
adg

>  <m_score__min__energy>  (19) 
-10.869999999999999

>  <m_primary>  (19) 
energy

$$$$
19:0
     RDKit          3D

 61 64  0  0  0  0  0  0  0  0999 V2000
    1.3640   16.8160  -32.4700 C   0  0  0  0  0  0  0  0  0  0  0  0
   -0.0850   16.8790  -32.8390 C   0  0  0  0  0  0  0  0  0  0  0  0
   -0.6100   15.9820  -33.7210 N   0  0  0  0  0  0  0  0  0  0  0  0
   -1.9140   16.2220  -33.9750 C   0  0  0  0  0  0  0  0  0  0  0  0
   -2.6850   15.4430  -34.9000 N   0  0  0  0  0  0  0  0  0  0  0  0
   -4.1440   15.5040  -34.9480 C   0  0  0  0  0  0  0  0  0  0  0  0
   -4.6150   16.9080  -35.3380 C   0  0  0  0  0  0  0  0  0  0  0  0
   -5.4350   17.5160  -34.2330 C   0  0  0  0  0  0  0  0  0  0  0  0
   -5.8090   16.7370  -33.1240 C   0  0  0  0  0  0  0  0  0  0  0  0
   -6.5320   17.3090  -32.0730 C   0  0  0  0  0  0  0  0  0  0  0  0
   -6.8800   18.6620  -32.1180 C   0  0  0  0  0  0  0  0  0  0  0  0
   -6.5010   19.4450  -33.2120 C   0  0  0  0  0  0  0  0  0  0  0  0
   -5.7760   18.8780  -34.2640 C   0  0  0  0  0  0  0  0  0  0  0  0
   -2.4750   17.5570  -33.1230 S   0  0  0  0  0  0  0  0  0  0  0  0
   -0.9950   17.8410  -32.3670 C   0  0  0  0  0  0  0  0  0  0  0  0
   -0.7610   18.9540  -31.4180 C   0  0  0  0  0  0  0  0  0  0  0  0
    0.3110   18.9240  -30.4880 C   0  0  0  0  0  0  0  0  0  0  0  0
    0.5010   19.9780  -29.5760 C   0  0  0  0  0  0  0  0  0  0  0  0
   -0.4110   21.0290  -29.5920 C   0  0  0  0  0  0  0  0  0  0  0  0
   -0.4720   22.1660  -28.8190 C   0  0  0  0  0  0  0  0  0  0  0  0
   -1.6130   22.8450  -29.2470 C   0  0  0  0  0  0  0  0  0  0  0  0
   -2.1120   24.0780  -28.6040 C   0  0  0  0  0  0  0  0  0  0  0  0
   -2.2050   25.3000  -29.3320 N   0  0  0  0  0  0  0  0  0  0  0  0
   -2.5080   24.0410  -27.4090 O   0  0  0  0  0  0  0  0  0  0  0  0
   -2.2240   22.1600  -30.2550 N   0  0  0  0  0  0  0  0  0  0  0  0
   -3.4010   22.5220  -30.9920 C   0  0  0  0  0  0  0  0  0  0  0  0
   -3.9920   21.6570  -31.6940 O   0  0  0  0  0  0  0  0  0  0  0  0
   -3.8950   23.8320  -30.8930 O   0  0  0  0  0  0  0  0  0  0  0  0
   -5.2680   24.2200  -30.7390 C   0  0  0  0  0  0  0  0  0  0  0  0
   -5.3750   25.7320  -30.4670 C   0  0  0  0  0  0  0  0  0  0  0  0
   -5.8210   23.4530  -29.5270 C   0  0  0  0  0  0  0  0  0  0  0  0
   -6.0830   23.8310  -31.9870 C   0  0  0  0  0  0  0  0  0  0  0  0
   -1.4760   21.0520  -30.4530 C   0  0  0  0  0  0  0  0  0  0  0  0
   -1.6670   20.0370  -31.3950 C   0  0  0  0  0  0  0  0  0  0  0  0
    1.4635   16.8117  -31.3745 H   0  0  0  0  0  0  0  0  0  0  0  0
    1.8077   15.8977  -32.8821 H   0  0  0  0  0  0  0  0  0  0  0  0
    1.8858   17.6923  -32.8821 H   0  0  0  0  0  0  0  0  0  0  0  0
   -2.1800   14.9030  -35.6380 H   0  0  0  0  0  0  0  0  0  0  0  0
   -4.5113   14.7807  -35.6909 H   0  0  0  0  0  0  0  0  0  0  0  0
   -4.5409   15.2623  -33.9510 H   0  0  0  0  0  0  0  0  0  0  0  0
   -3.7379   17.5437  -35.5293 H   0  0  0  0  0  0  0  0  0  0  0  0
   -5.2364   16.8356  -36.2428 H   0  0  0  0  0  0  0  0  0  0  0  0
   -5.5317   15.6733  -33.0831 H   0  0  0  0  0  0  0  0  0  0  0  0
   -6.8272   16.6939  -31.2101 H   0  0  0  0  0  0  0  0  0  0  0  0
   -7.4521   19.1105  -31.2925 H   0  0  0  0  0  0  0  0  0  0  0  0
   -6.7739   20.5101  -33.2452 H   0  0  0  0  0  0  0  0  0  0  0  0
   -5.4717   19.5003  -35.1185 H   0  0  0  0  0  0  0  0  0  0  0  0
    1.0007   18.0671  -30.4804 H   0  0  0  0  0  0  0  0  0  0  0  0
    1.3454   19.9716  -28.8711 H   0  0  0  0  0  0  0  0  0  0  0  0
    0.2303   22.4742  -28.0305 H   0  0  0  0  0  0  0  0  0  0  0  0
   -2.4930   25.3080  -30.3350 H   0  0  0  0  0  0  0  0  0  0  0  0
   -5.3875   25.9093  -29.3815 H   0  0  0  0  0  0  0  0  0  0  0  0
   -4.5110   26.2468  -30.9126 H   0  0  0  0  0  0  0  0  0  0  0  0
   -6.3028   26.1200  -30.9126 H   0  0  0  0  0  0  0  0  0  0  0  0
   -5.4747   23.9333  -28.6000 H   0  0  0  0  0  0  0  0  0  0  0  0
   -6.9205   23.4637  -29.5569 H   0  0  0  0  0  0  0  0  0  0  0  0
   -5.4635   22.4132  -29.5569 H   0  0  0  0  0  0  0  0  0  0  0  0
   -7.0352   23.3765  -31.6761 H   0  0  0  0  0  0  0  0  0  0  0  0
   -6.2847   24.7299  -32.5880 H   0  0  0  0  0  0  0  0  0  0  0  0
   -5.5110   23.1088  -32.5880 H   0  0  0  0  0  0  0  0  0  0  0  0
   -2.5065   20.0810  -32.1044 H   0  0  0  0  0  0  0  0  0  0  0  0
  1  2  1  0
  2  3  1  0
  3  4  2  0
  4  5  1  0
  5  6  1  0
  6  7  1  0
  7  8  1  0
  8  9  2  0
  9 10  1  0
 10 11  2  0
 11 12  1  0
 12 13  2  0
  4 14  1  0
 14 15  1  0
 15 16  1  0
 16 17  2  0
 17 18  1  0
 18 19  2  0
 19 20  1  0
 20 21  2  0
 21 22  1  0
 22 23  1  0
 22 24  2  0
 21 25  1  0
 25 26  1  0
 26 27  2  0
 26 28  1  0
 28 29  1  0
 29 30  1  0
 29 31  1  0
 29 32  1  0
 25 33  1  0
 33 34  2  0
 15  2  2  0
 34 16  1  0
 13  8  1  0
 33 19  1  0
  1 35  1  0
  1 36  1  0
  1 37  1  0
  5 38  1  0
  6 39  1  0
  6 40  1  0
  7 41  1  0
  7 42  1  0
  9 43  1  0
 10 44  1  0
 11 45  1  0
 12 46  1  0
 13 47  1  0
 17 48  1  0
 18 49  1  0
 20 50  1  0
 23 51  1  0
 30 52  1  0
 30 53  1  0
 30 54  1  0
 31 55  1  0
 31 56  1  0
 31 57  1  0
 32 58  1  0
 32 59  1  0
 32 60  1  0
 34 61  1  0
M  CHG  1  23  -1
M  END
>  <UniqueID>  (20) 
20

>  <SMILES>  (20) 
Cc1nc(NCCc2ccccc2)sc1-c1ccc2cc(C([NH-])=O)n(C(=O)OC(C)(C)C)c2c1

>  <Energy>  (20) 
126.73332031021467

>  <Genealogy>  (20) 
Cc1nc(NCCc2ccccc2)sc1-c1ccc2cc(C([NH-])=O)n(C(=O)OC(C)(C)C)c2c1 (protonated)
Cc1nc(NCCc2ccccc2)sc1-c1ccc2cc(C([NH-])=O)n(C(=O)OC(C)(C)C)c2c1 (3D coordinates assigned)
Cc1nc(NCCc2ccccc2)sc1-c1ccc2cc(C([NH-])=O)n(C(=O)OC(C)(C)C)c2c1 (optimized conformer: 126.73332031021467 kcal/mol)

>  <smiles>  (20) 
Cc1nc(NCCc2ccccc2)sc1-c1ccc2cc(C(N)=O)n(C(=O)OC(C)(C)C)c2c1

>  <score_type>  (20) 
oracle

>  <origin>  (20) 
adg

>  <m_score__min__energy>  (20) 
-10.92

>  <m_primary>  (20) 
energy

$$$$
20:0
     RDKit          3D

 53 55  0  0  0  0  0  0  0  0999 V2000
   -4.2590   13.7540  -31.6880 C   0  0  0  0  0  0  0  0  0  0  0  0
   -3.9440   14.9640  -32.4580 N   0  0  0  0  0  0  0  0  0  0  0  0
   -2.6080   15.1250  -33.0450 C   0  0  0  0  0  0  0  0  0  0  0  0
   -4.9260   16.0090  -32.6530 C   0  0  0  0  0  0  0  0  0  0  0  0
   -5.2490   16.4970  -33.9340 C   0  0  0  0  0  0  0  0  0  0  0  0
   -6.2220   17.4880  -34.0710 C   0  0  0  0  0  0  0  0  0  0  0  0
   -6.8880   17.9810  -32.9450 C   0  0  0  0  0  0  0  0  0  0  0  0
   -7.9130   18.9770  -33.0960 N   0  0  0  0  0  0  0  0  0  0  0  0
   -7.8440   20.2960  -32.5210 C   0  0  0  0  0  0  0  0  0  0  0  0
   -9.0400   20.9560  -32.1480 C   0  0  0  0  0  0  0  0  0  0  0  0
   -9.0040   22.2370  -31.5670 C   0  0  0  0  0  0  0  0  0  0  0  0
   -7.7600   22.8250  -31.3610 C   0  0  0  0  0  0  0  0  0  0  0  0
   -7.4360   24.0610  -30.8480 C   0  0  0  0  0  0  0  0  0  0  0  0
   -6.0440   24.1250  -30.8900 C   0  0  0  0  0  0  0  0  0  0  0  0
   -5.2650   25.2640  -30.3600 C   0  0  0  0  0  0  0  0  0  0  0  0
   -3.9690   25.5420  -30.8830 N   0  0  0  0  0  0  0  0  0  0  0  0
   -5.7480   26.0200  -29.4760 O   0  0  0  0  0  0  0  0  0  0  0  0
   -5.5270   22.9760  -31.4110 N   0  0  0  0  0  0  0  0  0  0  0  0
   -4.1560   22.6830  -31.7290 C   0  0  0  0  0  0  0  0  0  0  0  0
   -3.2330   23.1550  -31.0130 O   0  0  0  0  0  0  0  0  0  0  0  0
   -3.8630   21.9130  -32.8650 O   0  0  0  0  0  0  0  0  0  0  0  0
   -3.0360   20.7420  -32.9120 C   0  0  0  0  0  0  0  0  0  0  0  0
   -3.7060   19.6420  -33.7580 C   0  0  0  0  0  0  0  0  0  0  0  0
   -2.8890   20.2330  -31.4690 C   0  0  0  0  0  0  0  0  0  0  0  0
   -1.6400   21.0840  -33.4670 C   0  0  0  0  0  0  0  0  0  0  0  0
   -6.5900   22.1900  -31.6890 C   0  0  0  0  0  0  0  0  0  0  0  0
   -6.5990   20.9200  -32.2730 C   0  0  0  0  0  0  0  0  0  0  0  0
   -6.5140   17.5030  -31.6810 C   0  0  0  0  0  0  0  0  0  0  0  0
   -5.5650   16.5370  -31.5700 N   0  0  0  0  0  0  0  0  0  0  0  0
   -4.2006   13.9781  -30.6127 H   0  0  0  0  0  0  0  0  0  0  0  0
   -5.2753   13.4150  -31.9373 H   0  0  0  0  0  0  0  0  0  0  0  0
   -3.5370   12.9624  -31.9373 H   0  0  0  0  0  0  0  0  0  0  0  0
   -1.8627   15.2148  -32.2410 H   0  0  0  0  0  0  0  0  0  0  0  0
   -2.3727   14.2487  -33.6669 H   0  0  0  0  0  0  0  0  0  0  0  0
   -2.5876   16.0321  -33.6669 H   0  0  0  0  0  0  0  0  0  0  0  0
   -4.7368   16.0989  -34.8223 H   0  0  0  0  0  0  0  0  0  0  0  0
   -6.4658   17.8826  -35.0684 H   0  0  0  0  0  0  0  0  0  0  0  0
   -8.7910   18.7010  -33.5910 H   0  0  0  0  0  0  0  0  0  0  0  0
  -10.0084   20.4615  -32.3144 H   0  0  0  0  0  0  0  0  0  0  0  0
   -9.9309   22.7576  -31.2844 H   0  0  0  0  0  0  0  0  0  0  0  0
   -8.1284   24.8337  -30.4827 H   0  0  0  0  0  0  0  0  0  0  0  0
   -3.1080   25.2340  -30.3770 H   0  0  0  0  0  0  0  0  0  0  0  0
   -4.1616   18.8940  -33.0925 H   0  0  0  0  0  0  0  0  0  0  0  0
   -4.4844   20.0906  -34.3927 H   0  0  0  0  0  0  0  0  0  0  0  0
   -2.9503   19.1562  -34.3927 H   0  0  0  0  0  0  0  0  0  0  0  0
   -3.1241   21.0469  -30.7674 H   0  0  0  0  0  0  0  0  0  0  0  0
   -3.5818   19.3947  -31.3035 H   0  0  0  0  0  0  0  0  0  0  0  0
   -1.8560   19.8931  -31.3035 H   0  0  0  0  0  0  0  0  0  0  0  0
   -0.9449   21.2543  -32.6316 H   0  0  0  0  0  0  0  0  0  0  0  0
   -1.2755   20.2486  -34.0828 H   0  0  0  0  0  0  0  0  0  0  0  0
   -1.7029   21.9933  -34.0828 H   0  0  0  0  0  0  0  0  0  0  0  0
   -5.6569   20.4160  -32.5344 H   0  0  0  0  0  0  0  0  0  0  0  0
   -6.9900   17.9110  -30.7772 H   0  0  0  0  0  0  0  0  0  0  0  0
  1  2  1  0
  2  3  1  0
  2  4  1  0
  4  5  2  0
  5  6  1  0
  6  7  2  0
  7  8  1  0
  8  9  1  0
  9 10  2  0
 10 11  1  0
 11 12  2  0
 12 13  1  0
 13 14  2  0
 14 15  1  0
 15 16  1  0
 15 17  2  0
 14 18  1  0
 18 19  1  0
 19 20  2  0
 19 21  1  0
 21 22  1  0
 22 23  1  0
 22 24  1  0
 22 25  1  0
 18 26  1  0
 26 27  2  0
  7 28  1  0
 28 29  2  0
 29  4  1  0
 27  9  1  0
 26 12  1  0
  1 30  1  0
  1 31  1  0
  1 32  1  0
  3 33  1  0
  3 34  1  0
  3 35  1  0
  5 36  1  0
  6 37  1  0
  8 38  1  0
 10 39  1  0
 11 40  1  0
 13 41  1  0
 16 42  1  0
 23 43  1  0
 23 44  1  0
 23 45  1  0
 24 46  1  0
 24 47  1  0
 24 48  1  0
 25 49  1  0
 25 50  1  0
 25 51  1  0
 27 52  1  0
 28 53  1  0
M  CHG  1  16  -1
M  END
>  <UniqueID>  (21) 
21

>  <SMILES>  (21) 
CN(C)c1ccc(Nc2ccc3cc(C([NH-])=O)n(C(=O)OC(C)(C)C)c3c2)cn1

>  <Energy>  (21) 
92.34967756831513

>  <Genealogy>  (21) 
CN(C)c1ccc(Nc2ccc3cc(C([NH-])=O)n(C(=O)OC(C)(C)C)c3c2)cn1 (protonated)
CN(C)c1ccc(Nc2ccc3cc(C([NH-])=O)n(C(=O)OC(C)(C)C)c3c2)cn1 (3D coordinates assigned)
CN(C)c1ccc(Nc2ccc3cc(C([NH-])=O)n(C(=O)OC(C)(C)C)c3c2)cn1 (optimized conformer: 92.34967756831513 kcal/mol)

>  <smiles>  (21) 
CN(C)c1ccc(Nc2ccc3cc(C(N)=O)n(C(=O)OC(C)(C)C)c3c2)cn1

>  <score_type>  (21) 
oracle

>  <origin>  (21) 
adg

>  <m_score__min__energy>  (21) 
-11.619999999999999

>  <m_primary>  (21) 
energy

$$$$
21:0
     RDKit          3D

 64 66  0  0  0  0  0  0  0  0999 V2000
    0.3680   18.7230  -33.2240 C   0  0  0  0  0  0  0  0  0  0  0  0
   -0.6270   19.0320  -32.0870 C   0  0  0  0  0  0  0  0  0  0  0  0
   -0.7460   20.5520  -31.8660 C   0  0  0  0  0  0  0  0  0  0  0  0
   -0.1190   18.3790  -30.7920 C   0  0  0  0  0  0  0  0  0  0  0  0
   -1.9120   18.4620  -32.3740 O   0  0  0  0  0  0  0  0  0  0  0  0
   -2.7460   18.7850  -33.4580 C   0  0  0  0  0  0  0  0  0  0  0  0
   -2.3440   19.5620  -34.3670 O   0  0  0  0  0  0  0  0  0  0  0  0
   -4.0790   18.2450  -33.5220 N   0  0  0  0  0  0  0  0  0  0  0  0
   -4.5030   17.1740  -32.6100 C   0  0  0  0  0  0  0  0  0  0  0  0
   -5.7630   17.5870  -31.8350 C   0  0  0  0  0  0  0  0  0  0  0  0
   -6.7940   18.3740  -32.6960 C   0  0  0  0  0  0  0  0  0  0  0  0
   -6.9910   19.8110  -32.2300 C   0  0  0  0  0  0  0  0  0  0  0  0
   -8.2820   20.3250  -31.9240 C   0  0  0  0  0  0  0  0  0  0  0  0
   -8.4420   21.6320  -31.4360 C   0  0  0  0  0  0  0  0  0  0  0  0
   -7.2990   22.4060  -31.2580 C   0  0  0  0  0  0  0  0  0  0  0  0
   -7.1630   23.6850  -30.7700 C   0  0  0  0  0  0  0  0  0  0  0  0
   -5.7950   23.9450  -30.7860 C   0  0  0  0  0  0  0  0  0  0  0  0
   -5.2110   25.2530  -30.4200 C   0  0  0  0  0  0  0  0  0  0  0  0
   -3.9000   25.6170  -30.8440 N   0  0  0  0  0  0  0  0  0  0  0  0
   -5.8980   26.0820  -29.7670 O   0  0  0  0  0  0  0  0  0  0  0  0
   -5.1120   22.8630  -31.2580 N   0  0  0  0  0  0  0  0  0  0  0  0
   -3.6930   22.6920  -31.3720 C   0  0  0  0  0  0  0  0  0  0  0  0
   -3.2110   22.1470  -32.4030 O   0  0  0  0  0  0  0  0  0  0  0  0
   -2.8630   23.1420  -30.3350 O   0  0  0  0  0  0  0  0  0  0  0  0
   -2.7460   22.5640  -29.0270 C   0  0  0  0  0  0  0  0  0  0  0  0
   -1.3680   22.9630  -28.4780 C   0  0  0  0  0  0  0  0  0  0  0  0
   -3.8340   23.1180  -28.0880 C   0  0  0  0  0  0  0  0  0  0  0  0
   -2.8250   21.0280  -29.1030 C   0  0  0  0  0  0  0  0  0  0  0  0
   -6.0480   21.9330  -31.5480 C   0  0  0  0  0  0  0  0  0  0  0  0
   -5.8570   20.6300  -32.0200 C   0  0  0  0  0  0  0  0  0  0  0  0
   -6.4700   18.3240  -34.2060 C   0  0  0  0  0  0  0  0  0  0  0  0
   -5.0350   18.7820  -34.5000 C   0  0  0  0  0  0  0  0  0  0  0  0
    1.3348   18.4228  -32.7937 H   0  0  0  0  0  0  0  0  0  0  0  0
   -0.0269   17.9052  -33.8447 H   0  0  0  0  0  0  0  0  0  0  0  0
    0.5058   19.6207  -33.8447 H   0  0  0  0  0  0  0  0  0  0  0  0
   -0.7627   20.7654  -30.7870 H   0  0  0  0  0  0  0  0  0  0  0  0
    0.1153   21.0580  -32.3266 H   0  0  0  0  0  0  0  0  0  0  0  0
   -1.6755   20.9178  -32.3266 H   0  0  0  0  0  0  0  0  0  0  0  0
   -0.5344   18.9130  -29.9247 H   0  0  0  0  0  0  0  0  0  0  0  0
   -0.4384   17.3268  -30.7622 H   0  0  0  0  0  0  0  0  0  0  0  0
    0.9794   18.4298  -30.7622 H   0  0  0  0  0  0  0  0  0  0  0  0
   -4.7194   16.2673  -33.1940 H   0  0  0  0  0  0  0  0  0  0  0  0
   -3.6933   16.9811  -31.8909 H   0  0  0  0  0  0  0  0  0  0  0  0
   -6.2505   16.6776  -31.4536 H   0  0  0  0  0  0  0  0  0  0  0  0
   -5.4388   18.2583  -31.0262 H   0  0  0  0  0  0  0  0  0  0  0  0
   -7.7502   17.8520  -32.5437 H   0  0  0  0  0  0  0  0  0  0  0  0
   -9.1675   19.6894  -32.0718 H   0  0  0  0  0  0  0  0  0  0  0  0
   -9.4397   22.0317  -31.2017 H   0  0  0  0  0  0  0  0  0  0  0  0
   -7.9654   24.3599  -30.4374 H   0  0  0  0  0  0  0  0  0  0  0  0
   -3.0580   25.2990  -30.3140 H   0  0  0  0  0  0  0  0  0  0  0  0
   -1.3951   22.9552  -27.3784 H   0  0  0  0  0  0  0  0  0  0  0  0
   -0.6112   22.2471  -28.8312 H   0  0  0  0  0  0  0  0  0  0  0  0
   -1.1108   23.9725  -28.8312 H   0  0  0  0  0  0  0  0  0  0  0  0
   -3.5296   22.9630  -27.0424 H   0  0  0  0  0  0  0  0  0  0  0  0
   -3.9672   24.1937  -28.2755 H   0  0  0  0  0  0  0  0  0  0  0  0
   -4.7823   22.5930  -28.2755 H   0  0  0  0  0  0  0  0  0  0  0  0
   -2.8464   20.6112  -28.0853 H   0  0  0  0  0  0  0  0  0  0  0  0
   -3.7395   20.7340  -29.6390 H   0  0  0  0  0  0  0  0  0  0  0  0
   -1.9455   20.6417  -29.6390 H   0  0  0  0  0  0  0  0  0  0  0  0
   -4.8451   20.2499  -32.2238 H   0  0  0  0  0  0  0  0  0  0  0  0
   -6.5932   17.2905  -34.5619 H   0  0  0  0  0  0  0  0  0  0  0  0
   -7.1585   19.0073  -34.7247 H   0  0  0  0  0  0  0  0  0  0  0  0
   -4.7494   18.4354  -35.5042 H   0  0  0  0  0  0  0  0  0  0  0  0
   -5.0072   19.8799  -34.4376 H   0  0  0  0  0  0  0  0  0  0  0  0
  1  2  1  0
  2  3  1  0
  2  4  1  0
  2  5  1  0
  5  6  1  0
  6  7  2  0
  6  8  1  0
  8  9  1  0
  9 10  1  0
 10 11  1  0
 11 12  1  0
 12 13  2  0
 13 14  1  0
 14 15  2  0
 15 16  1  0
 16 17  2  0
 17 18  1  0
 18 19  1  0
 18 20  2  0
 17 21  1  0
 21 22  1  0
 22 23  2  0
 22 24  1  0
 24 25  1  0
 25 26  1  0
 25 27  1  0
 25 28  1  0
 21 29  1  0
 29 30  2  0
 11 31  1  0
 31 32  1  0
 32  8  1  0
 30 12  1  0
 29 15  1  0
  1 33  1  0
  1 34  1  0
  1 35  1  0
  3 36  1  0
  3 37  1  0
  3 38  1  0
  4 39  1  0
  4 40  1  0
  4 41  1  0
  9 42  1  0
  9 43  1  0
 10 44  1  0
 10 45  1  0
 11 46  1  0
 13 47  1  0
 14 48  1  0
 16 49  1  0
 19 50  1  0
 26 51  1  0
 26 52  1  0
 26 53  1  0
 27 54  1  0
 27 55  1  0
 27 56  1  0
 28 57  1  0
 28 58  1  0
 28 59  1  0
 30 60  1  0
 31 61  1  0
 31 62  1  0
 32 63  1  0
 32 64  1  0
M  CHG  1  19  -1
M  END
>  <UniqueID>  (22) 
22

>  <SMILES>  (22) 
CC(C)(C)OC(=O)N1CCC(c2ccc3cc(C([NH-])=O)n(C(=O)OC(C)(C)C)c3c2)CC1

>  <Energy>  (22) 
97.91433780988521

>  <Genealogy>  (22) 
CC(C)(C)OC(=O)N1CCC(c2ccc3cc(C([NH-])=O)n(C(=O)OC(C)(C)C)c3c2)CC1 (protonated)
CC(C)(C)OC(=O)N1CCC(c2ccc3cc(C([NH-])=O)n(C(=O)OC(C)(C)C)c3c2)CC1 (3D coordinates assigned)
CC(C)(C)OC(=O)N1CCC(c2ccc3cc(C([NH-])=O)n(C(=O)OC(C)(C)C)c3c2)CC1 (nonaromatic ring conformer: 97.91433780988521 kcal/mol)

>  <smiles>  (22) 
CC(C)(C)OC(=O)N1CCC(c2ccc3cc(C(N)=O)n(C(=O)OC(C)(C)C)c3c2)CC1

>  <score_type>  (22) 
oracle

>  <origin>  (22) 
adg

>  <m_score__min__energy>  (22) 
-11.720000000000001

>  <m_primary>  (22) 
energy

$$$$
22:0
     RDKit          3D

 48 50  0  0  0  0  0  0  0  0999 V2000
   -3.9660   14.0850  -34.9710 C   0  0  0  0  0  0  0  0  0  0  0  0
   -5.2900   14.5280  -34.6910 O   0  0  0  0  0  0  0  0  0  0  0  0
   -5.6110   15.7980  -34.1910 C   0  0  0  0  0  0  0  0  0  0  0  0
   -6.8520   16.0840  -33.5930 C   0  0  0  0  0  0  0  0  0  0  0  0
   -7.1240   17.3680  -33.1100 C   0  0  0  0  0  0  0  0  0  0  0  0
   -6.1630   18.3880  -33.2140 C   0  0  0  0  0  0  0  0  0  0  0  0
   -6.4540   19.7530  -32.7040 C   0  0  0  0  0  0  0  0  0  0  0  0
   -7.7940   20.2120  -32.6010 C   0  0  0  0  0  0  0  0  0  0  0  0
   -8.0790   21.4970  -32.1110 C   0  0  0  0  0  0  0  0  0  0  0  0
   -7.0110   22.3060  -31.7390 C   0  0  0  0  0  0  0  0  0  0  0  0
   -7.0030   23.5780  -31.2120 C   0  0  0  0  0  0  0  0  0  0  0  0
   -5.6590   23.8920  -31.0240 C   0  0  0  0  0  0  0  0  0  0  0  0
   -5.1910   25.2110  -30.5510 C   0  0  0  0  0  0  0  0  0  0  0  0
   -3.8730   25.6700  -30.8420 N   0  0  0  0  0  0  0  0  0  0  0  0
   -5.9810   25.9660  -29.9220 O   0  0  0  0  0  0  0  0  0  0  0  0
   -4.8670   22.8500  -31.4080 N   0  0  0  0  0  0  0  0  0  0  0  0
   -3.4410   22.7370  -31.2990 C   0  0  0  0  0  0  0  0  0  0  0  0
   -2.8730   23.0240  -30.2110 O   0  0  0  0  0  0  0  0  0  0  0  0
   -2.7020   22.2780  -32.4000 O   0  0  0  0  0  0  0  0  0  0  0  0
   -2.0260   21.0170  -32.5060 C   0  0  0  0  0  0  0  0  0  0  0  0
   -0.5190   21.3140  -32.5400 C   0  0  0  0  0  0  0  0  0  0  0  0
   -2.4220   20.3010  -33.8110 C   0  0  0  0  0  0  0  0  0  0  0  0
   -2.3340   20.1320  -31.2830 C   0  0  0  0  0  0  0  0  0  0  0  0
   -5.7100   21.8890  -31.8460 C   0  0  0  0  0  0  0  0  0  0  0  0
   -5.3960   20.6080  -32.3130 C   0  0  0  0  0  0  0  0  0  0  0  0
   -4.9250   18.0970  -33.8130 C   0  0  0  0  0  0  0  0  0  0  0  0
   -4.6550   16.8140  -34.2950 C   0  0  0  0  0  0  0  0  0  0  0  0
   -3.4317   13.9062  -34.0263 H   0  0  0  0  0  0  0  0  0  0  0  0
   -4.0067   13.1515  -35.5515 H   0  0  0  0  0  0  0  0  0  0  0  0
   -3.4368   14.8550  -35.5515 H   0  0  0  0  0  0  0  0  0  0  0  0
   -7.6121   15.2938  -33.5049 H   0  0  0  0  0  0  0  0  0  0  0  0
   -8.0978   17.5812  -32.6450 H   0  0  0  0  0  0  0  0  0  0  0  0
   -8.6190   19.5528  -32.9089 H   0  0  0  0  0  0  0  0  0  0  0  0
   -9.1162   21.8528  -32.0241 H   0  0  0  0  0  0  0  0  0  0  0  0
   -7.8734   24.2119  -30.9871 H   0  0  0  0  0  0  0  0  0  0  0  0
   -3.0360   25.1760  -30.4610 H   0  0  0  0  0  0  0  0  0  0  0  0
   -0.1368   21.3893  -31.5113 H   0  0  0  0  0  0  0  0  0  0  0  0
    0.0031   20.5015  -33.0665 H   0  0  0  0  0  0  0  0  0  0  0  0
   -0.3443   22.2639  -33.0665 H   0  0  0  0  0  0  0  0  0  0  0  0
   -2.9415   19.3617  -33.5707 H   0  0  0  0  0  0  0  0  0  0  0  0
   -3.0896   20.9497  -34.3971 H   0  0  0  0  0  0  0  0  0  0  0  0
   -1.5177   20.0803  -34.3971 H   0  0  0  0  0  0  0  0  0  0  0  0
   -2.1367   20.6989  -30.3612 H   0  0  0  0  0  0  0  0  0  0  0  0
   -3.3908   19.8278  -31.3073 H   0  0  0  0  0  0  0  0  0  0  0  0
   -1.6943   19.2374  -31.3073 H   0  0  0  0  0  0  0  0  0  0  0  0
   -4.3501   20.2728  -32.3749 H   0  0  0  0  0  0  0  0  0  0  0  0
   -4.1632   18.8854  -33.9028 H   0  0  0  0  0  0  0  0  0  0  0  0
   -3.6816   16.6006  -34.7607 H   0  0  0  0  0  0  0  0  0  0  0  0
  1  2  1  0
  2  3  1  0
  3  4  2  0
  4  5  1  0
  5  6  2  0
  6  7  1  0
  7  8  2  0
  8  9  1  0
  9 10  2  0
 10 11  1  0
 11 12  2  0
 12 13  1  0
 13 14  1  0
 13 15  2  0
 12 16  1  0
 16 17  1  0
 17 18  2  0
 17 19  1  0
 19 20  1  0
 20 21  1  0
 20 22  1  0
 20 23  1  0
 16 24  1  0
 24 25  2  0
  6 26  1  0
 26 27  2  0
 27  3  1  0
 25  7  1  0
 24 10  1  0
  1 28  1  0
  1 29  1  0
  1 30  1  0
  4 31  1  0
  5 32  1  0
  8 33  1  0
  9 34  1  0
 11 35  1  0
 14 36  1  0
 21 37  1  0
 21 38  1  0
 21 39  1  0
 22 40  1  0
 22 41  1  0
 22 42  1  0
 23 43  1  0
 23 44  1  0
 23 45  1  0
 25 46  1  0
 26 47  1  0
 27 48  1  0
M  CHG  1  14  -1
M  END
>  <UniqueID>  (23) 
23

>  <SMILES>  (23) 
COc1ccc(-c2ccc3cc(C([NH-])=O)n(C(=O)OC(C)(C)C)c3c2)cc1

>  <Energy>  (23) 
88.76988587797243

>  <Genealogy>  (23) 
COc1ccc(-c2ccc3cc(C([NH-])=O)n(C(=O)OC(C)(C)C)c3c2)cc1 (protonated)
COc1ccc(-c2ccc3cc(C([NH-])=O)n(C(=O)OC(C)(C)C)c3c2)cc1 (3D coordinates assigned)
COc1ccc(-c2ccc3cc(C([NH-])=O)n(C(=O)OC(C)(C)C)c3c2)cc1 (optimized conformer: 88.76988587797243 kcal/mol)

>  <smiles>  (23) 
COc1ccc(-c2ccc3cc(C(N)=O)n(C(=O)OC(C)(C)C)c3c2)cc1

>  <score_type>  (23) 
oracle

>  <origin>  (23) 
adg

>  <m_score__min__energy>  (23) 
-10.85

>  <m_primary>  (23) 
energy

$$$$
23:0
     RDKit          3D

 61 65  0  0  1  0  0  0  0  0999 V2000
   -6.0510   18.8400  -34.5450 C   0  0  0  0  0  0  0  0  0  0  0  0
   -6.0220   17.7320  -33.5110 C   0  0  0  0  0  0  0  0  0  0  0  0
   -4.5650   17.3200  -33.3740 C   0  0  0  0  0  0  0  0  0  0  0  0
   -6.8000   16.5270  -33.9500 C   0  0  0  0  0  0  0  0  0  0  0  0
   -6.4780   18.2530  -32.2760 O   0  0  0  0  0  0  0  0  0  0  0  0
   -6.0320   19.4120  -31.7120 C   0  0  0  0  0  0  0  0  0  0  0  0
   -4.8090   19.4060  -31.3540 O   0  0  0  0  0  0  0  0  0  0  0  0
   -6.7820   20.5910  -31.4910 N   0  0  0  0  0  0  0  0  0  0  0  0
   -8.0770   20.8030  -31.7680 C   0  0  0  0  0  0  0  0  0  0  0  0
   -9.0940   19.9640  -32.3480 C   0  0  0  0  0  0  0  0  0  0  0  0
   -9.0230   18.5790  -32.6080 N   0  0  0  0  0  0  0  0  0  0  0  0
  -10.2140   20.4970  -32.6830 O   0  0  0  0  0  0  0  0  0  0  0  0
   -8.3520   22.1230  -31.3680 C   0  0  0  0  0  0  0  0  0  0  0  0
   -7.2180   22.6910  -30.8550 C   0  0  0  0  0  0  0  0  0  0  0  0
   -6.9850   23.9440  -30.3410 C   0  0  0  0  0  0  0  0  0  0  0  0
   -5.7330   24.2850  -29.8790 C   0  0  0  0  0  0  0  0  0  0  0  0
   -4.7360   23.3360  -29.9480 C   0  0  0  0  0  0  0  0  0  0  0  0
   -3.4110   23.7000  -29.4580 C   0  0  0  0  0  0  0  0  0  0  0  0
   -2.2460   23.2360  -30.0670 C   0  0  0  0  0  0  0  0  0  0  0  0
   -0.9870   23.5990  -29.5800 C   0  0  0  0  0  0  0  0  0  0  0  0
   -0.9110   24.4280  -28.4800 C   0  0  0  0  0  0  0  0  0  0  0  0
    0.1190   24.9650  -27.7610 N   0  0  0  0  0  0  0  0  0  0  0  0
   -0.3880   25.7160  -26.7670 C   0  0  0  0  0  0  0  0  0  0  0  0
    0.3960   26.4520  -25.7860 C   0  0  0  0  0  0  0  0  0  0  0  0
    0.7380   27.7350  -26.0120 C   0  0  0  0  0  0  0  0  0  0  0  0
    1.5420   28.3530  -24.9130 C   0  0  0  0  0  0  0  0  0  0  0  0
    0.8000   28.1670  -23.7080 N   0  0  0  0  0  0  0  0  0  0  0  0
    0.5620   26.8000  -23.3630 C   0  0  1  0  0  0  0  0  0  0  0  0
   -0.7570   26.7040  -22.9500 F   0  0  0  0  0  0  0  0  0  0  0  0
    0.8690   25.8860  -24.5090 C   0  0  0  0  0  0  0  0  0  0  0  0
   -1.7310   25.6870  -26.8120 N   0  0  0  0  0  0  0  0  0  0  0  0
   -2.0680   24.8910  -27.8700 C   0  0  0  0  0  0  0  0  0  0  0  0
   -3.3180   24.5340  -28.3500 C   0  0  0  0  0  0  0  0  0  0  0  0
   -4.9920   22.0660  -30.4750 C   0  0  0  0  0  0  0  0  0  0  0  0
   -6.2450   21.7200  -30.9390 C   0  0  0  0  0  0  0  0  0  0  0  0
   -6.0765   19.8152  -34.0368 H   0  0  0  0  0  0  0  0  0  0  0  0
   -5.1509   18.7779  -35.1743 H   0  0  0  0  0  0  0  0  0  0  0  0
   -6.9466   18.7309  -35.1743 H   0  0  0  0  0  0  0  0  0  0  0  0
   -4.3035   17.2461  -32.3081 H   0  0  0  0  0  0  0  0  0  0  0  0
   -4.4130   16.3437  -33.8574 H   0  0  0  0  0  0  0  0  0  0  0  0
   -3.9242   18.0722  -33.8574 H   0  0  0  0  0  0  0  0  0  0  0  0
   -7.1548   15.9775  -33.0656 H   0  0  0  0  0  0  0  0  0  0  0  0
   -7.6624   16.8471  -34.5532 H   0  0  0  0  0  0  0  0  0  0  0  0
   -6.1533   15.8728  -34.5532 H   0  0  0  0  0  0  0  0  0  0  0  0
   -8.6590   18.2450  -33.5440 H   0  0  0  0  0  0  0  0  0  0  0  0
   -9.3430   17.8920  -31.8630 H   0  0  0  0  0  0  0  0  0  0  0  0
   -9.3285   22.6219  -31.4543 H   0  0  0  0  0  0  0  0  0  0  0  0
   -7.8027   24.6785  -30.2983 H   0  0  0  0  0  0  0  0  0  0  0  0
   -5.5347   25.2855  -29.4670 H   0  0  0  0  0  0  0  0  0  0  0  0
   -2.3185   22.5749  -30.9432 H   0  0  0  0  0  0  0  0  0  0  0  0
   -0.0719   23.2297  -30.0659 H   0  0  0  0  0  0  0  0  0  0  0  0
    0.4514   28.2797  -26.9237 H   0  0  0  0  0  0  0  0  0  0  0  0
    2.5214   27.8583  -24.8354 H   0  0  0  0  0  0  0  0  0  0  0  0
    1.7217   29.4209  -25.1064 H   0  0  0  0  0  0  0  0  0  0  0  0
   -0.0770   28.7460  -23.7430 H   0  0  0  0  0  0  0  0  0  0  0  0
    1.2295   26.4821  -22.5485 H   0  0  0  0  0  0  0  0  0  0  0  0
    1.9571   25.7344  -24.5652 H   0  0  0  0  0  0  0  0  0  0  0  0
    0.3517   24.9301  -24.3396 H   0  0  0  0  0  0  0  0  0  0  0  0
   -2.3670   26.1850  -26.1540 H   0  0  0  0  0  0  0  0  0  0  0  0
   -4.2285   24.9073  -27.8585 H   0  0  0  0  0  0  0  0  0  0  0  0
   -4.1779   21.3277  -30.5206 H   0  0  0  0  0  0  0  0  0  0  0  0
  1  2  1  0
  2  3  1  0
  2  4  1  0
  2  5  1  0
  5  6  1  0
  6  7  2  0
  6  8  1  0
  8  9  1  0
  9 10  1  0
 10 11  1  0
 10 12  2  0
  9 13  2  0
 13 14  1  0
 14 15  2  0
 15 16  1  0
 16 17  2  0
 17 18  1  0
 18 19  2  0
 19 20  1  0
 20 21  2  0
 21 22  1  0
 22 23  2  0
 23 24  1  0
 24 25  2  0
 25 26  1  0
 26 27  1  0
 27 28  1  0
 28 29  1  0
 28 30  1  0
 23 31  1  0
 31 32  1  0
 32 33  2  0
 17 34  1  0
 34 35  2  0
 35  8  1  0
 35 14  1  0
 33 18  1  0
 32 21  1  0
 30 24  1  0
  1 36  1  0
  1 37  1  0
  1 38  1  0
  3 39  1  0
  3 40  1  0
  3 41  1  0
  4 42  1  0
  4 43  1  0
  4 44  1  0
 11 45  1  0
 11 46  1  0
 13 47  1  0
 15 48  1  0
 16 49  1  0
 19 50  1  0
 20 51  1  0
 25 52  1  0
 26 53  1  0
 26 54  1  0
 27 55  1  0
 28 56  1  1
 30 57  1  0
 30 58  1  0
 31 59  1  0
 33 60  1  0
 34 61  1  0
M  END
>  <smiles>  (24) 
CC(C)(C)OC(=O)n1c(C(N)=O)cc2ccc(-c3ccc4nc(C5=CCNC(F)C5)[nH]c4c3)cc21

>  <score_type>  (24) 
oracle

>  <origin>  (24) 
adg

>  <m_score__min__energy>  (24) 
-10.300000000000001

>  <m_primary>  (24) 
energy

$$$$
24:0
     RDKit          3D

 25 26  0  0  0  0  0  0  0  0999 V2000
   -4.0510   19.2010  -33.4940 C   0  0  0  0  0  0  0  0  0  0  0  0
   -4.9620   20.2430  -32.9160 C   0  0  0  0  0  0  0  0  0  0  0  0
   -6.3550   20.1790  -33.1590 C   0  0  0  0  0  0  0  0  0  0  0  0
   -7.2140   21.1760  -32.6660 C   0  0  0  0  0  0  0  0  0  0  0  0
   -6.6500   22.2210  -31.9410 C   0  0  0  0  0  0  0  0  0  0  0  0
   -7.2440   23.3310  -31.3870 C   0  0  0  0  0  0  0  0  0  0  0  0
   -6.2060   24.0490  -30.8010 C   0  0  0  0  0  0  0  0  0  0  0  0
   -6.4130   25.2930  -30.0320 C   0  0  0  0  0  0  0  0  0  0  0  0
   -5.6480   26.4680  -30.3080 N   0  0  0  0  0  0  0  0  0  0  0  0
   -7.2380   25.3020  -29.0800 O   0  0  0  0  0  0  0  0  0  0  0  0
   -5.0130   23.4200  -30.9960 N   0  0  0  0  0  0  0  0  0  0  0  0
   -3.7050   23.9090  -30.6510 C   0  0  0  0  0  0  0  0  0  0  0  0
   -2.7410   23.1110  -30.5110 O   0  0  0  0  0  0  0  0  0  0  0  0
   -3.4890   25.2700  -30.4740 O   0  0  0  0  0  0  0  0  0  0  0  0
   -5.3020   22.2980  -31.6930 C   0  0  0  0  0  0  0  0  0  0  0  0
   -4.4220   21.3290  -32.1910 C   0  0  0  0  0  0  0  0  0  0  0  0
   -3.5653   18.6454  -32.6783 H   0  0  0  0  0  0  0  0  0  0  0  0
   -4.6360   18.5056  -34.1138 H   0  0  0  0  0  0  0  0  0  0  0  0
   -3.2837   19.6879  -34.1138 H   0  0  0  0  0  0  0  0  0  0  0  0
   -6.7690   19.3411  -33.7391 H   0  0  0  0  0  0  0  0  0  0  0  0
   -8.2980   21.1316  -32.8476 H   0  0  0  0  0  0  0  0  0  0  0  0
   -8.3118   23.5948  -31.4036 H   0  0  0  0  0  0  0  0  0  0  0  0
   -5.8320   27.3480  -29.7780 H   0  0  0  0  0  0  0  0  0  0  0  0
   -4.8470   26.4450  -30.9750 H   0  0  0  0  0  0  0  0  0  0  0  0
   -3.3382   21.4112  -32.0221 H   0  0  0  0  0  0  0  0  0  0  0  0
  1  2  1  0
  2  3  2  0
  3  4  1  0
  4  5  2  0
  5  6  1  0
  6  7  2  0
  7  8  1  0
  8  9  1  0
  8 10  2  0
  7 11  1  0
 11 12  1  0
 12 13  2  0
 12 14  1  0
 11 15  1  0
 15 16  2  0
 16  2  1  0
 15  5  1  0
  1 17  1  0
  1 18  1  0
  1 19  1  0
  3 20  1  0
  4 21  1  0
  6 22  1  0
  9 23  1  0
  9 24  1  0
 16 25  1  0
M  CHG  1  14  -1
M  END
>  <UniqueID>  (25) 
24

>  <SMILES>  (25) 
Cc1ccc2cc(C(N)=O)n(C(=O)[O-])c2c1

>  <Energy>  (25) 
64.83387178744431

>  <Genealogy>  (25) 
Cc1ccc2cc(C(N)=O)n(C(=O)[O-])c2c1 (protonated)
Cc1ccc2cc(C(N)=O)n(C(=O)[O-])c2c1 (3D coordinates assigned)
Cc1ccc2cc(C(N)=O)n(C(=O)[O-])c2c1 (optimized conformer: 64.83387178744431 kcal/mol)

>  <smiles>  (25) 
Cc1ccc2cc(C(N)=O)n(C(=O)O)c2c1

>  <score_type>  (25) 
oracle

>  <origin>  (25) 
adg

>  <m_score__min__energy>  (25) 
-8.0500000000000007

>  <m_primary>  (25) 
energy

$$$$
25:0
     RDKit          3D

 47 49  0  0  0  0  0  0  0  0999 V2000
   -3.7410   23.1990  -28.3780 C   0  0  0  0  0  0  0  0  0  0  0  0
   -2.7280   22.6040  -29.3750 C   0  0  0  0  0  0  0  0  0  0  0  0
   -2.9820   21.0950  -29.5010 C   0  0  0  0  0  0  0  0  0  0  0  0
   -1.2850   22.8260  -28.8830 C   0  0  0  0  0  0  0  0  0  0  0  0
   -2.9120   23.1740  -30.6790 O   0  0  0  0  0  0  0  0  0  0  0  0
   -3.8300   22.7500  -31.6510 C   0  0  0  0  0  0  0  0  0  0  0  0
   -3.4370   22.2390  -32.7350 O   0  0  0  0  0  0  0  0  0  0  0  0
   -5.2370   22.9250  -31.4180 N   0  0  0  0  0  0  0  0  0  0  0  0
   -5.8740   24.0490  -30.9820 C   0  0  0  0  0  0  0  0  0  0  0  0
   -5.2230   25.2780  -30.4850 C   0  0  0  0  0  0  0  0  0  0  0  0
   -3.8910   25.6080  -30.8660 N   0  0  0  0  0  0  0  0  0  0  0  0
   -5.8350   26.0240  -29.6750 O   0  0  0  0  0  0  0  0  0  0  0  0
   -7.2550   23.8610  -30.9910 C   0  0  0  0  0  0  0  0  0  0  0  0
   -7.4450   22.5760  -31.4430 C   0  0  0  0  0  0  0  0  0  0  0  0
   -8.6240   21.8700  -31.6660 C   0  0  0  0  0  0  0  0  0  0  0  0
   -8.5260   20.5650  -32.1730 C   0  0  0  0  0  0  0  0  0  0  0  0
   -7.2610   19.9890  -32.4560 C   0  0  0  0  0  0  0  0  0  0  0  0
   -7.1820   18.5840  -33.0280 C   0  0  2  0  0  0  0  0  0  0  0  0
   -6.8460   17.5310  -31.9730 C   0  0  0  0  0  0  0  0  0  0  0  0
   -5.5150   16.9400  -32.4110 C   0  0  0  0  0  0  0  0  0  0  0  0
   -5.3770   17.2020  -33.8410 N   0  0  0  0  0  0  0  0  0  0  0  0
   -6.0920   18.4520  -34.0980 C   0  0  0  0  0  0  0  0  0  0  0  0
   -6.0860   20.7420  -32.2210 C   0  0  0  0  0  0  0  0  0  0  0  0
   -6.2120   22.0320  -31.6950 C   0  0  0  0  0  0  0  0  0  0  0  0
   -3.4034   23.0007  -27.3500 H   0  0  0  0  0  0  0  0  0  0  0  0
   -3.8165   24.2850  -28.5361 H   0  0  0  0  0  0  0  0  0  0  0  0
   -4.7262   22.7361  -28.5361 H   0  0  0  0  0  0  0  0  0  0  0  0
   -3.0568   20.6507  -28.4975 H   0  0  0  0  0  0  0  0  0  0  0  0
   -3.9213   20.9257  -30.0479 H   0  0  0  0  0  0  0  0  0  0  0  0
   -2.1499   20.6275  -30.0479 H   0  0  0  0  0  0  0  0  0  0  0  0
   -1.2689   22.8285  -27.7831 H   0  0  0  0  0  0  0  0  0  0  0  0
   -0.6413   22.0163  -29.2573 H   0  0  0  0  0  0  0  0  0  0  0  0
   -0.9145   23.7917  -29.2573 H   0  0  0  0  0  0  0  0  0  0  0  0
   -3.0740   25.2960  -30.2940 H   0  0  0  0  0  0  0  0  0  0  0  0
   -8.0286   24.5863  -30.6987 H   0  0  0  0  0  0  0  0  0  0  0  0
   -9.6037   22.3218  -31.4511 H   0  0  0  0  0  0  0  0  0  0  0  0
   -9.4411   19.9818  -32.3531 H   0  0  0  0  0  0  0  0  0  0  0  0
   -8.1839   18.4134  -33.4488 H   0  0  0  0  0  0  0  0  0  0  0  0
   -6.7541   17.9952  -30.9800 H   0  0  0  0  0  0  0  0  0  0  0  0
   -7.6304   16.7640  -31.8926 H   0  0  0  0  0  0  0  0  0  0  0  0
   -4.6912   17.4162  -31.8592 H   0  0  0  0  0  0  0  0  0  0  0  0
   -5.4807   15.8597  -32.2064 H   0  0  0  0  0  0  0  0  0  0  0  0
   -4.3680   17.2870  -34.1050 H   0  0  0  0  0  0  0  0  0  0  0  0
   -5.8210   16.4240  -34.3840 H   0  0  0  0  0  0  0  0  0  0  0  0
   -5.3974   19.3026  -34.0343 H   0  0  0  0  0  0  0  0  0  0  0  0
   -6.5345   18.4468  -35.1051 H   0  0  0  0  0  0  0  0  0  0  0  0
   -5.0949   20.3218  -32.4471 H   0  0  0  0  0  0  0  0  0  0  0  0
  1  2  1  0
  2  3  1  0
  2  4  1  0
  2  5  1  0
  5  6  1  0
  6  7  2  0
  6  8  1  0
  8  9  1  0
  9 10  1  0
 10 11  1  0
 10 12  2  0
  9 13  2  0
 13 14  1  0
 14 15  2  0
 15 16  1  0
 16 17  2  0
 17 18  1  0
 18 19  1  0
 19 20  1  0
 20 21  1  0
 21 22  1  0
 17 23  1  0
 23 24  2  0
 24  8  1  0
 24 14  1  0
 22 18  1  0
  1 25  1  0
  1 26  1  0
  1 27  1  0
  3 28  1  0
  3 29  1  0
  3 30  1  0
  4 31  1  0
  4 32  1  0
  4 33  1  0
 11 34  1  0
 13 35  1  0
 15 36  1  0
 16 37  1  0
 18 38  1  6
 19 39  1  0
 19 40  1  0
 20 41  1  0
 20 42  1  0
 21 43  1  0
 21 44  1  0
 22 45  1  0
 22 46  1  0
 23 47  1  0
M  CHG  2  11  -1  21   1
M  END
>  <UniqueID>  (26) 
25

>  <SMILES>  (26) 
CC(C)(C)OC(=O)n1c(C([NH-])=O)cc2ccc([C@@H]3CC[NH2+]C3)cc21

>  <Energy>  (26) 
84.33098397721832

>  <Genealogy>  (26) 
CC(C)(C)OC(=O)n1c(C([NH-])=O)cc2ccc(C3CC[NH2+]C3)cc21 (protonated)
CC(C)(C)OC(=O)n1c(C([NH-])=O)cc2ccc([C@@H]3CC[NH2+]C3)cc21 (chirality)
CC(C)(C)OC(=O)n1c(C([NH-])=O)cc2ccc([C@@H]3CC[NH2+]C3)cc21 (3D coordinates assigned)
CC(C)(C)OC(=O)n1c(C([NH-])=O)cc2ccc([C@@H]3CC[NH2+]C3)cc21 (nonaromatic ring conformer: 84.33098397721832 kcal/mol)

>  <smiles>  (26) 
CC(C)(C)OC(=O)n1c(C(N)=O)cc2ccc(C3CCNC3)cc21

>  <score_type>  (26) 
oracle

>  <origin>  (26) 
adg

>  <m_score__min__energy>  (26) 
-10.35

>  <m_primary>  (26) 
energy

$$$$
26:0
     RDKit          3D

 60 63  0  0  0  0  0  0  0  0999 V2000
   -3.9130   24.1810  -27.2100 C   0  0  0  0  0  0  0  0  0  0  0  0
   -3.9340   23.1030  -28.2840 C   0  0  0  0  0  0  0  0  0  0  0  0
   -3.5020   23.6570  -29.5230 O   0  0  0  0  0  0  0  0  0  0  0  0
   -4.3930   24.1680  -30.4750 C   0  0  0  0  0  0  0  0  0  0  0  0
   -4.1850   25.3090  -30.9730 O   0  0  0  0  0  0  0  0  0  0  0  0
   -5.5560   23.3440  -30.9090 C   0  0  0  0  0  0  0  0  0  0  0  0
   -6.8440   23.8290  -30.6290 C   0  0  0  0  0  0  0  0  0  0  0  0
   -7.9790   23.1050  -30.9790 C   0  0  0  0  0  0  0  0  0  0  0  0
   -7.8610   21.8720  -31.6270 C   0  0  0  0  0  0  0  0  0  0  0  0
   -9.0160   21.1520  -31.9780 C   0  0  0  0  0  0  0  0  0  0  0  0
   -8.9090   19.9270  -32.6350 C   0  0  0  0  0  0  0  0  0  0  0  0
   -7.6530   19.4110  -32.9510 C   0  0  0  0  0  0  0  0  0  0  0  0
   -6.4950   20.1140  -32.6100 C   0  0  0  0  0  0  0  0  0  0  0  0
   -6.5770   21.3550  -31.9390 C   0  0  0  0  0  0  0  0  0  0  0  0
   -5.4170   22.0950  -31.5790 C   0  0  0  0  0  0  0  0  0  0  0  0
   -4.0770   21.5790  -31.9360 C   0  0  0  0  0  0  0  0  0  0  0  0
   -3.7380   21.3690  -33.2930 C   0  0  0  0  0  0  0  0  0  0  0  0
   -2.4790   20.8500  -33.6410 C   0  0  0  0  0  0  0  0  0  0  0  0
   -1.5840   20.5650  -32.6130 C   0  0  0  0  0  0  0  0  0  0  0  0
   -0.3200   20.0240  -32.6640 C   0  0  0  0  0  0  0  0  0  0  0  0
    0.1010   19.9460  -31.3400 C   0  0  0  0  0  0  0  0  0  0  0  0
    1.4410   19.4720  -30.9370 C   0  0  0  0  0  0  0  0  0  0  0  0
    1.6570   18.8480  -29.6700 N   0  0  0  0  0  0  0  0  0  0  0  0
    2.4220   19.6710  -31.7030 O   0  0  0  0  0  0  0  0  0  0  0  0
   -0.8680   20.4080  -30.4990 N   0  0  0  0  0  0  0  0  0  0  0  0
   -0.8580   20.4080  -29.0630 C   0  0  0  0  0  0  0  0  0  0  0  0
    0.1790   20.7690  -28.4460 O   0  0  0  0  0  0  0  0  0  0  0  0
   -2.0080   20.0000  -28.3690 O   0  0  0  0  0  0  0  0  0  0  0  0
   -2.0490   19.4170  -27.0600 C   0  0  0  0  0  0  0  0  0  0  0  0
   -1.5490   20.4220  -26.0040 C   0  0  0  0  0  0  0  0  0  0  0  0
   -1.1060   18.2060  -27.0760 C   0  0  0  0  0  0  0  0  0  0  0  0
   -3.4740   18.9360  -26.7230 C   0  0  0  0  0  0  0  0  0  0  0  0
   -1.8930   20.7840  -31.2940 C   0  0  0  0  0  0  0  0  0  0  0  0
   -3.1480   21.2760  -30.9180 C   0  0  0  0  0  0  0  0  0  0  0  0
   -3.9222   23.7090  -26.2165 H   0  0  0  0  0  0  0  0  0  0  0  0
   -3.0028   24.7891  -27.3186 H   0  0  0  0  0  0  0  0  0  0  0  0
   -4.7988   24.8241  -27.3186 H   0  0  0  0  0  0  0  0  0  0  0  0
   -3.2597   22.2837  -27.9940 H   0  0  0  0  0  0  0  0  0  0  0  0
   -4.9575   22.7151  -28.3934 H   0  0  0  0  0  0  0  0  0  0  0  0
   -6.9573   24.7994  -30.1235 H   0  0  0  0  0  0  0  0  0  0  0  0
   -8.9763   23.5055  -30.7443 H   0  0  0  0  0  0  0  0  0  0  0  0
  -10.0090   21.5570  -31.7332 H   0  0  0  0  0  0  0  0  0  0  0  0
   -9.8166   19.3670  -32.9044 H   0  0  0  0  0  0  0  0  0  0  0  0
   -7.5734   18.4452  -33.4716 H   0  0  0  0  0  0  0  0  0  0  0  0
   -5.5097   19.6975  -32.8663 H   0  0  0  0  0  0  0  0  0  0  0  0
   -4.4648   21.6136  -34.0816 H   0  0  0  0  0  0  0  0  0  0  0  0
   -2.2091   20.6744  -34.6928 H   0  0  0  0  0  0  0  0  0  0  0  0
    0.2389   19.7182  -33.5607 H   0  0  0  0  0  0  0  0  0  0  0  0
    2.5970   18.4600  -29.4310 H   0  0  0  0  0  0  0  0  0  0  0  0
    0.9080   18.8300  -28.9420 H   0  0  0  0  0  0  0  0  0  0  0  0
   -1.7466   20.0249  -24.9974 H   0  0  0  0  0  0  0  0  0  0  0  0
   -0.4677   20.5792  -26.1304 H   0  0  0  0  0  0  0  0  0  0  0  0
   -2.0759   21.3793  -26.1304 H   0  0  0  0  0  0  0  0  0  0  0  0
   -0.8741   17.9082  -26.0428 H   0  0  0  0  0  0  0  0  0  0  0  0
   -1.5927   17.3692  -27.5983 H   0  0  0  0  0  0  0  0  0  0  0  0
   -0.1754   18.4728  -27.5983 H   0  0  0  0  0  0  0  0  0  0  0  0
   -3.5982   18.8941  -25.6308 H   0  0  0  0  0  0  0  0  0  0  0  0
   -4.2077   19.6363  -27.1488 H   0  0  0  0  0  0  0  0  0  0  0  0
   -3.6332   17.9343  -27.1488 H   0  0  0  0  0  0  0  0  0  0  0  0
   -3.4032   21.4225  -29.8581 H   0  0  0  0  0  0  0  0  0  0  0  0
  1  2  1  0
  2  3  1  0
  3  4  1  0
  4  5  2  0
  4  6  1  0
  6  7  2  0
  7  8  1  0
  8  9  2  0
  9 10  1  0
 10 11  2  0
 11 12  1  0
 12 13  2  0
 13 14  1  0
 14 15  2  0
 15 16  1  0
 16 17  2  0
 17 18  1  0
 18 19  2  0
 19 20  1  0
 20 21  2  0
 21 22  1  0
 22 23  1  0
 22 24  2  0
 21 25  1  0
 25 26  1  0
 26 27  2  0
 26 28  1  0
 28 29  1  0
 29 30  1  0
 29 31  1  0
 29 32  1  0
 25 33  1  0
 33 34  2  0
 15  6  1  0
 34 16  1  0
 14  9  1  0
 33 19  1  0
  1 35  1  0
  1 36  1  0
  1 37  1  0
  2 38  1  0
  2 39  1  0
  7 40  1  0
  8 41  1  0
 10 42  1  0
 11 43  1  0
 12 44  1  0
 13 45  1  0
 17 46  1  0
 18 47  1  0
 20 48  1  0
 23 49  1  0
 23 50  1  0
 30 51  1  0
 30 52  1  0
 30 53  1  0
 31 54  1  0
 31 55  1  0
 31 56  1  0
 32 57  1  0
 32 58  1  0
 32 59  1  0
 34 60  1  0
M  END
>  <UniqueID>  (27) 
26

>  <SMILES>  (27) 
CCOC(=O)c1ccc2ccccc2c1-c1ccc2cc(C(N)=O)n(C(=O)OC(C)(C)C)c2c1

>  <Energy>  (27) 
109.33335091159962

>  <Genealogy>  (27) 
CCOC(=O)c1ccc2ccccc2c1-c1ccc2cc(C(N)=O)n(C(=O)OC(C)(C)C)c2c1 (3D coordinates assigned)
CCOC(=O)c1ccc2ccccc2c1-c1ccc2cc(C(N)=O)n(C(=O)OC(C)(C)C)c2c1 (optimized conformer: 109.33335091159962 kcal/mol)

>  <smiles>  (27) 
CCOC(=O)c1ccc2ccccc2c1-c1ccc2cc(C(N)=O)n(C(=O)OC(C)(C)C)c2c1

>  <score_type>  (27) 
oracle

>  <origin>  (27) 
adg

>  <m_score__min__energy>  (27) 
-9.9700000000000006

>  <m_primary>  (27) 
energy

$$$$
27:0
     RDKit          3D

 37 39  0  0  0  0  0  0  0  0999 V2000
   -6.2960   18.1490  -33.5850 C   0  0  0  0  0  0  0  0  0  0  0  0
   -7.4770   18.4100  -32.6540 C   0  0  0  0  0  0  0  0  0  0  0  0
   -7.5300   19.8600  -32.2580 C   0  0  0  0  0  0  0  0  0  0  0  0
   -8.7800   20.5090  -32.0940 C   0  0  0  0  0  0  0  0  0  0  0  0
   -8.8410   21.8550  -31.6930 C   0  0  0  0  0  0  0  0  0  0  0  0
   -7.6410   22.5170  -31.4470 C   0  0  0  0  0  0  0  0  0  0  0  0
   -7.4060   23.8170  -31.0570 C   0  0  0  0  0  0  0  0  0  0  0  0
   -6.0190   23.9300  -30.9620 C   0  0  0  0  0  0  0  0  0  0  0  0
   -5.3250   25.1580  -30.5210 C   0  0  0  0  0  0  0  0  0  0  0  0
   -3.9120   25.2900  -30.6490 N   0  0  0  0  0  0  0  0  0  0  0  0
   -5.9860   26.0950  -29.9990 O   0  0  0  0  0  0  0  0  0  0  0  0
   -5.4240   22.7460  -31.2760 N   0  0  0  0  0  0  0  0  0  0  0  0
   -4.0190   22.4640  -31.3660 C   0  0  0  0  0  0  0  0  0  0  0  0
   -3.5080   22.2460  -32.4980 O   0  0  0  0  0  0  0  0  0  0  0  0
   -3.1690   22.4180  -30.1510 C   0  0  0  0  0  0  0  0  0  0  0  0
   -1.7660   22.3920  -30.2630 C   0  0  0  0  0  0  0  0  0  0  0  0
   -0.9650   22.3420  -29.1180 C   0  0  0  0  0  0  0  0  0  0  0  0
   -1.5540   22.3210  -27.8520 C   0  0  0  0  0  0  0  0  0  0  0  0
   -2.9440   22.3550  -27.7270 C   0  0  0  0  0  0  0  0  0  0  0  0
   -3.7500   22.4070  -28.8680 C   0  0  0  0  0  0  0  0  0  0  0  0
   -6.4280   21.8940  -31.5780 C   0  0  0  0  0  0  0  0  0  0  0  0
   -6.3350   20.5630  -31.9940 C   0  0  0  0  0  0  0  0  0  0  0  0
   -5.3946   17.9498  -32.9868 H   0  0  0  0  0  0  0  0  0  0  0  0
   -6.5149   17.2776  -34.2196 H   0  0  0  0  0  0  0  0  0  0  0  0
   -6.1273   19.0315  -34.2196 H   0  0  0  0  0  0  0  0  0  0  0  0
   -8.4104   18.1422  -33.1707 H   0  0  0  0  0  0  0  0  0  0  0  0
   -7.3547   17.7995  -31.7472 H   0  0  0  0  0  0  0  0  0  0  0  0
   -9.7108   19.9540  -32.2823 H   0  0  0  0  0  0  0  0  0  0  0  0
   -9.8065   22.3691  -31.5772 H   0  0  0  0  0  0  0  0  0  0  0  0
   -8.1536   24.6000  -30.8619 H   0  0  0  0  0  0  0  0  0  0  0  0
   -3.4930   26.0490  -31.2310 H   0  0  0  0  0  0  0  0  0  0  0  0
   -1.2968   22.4111  -31.2577 H   0  0  0  0  0  0  0  0  0  0  0  0
    0.1305   22.3192  -29.2146 H   0  0  0  0  0  0  0  0  0  0  0  0
   -0.9222   22.2776  -26.9526 H   0  0  0  0  0  0  0  0  0  0  0  0
   -3.4059   22.3408  -26.7288 H   0  0  0  0  0  0  0  0  0  0  0  0
   -4.8445   22.4395  -28.7632 H   0  0  0  0  0  0  0  0  0  0  0  0
   -5.3558   20.0760  -32.1126 H   0  0  0  0  0  0  0  0  0  0  0  0
  1  2  1  0
  2  3  1  0
  3  4  2  0
  4  5  1  0
  5  6  2  0
  6  7  1  0
  7  8  2  0
  8  9  1  0
  9 10  1  0
  9 11  2  0
  8 12  1  0
 12 13  1  0
 13 14  2  0
 13 15  1  0
 15 16  2  0
 16 17  1  0
 17 18  2  0
 18 19  1  0
 19 20  2  0
 12 21  1  0
 21 22  2  0
 22  3  1  0
 21  6  1  0
 20 15  1  0
  1 23  1  0
  1 24  1  0
  1 25  1  0
  2 26  1  0
  2 27  1  0
  4 28  1  0
  5 29  1  0
  7 30  1  0
 10 31  1  0
 16 32  1  0
 17 33  1  0
 18 34  1  0
 19 35  1  0
 20 36  1  0
 22 37  1  0
M  CHG  1  10  -1
M  END
>  <UniqueID>  (28) 
27

>  <SMILES>  (28) 
CCc1ccc2cc(C([NH-])=O)n(C(=O)c3ccccc3)c2c1

>  <Energy>  (28) 
76.78407919577582

>  <Genealogy>  (28) 
CCc1ccc2cc(C([NH-])=O)n(C(=O)c3ccccc3)c2c1 (protonated)
CCc1ccc2cc(C([NH-])=O)n(C(=O)c3ccccc3)c2c1 (3D coordinates assigned)
CCc1ccc2cc(C([NH-])=O)n(C(=O)c3ccccc3)c2c1 (optimized conformer: 76.78407919577582 kcal/mol)

>  <smiles>  (28) 
CCc1ccc2cc(C(N)=O)n(C(=O)c3ccccc3)c2c1

>  <score_type>  (28) 
oracle

>  <origin>  (28) 
adg

>  <m_score__min__energy>  (28) 
-11.07

>  <m_primary>  (28) 
energy

$$$$
28:0
     RDKit          3D

 92 97  0  0  0  0  0  0  0  0999 V2000
   -4.9610   24.2810  -28.8760 C   0  0  0  0  0  0  0  0  0  0  0  0
   -4.1090   23.2750  -28.3480 O   0  0  0  0  0  0  0  0  0  0  0  0
   -3.1990   22.5170  -29.1040 C   0  0  0  0  0  0  0  0  0  0  0  0
   -3.4700   21.1720  -29.4240 C   0  0  0  0  0  0  0  0  0  0  0  0
   -2.5560   20.4230  -30.1600 C   0  0  0  0  0  0  0  0  0  0  0  0
   -1.3430   20.9780  -30.5830 C   0  0  0  0  0  0  0  0  0  0  0  0
   -0.3650   20.0910  -31.3330 C   0  0  2  0  0  0  0  0  0  0  0  0
   -0.4360   20.1170  -32.8670 C   0  0  0  0  0  0  0  0  0  0  0  0
   -1.2550   20.8510  -33.6470 C   0  0  0  0  0  0  0  0  0  0  0  0
   -0.8890   21.1180  -34.9580 O   0  0  0  0  0  0  0  0  0  0  0  0
   -2.6560   21.0950  -33.2670 C   0  0  0  0  0  0  0  0  0  0  0  0
   -3.0690   22.2890  -32.6270 C   0  0  0  0  0  0  0  0  0  0  0  0
   -4.4030   22.4290  -32.1960 C   0  0  0  0  0  0  0  0  0  0  0  0
   -5.2900   21.3790  -32.4410 C   0  0  0  0  0  0  0  0  0  0  0  0
   -6.5980   21.1890  -32.0370 C   0  0  0  0  0  0  0  0  0  0  0  0
   -6.9650   19.9340  -32.5120 C   0  0  0  0  0  0  0  0  0  0  0  0
   -8.2270   19.2660  -32.1480 C   0  0  0  0  0  0  0  0  0  0  0  0
   -9.4510   19.5570  -32.8220 N   0  0  0  0  0  0  0  0  0  0  0  0
   -8.2240   18.3980  -31.2460 O   0  0  0  0  0  0  0  0  0  0  0  0
   -5.9210   19.3570  -33.1750 N   0  0  0  0  0  0  0  0  0  0  0  0
   -5.8510   18.0520  -33.7790 C   0  0  0  0  0  0  0  0  0  0  0  0
   -6.0870   17.9300  -35.0140 O   0  0  0  0  0  0  0  0  0  0  0  0
   -5.6340   16.9180  -32.9990 O   0  0  0  0  0  0  0  0  0  0  0  0
   -4.5380   15.9940  -33.1300 C   0  0  0  0  0  0  0  0  0  0  0  0
   -3.2000   16.7580  -33.0920 C   0  0  0  0  0  0  0  0  0  0  0  0
   -4.5800   14.9080  -32.0250 C   0  0  0  0  0  0  0  0  0  0  0  0
   -4.6800   15.2880  -34.4850 C   0  0  0  0  0  0  0  0  0  0  0  0
   -4.9060   20.2480  -33.1080 C   0  0  0  0  0  0  0  0  0  0  0  0
   -3.5960   20.0820  -33.5500 C   0  0  0  0  0  0  0  0  0  0  0  0
   -0.0710   18.7820  -33.2880 C   0  0  0  0  0  0  0  0  0  0  0  0
    0.1570   18.4030  -34.4730 O   0  0  0  0  0  0  0  0  0  0  0  0
   -0.0550   17.9320  -32.1170 C   0  0  0  0  0  0  0  0  0  0  0  0
    0.1600   16.6920  -32.1380 O   0  0  0  0  0  0  0  0  0  0  0  0
   -0.3770   18.6720  -30.9390 N   0  0  0  0  0  0  0  0  0  0  0  0
   -0.0340   18.2370  -29.5830 C   0  0  0  0  0  0  0  0  0  0  0  0
    0.7430   19.3020  -28.7990 C   0  0  0  0  0  0  0  0  0  0  0  0
    0.1720   19.4790  -27.4470 N   0  0  0  0  0  0  0  0  0  0  0  0
   -0.8130   18.4110  -27.1000 C   0  0  0  0  0  0  0  0  0  0  0  0
   -2.2600   18.9400  -27.0370 C   0  0  0  0  0  0  0  0  0  0  0  0
   -2.4180   20.0150  -26.1090 O   0  0  0  0  0  0  0  0  0  0  0  0
   -1.2970   20.8800  -26.0510 C   0  0  0  0  0  0  0  0  0  0  0  0
   -0.3940   20.8360  -27.2910 C   0  0  0  0  0  0  0  0  0  0  0  0
   -1.0620   22.3060  -30.2520 C   0  0  0  0  0  0  0  0  0  0  0  0
   -1.9850   23.0980  -29.5520 C   0  0  0  0  0  0  0  0  0  0  0  0
   -1.6350   24.4430  -29.3420 O   0  0  0  0  0  0  0  0  0  0  0  0
   -0.6630   24.9560  -28.4210 C   0  0  0  0  0  0  0  0  0  0  0  0
   -0.4130   23.9710  -27.2810 C   0  0  0  0  0  0  0  0  0  0  0  0
   -1.4520   24.2950  -26.2250 C   0  0  0  0  0  0  0  0  0  0  0  0
   -1.7280   25.7800  -26.3630 C   0  0  0  0  0  0  0  0  0  0  0  0
   -1.2320   26.2020  -27.7460 C   0  0  0  0  0  0  0  0  0  0  0  0
   -5.4302   24.8350  -28.0496 H   0  0  0  0  0  0  0  0  0  0  0  0
   -4.3710   24.9741  -29.4937 H   0  0  0  0  0  0  0  0  0  0  0  0
   -5.7418   23.8132  -29.4937 H   0  0  0  0  0  0  0  0  0  0  0  0
   -4.4108   20.7102  -29.0898 H   0  0  0  0  0  0  0  0  0  0  0  0
   -2.7910   19.3786  -30.4130 H   0  0  0  0  0  0  0  0  0  0  0  0
    0.5698   20.5761  -31.0154 H   0  0  0  0  0  0  0  0  0  0  0  0
   -2.3496   23.1055  -32.4667 H   0  0  0  0  0  0  0  0  0  0  0  0
   -4.7369   23.3414  -31.6801 H   0  0  0  0  0  0  0  0  0  0  0  0
   -7.2211   21.8870  -31.4585 H   0  0  0  0  0  0  0  0  0  0  0  0
   -9.4960   19.6800  -33.8590 H   0  0  0  0  0  0  0  0  0  0  0  0
   -2.9039   16.9271  -32.0462 H   0  0  0  0  0  0  0  0  0  0  0  0
   -2.4252   16.1661  -33.6013 H   0  0  0  0  0  0  0  0  0  0  0  0
   -3.3159   17.7261  -33.6013 H   0  0  0  0  0  0  0  0  0  0  0  0
   -4.5614   15.3899  -31.0364 H   0  0  0  0  0  0  0  0  0  0  0  0
   -5.5017   14.3164  -32.1272 H   0  0  0  0  0  0  0  0  0  0  0  0
   -3.7067   14.2469  -32.1272 H   0  0  0  0  0  0  0  0  0  0  0  0
   -4.8945   14.2215  -34.3221 H   0  0  0  0  0  0  0  0  0  0  0  0
   -5.5042   15.7453  -35.0521 H   0  0  0  0  0  0  0  0  0  0  0  0
   -3.7431   15.3911  -35.0521 H   0  0  0  0  0  0  0  0  0  0  0  0
   -3.3007   19.1809  -34.1075 H   0  0  0  0  0  0  0  0  0  0  0  0
   -0.9635   18.0090  -29.0408 H   0  0  0  0  0  0  0  0  0  0  0  0
    0.6126   17.3515  -29.6715 H   0  0  0  0  0  0  0  0  0  0  0  0
    1.7935   18.9885  -28.7087 H   0  0  0  0  0  0  0  0  0  0  0  0
    0.6739   20.2579  -29.3390 H   0  0  0  0  0  0  0  0  0  0  0  0
   -0.7594   17.6203  -27.8629 H   0  0  0  0  0  0  0  0  0  0  0  0
   -0.5533   18.0284  -26.1019 H   0  0  0  0  0  0  0  0  0  0  0  0
   -2.5482   19.2946  -28.0376 H   0  0  0  0  0  0  0  0  0  0  0  0
   -2.8999   18.1126  -26.6965 H   0  0  0  0  0  0  0  0  0  0  0  0
   -1.6638   21.9099  -25.9295 H   0  0  0  0  0  0  0  0  0  0  0  0
   -0.6826   20.5393  -25.2045 H   0  0  0  0  0  0  0  0  0  0  0  0
   -0.9851   21.0905  -28.1831 H   0  0  0  0  0  0  0  0  0  0  0  0
    0.4247   21.5608  -27.1715 H   0  0  0  0  0  0  0  0  0  0  0  0
   -0.0954   22.7405  -30.5468 H   0  0  0  0  0  0  0  0  0  0  0  0
    0.2589   25.1502  -28.9888 H   0  0  0  0  0  0  0  0  0  0  0  0
   -0.5346   22.9364  -27.6342 H   0  0  0  0  0  0  0  0  0  0  0  0
    0.6096   24.0583  -26.8853 H   0  0  0  0  0  0  0  0  0  0  0  0
   -2.3708   23.7162  -26.4006 H   0  0  0  0  0  0  0  0  0  0  0  0
   -1.0979   24.0399  -25.2153 H   0  0  0  0  0  0  0  0  0  0  0  0
   -2.8072   25.9732  -26.2739 H   0  0  0  0  0  0  0  0  0  0  0  0
   -1.2161   26.3488  -25.5728 H   0  0  0  0  0  0  0  0  0  0  0  0
   -2.0665   26.6042  -28.3392 H   0  0  0  0  0  0  0  0  0  0  0  0
   -0.4650   26.9861  -27.6634 H   0  0  0  0  0  0  0  0  0  0  0  0
  1  2  1  0
  2  3  1  0
  3  4  2  0
  4  5  1  0
  5  6  2  0
  6  7  1  0
  7  8  1  0
  8  9  2  3
  9 10  1  0
  9 11  1  0
 11 12  2  0
 12 13  1  0
 13 14  2  0
 14 15  1  0
 15 16  2  0
 16 17  1  0
 17 18  1  0
 17 19  2  0
 16 20  1  0
 20 21  1  0
 21 22  2  0
 21 23  1  0
 23 24  1  0
 24 25  1  0
 24 26  1  0
 24 27  1  0
 20 28  1  0
 28 29  2  0
  8 30  1  0
 30 31  2  0
 30 32  1  0
 32 33  2  0
 32 34  1  0
 34 35  1  0
 35 36  1  0
 36 37  1  0
 37 38  1  0
 38 39  1  0
 39 40  1  0
 40 41  1  0
 41 42  1  0
  6 43  1  0
 43 44  2  0
 44 45  1  0
 45 46  1  0
 46 47  1  0
 47 48  1  0
 48 49  1  0
 49 50  1  0
 44  3  1  0
 50 46  1  0
 34  7  1  0
 42 37  1  0
 29 11  1  0
 28 14  1  0
  1 51  1  0
  1 52  1  0
  1 53  1  0
  4 54  1  0
  5 55  1  0
  7 56  1  6
 12 57  1  0
 13 58  1  0
 15 59  1  0
 18 60  1  0
 25 61  1  0
 25 62  1  0
 25 63  1  0
 26 64  1  0
 26 65  1  0
 26 66  1  0
 27 67  1  0
 27 68  1  0
 27 69  1  0
 29 70  1  0
 35 71  1  0
 35 72  1  0
 36 73  1  0
 36 74  1  0
 38 75  1  0
 38 76  1  0
 39 77  1  0
 39 78  1  0
 41 79  1  0
 41 80  1  0
 42 81  1  0
 42 82  1  0
 43 83  1  0
 46 84  1  0
 47 85  1  0
 47 86  1  0
 48 87  1  0
 48 88  1  0
 49 89  1  0
 49 90  1  0
 50 91  1  0
 50 92  1  0
M  CHG  2  10  -1  18  -1
M  END
>  <UniqueID>  (29) 
28

>  <SMILES>  (29) 
COc1ccc([C@@H]2C(=C([O-])c3ccc4cc(C([NH-])=O)n(C(=O)OC(C)(C)C)c4c3)C(=O)C(=O)N2CCN2CCOCC2)cc1OC1CCCC1

>  <Energy>  (29) 
196.30014735617277

>  <Genealogy>  (29) 
COc1ccc([C@@H]2C(=C([O-])c3ccc4cc(C([NH-])=O)n(C(=O)OC(C)(C)C)c4c3)C(=O)C(=O)N2CCN2CCOCC2)cc1OC1CCCC1 (protonated)
COc1ccc([C@@H]2C(=C([O-])c3ccc4cc(C([NH-])=O)n(C(=O)OC(C)(C)C)c4c3)C(=O)C(=O)N2CCN2CCOCC2)cc1OC1CCCC1 (3D coordinates assigned)
COc1ccc([C@@H]2C(=C([O-])c3ccc4cc(C([NH-])=O)n(C(=O)OC(C)(C)C)c4c3)C(=O)C(=O)N2CCN2CCOCC2)cc1OC1CCCC1 (nonaromatic ring conformer: 196.30014735617277 kcal/mol)

>  <smiles>  (29) 
COc1ccc([C@@H]2C(=C(O)c3ccc4cc(C(N)=O)n(C(=O)OC(C)(C)C)c4c3)C(=O)C(=O)N2CCN2CCOCC2)cc1OC1CCCC1

>  <score_type>  (29) 
oracle

>  <origin>  (29) 
adg

>  <m_score__min__energy>  (29) 
-12.15

>  <m_primary>  (29) 
energy

$$$$
29:0
     RDKit          3D

 70 74  0  0  0  0  0  0  0  0999 V2000
   -2.3140   20.3520  -33.1700 C   0  0  0  0  0  0  0  0  0  0  0  0
   -1.4060   20.1010  -31.9710 C   0  0  0  0  0  0  0  0  0  0  0  0
   -1.8760   20.8640  -30.7270 C   0  0  0  0  0  0  0  0  0  0  0  0
   -3.2810   21.2490  -30.8430 N   0  0  0  0  0  0  0  0  0  0  0  0
   -3.6850   22.5660  -31.2450 C   0  0  0  0  0  0  0  0  0  0  0  0
   -2.8190   23.4230  -31.5740 O   0  0  0  0  0  0  0  0  0  0  0  0
   -5.0750   22.9240  -31.2500 N   0  0  0  0  0  0  0  0  0  0  0  0
   -5.6230   24.1310  -30.9290 C   0  0  0  0  0  0  0  0  0  0  0  0
   -4.8900   25.3070  -30.4130 C   0  0  0  0  0  0  0  0  0  0  0  0
   -3.5680   25.1510  -29.9010 N   0  0  0  0  0  0  0  0  0  0  0  0
   -5.4080   26.4550  -30.4430 O   0  0  0  0  0  0  0  0  0  0  0  0
   -7.0060   24.0940  -31.0930 C   0  0  0  0  0  0  0  0  0  0  0  0
   -7.2890   22.8200  -31.5290 C   0  0  0  0  0  0  0  0  0  0  0  0
   -8.5080   22.2390  -31.8630 C   0  0  0  0  0  0  0  0  0  0  0  0
   -8.5020   20.9060  -32.3090 C   0  0  0  0  0  0  0  0  0  0  0  0
   -7.2870   20.1780  -32.4190 C   0  0  0  0  0  0  0  0  0  0  0  0
   -7.3140   18.7440  -32.9220 C   0  0  0  0  0  0  0  0  0  0  0  0
   -6.9870   17.7220  -31.8060 C   0  0  0  0  0  0  0  0  0  0  0  0
   -6.0880   16.5960  -32.3120 C   0  0  0  0  0  0  0  0  0  0  0  0
   -4.8220   17.1530  -32.8160 N   0  0  0  0  0  0  0  0  0  0  0  0
   -3.7710   15.8600  -33.3440 S   0  0  0  0  0  0  0  0  0  0  0  0
   -3.6580   14.8140  -32.2680 O   0  0  0  0  0  0  0  0  0  0  0  0
   -4.3450   15.2170  -34.5760 O   0  0  0  0  0  0  0  0  0  0  0  0
   -2.1700   16.4930  -33.7240 C   0  0  0  0  0  0  0  0  0  0  0  0
   -1.8800   16.9470  -35.0160 C   0  0  0  0  0  0  0  0  0  0  0  0
   -0.6400   17.5230  -35.3020 C   0  0  0  0  0  0  0  0  0  0  0  0
    0.3320   17.6540  -34.2950 C   0  0  0  0  0  0  0  0  0  0  0  0
    1.6340   18.3040  -34.5860 C   0  0  0  0  0  0  0  0  0  0  0  0
    1.8540   19.6520  -34.2430 C   0  0  0  0  0  0  0  0  0  0  0  0
    3.0860   20.2570  -34.5060 C   0  0  0  0  0  0  0  0  0  0  0  0
    4.1120   19.5270  -35.1100 C   0  0  0  0  0  0  0  0  0  0  0  0
    3.9050   18.1880  -35.4550 C   0  0  0  0  0  0  0  0  0  0  0  0
    2.6740   17.5780  -35.1950 C   0  0  0  0  0  0  0  0  0  0  0  0
    0.0450   17.1760  -33.0040 C   0  0  0  0  0  0  0  0  0  0  0  0
   -1.1950   16.5960  -32.7230 C   0  0  0  0  0  0  0  0  0  0  0  0
   -4.9820   18.1770  -33.8810 C   0  0  0  0  0  0  0  0  0  0  0  0
   -6.4420   18.5650  -34.1860 C   0  0  0  0  0  0  0  0  0  0  0  0
   -6.0670   20.8150  -32.0810 C   0  0  0  0  0  0  0  0  0  0  0  0
   -6.1070   22.1350  -31.6190 C   0  0  0  0  0  0  0  0  0  0  0  0
   -3.3184   20.6296  -32.8176 H   0  0  0  0  0  0  0  0  0  0  0  0
   -1.9000   21.1694  -33.7787 H   0  0  0  0  0  0  0  0  0  0  0  0
   -2.3786   19.4380  -33.7787 H   0  0  0  0  0  0  0  0  0  0  0  0
   -1.4024   19.0240  -31.7471 H   0  0  0  0  0  0  0  0  0  0  0  0
   -0.3972   20.4566  -32.2276 H   0  0  0  0  0  0  0  0  0  0  0  0
   -1.7520   20.2208  -29.8433 H   0  0  0  0  0  0  0  0  0  0  0  0
   -1.2713   21.7777  -30.6295 H   0  0  0  0  0  0  0  0  0  0  0  0
   -4.0110   20.5720  -30.5240 H   0  0  0  0  0  0  0  0  0  0  0  0
   -2.7330   25.2920  -30.5110 H   0  0  0  0  0  0  0  0  0  0  0  0
   -7.7205   24.9105  -30.9122 H   0  0  0  0  0  0  0  0  0  0  0  0
   -9.4475   22.8052  -31.7806 H   0  0  0  0  0  0  0  0  0  0  0  0
   -9.4516   20.4196  -32.5767 H   0  0  0  0  0  0  0  0  0  0  0  0
   -8.3479   18.5255  -33.2273 H   0  0  0  0  0  0  0  0  0  0  0  0
   -6.4750   18.2441  -30.9843 H   0  0  0  0  0  0  0  0  0  0  0  0
   -7.9325   17.2762  -31.4637 H   0  0  0  0  0  0  0  0  0  0  0  0
   -5.8771   15.8992  -31.4873 H   0  0  0  0  0  0  0  0  0  0  0  0
   -6.5992   16.0635  -33.1275 H   0  0  0  0  0  0  0  0  0  0  0  0
   -2.6336   16.8495  -35.8113 H   0  0  0  0  0  0  0  0  0  0  0  0
   -0.4229   17.8761  -36.3209 H   0  0  0  0  0  0  0  0  0  0  0  0
    1.0511   20.2324  -33.7651 H   0  0  0  0  0  0  0  0  0  0  0  0
    3.2481   21.3111  -34.2365 H   0  0  0  0  0  0  0  0  0  0  0  0
    5.0816   20.0048  -35.3140 H   0  0  0  0  0  0  0  0  0  0  0  0
    4.7124   17.6131  -35.9321 H   0  0  0  0  0  0  0  0  0  0  0  0
    2.5177   16.5240  -35.4683 H   0  0  0  0  0  0  0  0  0  0  0  0
    0.8017   17.2592  -32.2099 H   0  0  0  0  0  0  0  0  0  0  0  0
   -1.4065   16.2187  -31.7116 H   0  0  0  0  0  0  0  0  0  0  0  0
   -4.4445   19.0842  -33.5678 H   0  0  0  0  0  0  0  0  0  0  0  0
   -4.5792   17.7324  -34.8030 H   0  0  0  0  0  0  0  0  0  0  0  0
   -6.4402   19.5130  -34.7439 H   0  0  0  0  0  0  0  0  0  0  0  0
   -6.8803   17.7386  -34.7648 H   0  0  0  0  0  0  0  0  0  0  0  0
   -5.1092   20.2831  -32.1798 H   0  0  0  0  0  0  0  0  0  0  0  0
  1  2  1  0
  2  3  1  0
  3  4  1  0
  4  5  1  0
  5  6  2  0
  5  7  1  0
  7  8  1  0
  8  9  1  0
  9 10  1  0
  9 11  2  0
  8 12  2  0
 12 13  1  0
 13 14  2  0
 14 15  1  0
 15 16  2  0
 16 17  1  0
 17 18  1  0
 18 19  1  0
 19 20  1  0
 20 21  1  0
 21 22  2  0
 21 23  2  0
 21 24  1  0
 24 25  2  0
 25 26  1  0
 26 27  2  0
 27 28  1  0
 28 29  2  0
 29 30  1  0
 30 31  2  0
 31 32  1  0
 32 33  2  0
 27 34  1  0
 34 35  2  0
 20 36  1  0
 36 37  1  0
 16 38  1  0
 38 39  2  0
 39  7  1  0
 39 13  1  0
 37 17  1  0
 35 24  1  0
 33 28  1  0
  1 40  1  0
  1 41  1  0
  1 42  1  0
  2 43  1  0
  2 44  1  0
  3 45  1  0
  3 46  1  0
  4 47  1  0
 10 48  1  0
 12 49  1  0
 14 50  1  0
 15 51  1  0
 17 52  1  0
 18 53  1  0
 18 54  1  0
 19 55  1  0
 19 56  1  0
 25 57  1  0
 26 58  1  0
 29 59  1  0
 30 60  1  0
 31 61  1  0
 32 62  1  0
 33 63  1  0
 34 64  1  0
 35 65  1  0
 36 66  1  0
 36 67  1  0
 37 68  1  0
 37 69  1  0
 38 70  1  0
M  CHG  1  10  -1
M  END
>  <UniqueID>  (30) 
29

>  <SMILES>  (30) 
CCCNC(=O)n1c(C([NH-])=O)cc2ccc(C3CCN(S(=O)(=O)c4ccc(-c5ccccc5)cc4)CC3)cc21

>  <Energy>  (30) 
118.85727138639444

>  <Genealogy>  (30) 
CCCNC(=O)n1c(C([NH-])=O)cc2ccc(C3CCN(S(=O)(=O)c4ccc(-c5ccccc5)cc4)CC3)cc21 (protonated)
CCCNC(=O)n1c(C([NH-])=O)cc2ccc(C3CCN(S(=O)(=O)c4ccc(-c5ccccc5)cc4)CC3)cc21 (3D coordinates assigned)
CCCNC(=O)n1c(C([NH-])=O)cc2ccc(C3CCN(S(=O)(=O)c4ccc(-c5ccccc5)cc4)CC3)cc21 (nonaromatic ring conformer: 118.85727138639444 kcal/mol)

>  <smiles>  (30) 
CCCNC(=O)n1c(C(N)=O)cc2ccc(C3CCN(S(=O)(=O)c4ccc(-c5ccccc5)cc4)CC3)cc21

>  <score_type>  (30) 
oracle

>  <origin>  (30) 
adg

>  <m_score__min__energy>  (30) 
-12.76

>  <m_primary>  (30) 
energy

$$$$
30:0
     RDKit          3D

 51 53  0  0  0  0  0  0  0  0999 V2000
   -2.5940   19.3810  -33.1270 C   0  0  0  0  0  0  0  0  0  0  0  0
   -3.5430   18.2800  -33.5830 C   0  0  0  0  0  0  0  0  0  0  0  0
   -4.6520   18.2180  -32.7050 O   0  0  0  0  0  0  0  0  0  0  0  0
   -5.8610   18.2340  -33.4320 C   0  0  0  0  0  0  0  0  0  0  0  0
   -7.1660   18.5430  -32.6740 C   0  0  0  0  0  0  0  0  0  0  0  0
   -7.2500   19.9990  -32.2840 C   0  0  0  0  0  0  0  0  0  0  0  0
   -8.5150   20.5940  -32.0600 C   0  0  0  0  0  0  0  0  0  0  0  0
   -8.6130   21.9250  -31.6230 C   0  0  0  0  0  0  0  0  0  0  0  0
   -7.4350   22.6380  -31.4330 C   0  0  0  0  0  0  0  0  0  0  0  0
   -7.2450   23.9090  -30.9390 C   0  0  0  0  0  0  0  0  0  0  0  0
   -5.8660   24.0870  -30.9020 C   0  0  0  0  0  0  0  0  0  0  0  0
   -5.2170   25.3430  -30.4650 C   0  0  0  0  0  0  0  0  0  0  0  0
   -3.8790   25.6290  -30.8670 N   0  0  0  0  0  0  0  0  0  0  0  0
   -5.8230   26.1570  -29.7180 O   0  0  0  0  0  0  0  0  0  0  0  0
   -5.2280   22.9710  -31.3600 N   0  0  0  0  0  0  0  0  0  0  0  0
   -3.8120   22.7300  -31.4090 C   0  0  0  0  0  0  0  0  0  0  0  0
   -3.3080   22.1790  -32.4230 O   0  0  0  0  0  0  0  0  0  0  0  0
   -3.0090   23.1270  -30.3310 O   0  0  0  0  0  0  0  0  0  0  0  0
   -2.9670   22.5080  -29.0360 C   0  0  0  0  0  0  0  0  0  0  0  0
   -4.1860   22.9390  -28.1960 C   0  0  0  0  0  0  0  0  0  0  0  0
   -1.6880   22.9970  -28.3410 C   0  0  0  0  0  0  0  0  0  0  0  0
   -2.9130   20.9720  -29.1610 C   0  0  0  0  0  0  0  0  0  0  0  0
   -6.2030   22.0920  -31.6780 C   0  0  0  0  0  0  0  0  0  0  0  0
   -6.0730   20.7640  -32.0980 C   0  0  0  0  0  0  0  0  0  0  0  0
   -5.7500   18.5420  -34.9200 C   0  0  0  0  0  0  0  0  0  0  0  0
   -5.9480   17.1090  -34.4530 C   0  0  0  0  0  0  0  0  0  0  0  0
   -2.5683   19.4109  -32.0277 H   0  0  0  0  0  0  0  0  0  0  0  0
   -1.5839   19.1772  -33.5120 H   0  0  0  0  0  0  0  0  0  0  0  0
   -2.9446   20.3500  -33.5120 H   0  0  0  0  0  0  0  0  0  0  0  0
   -3.8943   18.4979  -34.6024 H   0  0  0  0  0  0  0  0  0  0  0  0
   -3.0152   17.3150  -33.5750 H   0  0  0  0  0  0  0  0  0  0  0  0
   -8.0213   18.2965  -33.3203 H   0  0  0  0  0  0  0  0  0  0  0  0
   -7.1816   17.9389  -31.7549 H   0  0  0  0  0  0  0  0  0  0  0  0
   -9.4302   20.0079  -32.2300 H   0  0  0  0  0  0  0  0  0  0  0  0
   -9.5926   22.3894  -31.4366 H   0  0  0  0  0  0  0  0  0  0  0  0
   -8.0190   24.6302  -30.6377 H   0  0  0  0  0  0  0  0  0  0  0  0
   -3.0670   25.2860  -30.3070 H   0  0  0  0  0  0  0  0  0  0  0  0
   -3.9432   22.8532  -27.1266 H   0  0  0  0  0  0  0  0  0  0  0  0
   -4.4428   23.9824  -28.4311 H   0  0  0  0  0  0  0  0  0  0  0  0
   -5.0416   22.2889  -28.4311 H   0  0  0  0  0  0  0  0  0  0  0  0
   -1.8210   22.9461  -27.2503 H   0  0  0  0  0  0  0  0  0  0  0  0
   -0.8426   22.3587  -28.6374 H   0  0  0  0  0  0  0  0  0  0  0  0
   -1.4841   24.0365  -28.6374 H   0  0  0  0  0  0  0  0  0  0  0  0
   -2.8972   20.5228  -28.1570 H   0  0  0  0  0  0  0  0  0  0  0  0
   -3.7992   20.6172  -29.7076 H   0  0  0  0  0  0  0  0  0  0  0  0
   -2.0040   20.6803  -29.7076 H   0  0  0  0  0  0  0  0  0  0  0  0
   -5.0809   20.3248  -32.2793 H   0  0  0  0  0  0  0  0  0  0  0  0
   -6.5660   19.0705  -35.4347 H   0  0  0  0  0  0  0  0  0  0  0  0
   -5.0151   19.0588  -35.5547 H   0  0  0  0  0  0  0  0  0  0  0  0
   -6.9072   16.6006  -34.6304 H   0  0  0  0  0  0  0  0  0  0  0  0
   -5.4152   16.1596  -34.6106 H   0  0  0  0  0  0  0  0  0  0  0  0
  1  2  1  0
  2  3  1  0
  3  4  1  0
  4  5  1  0
  5  6  1  0
  6  7  2  0
  7  8  1  0
  8  9  2  0
  9 10  1  0
 10 11  2  0
 11 12  1  0
 12 13  1  0
 12 14  2  0
 11 15  1  0
 15 16  1  0
 16 17  2  0
 16 18  1  0
 18 19  1  0
 19 20  1  0
 19 21  1  0
 19 22  1  0
 15 23  1  0
 23 24  2  0
  4 25  1  0
 25 26  1  0
 26  4  1  0
 24  6  1  0
 23  9  1  0
  1 27  1  0
  1 28  1  0
  1 29  1  0
  2 30  1  0
  2 31  1  0
  5 32  1  0
  5 33  1  0
  7 34  1  0
  8 35  1  0
 10 36  1  0
 13 37  1  0
 20 38  1  0
 20 39  1  0
 20 40  1  0
 21 41  1  0
 21 42  1  0
 21 43  1  0
 22 44  1  0
 22 45  1  0
 22 46  1  0
 24 47  1  0
 25 48  1  0
 25 49  1  0
 26 50  1  0
 26 51  1  0
M  CHG  1  13  -1
M  END
>  <UniqueID>  (31) 
30

>  <SMILES>  (31) 
CCOC1(Cc2ccc3cc(C([NH-])=O)n(C(=O)OC(C)(C)C)c3c2)CC1

>  <Energy>  (31) 
350.9089815762106

>  <Genealogy>  (31) 
CCOC1(Cc2ccc3cc(C([NH-])=O)n(C(=O)OC(C)(C)C)c3c2)CC1 (protonated)
CCOC1(Cc2ccc3cc(C([NH-])=O)n(C(=O)OC(C)(C)C)c3c2)CC1 (3D coordinates assigned)
CCOC1(Cc2ccc3cc(C([NH-])=O)n(C(=O)OC(C)(C)C)c3c2)CC1 (nonaromatic ring conformer: 350.9089815762106 kcal/mol)

>  <smiles>  (31) 
CCOC1(Cc2ccc3cc(C(N)=O)n(C(=O)OC(C)(C)C)c3c2)CC1

>  <score_type>  (31) 
oracle

>  <origin>  (31) 
adg

>  <m_score__min__energy>  (31) 
-11.25

>  <m_primary>  (31) 
energy

$$$$
31:0
     RDKit          3D

 46 50  0  0  0  0  0  0  0  0999 V2000
   -3.8910   25.6100  -30.8360 N   0  0  0  0  0  0  0  0  0  0  0  0
   -5.0720   24.9240  -30.4280 C   0  0  0  0  0  0  0  0  0  0  0  0
   -5.7320   25.3610  -29.4480 O   0  0  0  0  0  0  0  0  0  0  0  0
   -5.4980   23.6780  -31.1010 C   0  0  0  0  0  0  0  0  0  0  0  0
   -6.8300   23.3660  -31.3610 C   0  0  0  0  0  0  0  0  0  0  0  0
   -6.8090   22.0990  -31.8990 C   0  0  0  0  0  0  0  0  0  0  0  0
   -7.8570   21.3000  -32.3460 C   0  0  0  0  0  0  0  0  0  0  0  0
   -7.5410   20.0390  -32.8810 C   0  0  0  0  0  0  0  0  0  0  0  0
   -6.1920   19.6120  -32.9720 C   0  0  0  0  0  0  0  0  0  0  0  0
   -5.8750   18.2780  -33.5270 C   0  0  0  0  0  0  0  0  0  0  0  0
   -6.8580   17.2790  -33.4740 C   0  0  0  0  0  0  0  0  0  0  0  0
   -6.5850   15.9940  -33.9380 C   0  0  0  0  0  0  0  0  0  0  0  0
   -7.5390   15.0330  -33.8670 F   0  0  0  0  0  0  0  0  0  0  0  0
   -5.3280   15.6880  -34.4580 C   0  0  0  0  0  0  0  0  0  0  0  0
   -4.3260   16.6720  -34.5400 C   0  0  0  0  0  0  0  0  0  0  0  0
   -2.9920   16.3320  -35.1010 C   0  0  0  0  0  0  0  0  0  0  0  0
   -2.7050   15.2870  -35.9870 C   0  0  0  0  0  0  0  0  0  0  0  0
   -1.3520   15.3820  -36.2080 C   0  0  0  0  0  0  0  0  0  0  0  0
   -0.5000   14.6160  -37.0020 C   0  0  0  0  0  0  0  0  0  0  0  0
    0.8620   14.9660  -37.0260 C   0  0  0  0  0  0  0  0  0  0  0  0
    1.3340   16.0610  -36.2640 C   0  0  0  0  0  0  0  0  0  0  0  0
    2.6490   16.3870  -36.2950 F   0  0  0  0  0  0  0  0  0  0  0  0
    0.4450   16.8120  -35.4720 C   0  0  0  0  0  0  0  0  0  0  0  0
   -0.8980   16.4410  -35.4720 C   0  0  0  0  0  0  0  0  0  0  0  0
   -1.8840   16.9990  -34.8160 O   0  0  0  0  0  0  0  0  0  0  0  0
   -4.6080   17.9820  -34.0860 C   0  0  0  0  0  0  0  0  0  0  0  0
   -3.6350   18.9780  -34.2280 O   0  0  0  0  0  0  0  0  0  0  0  0
   -5.1570   20.4460  -32.4960 C   0  0  0  0  0  0  0  0  0  0  0  0
   -5.5020   21.6890  -31.9550 C   0  0  0  0  0  0  0  0  0  0  0  0
   -4.6830   22.6500  -31.4700 N   0  0  0  0  0  0  0  0  0  0  0  0
   -3.2470   22.6120  -31.4570 C   0  0  0  0  0  0  0  0  0  0  0  0
   -2.5240   23.1970  -30.3760 N   0  0  0  0  0  0  0  0  0  0  0  0
   -2.6190   22.0900  -32.4160 O   0  0  0  0  0  0  0  0  0  0  0  0
   -2.9500   25.2980  -30.5100 H   0  0  0  0  0  0  0  0  0  0  0  0
   -7.7114   23.9975  -31.1759 H   0  0  0  0  0  0  0  0  0  0  0  0
   -8.8998   21.6443  -32.2827 H   0  0  0  0  0  0  0  0  0  0  0  0
   -8.3471   19.3780  -33.2320 H   0  0  0  0  0  0  0  0  0  0  0  0
   -7.8515   17.5117  -33.0632 H   0  0  0  0  0  0  0  0  0  0  0  0
   -5.1176   14.6665  -34.8078 H   0  0  0  0  0  0  0  0  0  0  0  0
   -3.4061   14.5534  -36.4116 H   0  0  0  0  0  0  0  0  0  0  0  0
   -0.8798   13.7671  -37.5895 H   0  0  0  0  0  0  0  0  0  0  0  0
    1.5648   14.3848  -37.6410 H   0  0  0  0  0  0  0  0  0  0  0  0
    0.7990   17.6638  -34.8728 H   0  0  0  0  0  0  0  0  0  0  0  0
   -2.6430   18.7830  -34.2770 H   0  0  0  0  0  0  0  0  0  0  0  0
   -4.1058   20.1264  -32.5492 H   0  0  0  0  0  0  0  0  0  0  0  0
   -2.2950   24.2160  -30.3730 H   0  0  0  0  0  0  0  0  0  0  0  0
  1  2  1  0
  2  3  2  0
  2  4  1  0
  4  5  2  0
  5  6  1  0
  6  7  2  0
  7  8  1  0
  8  9  2  0
  9 10  1  0
 10 11  2  0
 11 12  1  0
 12 13  1  0
 12 14  2  0
 14 15  1  0
 15 16  1  0
 16 17  2  0
 17 18  1  0
 18 19  2  0
 19 20  1  0
 20 21  2  0
 21 22  1  0
 21 23  1  0
 23 24  2  0
 24 25  1  0
 15 26  2  0
 26 27  1  0
  9 28  1  0
 28 29  2  0
 29 30  1  0
 30 31  1  0
 31 32  1  0
 31 33  2  0
 30  4  1  0
 29  6  1  0
 26 10  1  0
 25 16  1  0
 24 18  1  0
  1 34  1  0
  5 35  1  0
  7 36  1  0
  8 37  1  0
 11 38  1  0
 14 39  1  0
 17 40  1  0
 19 41  1  0
 20 42  1  0
 23 43  1  0
 27 44  1  0
 28 45  1  0
 32 46  1  0
M  CHG  2   1  -1  32  -1
M  END
>  <UniqueID>  (32) 
31

>  <SMILES>  (32) 
[NH-]C(=O)c1cc2ccc(-c3cc(F)cc(-c4cc5ccc(F)cc5o4)c3O)cc2n1C([NH-])=O

>  <Energy>  (32) 
136.8597458661596

>  <Genealogy>  (32) 
[NH-]C(=O)c1cc2ccc(-c3cc(F)cc(-c4cc5ccc(F)cc5o4)c3O)cc2n1C([NH-])=O (protonated)
[NH-]C(=O)c1cc2ccc(-c3cc(F)cc(-c4cc5ccc(F)cc5o4)c3O)cc2n1C([NH-])=O (3D coordinates assigned)
[NH-]C(=O)c1cc2ccc(-c3cc(F)cc(-c4cc5ccc(F)cc5o4)c3O)cc2n1C([NH-])=O (optimized conformer: 136.8597458661596 kcal/mol)

>  <smiles>  (32) 
NC(=O)c1cc2ccc(-c3cc(F)cc(-c4cc5ccc(F)cc5o4)c3O)cc2n1C(N)=O

>  <score_type>  (32) 
oracle

>  <origin>  (32) 
adg

>  <m_score__min__energy>  (32) 
-10.699999999999999

>  <m_primary>  (32) 
energy

$$$$
32:0
     RDKit          3D

 38 39  0  0  0  0  0  0  0  0999 V2000
   -3.4180   22.4440  -28.6410 C   0  0  0  0  0  0  0  0  0  0  0  0
   -2.3530   23.1980  -29.4590 C   0  0  0  0  0  0  0  0  0  0  0  0
   -2.0480   24.5340  -28.7630 C   0  0  0  0  0  0  0  0  0  0  0  0
   -1.0530   22.3770  -29.5520 C   0  0  0  0  0  0  0  0  0  0  0  0
   -2.8500   23.5080  -30.7680 O   0  0  0  0  0  0  0  0  0  0  0  0
   -3.6190   22.6690  -31.5880 C   0  0  0  0  0  0  0  0  0  0  0  0
   -3.0710   21.8990  -32.4220 O   0  0  0  0  0  0  0  0  0  0  0  0
   -5.0500   22.6790  -31.4620 N   0  0  0  0  0  0  0  0  0  0  0  0
   -5.8350   23.6660  -30.9430 C   0  0  0  0  0  0  0  0  0  0  0  0
   -5.3450   24.8870  -30.2650 C   0  0  0  0  0  0  0  0  0  0  0  0
   -5.7570   25.1990  -28.9330 N   0  0  0  0  0  0  0  0  0  0  0  0
   -4.5300   25.6520  -30.8490 O   0  0  0  0  0  0  0  0  0  0  0  0
   -7.1820   23.3230  -31.0500 C   0  0  0  0  0  0  0  0  0  0  0  0
   -7.1970   22.0880  -31.6540 C   0  0  0  0  0  0  0  0  0  0  0  0
   -8.2720   21.2740  -32.0000 C   0  0  0  0  0  0  0  0  0  0  0  0
   -7.9960   20.0500  -32.6300 C   0  0  0  0  0  0  0  0  0  0  0  0
   -6.6610   19.6710  -32.9280 C   0  0  0  0  0  0  0  0  0  0  0  0
   -6.3750   18.3380  -33.5720 C   0  0  0  0  0  0  0  0  0  0  0  0
   -6.1150   18.5280  -34.9160 F   0  0  0  0  0  0  0  0  0  0  0  0
   -5.2800   17.7350  -32.9810 F   0  0  0  0  0  0  0  0  0  0  0  0
   -7.4610   17.4890  -33.4390 F   0  0  0  0  0  0  0  0  0  0  0  0
   -5.5950   20.5160  -32.5380 C   0  0  0  0  0  0  0  0  0  0  0  0
   -5.8990   21.7200  -31.8930 C   0  0  0  0  0  0  0  0  0  0  0  0
   -3.2220   22.5828  -27.5675 H   0  0  0  0  0  0  0  0  0  0  0  0
   -4.4153   22.8384  -28.8856 H   0  0  0  0  0  0  0  0  0  0  0  0
   -3.3774   21.3723  -28.8856 H   0  0  0  0  0  0  0  0  0  0  0  0
   -2.0798   24.3949  -27.6723 H   0  0  0  0  0  0  0  0  0  0  0  0
   -1.0474   24.8817  -29.0593 H   0  0  0  0  0  0  0  0  0  0  0  0
   -2.7986   25.2815  -29.0593 H   0  0  0  0  0  0  0  0  0  0  0  0
   -0.6906   22.1481  -28.5389 H   0  0  0  0  0  0  0  0  0  0  0  0
   -1.2496   21.4389  -30.0917 H   0  0  0  0  0  0  0  0  0  0  0  0
   -0.2904   22.9577  -30.0917 H   0  0  0  0  0  0  0  0  0  0  0  0
   -6.4720   24.6220  -28.4370 H   0  0  0  0  0  0  0  0  0  0  0  0
   -5.3740   26.0410  -28.4500 H   0  0  0  0  0  0  0  0  0  0  0  0
   -8.0489   23.9149  -30.7210 H   0  0  0  0  0  0  0  0  0  0  0  0
   -9.3066   21.5805  -31.7862 H   0  0  0  0  0  0  0  0  0  0  0  0
   -8.8243   19.3767  -32.8958 H   0  0  0  0  0  0  0  0  0  0  0  0
   -4.5510   20.2328  -32.7374 H   0  0  0  0  0  0  0  0  0  0  0  0
  1  2  1  0
  2  3  1  0
  2  4  1  0
  2  5  1  0
  5  6  1  0
  6  7  2  0
  6  8  1  0
  8  9  1  0
  9 10  1  0
 10 11  1  0
 10 12  2  0
  9 13  2  0
 13 14  1  0
 14 15  2  0
 15 16  1  0
 16 17  2  0
 17 18  1  0
 18 19  1  0
 18 20  1  0
 18 21  1  0
 17 22  1  0
 22 23  2  0
 23  8  1  0
 23 14  1  0
  1 24  1  0
  1 25  1  0
  1 26  1  0
  3 27  1  0
  3 28  1  0
  3 29  1  0
  4 30  1  0
  4 31  1  0
  4 32  1  0
 11 33  1  0
 11 34  1  0
 13 35  1  0
 15 36  1  0
 16 37  1  0
 22 38  1  0
M  END
>  <UniqueID>  (33) 
32

>  <SMILES>  (33) 
CC(C)(C)OC(=O)n1c(C(N)=O)cc2ccc(C(F)(F)F)cc21

>  <Energy>  (33) 
72.18323241736272

>  <Genealogy>  (33) 
CC(C)(C)OC(=O)n1c(C(N)=O)cc2ccc(C(F)(F)F)cc21 (3D coordinates assigned)
CC(C)(C)OC(=O)n1c(C(N)=O)cc2ccc(C(F)(F)F)cc21 (optimized conformer: 72.18323241736272 kcal/mol)

>  <smiles>  (33) 
CC(C)(C)OC(=O)n1c(C(N)=O)cc2ccc(C(F)(F)F)cc21

>  <score_type>  (33) 
oracle

>  <origin>  (33) 
adg

>  <m_score__min__energy>  (33) 
-8.4399999999999995

>  <m_primary>  (33) 
energy

$$$$
33:0
     RDKit          3D

 25 26  0  0  0  0  0  0  0  0999 V2000
   -2.8800   23.3580  -30.9010 N   0  0  0  0  0  0  0  0  0  0  0  0
   -3.7710   22.6550  -31.7650 C   0  0  0  0  0  0  0  0  0  0  0  0
   -3.3080   22.0220  -32.7500 O   0  0  0  0  0  0  0  0  0  0  0  0
   -5.1880   22.6830  -31.5210 N   0  0  0  0  0  0  0  0  0  0  0  0
   -5.9090   23.6760  -30.9280 C   0  0  0  0  0  0  0  0  0  0  0  0
   -5.3510   24.8620  -30.2480 C   0  0  0  0  0  0  0  0  0  0  0  0
   -5.8020   25.2510  -28.9500 N   0  0  0  0  0  0  0  0  0  0  0  0
   -4.5030   25.5770  -30.8460 O   0  0  0  0  0  0  0  0  0  0  0  0
   -7.2720   23.4020  -30.9910 C   0  0  0  0  0  0  0  0  0  0  0  0
   -7.3690   22.1900  -31.6350 C   0  0  0  0  0  0  0  0  0  0  0  0
   -8.4960   21.4480  -31.9780 C   0  0  0  0  0  0  0  0  0  0  0  0
   -8.3030   20.2440  -32.6750 C   0  0  0  0  0  0  0  0  0  0  0  0
   -7.0010   19.8130  -33.0200 C   0  0  0  0  0  0  0  0  0  0  0  0
   -6.8200   18.5910  -33.7410 N   0  0  0  0  0  0  0  0  0  0  0  0
   -5.8800   20.5900  -32.6580 C   0  0  0  0  0  0  0  0  0  0  0  0
   -6.0990   21.7770  -31.9460 C   0  0  0  0  0  0  0  0  0  0  0  0
   -2.8540   24.4020  -30.8940 H   0  0  0  0  0  0  0  0  0  0  0  0
   -6.6170   24.7790  -28.4990 H   0  0  0  0  0  0  0  0  0  0  0  0
   -5.3710   26.0710  -28.4690 H   0  0  0  0  0  0  0  0  0  0  0  0
   -8.0958   24.0220  -30.6078 H   0  0  0  0  0  0  0  0  0  0  0  0
   -9.5057   21.7938  -31.7115 H   0  0  0  0  0  0  0  0  0  0  0  0
   -9.1723   19.6308  -32.9550 H   0  0  0  0  0  0  0  0  0  0  0  0
   -6.8590   18.5740  -34.7840 H   0  0  0  0  0  0  0  0  0  0  0  0
   -6.6450   17.6930  -33.2350 H   0  0  0  0  0  0  0  0  0  0  0  0
   -4.8618   20.2725  -32.9274 H   0  0  0  0  0  0  0  0  0  0  0  0
  1  2  1  0
  2  3  2  0
  2  4  1  0
  4  5  1  0
  5  6  1  0
  6  7  1  0
  6  8  2  0
  5  9  2  0
  9 10  1  0
 10 11  2  0
 11 12  1  0
 12 13  2  0
 13 14  1  0
 13 15  1  0
 15 16  2  0
 16  4  1  0
 16 10  1  0
  1 17  1  0
  7 18  1  0
  7 19  1  0
  9 20  1  0
 11 21  1  0
 12 22  1  0
 14 23  1  0
 14 24  1  0
 15 25  1  0
M  CHG  1   1  -1
M  END
>  <UniqueID>  (34) 
33

>  <SMILES>  (34) 
[NH-]C(=O)n1c(C(N)=O)cc2ccc(N)cc21

>  <Energy>  (34) 
64.29723505837421

>  <Genealogy>  (34) 
[NH-]C(=O)n1c(C(N)=O)cc2ccc(N)cc21 (protonated)
[NH-]C(=O)n1c(C(N)=O)cc2ccc(N)cc21 (3D coordinates assigned)
[NH-]C(=O)n1c(C(N)=O)cc2ccc(N)cc21 (optimized conformer: 64.29723505837421 kcal/mol)

>  <smiles>  (34) 
NC(=O)c1cc2ccc(N)cc2n1C(N)=O

>  <score_type>  (34) 
oracle

>  <origin>  (34) 
adg

>  <m_score__min__energy>  (34) 
-7.5800000000000001

>  <m_primary>  (34) 
energy

$$$$
34:0
     RDKit          3D

 38 40  0  0  0  0  0  0  0  0999 V2000
   -7.8860   18.5210  -32.5920 C   0  0  0  0  0  0  0  0  0  0  0  0
   -7.8350   19.9420  -32.1150 C   0  0  0  0  0  0  0  0  0  0  0  0
   -9.0330   20.6880  -31.9800 C   0  0  0  0  0  0  0  0  0  0  0  0
   -8.9950   22.0350  -31.5840 C   0  0  0  0  0  0  0  0  0  0  0  0
   -7.7520   22.6070  -31.3330 C   0  0  0  0  0  0  0  0  0  0  0  0
   -7.4250   23.8950  -30.9730 C   0  0  0  0  0  0  0  0  0  0  0  0
   -6.0340   23.9130  -30.8870 C   0  0  0  0  0  0  0  0  0  0  0  0
   -5.2620   25.0930  -30.4480 C   0  0  0  0  0  0  0  0  0  0  0  0
   -3.8710   25.2080  -30.7340 N   0  0  0  0  0  0  0  0  0  0  0  0
   -5.8280   25.9920  -29.7710 O   0  0  0  0  0  0  0  0  0  0  0  0
   -5.5200   22.6870  -31.1870 N   0  0  0  0  0  0  0  0  0  0  0  0
   -4.1390   22.3210  -31.3100 C   0  0  0  0  0  0  0  0  0  0  0  0
   -3.4760   22.6950  -32.3170 O   0  0  0  0  0  0  0  0  0  0  0  0
   -3.5260   21.5750  -30.2970 O   0  0  0  0  0  0  0  0  0  0  0  0
   -2.3090   21.9650  -29.6640 C   0  0  0  0  0  0  0  0  0  0  0  0
   -2.5740   23.0330  -28.6380 C   0  0  0  0  0  0  0  0  0  0  0  0
   -1.5460   23.9110  -28.2580 C   0  0  0  0  0  0  0  0  0  0  0  0
   -1.7780   24.8880  -27.2850 C   0  0  0  0  0  0  0  0  0  0  0  0
   -3.0360   24.9940  -26.6850 C   0  0  0  0  0  0  0  0  0  0  0  0
   -4.0620   24.1220  -27.0550 C   0  0  0  0  0  0  0  0  0  0  0  0
   -3.8350   23.1430  -28.0270 C   0  0  0  0  0  0  0  0  0  0  0  0
   -6.5840   21.8980  -31.4570 C   0  0  0  0  0  0  0  0  0  0  0  0
   -6.5910   20.5590  -31.8690 C   0  0  0  0  0  0  0  0  0  0  0  0
   -7.9103   17.8440  -31.7254 H   0  0  0  0  0  0  0  0  0  0  0  0
   -8.7901   18.3706  -33.2002 H   0  0  0  0  0  0  0  0  0  0  0  0
   -6.9950   18.3062  -33.2002 H   0  0  0  0  0  0  0  0  0  0  0  0
  -10.0007   20.2077  -32.1872 H   0  0  0  0  0  0  0  0  0  0  0  0
   -9.9202   22.6200  -31.4756 H   0  0  0  0  0  0  0  0  0  0  0  0
   -8.1151   24.7322  -30.7917 H   0  0  0  0  0  0  0  0  0  0  0  0
   -3.4900   26.0450  -31.2270 H   0  0  0  0  0  0  0  0  0  0  0  0
   -1.8602   21.0905  -29.1701 H   0  0  0  0  0  0  0  0  0  0  0  0
   -1.6208   22.3620  -30.4248 H   0  0  0  0  0  0  0  0  0  0  0  0
   -0.5546   23.8298  -28.7275 H   0  0  0  0  0  0  0  0  0  0  0  0
   -0.9697   25.5739  -26.9914 H   0  0  0  0  0  0  0  0  0  0  0  0
   -3.2178   25.7645  -25.9212 H   0  0  0  0  0  0  0  0  0  0  0  0
   -5.0510   24.2055  -26.5807 H   0  0  0  0  0  0  0  0  0  0  0  0
   -4.6455   22.4570  -28.3143 H   0  0  0  0  0  0  0  0  0  0  0  0
   -5.6504   20.0033  -31.9973 H   0  0  0  0  0  0  0  0  0  0  0  0
  1  2  1  0
  2  3  2  0
  3  4  1  0
  4  5  2  0
  5  6  1  0
  6  7  2  0
  7  8  1  0
  8  9  1  0
  8 10  2  0
  7 11  1  0
 11 12  1  0
 12 13  2  0
 12 14  1  0
 14 15  1  0
 15 16  1  0
 16 17  2  0
 17 18  1  0
 18 19  2  0
 19 20  1  0
 20 21  2  0
 11 22  1  0
 22 23  2  0
 23  2  1  0
 22  5  1  0
 21 16  1  0
  1 24  1  0
  1 25  1  0
  1 26  1  0
  3 27  1  0
  4 28  1  0
  6 29  1  0
  9 30  1  0
 15 31  1  0
 15 32  1  0
 17 33  1  0
 18 34  1  0
 19 35  1  0
 20 36  1  0
 21 37  1  0
 23 38  1  0
M  CHG  1   9  -1
M  END
>  <UniqueID>  (35) 
34

>  <SMILES>  (35) 
Cc1ccc2cc(C([NH-])=O)n(C(=O)OCc3ccccc3)c2c1

>  <Energy>  (35) 
77.03146738762528

>  <Genealogy>  (35) 
Cc1ccc2cc(C([NH-])=O)n(C(=O)OCc3ccccc3)c2c1 (protonated)
Cc1ccc2cc(C([NH-])=O)n(C(=O)OCc3ccccc3)c2c1 (3D coordinates assigned)
Cc1ccc2cc(C([NH-])=O)n(C(=O)OCc3ccccc3)c2c1 (optimized conformer: 77.03146738762528 kcal/mol)

>  <smiles>  (35) 
Cc1ccc2cc(C(N)=O)n(C(=O)OCc3ccccc3)c2c1

>  <score_type>  (35) 
oracle

>  <origin>  (35) 
adg

>  <m_score__min__energy>  (35) 
-10.640000000000001

>  <m_primary>  (35) 
energy

$$$$
35:0
     RDKit          3D

 24 25  0  0  0  0  0  0  0  0999 V2000
   -5.6520   26.4630  -30.1630 N   0  0  0  0  0  0  0  0  0  0  0  0
   -6.4810   25.3050  -30.0620 C   0  0  0  0  0  0  0  0  0  0  0  0
   -7.4690   25.3200  -29.2800 O   0  0  0  0  0  0  0  0  0  0  0  0
   -6.1660   24.0700  -30.8070 C   0  0  0  0  0  0  0  0  0  0  0  0
   -7.1300   23.3000  -31.4520 C   0  0  0  0  0  0  0  0  0  0  0  0
   -6.4480   22.2200  -31.9630 C   0  0  0  0  0  0  0  0  0  0  0  0
   -6.9140   21.1420  -32.7120 C   0  0  0  0  0  0  0  0  0  0  0  0
   -5.9780   20.1880  -33.1440 C   0  0  0  0  0  0  0  0  0  0  0  0
   -4.6060   20.3320  -32.8290 C   0  0  0  0  0  0  0  0  0  0  0  0
   -3.6620   19.3600  -33.2870 N   0  0  0  0  0  0  0  0  0  0  0  0
   -4.1680   21.4370  -32.0700 C   0  0  0  0  0  0  0  0  0  0  0  0
   -5.1240   22.3640  -31.6330 C   0  0  0  0  0  0  0  0  0  0  0  0
   -4.9330   23.4990  -30.9240 N   0  0  0  0  0  0  0  0  0  0  0  0
   -3.6740   24.0450  -30.4950 C   0  0  0  0  0  0  0  0  0  0  0  0
   -3.4910   25.2910  -30.4810 O   0  0  0  0  0  0  0  0  0  0  0  0
   -2.6420   23.2050  -30.0950 O   0  0  0  0  0  0  0  0  0  0  0  0
   -4.7370   26.4280  -30.6660 H   0  0  0  0  0  0  0  0  0  0  0  0
   -5.9110   27.3390  -29.6590 H   0  0  0  0  0  0  0  0  0  0  0  0
   -8.2065   23.5102  -31.5352 H   0  0  0  0  0  0  0  0  0  0  0  0
   -7.9815   21.0410  -32.9575 H   0  0  0  0  0  0  0  0  0  0  0  0
   -6.3144   19.3215  -33.7322 H   0  0  0  0  0  0  0  0  0  0  0  0
   -2.9150   18.9990  -32.6520 H   0  0  0  0  0  0  0  0  0  0  0  0
   -3.7040   18.9940  -34.2650 H   0  0  0  0  0  0  0  0  0  0  0  0
   -3.1032   21.5680  -31.8272 H   0  0  0  0  0  0  0  0  0  0  0  0
  1  2  1  0
  2  3  2  0
  2  4  1  0
  4  5  2  0
  5  6  1  0
  6  7  2  0
  7  8  1  0
  8  9  2  0
  9 10  1  0
  9 11  1  0
 11 12  2  0
 12 13  1  0
 13 14  1  0
 14 15  2  0
 14 16  1  0
 13  4  1  0
 12  6  1  0
  1 17  1  0
  1 18  1  0
  5 19  1  0
  7 20  1  0
  8 21  1  0
 10 22  1  0
 10 23  1  0
 11 24  1  0
M  CHG  1  16  -1
M  END
>  <UniqueID>  (36) 
35

>  <SMILES>  (36) 
NC(=O)c1cc2ccc(N)cc2n1C(=O)[O-]

>  <Energy>  (36) 
63.91083407807129

>  <Genealogy>  (36) 
NC(=O)c1cc2ccc(N)cc2n1C(=O)[O-] (protonated)
NC(=O)c1cc2ccc(N)cc2n1C(=O)[O-] (3D coordinates assigned)
NC(=O)c1cc2ccc(N)cc2n1C(=O)[O-] (optimized conformer: 63.91083407807129 kcal/mol)

>  <smiles>  (36) 
NC(=O)c1cc2ccc(N)cc2n1C(=O)O

>  <score_type>  (36) 
oracle

>  <origin>  (36) 
adg

>  <m_score__min__energy>  (36) 
-7.3200000000000003

>  <m_primary>  (36) 
energy

$$$$
36:0
     RDKit          3D

 51 53  0  0  0  0  0  0  0  0999 V2000
   -3.8840   21.9330  -33.4800 C   0  0  0  0  0  0  0  0  0  0  0  0
   -3.0760   20.9070  -32.6630 C   0  0  0  0  0  0  0  0  0  0  0  0
   -2.8210   19.6310  -33.4870 C   0  0  0  0  0  0  0  0  0  0  0  0
   -1.7230   21.5290  -32.2820 C   0  0  0  0  0  0  0  0  0  0  0  0
   -3.7530   20.5900  -31.4380 O   0  0  0  0  0  0  0  0  0  0  0  0
   -4.1390   21.5000  -30.4410 C   0  0  0  0  0  0  0  0  0  0  0  0
   -3.4590   21.6340  -29.3880 O   0  0  0  0  0  0  0  0  0  0  0  0
   -5.3070   22.3080  -30.6410 N   0  0  0  0  0  0  0  0  0  0  0  0
   -5.4570   23.6410  -30.3990 C   0  0  0  0  0  0  0  0  0  0  0  0
   -4.4790   24.5170  -29.7190 C   0  0  0  0  0  0  0  0  0  0  0  0
   -3.5400   25.2870  -30.4670 N   0  0  0  0  0  0  0  0  0  0  0  0
   -4.4410   24.5500  -28.4600 O   0  0  0  0  0  0  0  0  0  0  0  0
   -6.7170   24.0730  -30.8090 C   0  0  0  0  0  0  0  0  0  0  0  0
   -7.3420   22.9520  -31.3060 C   0  0  0  0  0  0  0  0  0  0  0  0
   -8.6110   22.8050  -31.8570 C   0  0  0  0  0  0  0  0  0  0  0  0
   -8.9870   21.5310  -32.3160 C   0  0  0  0  0  0  0  0  0  0  0  0
   -8.0880   20.4330  -32.2310 C   0  0  0  0  0  0  0  0  0  0  0  0
   -8.4450   19.1230  -32.7130 N   0  0  0  0  0  0  0  0  0  0  0  0
   -7.9060   17.8710  -32.1820 C   0  0  0  0  0  0  0  0  0  0  0  0
   -6.6350   17.4920  -32.8970 C   0  0  0  0  0  0  0  0  0  0  0  0
   -6.3780   17.9840  -34.1850 C   0  0  0  0  0  0  0  0  0  0  0  0
   -5.1980   17.6420  -34.8520 C   0  0  0  0  0  0  0  0  0  0  0  0
   -4.2480   16.8060  -34.2370 C   0  0  0  0  0  0  0  0  0  0  0  0
   -3.0320   16.4510  -34.9190 N   0  0  0  0  0  0  0  0  0  0  0  0
   -1.9270   16.8650  -34.5100 O   0  0  0  0  0  0  0  0  0  0  0  0
   -3.0650   15.6480  -36.0380 O   0  0  0  0  0  0  0  0  0  0  0  0
   -4.5040   16.3240  -32.9410 C   0  0  0  0  0  0  0  0  0  0  0  0
   -5.6850   16.6670  -32.2770 C   0  0  0  0  0  0  0  0  0  0  0  0
   -6.8120   20.6270  -31.6600 C   0  0  0  0  0  0  0  0  0  0  0  0
   -6.4710   21.9010  -31.1920 C   0  0  0  0  0  0  0  0  0  0  0  0
   -4.4166   22.6093  -32.7952 H   0  0  0  0  0  0  0  0  0  0  0  0
   -3.2006   22.5168  -34.1141 H   0  0  0  0  0  0  0  0  0  0  0  0
   -4.6118   21.4055  -34.1141 H   0  0  0  0  0  0  0  0  0  0  0  0
   -2.6516   18.7831  -32.8070 H   0  0  0  0  0  0  0  0  0  0  0  0
   -3.6954   19.4233  -34.1213 H   0  0  0  0  0  0  0  0  0  0  0  0
   -1.9339   19.7753  -34.1213 H   0  0  0  0  0  0  0  0  0  0  0  0
   -1.6338   21.5700  -31.1864 H   0  0  0  0  0  0  0  0  0  0  0  0
   -0.9083   20.9150  -32.6935 H   0  0  0  0  0  0  0  0  0  0  0  0
   -1.6586   22.5471  -32.6935 H   0  0  0  0  0  0  0  0  0  0  0  0
   -3.8590   26.0600  -31.0930 H   0  0  0  0  0  0  0  0  0  0  0  0
   -7.1251   25.0927  -30.7483 H   0  0  0  0  0  0  0  0  0  0  0  0
   -9.2991   23.6600  -31.9311 H   0  0  0  0  0  0  0  0  0  0  0  0
   -9.9884   21.3817  -32.7460 H   0  0  0  0  0  0  0  0  0  0  0  0
   -9.1740   19.0500  -33.4590 H   0  0  0  0  0  0  0  0  0  0  0  0
   -7.6937   17.9953  -31.1099 H   0  0  0  0  0  0  0  0  0  0  0  0
   -8.6484   17.0738  -32.3344 H   0  0  0  0  0  0  0  0  0  0  0  0
   -7.1101   18.6436  -34.6738 H   0  0  0  0  0  0  0  0  0  0  0  0
   -5.0109   18.0291  -35.8645 H   0  0  0  0  0  0  0  0  0  0  0  0
   -3.7692   15.6720  -32.4461 H   0  0  0  0  0  0  0  0  0  0  0  0
   -5.8708   16.2875  -31.2614 H   0  0  0  0  0  0  0  0  0  0  0  0
   -6.0991   19.7927  -31.5843 H   0  0  0  0  0  0  0  0  0  0  0  0
  1  2  1  0
  2  3  1  0
  2  4  1  0
  2  5  1  0
  5  6  1  0
  6  7  2  0
  6  8  1  0
  8  9  1  0
  9 10  1  0
 10 11  1  0
 10 12  2  0
  9 13  2  0
 13 14  1  0
 14 15  2  0
 15 16  1  0
 16 17  2  0
 17 18  1  0
 18 19  1  0
 19 20  1  0
 20 21  2  0
 21 22  1  0
 22 23  2  0
 23 24  1  0
 24 25  2  0
 24 26  1  0
 23 27  1  0
 27 28  2  0
 17 29  1  0
 29 30  2  0
 30  8  1  0
 30 14  1  0
 28 20  1  0
  1 31  1  0
  1 32  1  0
  1 33  1  0
  3 34  1  0
  3 35  1  0
  3 36  1  0
  4 37  1  0
  4 38  1  0
  4 39  1  0
 11 40  1  0
 13 41  1  0
 15 42  1  0
 16 43  1  0
 18 44  1  0
 19 45  1  0
 19 46  1  0
 21 47  1  0
 22 48  1  0
 27 49  1  0
 28 50  1  0
 29 51  1  0
M  CHG  3  11  -1  24   1  26  -1
M  END
>  <UniqueID>  (37) 
36

>  <SMILES>  (37) 
CC(C)(C)OC(=O)n1c(C([NH-])=O)cc2ccc(NCc3ccc([N+](=O)[O-])cc3)cc21

>  <Energy>  (37) 
87.79596006910407

>  <Genealogy>  (37) 
CC(C)(C)OC(=O)n1c(C([NH-])=O)cc2ccc(NCc3ccc([N+](=O)[O-])cc3)cc21 (protonated)
CC(C)(C)OC(=O)n1c(C([NH-])=O)cc2ccc(NCc3ccc([N+](=O)[O-])cc3)cc21 (3D coordinates assigned)
CC(C)(C)OC(=O)n1c(C([NH-])=O)cc2ccc(NCc3ccc([N+](=O)[O-])cc3)cc21 (optimized conformer: 87.79596006910407 kcal/mol)

>  <smiles>  (37) 
CC(C)(C)OC(=O)n1c(C(N)=O)cc2ccc(NCc3ccc([N+](=O)[O-])cc3)cc21

>  <score_type>  (37) 
oracle

>  <origin>  (37) 
adg

>  <m_score__min__energy>  (37) 
-12.24

>  <m_primary>  (37) 
energy

$$$$
37:0
     RDKit          3D

 35 37  0  0  0  0  0  0  0  0999 V2000
   -1.5320   26.2610  -28.5090 N   0  0  0  0  0  0  0  0  0  0  0  0
   -0.7990   25.0370  -28.5820 C   0  0  0  0  0  0  0  0  0  0  0  0
    0.2870   24.9350  -27.9520 O   0  0  0  0  0  0  0  0  0  0  0  0
   -1.2850   23.9140  -29.4150 C   0  0  0  0  0  0  0  0  0  0  0  0
   -0.4950   22.8280  -29.7880 C   0  0  0  0  0  0  0  0  0  0  0  0
   -1.3400   21.9790  -30.4640 C   0  0  0  0  0  0  0  0  0  0  0  0
   -1.0790   20.7510  -31.0650 C   0  0  0  0  0  0  0  0  0  0  0  0
   -2.1360   20.1010  -31.7230 C   0  0  0  0  0  0  0  0  0  0  0  0
   -3.4280   20.6870  -31.7770 C   0  0  0  0  0  0  0  0  0  0  0  0
   -4.5350   19.9950  -32.4850 C   0  0  0  0  0  0  0  0  0  0  0  0
   -4.2770   19.2240  -33.6310 C   0  0  0  0  0  0  0  0  0  0  0  0
   -5.3180   18.5620  -34.2870 C   0  0  0  0  0  0  0  0  0  0  0  0
   -5.0540   17.8130  -35.3860 F   0  0  0  0  0  0  0  0  0  0  0  0
   -6.6270   18.6680  -33.8140 C   0  0  0  0  0  0  0  0  0  0  0  0
   -6.9140   19.4540  -32.6860 C   0  0  0  0  0  0  0  0  0  0  0  0
   -8.3190   19.5270  -32.1420 C   0  0  0  0  0  0  0  0  0  0  0  0
   -8.3250   20.3050  -30.9990 F   0  0  0  0  0  0  0  0  0  0  0  0
   -9.1740   20.0890  -33.0750 F   0  0  0  0  0  0  0  0  0  0  0  0
   -8.7910   18.2640  -31.8300 F   0  0  0  0  0  0  0  0  0  0  0  0
   -5.8570   20.0960  -32.0130 C   0  0  0  0  0  0  0  0  0  0  0  0
   -3.6510   21.9360  -31.1520 C   0  0  0  0  0  0  0  0  0  0  0  0
   -2.5840   22.5520  -30.4870 C   0  0  0  0  0  0  0  0  0  0  0  0
   -2.5680   23.7430  -29.8470 N   0  0  0  0  0  0  0  0  0  0  0  0
   -3.6680   24.6580  -29.7130 C   0  0  0  0  0  0  0  0  0  0  0  0
   -4.4630   24.5600  -28.7420 O   0  0  0  0  0  0  0  0  0  0  0  0
   -3.8580   25.6700  -30.6470 O   0  0  0  0  0  0  0  0  0  0  0  0
   -1.1610   27.0610  -27.9500 H   0  0  0  0  0  0  0  0  0  0  0  0
   -2.4620   26.3660  -28.9710 H   0  0  0  0  0  0  0  0  0  0  0  0
    0.5761   22.6812  -29.5850 H   0  0  0  0  0  0  0  0  0  0  0  0
   -0.0751   20.3030  -31.0258 H   0  0  0  0  0  0  0  0  0  0  0  0
   -1.9607   19.1265  -32.2021 H   0  0  0  0  0  0  0  0  0  0  0  0
   -3.2492   19.1411  -34.0141 H   0  0  0  0  0  0  0  0  0  0  0  0
   -7.4389   18.1326  -34.3280 H   0  0  0  0  0  0  0  0  0  0  0  0
   -6.0670   20.6837  -31.1072 H   0  0  0  0  0  0  0  0  0  0  0  0
   -4.6415   22.4132  -31.1876 H   0  0  0  0  0  0  0  0  0  0  0  0
  1  2  1  0
  2  3  2  0
  2  4  1  0
  4  5  2  0
  5  6  1  0
  6  7  2  0
  7  8  1  0
  8  9  2  0
  9 10  1  0
 10 11  2  0
 11 12  1  0
 12 13  1  0
 12 14  2  0
 14 15  1  0
 15 16  1  0
 16 17  1  0
 16 18  1  0
 16 19  1  0
 15 20  2  0
  9 21  1  0
 21 22  2  0
 22 23  1  0
 23 24  1  0
 24 25  2  0
 24 26  1  0
 23  4  1  0
 22  6  1  0
 20 10  1  0
  1 27  1  0
  1 28  1  0
  5 29  1  0
  7 30  1  0
  8 31  1  0
 11 32  1  0
 14 33  1  0
 20 34  1  0
 21 35  1  0
M  CHG  1  26  -1
M  END
>  <UniqueID>  (38) 
37

>  <SMILES>  (38) 
NC(=O)c1cc2ccc(-c3cc(F)cc(C(F)(F)F)c3)cc2n1C(=O)[O-]

>  <Energy>  (38) 
82.84070021368615

>  <Genealogy>  (38) 
NC(=O)c1cc2ccc(-c3cc(F)cc(C(F)(F)F)c3)cc2n1C(=O)[O-] (protonated)
NC(=O)c1cc2ccc(-c3cc(F)cc(C(F)(F)F)c3)cc2n1C(=O)[O-] (3D coordinates assigned)
NC(=O)c1cc2ccc(-c3cc(F)cc(C(F)(F)F)c3)cc2n1C(=O)[O-] (optimized conformer: 82.84070021368615 kcal/mol)

>  <smiles>  (38) 
NC(=O)c1cc2ccc(-c3cc(F)cc(C(F)(F)F)c3)cc2n1C(=O)O

>  <score_type>  (38) 
oracle

>  <origin>  (38) 
adg

>  <m_score__min__energy>  (38) 
-9.4100000000000001

>  <m_primary>  (38) 
energy

$$$$
38:0
     RDKit          3D

 59 63  0  0  0  0  0  0  0  0999 V2000
   -1.3930   22.9580  -27.7690 C   0  0  0  0  0  0  0  0  0  0  0  0
   -2.7550   22.7790  -28.4680 C   0  0  0  0  0  0  0  0  0  0  0  0
   -3.0640   21.2780  -28.5740 C   0  0  0  0  0  0  0  0  0  0  0  0
   -3.8750   23.4620  -27.6620 C   0  0  0  0  0  0  0  0  0  0  0  0
   -2.7070   23.2960  -29.8060 O   0  0  0  0  0  0  0  0  0  0  0  0
   -3.2080   22.6730  -30.9580 C   0  0  0  0  0  0  0  0  0  0  0  0
   -2.4420   22.0550  -31.7460 O   0  0  0  0  0  0  0  0  0  0  0  0
   -4.6170   22.7210  -31.2290 N   0  0  0  0  0  0  0  0  0  0  0  0
   -5.4860   23.7340  -30.9490 C   0  0  0  0  0  0  0  0  0  0  0  0
   -5.1210   25.0720  -30.4400 C   0  0  0  0  0  0  0  0  0  0  0  0
   -3.8870   25.6690  -30.8320 N   0  0  0  0  0  0  0  0  0  0  0  0
   -5.8700   25.6800  -29.6310 O   0  0  0  0  0  0  0  0  0  0  0  0
   -6.7870   23.3690  -31.2860 C   0  0  0  0  0  0  0  0  0  0  0  0
   -6.6890   22.0910  -31.7900 C   0  0  0  0  0  0  0  0  0  0  0  0
   -7.6800   21.2400  -32.2700 C   0  0  0  0  0  0  0  0  0  0  0  0
   -7.2960   19.9610  -32.7040 C   0  0  0  0  0  0  0  0  0  0  0  0
   -5.9400   19.5500  -32.6320 C   0  0  0  0  0  0  0  0  0  0  0  0
   -5.5380   18.2000  -33.0830 C   0  0  0  0  0  0  0  0  0  0  0  0
   -6.4050   17.1340  -33.2610 C   0  0  0  0  0  0  0  0  0  0  0  0
   -5.5860   16.0650  -33.5970 C   0  0  0  0  0  0  0  0  0  0  0  0
   -5.9880   14.6450  -33.9040 C   0  0  0  0  0  0  0  0  0  0  0  0
   -5.2350   13.5580  -33.1510 C   0  0  0  0  0  0  0  0  0  0  0  0
   -4.9520   13.7970  -34.6280 C   0  0  0  0  0  0  0  0  0  0  0  0
   -4.3080   16.4860  -33.6190 N   0  0  0  0  0  0  0  0  0  0  0  0
   -4.2730   17.7750  -33.3170 N   0  0  0  0  0  0  0  0  0  0  0  0
   -3.0670   18.5600  -33.3490 C   0  0  0  0  0  0  0  0  0  0  0  0
   -2.9440   19.6490  -34.2260 C   0  0  0  0  0  0  0  0  0  0  0  0
   -1.7670   20.4010  -34.2550 C   0  0  0  0  0  0  0  0  0  0  0  0
   -0.6970   20.0690  -33.4190 C   0  0  0  0  0  0  0  0  0  0  0  0
    0.7680   21.0400  -33.4830 Cl  0  0  0  0  0  0  0  0  0  0  0  0
   -0.8060   18.9690  -32.5490 C   0  0  0  0  0  0  0  0  0  0  0  0
    0.5180   18.5140  -31.4860 Cl  0  0  0  0  0  0  0  0  0  0  0  0
   -1.9860   18.2170  -32.5230 C   0  0  0  0  0  0  0  0  0  0  0  0
   -4.9610   20.4490  -32.1530 C   0  0  0  0  0  0  0  0  0  0  0  0
   -5.3690   21.7240  -31.7460 C   0  0  0  0  0  0  0  0  0  0  0  0
   -1.5353   22.9393  -26.6784 H   0  0  0  0  0  0  0  0  0  0  0  0
   -0.7188   22.1407  -28.0649 H   0  0  0  0  0  0  0  0  0  0  0  0
   -0.9529   23.9217  -28.0649 H   0  0  0  0  0  0  0  0  0  0  0  0
   -3.1522   20.8496  -27.5647 H   0  0  0  0  0  0  0  0  0  0  0  0
   -4.0102   21.1359  -29.1166 H   0  0  0  0  0  0  0  0  0  0  0  0
   -2.2508   20.7737  -29.1166 H   0  0  0  0  0  0  0  0  0  0  0  0
   -3.6782   23.3420  -26.5864 H   0  0  0  0  0  0  0  0  0  0  0  0
   -3.9059   24.5328  -27.9119 H   0  0  0  0  0  0  0  0  0  0  0  0
   -4.8411   22.9992  -27.9119 H   0  0  0  0  0  0  0  0  0  0  0  0
   -2.9770   25.2980  -30.4810 H   0  0  0  0  0  0  0  0  0  0  0  0
   -7.6993   23.9732  -31.1735 H   0  0  0  0  0  0  0  0  0  0  0  0
   -8.7319   21.5595  -32.3082 H   0  0  0  0  0  0  0  0  0  0  0  0
   -8.0538   19.2711  -33.1037 H   0  0  0  0  0  0  0  0  0  0  0  0
   -7.5002   17.1347  -33.1587 H   0  0  0  0  0  0  0  0  0  0  0  0
   -7.0484   14.8872  -34.0678 H   0  0  0  0  0  0  0  0  0  0  0  0
   -4.4836   13.8317  -32.3957 H   0  0  0  0  0  0  0  0  0  0  0  0
   -5.5259   12.6868  -32.5458 H   0  0  0  0  0  0  0  0  0  0  0  0
   -3.9962   14.2435  -34.9397 H   0  0  0  0  0  0  0  0  0  0  0  0
   -4.9538   13.1701  -35.5319 H   0  0  0  0  0  0  0  0  0  0  0  0
   -3.4750   15.9060  -33.8690 H   0  0  0  0  0  0  0  0  0  0  0  0
   -3.7781   19.9115  -34.8934 H   0  0  0  0  0  0  0  0  0  0  0  0
   -1.6818   21.2584  -34.9389 H   0  0  0  0  0  0  0  0  0  0  0  0
   -2.0665   17.3506  -31.8500 H   0  0  0  0  0  0  0  0  0  0  0  0
   -3.9027   20.1535  -32.1012 H   0  0  0  0  0  0  0  0  0  0  0  0
  1  2  1  0
  2  3  1  0
  2  4  1  0
  2  5  1  0
  5  6  1  0
  6  7  2  0
  6  8  1  0
  8  9  1  0
  9 10  1  0
 10 11  1  0
 10 12  2  0
  9 13  2  0
 13 14  1  0
 14 15  2  0
 15 16  1  0
 16 17  2  0
 17 18  1  0
 18 19  2  0
 19 20  1  0
 20 21  1  0
 21 22  1  0
 22 23  1  0
 20 24  2  0
 24 25  1  0
 25 26  1  0
 26 27  2  0
 27 28  1  0
 28 29  2  0
 29 30  1  0
 29 31  1  0
 31 32  1  0
 31 33  2  0
 17 34  1  0
 34 35  2  0
 35  8  1  0
 35 14  1  0
 25 18  1  0
 33 26  1  0
 23 21  1  0
  1 36  1  0
  1 37  1  0
  1 38  1  0
  3 39  1  0
  3 40  1  0
  3 41  1  0
  4 42  1  0
  4 43  1  0
  4 44  1  0
 11 45  1  0
 13 46  1  0
 15 47  1  0
 16 48  1  0
 19 49  1  0
 21 50  1  0
 22 51  1  0
 22 52  1  0
 23 53  1  0
 23 54  1  0
 24 55  1  0
 27 56  1  0
 28 57  1  0
 33 58  1  0
 34 59  1  0
M  CHG  2  11  -1  24   1
M  END
>  <UniqueID>  (39) 
38

>  <SMILES>  (39) 
CC(C)(C)OC(=O)n1c(C([NH-])=O)cc2ccc(-c3cc(C4CC4)[nH+]n3-c3ccc(Cl)c(Cl)c3)cc21

>  <Energy>  (39) 
403.07577097574926

>  <Genealogy>  (39) 
CC(C)(C)OC(=O)n1c(C([NH-])=O)cc2ccc(-c3cc(C4CC4)[nH+]n3-c3ccc(Cl)c(Cl)c3)cc21 (protonated)
CC(C)(C)OC(=O)n1c(C([NH-])=O)cc2ccc(-c3cc(C4CC4)[nH+]n3-c3ccc(Cl)c(Cl)c3)cc21 (3D coordinates assigned)
CC(C)(C)OC(=O)n1c(C([NH-])=O)cc2ccc(-c3cc(C4CC4)[nH+]n3-c3ccc(Cl)c(Cl)c3)cc21 (nonaromatic ring conformer: 403.07577097574926 kcal/mol)

>  <smiles>  (39) 
CC(C)(C)OC(=O)n1c(C(N)=O)cc2ccc(-c3cc(C4CC4)nn3-c3ccc(Cl)c(Cl)c3)cc21

>  <score_type>  (39) 
oracle

>  <origin>  (39) 
adg

>  <m_score__min__energy>  (39) 
-11.83

>  <m_primary>  (39) 
energy

$$$$
39:0
     RDKit          3D

 32 34  0  0  0  0  0  0  0  0999 V2000
   -6.4690   16.3600  -34.1900 C   0  0  0  0  0  0  0  0  0  0  0  0
   -5.9010   17.6640  -33.8760 N   0  0  0  0  0  0  0  0  0  0  0  0
   -4.7720   17.8830  -33.1800 C   0  0  0  0  0  0  0  0  0  0  0  0
   -4.6100   19.2510  -33.0370 C   0  0  0  0  0  0  0  0  0  0  0  0
   -3.5110   19.9690  -32.3420 C   0  0  0  0  0  0  0  0  0  0  0  0
   -2.2030   19.4150  -32.3000 C   0  0  0  0  0  0  0  0  0  0  0  0
   -1.1590   20.0800  -31.6370 C   0  0  0  0  0  0  0  0  0  0  0  0
   -1.4420   21.2980  -31.0300 C   0  0  0  0  0  0  0  0  0  0  0  0
   -0.6260   22.1350  -30.3040 C   0  0  0  0  0  0  0  0  0  0  0  0
   -1.4360   23.2050  -29.9300 C   0  0  0  0  0  0  0  0  0  0  0  0
   -0.9330   24.3900  -29.2050 C   0  0  0  0  0  0  0  0  0  0  0  0
   -1.6230   25.6360  -29.2670 N   0  0  0  0  0  0  0  0  0  0  0  0
    0.1480   24.3170  -28.5630 O   0  0  0  0  0  0  0  0  0  0  0  0
   -2.7050   23.0300  -30.3960 N   0  0  0  0  0  0  0  0  0  0  0  0
   -3.8560   23.8550  -30.1490 C   0  0  0  0  0  0  0  0  0  0  0  0
   -3.9520   25.1480  -30.7410 N   0  0  0  0  0  0  0  0  0  0  0  0
   -4.7700   23.4520  -29.3820 O   0  0  0  0  0  0  0  0  0  0  0  0
   -2.6900   21.8590  -31.0710 C   0  0  0  0  0  0  0  0  0  0  0  0
   -3.7550   21.2120  -31.7090 C   0  0  0  0  0  0  0  0  0  0  0  0
   -5.7140   19.8010  -33.6760 C   0  0  0  0  0  0  0  0  0  0  0  0
   -6.4870   18.8140  -34.1690 N   0  0  0  0  0  0  0  0  0  0  0  0
   -6.7013   15.8268  -33.2563 H   0  0  0  0  0  0  0  0  0  0  0  0
   -7.3908   16.4929  -34.7754 H   0  0  0  0  0  0  0  0  0  0  0  0
   -5.7439   15.7756  -34.7754 H   0  0  0  0  0  0  0  0  0  0  0  0
   -4.0938   17.1092  -32.7911 H   0  0  0  0  0  0  0  0  0  0  0  0
   -2.0057   18.4520  -32.7937 H   0  0  0  0  0  0  0  0  0  0  0  0
   -0.1473   19.6498  -31.5991 H   0  0  0  0  0  0  0  0  0  0  0  0
    0.4388   21.9901  -30.0690 H   0  0  0  0  0  0  0  0  0  0  0  0
   -2.6650   25.6710  -29.3190 H   0  0  0  0  0  0  0  0  0  0  0  0
   -3.0970   25.7150  -30.9330 H   0  0  0  0  0  0  0  0  0  0  0  0
   -4.7598   21.6596  -31.7184 H   0  0  0  0  0  0  0  0  0  0  0  0
   -5.9246   20.8769  -33.7656 H   0  0  0  0  0  0  0  0  0  0  0  0
  1  2  1  0
  2  3  1  0
  3  4  2  0
  4  5  1  0
  5  6  2  0
  6  7  1  0
  7  8  2  0
  8  9  1  0
  9 10  2  0
 10 11  1  0
 11 12  1  0
 11 13  2  0
 10 14  1  0
 14 15  1  0
 15 16  1  0
 15 17  2  0
 14 18  1  0
 18 19  2  0
  4 20  1  0
 20 21  2  0
 21  2  1  0
 19  5  1  0
 18  8  1  0
  1 22  1  0
  1 23  1  0
  1 24  1  0
  3 25  1  0
  6 26  1  0
  7 27  1  0
  9 28  1  0
 12 29  1  0
 16 30  1  0
 19 31  1  0
 20 32  1  0
M  CHG  2  12  -1  16  -1
M  END
>  <UniqueID>  (40) 
39

>  <SMILES>  (40) 
Cn1cc(-c2ccc3cc(C([NH-])=O)n(C([NH-])=O)c3c2)cn1

>  <Energy>  (40) 
105.01816075454741

>  <Genealogy>  (40) 
Cn1cc(-c2ccc3cc(C([NH-])=O)n(C([NH-])=O)c3c2)cn1 (protonated)
Cn1cc(-c2ccc3cc(C([NH-])=O)n(C([NH-])=O)c3c2)cn1 (3D coordinates assigned)
Cn1cc(-c2ccc3cc(C([NH-])=O)n(C([NH-])=O)c3c2)cn1 (optimized conformer: 105.01816075454741 kcal/mol)

>  <smiles>  (40) 
Cn1cc(-c2ccc3cc(C(N)=O)n(C(N)=O)c3c2)cn1

>  <score_type>  (40) 
oracle

>  <origin>  (40) 
adg

>  <m_score__min__energy>  (40) 
-10.99

>  <m_primary>  (40) 
energy

$$$$
40:0
     RDKit          3D

 54 57  0  0  0  0  0  0  0  0999 V2000
   -2.5970   22.5250  -27.5370 C   0  0  0  0  0  0  0  0  0  0  0  0
   -2.2410   21.2310  -28.2950 C   0  0  0  0  0  0  0  0  0  0  0  0
   -2.7200   19.9930  -27.5160 C   0  0  0  0  0  0  0  0  0  0  0  0
   -0.7150   21.1540  -28.4570 C   0  0  0  0  0  0  0  0  0  0  0  0
   -2.8040   21.2440  -29.6140 O   0  0  0  0  0  0  0  0  0  0  0  0
   -3.1090   22.3810  -30.3780 C   0  0  0  0  0  0  0  0  0  0  0  0
   -2.2960   23.3390  -30.4690 O   0  0  0  0  0  0  0  0  0  0  0  0
   -4.3780   22.4600  -31.0400 N   0  0  0  0  0  0  0  0  0  0  0  0
   -5.2670   23.4930  -31.0370 C   0  0  0  0  0  0  0  0  0  0  0  0
   -5.0310   24.8380  -30.4700 C   0  0  0  0  0  0  0  0  0  0  0  0
   -3.8660   25.5850  -30.8130 N   0  0  0  0  0  0  0  0  0  0  0  0
   -5.8910   25.3540  -29.7080 O   0  0  0  0  0  0  0  0  0  0  0  0
   -6.4340   23.1370  -31.7120 C   0  0  0  0  0  0  0  0  0  0  0  0
   -6.2290   21.8440  -32.1370 C   0  0  0  0  0  0  0  0  0  0  0  0
   -7.0800   20.9800  -32.8200 C   0  0  0  0  0  0  0  0  0  0  0  0
   -6.6330   19.6690  -33.0600 C   0  0  0  0  0  0  0  0  0  0  0  0
   -5.3560   19.2550  -32.6120 C   0  0  0  0  0  0  0  0  0  0  0  0
   -4.9160   17.8660  -32.8140 C   0  0  0  0  0  0  0  0  0  0  0  0
   -5.7410   16.8140  -32.4040 C   0  0  0  0  0  0  0  0  0  0  0  0
   -5.3560   15.5280  -32.6030 N   0  0  0  0  0  0  0  0  0  0  0  0
   -4.1740   15.2380  -33.2010 C   0  0  0  0  0  0  0  0  0  0  0  0
   -3.3570   16.2410  -33.6160 N   0  0  0  0  0  0  0  0  0  0  0  0
   -3.6910   17.5500  -33.4420 C   0  0  0  0  0  0  0  0  0  0  0  0
   -2.7910   18.5740  -33.9230 N   0  0  0  0  0  0  0  0  0  0  0  0
   -1.6870   18.7820  -33.0080 C   0  0  0  0  0  0  0  0  0  0  0  0
   -1.1260   17.6910  -32.3160 C   0  0  0  0  0  0  0  0  0  0  0  0
   -0.0570   17.8790  -31.4420 C   0  0  0  0  0  0  0  0  0  0  0  0
    0.4420   19.1640  -31.2410 C   0  0  0  0  0  0  0  0  0  0  0  0
   -0.1290   20.2210  -31.8750 N   0  0  0  0  0  0  0  0  0  0  0  0
   -1.1750   20.0740  -32.7320 C   0  0  0  0  0  0  0  0  0  0  0  0
   -1.8490   21.5300  -33.4490 Cl  0  0  0  0  0  0  0  0  0  0  0  0
   -4.5100   20.1620  -31.9430 C   0  0  0  0  0  0  0  0  0  0  0  0
   -4.9800   21.4600  -31.7210 C   0  0  0  0  0  0  0  0  0  0  0  0
   -2.5464   22.3411  -26.4537 H   0  0  0  0  0  0  0  0  0  0  0  0
   -1.8834   23.3169  -27.8082 H   0  0  0  0  0  0  0  0  0  0  0  0
   -3.6153   22.8405  -27.8082 H   0  0  0  0  0  0  0  0  0  0  0  0
   -2.6447   20.1876  -26.4360 H   0  0  0  0  0  0  0  0  0  0  0  0
   -3.7664   19.7774  -27.7776 H   0  0  0  0  0  0  0  0  0  0  0  0
   -2.0912   19.1292  -27.7776 H   0  0  0  0  0  0  0  0  0  0  0  0
   -0.2416   21.1301  -27.4643 H   0  0  0  0  0  0  0  0  0  0  0  0
   -0.4507   20.2414  -29.0113 H   0  0  0  0  0  0  0  0  0  0  0  0
   -0.3602   22.0354  -29.0113 H   0  0  0  0  0  0  0  0  0  0  0  0
   -2.9210   25.2890  -30.4840 H   0  0  0  0  0  0  0  0  0  0  0  0
   -7.3283   23.7575  -31.8710 H   0  0  0  0  0  0  0  0  0  0  0  0
   -8.0714   21.3126  -33.1613 H   0  0  0  0  0  0  0  0  0  0  0  0
   -7.2795   18.9609  -33.5991 H   0  0  0  0  0  0  0  0  0  0  0  0
   -6.7045   17.0294  -31.9189 H   0  0  0  0  0  0  0  0  0  0  0  0
   -3.8764   14.1896  -33.3502 H   0  0  0  0  0  0  0  0  0  0  0  0
   -3.3070   19.4790  -34.0180 H   0  0  0  0  0  0  0  0  0  0  0  0
   -2.4710   18.3010  -34.8790 H   0  0  0  0  0  0  0  0  0  0  0  0
   -1.5355   16.6813  -32.4669 H   0  0  0  0  0  0  0  0  0  0  0  0
    0.3882   17.0215  -30.9162 H   0  0  0  0  0  0  0  0  0  0  0  0
    1.2983   19.3227  -30.5690 H   0  0  0  0  0  0  0  0  0  0  0  0
   -3.5085   19.8575  -31.6051 H   0  0  0  0  0  0  0  0  0  0  0  0
  1  2  1  0
  2  3  1  0
  2  4  1  0
  2  5  1  0
  5  6  1  0
  6  7  2  0
  6  8  1  0
  8  9  1  0
  9 10  1  0
 10 11  1  0
 10 12  2  0
  9 13  2  0
 13 14  1  0
 14 15  2  0
 15 16  1  0
 16 17  2  0
 17 18  1  0
 18 19  2  0
 19 20  1  0
 20 21  2  0
 21 22  1  0
 22 23  2  0
 23 24  1  0
 24 25  1  0
 25 26  2  0
 26 27  1  0
 27 28  2  0
 28 29  1  0
 29 30  2  0
 30 31  1  0
 17 32  1  0
 32 33  2  0
 33  8  1  0
 33 14  1  0
 23 18  1  0
 30 25  1  0
  1 34  1  0
  1 35  1  0
  1 36  1  0
  3 37  1  0
  3 38  1  0
  3 39  1  0
  4 40  1  0
  4 41  1  0
  4 42  1  0
 11 43  1  0
 13 44  1  0
 15 45  1  0
 16 46  1  0
 19 47  1  0
 21 48  1  0
 24 49  1  0
 24 50  1  0
 26 51  1  0
 27 52  1  0
 28 53  1  0
 32 54  1  0
M  CHG  2  11  -1  24   1
M  END
>  <UniqueID>  (41) 
40

>  <SMILES>  (41) 
CC(C)(C)OC(=O)n1c(C([NH-])=O)cc2ccc(-c3cncnc3[NH2+]c3cccnc3Cl)cc21

>  <Energy>  (41) 
102.56050249400597

>  <Genealogy>  (41) 
CC(C)(C)OC(=O)n1c(C([NH-])=O)cc2ccc(-c3cncnc3[NH2+]c3cccnc3Cl)cc21 (protonated)
CC(C)(C)OC(=O)n1c(C([NH-])=O)cc2ccc(-c3cncnc3[NH2+]c3cccnc3Cl)cc21 (3D coordinates assigned)
CC(C)(C)OC(=O)n1c(C([NH-])=O)cc2ccc(-c3cncnc3[NH2+]c3cccnc3Cl)cc21 (optimized conformer: 102.56050249400597 kcal/mol)

>  <smiles>  (41) 
CC(C)(C)OC(=O)n1c(C(N)=O)cc2ccc(-c3cncnc3Nc3cccnc3Cl)cc21

>  <score_type>  (41) 
oracle

>  <origin>  (41) 
adg

>  <m_score__min__energy>  (41) 
-11.6

>  <m_primary>  (41) 
energy

$$$$
41:0
     RDKit          3D

 57 60  0  0  0  0  0  0  0  0999 V2000
   -5.7230   24.6960  -30.6950 C   0  0  0  0  0  0  0  0  0  0  0  0
   -7.2330   24.5220  -30.8400 C   0  0  0  0  0  0  0  0  0  0  0  0
   -7.5370   23.3570  -31.6910 N   0  0  0  0  0  0  0  0  0  0  0  0
   -9.0000   23.1830  -31.8400 C   0  0  0  0  0  0  0  0  0  0  0  0
   -9.3410   21.7620  -32.3030 C   0  0  0  0  0  0  0  0  0  0  0  0
   -8.9410   20.7510  -31.2900 N   0  0  0  0  0  0  0  0  0  0  0  0
   -8.7360   19.4240  -31.9050 C   0  0  0  0  0  0  0  0  0  0  0  0
   -7.3300   19.2880  -32.4320 C   0  0  0  0  0  0  0  0  0  0  0  0
   -6.4400   18.3810  -31.8380 C   0  0  0  0  0  0  0  0  0  0  0  0
   -5.1410   18.2330  -32.3340 C   0  0  0  0  0  0  0  0  0  0  0  0
   -4.7190   18.9950  -33.4310 C   0  0  0  0  0  0  0  0  0  0  0  0
   -3.3800   18.8450  -33.9400 C   0  0  0  0  0  0  0  0  0  0  0  0
   -2.2600   18.7220  -34.3660 C   0  0  0  0  0  0  0  0  0  0  0  0
   -0.9210   18.5820  -34.8770 C   0  0  0  0  0  0  0  0  0  0  0  0
   -0.4010   17.2960  -35.1600 C   0  0  0  0  0  0  0  0  0  0  0  0
    0.9000   17.1520  -35.6750 C   0  0  0  0  0  0  0  0  0  0  0  0
    1.6490   18.3070  -35.8880 C   0  0  0  0  0  0  0  0  0  0  0  0
    2.9170   18.4600  -36.4030 C   0  0  0  0  0  0  0  0  0  0  0  0
    3.1520   19.8340  -36.4130 C   0  0  0  0  0  0  0  0  0  0  0  0
    4.4400   20.4390  -36.8210 C   0  0  0  0  0  0  0  0  0  0  0  0
    4.9850   21.5490  -36.1110 N   0  0  0  0  0  0  0  0  0  0  0  0
    5.0930   19.9370  -37.7790 O   0  0  0  0  0  0  0  0  0  0  0  0
    2.0670   20.5050  -35.9250 N   0  0  0  0  0  0  0  0  0  0  0  0
    1.8690   21.9260  -35.8510 C   0  0  0  0  0  0  0  0  0  0  0  0
    2.4870   22.7870  -36.8060 N   0  0  0  0  0  0  0  0  0  0  0  0
    1.1590   22.4200  -34.9350 O   0  0  0  0  0  0  0  0  0  0  0  0
    1.1590   19.5570  -35.6050 C   0  0  0  0  0  0  0  0  0  0  0  0
   -0.1380   19.7300  -35.1060 C   0  0  0  0  0  0  0  0  0  0  0  0
   -5.6050   19.8980  -34.0330 C   0  0  0  0  0  0  0  0  0  0  0  0
   -6.9050   20.0440  -33.5370 C   0  0  0  0  0  0  0  0  0  0  0  0
   -7.7650   21.1630  -30.4810 C   0  0  0  0  0  0  0  0  0  0  0  0
   -6.8350   22.1270  -31.2410 C   0  0  0  0  0  0  0  0  0  0  0  0
   -5.4582   24.7265  -29.6278 H   0  0  0  0  0  0  0  0  0  0  0  0
   -5.2087   23.8512  -31.1764 H   0  0  0  0  0  0  0  0  0  0  0  0
   -5.4143   25.6357  -31.1764 H   0  0  0  0  0  0  0  0  0  0  0  0
   -7.6775   24.3700  -29.8453 H   0  0  0  0  0  0  0  0  0  0  0  0
   -7.6528   25.4247  -31.3078 H   0  0  0  0  0  0  0  0  0  0  0  0
   -9.4850   23.3715  -30.8709 H   0  0  0  0  0  0  0  0  0  0  0  0
   -9.3617   23.8941  -32.5973 H   0  0  0  0  0  0  0  0  0  0  0  0
  -10.4258   21.6909  -32.4706 H   0  0  0  0  0  0  0  0  0  0  0  0
   -8.7883   21.5586  -33.2321 H   0  0  0  0  0  0  0  0  0  0  0  0
   -8.9144   18.6450  -31.1491 H   0  0  0  0  0  0  0  0  0  0  0  0
   -9.4387   19.3126  -32.7440 H   0  0  0  0  0  0  0  0  0  0  0  0
   -6.7664   17.7816  -30.9754 H   0  0  0  0  0  0  0  0  0  0  0  0
   -4.4505   17.5181  -31.8627 H   0  0  0  0  0  0  0  0  0  0  0  0
   -1.0180   16.4041  -34.9761 H   0  0  0  0  0  0  0  0  0  0  0  0
    1.3131   16.1582  -35.9025 H   0  0  0  0  0  0  0  0  0  0  0  0
    3.6006   17.6652  -36.7363 H   0  0  0  0  0  0  0  0  0  0  0  0
    4.3830   22.3650  -35.8530 H   0  0  0  0  0  0  0  0  0  0  0  0
    3.4970   22.6820  -37.0490 H   0  0  0  0  0  0  0  0  0  0  0  0
   -0.5343   20.7349  -34.8986 H   0  0  0  0  0  0  0  0  0  0  0  0
   -5.2777   20.4937  -34.8979 H   0  0  0  0  0  0  0  0  0  0  0  0
   -7.5970   20.7535  -34.0142 H   0  0  0  0  0  0  0  0  0  0  0  0
   -8.1221   21.6632  -29.5687 H   0  0  0  0  0  0  0  0  0  0  0  0
   -7.1872   20.2570  -30.2457 H   0  0  0  0  0  0  0  0  0  0  0  0
   -6.0073   22.4160  -30.5767 H   0  0  0  0  0  0  0  0  0  0  0  0
   -6.4700   21.6033  -32.1368 H   0  0  0  0  0  0  0  0  0  0  0  0
  1  2  1  0
  2  3  1  0
  3  4  1  0
  4  5  1  0
  5  6  1  0
  6  7  1  0
  7  8  1  0
  8  9  2  0
  9 10  1  0
 10 11  2  0
 11 12  1  0
 12 13  3  0
 13 14  1  0
 14 15  2  0
 15 16  1  0
 16 17  2  0
 17 18  1  0
 18 19  2  0
 19 20  1  0
 20 21  1  0
 20 22  2  0
 19 23  1  0
 23 24  1  0
 24 25  1  0
 24 26  2  0
 23 27  1  0
 27 28  2  0
 11 29  1  0
 29 30  2  0
  6 31  1  0
 31 32  1  0
 32  3  1  0
 30  8  1  0
 28 14  1  0
 27 17  1  0
  1 33  1  0
  1 34  1  0
  1 35  1  0
  2 36  1  0
  2 37  1  0
  4 38  1  0
  4 39  1  0
  5 40  1  0
  5 41  1  0
  7 42  1  0
  7 43  1  0
  9 44  1  0
 10 45  1  0
 15 46  1  0
 16 47  1  0
 18 48  1  0
 21 49  1  0
 25 50  1  0
 28 51  1  0
 29 52  1  0
 30 53  1  0
 31 54  1  0
 31 55  1  0
 32 56  1  0
 32 57  1  0
M  CHG  2  21  -1  25  -1
M  END
>  <UniqueID>  (42) 
41

>  <SMILES>  (42) 
CCN1CCN(Cc2ccc(C#Cc3ccc4cc(C([NH-])=O)n(C([NH-])=O)c4c3)cc2)CC1

>  <Energy>  (42) 
107.21455024232687

>  <Genealogy>  (42) 
CCN1CCN(Cc2ccc(C#Cc3ccc4cc(C([NH-])=O)n(C([NH-])=O)c4c3)cc2)CC1 (protonated)
CCN1CCN(Cc2ccc(C#Cc3ccc4cc(C([NH-])=O)n(C([NH-])=O)c4c3)cc2)CC1 (3D coordinates assigned)
CCN1CCN(Cc2ccc(C#Cc3ccc4cc(C([NH-])=O)n(C([NH-])=O)c4c3)cc2)CC1 (nonaromatic ring conformer: 107.21455024232687 kcal/mol)

>  <smiles>  (42) 
CCN1CCN(Cc2ccc(C#Cc3ccc4cc(C(N)=O)n(C(N)=O)c4c3)cc2)CC1

>  <score_type>  (42) 
oracle

>  <origin>  (42) 
adg

>  <m_score__min__energy>  (42) 
-10.01

>  <m_primary>  (42) 
energy

$$$$
42:0
     RDKit          3D

 56 58  0  0  0  0  0  0  0  0999 V2000
   -5.5530   13.8000  -33.7440 C   0  0  0  0  0  0  0  0  0  0  0  0
   -4.9800   13.5480  -32.3460 C   0  0  0  0  0  0  0  0  0  0  0  0
   -4.9060   14.7770  -31.5390 N   0  0  0  0  0  0  0  0  0  0  0  0
   -4.9540   15.9590  -32.3590 C   0  0  0  0  0  0  0  0  0  0  0  0
   -3.8620   16.3330  -33.0810 N   0  0  0  0  0  0  0  0  0  0  0  0
   -3.8630   17.4750  -33.8200 C   0  0  0  0  0  0  0  0  0  0  0  0
   -2.6490   17.8590  -34.6010 C   0  0  0  0  0  0  0  0  0  0  0  0
   -5.0020   18.2850  -33.8410 C   0  0  0  0  0  0  0  0  0  0  0  0
   -6.1270   17.8740  -33.1200 C   0  0  0  0  0  0  0  0  0  0  0  0
   -7.3220   18.6650  -33.1410 N   0  0  0  0  0  0  0  0  0  0  0  0
   -7.3690   20.0180  -32.6600 C   0  0  0  0  0  0  0  0  0  0  0  0
   -8.6180   20.5980  -32.3380 C   0  0  0  0  0  0  0  0  0  0  0  0
   -8.6890   21.8930  -31.8020 C   0  0  0  0  0  0  0  0  0  0  0  0
   -7.4970   22.5730  -31.5760 C   0  0  0  0  0  0  0  0  0  0  0  0
   -7.2870   23.8130  -31.0240 C   0  0  0  0  0  0  0  0  0  0  0  0
   -5.9050   23.9670  -30.9750 C   0  0  0  0  0  0  0  0  0  0  0  0
   -5.2560   25.1120  -30.3040 C   0  0  0  0  0  0  0  0  0  0  0  0
   -4.0400   25.6470  -30.8300 N   0  0  0  0  0  0  0  0  0  0  0  0
   -5.8000   25.6650  -29.3090 O   0  0  0  0  0  0  0  0  0  0  0  0
   -5.2750   22.8730  -31.5000 N   0  0  0  0  0  0  0  0  0  0  0  0
   -3.8560   22.6850  -31.6870 C   0  0  0  0  0  0  0  0  0  0  0  0
   -3.4330   22.0830  -32.7130 O   0  0  0  0  0  0  0  0  0  0  0  0
   -2.9560   23.1430  -30.7120 O   0  0  0  0  0  0  0  0  0  0  0  0
   -2.6540   22.5190  -29.4550 C   0  0  0  0  0  0  0  0  0  0  0  0
   -3.6370   22.9680  -28.3550 C   0  0  0  0  0  0  0  0  0  0  0  0
   -1.2360   22.9700  -29.0690 C   0  0  0  0  0  0  0  0  0  0  0  0
   -2.6740   20.9860  -29.6010 C   0  0  0  0  0  0  0  0  0  0  0  0
   -6.2710   22.0240  -31.8580 C   0  0  0  0  0  0  0  0  0  0  0  0
   -6.1780   20.7420  -32.4200 C   0  0  0  0  0  0  0  0  0  0  0  0
   -6.0760   16.7280  -32.3890 N   0  0  0  0  0  0  0  0  0  0  0  0
   -6.5566   14.2414  -33.6548 H   0  0  0  0  0  0  0  0  0  0  0  0
   -4.8954   14.4919  -34.2906 H   0  0  0  0  0  0  0  0  0  0  0  0
   -5.6185   12.8476  -34.2906 H   0  0  0  0  0  0  0  0  0  0  0  0
   -5.6231   12.8225  -31.8263 H   0  0  0  0  0  0  0  0  0  0  0  0
   -3.9560   13.1650  -32.4677 H   0  0  0  0  0  0  0  0  0  0  0  0
   -4.0000   14.7690  -31.0120 H   0  0  0  0  0  0  0  0  0  0  0  0
   -5.6790   14.8120  -30.8320 H   0  0  0  0  0  0  0  0  0  0  0  0
   -1.8340   18.1168  -33.9087 H   0  0  0  0  0  0  0  0  0  0  0  0
   -2.3386   17.0152  -35.2347 H   0  0  0  0  0  0  0  0  0  0  0  0
   -2.8804   18.7278  -35.2347 H   0  0  0  0  0  0  0  0  0  0  0  0
   -5.0129   19.2250  -34.4122 H   0  0  0  0  0  0  0  0  0  0  0  0
   -8.2070   18.2220  -33.4730 H   0  0  0  0  0  0  0  0  0  0  0  0
   -9.5432   20.0283  -32.5094 H   0  0  0  0  0  0  0  0  0  0  0  0
   -9.6586   22.3565  -31.5676 H   0  0  0  0  0  0  0  0  0  0  0  0
   -8.0499   24.5321  -30.6911 H   0  0  0  0  0  0  0  0  0  0  0  0
   -3.1130   25.2880  -30.5080 H   0  0  0  0  0  0  0  0  0  0  0  0
   -3.1978   22.7674  -27.3666 H   0  0  0  0  0  0  0  0  0  0  0  0
   -3.8340   24.0454  -28.4568 H   0  0  0  0  0  0  0  0  0  0  0  0
   -4.5804   22.4115  -28.4568 H   0  0  0  0  0  0  0  0  0  0  0  0
   -1.1459   22.9986  -27.9731 H   0  0  0  0  0  0  0  0  0  0  0  0
   -0.5015   22.2611  -29.4789 H   0  0  0  0  0  0  0  0  0  0  0  0
   -1.0459   23.9729  -29.4789 H   0  0  0  0  0  0  0  0  0  0  0  0
   -2.6800   20.5227  -28.6033 H   0  0  0  0  0  0  0  0  0  0  0  0
   -3.5762   20.6819  -30.1520 H   0  0  0  0  0  0  0  0  0  0  0  0
   -1.7801   20.6585  -30.1520 H   0  0  0  0  0  0  0  0  0  0  0  0
   -5.1982   20.3085  -32.6691 H   0  0  0  0  0  0  0  0  0  0  0  0
  1  2  1  0
  2  3  1  0
  3  4  1  0
  4  5  2  0
  5  6  1  0
  6  7  1  0
  6  8  2  0
  8  9  1  0
  9 10  1  0
 10 11  1  0
 11 12  2  0
 12 13  1  0
 13 14  2  0
 14 15  1  0
 15 16  2  0
 16 17  1  0
 17 18  1  0
 17 19  2  0
 16 20  1  0
 20 21  1  0
 21 22  2  0
 21 23  1  0
 23 24  1  0
 24 25  1  0
 24 26  1  0
 24 27  1  0
 20 28  1  0
 28 29  2  0
  9 30  2  0
 30  4  1  0
 29 11  1  0
 28 14  1  0
  1 31  1  0
  1 32  1  0
  1 33  1  0
  2 34  1  0
  2 35  1  0
  3 36  1  0
  3 37  1  0
  7 38  1  0
  7 39  1  0
  7 40  1  0
  8 41  1  0
 10 42  1  0
 12 43  1  0
 13 44  1  0
 15 45  1  0
 18 46  1  0
 25 47  1  0
 25 48  1  0
 25 49  1  0
 26 50  1  0
 26 51  1  0
 26 52  1  0
 27 53  1  0
 27 54  1  0
 27 55  1  0
 29 56  1  0
M  CHG  2   3   1  18  -1
M  END
>  <UniqueID>  (43) 
42

>  <SMILES>  (43) 
CC[NH2+]c1nc(C)cc(Nc2ccc3cc(C([NH-])=O)n(C(=O)OC(C)(C)C)c3c2)n1

>  <Energy>  (43) 
92.80621539586822

>  <Genealogy>  (43) 
CC[NH2+]c1nc(C)cc(Nc2ccc3cc(C([NH-])=O)n(C(=O)OC(C)(C)C)c3c2)n1 (protonated)
CC[NH2+]c1nc(C)cc(Nc2ccc3cc(C([NH-])=O)n(C(=O)OC(C)(C)C)c3c2)n1 (3D coordinates assigned)
CC[NH2+]c1nc(C)cc(Nc2ccc3cc(C([NH-])=O)n(C(=O)OC(C)(C)C)c3c2)n1 (optimized conformer: 92.80621539586822 kcal/mol)

>  <smiles>  (43) 
CCNc1nc(C)cc(Nc2ccc3cc(C(N)=O)n(C(=O)OC(C)(C)C)c3c2)n1

>  <score_type>  (43) 
oracle

>  <origin>  (43) 
adg

>  <m_score__min__energy>  (43) 
-11.59

>  <m_primary>  (43) 
energy

$$$$
43:0
     RDKit          3D

 50 52  0  0  0  0  0  0  0  0999 V2000
   -1.4820   23.0320  -27.9320 C   0  0  0  0  0  0  0  0  0  0  0  0
   -2.8220   22.7690  -28.6450 C   0  0  0  0  0  0  0  0  0  0  0  0
   -3.0370   21.2520  -28.7560 C   0  0  0  0  0  0  0  0  0  0  0  0
   -3.9910   23.3810  -27.8530 C   0  0  0  0  0  0  0  0  0  0  0  0
   -2.7930   23.2900  -29.9820 O   0  0  0  0  0  0  0  0  0  0  0  0
   -3.4260   22.7390  -31.1060 C   0  0  0  0  0  0  0  0  0  0  0  0
   -2.7560   22.1910  -32.0220 O   0  0  0  0  0  0  0  0  0  0  0  0
   -4.8530   22.8280  -31.2230 N   0  0  0  0  0  0  0  0  0  0  0  0
   -5.6580   23.8840  -30.9140 C   0  0  0  0  0  0  0  0  0  0  0  0
   -5.2050   25.2330  -30.5130 C   0  0  0  0  0  0  0  0  0  0  0  0
   -3.8780   25.6540  -30.8170 N   0  0  0  0  0  0  0  0  0  0  0  0
   -5.9670   26.0060  -29.8730 O   0  0  0  0  0  0  0  0  0  0  0  0
   -6.9970   23.5500  -31.1060 C   0  0  0  0  0  0  0  0  0  0  0  0
   -6.9880   22.2480  -31.5540 C   0  0  0  0  0  0  0  0  0  0  0  0
   -8.0450   21.4120  -31.8950 C   0  0  0  0  0  0  0  0  0  0  0  0
   -7.7440   20.1020  -32.3050 C   0  0  0  0  0  0  0  0  0  0  0  0
   -6.4000   19.6480  -32.3590 C   0  0  0  0  0  0  0  0  0  0  0  0
   -6.0930   18.2590  -32.7840 C   0  0  0  0  0  0  0  0  0  0  0  0
   -5.7100   17.2900  -31.8400 C   0  0  0  0  0  0  0  0  0  0  0  0
   -5.4250   15.9810  -32.2410 C   0  0  0  0  0  0  0  0  0  0  0  0
   -5.5250   15.6190  -33.5900 C   0  0  0  0  0  0  0  0  0  0  0  0
   -5.1520   13.9750  -34.0960 S   0  0  0  0  0  0  0  0  0  0  0  0
   -6.6510   13.1530  -34.5860 C   0  0  0  0  0  0  0  0  0  0  0  0
   -4.1920   14.0040  -35.2530 O   0  0  0  0  0  0  0  0  0  0  0  0
   -4.5150   13.2240  -32.9600 O   0  0  0  0  0  0  0  0  0  0  0  0
   -5.8980   16.5800  -34.5370 C   0  0  0  0  0  0  0  0  0  0  0  0
   -6.1830   17.8900  -34.1390 C   0  0  0  0  0  0  0  0  0  0  0  0
   -5.3540   20.5320  -32.0020 C   0  0  0  0  0  0  0  0  0  0  0  0
   -5.6830   21.8360  -31.6160 C   0  0  0  0  0  0  0  0  0  0  0  0
   -1.6341   23.0022  -26.8430 H   0  0  0  0  0  0  0  0  0  0  0  0
   -0.7546   22.2595  -28.2220 H   0  0  0  0  0  0  0  0  0  0  0  0
   -1.1005   24.0222  -28.2220 H   0  0  0  0  0  0  0  0  0  0  0  0
   -3.0988   20.8157  -27.7481 H   0  0  0  0  0  0  0  0  0  0  0  0
   -3.9723   21.0530  -29.2997 H   0  0  0  0  0  0  0  0  0  0  0  0
   -2.1938   20.8010  -29.2997 H   0  0  0  0  0  0  0  0  0  0  0  0
   -3.7967   23.2793  -26.7751 H   0  0  0  0  0  0  0  0  0  0  0  0
   -4.0894   24.4463  -28.1089 H   0  0  0  0  0  0  0  0  0  0  0  0
   -4.9225   22.8549  -28.1089 H   0  0  0  0  0  0  0  0  0  0  0  0
   -3.0590   25.2630  -30.3000 H   0  0  0  0  0  0  0  0  0  0  0  0
   -7.8750   24.1905  -30.9358 H   0  0  0  0  0  0  0  0  0  0  0  0
   -9.0856   21.7652  -31.8454 H   0  0  0  0  0  0  0  0  0  0  0  0
   -8.5596   19.4201  -32.5875 H   0  0  0  0  0  0  0  0  0  0  0  0
   -5.6339   17.5638  -30.7773 H   0  0  0  0  0  0  0  0  0  0  0  0
   -5.1211   15.2329  -31.4940 H   0  0  0  0  0  0  0  0  0  0  0  0
   -7.2106   12.8461  -33.6901 H   0  0  0  0  0  0  0  0  0  0  0  0
   -7.2666   13.8397  -35.1855 H   0  0  0  0  0  0  0  0  0  0  0  0
   -6.4029   12.2647  -35.1855 H   0  0  0  0  0  0  0  0  0  0  0  0
   -5.9673   16.3034  -35.5994 H   0  0  0  0  0  0  0  0  0  0  0  0
   -6.4795   18.6369  -34.8901 H   0  0  0  0  0  0  0  0  0  0  0  0
   -4.3053   20.2011  -32.0274 H   0  0  0  0  0  0  0  0  0  0  0  0
  1  2  1  0
  2  3  1  0
  2  4  1  0
  2  5  1  0
  5  6  1  0
  6  7  2  0
  6  8  1  0
  8  9  1  0
  9 10  1  0
 10 11  1  0
 10 12  2  0
  9 13  2  0
 13 14  1  0
 14 15  2  0
 15 16  1  0
 16 17  2  0
 17 18  1  0
 18 19  2  0
 19 20  1  0
 20 21  2  0
 21 22  1  0
 22 23  1  0
 22 24  2  0
 22 25  2  0
 21 26  1  0
 26 27  2  0
 17 28  1  0
 28 29  2  0
 29  8  1  0
 29 14  1  0
 27 18  1  0
  1 30  1  0
  1 31  1  0
  1 32  1  0
  3 33  1  0
  3 34  1  0
  3 35  1  0
  4 36  1  0
  4 37  1  0
  4 38  1  0
 11 39  1  0
 13 40  1  0
 15 41  1  0
 16 42  1  0
 19 43  1  0
 20 44  1  0
 23 45  1  0
 23 46  1  0
 23 47  1  0
 26 48  1  0
 27 49  1  0
 28 50  1  0
M  CHG  1  11  -1
M  END
>  <UniqueID>  (44) 
43

>  <SMILES>  (44) 
CC(C)(C)OC(=O)n1c(C([NH-])=O)cc2ccc(-c3ccc(S(C)(=O)=O)cc3)cc21

>  <Energy>  (44) 
88.15382461105186

>  <Genealogy>  (44) 
CC(C)(C)OC(=O)n1c(C([NH-])=O)cc2ccc(-c3ccc(S(C)(=O)=O)cc3)cc21 (protonated)
CC(C)(C)OC(=O)n1c(C([NH-])=O)cc2ccc(-c3ccc(S(C)(=O)=O)cc3)cc21 (3D coordinates assigned)
CC(C)(C)OC(=O)n1c(C([NH-])=O)cc2ccc(-c3ccc(S(C)(=O)=O)cc3)cc21 (optimized conformer: 88.15382461105186 kcal/mol)

>  <smiles>  (44) 
CC(C)(C)OC(=O)n1c(C(N)=O)cc2ccc(-c3ccc(S(C)(=O)=O)cc3)cc21

>  <score_type>  (44) 
oracle

>  <origin>  (44) 
adg

>  <m_score__min__energy>  (44) 
-11.42

>  <m_primary>  (44) 
energy

$$$$
44:0
     RDKit          3D

 40 42  0  0  0  0  0  0  0  0999 V2000
   -5.6090   18.8050  -34.2560 C   0  0  0  0  0  0  0  0  0  0  0  0
   -4.4260   19.1710  -33.3670 C   0  0  0  0  0  0  0  0  0  0  0  0
   -4.7840   20.2020  -32.4510 O   0  0  0  0  0  0  0  0  0  0  0  0
   -5.9460   20.1710  -31.6700 C   0  0  0  0  0  0  0  0  0  0  0  0
   -6.4020   19.0720  -31.2500 O   0  0  0  0  0  0  0  0  0  0  0  0
   -6.6220   21.3980  -31.3510 N   0  0  0  0  0  0  0  0  0  0  0  0
   -7.8820   21.7660  -31.7190 C   0  0  0  0  0  0  0  0  0  0  0  0
   -8.8760   20.8980  -32.3830 C   0  0  0  0  0  0  0  0  0  0  0  0
   -8.4770   19.7310  -33.1040 N   0  0  0  0  0  0  0  0  0  0  0  0
  -10.1020   21.1610  -32.2640 O   0  0  0  0  0  0  0  0  0  0  0  0
   -8.1430   23.0790  -31.3410 C   0  0  0  0  0  0  0  0  0  0  0  0
   -6.9970   23.5090  -30.7120 C   0  0  0  0  0  0  0  0  0  0  0  0
   -6.6950   24.7480  -30.1580 C   0  0  0  0  0  0  0  0  0  0  0  0
   -5.4150   24.9320  -29.6130 C   0  0  0  0  0  0  0  0  0  0  0  0
   -4.4580   23.8840  -29.6300 C   0  0  0  0  0  0  0  0  0  0  0  0
   -3.1030   24.1180  -29.0640 C   0  0  0  0  0  0  0  0  0  0  0  0
   -2.4740   23.1720  -28.2390 C   0  0  0  0  0  0  0  0  0  0  0  0
   -1.2000   23.4340  -27.7250 C   0  0  0  0  0  0  0  0  0  0  0  0
   -0.6520   22.5720  -26.9870 O   0  0  0  0  0  0  0  0  0  0  0  0
   -0.5500   24.6490  -28.0330 C   0  0  0  0  0  0  0  0  0  0  0  0
    0.8030   24.9800  -27.5170 C   0  0  0  0  0  0  0  0  0  0  0  0
    0.9500   25.6200  -26.4430 O   0  0  0  0  0  0  0  0  0  0  0  0
    1.9360   24.5830  -28.2180 O   0  0  0  0  0  0  0  0  0  0  0  0
   -1.2240   25.5690  -28.8510 C   0  0  0  0  0  0  0  0  0  0  0  0
   -2.4610   25.2860  -29.3360 N   0  0  0  0  0  0  0  0  0  0  0  0
   -4.8020   22.6400  -30.2150 C   0  0  0  0  0  0  0  0  0  0  0  0
   -6.0930   22.4790  -30.7310 C   0  0  0  0  0  0  0  0  0  0  0  0
   -6.4713   18.5382  -33.6274 H   0  0  0  0  0  0  0  0  0  0  0  0
   -5.8701   19.6644  -34.8911 H   0  0  0  0  0  0  0  0  0  0  0  0
   -5.3392   17.9483  -34.8911 H   0  0  0  0  0  0  0  0  0  0  0  0
   -4.1091   18.2812  -32.8032 H   0  0  0  0  0  0  0  0  0  0  0  0
   -3.6045   19.5326  -34.0029 H   0  0  0  0  0  0  0  0  0  0  0  0
   -9.1900   19.1530  -33.6010 H   0  0  0  0  0  0  0  0  0  0  0  0
   -7.4900   19.3940  -33.0800 H   0  0  0  0  0  0  0  0  0  0  0  0
   -9.0674   23.6511  -31.5089 H   0  0  0  0  0  0  0  0  0  0  0  0
   -7.4373   25.5597  -30.1472 H   0  0  0  0  0  0  0  0  0  0  0  0
   -5.1497   25.9017  -29.1665 H   0  0  0  0  0  0  0  0  0  0  0  0
   -2.9821   22.2268  -27.9974 H   0  0  0  0  0  0  0  0  0  0  0  0
   -0.7464   26.5277  -29.1016 H   0  0  0  0  0  0  0  0  0  0  0  0
   -4.0709   21.8195  -30.2625 H   0  0  0  0  0  0  0  0  0  0  0  0
  1  2  1  0
  2  3  1  0
  3  4  1  0
  4  5  2  0
  4  6  1  0
  6  7  1  0
  7  8  1  0
  8  9  1  0
  8 10  2  0
  7 11  2  0
 11 12  1  0
 12 13  2  0
 13 14  1  0
 14 15  2  0
 15 16  1  0
 16 17  2  0
 17 18  1  0
 18 19  2  0
 18 20  1  0
 20 21  1  0
 21 22  2  0
 21 23  1  0
 20 24  2  0
 24 25  1  0
 15 26  1  0
 26 27  2  0
 27  6  1  0
 27 12  1  0
 25 16  1  0
  1 28  1  0
  1 29  1  0
  1 30  1  0
  2 31  1  0
  2 32  1  0
  9 33  1  0
  9 34  1  0
 11 35  1  0
 13 36  1  0
 14 37  1  0
 17 38  1  0
 24 39  1  0
 26 40  1  0
M  CHG  2  23  -1  25  -1
M  END
>  <UniqueID>  (45) 
44

>  <SMILES>  (45) 
CCOC(=O)n1c(C(N)=O)cc2ccc(-c3cc(=O)c(C(=O)[O-])c[n-]3)cc21

>  <Energy>  (45) 
85.36570338326916

>  <Genealogy>  (45) 
CCOC(=O)n1c(C(N)=O)cc2ccc(-c3cc(=O)c(C(=O)[O-])c[n-]3)cc21 (protonated)
CCOC(=O)n1c(C(N)=O)cc2ccc(-c3cc(=O)c(C(=O)[O-])c[n-]3)cc21 (3D coordinates assigned)
CCOC(=O)n1c(C(N)=O)cc2ccc(-c3cc(=O)c(C(=O)[O-])c[n-]3)cc21 (optimized conformer: 85.36570338326916 kcal/mol)

>  <smiles>  (45) 
CCOC(=O)n1c(C(N)=O)cc2ccc(-c3cc(=O)c(C(=O)O)c[nH]3)cc21

>  <score_type>  (45) 
oracle

>  <origin>  (45) 
adg

>  <m_score__min__energy>  (45) 
-9.9100000000000001

>  <m_primary>  (45) 
energy

$$$$
45:0
     RDKit          3D

 66 69  0  0  0  0  0  0  0  0999 V2000
   -1.0530   21.1010  -31.8860 C   0  0  0  0  0  0  0  0  0  0  0  0
   -1.0770   20.7780  -33.1830 C   0  0  0  0  0  0  0  0  0  0  0  0
   -2.3660   20.6180  -33.9420 C   0  0  0  0  0  0  0  0  0  0  0  0
   -2.9410   19.2290  -33.7740 C   0  0  0  0  0  0  0  0  0  0  0  0
   -2.1750   18.1250  -34.1790 C   0  0  0  0  0  0  0  0  0  0  0  0
   -2.6470   16.8200  -34.0130 C   0  0  0  0  0  0  0  0  0  0  0  0
   -3.8940   16.5840  -33.3960 C   0  0  0  0  0  0  0  0  0  0  0  0
   -4.6860   17.6930  -33.0390 C   0  0  0  0  0  0  0  0  0  0  0  0
   -4.2240   19.0060  -33.2220 C   0  0  0  0  0  0  0  0  0  0  0  0
   -5.0950   20.1170  -32.7890 C   0  0  0  0  0  0  0  0  0  0  0  0
   -6.4830   20.0830  -33.0600 C   0  0  0  0  0  0  0  0  0  0  0  0
   -7.3180   21.1320  -32.6410 C   0  0  0  0  0  0  0  0  0  0  0  0
   -6.7380   22.1840  -31.9360 C   0  0  0  0  0  0  0  0  0  0  0  0
   -7.3120   23.3230  -31.4190 C   0  0  0  0  0  0  0  0  0  0  0  0
   -6.2710   24.0140  -30.8010 C   0  0  0  0  0  0  0  0  0  0  0  0
   -6.4600   25.2540  -30.0170 C   0  0  0  0  0  0  0  0  0  0  0  0
   -5.6780   26.4160  -30.2930 N   0  0  0  0  0  0  0  0  0  0  0  0
   -7.3400   25.3070  -29.1170 O   0  0  0  0  0  0  0  0  0  0  0  0
   -5.0980   23.3310  -30.9360 N   0  0  0  0  0  0  0  0  0  0  0  0
   -3.7950   23.7410  -30.4890 C   0  0  0  0  0  0  0  0  0  0  0  0
   -3.4940   24.9660  -30.4750 O   0  0  0  0  0  0  0  0  0  0  0  0
   -2.8750   22.7700  -30.0610 O   0  0  0  0  0  0  0  0  0  0  0  0
   -2.7250   22.2700  -28.7250 C   0  0  0  0  0  0  0  0  0  0  0  0
   -2.7340   20.7350  -28.8120 C   0  0  0  0  0  0  0  0  0  0  0  0
   -1.3820   22.7250  -28.1220 C   0  0  0  0  0  0  0  0  0  0  0  0
   -3.9010   22.7250  -27.8410 C   0  0  0  0  0  0  0  0  0  0  0  0
   -5.4010   22.2140  -31.6340 C   0  0  0  0  0  0  0  0  0  0  0  0
   -4.5430   21.1930  -32.0630 C   0  0  0  0  0  0  0  0  0  0  0  0
   -4.4000   15.1500  -33.1880 C   0  0  0  0  0  0  0  0  0  0  0  0
   -5.5080   14.8560  -34.2210 C   0  0  0  0  0  0  0  0  0  0  0  0
   -4.9830   14.9760  -31.7650 C   0  0  0  0  0  0  0  0  0  0  0  0
   -3.2400   14.1230  -33.3440 C   0  0  0  0  0  0  0  0  0  0  0  0
   -2.3570   14.4310  -34.5520 C   0  0  0  0  0  0  0  0  0  0  0  0
   -1.8550   15.7580  -34.4570 O   0  0  0  0  0  0  0  0  0  0  0  0
   -0.0909   21.2093  -31.3639 H   0  0  0  0  0  0  0  0  0  0  0  0
   -1.9954   21.2584  -31.3409 H   0  0  0  0  0  0  0  0  0  0  0  0
   -0.1247   20.6244  -33.7117 H   0  0  0  0  0  0  0  0  0  0  0  0
   -3.0939   21.3535  -33.5688 H   0  0  0  0  0  0  0  0  0  0  0  0
   -2.1590   20.7783  -35.0104 H   0  0  0  0  0  0  0  0  0  0  0  0
   -1.1873   18.2894  -34.6344 H   0  0  0  0  0  0  0  0  0  0  0  0
   -5.6848   17.5271  -32.6090 H   0  0  0  0  0  0  0  0  0  0  0  0
   -6.9119   19.2281  -33.6033 H   0  0  0  0  0  0  0  0  0  0  0  0
   -8.3954   21.1230  -32.8625 H   0  0  0  0  0  0  0  0  0  0  0  0
   -8.3682   23.6242  -31.4804 H   0  0  0  0  0  0  0  0  0  0  0  0
   -5.8500   27.3020  -29.7660 H   0  0  0  0  0  0  0  0  0  0  0  0
   -4.9080   26.3980  -30.9980 H   0  0  0  0  0  0  0  0  0  0  0  0
   -2.7365   20.3102  -27.7973 H   0  0  0  0  0  0  0  0  0  0  0  0
   -3.6341   20.4035  -29.3505 H   0  0  0  0  0  0  0  0  0  0  0  0
   -1.8378   20.3930  -29.3505 H   0  0  0  0  0  0  0  0  0  0  0  0
   -1.4468   22.7030  -27.0241 H   0  0  0  0  0  0  0  0  0  0  0  0
   -0.5820   22.0477  -28.4557 H   0  0  0  0  0  0  0  0  0  0  0  0
   -1.1584   23.7490  -28.4557 H   0  0  0  0  0  0  0  0  0  0  0  0
   -3.6258   22.6185  -26.7813 H   0  0  0  0  0  0  0  0  0  0  0  0
   -4.1345   23.7784  -28.0551 H   0  0  0  0  0  0  0  0  0  0  0  0
   -4.7827   22.1031  -28.0551 H   0  0  0  0  0  0  0  0  0  0  0  0
   -3.4666   21.2295  -31.8394 H   0  0  0  0  0  0  0  0  0  0  0  0
   -6.4423   14.6081  -33.6960 H   0  0  0  0  0  0  0  0  0  0  0  0
   -5.6661   15.7433  -34.8517 H   0  0  0  0  0  0  0  0  0  0  0  0
   -5.2054   14.0071  -34.8517 H   0  0  0  0  0  0  0  0  0  0  0  0
   -4.2074   15.2075  -31.0201 H   0  0  0  0  0  0  0  0  0  0  0  0
   -5.8349   15.6590  -31.6317 H   0  0  0  0  0  0  0  0  0  0  0  0
   -5.3211   13.9378  -31.6317 H   0  0  0  0  0  0  0  0  0  0  0  0
   -2.6198   14.1481  -32.4359 H   0  0  0  0  0  0  0  0  0  0  0  0
   -3.6862   13.1291  -33.4958 H   0  0  0  0  0  0  0  0  0  0  0  0
   -1.5153   13.7234  -34.5787 H   0  0  0  0  0  0  0  0  0  0  0  0
   -2.9531   14.3336  -35.4713 H   0  0  0  0  0  0  0  0  0  0  0  0
  1  2  2  0
  2  3  1  0
  3  4  1  0
  4  5  2  0
  5  6  1  0
  6  7  2  0
  7  8  1  0
  8  9  2  0
  9 10  1  0
 10 11  2  0
 11 12  1  0
 12 13  2  0
 13 14  1  0
 14 15  2  0
 15 16  1  0
 16 17  1  0
 16 18  2  0
 15 19  1  0
 19 20  1  0
 20 21  2  0
 20 22  1  0
 22 23  1  0
 23 24  1  0
 23 25  1  0
 23 26  1  0
 19 27  1  0
 27 28  2  0
  7 29  1  0
 29 30  1  0
 29 31  1  0
 29 32  1  0
 32 33  1  0
 33 34  1  0
  9  4  1  0
 28 10  1  0
 34  6  1  0
 27 13  1  0
  1 35  1  0
  1 36  1  0
  2 37  1  0
  3 38  1  0
  3 39  1  0
  5 40  1  0
  8 41  1  0
 11 42  1  0
 12 43  1  0
 14 44  1  0
 17 45  1  0
 17 46  1  0
 24 47  1  0
 24 48  1  0
 24 49  1  0
 25 50  1  0
 25 51  1  0
 25 52  1  0
 26 53  1  0
 26 54  1  0
 26 55  1  0
 28 56  1  0
 30 57  1  0
 30 58  1  0
 30 59  1  0
 31 60  1  0
 31 61  1  0
 31 62  1  0
 32 63  1  0
 32 64  1  0
 33 65  1  0
 33 66  1  0
M  END
>  <UniqueID>  (46) 
45

>  <SMILES>  (46) 
C=CCc1cc2c(cc1-c1ccc3cc(C(N)=O)n(C(=O)OC(C)(C)C)c3c1)C(C)(C)CCO2

>  <Energy>  (46) 
107.3368325529931

>  <Genealogy>  (46) 
C=CCc1cc2c(cc1-c1ccc3cc(C(N)=O)n(C(=O)OC(C)(C)C)c3c1)C(C)(C)CCO2 (3D coordinates assigned)
C=CCc1cc2c(cc1-c1ccc3cc(C(N)=O)n(C(=O)OC(C)(C)C)c3c1)C(C)(C)CCO2 (nonaromatic ring conformer: 107.3368325529931 kcal/mol)

>  <smiles>  (46) 
C=CCc1cc2c(cc1-c1ccc3cc(C(N)=O)n(C(=O)OC(C)(C)C)c3c1)C(C)(C)CCO2

>  <score_type>  (46) 
oracle

>  <origin>  (46) 
adg

>  <m_score__min__energy>  (46) 
-9.8499999999999996

>  <m_primary>  (46) 
energy

$$$$
46:0
     RDKit          3D

 42 44  0  0  0  0  0  0  0  0999 V2000
   -0.8210   21.1260  -32.1380 C   0  0  0  0  0  0  0  0  0  0  0  0
   -2.2750   20.6500  -32.3090 C   0  0  0  0  0  0  0  0  0  0  0  0
   -2.3440   19.1120  -32.3580 C   0  0  0  0  0  0  0  0  0  0  0  0
   -2.8290   21.2140  -33.6270 C   0  0  0  0  0  0  0  0  0  0  0  0
   -3.1020   21.1600  -31.2520 O   0  0  0  0  0  0  0  0  0  0  0  0
   -3.6870   22.4340  -31.1950 C   0  0  0  0  0  0  0  0  0  0  0  0
   -2.9750   23.4680  -31.0850 O   0  0  0  0  0  0  0  0  0  0  0  0
   -5.1180   22.5560  -31.2490 N   0  0  0  0  0  0  0  0  0  0  0  0
   -5.8670   23.6420  -30.9050 C   0  0  0  0  0  0  0  0  0  0  0  0
   -5.3550   24.8640  -30.2480 C   0  0  0  0  0  0  0  0  0  0  0  0
   -5.7630   25.2030  -28.9210 N   0  0  0  0  0  0  0  0  0  0  0  0
   -4.5280   25.6050  -30.8420 O   0  0  0  0  0  0  0  0  0  0  0  0
   -7.2150   23.4090  -31.1730 C   0  0  0  0  0  0  0  0  0  0  0  0
   -7.2680   22.1360  -31.6950 C   0  0  0  0  0  0  0  0  0  0  0  0
   -8.3580   21.4020  -32.1470 C   0  0  0  0  0  0  0  0  0  0  0  0
   -8.1200   20.1180  -32.6660 C   0  0  0  0  0  0  0  0  0  0  0  0
   -6.8010   19.5940  -32.7320 C   0  0  0  0  0  0  0  0  0  0  0  0
   -6.5330   18.2480  -33.2890 C   0  0  0  0  0  0  0  0  0  0  0  0
   -5.4190   17.8480  -34.0130 C   0  0  0  0  0  0  0  0  0  0  0  0
   -5.6230   16.5190  -34.3100 C   0  0  0  0  0  0  0  0  0  0  0  0
   -6.8400   16.1840  -33.7570 C   0  0  0  0  0  0  0  0  0  0  0  0
   -7.3560   17.2310  -33.1570 O   0  0  0  0  0  0  0  0  0  0  0  0
   -5.7200   20.3760  -32.2610 C   0  0  0  0  0  0  0  0  0  0  0  0
   -5.9900   21.6430  -31.7320 C   0  0  0  0  0  0  0  0  0  0  0  0
   -0.5842   21.2035  -31.0666 H   0  0  0  0  0  0  0  0  0  0  0  0
   -0.1405   20.4037  -32.6126 H   0  0  0  0  0  0  0  0  0  0  0  0
   -0.6994   22.1109  -32.6126 H   0  0  0  0  0  0  0  0  0  0  0  0
   -2.3619   18.7129  -31.3331 H   0  0  0  0  0  0  0  0  0  0  0  0
   -3.2569   18.8026  -32.8880 H   0  0  0  0  0  0  0  0  0  0  0  0
   -1.4624   18.7221  -32.8880 H   0  0  0  0  0  0  0  0  0  0  0  0
   -3.5844   21.9830  -33.4080 H   0  0  0  0  0  0  0  0  0  0  0  0
   -2.0088   21.6607  -34.2082 H   0  0  0  0  0  0  0  0  0  0  0  0
   -3.2903   20.4019  -34.2082 H   0  0  0  0  0  0  0  0  0  0  0  0
   -6.4860   24.6450  -28.4170 H   0  0  0  0  0  0  0  0  0  0  0  0
   -5.3680   26.0480  -28.4500 H   0  0  0  0  0  0  0  0  0  0  0  0
   -8.0572   24.0960  -31.0035 H   0  0  0  0  0  0  0  0  0  0  0  0
   -9.3769   21.8139  -32.0999 H   0  0  0  0  0  0  0  0  0  0  0  0
   -8.9645   19.5116  -33.0253 H   0  0  0  0  0  0  0  0  0  0  0  0
   -4.5521   18.4650  -34.2920 H   0  0  0  0  0  0  0  0  0  0  0  0
   -4.9498   15.8576  -34.8751 H   0  0  0  0  0  0  0  0  0  0  0  0
   -7.3079   15.1899  -33.8104 H   0  0  0  0  0  0  0  0  0  0  0  0
   -4.6889   19.9959  -32.3097 H   0  0  0  0  0  0  0  0  0  0  0  0
  1  2  1  0
  2  3  1  0
  2  4  1  0
  2  5  1  0
  5  6  1  0
  6  7  2  0
  6  8  1  0
  8  9  1  0
  9 10  1  0
 10 11  1  0
 10 12  2  0
  9 13  2  0
 13 14  1  0
 14 15  2  0
 15 16  1  0
 16 17  2  0
 17 18  1  0
 18 19  2  0
 19 20  1  0
 20 21  2  0
 21 22  1  0
 17 23  1  0
 23 24  2  0
 24  8  1  0
 24 14  1  0
 22 18  1  0
  1 25  1  0
  1 26  1  0
  1 27  1  0
  3 28  1  0
  3 29  1  0
  3 30  1  0
  4 31  1  0
  4 32  1  0
  4 33  1  0
 11 34  1  0
 11 35  1  0
 13 36  1  0
 15 37  1  0
 16 38  1  0
 19 39  1  0
 20 40  1  0
 21 41  1  0
 23 42  1  0
M  END
>  <UniqueID>  (47) 
46

>  <SMILES>  (47) 
CC(C)(C)OC(=O)n1c(C(N)=O)cc2ccc(-c3ccco3)cc21

>  <Energy>  (47) 
104.75387711271156

>  <Genealogy>  (47) 
CC(C)(C)OC(=O)n1c(C(N)=O)cc2ccc(-c3ccco3)cc21 (3D coordinates assigned)
CC(C)(C)OC(=O)n1c(C(N)=O)cc2ccc(-c3ccco3)cc21 (optimized conformer: 104.75387711271156 kcal/mol)

>  <smiles>  (47) 
CC(C)(C)OC(=O)n1c(C(N)=O)cc2ccc(-c3ccco3)cc21

>  <score_type>  (47) 
oracle

>  <origin>  (47) 
adg

>  <m_score__min__energy>  (47) 
-9.4399999999999995

>  <m_primary>  (47) 
energy

$$$$
47:0
     RDKit          3D

 67 69  0  0  0  0  0  0  0  0999 V2000
   -5.8350   15.5920  -34.1420 C   0  0  0  0  0  0  0  0  0  0  0  0
   -4.3770   16.0680  -33.9340 C   0  0  0  0  0  0  0  0  0  0  0  0
   -3.6760   16.0240  -35.3110 C   0  0  0  0  0  0  0  0  0  0  0  0
   -4.3250   17.4290  -33.2990 N   0  0  0  0  0  0  0  0  0  0  0  0
   -5.5980   18.1410  -33.4400 C   0  0  0  0  0  0  0  0  0  0  0  0
   -5.8850   18.6230  -34.5320 O   0  0  0  0  0  0  0  0  0  0  0  0
   -6.6320   18.2320  -32.2980 C   0  0  0  0  0  0  0  0  0  0  0  0
   -6.1170   17.4450  -31.0610 C   0  0  0  0  0  0  0  0  0  0  0  0
   -7.9730   17.5390  -32.6820 C   0  0  0  0  0  0  0  0  0  0  0  0
   -6.8130   19.7150  -31.9220 C   0  0  0  0  0  0  0  0  0  0  0  0
   -8.1080   20.2030  -31.5720 C   0  0  0  0  0  0  0  0  0  0  0  0
   -8.3100   21.5380  -31.1900 C   0  0  0  0  0  0  0  0  0  0  0  0
   -7.2050   22.3740  -31.1290 C   0  0  0  0  0  0  0  0  0  0  0  0
   -7.1190   23.7030  -30.7840 C   0  0  0  0  0  0  0  0  0  0  0  0
   -5.7650   24.0190  -30.8650 C   0  0  0  0  0  0  0  0  0  0  0  0
   -5.2130   25.3350  -30.4800 C   0  0  0  0  0  0  0  0  0  0  0  0
   -3.8790   25.6780  -30.8440 N   0  0  0  0  0  0  0  0  0  0  0  0
   -5.9190   26.1760  -29.8640 O   0  0  0  0  0  0  0  0  0  0  0  0
   -5.0440   22.9280  -31.2560 N   0  0  0  0  0  0  0  0  0  0  0  0
   -3.6270   22.8280  -31.4650 C   0  0  0  0  0  0  0  0  0  0  0  0
   -3.1760   22.3250  -32.5300 O   0  0  0  0  0  0  0  0  0  0  0  0
   -2.7540   23.2510  -30.4600 O   0  0  0  0  0  0  0  0  0  0  0  0
   -2.8600   22.8340  -29.1050 C   0  0  0  0  0  0  0  0  0  0  0  0
   -2.4440   23.9700  -28.2180 C   0  0  0  0  0  0  0  0  0  0  0  0
   -1.2730   24.6940  -28.5010 C   0  0  0  0  0  0  0  0  0  0  0  0
   -0.8610   25.7240  -27.6510 C   0  0  0  0  0  0  0  0  0  0  0  0
   -1.6030   26.0270  -26.5050 C   0  0  0  0  0  0  0  0  0  0  0  0
   -2.7530   25.2910  -26.2020 C   0  0  0  0  0  0  0  0  0  0  0  0
   -3.1700   24.2620  -27.0510 C   0  0  0  0  0  0  0  0  0  0  0  0
   -5.9440   21.9310  -31.4150 C   0  0  0  0  0  0  0  0  0  0  0  0
   -5.7140   20.6150  -31.8340 C   0  0  0  0  0  0  0  0  0  0  0  0
   -3.1450   18.2340  -33.8080 C   0  0  0  0  0  0  0  0  0  0  0  0
   -3.3060   19.7740  -33.7940 C   0  0  0  0  0  0  0  0  0  0  0  0
   -1.8550   17.8610  -33.0550 C   0  0  0  0  0  0  0  0  0  0  0  0
   -6.3129   15.4360  -33.1636 H   0  0  0  0  0  0  0  0  0  0  0  0
   -6.3929   16.3547  -34.7051 H   0  0  0  0  0  0  0  0  0  0  0  0
   -5.8354   14.6471  -34.7051 H   0  0  0  0  0  0  0  0  0  0  0  0
   -3.8489   15.4052  -33.2328 H   0  0  0  0  0  0  0  0  0  0  0  0
   -2.5877   15.9557  -35.1664 H   0  0  0  0  0  0  0  0  0  0  0  0
   -4.0270   15.1461  -35.8732 H   0  0  0  0  0  0  0  0  0  0  0  0
   -3.9145   16.9389  -35.8732 H   0  0  0  0  0  0  0  0  0  0  0  0
   -4.1950   17.2340  -32.2820 H   0  0  0  0  0  0  0  0  0  0  0  0
   -6.4475   17.9501  -30.1414 H   0  0  0  0  0  0  0  0  0  0  0  0
   -6.5210   16.4221  -31.0830 H   0  0  0  0  0  0  0  0  0  0  0  0
   -5.0179   17.4057  -31.0830 H   0  0  0  0  0  0  0  0  0  0  0  0
   -8.5158   17.2585  -31.7673 H   0  0  0  0  0  0  0  0  0  0  0  0
   -8.5875   18.2324  -33.2749 H   0  0  0  0  0  0  0  0  0  0  0  0
   -7.7628   16.6367  -33.2749 H   0  0  0  0  0  0  0  0  0  0  0  0
   -8.9672   19.5168  -31.6024 H   0  0  0  0  0  0  0  0  0  0  0  0
   -9.3157   21.9108  -30.9460 H   0  0  0  0  0  0  0  0  0  0  0  0
   -7.9445   24.3738  -30.5036 H   0  0  0  0  0  0  0  0  0  0  0  0
   -3.0620   25.3010  -30.3130 H   0  0  0  0  0  0  0  0  0  0  0  0
   -3.9006   22.5540  -28.8843 H   0  0  0  0  0  0  0  0  0  0  0  0
   -2.2105   21.9638  -28.9289 H   0  0  0  0  0  0  0  0  0  0  0  0
   -0.6792   24.4492  -29.3940 H   0  0  0  0  0  0  0  0  0  0  0  0
    0.0485   26.2973  -27.8838 H   0  0  0  0  0  0  0  0  0  0  0  0
   -1.2822   26.8440  -25.8420 H   0  0  0  0  0  0  0  0  0  0  0  0
   -3.3300   25.5222  -25.2945 H   0  0  0  0  0  0  0  0  0  0  0  0
   -4.0696   23.6788  -26.8047 H   0  0  0  0  0  0  0  0  0  0  0  0
   -4.6980   20.2813  -32.0916 H   0  0  0  0  0  0  0  0  0  0  0  0
   -3.0887   17.9521  -34.8698 H   0  0  0  0  0  0  0  0  0  0  0  0
   -3.3431   20.1293  -32.7536 H   0  0  0  0  0  0  0  0  0  0  0  0
   -2.4513   20.2367  -34.3092 H   0  0  0  0  0  0  0  0  0  0  0  0
   -4.2379   20.0499  -34.3092 H   0  0  0  0  0  0  0  0  0  0  0  0
   -2.0351   17.9131  -31.9711 H   0  0  0  0  0  0  0  0  0  0  0  0
   -1.5536   16.8389  -33.3280 H   0  0  0  0  0  0  0  0  0  0  0  0
   -1.0547   18.5645  -33.3280 H   0  0  0  0  0  0  0  0  0  0  0  0
  1  2  1  0
  2  3  1  0
  2  4  1  0
  4  5  1  0
  5  6  2  0
  5  7  1  0
  7  8  1  0
  7  9  1  0
  7 10  1  0
 10 11  2  0
 11 12  1  0
 12 13  2  0
 13 14  1  0
 14 15  2  0
 15 16  1  0
 16 17  1  0
 16 18  2  0
 15 19  1  0
 19 20  1  0
 20 21  2  0
 20 22  1  0
 22 23  1  0
 23 24  1  0
 24 25  2  0
 25 26  1  0
 26 27  2  0
 27 28  1  0
 28 29  2  0
 19 30  1  0
 30 31  2  0
  4 32  1  0
 32 33  1  0
 32 34  1  0
 31 10  1  0
 30 13  1  0
 29 24  1  0
  1 35  1  0
  1 36  1  0
  1 37  1  0
  2 38  1  0
  3 39  1  0
  3 40  1  0
  3 41  1  0
  4 42  1  0
  8 43  1  0
  8 44  1  0
  8 45  1  0
  9 46  1  0
  9 47  1  0
  9 48  1  0
 11 49  1  0
 12 50  1  0
 14 51  1  0
 17 52  1  0
 23 53  1  0
 23 54  1  0
 25 55  1  0
 26 56  1  0
 27 57  1  0
 28 58  1  0
 29 59  1  0
 31 60  1  0
 32 61  1  0
 33 62  1  0
 33 63  1  0
 33 64  1  0
 34 65  1  0
 34 66  1  0
 34 67  1  0
M  CHG  2   4   1  17  -1
M  END
>  <UniqueID>  (48) 
47

>  <SMILES>  (48) 
CC(C)[NH+](C(=O)C(C)(C)c1ccc2cc(C([NH-])=O)n(C(=O)OCc3ccccc3)c2c1)C(C)C

>  <Energy>  (48) 
117.49019539069596

>  <Genealogy>  (48) 
CC(C)[NH+](C(=O)C(C)(C)c1ccc2cc(C([NH-])=O)n(C(=O)OCc3ccccc3)c2c1)C(C)C (protonated)
CC(C)[NH+](C(=O)C(C)(C)c1ccc2cc(C([NH-])=O)n(C(=O)OCc3ccccc3)c2c1)C(C)C (3D coordinates assigned)
CC(C)[NH+](C(=O)C(C)(C)c1ccc2cc(C([NH-])=O)n(C(=O)OCc3ccccc3)c2c1)C(C)C (optimized conformer: 117.49019539069596 kcal/mol)

>  <smiles>  (48) 
CC(C)N(C(=O)C(C)(C)c1ccc2cc(C(N)=O)n(C(=O)OCc3ccccc3)c2c1)C(C)C

>  <score_type>  (48) 
oracle

>  <origin>  (48) 
adg

>  <m_score__min__energy>  (48) 
-11.720000000000001

>  <m_primary>  (48) 
energy

$$$$
48:0
     RDKit          3D

 75 78  0  0  0  0  0  0  0  0999 V2000
   -1.3900   15.3450  -33.1220 H   0  0  0  0  0  0  0  0  0  0  0  0
   -1.7970   14.6570  -33.7920 N   0  0  0  0  0  0  0  0  0  0  0  0
   -3.0340   14.9140  -34.4500 C   0  0  0  0  0  0  0  0  0  0  0  0
   -3.3850   14.1710  -35.4030 O   0  0  0  0  0  0  0  0  0  0  0  0
   -3.8980   16.0450  -34.0460 C   0  0  0  0  0  0  0  0  0  0  0  0
   -5.2900   16.0220  -34.1260 C   0  0  0  0  0  0  0  0  0  0  0  0
   -5.9250   15.1880  -34.4594 H   0  0  0  0  0  0  0  0  0  0  0  0
   -5.7010   17.2650  -33.6990 C   0  0  0  0  0  0  0  0  0  0  0  0
   -6.9820   17.7840  -33.5390 C   0  0  0  0  0  0  0  0  0  0  0  0
   -7.8702   17.1927  -33.8061 H   0  0  0  0  0  0  0  0  0  0  0  0
   -7.1070   19.0860  -33.0260 C   0  0  0  0  0  0  0  0  0  0  0  0
   -8.1076   19.5256  -32.9017 H   0  0  0  0  0  0  0  0  0  0  0  0
   -5.9590   19.8440  -32.6650 C   0  0  0  0  0  0  0  0  0  0  0  0
   -6.1010   21.1680  -32.0980 N   0  0  0  0  0  0  0  0  0  0  0  0
   -7.1130   21.4270  -31.0640 C   0  0  0  0  0  0  0  0  0  0  0  0
   -8.0748   21.6562  -31.5461 H   0  0  0  0  0  0  0  0  0  0  0  0
   -7.2145   20.5343  -30.4294 H   0  0  0  0  0  0  0  0  0  0  0  0
   -6.6880   22.6130  -30.1940 C   0  0  0  0  0  0  0  0  0  0  0  0
   -7.4725   22.8082  -29.4480 H   0  0  0  0  0  0  0  0  0  0  0  0
   -5.7364   22.3582  -29.7045 H   0  0  0  0  0  0  0  0  0  0  0  0
   -6.4810   23.8320  -31.0030 N   0  0  0  0  0  0  0  0  0  0  0  0
   -5.6940   25.0690  -30.0440 S   0  0  0  0  0  0  0  0  0  0  0  0
   -4.6640   25.8210  -30.8430 O   0  0  0  0  0  0  0  0  0  0  0  0
   -6.7400   26.0540  -29.6070 O   0  0  0  0  0  0  0  0  0  0  0  0
   -4.9680   24.4010  -28.6160 N   0  0  0  0  0  0  0  0  0  0  0  0
   -3.5990   24.0130  -28.4740 C   0  0  0  0  0  0  0  0  0  0  0  0
   -3.3270   22.9980  -27.7790 O   0  0  0  0  0  0  0  0  0  0  0  0
   -2.5490   24.7300  -29.1320 N   0  0  0  0  0  0  0  0  0  0  0  0
   -2.7480   25.1750  -30.0530 H   0  0  0  0  0  0  0  0  0  0  0  0
   -1.1860   24.6720  -28.6920 C   0  0  0  0  0  0  0  0  0  0  0  0
   -0.4910   25.6020  -27.9400 C   0  0  0  0  0  0  0  0  0  0  0  0
   -1.0020   26.8820  -27.3630 C   0  0  0  0  0  0  0  0  0  0  0  0
   -0.9789   26.8242  -26.2648 H   0  0  0  0  0  0  0  0  0  0  0  0
   -0.3675   27.7151  -27.6997 H   0  0  0  0  0  0  0  0  0  0  0  0
   -2.0358   27.0491  -27.6997 H   0  0  0  0  0  0  0  0  0  0  0  0
    0.7820   25.1760  -27.8020 N   0  0  0  0  0  0  0  0  0  0  0  0
    0.8880   24.0490  -28.4550 O   0  0  0  0  0  0  0  0  0  0  0  0
   -0.2520   23.7180  -29.0200 C   0  0  0  0  0  0  0  0  0  0  0  0
   -0.4710   22.4950  -29.8470 C   0  0  0  0  0  0  0  0  0  0  0  0
   -0.6261   21.6289  -29.1868 H   0  0  0  0  0  0  0  0  0  0  0  0
   -1.3582   22.6357  -30.4818 H   0  0  0  0  0  0  0  0  0  0  0  0
    0.4099   22.3191  -30.4818 H   0  0  0  0  0  0  0  0  0  0  0  0
   -5.8420   23.6120  -32.3230 C   0  0  0  0  0  0  0  0  0  0  0  0
   -6.6146   23.6971  -33.1014 H   0  0  0  0  0  0  0  0  0  0  0  0
   -5.0537   24.3718  -32.4292 H   0  0  0  0  0  0  0  0  0  0  0  0
   -5.1650   22.2410  -32.4600 C   0  0  0  0  0  0  0  0  0  0  0  0
   -4.8382   22.1008  -33.5009 H   0  0  0  0  0  0  0  0  0  0  0  0
   -4.2990   22.2019  -31.7829 H   0  0  0  0  0  0  0  0  0  0  0  0
   -4.6760   19.2780  -32.8510 C   0  0  0  0  0  0  0  0  0  0  0  0
   -3.7699   19.8414  -32.5833 H   0  0  0  0  0  0  0  0  0  0  0  0
   -4.5830   17.9880  -33.3820 C   0  0  0  0  0  0  0  0  0  0  0  0
   -3.4710   17.2570  -33.5920 N   0  0  0  0  0  0  0  0  0  0  0  0
   -2.1330   17.6660  -33.2780 C   0  0  0  0  0  0  0  0  0  0  0  0
   -1.6040   17.2880  -32.2020 O   0  0  0  0  0  0  0  0  0  0  0  0
   -1.4160   18.4570  -34.1850 O   0  0  0  0  0  0  0  0  0  0  0  0
   -1.7810   19.7960  -34.5190 C   0  0  0  0  0  0  0  0  0  0  0  0
   -2.8714   19.8504  -34.6537 H   0  0  0  0  0  0  0  0  0  0  0  0
   -1.2676   20.0817  -35.4489 H   0  0  0  0  0  0  0  0  0  0  0  0
   -1.3620   20.7640  -33.4060 C   0  0  0  0  0  0  0  0  0  0  0  0
   -1.8198   20.4350  -32.4615 H   0  0  0  0  0  0  0  0  0  0  0  0
   -1.7031   21.7699  -33.6920 H   0  0  0  0  0  0  0  0  0  0  0  0
    0.1330   20.8220  -33.2240 C   0  0  0  0  0  0  0  0  0  0  0  0
    0.5497   20.4589  -32.2730 H   0  0  0  0  0  0  0  0  0  0  0  0
    0.9890   21.2880  -34.1470 C   0  0  0  0  0  0  0  0  0  0  0  0
    2.0620   21.2271  -33.9125 H   0  0  0  0  0  0  0  0  0  0  0  0
    0.6170   21.8740  -35.4470 C   0  0  0  0  0  0  0  0  0  0  0  0
    0.5760   23.1260  -35.6110 O   0  0  0  0  0  0  0  0  0  0  0  0
    0.3520   21.0110  -36.5180 O   0  0  0  0  0  0  0  0  0  0  0  0
    0.8270   19.6650  -36.5810 C   0  0  0  0  0  0  0  0  0  0  0  0
    0.2875   19.1303  -37.3767 H   0  0  0  0  0  0  0  0  0  0  0  0
    0.6515   19.1861  -35.6064 H   0  0  0  0  0  0  0  0  0  0  0  0
    2.3230   19.6250  -36.8790 C   0  0  0  0  0  0  0  0  0  0  0  0
    2.8849   19.6100  -35.9335 H   0  0  0  0  0  0  0  0  0  0  0  0
    2.5572   18.7203  -37.4592 H   0  0  0  0  0  0  0  0  0  0  0  0
    2.6053   20.5159  -37.4592 H   0  0  0  0  0  0  0  0  0  0  0  0
  1  2  1  0
  2  3  1  0
  3  4  2  0
  3  5  1  0
  5  6  2  0
  6  7  1  0
  6  8  1  0
  8  9  2  0
  9 10  1  0
  9 11  1  0
 11 12  1  0
 11 13  2  0
 13 14  1  0
 14 15  1  0
 15 16  1  0
 15 17  1  0
 15 18  1  0
 18 19  1  0
 18 20  1  0
 18 21  1  0
 21 22  1  0
 22 23  2  0
 22 24  2  0
 22 25  1  0
 25 26  1  0
 26 27  2  0
 26 28  1  0
 28 29  1  0
 28 30  1  0
 30 31  1  0
 31 32  1  0
 32 33  1  0
 32 34  1  0
 32 35  1  0
 31 36  2  0
 36 37  1  0
 37 38  1  0
 38 39  1  0
 39 40  1  0
 39 41  1  0
 39 42  1  0
 21 43  1  0
 43 44  1  0
 43 45  1  0
 43 46  1  0
 46 47  1  0
 46 48  1  0
 13 49  1  0
 49 50  1  0
 49 51  2  0
 51 52  1  0
 52 53  1  0
 53 54  2  0
 53 55  1  0
 55 56  1  0
 56 57  1  0
 56 58  1  0
 56 59  1  0
 59 60  1  0
 59 61  1  0
 59 62  1  0
 62 63  1  0
 62 64  2  0
 64 65  1  0
 64 66  1  0
 66 67  2  0
 66 68  1  0
 68 69  1  0
 69 70  1  0
 69 71  1  0
 69 72  1  0
 72 73  1  0
 72 74  1  0
 72 75  1  0
 52  5  1  0
 51  8  1  0
 46 14  1  0
 38 30  2  0
M  CHG  2   2  -1  25  -1
M  END
>  <UniqueID>  (49) 
48

>  <SMILES>  (49) 
CCOC(=O)/C=C\CCOC(=O)n1c(C([NH-])=O)cc2ccc(N3CCN(S(=O)(=O)[N-]C(=O)Nc4c(C)noc4C)CC3)cc21

>  <Energy>  (49) 
153.05249305373414

>  <Genealogy>  (49) 
CCOC(=O)/C=C\CCOC(=O)n1c(C([NH-])=O)cc2ccc(N3CCN(S(=O)(=O)[N-]C(=O)Nc4c(C)noc4C)CC3)cc21 (protonated)
CCOC(=O)/C=C\CCOC(=O)n1c(C([NH-])=O)cc2ccc(N3CCN(S(=O)(=O)[N-]C(=O)Nc4c(C)noc4C)CC3)cc21 (cis-trans isomerization)
CCOC(=O)/C=C\CCOC(=O)n1c(C([NH-])=O)cc2ccc(N3CCN(S(=O)(=O)[N-]C(=O)Nc4c(C)noc4C)CC3)cc21 (3D coordinates assigned)
CCOC(=O)/C=C\CCOC(=O)n1c(C([NH-])=O)cc2ccc(N3CCN(S(=O)(=O)[N-]C(=O)Nc4c(C)noc4C)CC3)cc21 (nonaromatic ring conformer: 153.05249305373414 kcal/mol)

>  <smiles>  (49) 
CCOC(=O)/C=C\CCOC(=O)n1c(C(N)=O)cc2ccc(N3CCN(S(=O)(=O)NC(=O)Nc4c(C)noc4C)CC3)cc21

>  <score_type>  (49) 
oracle

>  <origin>  (49) 
adg

>  <m_score__min__energy>  (49) 
-11.75

>  <m_primary>  (49) 
energy

$$$$
49:0
     RDKit          3D

 50 51  0  0  0  0  0  0  0  0999 V2000
   -6.0360   13.4520  -33.8940 C   0  0  0  0  0  0  0  0  0  0  0  0
   -4.9190   14.3230  -33.4970 N   0  0  0  0  0  0  0  0  0  0  0  0
   -4.6170   14.1810  -32.0640 C   0  0  0  0  0  0  0  0  0  0  0  0
   -5.1090   15.7320  -33.9100 C   0  0  0  0  0  0  0  0  0  0  0  0
   -6.5830   16.1720  -33.9980 C   0  0  0  0  0  0  0  0  0  0  0  0
   -6.7360   17.5270  -33.4560 C   0  0  0  0  0  0  0  0  0  0  0  0
   -6.8620   18.6390  -33.0100 C   0  0  0  0  0  0  0  0  0  0  0  0
   -7.0090   19.9680  -32.4790 C   0  0  0  0  0  0  0  0  0  0  0  0
   -8.2990   20.4840  -32.2160 C   0  0  0  0  0  0  0  0  0  0  0  0
   -8.4540   21.7760  -31.6870 C   0  0  0  0  0  0  0  0  0  0  0  0
   -7.3040   22.5230  -31.4420 C   0  0  0  0  0  0  0  0  0  0  0  0
   -7.1650   23.7870  -30.9150 C   0  0  0  0  0  0  0  0  0  0  0  0
   -5.7920   24.0260  -30.8860 C   0  0  0  0  0  0  0  0  0  0  0  0
   -5.1990   25.3140  -30.4670 C   0  0  0  0  0  0  0  0  0  0  0  0
   -3.8700   25.6450  -30.8660 N   0  0  0  0  0  0  0  0  0  0  0  0
   -5.8390   26.1120  -29.7330 O   0  0  0  0  0  0  0  0  0  0  0  0
   -5.1090   22.9500  -31.3710 N   0  0  0  0  0  0  0  0  0  0  0  0
   -3.6870   22.7710  -31.4600 C   0  0  0  0  0  0  0  0  0  0  0  0
   -2.9500   23.1380  -30.5070 O   0  0  0  0  0  0  0  0  0  0  0  0
   -3.1430   22.1620  -32.6010 O   0  0  0  0  0  0  0  0  0  0  0  0
   -2.4330   20.9160  -32.6450 C   0  0  0  0  0  0  0  0  0  0  0  0
   -2.3450   20.2920  -31.2390 C   0  0  0  0  0  0  0  0  0  0  0  0
   -3.1080   19.9440  -33.6310 C   0  0  0  0  0  0  0  0  0  0  0  0
   -1.0130   21.2220  -33.1440 C   0  0  0  0  0  0  0  0  0  0  0  0
   -6.0490   22.0400  -31.7090 C   0  0  0  0  0  0  0  0  0  0  0  0
   -5.8640   20.7490  -32.2200 C   0  0  0  0  0  0  0  0  0  0  0  0
   -6.5351   13.0628  -32.9943 H   0  0  0  0  0  0  0  0  0  0  0  0
   -6.7563   14.0292  -34.4923 H   0  0  0  0  0  0  0  0  0  0  0  0
   -5.6518   12.6127  -34.4923 H   0  0  0  0  0  0  0  0  0  0  0  0
   -5.4558   14.5754  -31.4717 H   0  0  0  0  0  0  0  0  0  0  0  0
   -4.4669   13.1179  -31.8245 H   0  0  0  0  0  0  0  0  0  0  0  0
   -3.7025   14.7435  -31.8245 H   0  0  0  0  0  0  0  0  0  0  0  0
   -4.5996   16.3772  -33.1791 H   0  0  0  0  0  0  0  0  0  0  0  0
   -4.6913   15.8230  -34.9235 H   0  0  0  0  0  0  0  0  0  0  0  0
   -6.9038   16.1623  -35.0501 H   0  0  0  0  0  0  0  0  0  0  0  0
   -7.2026   15.4770  -33.4123 H   0  0  0  0  0  0  0  0  0  0  0  0
   -9.1868   19.8697  -32.4270 H   0  0  0  0  0  0  0  0  0  0  0  0
   -9.4524   22.1851  -31.4729 H   0  0  0  0  0  0  0  0  0  0  0  0
   -7.9669   24.4645  -30.5866 H   0  0  0  0  0  0  0  0  0  0  0  0
   -3.0460   25.2890  -30.3320 H   0  0  0  0  0  0  0  0  0  0  0  0
   -2.4562   21.0806  -30.4802 H   0  0  0  0  0  0  0  0  0  0  0  0
   -3.1473   19.5495  -31.1165 H   0  0  0  0  0  0  0  0  0  0  0  0
   -1.3686   19.8004  -31.1165 H   0  0  0  0  0  0  0  0  0  0  0  0
   -3.6473   19.1673  -33.0689 H   0  0  0  0  0  0  0  0  0  0  0  0
   -3.8171   20.4976  -34.2641 H   0  0  0  0  0  0  0  0  0  0  0  0
   -2.3416   19.4730  -34.2641 H   0  0  0  0  0  0  0  0  0  0  0  0
   -0.3446   21.3660  -32.2823 H   0  0  0  0  0  0  0  0  0  0  0  0
   -0.6495   20.3816  -33.7535 H   0  0  0  0  0  0  0  0  0  0  0  0
   -1.0279   22.1376  -33.7535 H   0  0  0  0  0  0  0  0  0  0  0  0
   -4.8550   20.3560  -32.4136 H   0  0  0  0  0  0  0  0  0  0  0  0
  1  2  1  0
  2  3  1  0
  2  4  1  0
  4  5  1  0
  5  6  1  0
  6  7  3  0
  7  8  1  0
  8  9  2  0
  9 10  1  0
 10 11  2  0
 11 12  1  0
 12 13  2  0
 13 14  1  0
 14 15  1  0
 14 16  2  0
 13 17  1  0
 17 18  1  0
 18 19  2  0
 18 20  1  0
 20 21  1  0
 21 22  1  0
 21 23  1  0
 21 24  1  0
 17 25  1  0
 25 26  2  0
 26  8  1  0
 25 11  1  0
  1 27  1  0
  1 28  1  0
  1 29  1  0
  3 30  1  0
  3 31  1  0
  3 32  1  0
  4 33  1  0
  4 34  1  0
  5 35  1  0
  5 36  1  0
  9 37  1  0
 10 38  1  0
 12 39  1  0
 15 40  1  0
 22 41  1  0
 22 42  1  0
 22 43  1  0
 23 44  1  0
 23 45  1  0
 23 46  1  0
 24 47  1  0
 24 48  1  0
 24 49  1  0
 26 50  1  0
M  CHG  1  15  -1
M  END
>  <UniqueID>  (50) 
49

>  <SMILES>  (50) 
CN(C)CCC#Cc1ccc2cc(C([NH-])=O)n(C(=O)OC(C)(C)C)c2c1

>  <Energy>  (50) 
79.87155950178033

>  <Genealogy>  (50) 
CN(C)CCC#Cc1ccc2cc(C([NH-])=O)n(C(=O)OC(C)(C)C)c2c1 (protonated)
CN(C)CCC#Cc1ccc2cc(C([NH-])=O)n(C(=O)OC(C)(C)C)c2c1 (3D coordinates assigned)
CN(C)CCC#Cc1ccc2cc(C([NH-])=O)n(C(=O)OC(C)(C)C)c2c1 (optimized conformer: 79.87155950178033 kcal/mol)

>  <smiles>  (50) 
CN(C)CCC#Cc1ccc2cc(C(N)=O)n(C(=O)OC(C)(C)C)c2c1

>  <score_type>  (50) 
oracle

>  <origin>  (50) 
adg

>  <m_score__min__energy>  (50) 
-10.9

>  <m_primary>  (50) 
energy

$$$$
50:0
     RDKit          3D

 38 39  0  0  0  0  0  0  0  0999 V2000
   -6.4880   18.4530  -33.7860 C   0  0  0  0  0  0  0  0  0  0  0  0
   -6.7600   19.7050  -33.0070 C   0  0  0  0  0  0  0  0  0  0  0  0
   -8.0910   20.0500  -32.6640 C   0  0  0  0  0  0  0  0  0  0  0  0
   -8.3620   21.2320  -31.9550 C   0  0  0  0  0  0  0  0  0  0  0  0
   -7.2890   22.0560  -31.6240 C   0  0  0  0  0  0  0  0  0  0  0  0
   -7.2660   23.2370  -30.9190 C   0  0  0  0  0  0  0  0  0  0  0  0
   -5.9270   23.6180  -30.8840 C   0  0  0  0  0  0  0  0  0  0  0  0
   -5.4550   24.8760  -30.2710 C   0  0  0  0  0  0  0  0  0  0  0  0
   -5.9070   25.2850  -28.9790 N   0  0  0  0  0  0  0  0  0  0  0  0
   -4.5970   25.5730  -30.8740 O   0  0  0  0  0  0  0  0  0  0  0  0
   -5.1500   22.7030  -31.5290 N   0  0  0  0  0  0  0  0  0  0  0  0
   -3.7170   22.6800  -31.6190 C   0  0  0  0  0  0  0  0  0  0  0  0
   -3.1560   21.9230  -32.4560 O   0  0  0  0  0  0  0  0  0  0  0  0
   -2.9600   23.5040  -30.7720 O   0  0  0  0  0  0  0  0  0  0  0  0
   -2.4510   23.1540  -29.4760 C   0  0  0  0  0  0  0  0  0  0  0  0
   -3.5030   22.3660  -28.6740 C   0  0  0  0  0  0  0  0  0  0  0  0
   -2.1450   24.4680  -28.7410 C   0  0  0  0  0  0  0  0  0  0  0  0
   -1.1470   22.3440  -29.6080 C   0  0  0  0  0  0  0  0  0  0  0  0
   -5.9990   21.7530  -31.9800 C   0  0  0  0  0  0  0  0  0  0  0  0
   -5.6980   20.5710  -32.6680 C   0  0  0  0  0  0  0  0  0  0  0  0
   -6.3071   17.6203  -33.0903 H   0  0  0  0  0  0  0  0  0  0  0  0
   -7.3564   18.2194  -34.4196 H   0  0  0  0  0  0  0  0  0  0  0  0
   -5.6010   18.6008  -34.4196 H   0  0  0  0  0  0  0  0  0  0  0  0
   -8.9188   19.3867  -32.9554 H   0  0  0  0  0  0  0  0  0  0  0  0
   -9.3904   21.4987  -31.6699 H   0  0  0  0  0  0  0  0  0  0  0  0
   -8.1225   23.7673  -30.4772 H   0  0  0  0  0  0  0  0  0  0  0  0
   -6.4790   24.6510  -28.3810 H   0  0  0  0  0  0  0  0  0  0  0  0
   -5.5950   26.1980  -28.5810 H   0  0  0  0  0  0  0  0  0  0  0  0
   -3.3212   22.5022  -27.5977 H   0  0  0  0  0  0  0  0  0  0  0  0
   -4.5081   22.7353  -28.9257 H   0  0  0  0  0  0  0  0  0  0  0  0
   -3.4312   21.2976  -28.9257 H   0  0  0  0  0  0  0  0  0  0  0  0
   -2.1845   24.2984  -27.6549 H   0  0  0  0  0  0  0  0  0  0  0  0
   -1.1410   24.8195  -29.0209 H   0  0  0  0  0  0  0  0  0  0  0  0
   -2.8904   25.2269  -29.0209 H   0  0  0  0  0  0  0  0  0  0  0  0
   -0.7612   22.1044  -28.6061 H   0  0  0  0  0  0  0  0  0  0  0  0
   -1.3483   21.4117  -30.1561 H   0  0  0  0  0  0  0  0  0  0  0  0
   -0.4005   22.9376  -30.1561 H   0  0  0  0  0  0  0  0  0  0  0  0
   -4.6606   20.3237  -32.9374 H   0  0  0  0  0  0  0  0  0  0  0  0
  1  2  1  0
  2  3  2  0
  3  4  1  0
  4  5  2  0
  5  6  1  0
  6  7  2  0
  7  8  1  0
  8  9  1  0
  8 10  2  0
  7 11  1  0
 11 12  1  0
 12 13  2  0
 12 14  1  0
 14 15  1  0
 15 16  1  0
 15 17  1  0
 15 18  1  0
 11 19  1  0
 19 20  2  0
 20  2  1  0
 19  5  1  0
  1 21  1  0
  1 22  1  0
  1 23  1  0
  3 24  1  0
  4 25  1  0
  6 26  1  0
  9 27  1  0
  9 28  1  0
 16 29  1  0
 16 30  1  0
 16 31  1  0
 17 32  1  0
 17 33  1  0
 17 34  1  0
 18 35  1  0
 18 36  1  0
 18 37  1  0
 20 38  1  0
M  END
>  <UniqueID>  (51) 
50

>  <SMILES>  (51) 
Cc1ccc2cc(C(N)=O)n(C(=O)OC(C)(C)C)c2c1

>  <Energy>  (51) 
71.51373631560188

>  <Genealogy>  (51) 
Cc1ccc2cc(C(N)=O)n(C(=O)OC(C)(C)C)c2c1 (3D coordinates assigned)
Cc1ccc2cc(C(N)=O)n(C(=O)OC(C)(C)C)c2c1 (optimized conformer: 71.51373631560188 kcal/mol)

>  <smiles>  (51) 
Cc1ccc2cc(C(N)=O)n(C(=O)OC(C)(C)C)c2c1

>  <score_type>  (51) 
oracle

>  <origin>  (51) 
adg

>  <m_score__min__energy>  (51) 
-8.6099999999999994

>  <m_primary>  (51) 
energy

$$$$
51:0
     RDKit          3D

 48 49  0  0  0  0  0  0  0  0999 V2000
   -6.1090   17.0850  -31.5890 C   0  0  0  0  0  0  0  0  0  0  0  0
   -6.8320   17.2780  -32.9190 C   0  0  0  0  0  0  0  0  0  0  0  0
   -6.4100   18.5310  -33.5690 N   0  0  0  0  0  0  0  0  0  0  0  0
   -5.7480   18.4190  -34.8790 C   0  0  0  0  0  0  0  0  0  0  0  0
   -4.3730   17.7700  -34.7400 C   0  0  0  0  0  0  0  0  0  0  0  0
   -6.6330   19.8270  -32.9360 C   0  0  0  0  0  0  0  0  0  0  0  0
   -7.9540   20.3070  -32.6890 C   0  0  0  0  0  0  0  0  0  0  0  0
   -8.1760   21.5520  -32.0780 C   0  0  0  0  0  0  0  0  0  0  0  0
   -7.0710   22.3110  -31.7220 C   0  0  0  0  0  0  0  0  0  0  0  0
   -7.0040   23.5330  -31.0940 C   0  0  0  0  0  0  0  0  0  0  0  0
   -5.6440   23.8130  -30.9790 C   0  0  0  0  0  0  0  0  0  0  0  0
   -5.1180   25.0800  -30.4320 C   0  0  0  0  0  0  0  0  0  0  0  0
   -3.8760   25.6120  -30.8830 N   0  0  0  0  0  0  0  0  0  0  0  0
   -5.8030   25.7300  -29.5970 O   0  0  0  0  0  0  0  0  0  0  0  0
   -4.9030   22.7990  -31.5060 N   0  0  0  0  0  0  0  0  0  0  0  0
   -3.4720   22.6650  -31.4960 C   0  0  0  0  0  0  0  0  0  0  0  0
   -2.8920   22.1020  -32.4610 O   0  0  0  0  0  0  0  0  0  0  0  0
   -2.7420   23.1560  -30.4030 O   0  0  0  0  0  0  0  0  0  0  0  0
   -2.6200   22.5340  -29.1150 C   0  0  0  0  0  0  0  0  0  0  0  0
   -3.7720   22.9640  -28.1850 C   0  0  0  0  0  0  0  0  0  0  0  0
   -1.2570   22.8750  -28.4840 C   0  0  0  0  0  0  0  0  0  0  0  0
   -2.7030   21.0160  -29.3360 C   0  0  0  0  0  0  0  0  0  0  0  0
   -5.7930   21.8890  -31.9580 C   0  0  0  0  0  0  0  0  0  0  0  0
   -5.5380   20.6460  -32.5470 C   0  0  0  0  0  0  0  0  0  0  0  0
   -6.8086   17.2717  -30.7609 H   0  0  0  0  0  0  0  0  0  0  0  0
   -5.7303   16.0543  -31.5237 H   0  0  0  0  0  0  0  0  0  0  0  0
   -5.2670   17.7898  -31.5237 H   0  0  0  0  0  0  0  0  0  0  0  0
   -6.5987   16.4319  -33.5820 H   0  0  0  0  0  0  0  0  0  0  0  0
   -7.9140   17.3283  -32.7271 H   0  0  0  0  0  0  0  0  0  0  0  0
   -6.3706   17.8046  -35.5460 H   0  0  0  0  0  0  0  0  0  0  0  0
   -5.6198   19.4288  -35.2959 H   0  0  0  0  0  0  0  0  0  0  0  0
   -4.1282   17.6544  -33.6738 H   0  0  0  0  0  0  0  0  0  0  0  0
   -4.3835   16.7818  -35.2230 H   0  0  0  0  0  0  0  0  0  0  0  0
   -3.6167   18.4062  -35.2230 H   0  0  0  0  0  0  0  0  0  0  0  0
   -8.8156   19.6896  -32.9830 H   0  0  0  0  0  0  0  0  0  0  0  0
   -9.1968   21.9147  -31.8873 H   0  0  0  0  0  0  0  0  0  0  0  0
   -7.8447   24.1561  -30.7550 H   0  0  0  0  0  0  0  0  0  0  0  0
   -2.9720   25.2970  -30.4620 H   0  0  0  0  0  0  0  0  0  0  0  0
   -3.4599   22.8475  -27.1367 H   0  0  0  0  0  0  0  0  0  0  0  0
   -4.0250   24.0171  -28.3774 H   0  0  0  0  0  0  0  0  0  0  0  0
   -4.6531   22.3342  -28.3774 H   0  0  0  0  0  0  0  0  0  0  0  0
   -1.3447   22.8531  -27.3877 H   0  0  0  0  0  0  0  0  0  0  0  0
   -0.5084   22.1364  -28.8068 H   0  0  0  0  0  0  0  0  0  0  0  0
   -0.9444   23.8790  -28.8068 H   0  0  0  0  0  0  0  0  0  0  0  0
   -2.7310   20.5047  -28.3624 H   0  0  0  0  0  0  0  0  0  0  0  0
   -3.6155   20.7772  -29.9019 H   0  0  0  0  0  0  0  0  0  0  0  0
   -1.8219   20.6791  -29.9019 H   0  0  0  0  0  0  0  0  0  0  0  0
   -4.5039   20.3068  -32.7070 H   0  0  0  0  0  0  0  0  0  0  0  0
  1  2  1  0
  2  3  1  0
  3  4  1  0
  4  5  1  0
  3  6  1  0
  6  7  2  0
  7  8  1  0
  8  9  2  0
  9 10  1  0
 10 11  2  0
 11 12  1  0
 12 13  1  0
 12 14  2  0
 11 15  1  0
 15 16  1  0
 16 17  2  0
 16 18  1  0
 18 19  1  0
 19 20  1  0
 19 21  1  0
 19 22  1  0
 15 23  1  0
 23 24  2  0
 24  6  1  0
 23  9  1  0
  1 25  1  0
  1 26  1  0
  1 27  1  0
  2 28  1  0
  2 29  1  0
  4 30  1  0
  4 31  1  0
  5 32  1  0
  5 33  1  0
  5 34  1  0
  7 35  1  0
  8 36  1  0
 10 37  1  0
 13 38  1  0
 20 39  1  0
 20 40  1  0
 20 41  1  0
 21 42  1  0
 21 43  1  0
 21 44  1  0
 22 45  1  0
 22 46  1  0
 22 47  1  0
 24 48  1  0
M  CHG  1  13  -1
M  END
>  <UniqueID>  (52) 
51

>  <SMILES>  (52) 
CCN(CC)c1ccc2cc(C([NH-])=O)n(C(=O)OC(C)(C)C)c2c1

>  <Energy>  (52) 
80.41444813650429

>  <Genealogy>  (52) 
CCN(CC)c1ccc2cc(C([NH-])=O)n(C(=O)OC(C)(C)C)c2c1 (protonated)
CCN(CC)c1ccc2cc(C([NH-])=O)n(C(=O)OC(C)(C)C)c2c1 (3D coordinates assigned)
CCN(CC)c1ccc2cc(C([NH-])=O)n(C(=O)OC(C)(C)C)c2c1 (optimized conformer: 80.41444813650429 kcal/mol)

>  <smiles>  (52) 
CCN(CC)c1ccc2cc(C(N)=O)n(C(=O)OC(C)(C)C)c2c1

>  <score_type>  (52) 
oracle

>  <origin>  (52) 
adg

>  <m_score__min__energy>  (52) 
-10.25

>  <m_primary>  (52) 
energy

$$$$
52:0
     RDKit          3D

 51 53  0  0  0  0  0  0  0  0999 V2000
   -3.8160   23.5220  -27.9810 C   0  0  0  0  0  0  0  0  0  0  0  0
   -3.0900   22.5160  -28.8620 C   0  0  0  0  0  0  0  0  0  0  0  0
   -2.8670   23.0720  -30.1530 O   0  0  0  0  0  0  0  0  0  0  0  0
   -3.5700   22.6680  -31.2820 C   0  0  0  0  0  0  0  0  0  0  0  0
   -2.9450   22.1860  -32.2720 O   0  0  0  0  0  0  0  0  0  0  0  0
   -5.0020   22.8230  -31.3450 N   0  0  0  0  0  0  0  0  0  0  0  0
   -5.7490   23.9100  -30.9820 C   0  0  0  0  0  0  0  0  0  0  0  0
   -5.2380   25.2100  -30.5140 C   0  0  0  0  0  0  0  0  0  0  0  0
   -3.9280   25.6500  -30.8520 N   0  0  0  0  0  0  0  0  0  0  0  0
   -6.0140   25.9970  -29.9080 O   0  0  0  0  0  0  0  0  0  0  0  0
   -7.1080   23.6110  -31.0270 C   0  0  0  0  0  0  0  0  0  0  0  0
   -7.1850   22.3120  -31.4650 C   0  0  0  0  0  0  0  0  0  0  0  0
   -8.2970   21.5170  -31.6960 C   0  0  0  0  0  0  0  0  0  0  0  0
   -8.0900   20.2080  -32.1600 C   0  0  0  0  0  0  0  0  0  0  0  0
   -6.7770   19.7140  -32.3730 C   0  0  0  0  0  0  0  0  0  0  0  0
   -6.5750   18.3830  -32.8890 N   0  0  0  0  0  0  0  0  0  0  0  0
   -6.7600   17.2030  -32.0290 C   0  0  0  0  0  0  0  0  0  0  0  0
   -5.5070   16.3160  -32.0550 C   0  0  0  0  0  0  0  0  0  0  0  0
   -4.9170   16.1260  -33.4880 C   0  0  0  0  0  0  0  0  0  0  0  0
   -4.5390   14.7080  -33.7400 N   0  0  0  0  0  0  0  0  0  0  0  0
   -5.6510   13.9240  -34.3110 C   0  0  0  0  0  0  0  0  0  0  0  0
   -3.9700   14.0060  -32.5740 C   0  0  0  0  0  0  0  0  0  0  0  0
   -5.8210   16.7380  -34.5880 C   0  0  0  0  0  0  0  0  0  0  0  0
   -6.1020   18.2130  -34.2700 C   0  0  0  0  0  0  0  0  0  0  0  0
   -5.6660   20.5530  -32.1140 C   0  0  0  0  0  0  0  0  0  0  0  0
   -5.9030   21.8550  -31.6470 C   0  0  0  0  0  0  0  0  0  0  0  0
   -3.6396   23.2775  -26.9231 H   0  0  0  0  0  0  0  0  0  0  0  0
   -3.4383   24.5335  -28.1915 H   0  0  0  0  0  0  0  0  0  0  0  0
   -4.8949   23.4823  -28.1915 H   0  0  0  0  0  0  0  0  0  0  0  0
   -2.1233   22.2608  -28.4033 H   0  0  0  0  0  0  0  0  0  0  0  0
   -3.7067   21.6105  -28.9602 H   0  0  0  0  0  0  0  0  0  0  0  0
   -3.0870   25.2220  -30.4020 H   0  0  0  0  0  0  0  0  0  0  0  0
   -7.9446   24.2760  -30.7663 H   0  0  0  0  0  0  0  0  0  0  0  0
   -9.3128   21.9008  -31.5207 H   0  0  0  0  0  0  0  0  0  0  0  0
   -8.9549   19.5586  -32.3605 H   0  0  0  0  0  0  0  0  0  0  0  0
   -6.9481   17.5334  -30.9968 H   0  0  0  0  0  0  0  0  0  0  0  0
   -7.6153   16.6211  -32.4031 H   0  0  0  0  0  0  0  0  0  0  0  0
   -4.7380   16.7786  -31.4189 H   0  0  0  0  0  0  0  0  0  0  0  0
   -5.8029   15.3218  -31.6891 H   0  0  0  0  0  0  0  0  0  0  0  0
   -3.9815   16.7023  -33.5393 H   0  0  0  0  0  0  0  0  0  0  0  0
   -6.2553   13.4979  -33.4966 H   0  0  0  0  0  0  0  0  0  0  0  0
   -6.2809   14.5789  -34.9310 H   0  0  0  0  0  0  0  0  0  0  0  0
   -5.2458   13.1108  -34.9310 H   0  0  0  0  0  0  0  0  0  0  0  0
   -4.3447   14.4683  -31.6489 H   0  0  0  0  0  0  0  0  0  0  0  0
   -4.2682   12.9476  -32.6018 H   0  0  0  0  0  0  0  0  0  0  0  0
   -2.8728   14.0786  -32.6018 H   0  0  0  0  0  0  0  0  0  0  0  0
   -5.3127   16.6647  -35.5608 H   0  0  0  0  0  0  0  0  0  0  0  0
   -6.7723   16.1869  -34.6240 H   0  0  0  0  0  0  0  0  0  0  0  0
   -5.1758   18.7909  -34.4048 H   0  0  0  0  0  0  0  0  0  0  0  0
   -6.8878   18.5705  -34.9516 H   0  0  0  0  0  0  0  0  0  0  0  0
   -4.6395   20.1920  -32.2754 H   0  0  0  0  0  0  0  0  0  0  0  0
  1  2  1  0
  2  3  1  0
  3  4  1  0
  4  5  2  0
  4  6  1  0
  6  7  1  0
  7  8  1  0
  8  9  1  0
  8 10  2  0
  7 11  2  0
 11 12  1  0
 12 13  2  0
 13 14  1  0
 14 15  2  0
 15 16  1  0
 16 17  1  0
 17 18  1  0
 18 19  1  0
 19 20  1  0
 20 21  1  0
 20 22  1  0
 19 23  1  0
 23 24  1  0
 15 25  1  0
 25 26  2  0
 26  6  1  0
 26 12  1  0
 24 16  1  0
  1 27  1  0
  1 28  1  0
  1 29  1  0
  2 30  1  0
  2 31  1  0
  9 32  1  0
 11 33  1  0
 13 34  1  0
 14 35  1  0
 17 36  1  0
 17 37  1  0
 18 38  1  0
 18 39  1  0
 19 40  1  0
 21 41  1  0
 21 42  1  0
 21 43  1  0
 22 44  1  0
 22 45  1  0
 22 46  1  0
 23 47  1  0
 23 48  1  0
 24 49  1  0
 24 50  1  0
 25 51  1  0
M  CHG  1   9  -1
M  END
>  <UniqueID>  (53) 
52

>  <SMILES>  (53) 
CCOC(=O)n1c(C([NH-])=O)cc2ccc(N3CCC(N(C)C)CC3)cc21

>  <Energy>  (53) 
101.97336187901331

>  <Genealogy>  (53) 
CCOC(=O)n1c(C([NH-])=O)cc2ccc(N3CCC(N(C)C)CC3)cc21 (protonated)
CCOC(=O)n1c(C([NH-])=O)cc2ccc(N3CCC(N(C)C)CC3)cc21 (3D coordinates assigned)
CCOC(=O)n1c(C([NH-])=O)cc2ccc(N3CCC(N(C)C)CC3)cc21 (nonaromatic ring conformer: 101.97336187901331 kcal/mol)

>  <smiles>  (53) 
CCOC(=O)n1c(C(N)=O)cc2ccc(N3CCC(N(C)C)CC3)cc21

>  <score_type>  (53) 
oracle

>  <origin>  (53) 
adg

>  <m_score__min__energy>  (53) 
-10.65

>  <m_primary>  (53) 
energy

$$$$
53:0
     RDKit          3D

 46 49  0  0  0  0  0  0  0  0999 V2000
   -3.0740   21.1970  -28.8900 C   0  0  0  0  0  0  0  0  0  0  0  0
   -2.6550   22.6790  -28.8930 C   0  0  0  0  0  0  0  0  0  0  0  0
   -1.2530   22.8490  -28.2780 C   0  0  0  0  0  0  0  0  0  0  0  0
   -3.6640   23.4810  -28.0580 C   0  0  0  0  0  0  0  0  0  0  0  0
   -2.6890   23.2130  -30.2250 O   0  0  0  0  0  0  0  0  0  0  0  0
   -3.4280   22.7080  -31.3050 C   0  0  0  0  0  0  0  0  0  0  0  0
   -2.8500   22.2290  -32.3170 O   0  0  0  0  0  0  0  0  0  0  0  0
   -4.8630   22.7600  -31.2650 N   0  0  0  0  0  0  0  0  0  0  0  0
   -5.6480   23.8390  -30.9820 C   0  0  0  0  0  0  0  0  0  0  0  0
   -5.1790   25.1460  -30.4800 C   0  0  0  0  0  0  0  0  0  0  0  0
   -3.8970   25.6530  -30.8420 N   0  0  0  0  0  0  0  0  0  0  0  0
   -5.8990   25.8030  -29.6810 O   0  0  0  0  0  0  0  0  0  0  0  0
   -6.9930   23.5220  -31.1540 C   0  0  0  0  0  0  0  0  0  0  0  0
   -7.0110   22.2040  -31.5490 C   0  0  0  0  0  0  0  0  0  0  0  0
   -8.0840   21.3810  -31.8730 C   0  0  0  0  0  0  0  0  0  0  0  0
   -7.8070   20.0680  -32.2840 C   0  0  0  0  0  0  0  0  0  0  0  0
   -6.4690   19.5990  -32.3730 C   0  0  0  0  0  0  0  0  0  0  0  0
   -6.1860   18.2120  -32.8210 C   0  0  0  0  0  0  0  0  0  0  0  0
   -6.4750   17.8170  -34.1520 C   0  0  0  0  0  0  0  0  0  0  0  0
   -6.2100   16.5080  -34.5850 C   0  0  0  0  0  0  0  0  0  0  0  0
   -5.6590   15.6150  -33.6740 C   0  0  0  0  0  0  0  0  0  0  0  0
   -5.2410   14.0060  -33.9000 S   0  0  0  0  0  0  0  0  0  0  0  0
   -4.7020   13.8400  -32.3030 C   0  0  0  0  0  0  0  0  0  0  0  0
   -4.8360   14.9920  -31.6020 N   0  0  0  0  0  0  0  0  0  0  0  0
   -5.3690   15.9760  -32.3710 C   0  0  0  0  0  0  0  0  0  0  0  0
   -5.6260   17.2730  -31.9250 C   0  0  0  0  0  0  0  0  0  0  0  0
   -5.4060   20.4700  -32.0340 C   0  0  0  0  0  0  0  0  0  0  0  0
   -5.7130   21.7670  -31.6090 C   0  0  0  0  0  0  0  0  0  0  0  0
   -3.1732   20.8461  -27.8522 H   0  0  0  0  0  0  0  0  0  0  0  0
   -4.0383   21.0875  -29.4078 H   0  0  0  0  0  0  0  0  0  0  0  0
   -2.3098   20.5988  -29.4078 H   0  0  0  0  0  0  0  0  0  0  0  0
   -1.3303   22.8396  -27.1808 H   0  0  0  0  0  0  0  0  0  0  0  0
   -0.6056   22.0228  -28.6070 H   0  0  0  0  0  0  0  0  0  0  0  0
   -0.8219   23.8060  -28.6070 H   0  0  0  0  0  0  0  0  0  0  0  0
   -3.4635   23.3216  -26.9882 H   0  0  0  0  0  0  0  0  0  0  0  0
   -3.5668   24.5510  -28.2938 H   0  0  0  0  0  0  0  0  0  0  0  0
   -4.6845   23.1448  -28.2938 H   0  0  0  0  0  0  0  0  0  0  0  0
   -3.0270   25.2830  -30.3970 H   0  0  0  0  0  0  0  0  0  0  0  0
   -7.8581   24.1850  -31.0055 H   0  0  0  0  0  0  0  0  0  0  0  0
   -9.1190   21.7481  -31.8091 H   0  0  0  0  0  0  0  0  0  0  0  0
   -8.6369   19.3931  -32.5406 H   0  0  0  0  0  0  0  0  0  0  0  0
   -6.9115   18.5440  -34.8527 H   0  0  0  0  0  0  0  0  0  0  0  0
   -6.4324   16.1979  -35.6167 H   0  0  0  0  0  0  0  0  0  0  0  0
   -4.2923   12.9087  -31.8849 H   0  0  0  0  0  0  0  0  0  0  0  0
   -5.3956   17.5612  -30.8887 H   0  0  0  0  0  0  0  0  0  0  0  0
   -4.3608   20.1342  -32.1033 H   0  0  0  0  0  0  0  0  0  0  0  0
  1  2  1  0
  2  3  1  0
  2  4  1  0
  2  5  1  0
  5  6  1  0
  6  7  2  0
  6  8  1  0
  8  9  1  0
  9 10  1  0
 10 11  1  0
 10 12  2  0
  9 13  2  0
 13 14  1  0
 14 15  2  0
 15 16  1  0
 16 17  2  0
 17 18  1  0
 18 19  2  0
 19 20  1  0
 20 21  2  0
 21 22  1  0
 22 23  1  0
 23 24  2  0
 24 25  1  0
 25 26  2  0
 17 27  1  0
 27 28  2  0
 28  8  1  0
 28 14  1  0
 26 18  1  0
 25 21  1  0
  1 29  1  0
  1 30  1  0
  1 31  1  0
  3 32  1  0
  3 33  1  0
  3 34  1  0
  4 35  1  0
  4 36  1  0
  4 37  1  0
 11 38  1  0
 13 39  1  0
 15 40  1  0
 16 41  1  0
 19 42  1  0
 20 43  1  0
 23 44  1  0
 26 45  1  0
 27 46  1  0
M  CHG  1  11  -1
M  END
>  <UniqueID>  (54) 
53

>  <SMILES>  (54) 
CC(C)(C)OC(=O)n1c(C([NH-])=O)cc2ccc(-c3ccc4scnc4c3)cc21

>  <Energy>  (54) 
124.02403082175802

>  <Genealogy>  (54) 
CC(C)(C)OC(=O)n1c(C([NH-])=O)cc2ccc(-c3ccc4scnc4c3)cc21 (protonated)
CC(C)(C)OC(=O)n1c(C([NH-])=O)cc2ccc(-c3ccc4scnc4c3)cc21 (3D coordinates assigned)
CC(C)(C)OC(=O)n1c(C([NH-])=O)cc2ccc(-c3ccc4scnc4c3)cc21 (optimized conformer: 124.02403082175802 kcal/mol)

>  <smiles>  (54) 
CC(C)(C)OC(=O)n1c(C(N)=O)cc2ccc(-c3ccc4scnc4c3)cc21

>  <score_type>  (54) 
oracle

>  <origin>  (54) 
adg

>  <m_score__min__energy>  (54) 
-11.49

>  <m_primary>  (54) 
energy

$$$$
54:0
     RDKit          3D

 40 42  0  0  0  0  0  0  0  0999 V2000
   -4.2410   25.5610  -30.8210 N   0  0  0  0  0  0  0  0  0  0  0  0
   -4.0930   24.4540  -29.9350 C   0  0  0  0  0  0  0  0  0  0  0  0
   -4.8710   24.3400  -28.9500 O   0  0  0  0  0  0  0  0  0  0  0  0
   -3.0740   23.4660  -30.1680 N   0  0  0  0  0  0  0  0  0  0  0  0
   -1.7940   23.4740  -29.7000 C   0  0  0  0  0  0  0  0  0  0  0  0
   -1.2330   24.4340  -28.7280 C   0  0  0  0  0  0  0  0  0  0  0  0
   -2.0730   25.3590  -28.0330 N   0  0  0  0  0  0  0  0  0  0  0  0
   -0.0010   24.4020  -28.4650 O   0  0  0  0  0  0  0  0  0  0  0  0
   -1.0660   22.4150  -30.2370 C   0  0  0  0  0  0  0  0  0  0  0  0
   -1.9500   21.7420  -31.0480 C   0  0  0  0  0  0  0  0  0  0  0  0
   -1.7520   20.6190  -31.8470 C   0  0  0  0  0  0  0  0  0  0  0  0
   -2.8310   20.1630  -32.6220 C   0  0  0  0  0  0  0  0  0  0  0  0
   -4.0770   20.8350  -32.5890 C   0  0  0  0  0  0  0  0  0  0  0  0
   -5.2070   20.3640  -33.4680 C   0  0  0  0  0  0  0  0  0  0  0  0
   -6.3690   19.8790  -32.6400 C   0  0  0  0  0  0  0  0  0  0  0  0
   -6.5250   18.6380  -32.4690 O   0  0  0  0  0  0  0  0  0  0  0  0
   -7.3350   20.7940  -32.0890 N   0  0  0  0  0  0  0  0  0  0  0  0
   -8.4310   20.3590  -31.2400 C   0  0  0  0  0  0  0  0  0  0  0  0
   -9.1450   21.6330  -30.8000 C   0  0  0  0  0  0  0  0  0  0  0  0
   -8.6700   22.7290  -31.7500 C   0  0  0  0  0  0  0  0  0  0  0  0
   -7.3660   22.2240  -32.3560 C   0  0  0  0  0  0  0  0  0  0  0  0
   -4.2390   21.9790  -31.7750 C   0  0  0  0  0  0  0  0  0  0  0  0
   -3.1550   22.3970  -30.9930 C   0  0  0  0  0  0  0  0  0  0  0  0
   -4.5650   26.4890  -30.4710 H   0  0  0  0  0  0  0  0  0  0  0  0
   -3.1120   25.2980  -28.0990 H   0  0  0  0  0  0  0  0  0  0  0  0
   -1.6530   26.0600  -27.3820 H   0  0  0  0  0  0  0  0  0  0  0  0
   -0.0099   22.1693  -30.0521 H   0  0  0  0  0  0  0  0  0  0  0  0
   -0.7800   20.1045  -31.8706 H   0  0  0  0  0  0  0  0  0  0  0  0
   -2.7070   19.2758  -33.2604 H   0  0  0  0  0  0  0  0  0  0  0  0
   -5.5408   21.1981  -34.1026 H   0  0  0  0  0  0  0  0  0  0  0  0
   -4.8453   19.5297  -34.0870 H   0  0  0  0  0  0  0  0  0  0  0  0
   -9.1176   19.7098  -31.8031 H   0  0  0  0  0  0  0  0  0  0  0  0
   -8.0704   19.7782  -30.3783 H   0  0  0  0  0  0  0  0  0  0  0  0
  -10.2350   21.5065  -30.8765 H   0  0  0  0  0  0  0  0  0  0  0  0
   -8.9189   21.8811  -29.7524 H   0  0  0  0  0  0  0  0  0  0  0  0
   -9.4168   22.9008  -32.5391 H   0  0  0  0  0  0  0  0  0  0  0  0
   -8.5262   23.6840  -31.2234 H   0  0  0  0  0  0  0  0  0  0  0  0
   -7.3486   22.4122  -33.4396 H   0  0  0  0  0  0  0  0  0  0  0  0
   -6.4931   22.7363  -31.9251 H   0  0  0  0  0  0  0  0  0  0  0  0
   -5.1925   22.5272  -31.7562 H   0  0  0  0  0  0  0  0  0  0  0  0
  1  2  1  0
  2  3  2  0
  2  4  1  0
  4  5  1  0
  5  6  1  0
  6  7  1  0
  6  8  2  0
  5  9  2  0
  9 10  1  0
 10 11  2  0
 11 12  1  0
 12 13  2  0
 13 14  1  0
 14 15  1  0
 15 16  2  0
 15 17  1  0
 17 18  1  0
 18 19  1  0
 19 20  1  0
 20 21  1  0
 13 22  1  0
 22 23  2  0
 23  4  1  0
 23 10  1  0
 21 17  1  0
  1 24  1  0
  7 25  1  0
  7 26  1  0
  9 27  1  0
 11 28  1  0
 12 29  1  0
 14 30  1  0
 14 31  1  0
 18 32  1  0
 18 33  1  0
 19 34  1  0
 19 35  1  0
 20 36  1  0
 20 37  1  0
 21 38  1  0
 21 39  1  0
 22 40  1  0
M  CHG  1   1  -1
M  END
>  <UniqueID>  (55) 
54

>  <SMILES>  (55) 
[NH-]C(=O)n1c(C(N)=O)cc2ccc(CC(=O)N3CCCC3)cc21

>  <Energy>  (55) 
79.25394112336429

>  <Genealogy>  (55) 
[NH-]C(=O)n1c(C(N)=O)cc2ccc(CC(=O)N3CCCC3)cc21 (protonated)
[NH-]C(=O)n1c(C(N)=O)cc2ccc(CC(=O)N3CCCC3)cc21 (3D coordinates assigned)
[NH-]C(=O)n1c(C(N)=O)cc2ccc(CC(=O)N3CCCC3)cc21 (nonaromatic ring conformer: 79.25394112336429 kcal/mol)

>  <smiles>  (55) 
NC(=O)c1cc2ccc(CC(=O)N3CCCC3)cc2n1C(N)=O

>  <score_type>  (55) 
oracle

>  <origin>  (55) 
adg

>  <m_score__min__energy>  (55) 
-9.5800000000000001

>  <m_primary>  (55) 
energy

$$$$
55:0
     RDKit          3D

 63 65  0  0  0  0  0  0  0  0999 V2000
   -0.6200   23.8940  -27.5960 C   0  0  0  0  0  0  0  0  0  0  0  0
   -1.5470   25.1160  -27.6880 C   0  0  0  0  0  0  0  0  0  0  0  0
   -2.7640   24.8920  -26.7710 C   0  0  0  0  0  0  0  0  0  0  0  0
   -0.7650   26.3690  -27.2520 C   0  0  0  0  0  0  0  0  0  0  0  0
   -1.9590   25.2320  -29.0580 O   0  0  0  0  0  0  0  0  0  0  0  0
   -3.0500   24.5870  -29.6580 C   0  0  0  0  0  0  0  0  0  0  0  0
   -3.3170   23.3850  -29.4020 O   0  0  0  0  0  0  0  0  0  0  0  0
   -3.8690   25.2970  -30.5900 N   0  0  0  0  0  0  0  0  0  0  0  0
   -5.2060   24.8440  -30.9640 C   0  0  2  0  0  0  0  0  0  0  0  0
   -6.1450   24.8070  -29.7590 C   0  0  0  0  0  0  0  0  0  0  0  0
   -7.0590   23.6140  -30.0000 C   0  0  0  0  0  0  0  0  0  0  0  0
   -6.3730   22.7770  -30.9750 N   0  0  0  0  0  0  0  0  0  0  0  0
   -6.8420   21.4750  -31.3960 C   0  0  0  0  0  0  0  0  0  0  0  0
   -8.2100   21.1130  -31.2420 C   0  0  0  0  0  0  0  0  0  0  0  0
   -8.6730   19.8510  -31.6450 C   0  0  0  0  0  0  0  0  0  0  0  0
   -7.7600   18.9720  -32.2150 C   0  0  0  0  0  0  0  0  0  0  0  0
   -7.9390   17.6850  -32.6710 C   0  0  0  0  0  0  0  0  0  0  0  0
   -6.6880   17.2840  -33.1330 C   0  0  0  0  0  0  0  0  0  0  0  0
   -6.4370   15.9760  -33.7690 C   0  0  0  0  0  0  0  0  0  0  0  0
   -5.2740   15.2100  -33.4470 N   0  0  0  0  0  0  0  0  0  0  0  0
   -7.2350   15.5500  -34.6430 O   0  0  0  0  0  0  0  0  0  0  0  0
   -5.7690   18.2740  -32.9550 N   0  0  0  0  0  0  0  0  0  0  0  0
   -4.3580   18.2160  -33.2170 C   0  0  0  0  0  0  0  0  0  0  0  0
   -3.6910   17.2180  -32.8320 O   0  0  0  0  0  0  0  0  0  0  0  0
   -3.7400   19.2740  -33.9010 O   0  0  0  0  0  0  0  0  0  0  0  0
   -2.8110   20.2180  -33.3500 C   0  0  0  0  0  0  0  0  0  0  0  0
   -1.5280   20.1310  -34.1900 C   0  0  0  0  0  0  0  0  0  0  0  0
   -3.3720   21.6500  -33.4450 C   0  0  0  0  0  0  0  0  0  0  0  0
   -2.4780   19.8610  -31.8900 C   0  0  0  0  0  0  0  0  0  0  0  0
   -6.4430   19.3030  -32.3950 C   0  0  0  0  0  0  0  0  0  0  0  0
   -5.9450   20.5410  -31.9720 C   0  0  0  0  0  0  0  0  0  0  0  0
   -5.1710   23.4170  -31.4940 C   0  0  0  0  0  0  0  0  0  0  0  0
   -0.4363   23.6519  -26.5388 H   0  0  0  0  0  0  0  0  0  0  0  0
   -1.0956   23.0348  -28.0917 H   0  0  0  0  0  0  0  0  0  0  0  0
    0.3355   24.1205  -28.0917 H   0  0  0  0  0  0  0  0  0  0  0  0
   -2.4465   24.9504  -25.7195 H   0  0  0  0  0  0  0  0  0  0  0  0
   -3.5199   25.6661  -26.9693 H   0  0  0  0  0  0  0  0  0  0  0  0
   -3.1948   23.8995  -26.9693 H   0  0  0  0  0  0  0  0  0  0  0  0
   -0.7343   26.4182  -26.1535 H   0  0  0  0  0  0  0  0  0  0  0  0
    0.2609   26.3164  -27.6455 H   0  0  0  0  0  0  0  0  0  0  0  0
   -1.2630   27.2674  -27.6455 H   0  0  0  0  0  0  0  0  0  0  0  0
   -5.5599   25.5553  -31.7248 H   0  0  0  0  0  0  0  0  0  0  0  0
   -5.5734   24.6730  -28.8288 H   0  0  0  0  0  0  0  0  0  0  0  0
   -6.7120   25.7435  -29.6514 H   0  0  0  0  0  0  0  0  0  0  0  0
   -7.2186   23.0588  -29.0639 H   0  0  0  0  0  0  0  0  0  0  0  0
   -8.0482   23.9296  -30.3631 H   0  0  0  0  0  0  0  0  0  0  0  0
   -8.9147   21.8331  -30.8006 H   0  0  0  0  0  0  0  0  0  0  0  0
   -9.7273   19.5661  -31.5136 H   0  0  0  0  0  0  0  0  0  0  0  0
   -8.8702   17.0994  -32.6704 H   0  0  0  0  0  0  0  0  0  0  0  0
   -5.1400   14.2620  -33.8640 H   0  0  0  0  0  0  0  0  0  0  0  0
   -4.5180   15.6050  -32.8470 H   0  0  0  0  0  0  0  0  0  0  0  0
   -0.6559   20.0719  -33.5223 H   0  0  0  0  0  0  0  0  0  0  0  0
   -1.5654   19.2333  -34.8247 H   0  0  0  0  0  0  0  0  0  0  0  0
   -1.4439   21.0255  -34.8247 H   0  0  0  0  0  0  0  0  0  0  0  0
   -3.5288   22.0503  -32.4325 H   0  0  0  0  0  0  0  0  0  0  0  0
   -2.6576   22.2886  -33.9852 H   0  0  0  0  0  0  0  0  0  0  0  0
   -4.3301   21.6334  -33.9852 H   0  0  0  0  0  0  0  0  0  0  0  0
   -3.0696   20.4952  -31.2134 H   0  0  0  0  0  0  0  0  0  0  0  0
   -2.7200   18.8037  -31.7067 H   0  0  0  0  0  0  0  0  0  0  0  0
   -1.4065   20.0290  -31.7067 H   0  0  0  0  0  0  0  0  0  0  0  0
   -4.8781   20.7842  -32.0845 H   0  0  0  0  0  0  0  0  0  0  0  0
   -4.2721   22.8954  -31.1336 H   0  0  0  0  0  0  0  0  0  0  0  0
   -5.1384   23.3916  -32.5932 H   0  0  0  0  0  0  0  0  0  0  0  0
  1  2  1  0
  2  3  1  0
  2  4  1  0
  2  5  1  0
  5  6  1  0
  6  7  2  0
  6  8  1  0
  8  9  1  0
  9 10  1  0
 10 11  1  0
 11 12  1  0
 12 13  1  0
 13 14  2  0
 14 15  1  0
 15 16  2  0
 16 17  1  0
 17 18  2  0
 18 19  1  0
 19 20  1  0
 19 21  2  0
 18 22  1  0
 22 23  1  0
 23 24  2  0
 23 25  1  0
 25 26  1  0
 26 27  1  0
 26 28  1  0
 26 29  1  0
 22 30  1  0
 30 31  2  0
 12 32  1  0
 32  9  1  0
 31 13  1  0
 30 16  1  0
  1 33  1  0
  1 34  1  0
  1 35  1  0
  3 36  1  0
  3 37  1  0
  3 38  1  0
  4 39  1  0
  4 40  1  0
  4 41  1  0
  9 42  1  6
 10 43  1  0
 10 44  1  0
 11 45  1  0
 11 46  1  0
 14 47  1  0
 15 48  1  0
 17 49  1  0
 20 50  1  0
 20 51  1  0
 27 52  1  0
 27 53  1  0
 27 54  1  0
 28 55  1  0
 28 56  1  0
 28 57  1  0
 29 58  1  0
 29 59  1  0
 29 60  1  0
 31 61  1  0
 32 62  1  0
 32 63  1  0
M  CHG  1   8  -1
M  END
>  <UniqueID>  (56) 
55

>  <SMILES>  (56) 
CC(C)(C)OC(=O)[N-][C@@H]1CCN(c2ccc3cc(C(N)=O)n(C(=O)OC(C)(C)C)c3c2)C1

>  <Energy>  (56) 
92.04648374556557

>  <Genealogy>  (56) 
CC(C)(C)OC(=O)[N-][C@@H]1CCN(c2ccc3cc(C(N)=O)n(C(=O)OC(C)(C)C)c3c2)C1 (protonated)
CC(C)(C)OC(=O)[N-][C@@H]1CCN(c2ccc3cc(C(N)=O)n(C(=O)OC(C)(C)C)c3c2)C1 (3D coordinates assigned)
CC(C)(C)OC(=O)[N-][C@@H]1CCN(c2ccc3cc(C(N)=O)n(C(=O)OC(C)(C)C)c3c2)C1 (nonaromatic ring conformer: 92.04648374556557 kcal/mol)

>  <smiles>  (56) 
CC(C)(C)OC(=O)N[C@@H]1CCN(c2ccc3cc(C(N)=O)n(C(=O)OC(C)(C)C)c3c2)C1

>  <score_type>  (56) 
oracle

>  <origin>  (56) 
adg

>  <m_score__min__energy>  (56) 
-11.25

>  <m_primary>  (56) 
energy

$$$$
56:0
     RDKit          3D

 40 42  0  0  0  0  0  0  0  0999 V2000
   -1.2890   22.9190  -28.6050 C   0  0  0  0  0  0  0  0  0  0  0  0
   -2.6650   22.5850  -29.2140 C   0  0  0  0  0  0  0  0  0  0  0  0
   -3.7990   23.0550  -28.2840 C   0  0  0  0  0  0  0  0  0  0  0  0
   -2.7700   21.0640  -29.3970 C   0  0  0  0  0  0  0  0  0  0  0  0
   -2.8010   23.1770  -30.5140 O   0  0  0  0  0  0  0  0  0  0  0  0
   -3.6260   22.7210  -31.5530 C   0  0  0  0  0  0  0  0  0  0  0  0
   -3.1340   22.2200  -32.6000 O   0  0  0  0  0  0  0  0  0  0  0  0
   -5.0520   22.8500  -31.4300 N   0  0  0  0  0  0  0  0  0  0  0  0
   -5.7560   23.9440  -31.0220 C   0  0  0  0  0  0  0  0  0  0  0  0
   -5.1840   25.1790  -30.4470 C   0  0  0  0  0  0  0  0  0  0  0  0
   -3.9110   25.6620  -30.8670 N   0  0  0  0  0  0  0  0  0  0  0  0
   -5.8070   25.7900  -29.5370 O   0  0  0  0  0  0  0  0  0  0  0  0
   -7.1240   23.7180  -31.1460 C   0  0  0  0  0  0  0  0  0  0  0  0
   -7.2400   22.4390  -31.6380 C   0  0  0  0  0  0  0  0  0  0  0  0
   -8.3770   21.7050  -31.9660 C   0  0  0  0  0  0  0  0  0  0  0  0
   -8.2000   20.4140  -32.4900 C   0  0  0  0  0  0  0  0  0  0  0  0
   -6.8990   19.8840  -32.6860 C   0  0  0  0  0  0  0  0  0  0  0  0
   -6.7180   18.5320  -33.2500 C   0  0  0  0  0  0  0  0  0  0  0  0
   -7.2420   17.4130  -32.7040 N   0  0  0  0  0  0  0  0  0  0  0  0
   -6.8300   16.4370  -33.5340 C   0  0  0  0  0  0  0  0  0  0  0  0
   -6.0780   16.9900  -34.5440 C   0  0  0  0  0  0  0  0  0  0  0  0
   -6.0280   18.2830  -34.3410 O   0  0  0  0  0  0  0  0  0  0  0  0
   -5.7690   20.6610  -32.3420 C   0  0  0  0  0  0  0  0  0  0  0  0
   -5.9750   21.9360  -31.8030 C   0  0  0  0  0  0  0  0  0  0  0  0
   -1.3599   22.9018  -27.5074 H   0  0  0  0  0  0  0  0  0  0  0  0
   -0.5507   22.1740  -28.9365 H   0  0  0  0  0  0  0  0  0  0  0  0
   -0.9744   23.9196  -28.9365 H   0  0  0  0  0  0  0  0  0  0  0  0
   -3.4904   22.9271  -27.2359 H   0  0  0  0  0  0  0  0  0  0  0  0
   -4.0144   24.1165  -28.4759 H   0  0  0  0  0  0  0  0  0  0  0  0
   -4.7022   22.4571  -28.4759 H   0  0  0  0  0  0  0  0  0  0  0  0
   -2.8036   20.5775  -28.4110 H   0  0  0  0  0  0  0  0  0  0  0  0
   -3.6868   20.8243  -29.9555 H   0  0  0  0  0  0  0  0  0  0  0  0
   -1.8948   20.7006  -29.9555 H   0  0  0  0  0  0  0  0  0  0  0  0
   -3.0300   25.2980  -30.4390 H   0  0  0  0  0  0  0  0  0  0  0  0
   -7.9395   24.4148  -30.9021 H   0  0  0  0  0  0  0  0  0  0  0  0
   -9.3835   22.1237  -31.8191 H   0  0  0  0  0  0  0  0  0  0  0  0
   -9.0797   19.8074  -32.7512 H   0  0  0  0  0  0  0  0  0  0  0  0
   -7.0585   15.3668  -33.4223 H   0  0  0  0  0  0  0  0  0  0  0  0
   -5.6038   16.4445  -35.3732 H   0  0  0  0  0  0  0  0  0  0  0  0
   -4.7513   20.2723  -32.4945 H   0  0  0  0  0  0  0  0  0  0  0  0
  1  2  1  0
  2  3  1  0
  2  4  1  0
  2  5  1  0
  5  6  1  0
  6  7  2  0
  6  8  1  0
  8  9  1  0
  9 10  1  0
 10 11  1  0
 10 12  2  0
  9 13  2  0
 13 14  1  0
 14 15  2  0
 15 16  1  0
 16 17  2  0
 17 18  1  0
 18 19  2  0
 19 20  1  0
 20 21  2  0
 21 22  1  0
 17 23  1  0
 23 24  2  0
 24  8  1  0
 24 14  1  0
 22 18  1  0
  1 25  1  0
  1 26  1  0
  1 27  1  0
  3 28  1  0
  3 29  1  0
  3 30  1  0
  4 31  1  0
  4 32  1  0
  4 33  1  0
 11 34  1  0
 13 35  1  0
 15 36  1  0
 16 37  1  0
 20 38  1  0
 21 39  1  0
 23 40  1  0
M  CHG  1  11  -1
M  END
>  <UniqueID>  (57) 
56

>  <SMILES>  (57) 
CC(C)(C)OC(=O)n1c(C([NH-])=O)cc2ccc(-c3ncco3)cc21

>  <Energy>  (57) 
105.77771614248057

>  <Genealogy>  (57) 
CC(C)(C)OC(=O)n1c(C([NH-])=O)cc2ccc(-c3ncco3)cc21 (protonated)
CC(C)(C)OC(=O)n1c(C([NH-])=O)cc2ccc(-c3ncco3)cc21 (3D coordinates assigned)
CC(C)(C)OC(=O)n1c(C([NH-])=O)cc2ccc(-c3ncco3)cc21 (optimized conformer: 105.77771614248057 kcal/mol)

>  <smiles>  (57) 
CC(C)(C)OC(=O)n1c(C(N)=O)cc2ccc(-c3ncco3)cc21

>  <score_type>  (57) 
oracle

>  <origin>  (57) 
adg

>  <m_score__min__energy>  (57) 
-10.289999999999999

>  <m_primary>  (57) 
energy

$$$$
57:0
     RDKit          3D

 57 59  0  0  0  0  0  0  0  0999 V2000
   -1.0520   22.0280  -30.0280 C   0  0  0  0  0  0  0  0  0  0  0  0
   -1.7740   23.0570  -29.1420 C   0  0  0  0  0  0  0  0  0  0  0  0
   -1.9040   22.5360  -27.6990 C   0  0  0  0  0  0  0  0  0  0  0  0
   -3.1060   23.3460  -29.6910 N   0  0  0  0  0  0  0  0  0  0  0  0
   -3.7180   22.7630  -30.8510 C   0  0  0  0  0  0  0  0  0  0  0  0
   -3.0110   22.2080  -31.7330 O   0  0  0  0  0  0  0  0  0  0  0  0
   -5.1450   22.8200  -31.0060 N   0  0  0  0  0  0  0  0  0  0  0  0
   -5.9470   23.9170  -30.8870 C   0  0  0  0  0  0  0  0  0  0  0  0
   -5.5300   25.2400  -30.3810 C   0  0  0  0  0  0  0  0  0  0  0  0
   -4.1710   25.6700  -30.4730 N   0  0  0  0  0  0  0  0  0  0  0  0
   -6.3740   25.9780  -29.8080 O   0  0  0  0  0  0  0  0  0  0  0  0
   -7.2540   23.6150  -31.2550 C   0  0  0  0  0  0  0  0  0  0  0  0
   -7.2360   22.2820  -31.5970 C   0  0  0  0  0  0  0  0  0  0  0  0
   -8.2640   21.4650  -32.0600 C   0  0  0  0  0  0  0  0  0  0  0  0
   -7.9520   20.1350  -32.3840 C   0  0  0  0  0  0  0  0  0  0  0  0
   -6.6290   19.6560  -32.2420 C   0  0  0  0  0  0  0  0  0  0  0  0
   -6.3220   18.2920  -32.5870 C   0  0  0  0  0  0  0  0  0  0  0  0
   -6.0680   17.1500  -32.8800 C   0  0  0  0  0  0  0  0  0  0  0  0
   -5.7660   15.7630  -33.2400 C   0  0  0  0  0  0  0  0  0  0  0  0
   -5.2790   15.6980  -34.6130 N   0  0  0  0  0  0  0  0  0  0  0  0
   -3.9460   16.0530  -35.0020 C   0  0  0  0  0  0  0  0  0  0  0  0
   -3.4080   15.4690  -35.9830 O   0  0  0  0  0  0  0  0  0  0  0  0
   -3.2060   17.0950  -34.2460 C   0  0  0  0  0  0  0  0  0  0  0  0
   -3.6480   18.4310  -34.3110 C   0  0  0  0  0  0  0  0  0  0  0  0
   -2.9880   19.4360  -33.6040 C   0  0  0  0  0  0  0  0  0  0  0  0
   -1.8830   19.1270  -32.8150 C   0  0  0  0  0  0  0  0  0  0  0  0
   -1.4240   17.8120  -32.7410 C   0  0  0  0  0  0  0  0  0  0  0  0
   -2.0740   16.7790  -33.4540 C   0  0  0  0  0  0  0  0  0  0  0  0
   -1.6130   15.4500  -33.4080 O   0  0  0  0  0  0  0  0  0  0  0  0
   -2.1690   14.4040  -32.6160 C   0  0  0  0  0  0  0  0  0  0  0  0
   -2.3900   13.2860  -33.4010 F   0  0  0  0  0  0  0  0  0  0  0  0
   -1.3160   14.0870  -31.5710 F   0  0  0  0  0  0  0  0  0  0  0  0
   -3.3760   14.8280  -32.0900 F   0  0  0  0  0  0  0  0  0  0  0  0
   -5.6100   20.5080  -31.7730 C   0  0  0  0  0  0  0  0  0  0  0  0
   -5.9510   21.8240  -31.4410 C   0  0  0  0  0  0  0  0  0  0  0  0
   -0.9680   24.3390  -29.1340 C   0  0  0  0  0  0  0  0  0  0  0  0
   -1.6170   25.5960  -29.3230 N   0  0  0  0  0  0  0  0  0  0  0  0
    0.2770   24.3120  -28.9350 O   0  0  0  0  0  0  0  0  0  0  0  0
   -0.5367   21.2936  -29.3916 H   0  0  0  0  0  0  0  0  0  0  0  0
   -1.7867   21.5113  -30.6631 H   0  0  0  0  0  0  0  0  0  0  0  0
   -0.3162   22.5431  -30.6631 H   0  0  0  0  0  0  0  0  0  0  0  0
   -1.6996   23.3550  -26.9937 H   0  0  0  0  0  0  0  0  0  0  0  0
   -2.9240   22.1578  -27.5362 H   0  0  0  0  0  0  0  0  0  0  0  0
   -1.1812   21.7230  -27.5362 H   0  0  0  0  0  0  0  0  0  0  0  0
   -3.9020   26.6290  -30.1570 H   0  0  0  0  0  0  0  0  0  0  0  0
   -3.4150   25.0110  -30.7620 H   0  0  0  0  0  0  0  0  0  0  0  0
   -8.1176   24.2962  -31.2696 H   0  0  0  0  0  0  0  0  0  0  0  0
   -9.2888   21.8496  -32.1686 H   0  0  0  0  0  0  0  0  0  0  0  0
   -8.7410   19.4618  -32.7503 H   0  0  0  0  0  0  0  0  0  0  0  0
   -4.9947   15.3703  -32.5611 H   0  0  0  0  0  0  0  0  0  0  0  0
   -6.6820   15.1602  -33.1532 H   0  0  0  0  0  0  0  0  0  0  0  0
   -4.5238   18.6846  -34.9264 H   0  0  0  0  0  0  0  0  0  0  0  0
   -3.3414   20.4756  -33.6699 H   0  0  0  0  0  0  0  0  0  0  0  0
   -1.3719   19.9203  -32.2498 H   0  0  0  0  0  0  0  0  0  0  0  0
   -0.5465   17.5762  -32.1210 H   0  0  0  0  0  0  0  0  0  0  0  0
   -4.5753   20.1490  -31.6706 H   0  0  0  0  0  0  0  0  0  0  0  0
   -2.6580   25.6670  -29.3280 H   0  0  0  0  0  0  0  0  0  0  0  0
  1  2  1  0
  2  3  1  0
  2  4  1  0
  4  5  1  0
  5  6  2  0
  5  7  1  0
  7  8  1  0
  8  9  1  0
  9 10  1  0
  9 11  2  0
  8 12  2  0
 12 13  1  0
 13 14  2  0
 14 15  1  0
 15 16  2  0
 16 17  1  0
 17 18  3  0
 18 19  1  0
 19 20  1  0
 20 21  1  0
 21 22  2  0
 21 23  1  0
 23 24  2  0
 24 25  1  0
 25 26  2  0
 26 27  1  0
 27 28  2  0
 28 29  1  0
 29 30  1  0
 30 31  1  0
 30 32  1  0
 30 33  1  0
 16 34  1  0
 34 35  2  0
  2 36  1  0
 36 37  1  0
 36 38  2  0
 35  7  1  0
 35 13  1  0
 28 23  1  0
  1 39  1  0
  1 40  1  0
  1 41  1  0
  3 42  1  0
  3 43  1  0
  3 44  1  0
 10 45  1  0
 10 46  1  0
 12 47  1  0
 14 48  1  0
 15 49  1  0
 19 50  1  0
 19 51  1  0
 24 52  1  0
 25 53  1  0
 26 54  1  0
 27 55  1  0
 34 56  1  0
 37 57  1  0
M  CHG  3   4  -1  20  -1  37  -1
M  END
>  <UniqueID>  (58) 
57

>  <SMILES>  (58) 
CC(C)([N-]C(=O)n1c(C(N)=O)cc2ccc(C#CC[N-]C(=O)c3ccccc3OC(F)(F)F)cc21)C([NH-])=O

>  <Energy>  (58) 
91.87860844824992

>  <Genealogy>  (58) 
CC(C)([N-]C(=O)n1c(C(N)=O)cc2ccc(C#CC[N-]C(=O)c3ccccc3OC(F)(F)F)cc21)C([NH-])=O (protonated)
CC(C)([N-]C(=O)n1c(C(N)=O)cc2ccc(C#CC[N-]C(=O)c3ccccc3OC(F)(F)F)cc21)C([NH-])=O (3D coordinates assigned)
CC(C)([N-]C(=O)n1c(C(N)=O)cc2ccc(C#CC[N-]C(=O)c3ccccc3OC(F)(F)F)cc21)C([NH-])=O (optimized conformer: 91.87860844824992 kcal/mol)

>  <smiles>  (58) 
CC(C)(NC(=O)n1c(C(N)=O)cc2ccc(C#CCNC(=O)c3ccccc3OC(F)(F)F)cc21)C(N)=O

>  <score_type>  (58) 
oracle

>  <origin>  (58) 
adg

>  <m_score__min__energy>  (58) 
-13.65

>  <m_primary>  (58) 
energy

$$$$
58:0
     RDKit          3D

 42 43  0  0  0  0  0  0  0  0999 V2000
   -3.7660   21.7010  -33.4450 C   0  0  0  0  0  0  0  0  0  0  0  0
   -2.8970   20.9340  -32.4370 C   0  0  0  0  0  0  0  0  0  0  0  0
   -1.4720   21.5190  -32.4630 C   0  0  0  0  0  0  0  0  0  0  0  0
   -2.8810   19.4440  -32.8270 C   0  0  0  0  0  0  0  0  0  0  0  0
   -3.4920   21.1130  -31.1440 O   0  0  0  0  0  0  0  0  0  0  0  0
   -4.0060   22.3110  -30.6230 C   0  0  0  0  0  0  0  0  0  0  0  0
   -3.2940   23.0640  -29.9080 O   0  0  0  0  0  0  0  0  0  0  0  0
   -5.3570   22.6920  -30.9320 N   0  0  0  0  0  0  0  0  0  0  0  0
   -5.9260   23.9220  -30.7910 C   0  0  0  0  0  0  0  0  0  0  0  0
   -5.2200   25.1700  -30.4320 C   0  0  0  0  0  0  0  0  0  0  0  0
   -3.8710   25.3660  -30.8500 N   0  0  0  0  0  0  0  0  0  0  0  0
   -5.7830   26.0490  -29.7290 O   0  0  0  0  0  0  0  0  0  0  0  0
   -7.2810   23.8740  -31.1170 C   0  0  0  0  0  0  0  0  0  0  0  0
   -7.5240   22.5660  -31.4690 C   0  0  0  0  0  0  0  0  0  0  0  0
   -8.7060   21.9540  -31.8770 C   0  0  0  0  0  0  0  0  0  0  0  0
   -8.6730   20.5780  -32.1560 C   0  0  0  0  0  0  0  0  0  0  0  0
   -7.4720   19.8400  -32.0070 C   0  0  0  0  0  0  0  0  0  0  0  0
   -7.4440   18.3700  -32.3300 C   0  0  0  0  0  0  0  0  0  0  0  0
   -6.0280   17.9320  -32.7140 C   0  0  0  0  0  0  0  0  0  0  0  0
   -5.7640   18.2190  -34.1580 C   0  0  0  0  0  0  0  0  0  0  0  0
   -6.1020   19.3260  -34.6550 O   0  0  0  0  0  0  0  0  0  0  0  0
   -5.1910   17.2470  -34.9670 O   0  0  0  0  0  0  0  0  0  0  0  0
   -6.2890   20.4970  -31.6030 C   0  0  0  0  0  0  0  0  0  0  0  0
   -6.3470   21.8730  -31.3490 C   0  0  0  0  0  0  0  0  0  0  0  0
   -4.4837   22.3344  -32.9031 H   0  0  0  0  0  0  0  0  0  0  0  0
   -3.1240   22.3323  -34.0769 H   0  0  0  0  0  0  0  0  0  0  0  0
   -4.3126   20.9855  -34.0769 H   0  0  0  0  0  0  0  0  0  0  0  0
   -1.1167   21.6649  -31.4322 H   0  0  0  0  0  0  0  0  0  0  0  0
   -0.7999   20.8240  -32.9877 H   0  0  0  0  0  0  0  0  0  0  0  0
   -1.4820   22.4858  -32.9877 H   0  0  0  0  0  0  0  0  0  0  0  0
   -2.8744   18.8267  -31.9165 H   0  0  0  0  0  0  0  0  0  0  0  0
   -3.7767   19.2109  -33.4215 H   0  0  0  0  0  0  0  0  0  0  0  0
   -1.9805   19.2302  -33.4215 H   0  0  0  0  0  0  0  0  0  0  0  0
   -3.0790   25.2440  -30.1810 H   0  0  0  0  0  0  0  0  0  0  0  0
   -8.0019   24.7046  -31.0970 H   0  0  0  0  0  0  0  0  0  0  0  0
   -9.6373   22.5306  -31.9778 H   0  0  0  0  0  0  0  0  0  0  0  0
   -9.5876   20.0683  -32.4933 H   0  0  0  0  0  0  0  0  0  0  0  0
   -7.7729   17.7995  -31.4489 H   0  0  0  0  0  0  0  0  0  0  0  0
   -8.1176   18.1794  -33.1785 H   0  0  0  0  0  0  0  0  0  0  0  0
   -5.3001   18.4794  -32.0972 H   0  0  0  0  0  0  0  0  0  0  0  0
   -5.9320   16.8496  -32.5432 H   0  0  0  0  0  0  0  0  0  0  0  0
   -5.3459   19.9420  -31.4907 H   0  0  0  0  0  0  0  0  0  0  0  0
  1  2  1  0
  2  3  1  0
  2  4  1  0
  2  5  1  0
  5  6  1  0
  6  7  2  0
  6  8  1  0
  8  9  1  0
  9 10  1  0
 10 11  1  0
 10 12  2  0
  9 13  2  0
 13 14  1  0
 14 15  2  0
 15 16  1  0
 16 17  2  0
 17 18  1  0
 18 19  1  0
 19 20  1  0
 20 21  2  0
 20 22  1  0
 17 23  1  0
 23 24  2  0
 24  8  1  0
 24 14  1  0
  1 25  1  0
  1 26  1  0
  1 27  1  0
  3 28  1  0
  3 29  1  0
  3 30  1  0
  4 31  1  0
  4 32  1  0
  4 33  1  0
 11 34  1  0
 13 35  1  0
 15 36  1  0
 16 37  1  0
 18 38  1  0
 18 39  1  0
 19 40  1  0
 19 41  1  0
 23 42  1  0
M  CHG  2  11  -1  22  -1
M  END
>  <UniqueID>  (59) 
58

>  <SMILES>  (59) 
CC(C)(C)OC(=O)n1c(C([NH-])=O)cc2ccc(CCC(=O)[O-])cc21

>  <Energy>  (59) 
71.79019351802461

>  <Genealogy>  (59) 
CC(C)(C)OC(=O)n1c(C([NH-])=O)cc2ccc(CCC(=O)[O-])cc21 (protonated)
CC(C)(C)OC(=O)n1c(C([NH-])=O)cc2ccc(CCC(=O)[O-])cc21 (3D coordinates assigned)
CC(C)(C)OC(=O)n1c(C([NH-])=O)cc2ccc(CCC(=O)[O-])cc21 (optimized conformer: 71.79019351802461 kcal/mol)

>  <smiles>  (59) 
CC(C)(C)OC(=O)n1c(C(N)=O)cc2ccc(CCC(=O)O)cc21

>  <score_type>  (59) 
oracle

>  <origin>  (59) 
adg

>  <m_score__min__energy>  (59) 
-10.6

>  <m_primary>  (59) 
energy

$$$$
59:0
     RDKit          3D

 34 35  0  0  0  0  0  0  0  0999 V2000
   -2.3910   24.4940  -28.3710 C   0  0  0  0  0  0  0  0  0  0  0  0
   -2.7570   24.9300  -29.7100 N   0  0  0  0  0  0  0  0  0  0  0  0
   -4.0730   24.7580  -30.2480 C   0  0  0  0  0  0  0  0  0  0  0  0
   -4.5890   25.6640  -30.9560 O   0  0  0  0  0  0  0  0  0  0  0  0
   -4.8750   23.5220  -29.9270 C   0  0  1  0  0  0  0  0  0  0  0  0
   -6.3750   23.8230  -29.8270 C   0  0  0  0  0  0  0  0  0  0  0  0
   -4.6010   22.4300  -30.9410 C   0  0  0  0  0  0  0  0  0  0  0  0
   -3.2890   22.2560  -31.4520 C   0  0  0  0  0  0  0  0  0  0  0  0
   -3.0060   21.2410  -32.3810 C   0  0  0  0  0  0  0  0  0  0  0  0
   -4.0530   20.4210  -32.7900 C   0  0  0  0  0  0  0  0  0  0  0  0
   -4.0480   19.3470  -33.6490 C   0  0  0  0  0  0  0  0  0  0  0  0
   -5.3640   18.8950  -33.6790 C   0  0  0  0  0  0  0  0  0  0  0  0
   -5.8200   17.7810  -34.5330 C   0  0  0  0  0  0  0  0  0  0  0  0
   -6.8100   16.8570  -34.0790 N   0  0  0  0  0  0  0  0  0  0  0  0
   -5.3690   17.6760  -35.7050 O   0  0  0  0  0  0  0  0  0  0  0  0
   -6.1520   19.6490  -32.8610 N   0  0  0  0  0  0  0  0  0  0  0  0
   -7.5350   19.4320  -32.5360 C   0  0  0  0  0  0  0  0  0  0  0  0
   -8.3870   20.3370  -32.7420 O   0  0  0  0  0  0  0  0  0  0  0  0
   -7.9500   18.2230  -31.9910 O   0  0  0  0  0  0  0  0  0  0  0  0
   -5.3330   20.5840  -32.3250 C   0  0  0  0  0  0  0  0  0  0  0  0
   -5.6370   21.5700  -31.3810 C   0  0  0  0  0  0  0  0  0  0  0  0
   -2.9124   25.1151  -27.6278 H   0  0  0  0  0  0  0  0  0  0  0  0
   -2.6798   23.4412  -28.2364 H   0  0  0  0  0  0  0  0  0  0  0  0
   -1.3040   24.5961  -28.2364 H   0  0  0  0  0  0  0  0  0  0  0  0
   -4.5533   23.1644  -28.9377 H   0  0  0  0  0  0  0  0  0  0  0  0
   -6.6674   23.8817  -28.7682 H   0  0  0  0  0  0  0  0  0  0  0  0
   -6.5902   24.7822  -30.3205 H   0  0  0  0  0  0  0  0  0  0  0  0
   -6.9436   23.0211  -30.3205 H   0  0  0  0  0  0  0  0  0  0  0  0
   -2.4827   22.9247  -31.1163 H   0  0  0  0  0  0  0  0  0  0  0  0
   -1.9881   21.0989  -32.7730 H   0  0  0  0  0  0  0  0  0  0  0  0
   -3.1876   18.9335  -34.1956 H   0  0  0  0  0  0  0  0  0  0  0  0
   -7.3250   17.0160  -33.1850 H   0  0  0  0  0  0  0  0  0  0  0  0
   -7.0930   16.0530  -34.6820 H   0  0  0  0  0  0  0  0  0  0  0  0
   -6.6591   21.6755  -30.9884 H   0  0  0  0  0  0  0  0  0  0  0  0
  1  2  1  0
  2  3  1  0
  3  4  2  0
  3  5  1  0
  5  6  1  0
  5  7  1  0
  7  8  2  0
  8  9  1  0
  9 10  2  0
 10 11  1  0
 11 12  2  0
 12 13  1  0
 13 14  1  0
 13 15  2  0
 12 16  1  0
 16 17  1  0
 17 18  2  0
 17 19  1  0
 16 20  1  0
 20 21  2  0
 21  7  1  0
 20 10  1  0
  1 22  1  0
  1 23  1  0
  1 24  1  0
  5 25  1  1
  6 26  1  0
  6 27  1  0
  6 28  1  0
  8 29  1  0
  9 30  1  0
 11 31  1  0
 14 32  1  0
 14 33  1  0
 21 34  1  0
M  CHG  2   2  -1  19  -1
M  END
>  <UniqueID>  (60) 
59

>  <SMILES>  (60) 
C[N-]C(=O)[C@@H](C)c1ccc2cc(C(N)=O)n(C(=O)[O-])c2c1

>  <Energy>  (60) 
69.87297080779844

>  <Genealogy>  (60) 
C[N-]C(=O)C(C)c1ccc2cc(C(N)=O)n(C(=O)[O-])c2c1 (protonated)
C[N-]C(=O)[C@@H](C)c1ccc2cc(C(N)=O)n(C(=O)[O-])c2c1 (chirality)
C[N-]C(=O)[C@@H](C)c1ccc2cc(C(N)=O)n(C(=O)[O-])c2c1 (3D coordinates assigned)
C[N-]C(=O)[C@@H](C)c1ccc2cc(C(N)=O)n(C(=O)[O-])c2c1 (optimized conformer: 69.87297080779844 kcal/mol)

>  <smiles>  (60) 
CNC(=O)C(C)c1ccc2cc(C(N)=O)n(C(=O)O)c2c1

>  <score_type>  (60) 
oracle

>  <origin>  (60) 
adg

>  <m_score__min__energy>  (60) 
-8.8599999999999994

>  <m_primary>  (60) 
energy

$$$$
60:0
     RDKit          3D

 25 26  0  0  0  0  0  0  0  0999 V2000
   -5.5540   20.1300  -33.4590 C   0  0  0  0  0  0  0  0  0  0  0  0
   -4.3560   20.6800  -32.7460 C   0  0  0  0  0  0  0  0  0  0  0  0
   -3.1250   19.9810  -32.7830 C   0  0  0  0  0  0  0  0  0  0  0  0
   -2.0080   20.4600  -32.0800 C   0  0  0  0  0  0  0  0  0  0  0  0
   -2.1530   21.6340  -31.3450 C   0  0  0  0  0  0  0  0  0  0  0  0
   -1.2480   22.3000  -30.5520 C   0  0  0  0  0  0  0  0  0  0  0  0
   -1.9380   23.4000  -30.0470 C   0  0  0  0  0  0  0  0  0  0  0  0
   -1.3060   24.4420  -29.2110 C   0  0  0  0  0  0  0  0  0  0  0  0
   -1.9680   25.6780  -28.9570 N   0  0  0  0  0  0  0  0  0  0  0  0
   -0.1450   24.2580  -28.7570 O   0  0  0  0  0  0  0  0  0  0  0  0
   -3.2230   23.4080  -30.5010 N   0  0  0  0  0  0  0  0  0  0  0  0
   -4.2800   24.3130  -30.1410 C   0  0  0  0  0  0  0  0  0  0  0  0
   -4.2360   25.6740  -30.5630 N   0  0  0  0  0  0  0  0  0  0  0  0
   -5.2350   23.9160  -29.4210 O   0  0  0  0  0  0  0  0  0  0  0  0
   -3.3380   22.3230  -31.2980 C   0  0  0  0  0  0  0  0  0  0  0  0
   -4.4730   21.8590  -31.9760 C   0  0  0  0  0  0  0  0  0  0  0  0
   -6.2955   19.7896  -32.7212 H   0  0  0  0  0  0  0  0  0  0  0  0
   -5.9976   20.9146  -34.0895 H   0  0  0  0  0  0  0  0  0  0  0  0
   -5.2482   19.2821  -34.0895 H   0  0  0  0  0  0  0  0  0  0  0  0
   -3.0431   19.0533  -33.3684 H   0  0  0  0  0  0  0  0  0  0  0  0
   -1.0477   19.9243  -32.1089 H   0  0  0  0  0  0  0  0  0  0  0  0
   -0.2013   22.0230  -30.3577 H   0  0  0  0  0  0  0  0  0  0  0  0
   -3.0080   25.7490  -29.0050 H   0  0  0  0  0  0  0  0  0  0  0  0
   -3.8740   26.4200  -29.9300 H   0  0  0  0  0  0  0  0  0  0  0  0
   -5.4296   22.3981  -31.9106 H   0  0  0  0  0  0  0  0  0  0  0  0
  1  2  1  0
  2  3  2  0
  3  4  1  0
  4  5  2  0
  5  6  1  0
  6  7  2  0
  7  8  1  0
  8  9  1  0
  8 10  2  0
  7 11  1  0
 11 12  1  0
 12 13  1  0
 12 14  2  0
 11 15  1  0
 15 16  2  0
 16  2  1  0
 15  5  1  0
  1 17  1  0
  1 18  1  0
  1 19  1  0
  3 20  1  0
  4 21  1  0
  6 22  1  0
  9 23  1  0
 13 24  1  0
 16 25  1  0
M  CHG  2   9  -1  13  -1
M  END
>  <UniqueID>  (61) 
60

>  <SMILES>  (61) 
Cc1ccc2cc(C([NH-])=O)n(C([NH-])=O)c2c1

>  <Energy>  (61) 
64.26789689430828

>  <Genealogy>  (61) 
Cc1ccc2cc(C([NH-])=O)n(C([NH-])=O)c2c1 (protonated)
Cc1ccc2cc(C([NH-])=O)n(C([NH-])=O)c2c1 (3D coordinates assigned)
Cc1ccc2cc(C([NH-])=O)n(C([NH-])=O)c2c1 (optimized conformer: 64.26789689430828 kcal/mol)

>  <smiles>  (61) 
Cc1ccc2cc(C(N)=O)n(C(N)=O)c2c1

>  <score_type>  (61) 
oracle

>  <origin>  (61) 
adg

>  <m_score__min__energy>  (61) 
-9.5

>  <m_primary>  (61) 
energy

$$$$
61:0
     RDKit          3D

 49 52  0  0  0  0  0  0  0  0999 V2000
   -1.1890   20.0670  -33.8850 C   0  0  0  0  0  0  0  0  0  0  0  0
   -0.7660   18.7690  -34.2840 O   0  0  0  0  0  0  0  0  0  0  0  0
   -1.5380   17.6060  -34.1440 C   0  0  0  0  0  0  0  0  0  0  0  0
   -2.0800   17.0230  -35.2950 C   0  0  0  0  0  0  0  0  0  0  0  0
   -2.8560   15.8630  -35.2070 C   0  0  0  0  0  0  0  0  0  0  0  0
   -3.0910   15.2620  -33.9610 C   0  0  0  0  0  0  0  0  0  0  0  0
   -3.9580   14.0340  -33.8620 C   0  0  0  0  0  0  0  0  0  0  0  0
   -5.3490   14.3600  -34.2020 N   0  0  0  0  0  0  0  0  0  0  0  0
   -5.6580   15.6930  -33.7660 C   0  0  0  0  0  0  0  0  0  0  0  0
   -5.8670   16.6800  -34.6780 N   0  0  0  0  0  0  0  0  0  0  0  0
   -6.1300   17.9530  -34.2890 C   0  0  0  0  0  0  0  0  0  0  0  0
   -6.1810   18.2770  -32.9250 C   0  0  0  0  0  0  0  0  0  0  0  0
   -6.4640   19.6640  -32.4740 C   0  0  0  0  0  0  0  0  0  0  0  0
   -7.8020   20.1340  -32.4000 C   0  0  0  0  0  0  0  0  0  0  0  0
   -8.0820   21.4400  -31.9630 C   0  0  0  0  0  0  0  0  0  0  0  0
   -7.0120   22.2550  -31.6140 C   0  0  0  0  0  0  0  0  0  0  0  0
   -7.0020   23.5450  -31.1360 C   0  0  0  0  0  0  0  0  0  0  0  0
   -5.6580   23.8600  -30.9480 C   0  0  0  0  0  0  0  0  0  0  0  0
   -5.1900   25.1950  -30.5200 C   0  0  0  0  0  0  0  0  0  0  0  0
   -3.8950   25.6680  -30.8760 N   0  0  0  0  0  0  0  0  0  0  0  0
   -5.9650   25.9490  -29.8720 O   0  0  0  0  0  0  0  0  0  0  0  0
   -4.8670   22.8020  -31.2860 N   0  0  0  0  0  0  0  0  0  0  0  0
   -3.4410   22.6900  -31.1550 C   0  0  0  0  0  0  0  0  0  0  0  0
   -2.8620   23.1060  -30.1170 O   0  0  0  0  0  0  0  0  0  0  0  0
   -2.6880   22.0980  -32.1630 O   0  0  0  0  0  0  0  0  0  0  0  0
   -5.7120   21.8280  -31.6950 C   0  0  0  0  0  0  0  0  0  0  0  0
   -5.4040   20.5270  -32.1080 C   0  0  0  0  0  0  0  0  0  0  0  0
   -5.9500   17.2450  -32.0030 C   0  0  0  0  0  0  0  0  0  0  0  0
   -5.6930   15.9850  -32.4380 N   0  0  0  0  0  0  0  0  0  0  0  0
   -2.5610   15.8510  -32.8030 C   0  0  0  0  0  0  0  0  0  0  0  0
   -1.7850   17.0110  -32.8910 C   0  0  0  0  0  0  0  0  0  0  0  0
   -1.2079   20.1250  -32.7867 H   0  0  0  0  0  0  0  0  0  0  0  0
   -0.4892   20.8182  -34.2799 H   0  0  0  0  0  0  0  0  0  0  0  0
   -2.1971   20.2616  -34.2799 H   0  0  0  0  0  0  0  0  0  0  0  0
   -1.8940   17.4812  -36.2776 H   0  0  0  0  0  0  0  0  0  0  0  0
   -3.2839   15.4198  -36.1183 H   0  0  0  0  0  0  0  0  0  0  0  0
   -3.5843   13.2694  -34.5590 H   0  0  0  0  0  0  0  0  0  0  0  0
   -3.9226   13.6548  -32.8300 H   0  0  0  0  0  0  0  0  0  0  0  0
   -5.9990   13.6860  -33.7320 H   0  0  0  0  0  0  0  0  0  0  0  0
   -5.4870   14.2970  -35.2380 H   0  0  0  0  0  0  0  0  0  0  0  0
   -6.3037   18.7329  -35.0450 H   0  0  0  0  0  0  0  0  0  0  0  0
   -8.6288   19.4681  -32.6881 H   0  0  0  0  0  0  0  0  0  0  0  0
   -9.1173   21.8062  -31.8991 H   0  0  0  0  0  0  0  0  0  0  0  0
   -7.8712   24.1910  -30.9431 H   0  0  0  0  0  0  0  0  0  0  0  0
   -3.0340   25.2380  -30.4690 H   0  0  0  0  0  0  0  0  0  0  0  0
   -4.3601   20.1825  -32.1473 H   0  0  0  0  0  0  0  0  0  0  0  0
   -5.9772   17.4576  -30.9241 H   0  0  0  0  0  0  0  0  0  0  0  0
   -2.7571   15.3976  -31.8202 H   0  0  0  0  0  0  0  0  0  0  0  0
   -1.3659   17.4605  -31.9787 H   0  0  0  0  0  0  0  0  0  0  0  0
  1  2  1  0
  2  3  1  0
  3  4  2  0
  4  5  1  0
  5  6  2  0
  6  7  1  0
  7  8  1  0
  8  9  1  0
  9 10  2  0
 10 11  1  0
 11 12  2  0
 12 13  1  0
 13 14  2  0
 14 15  1  0
 15 16  2  0
 16 17  1  0
 17 18  2  0
 18 19  1  0
 19 20  1  0
 19 21  2  0
 18 22  1  0
 22 23  1  0
 23 24  2  0
 23 25  1  0
 22 26  1  0
 26 27  2  0
 12 28  1  0
 28 29  2  0
  6 30  1  0
 30 31  2  0
 31  3  1  0
 29  9  1  0
 27 13  1  0
 26 16  1  0
  1 32  1  0
  1 33  1  0
  1 34  1  0
  4 35  1  0
  5 36  1  0
  7 37  1  0
  7 38  1  0
  8 39  1  0
  8 40  1  0
 11 41  1  0
 14 42  1  0
 15 43  1  0
 17 44  1  0
 20 45  1  0
 27 46  1  0
 28 47  1  0
 30 48  1  0
 31 49  1  0
M  CHG  3   8   1  20  -1  25  -1
M  END
>  <UniqueID>  (62) 
61

>  <SMILES>  (62) 
COc1ccc(C[NH2+]c2ncc(-c3ccc4cc(C([NH-])=O)n(C(=O)[O-])c4c3)cn2)cc1

>  <Energy>  (62) 
98.57061706900224

>  <Genealogy>  (62) 
COc1ccc(C[NH2+]c2ncc(-c3ccc4cc(C([NH-])=O)n(C(=O)[O-])c4c3)cn2)cc1 (protonated)
COc1ccc(C[NH2+]c2ncc(-c3ccc4cc(C([NH-])=O)n(C(=O)[O-])c4c3)cn2)cc1 (3D coordinates assigned)
COc1ccc(C[NH2+]c2ncc(-c3ccc4cc(C([NH-])=O)n(C(=O)[O-])c4c3)cn2)cc1 (optimized conformer: 98.57061706900224 kcal/mol)

>  <smiles>  (62) 
COc1ccc(CNc2ncc(-c3ccc4cc(C(N)=O)n(C(=O)O)c4c3)cn2)cc1

>  <score_type>  (62) 
oracle

>  <origin>  (62) 
adg

>  <m_score__min__energy>  (62) 
-11.15

>  <m_primary>  (62) 
energy

$$$$
62:0
     RDKit          3D

 48 51  0  0  0  0  0  0  0  0999 V2000
   -1.3470   17.6580  -33.8900 C   0  0  0  0  0  0  0  0  0  0  0  0
   -0.7900   18.7860  -33.2190 O   0  0  0  0  0  0  0  0  0  0  0  0
   -1.5450   19.8430  -32.6920 C   0  0  0  0  0  0  0  0  0  0  0  0
   -2.2100   20.6950  -33.5810 C   0  0  0  0  0  0  0  0  0  0  0  0
   -2.9800   21.7600  -33.1010 C   0  0  0  0  0  0  0  0  0  0  0  0
   -3.1020   21.9890  -31.7210 C   0  0  0  0  0  0  0  0  0  0  0  0
   -3.9240   23.1180  -31.2180 C   0  0  0  0  0  0  0  0  0  0  0  0
   -3.3620   24.1720  -30.8140 O   0  0  0  0  0  0  0  0  0  0  0  0
   -5.3590   23.0310  -31.1710 N   0  0  0  0  0  0  0  0  0  0  0  0
   -6.2330   24.0070  -30.8000 C   0  0  0  0  0  0  0  0  0  0  0  0
   -5.8690   25.3180  -30.2250 C   0  0  0  0  0  0  0  0  0  0  0  0
   -6.4800   25.7990  -29.0250 N   0  0  0  0  0  0  0  0  0  0  0  0
   -5.0300   26.0450  -30.8230 O   0  0  0  0  0  0  0  0  0  0  0  0
   -7.5460   23.6040  -31.0350 C   0  0  0  0  0  0  0  0  0  0  0  0
   -7.4480   22.3380  -31.5680 C   0  0  0  0  0  0  0  0  0  0  0  0
   -8.4450   21.4730  -32.0120 C   0  0  0  0  0  0  0  0  0  0  0  0
   -8.0500   20.2390  -32.5600 C   0  0  0  0  0  0  0  0  0  0  0  0
   -6.6750   19.9060  -32.6700 C   0  0  0  0  0  0  0  0  0  0  0  0
   -6.2650   18.6050  -33.2420 C   0  0  0  0  0  0  0  0  0  0  0  0
   -5.9750   18.5270  -34.6140 C   0  0  0  0  0  0  0  0  0  0  0  0
   -5.5620   17.3580  -35.1670 N   0  0  0  0  0  0  0  0  0  0  0  0
   -5.4270   16.2280  -34.4250 C   0  0  0  0  0  0  0  0  0  0  0  0
   -5.7180   16.2450  -33.0610 C   0  0  0  0  0  0  0  0  0  0  0  0
   -6.1580   17.4330  -32.4550 C   0  0  0  0  0  0  0  0  0  0  0  0
   -6.4810   17.4270  -30.9840 C   0  0  0  0  0  0  0  0  0  0  0  0
   -5.6930   20.8090  -32.2080 C   0  0  0  0  0  0  0  0  0  0  0  0
   -6.1170   22.0180  -31.6440 C   0  0  0  0  0  0  0  0  0  0  0  0
   -2.4200   21.1420  -30.8300 C   0  0  0  0  0  0  0  0  0  0  0  0
   -1.6540   20.0770  -31.3090 C   0  0  0  0  0  0  0  0  0  0  0  0
   -1.7063   16.9303  -33.1475 H   0  0  0  0  0  0  0  0  0  0  0  0
   -2.1875   17.9844  -34.5201 H   0  0  0  0  0  0  0  0  0  0  0  0
   -0.5769   17.1891  -34.5201 H   0  0  0  0  0  0  0  0  0  0  0  0
   -2.1267   20.5262  -34.6648 H   0  0  0  0  0  0  0  0  0  0  0  0
   -3.4945   22.4240  -33.8112 H   0  0  0  0  0  0  0  0  0  0  0  0
   -6.1710   26.7060  -28.6070 H   0  0  0  0  0  0  0  0  0  0  0  0
   -7.2950   25.3070  -28.5960 H   0  0  0  0  0  0  0  0  0  0  0  0
   -8.4649   24.1753  -30.8370 H   0  0  0  0  0  0  0  0  0  0  0  0
   -9.5079   21.7460  -31.9366 H   0  0  0  0  0  0  0  0  0  0  0  0
   -8.8132   19.5264  -32.9060 H   0  0  0  0  0  0  0  0  0  0  0  0
   -6.0835   19.4208  -35.2459 H   0  0  0  0  0  0  0  0  0  0  0  0
   -5.0871   15.2966  -34.9015 H   0  0  0  0  0  0  0  0  0  0  0  0
   -5.6031   15.3300  -32.4614 H   0  0  0  0  0  0  0  0  0  0  0  0
   -5.5469   17.4444  -30.4034 H   0  0  0  0  0  0  0  0  0  0  0  0
   -7.0827   18.3141  -30.7371 H   0  0  0  0  0  0  0  0  0  0  0  0
   -7.0493   16.5181  -30.7371 H   0  0  0  0  0  0  0  0  0  0  0  0
   -4.6226   20.5688  -32.2891 H   0  0  0  0  0  0  0  0  0  0  0  0
   -2.4903   21.3196  -29.7467 H   0  0  0  0  0  0  0  0  0  0  0  0
   -1.1325   19.4168  -30.6003 H   0  0  0  0  0  0  0  0  0  0  0  0
  1  2  1  0
  2  3  1  0
  3  4  2  0
  4  5  1  0
  5  6  2  0
  6  7  1  0
  7  8  2  0
  7  9  1  0
  9 10  1  0
 10 11  1  0
 11 12  1  0
 11 13  2  0
 10 14  2  0
 14 15  1  0
 15 16  2  0
 16 17  1  0
 17 18  2  0
 18 19  1  0
 19 20  2  0
 20 21  1  0
 21 22  2  0
 22 23  1  0
 23 24  2  0
 24 25  1  0
 18 26  1  0
 26 27  2  0
  6 28  1  0
 28 29  2  0
 29  3  1  0
 27  9  1  0
 27 15  1  0
 24 19  1  0
  1 30  1  0
  1 31  1  0
  1 32  1  0
  4 33  1  0
  5 34  1  0
 12 35  1  0
 12 36  1  0
 14 37  1  0
 16 38  1  0
 17 39  1  0
 20 40  1  0
 22 41  1  0
 23 42  1  0
 25 43  1  0
 25 44  1  0
 25 45  1  0
 26 46  1  0
 28 47  1  0
 29 48  1  0
M  END
>  <UniqueID>  (63) 
62

>  <SMILES>  (63) 
COc1ccc(C(=O)n2c(C(N)=O)cc3ccc(-c4cnccc4C)cc32)cc1

>  <Energy>  (63) 
101.02603227950884

>  <Genealogy>  (63) 
COc1ccc(C(=O)n2c(C(N)=O)cc3ccc(-c4cnccc4C)cc32)cc1 (3D coordinates assigned)
COc1ccc(C(=O)n2c(C(N)=O)cc3ccc(-c4cnccc4C)cc32)cc1 (optimized conformer: 101.02603227950884 kcal/mol)

>  <smiles>  (63) 
COc1ccc(C(=O)n2c(C(N)=O)cc3ccc(-c4cnccc4C)cc32)cc1

>  <score_type>  (63) 
oracle

>  <origin>  (63) 
adg

>  <m_score__min__energy>  (63) 
-10.34

>  <m_primary>  (63) 
energy

$$$$
63:0
     RDKit          3D

 50 52  0  0  0  0  0  0  0  0999 V2000
   -3.0910   16.9830  -34.9820 C   0  0  0  0  0  0  0  0  0  0  0  0
   -4.4280   17.0980  -34.3010 C   0  0  0  0  0  0  0  0  0  0  0  0
   -4.8150   18.3310  -33.7460 C   0  0  0  0  0  0  0  0  0  0  0  0
   -6.0610   18.4780  -33.1120 C   0  0  0  0  0  0  0  0  0  0  0  0
   -6.4690   19.7890  -32.5450 C   0  0  0  0  0  0  0  0  0  0  0  0
   -7.8460   20.1080  -32.3990 C   0  0  0  0  0  0  0  0  0  0  0  0
   -8.2450   21.3440  -31.8670 C   0  0  0  0  0  0  0  0  0  0  0  0
   -7.2540   22.2480  -31.5000 C   0  0  0  0  0  0  0  0  0  0  0  0
   -7.3670   23.5020  -30.9470 C   0  0  0  0  0  0  0  0  0  0  0  0
   -6.0610   23.9510  -30.7870 C   0  0  0  0  0  0  0  0  0  0  0  0
   -5.7260   25.3020  -30.2920 C   0  0  0  0  0  0  0  0  0  0  0  0
   -6.3890   25.8580  -29.1540 N   0  0  0  0  0  0  0  0  0  0  0  0
   -4.7940   25.9500  -30.8420 O   0  0  0  0  0  0  0  0  0  0  0  0
   -5.1690   23.0100  -31.2070 N   0  0  0  0  0  0  0  0  0  0  0  0
   -3.7360   23.0600  -31.0960 C   0  0  0  0  0  0  0  0  0  0  0  0
   -3.0250   22.2780  -31.7790 O   0  0  0  0  0  0  0  0  0  0  0  0
   -3.1460   24.0000  -30.2370 O   0  0  0  0  0  0  0  0  0  0  0  0
   -2.6950   23.7650  -28.8950 C   0  0  0  0  0  0  0  0  0  0  0  0
   -1.9520   22.4170  -28.7950 C   0  0  0  0  0  0  0  0  0  0  0  0
   -3.8840   23.8060  -27.9150 C   0  0  0  0  0  0  0  0  0  0  0  0
   -1.7170   24.8970  -28.5410 C   0  0  0  0  0  0  0  0  0  0  0  0
   -5.9180   21.9700  -31.6480 C   0  0  0  0  0  0  0  0  0  0  0  0
   -5.4920   20.7350  -32.1530 C   0  0  0  0  0  0  0  0  0  0  0  0
   -6.9210   17.3710  -33.0330 C   0  0  0  0  0  0  0  0  0  0  0  0
   -6.5480   16.1430  -33.5840 C   0  0  0  0  0  0  0  0  0  0  0  0
   -5.3100   15.9940  -34.2260 C   0  0  0  0  0  0  0  0  0  0  0  0
   -4.9750   14.7220  -34.8000 N   0  0  0  0  0  0  0  0  0  0  0  0
   -2.2976   16.9148  -34.2231 H   0  0  0  0  0  0  0  0  0  0  0  0
   -3.0760   16.0802  -35.6103 H   0  0  0  0  0  0  0  0  0  0  0  0
   -2.9221   17.8699  -35.6103 H   0  0  0  0  0  0  0  0  0  0  0  0
   -4.1334   19.1921  -33.8089 H   0  0  0  0  0  0  0  0  0  0  0  0
   -8.6085   19.3773  -32.7067 H   0  0  0  0  0  0  0  0  0  0  0  0
   -9.3100   21.5903  -31.7440 H   0  0  0  0  0  0  0  0  0  0  0  0
   -8.2929   24.0358  -30.6868 H   0  0  0  0  0  0  0  0  0  0  0  0
   -7.0440   25.2800  -28.5790 H   0  0  0  0  0  0  0  0  0  0  0  0
   -6.1300   26.8040  -28.8070 H   0  0  0  0  0  0  0  0  0  0  0  0
   -1.8078   22.1554  -27.7363 H   0  0  0  0  0  0  0  0  0  0  0  0
   -2.5457   21.6336  -29.2887 H   0  0  0  0  0  0  0  0  0  0  0  0
   -0.9726   22.5007  -29.2887 H   0  0  0  0  0  0  0  0  0  0  0  0
   -3.5079   23.7930  -26.8814 H   0  0  0  0  0  0  0  0  0  0  0  0
   -4.4654   24.7247  -28.0821 H   0  0  0  0  0  0  0  0  0  0  0  0
   -4.5273   22.9295  -28.0821 H   0  0  0  0  0  0  0  0  0  0  0  0
   -1.6399   24.9863  -27.4473 H   0  0  0  0  0  0  0  0  0  0  0  0
   -0.7260   24.6702  -28.9612 H   0  0  0  0  0  0  0  0  0  0  0  0
   -2.0853   25.8445  -28.9612 H   0  0  0  0  0  0  0  0  0  0  0  0
   -4.4201   20.5050  -32.2431 H   0  0  0  0  0  0  0  0  0  0  0  0
   -7.8958   17.4716  -32.5334 H   0  0  0  0  0  0  0  0  0  0  0  0
   -7.2319   15.2843  -33.5137 H   0  0  0  0  0  0  0  0  0  0  0  0
   -3.9750   14.4590  -34.9640 H   0  0  0  0  0  0  0  0  0  0  0  0
   -5.6990   14.0100  -35.0330 H   0  0  0  0  0  0  0  0  0  0  0  0
  1  2  1  0
  2  3  2  0
  3  4  1  0
  4  5  1  0
  5  6  2  0
  6  7  1  0
  7  8  2  0
  8  9  1  0
  9 10  2  0
 10 11  1  0
 11 12  1  0
 11 13  2  0
 10 14  1  0
 14 15  1  0
 15 16  2  0
 15 17  1  0
 17 18  1  0
 18 19  1  0
 18 20  1  0
 18 21  1  0
 14 22  1  0
 22 23  2  0
  4 24  2  0
 24 25  1  0
 25 26  2  0
 26 27  1  0
 26  2  1  0
 23  5  1  0
 22  8  1  0
  1 28  1  0
  1 29  1  0
  1 30  1  0
  3 31  1  0
  6 32  1  0
  7 33  1  0
  9 34  1  0
 12 35  1  0
 12 36  1  0
 19 37  1  0
 19 38  1  0
 19 39  1  0
 20 40  1  0
 20 41  1  0
 20 42  1  0
 21 43  1  0
 21 44  1  0
 21 45  1  0
 23 46  1  0
 24 47  1  0
 25 48  1  0
 27 49  1  0
 27 50  1  0
M  END
>  <UniqueID>  (64) 
63

>  <SMILES>  (64) 
Cc1cc(-c2ccc3cc(C(N)=O)n(C(=O)OC(C)(C)C)c3c2)ccc1N

>  <Energy>  (64) 
91.59382088137198

>  <Genealogy>  (64) 
Cc1cc(-c2ccc3cc(C(N)=O)n(C(=O)OC(C)(C)C)c3c2)ccc1N (3D coordinates assigned)
Cc1cc(-c2ccc3cc(C(N)=O)n(C(=O)OC(C)(C)C)c3c2)ccc1N (optimized conformer: 91.59382088137198 kcal/mol)

>  <smiles>  (64) 
Cc1cc(-c2ccc3cc(C(N)=O)n(C(=O)OC(C)(C)C)c3c2)ccc1N

>  <score_type>  (64) 
oracle

>  <origin>  (64) 
adg

>  <m_score__min__energy>  (64) 
-9.7599999999999998

>  <m_primary>  (64) 
energy

$$$$
64:0
     RDKit          3D

 73 78  0  0  0  0  0  0  0  0999 V2000
   -2.7520   21.4570  -29.2580 C   0  0  0  0  0  0  0  0  0  0  0  0
   -1.8850   22.3960  -30.1140 C   0  0  0  0  0  0  0  0  0  0  0  0
   -1.0090   23.3010  -29.2200 C   0  0  0  0  0  0  0  0  0  0  0  0
   -0.9610   21.5490  -31.0050 C   0  0  0  0  0  0  0  0  0  0  0  0
   -2.7200   23.1690  -30.9880 O   0  0  0  0  0  0  0  0  0  0  0  0
   -3.6330   22.6730  -31.9320 C   0  0  0  0  0  0  0  0  0  0  0  0
   -3.2220   22.1970  -33.0230 O   0  0  0  0  0  0  0  0  0  0  0  0
   -5.0500   22.7530  -31.6630 N   0  0  0  0  0  0  0  0  0  0  0  0
   -5.7190   23.7950  -31.0870 C   0  0  0  0  0  0  0  0  0  0  0  0
   -5.1150   24.9240  -30.3540 C   0  0  0  0  0  0  0  0  0  0  0  0
   -3.9340   25.5610  -30.8370 N   0  0  0  0  0  0  0  0  0  0  0  0
   -5.5930   25.2720  -29.2360 O   0  0  0  0  0  0  0  0  0  0  0  0
   -7.0960   23.5900  -31.1410 C   0  0  0  0  0  0  0  0  0  0  0  0
   -7.2580   22.3700  -31.7480 C   0  0  0  0  0  0  0  0  0  0  0  0
   -8.4240   21.6570  -32.0060 C   0  0  0  0  0  0  0  0  0  0  0  0
   -8.3050   20.3880  -32.5900 C   0  0  0  0  0  0  0  0  0  0  0  0
   -7.0340   19.8570  -32.9250 C   0  0  0  0  0  0  0  0  0  0  0  0
   -6.9540   18.5110  -33.4340 N   0  0  0  0  0  0  0  0  0  0  0  0
   -5.7880   17.6860  -33.3450 C   0  0  0  0  0  0  0  0  0  0  0  0
   -5.9180   16.3550  -33.0550 N   0  0  0  0  0  0  0  0  0  0  0  0
   -4.8300   15.5370  -32.9250 C   0  0  0  0  0  0  0  0  0  0  0  0
   -5.0110   14.1480  -32.5910 N   0  0  0  0  0  0  0  0  0  0  0  0
   -4.6370   13.5370  -31.3240 C   0  0  0  0  0  0  0  0  0  0  0  0
   -5.2780   12.1550  -31.3320 C   0  0  0  0  0  0  0  0  0  0  0  0
   -5.6020   11.8610  -32.7920 C   0  0  0  0  0  0  0  0  0  0  0  0
   -5.6970   13.2200  -33.4720 C   0  0  0  0  0  0  0  0  0  0  0  0
   -3.5720   16.1150  -33.1310 C   0  0  0  0  0  0  0  0  0  0  0  0
   -2.3630   15.5200  -33.0450 N   0  0  0  0  0  0  0  0  0  0  0  0
   -1.4940   16.5220  -33.3380 C   0  0  0  0  0  0  0  0  0  0  0  0
   -2.1890   17.6920  -33.6060 C   0  0  0  0  0  0  0  0  0  0  0  0
   -1.6090   18.9940  -33.9830 C   0  0  0  0  0  0  0  0  0  0  0  0
   -2.3820   19.9610  -34.2210 O   0  0  0  0  0  0  0  0  0  0  0  0
   -0.1820   19.1810  -34.0170 N   0  0  0  0  0  0  0  0  0  0  0  0
    0.4610   20.3180  -34.6230 C   0  0  0  0  0  0  0  0  0  0  0  0
   -0.2420   21.1790  -35.4840 C   0  0  0  0  0  0  0  0  0  0  0  0
    0.3970   22.2820  -36.0600 C   0  0  0  0  0  0  0  0  0  0  0  0
    1.7430   22.5370  -35.7840 C   0  0  0  0  0  0  0  0  0  0  0  0
    2.3550   23.6200  -36.3260 F   0  0  0  0  0  0  0  0  0  0  0  0
    2.4550   21.6810  -34.9360 C   0  0  0  0  0  0  0  0  0  0  0  0
    1.8210   20.5740  -34.3620 C   0  0  0  0  0  0  0  0  0  0  0  0
    2.5260   19.7630  -33.5310 F   0  0  0  0  0  0  0  0  0  0  0  0
   -3.4910   17.4090  -33.4630 N   0  0  0  0  0  0  0  0  0  0  0  0
   -4.5480   18.2100  -33.5580 N   0  0  0  0  0  0  0  0  0  0  0  0
   -5.8690   20.6200  -32.6570 C   0  0  0  0  0  0  0  0  0  0  0  0
   -6.0120   21.8800  -32.0540 C   0  0  0  0  0  0  0  0  0  0  0  0
   -2.5672   21.6572  -28.1923 H   0  0  0  0  0  0  0  0  0  0  0  0
   -3.8143   21.6304  -29.4848 H   0  0  0  0  0  0  0  0  0  0  0  0
   -2.4945   20.4119  -29.4848 H   0  0  0  0  0  0  0  0  0  0  0  0
   -1.2185   23.0845  -28.1621 H   0  0  0  0  0  0  0  0  0  0  0  0
    0.0530   23.1068  -29.4306 H   0  0  0  0  0  0  0  0  0  0  0  0
   -1.2376   24.3562  -29.4306 H   0  0  0  0  0  0  0  0  0  0  0  0
   -0.2978   20.9410  -30.3721 H   0  0  0  0  0  0  0  0  0  0  0  0
   -1.5691   20.8880  -31.6401 H   0  0  0  0  0  0  0  0  0  0  0  0
   -0.3553   22.2121  -31.6401 H   0  0  0  0  0  0  0  0  0  0  0  0
   -2.9940   25.2820  -30.4800 H   0  0  0  0  0  0  0  0  0  0  0  0
   -7.8854   24.2629  -30.7749 H   0  0  0  0  0  0  0  0  0  0  0  0
   -9.4105   22.0764  -31.7591 H   0  0  0  0  0  0  0  0  0  0  0  0
   -9.2102   19.7963  -32.7910 H   0  0  0  0  0  0  0  0  0  0  0  0
   -7.8300   18.0620  -33.7880 H   0  0  0  0  0  0  0  0  0  0  0  0
   -3.5430   13.4526  -31.2463 H   0  0  0  0  0  0  0  0  0  0  0  0
   -4.9744   14.1378  -30.4665 H   0  0  0  0  0  0  0  0  0  0  0  0
   -4.5779   11.4049  -30.9356 H   0  0  0  0  0  0  0  0  0  0  0  0
   -6.1782   12.1206  -30.7007 H   0  0  0  0  0  0  0  0  0  0  0  0
   -4.8033   11.2581  -33.2487 H   0  0  0  0  0  0  0  0  0  0  0  0
   -6.5357   11.2885  -32.8944 H   0  0  0  0  0  0  0  0  0  0  0  0
   -5.2067   13.1917  -34.4563 H   0  0  0  0  0  0  0  0  0  0  0  0
   -6.7424   13.5176  -33.6411 H   0  0  0  0  0  0  0  0  0  0  0  0
   -0.3989   16.4204  -33.3596 H   0  0  0  0  0  0  0  0  0  0  0  0
    0.4050   18.5440  -33.4340 H   0  0  0  0  0  0  0  0  0  0  0  0
   -1.3015   20.9839  -35.7061 H   0  0  0  0  0  0  0  0  0  0  0  0
   -0.1614   22.9504  -36.7319 H   0  0  0  0  0  0  0  0  0  0  0  0
    3.5153   21.8791  -34.7204 H   0  0  0  0  0  0  0  0  0  0  0  0
   -4.8728   20.2323  -32.9164 H   0  0  0  0  0  0  0  0  0  0  0  0
  1  2  1  0
  2  3  1  0
  2  4  1  0
  2  5  1  0
  5  6  1  0
  6  7  2  0
  6  8  1  0
  8  9  1  0
  9 10  1  0
 10 11  1  0
 10 12  2  0
  9 13  2  0
 13 14  1  0
 14 15  2  0
 15 16  1  0
 16 17  2  0
 17 18  1  0
 18 19  1  0
 19 20  1  0
 20 21  2  0
 21 22  1  0
 22 23  1  0
 23 24  1  0
 24 25  1  0
 25 26  1  0
 21 27  1  0
 27 28  2  0
 28 29  1  0
 29 30  2  0
 30 31  1  0
 31 32  2  0
 31 33  1  0
 33 34  1  0
 34 35  2  0
 35 36  1  0
 36 37  2  0
 37 38  1  0
 37 39  1  0
 39 40  2  0
 40 41  1  0
 30 42  1  0
 42 43  1  0
 17 44  1  0
 44 45  2  0
 45  8  1  0
 45 14  1  0
 43 19  2  0
 26 22  1  0
 42 27  1  0
 40 34  1  0
  1 46  1  0
  1 47  1  0
  1 48  1  0
  3 49  1  0
  3 50  1  0
  3 51  1  0
  4 52  1  0
  4 53  1  0
  4 54  1  0
 11 55  1  0
 13 56  1  0
 15 57  1  0
 16 58  1  0
 18 59  1  0
 23 60  1  0
 23 61  1  0
 24 62  1  0
 24 63  1  0
 25 64  1  0
 25 65  1  0
 26 66  1  0
 26 67  1  0
 29 68  1  0
 33 69  1  0
 35 70  1  0
 36 71  1  0
 39 72  1  0
 44 73  1  0
M  CHG  1  11  -1
M  END
>  <UniqueID>  (65) 
64

>  <SMILES>  (65) 
CC(C)(C)OC(=O)n1c(C([NH-])=O)cc2ccc(Nc3nc(N4CCCC4)c4ncc(C(=O)Nc5ccc(F)cc5F)n4n3)cc21

>  <Energy>  (65) 
162.38583145953552

>  <Genealogy>  (65) 
CC(C)(C)OC(=O)n1c(C([NH-])=O)cc2ccc(Nc3nc(N4CCCC4)c4ncc(C(=O)Nc5ccc(F)cc5F)n4n3)cc21 (protonated)
CC(C)(C)OC(=O)n1c(C([NH-])=O)cc2ccc(Nc3nc(N4CCCC4)c4ncc(C(=O)Nc5ccc(F)cc5F)n4n3)cc21 (3D coordinates assigned)
CC(C)(C)OC(=O)n1c(C([NH-])=O)cc2ccc(Nc3nc(N4CCCC4)c4ncc(C(=O)Nc5ccc(F)cc5F)n4n3)cc21 (nonaromatic ring conformer: 162.38583145953552 kcal/mol)

>  <smiles>  (65) 
CC(C)(C)OC(=O)n1c(C(N)=O)cc2ccc(Nc3nc(N4CCCC4)c4ncc(C(=O)Nc5ccc(F)cc5F)n4n3)cc21

>  <score_type>  (65) 
oracle

>  <origin>  (65) 
adg

>  <m_score__min__energy>  (65) 
-12.85

>  <m_primary>  (65) 
energy

$$$$
65:0
     RDKit          3D

 70 74  0  0  0  0  0  0  0  0999 V2000
   -5.9980   11.5810  -31.4420 C   0  0  0  0  0  0  0  0  0  0  0  0
   -5.0070   12.5930  -30.8570 C   0  0  0  0  0  0  0  0  0  0  0  0
   -4.0130   13.0730  -31.8480 N   0  0  1  0  0  0  0  0  0  0  0  0
   -3.6770   11.9780  -32.7790 C   0  0  0  0  0  0  0  0  0  0  0  0
   -2.5130   12.3930  -33.6780 C   0  0  0  0  0  0  0  0  0  0  0  0
   -2.8150   13.6800  -34.4010 C   0  0  0  0  0  0  0  0  0  0  0  0
   -2.1180   14.0320  -35.5870 C   0  0  0  0  0  0  0  0  0  0  0  0
   -1.0250   13.1600  -36.1490 C   0  0  0  0  0  0  0  0  0  0  0  0
   -2.4720   15.2000  -36.2760 C   0  0  0  0  0  0  0  0  0  0  0  0
   -3.4720   16.0350  -35.7900 C   0  0  0  0  0  0  0  0  0  0  0  0
   -4.1130   15.7410  -34.5850 C   0  0  0  0  0  0  0  0  0  0  0  0
   -5.1270   16.6270  -34.1070 N   0  0  0  0  0  0  0  0  0  0  0  0
   -6.4010   16.2860  -33.9780 N   0  0  0  0  0  0  0  0  0  0  0  0
   -7.0540   17.3300  -33.4260 C   0  0  0  0  0  0  0  0  0  0  0  0
   -6.1600   18.3690  -33.1990 C   0  0  0  0  0  0  0  0  0  0  0  0
   -6.4630   19.7110  -32.6610 C   0  0  0  0  0  0  0  0  0  0  0  0
   -7.7760   20.2380  -32.7480 C   0  0  0  0  0  0  0  0  0  0  0  0
   -8.0650   21.5320  -32.2820 C   0  0  0  0  0  0  0  0  0  0  0  0
   -7.0210   22.2810  -31.7450 C   0  0  0  0  0  0  0  0  0  0  0  0
   -7.0010   23.5870  -31.3090 C   0  0  0  0  0  0  0  0  0  0  0  0
   -5.6760   23.8390  -30.9620 C   0  0  0  0  0  0  0  0  0  0  0  0
   -5.2040   25.1310  -30.4370 C   0  0  0  0  0  0  0  0  0  0  0  0
   -3.9540   25.6770  -30.8520 N   0  0  0  0  0  0  0  0  0  0  0  0
   -5.8900   25.7440  -29.5740 O   0  0  0  0  0  0  0  0  0  0  0  0
   -4.9050   22.7360  -31.1660 N   0  0  0  0  0  0  0  0  0  0  0  0
   -3.4690   22.6630  -31.1170 C   0  0  0  0  0  0  0  0  0  0  0  0
   -2.8290   22.1570  -32.0820 O   0  0  0  0  0  0  0  0  0  0  0  0
   -2.7900   23.2240  -30.0270 O   0  0  0  0  0  0  0  0  0  0  0  0
   -2.7760   22.7270  -28.6830 C   0  0  0  0  0  0  0  0  0  0  0  0
   -1.4390   23.0790  -27.9900 C   0  0  0  0  0  0  0  0  0  0  0  0
   -3.9160   23.4260  -27.9320 C   0  0  0  0  0  0  0  0  0  0  0  0
   -3.0170   21.2080  -28.6720 C   0  0  0  0  0  0  0  0  0  0  0  0
   -5.7440   21.7870  -31.6470 C   0  0  0  0  0  0  0  0  0  0  0  0
   -5.4320   20.5030  -32.1090 C   0  0  0  0  0  0  0  0  0  0  0  0
   -4.9510   17.8730  -33.6410 C   0  0  0  0  0  0  0  0  0  0  0  0
   -3.8360   18.4600  -33.5900 O   0  0  0  0  0  0  0  0  0  0  0  0
   -3.7750   14.5710  -33.8660 C   0  0  0  0  0  0  0  0  0  0  0  0
   -4.5240   14.2580  -32.5830 C   0  0  0  0  0  0  0  0  0  0  0  0
   -6.5121   11.0560  -30.6234 H   0  0  0  0  0  0  0  0  0  0  0  0
   -6.7383   12.1087  -32.0612 H   0  0  0  0  0  0  0  0  0  0  0  0
   -5.4549   10.8519  -32.0612 H   0  0  0  0  0  0  0  0  0  0  0  0
   -5.5718   13.4585  -30.4801 H   0  0  0  0  0  0  0  0  0  0  0  0
   -4.4518   12.0832  -30.0558 H   0  0  0  0  0  0  0  0  0  0  0  0
   -3.1400   13.3430  -31.3320 H   0  0  0  0  0  0  0  0  0  0  0  0
   -3.3918   11.0852  -32.2031 H   0  0  0  0  0  0  0  0  0  0  0  0
   -4.5539   11.7549  -33.4046 H   0  0  0  0  0  0  0  0  0  0  0  0
   -1.6137   12.5312  -33.0598 H   0  0  0  0  0  0  0  0  0  0  0  0
   -2.3517   11.6028  -34.4260 H   0  0  0  0  0  0  0  0  0  0  0  0
   -0.4567   12.7066  -35.3235 H   0  0  0  0  0  0  0  0  0  0  0  0
   -1.4703   12.3663  -36.7669 H   0  0  0  0  0  0  0  0  0  0  0  0
   -0.3501   13.7705  -36.7669 H   0  0  0  0  0  0  0  0  0  0  0  0
   -1.9534   15.4588  -37.2109 H   0  0  0  0  0  0  0  0  0  0  0  0
   -3.7596   16.9320  -36.3580 H   0  0  0  0  0  0  0  0  0  0  0  0
   -8.1285   17.3546  -33.1918 H   0  0  0  0  0  0  0  0  0  0  0  0
   -8.5788   19.6265  -33.1857 H   0  0  0  0  0  0  0  0  0  0  0  0
   -9.0846   21.9407  -32.3397 H   0  0  0  0  0  0  0  0  0  0  0  0
   -7.8506   24.2830  -31.2478 H   0  0  0  0  0  0  0  0  0  0  0  0
   -3.0580   25.3030  -30.4850 H   0  0  0  0  0  0  0  0  0  0  0  0
   -1.5714   23.0441  -26.8986 H   0  0  0  0  0  0  0  0  0  0  0  0
   -0.6686   22.3531  -28.2893 H   0  0  0  0  0  0  0  0  0  0  0  0
   -1.1260   24.0902  -28.2893 H   0  0  0  0  0  0  0  0  0  0  0  0
   -3.7556   23.3277  -26.8482 H   0  0  0  0  0  0  0  0  0  0  0  0
   -3.9355   24.4915  -28.2046 H   0  0  0  0  0  0  0  0  0  0  0  0
   -4.8745   22.9602  -28.2046 H   0  0  0  0  0  0  0  0  0  0  0  0
   -3.0733   20.8532  -27.6323 H   0  0  0  0  0  0  0  0  0  0  0  0
   -3.9621   20.9829  -29.1879 H   0  0  0  0  0  0  0  0  0  0  0  0
   -2.1880   20.7015  -29.1879 H   0  0  0  0  0  0  0  0  0  0  0  0
   -4.4036   20.1182  -32.0434 H   0  0  0  0  0  0  0  0  0  0  0  0
   -4.4505   15.1324  -31.9196 H   0  0  0  0  0  0  0  0  0  0  0  0
   -5.5594   14.0254  -32.8726 H   0  0  0  0  0  0  0  0  0  0  0  0
  1  2  1  0
  2  3  1  0
  3  4  1  0
  4  5  1  0
  5  6  1  0
  6  7  2  0
  7  8  1  0
  7  9  1  0
  9 10  2  0
 10 11  1  0
 11 12  1  0
 12 13  1  0
 13 14  1  0
 14 15  2  0
 15 16  1  0
 16 17  2  0
 17 18  1  0
 18 19  2  0
 19 20  1  0
 20 21  2  0
 21 22  1  0
 22 23  1  0
 22 24  2  0
 21 25  1  0
 25 26  1  0
 26 27  2  0
 26 28  1  0
 28 29  1  0
 29 30  1  0
 29 31  1  0
 29 32  1  0
 25 33  1  0
 33 34  2  0
 15 35  1  0
 35 36  2  0
 11 37  2  0
 37 38  1  0
 38  3  1  0
 37  6  1  0
 35 12  1  0
 34 16  1  0
 33 19  1  0
  1 39  1  0
  1 40  1  0
  1 41  1  0
  2 42  1  0
  2 43  1  0
  3 44  1  1
  4 45  1  0
  4 46  1  0
  5 47  1  0
  5 48  1  0
  8 49  1  0
  8 50  1  0
  8 51  1  0
  9 52  1  0
 10 53  1  0
 14 54  1  0
 17 55  1  0
 18 56  1  0
 20 57  1  0
 23 58  1  0
 30 59  1  0
 30 60  1  0
 30 61  1  0
 31 62  1  0
 31 63  1  0
 31 64  1  0
 32 65  1  0
 32 66  1  0
 32 67  1  0
 34 68  1  0
 38 69  1  0
 38 70  1  0
M  CHG  3   3   1  13  -1  23  -1
M  END
>  <UniqueID>  (66) 
65

>  <SMILES>  (66) 
CC[N@H+]1CCc2c(C)ccc(-n3[n-]cc(-c4ccc5cc(C([NH-])=O)n(C(=O)OC(C)(C)C)c5c4)c3=O)c2C1

>  <Energy>  (66) 
160.28012029273165

>  <Genealogy>  (66) 
CC[NH+]1CCc2c(C)ccc(-n3[n-]cc(-c4ccc5cc(C([NH-])=O)n(C(=O)OC(C)(C)C)c5c4)c3=O)c2C1 (protonated)
CC[N@H+]1CCc2c(C)ccc(-n3[n-]cc(-c4ccc5cc(C([NH-])=O)n(C(=O)OC(C)(C)C)c5c4)c3=O)c2C1 (chirality)
CC[N@H+]1CCc2c(C)ccc(-n3[n-]cc(-c4ccc5cc(C([NH-])=O)n(C(=O)OC(C)(C)C)c5c4)c3=O)c2C1 (3D coordinates assigned)
CC[N@H+]1CCc2c(C)ccc(-n3[n-]cc(-c4ccc5cc(C([NH-])=O)n(C(=O)OC(C)(C)C)c5c4)c3=O)c2C1 (nonaromatic ring conformer: 160.28012029273165 kcal/mol)

>  <smiles>  (66) 
CCN1CCc2c(C)ccc(-n3[nH]cc(-c4ccc5cc(C(N)=O)n(C(=O)OC(C)(C)C)c5c4)c3=O)c2C1

>  <score_type>  (66) 
oracle

>  <origin>  (66) 
adg

>  <m_score__min__energy>  (66) 
-11.43

>  <m_primary>  (66) 
energy

$$$$
66:0
     RDKit          3D

 57 60  0  0  0  0  0  0  0  0999 V2000
   -2.7260   20.9500  -27.8540 C   0  0  0  0  0  0  0  0  0  0  0  0
   -1.2270   21.2280  -27.6310 C   0  0  0  0  0  0  0  0  0  0  0  0
   -0.4370   19.9390  -27.9070 C   0  0  0  0  0  0  0  0  0  0  0  0
   -0.9660   21.6740  -26.1800 C   0  0  0  0  0  0  0  0  0  0  0  0
   -0.7550   22.2170  -28.5560 O   0  0  0  0  0  0  0  0  0  0  0  0
   -1.1830   22.3920  -29.8810 C   0  0  0  0  0  0  0  0  0  0  0  0
   -0.4430   22.0770  -30.8500 O   0  0  0  0  0  0  0  0  0  0  0  0
   -2.4750   22.9680  -30.1280 N   0  0  0  0  0  0  0  0  0  0  0  0
   -3.0500   24.0430  -29.5170 C   0  0  0  0  0  0  0  0  0  0  0  0
   -2.4000   24.9420  -28.5420 C   0  0  0  0  0  0  0  0  0  0  0  0
   -1.4740   25.9400  -28.9660 N   0  0  0  0  0  0  0  0  0  0  0  0
   -2.7010   24.8600  -27.3210 O   0  0  0  0  0  0  0  0  0  0  0  0
   -4.3380   24.2500  -30.0100 C   0  0  0  0  0  0  0  0  0  0  0  0
   -4.5290   23.2690  -30.9570 C   0  0  0  0  0  0  0  0  0  0  0  0
   -5.6240   23.0140  -31.7750 C   0  0  0  0  0  0  0  0  0  0  0  0
   -5.5460   21.9280  -32.6640 C   0  0  0  0  0  0  0  0  0  0  0  0
   -4.3900   21.0990  -32.7020 C   0  0  0  0  0  0  0  0  0  0  0  0
   -4.2490   19.9390  -33.6770 C   0  0  0  0  0  0  0  0  0  0  0  0
   -5.3160   18.8750  -33.4600 C   0  0  0  0  0  0  0  0  0  0  0  0
   -6.0580   18.8000  -32.2630 C   0  0  0  0  0  0  0  0  0  0  0  0
   -7.0210   17.8020  -32.0880 C   0  0  0  0  0  0  0  0  0  0  0  0
   -7.2480   16.8620  -33.0950 C   0  0  0  0  0  0  0  0  0  0  0  0
   -6.5080   16.9150  -34.2790 C   0  0  0  0  0  0  0  0  0  0  0  0
   -5.5440   17.9110  -34.4590 C   0  0  0  0  0  0  0  0  0  0  0  0
   -2.8430   19.3570  -33.7290 C   0  0  0  0  0  0  0  0  0  0  0  0
   -2.5420   18.0800  -33.2130 C   0  0  0  0  0  0  0  0  0  0  0  0
   -1.2310   17.5930  -33.2470 C   0  0  0  0  0  0  0  0  0  0  0  0
   -0.2060   18.3740  -33.7830 C   0  0  0  0  0  0  0  0  0  0  0  0
   -0.4880   19.6470  -34.2820 C   0  0  0  0  0  0  0  0  0  0  0  0
   -1.7960   20.1410  -34.2500 C   0  0  0  0  0  0  0  0  0  0  0  0
   -3.2970   21.4030  -31.8580 C   0  0  0  0  0  0  0  0  0  0  0  0
   -3.3930   22.5070  -31.0060 C   0  0  0  0  0  0  0  0  0  0  0  0
   -3.2303   20.8565  -26.8809 H   0  0  0  0  0  0  0  0  0  0  0  0
   -3.1727   21.7806  -28.4202 H   0  0  0  0  0  0  0  0  0  0  0  0
   -2.8452   20.0144  -28.4202 H   0  0  0  0  0  0  0  0  0  0  0  0
   -0.1512   19.4727  -26.9526 H   0  0  0  0  0  0  0  0  0  0  0  0
   -1.0629   19.2415  -28.4830 H   0  0  0  0  0  0  0  0  0  0  0  0
    0.4686   20.1802  -28.4830 H   0  0  0  0  0  0  0  0  0  0  0  0
   -1.3973   20.9370  -25.4866 H   0  0  0  0  0  0  0  0  0  0  0  0
    0.1180   21.7481  -26.0086 H   0  0  0  0  0  0  0  0  0  0  0  0
   -1.4323   22.6554  -26.0086 H   0  0  0  0  0  0  0  0  0  0  0  0
   -1.2350   26.0570  -29.9750 H   0  0  0  0  0  0  0  0  0  0  0  0
   -5.0503   25.0314  -29.7066 H   0  0  0  0  0  0  0  0  0  0  0  0
   -6.5248   23.6436  -31.7278 H   0  0  0  0  0  0  0  0  0  0  0  0
   -6.3888   21.7164  -33.3385 H   0  0  0  0  0  0  0  0  0  0  0  0
   -4.4223   20.3645  -34.6764 H   0  0  0  0  0  0  0  0  0  0  0  0
   -5.8777   19.5317  -31.4617 H   0  0  0  0  0  0  0  0  0  0  0  0
   -7.6014   17.7572  -31.1546 H   0  0  0  0  0  0  0  0  0  0  0  0
   -8.0091   16.0800  -32.9563 H   0  0  0  0  0  0  0  0  0  0  0  0
   -6.6843   16.1718  -35.0706 H   0  0  0  0  0  0  0  0  0  0  0  0
   -4.9586   17.9414  -35.3898 H   0  0  0  0  0  0  0  0  0  0  0  0
   -3.3432   17.4625  -32.7808 H   0  0  0  0  0  0  0  0  0  0  0  0
   -1.0074   16.5917  -32.8502 H   0  0  0  0  0  0  0  0  0  0  0  0
    0.8232   17.9868  -33.8123 H   0  0  0  0  0  0  0  0  0  0  0  0
    0.3209   20.2632  -34.7015 H   0  0  0  0  0  0  0  0  0  0  0  0
   -2.0083   21.1494  -34.6347 H   0  0  0  0  0  0  0  0  0  0  0  0
   -2.3887   20.7827  -31.8716 H   0  0  0  0  0  0  0  0  0  0  0  0
  1  2  1  0
  2  3  1  0
  2  4  1  0
  2  5  1  0
  5  6  1  0
  6  7  2  0
  6  8  1  0
  8  9  1  0
  9 10  1  0
 10 11  1  0
 10 12  2  0
  9 13  2  0
 13 14  1  0
 14 15  2  0
 15 16  1  0
 16 17  2  0
 17 18  1  0
 18 19  1  0
 19 20  2  0
 20 21  1  0
 21 22  2  0
 22 23  1  0
 23 24  2  0
 18 25  1  0
 25 26  2  0
 26 27  1  0
 27 28  2  0
 28 29  1  0
 29 30  2  0
 17 31  1  0
 31 32  2  0
 32  8  1  0
 32 14  1  0
 24 19  1  0
 30 25  1  0
  1 33  1  0
  1 34  1  0
  1 35  1  0
  3 36  1  0
  3 37  1  0
  3 38  1  0
  4 39  1  0
  4 40  1  0
  4 41  1  0
 11 42  1  0
 13 43  1  0
 15 44  1  0
 16 45  1  0
 18 46  1  0
 20 47  1  0
 21 48  1  0
 22 49  1  0
 23 50  1  0
 24 51  1  0
 26 52  1  0
 27 53  1  0
 28 54  1  0
 29 55  1  0
 30 56  1  0
 31 57  1  0
M  CHG  1  11  -1
M  END
>  <UniqueID>  (67) 
66

>  <SMILES>  (67) 
CC(C)(C)OC(=O)n1c(C([NH-])=O)cc2ccc(C(c3ccccc3)c3ccccc3)cc21

>  <Energy>  (67) 
99.90739710443763

>  <Genealogy>  (67) 
CC(C)(C)OC(=O)n1c(C([NH-])=O)cc2ccc(C(c3ccccc3)c3ccccc3)cc21 (protonated)
CC(C)(C)OC(=O)n1c(C([NH-])=O)cc2ccc(C(c3ccccc3)c3ccccc3)cc21 (3D coordinates assigned)
CC(C)(C)OC(=O)n1c(C([NH-])=O)cc2ccc(C(c3ccccc3)c3ccccc3)cc21 (optimized conformer: 99.90739710443763 kcal/mol)

>  <smiles>  (67) 
CC(C)(C)OC(=O)n1c(C(N)=O)cc2ccc(C(c3ccccc3)c3ccccc3)cc21

>  <score_type>  (67) 
oracle

>  <origin>  (67) 
adg

>  <m_score__min__energy>  (67) 
-12.56

>  <m_primary>  (67) 
energy

$$$$
67:0
     RDKit          3D

 57 59  0  0  0  0  0  0  0  0999 V2000
   -3.0970   19.3790  -32.7770 C   0  0  0  0  0  0  0  0  0  0  0  0
   -4.1040   20.4250  -33.1370 C   0  0  0  0  0  0  0  0  0  0  0  0
   -3.7020   21.5520  -33.5340 O   0  0  0  0  0  0  0  0  0  0  0  0
   -5.5140   20.1710  -33.0200 N   0  0  0  0  0  0  0  0  0  0  0  0
   -6.1750   19.0330  -33.3700 C   0  0  0  0  0  0  0  0  0  0  0  0
   -5.5890   17.8770  -34.0800 C   0  0  0  0  0  0  0  0  0  0  0  0
   -5.2320   16.6810  -33.3840 N   0  0  0  0  0  0  0  0  0  0  0  0
   -5.3540   17.9640  -35.3150 O   0  0  0  0  0  0  0  0  0  0  0  0
   -7.5120   19.1010  -32.9870 C   0  0  0  0  0  0  0  0  0  0  0  0
   -7.6540   20.3320  -32.3870 C   0  0  0  0  0  0  0  0  0  0  0  0
   -8.7740   20.9170  -31.8030 C   0  0  0  0  0  0  0  0  0  0  0  0
   -8.6230   22.1830  -31.2140 C   0  0  0  0  0  0  0  0  0  0  0  0
   -7.3610   22.8270  -31.1990 C   0  0  0  0  0  0  0  0  0  0  0  0
   -7.2160   24.1900  -30.5820 C   0  0  0  0  0  0  0  0  0  0  0  0
   -5.9790   24.9030  -31.1400 C   0  0  0  0  0  0  0  0  0  0  0  0
   -4.9840   25.2630  -30.0360 C   0  0  0  0  0  0  0  0  0  0  0  0
   -3.6720   24.9930  -30.4770 O   0  0  0  0  0  0  0  0  0  0  0  0
   -3.4940   23.6120  -30.7420 C   0  0  0  0  0  0  0  0  0  0  0  0
   -2.4000   22.9590  -29.8360 C   0  0  1  0  0  0  0  0  0  0  0  0
   -1.5480   21.9500  -30.6490 C   0  0  0  0  0  0  0  0  0  0  0  0
   -1.4810   24.0190  -29.1960 C   0  0  0  0  0  0  0  0  0  0  0  0
   -1.7720   23.4710  -27.8040 C   0  0  0  0  0  0  0  0  0  0  0  0
   -2.8060   22.4930  -28.3870 C   0  0  0  0  0  0  0  0  0  0  0  0
   -2.4950   21.0220  -28.0300 C   0  0  0  0  0  0  0  0  0  0  0  0
   -4.2220   22.8710  -27.8930 C   0  0  0  0  0  0  0  0  0  0  0  0
   -6.2490   22.2050  -31.8080 C   0  0  0  0  0  0  0  0  0  0  0  0
   -6.4330   20.9560  -32.4130 C   0  0  0  0  0  0  0  0  0  0  0  0
   -3.0233   19.3024  -31.6821 H   0  0  0  0  0  0  0  0  0  0  0  0
   -3.4107   18.4098  -33.1921 H   0  0  0  0  0  0  0  0  0  0  0  0
   -2.1166   19.6556  -33.1921 H   0  0  0  0  0  0  0  0  0  0  0  0
   -4.8700   15.8570  -33.9130 H   0  0  0  0  0  0  0  0  0  0  0  0
   -5.2320   16.6410  -32.3420 H   0  0  0  0  0  0  0  0  0  0  0  0
   -8.2883   18.3354  -33.1326 H   0  0  0  0  0  0  0  0  0  0  0  0
   -9.7469   20.4038  -31.8028 H   0  0  0  0  0  0  0  0  0  0  0  0
   -9.4931   22.6795  -30.7598 H   0  0  0  0  0  0  0  0  0  0  0  0
   -8.1113   24.7873  -30.8091 H   0  0  0  0  0  0  0  0  0  0  0  0
   -7.1012   24.0776  -29.4938 H   0  0  0  0  0  0  0  0  0  0  0  0
   -5.4827   24.2404  -31.8643 H   0  0  0  0  0  0  0  0  0  0  0  0
   -6.3097   25.8361  -31.6194 H   0  0  0  0  0  0  0  0  0  0  0  0
   -5.0764   26.3320  -29.7939 H   0  0  0  0  0  0  0  0  0  0  0  0
   -5.1994   24.6632  -29.1394 H   0  0  0  0  0  0  0  0  0  0  0  0
   -4.4491   23.0946  -30.5686 H   0  0  0  0  0  0  0  0  0  0  0  0
   -3.1617   23.5146  -31.7861 H   0  0  0  0  0  0  0  0  0  0  0  0
   -0.9958   21.2960  -29.9581 H   0  0  0  0  0  0  0  0  0  0  0  0
   -2.2082   21.3397  -31.2828 H   0  0  0  0  0  0  0  0  0  0  0  0
   -0.8357   22.4986  -31.2828 H   0  0  0  0  0  0  0  0  0  0  0  0
   -0.4263   23.9333  -29.4964 H   0  0  0  0  0  0  0  0  0  0  0  0
   -1.6440   25.0857  -29.4096 H   0  0  0  0  0  0  0  0  0  0  0  0
   -0.9106   22.9792  -27.3285 H   0  0  0  0  0  0  0  0  0  0  0  0
   -2.0572   24.1548  -26.9909 H   0  0  0  0  0  0  0  0  0  0  0  0
   -2.4708   20.9074  -26.9363 H   0  0  0  0  0  0  0  0  0  0  0  0
   -3.2751   20.3700  -28.4498 H   0  0  0  0  0  0  0  0  0  0  0  0
   -1.5177   20.7415  -28.4498 H   0  0  0  0  0  0  0  0  0  0  0  0
   -4.2377   22.8752  -26.7931 H   0  0  0  0  0  0  0  0  0  0  0  0
   -4.4861   23.8711  -28.2673 H   0  0  0  0  0  0  0  0  0  0  0  0
   -4.9494   22.1356  -28.2673 H   0  0  0  0  0  0  0  0  0  0  0  0
   -5.2618   22.6903  -31.8070 H   0  0  0  0  0  0  0  0  0  0  0  0
  1  2  1  0
  2  3  2  0
  2  4  1  0
  4  5  1  0
  5  6  1  0
  6  7  1  0
  6  8  2  0
  5  9  2  0
  9 10  1  0
 10 11  2  0
 11 12  1  0
 12 13  2  0
 13 14  1  0
 14 15  1  0
 15 16  1  0
 16 17  1  0
 17 18  1  0
 19 18  1  6
 19 20  1  0
 19 21  1  0
 21 22  1  0
 22 23  1  0
 23 24  1  0
 23 25  1  0
 13 26  1  0
 26 27  2  0
 27  4  1  0
 27 10  1  0
 23 19  1  0
  1 28  1  0
  1 29  1  0
  1 30  1  0
  7 31  1  0
  7 32  1  0
  9 33  1  0
 11 34  1  0
 12 35  1  0
 14 36  1  0
 14 37  1  0
 15 38  1  0
 15 39  1  0
 16 40  1  0
 16 41  1  0
 18 42  1  0
 18 43  1  0
 20 44  1  0
 20 45  1  0
 20 46  1  0
 21 47  1  0
 21 48  1  0
 22 49  1  0
 22 50  1  0
 24 51  1  0
 24 52  1  0
 24 53  1  0
 25 54  1  0
 25 55  1  0
 25 56  1  0
 26 57  1  0
M  END
>  <UniqueID>  (68) 
67

>  <SMILES>  (68) 
CC(=O)n1c(C(N)=O)cc2ccc(CCCOC[C@@]3(C)CCC3(C)C)cc21

>  <Energy>  (68) 
162.343343817446

>  <Genealogy>  (68) 
CC(=O)n1c(C(N)=O)cc2ccc(CCCOC[C@@]3(C)CCC3(C)C)cc21 (chirality)
CC(=O)n1c(C(N)=O)cc2ccc(CCCOC[C@@]3(C)CCC3(C)C)cc21 (3D coordinates assigned)
CC(=O)n1c(C(N)=O)cc2ccc(CCCOC[C@@]3(C)CCC3(C)C)cc21 (nonaromatic ring conformer: 162.343343817446 kcal/mol)

>  <smiles>  (68) 
CC(=O)n1c(C(N)=O)cc2ccc(CCCOCC3(C)CCC3(C)C)cc21

>  <score_type>  (68) 
oracle

>  <origin>  (68) 
adg

>  <m_score__min__energy>  (68) 
-9.6799999999999997

>  <m_primary>  (68) 
energy

$$$$
68:0
     RDKit          3D

 55 58  0  0  0  0  0  0  0  0999 V2000
   -9.7160   21.1110  -32.2090 C   0  0  0  0  0  0  0  0  0  0  0  0
   -8.3760   20.7400  -31.7410 N   0  0  0  0  0  0  0  0  0  0  0  0
   -8.0230   19.3150  -31.6150 C   0  0  0  0  0  0  0  0  0  0  0  0
   -7.0220   18.9090  -32.6660 C   0  0  0  0  0  0  0  0  0  0  0  0
   -6.8460   19.6170  -33.8590 C   0  0  0  0  0  0  0  0  0  0  0  0
   -5.6980   18.8250  -34.8110 S   0  0  0  0  0  0  0  0  0  0  0  0
   -5.4130   17.5860  -33.7160 C   0  0  0  0  0  0  0  0  0  0  0  0
   -4.5370   16.5120  -33.8450 C   0  0  0  0  0  0  0  0  0  0  0  0
   -4.4590   15.5900  -32.7910 C   0  0  0  0  0  0  0  0  0  0  0  0
   -5.2520   15.7590  -31.6410 C   0  0  0  0  0  0  0  0  0  0  0  0
   -6.1310   16.8490  -31.5340 C   0  0  0  0  0  0  0  0  0  0  0  0
   -6.2050   17.7650  -32.5910 C   0  0  0  0  0  0  0  0  0  0  0  0
   -7.4440   21.7790  -31.3570 C   0  0  0  0  0  0  0  0  0  0  0  0
   -7.8090   23.1490  -31.4590 C   0  0  0  0  0  0  0  0  0  0  0  0
   -6.8930   24.1660  -31.1410 C   0  0  0  0  0  0  0  0  0  0  0  0
   -5.6210   23.7910  -30.7240 C   0  0  0  0  0  0  0  0  0  0  0  0
   -4.5250   24.5660  -30.4160 C   0  0  0  0  0  0  0  0  0  0  0  0
   -3.5090   23.6610  -30.1100 C   0  0  0  0  0  0  0  0  0  0  0  0
   -2.1610   24.0670  -29.6650 C   0  0  0  0  0  0  0  0  0  0  0  0
   -1.9550   25.3010  -28.9840 N   0  0  0  0  0  0  0  0  0  0  0  0
   -1.1690   23.3360  -29.9300 O   0  0  0  0  0  0  0  0  0  0  0  0
   -3.9600   22.3810  -30.2220 N   0  0  0  0  0  0  0  0  0  0  0  0
   -3.1950   21.1710  -30.1350 C   0  0  0  0  0  0  0  0  0  0  0  0
   -2.5890   20.8920  -29.0670 O   0  0  0  0  0  0  0  0  0  0  0  0
   -3.1590   20.3010  -31.2350 O   0  0  0  0  0  0  0  0  0  0  0  0
   -2.7130   20.6250  -32.5600 C   0  0  0  0  0  0  0  0  0  0  0  0
   -2.4750   19.2980  -33.2950 C   0  0  0  0  0  0  0  0  0  0  0  0
   -1.3880   21.4090  -32.5010 C   0  0  0  0  0  0  0  0  0  0  0  0
   -3.7870   21.4270  -33.3180 C   0  0  0  0  0  0  0  0  0  0  0  0
   -5.2550   22.4780  -30.5960 C   0  0  0  0  0  0  0  0  0  0  0  0
   -6.1450   21.4450  -30.9040 C   0  0  0  0  0  0  0  0  0  0  0  0
  -10.3697   21.2920  -31.3431 H   0  0  0  0  0  0  0  0  0  0  0  0
   -9.6518   22.0252  -32.8174 H   0  0  0  0  0  0  0  0  0  0  0  0
  -10.1311   20.2940  -32.8174 H   0  0  0  0  0  0  0  0  0  0  0  0
   -7.5899   19.1388  -30.6193 H   0  0  0  0  0  0  0  0  0  0  0  0
   -8.9353   18.7157  -31.7514 H   0  0  0  0  0  0  0  0  0  0  0  0
   -7.3721   20.5432  -34.1338 H   0  0  0  0  0  0  0  0  0  0  0  0
   -3.9225   16.3897  -34.7491 H   0  0  0  0  0  0  0  0  0  0  0  0
   -3.7752   14.7314  -32.8636 H   0  0  0  0  0  0  0  0  0  0  0  0
   -5.1829   15.0313  -30.8190 H   0  0  0  0  0  0  0  0  0  0  0  0
   -6.7510   16.9812  -30.6351 H   0  0  0  0  0  0  0  0  0  0  0  0
   -8.8228   23.4168  -31.7915 H   0  0  0  0  0  0  0  0  0  0  0  0
   -7.1739   25.2266  -31.2196 H   0  0  0  0  0  0  0  0  0  0  0  0
   -4.4640   25.6643  -30.4122 H   0  0  0  0  0  0  0  0  0  0  0  0
   -2.7100   26.0210  -28.9350 H   0  0  0  0  0  0  0  0  0  0  0  0
   -2.3305   18.4925  -32.5599 H   0  0  0  0  0  0  0  0  0  0  0  0
   -3.3460   19.0669  -33.9258 H   0  0  0  0  0  0  0  0  0  0  0  0
   -1.5779   19.3840  -33.9258 H   0  0  0  0  0  0  0  0  0  0  0  0
   -1.1069   21.5754  -31.4506 H   0  0  0  0  0  0  0  0  0  0  0  0
   -0.5982   20.8327  -33.0051 H   0  0  0  0  0  0  0  0  0  0  0  0
   -1.5129   22.3787  -33.0051 H   0  0  0  0  0  0  0  0  0  0  0  0
   -4.4518   21.9234  -32.5957 H   0  0  0  0  0  0  0  0  0  0  0  0
   -3.3008   22.1849  -33.9499 H   0  0  0  0  0  0  0  0  0  0  0  0
   -4.3756   20.7456  -33.9499 H   0  0  0  0  0  0  0  0  0  0  0  0
   -5.8419   20.3931  -30.7965 H   0  0  0  0  0  0  0  0  0  0  0  0
  1  2  1  0
  2  3  1  0
  3  4  1  0
  4  5  2  0
  5  6  1  0
  6  7  1  0
  7  8  2  0
  8  9  1  0
  9 10  2  0
 10 11  1  0
 11 12  2  0
  2 13  1  0
 13 14  2  0
 14 15  1  0
 15 16  2  0
 16 17  1  0
 17 18  2  0
 18 19  1  0
 19 20  1  0
 19 21  2  0
 18 22  1  0
 22 23  1  0
 23 24  2  0
 23 25  1  0
 25 26  1  0
 26 27  1  0
 26 28  1  0
 26 29  1  0
 22 30  1  0
 30 31  2  0
 12  4  1  0
 31 13  1  0
 12  7  1  0
 30 16  1  0
  1 32  1  0
  1 33  1  0
  1 34  1  0
  3 35  1  0
  3 36  1  0
  5 37  1  0
  8 38  1  0
  9 39  1  0
 10 40  1  0
 11 41  1  0
 14 42  1  0
 15 43  1  0
 17 44  1  0
 20 45  1  0
 27 46  1  0
 27 47  1  0
 27 48  1  0
 28 49  1  0
 28 50  1  0
 28 51  1  0
 29 52  1  0
 29 53  1  0
 29 54  1  0
 31 55  1  0
M  CHG  1  20  -1
M  END
>  <UniqueID>  (69) 
68

>  <SMILES>  (69) 
CN(Cc1csc2ccccc12)c1ccc2cc(C([NH-])=O)n(C(=O)OC(C)(C)C)c2c1

>  <Energy>  (69) 
123.55057283935359

>  <Genealogy>  (69) 
CN(Cc1csc2ccccc12)c1ccc2cc(C([NH-])=O)n(C(=O)OC(C)(C)C)c2c1 (protonated)
CN(Cc1csc2ccccc12)c1ccc2cc(C([NH-])=O)n(C(=O)OC(C)(C)C)c2c1 (3D coordinates assigned)
CN(Cc1csc2ccccc12)c1ccc2cc(C([NH-])=O)n(C(=O)OC(C)(C)C)c2c1 (optimized conformer: 123.55057283935359 kcal/mol)

>  <smiles>  (69) 
CN(Cc1csc2ccccc12)c1ccc2cc(C(N)=O)n(C(=O)OC(C)(C)C)c2c1

>  <score_type>  (69) 
oracle

>  <origin>  (69) 
adg

>  <m_score__min__energy>  (69) 
-12.92

>  <m_primary>  (69) 
energy

$$$$
69:0
     RDKit          3D

 68 71  0  0  0  0  0  0  0  0999 V2000
    0.2720   12.9710  -35.5070 H   0  0  0  0  0  0  0  0  0  0  0  0
   -0.2720   12.1090  -35.7290 N   0  0  0  0  0  0  0  0  0  0  0  0
   -1.5480   12.1840  -36.3530 C   0  0  0  0  0  0  0  0  0  0  0  0
   -1.7850   11.4550  -37.3540 O   0  0  0  0  0  0  0  0  0  0  0  0
   -2.6370   12.9990  -35.7800 C   0  0  0  0  0  0  0  0  0  0  0  0
   -3.9030   12.4720  -35.5310 C   0  0  0  0  0  0  0  0  0  0  0  0
   -4.2366   11.4365  -35.6939 H   0  0  0  0  0  0  0  0  0  0  0  0
   -4.6460   13.5160  -35.0400 C   0  0  0  0  0  0  0  0  0  0  0  0
   -5.9710   13.5470  -34.6210 C   0  0  0  0  0  0  0  0  0  0  0  0
   -6.5958   12.6423  -34.6525 H   0  0  0  0  0  0  0  0  0  0  0  0
   -6.4880   14.7650  -34.1570 C   0  0  0  0  0  0  0  0  0  0  0  0
   -7.5363   14.8200  -33.8283 H   0  0  0  0  0  0  0  0  0  0  0  0
   -5.6750   15.9290  -34.1060 C   0  0  0  0  0  0  0  0  0  0  0  0
   -6.2340   17.2140  -33.6080 C   0  0  0  0  0  0  0  0  0  0  0  0
   -7.1870   17.2330  -32.5740 C   0  0  0  0  0  0  0  0  0  0  0  0
   -7.5239   16.2865  -32.1262 H   0  0  0  0  0  0  0  0  0  0  0  0
   -7.7100   18.4430  -32.1100 C   0  0  0  0  0  0  0  0  0  0  0  0
   -8.4597   18.4391  -31.3051 H   0  0  0  0  0  0  0  0  0  0  0  0
   -7.2880   19.6640  -32.6610 C   0  0  0  0  0  0  0  0  0  0  0  0
   -7.8790   20.9200  -32.1310 C   0  0  0  0  0  0  0  0  0  0  0  0
   -8.7965   20.8466  -31.5287 H   0  0  0  0  0  0  0  0  0  0  0  0
   -7.3590   22.1390  -32.3440 C   0  0  0  0  0  0  0  0  0  0  0  0
   -6.4625   22.2290  -32.9751 H   0  0  0  0  0  0  0  0  0  0  0  0
   -7.9430   23.3600  -31.7650 C   0  0  0  0  0  0  0  0  0  0  0  0
   -9.0640   23.7850  -32.1530 O   0  0  0  0  0  0  0  0  0  0  0  0
   -7.2130   24.0600  -30.7540 N   0  0  0  0  0  0  0  0  0  0  0  0
   -5.8080   24.3320  -30.7950 C   0  0  0  0  0  0  0  0  0  0  0  0
   -5.2610   25.5460  -30.9860 N   0  0  0  0  0  0  0  0  0  0  0  0
   -3.9520   25.3400  -30.8980 N   0  0  0  0  0  0  0  0  0  0  0  0
   -3.7020   24.0580  -30.6610 N   0  0  0  0  0  0  0  0  0  0  0  0
   -4.8540   23.4140  -30.5830 N   0  0  0  0  0  0  0  0  0  0  0  0
   -5.0020   21.9710  -30.4180 C   0  0  0  0  0  0  0  0  0  0  0  0
   -6.0646   21.7003  -30.5047 H   0  0  0  0  0  0  0  0  0  0  0  0
   -4.6253   21.6775  -29.4271 H   0  0  0  0  0  0  0  0  0  0  0  0
   -4.2210   21.2600  -31.4740 C   0  0  0  0  0  0  0  0  0  0  0  0
   -4.1700   20.0000  -31.4790 O   0  0  0  0  0  0  0  0  0  0  0  0
   -3.5300   22.0090  -32.4310 O   0  0  0  0  0  0  0  0  0  0  0  0
   -2.6330   21.4220  -33.3670 C   0  0  0  0  0  0  0  0  0  0  0  0
   -2.5124   22.0938  -34.2296 H   0  0  0  0  0  0  0  0  0  0  0  0
   -3.0381   20.4571  -33.7060 H   0  0  0  0  0  0  0  0  0  0  0  0
   -1.2830   21.1990  -32.7070 C   0  0  0  0  0  0  0  0  0  0  0  0
   -1.4017   21.2186  -31.6136 H   0  0  0  0  0  0  0  0  0  0  0  0
   -0.8813   20.2223  -33.0148 H   0  0  0  0  0  0  0  0  0  0  0  0
   -0.5885   21.9946  -33.0148 H   0  0  0  0  0  0  0  0  0  0  0  0
   -6.3470   19.6460  -33.7080 C   0  0  0  0  0  0  0  0  0  0  0  0
   -6.0203   20.5918  -34.1649 H   0  0  0  0  0  0  0  0  0  0  0  0
   -5.8250   18.4350  -34.1710 C   0  0  0  0  0  0  0  0  0  0  0  0
   -5.0856   18.4376  -34.9854 H   0  0  0  0  0  0  0  0  0  0  0  0
   -4.3290   15.8520  -34.5340 C   0  0  0  0  0  0  0  0  0  0  0  0
   -3.6762   16.7363  -34.4913 H   0  0  0  0  0  0  0  0  0  0  0  0
   -3.8420   14.6270  -35.0140 C   0  0  0  0  0  0  0  0  0  0  0  0
   -2.6010   14.3330  -35.4730 N   0  0  0  0  0  0  0  0  0  0  0  0
   -1.5450   15.2830  -35.7220 C   0  0  0  0  0  0  0  0  0  0  0  0
   -0.4490   14.8830  -36.2000 O   0  0  0  0  0  0  0  0  0  0  0  0
   -1.7400   16.6450  -35.4540 O   0  0  0  0  0  0  0  0  0  0  0  0
   -1.3290   17.3520  -34.2740 C   0  0  0  0  0  0  0  0  0  0  0  0
   -2.4820   18.2900  -33.8880 C   0  0  0  0  0  0  0  0  0  0  0  0
   -2.5551   18.3495  -32.7920 H   0  0  0  0  0  0  0  0  0  0  0  0
   -2.2916   19.2929  -34.2977 H   0  0  0  0  0  0  0  0  0  0  0  0
   -3.4252   17.8995  -34.2977 H   0  0  0  0  0  0  0  0  0  0  0  0
   -1.0670   16.3800  -33.1050 C   0  0  0  0  0  0  0  0  0  0  0  0
   -1.2093   16.9078  -32.1504 H   0  0  0  0  0  0  0  0  0  0  0  0
   -1.7697   15.5358  -33.1655 H   0  0  0  0  0  0  0  0  0  0  0  0
   -0.0353   16.0033  -33.1655 H   0  0  0  0  0  0  0  0  0  0  0  0
   -0.0740   18.1980  -34.5690 C   0  0  0  0  0  0  0  0  0  0  0  0
    0.3889   18.5101  -33.6212 H   0  0  0  0  0  0  0  0  0  0  0  0
    0.6442   17.5990  -35.1481 H   0  0  0  0  0  0  0  0  0  0  0  0
   -0.3599   19.0885  -35.1481 H   0  0  0  0  0  0  0  0  0  0  0  0
  1  2  1  0
  2  3  1  0
  3  4  2  0
  3  5  1  0
  5  6  2  0
  6  7  1  0
  6  8  1  0
  8  9  2  0
  9 10  1  0
  9 11  1  0
 11 12  1  0
 11 13  2  0
 13 14  1  0
 14 15  2  0
 15 16  1  0
 15 17  1  0
 17 18  1  0
 17 19  2  0
 19 20  1  0
 20 21  1  0
 20 22  2  0
 22 23  1  0
 22 24  1  0
 24 25  2  0
 24 26  1  0
 26 27  1  0
 27 28  2  0
 28 29  1  0
 29 30  2  0
 30 31  1  0
 31 32  1  0
 32 33  1  0
 32 34  1  0
 32 35  1  0
 35 36  2  0
 35 37  1  0
 37 38  1  0
 38 39  1  0
 38 40  1  0
 38 41  1  0
 41 42  1  0
 41 43  1  0
 41 44  1  0
 19 45  1  0
 45 46  1  0
 45 47  2  0
 47 48  1  0
 13 49  1  0
 49 50  1  0
 49 51  2  0
 51 52  1  0
 52 53  1  0
 53 54  2  0
 53 55  1  0
 55 56  1  0
 56 57  1  0
 57 58  1  0
 57 59  1  0
 57 60  1  0
 56 61  1  0
 61 62  1  0
 61 63  1  0
 61 64  1  0
 56 65  1  0
 65 66  1  0
 65 67  1  0
 65 68  1  0
 52  5  1  0
 51  8  1  0
 47 14  1  0
 31 27  1  0
M  CHG  2   2  -1  26  -1
M  END
>  <UniqueID>  (70) 
69

>  <SMILES>  (70) 
CCOC(=O)Cn1nnnc1[N-]C(=O)/C=C/c1ccc(-c2ccc3cc(C([NH-])=O)n(C(=O)OC(C)(C)C)c3c2)cc1

>  <Energy>  (70) 
150.18814184197947

>  <Genealogy>  (70) 
CCOC(=O)Cn1nnnc1[N-]C(=O)/C=C/c1ccc(-c2ccc3cc(C([NH-])=O)n(C(=O)OC(C)(C)C)c3c2)cc1 (protonated)
CCOC(=O)Cn1nnnc1[N-]C(=O)/C=C/c1ccc(-c2ccc3cc(C([NH-])=O)n(C(=O)OC(C)(C)C)c3c2)cc1 (cis-trans isomerization)
CCOC(=O)Cn1nnnc1[N-]C(=O)/C=C/c1ccc(-c2ccc3cc(C([NH-])=O)n(C(=O)OC(C)(C)C)c3c2)cc1 (3D coordinates assigned)
CCOC(=O)Cn1nnnc1[N-]C(=O)/C=C/c1ccc(-c2ccc3cc(C([NH-])=O)n(C(=O)OC(C)(C)C)c3c2)cc1 (optimized conformer: 150.18814184197947 kcal/mol)

>  <smiles>  (70) 
CCOC(=O)Cn1nnnc1NC(=O)/C=C/c1ccc(-c2ccc3cc(C(N)=O)n(C(=O)OC(C)(C)C)c3c2)cc1

>  <score_type>  (70) 
oracle

>  <origin>  (70) 
adg

>  <m_score__min__energy>  (70) 
-10.33

>  <m_primary>  (70) 
energy

$$$$
70:0
     RDKit          3D

 54 56  0  0  0  0  0  0  0  0999 V2000
   -2.6870   14.8560  -36.6790 C   0  0  0  0  0  0  0  0  0  0  0  0
   -2.6960   15.4070  -35.3810 O   0  0  0  0  0  0  0  0  0  0  0  0
   -2.1040   14.4980  -34.4750 C   0  0  0  0  0  0  0  0  0  0  0  0
   -3.1940   13.6850  -33.7790 C   0  0  0  0  0  0  0  0  0  0  0  0
   -4.2520   14.5870  -33.2170 C   0  0  0  0  0  0  0  0  0  0  0  0
   -4.4580   14.5950  -31.9730 O   0  0  0  0  0  0  0  0  0  0  0  0
   -4.9830   15.4670  -34.0850 N   0  0  0  0  0  0  0  0  0  0  0  0
   -5.8570   16.4900  -33.5960 C   0  0  0  0  0  0  0  0  0  0  0  0
   -5.5000   17.7980  -33.3550 C   0  0  0  0  0  0  0  0  0  0  0  0
   -6.6720   18.3620  -32.8740 C   0  0  0  0  0  0  0  0  0  0  0  0
   -6.8720   19.7610  -32.4230 C   0  0  0  0  0  0  0  0  0  0  0  0
   -8.1550   20.3690  -32.4550 C   0  0  0  0  0  0  0  0  0  0  0  0
   -8.3290   21.7030  -32.0490 C   0  0  0  0  0  0  0  0  0  0  0  0
   -7.2100   22.4040  -31.6100 C   0  0  0  0  0  0  0  0  0  0  0  0
   -7.0880   23.7100  -31.1940 C   0  0  0  0  0  0  0  0  0  0  0  0
   -5.7380   23.8760  -30.8870 C   0  0  0  0  0  0  0  0  0  0  0  0
   -5.1770   25.1240  -30.3270 C   0  0  0  0  0  0  0  0  0  0  0  0
   -3.9540   25.6680  -30.8180 N   0  0  0  0  0  0  0  0  0  0  0  0
   -5.7660   25.6990  -29.3720 O   0  0  0  0  0  0  0  0  0  0  0  0
   -5.0530   22.7190  -31.1130 N   0  0  0  0  0  0  0  0  0  0  0  0
   -3.6450   22.4800  -30.9930 C   0  0  0  0  0  0  0  0  0  0  0  0
   -2.8660   23.4410  -30.7490 O   0  0  0  0  0  0  0  0  0  0  0  0
   -3.1540   21.1800  -31.1860 O   0  0  0  0  0  0  0  0  0  0  0  0
   -2.3840   20.7170  -32.3050 C   0  0  0  0  0  0  0  0  0  0  0  0
   -2.4960   19.1870  -32.4540 C   0  0  0  0  0  0  0  0  0  0  0  0
   -0.9120   21.1440  -32.1530 C   0  0  0  0  0  0  0  0  0  0  0  0
   -2.9680   21.3840  -33.5590 C   0  0  0  0  0  0  0  0  0  0  0  0
   -5.9690   21.8280  -31.5510 C   0  0  0  0  0  0  0  0  0  0  0  0
   -5.7620   20.5090  -31.9640 C   0  0  0  0  0  0  0  0  0  0  0  0
   -7.6430   17.4230  -32.8490 N   0  0  0  0  0  0  0  0  0  0  0  0
   -7.1190   16.3160  -33.2870 O   0  0  0  0  0  0  0  0  0  0  0  0
   -2.6691   13.7582  -36.6112 H   0  0  0  0  0  0  0  0  0  0  0  0
   -3.5905   15.1753  -37.2192 H   0  0  0  0  0  0  0  0  0  0  0  0
   -1.7944   15.2046  -37.2192 H   0  0  0  0  0  0  0  0  0  0  0  0
   -1.4343   13.8189  -35.0229 H   0  0  0  0  0  0  0  0  0  0  0  0
   -1.5275   15.0557  -33.7223 H   0  0  0  0  0  0  0  0  0  0  0  0
   -3.6532   12.9996  -34.5066 H   0  0  0  0  0  0  0  0  0  0  0  0
   -2.7389   13.1174  -32.9539 H   0  0  0  0  0  0  0  0  0  0  0  0
   -4.8330   15.3960  -35.1160 H   0  0  0  0  0  0  0  0  0  0  0  0
   -4.5224   18.2788  -33.5071 H   0  0  0  0  0  0  0  0  0  0  0  0
   -9.0229   19.7888  -32.8017 H   0  0  0  0  0  0  0  0  0  0  0  0
   -9.3203   22.1789  -32.0774 H   0  0  0  0  0  0  0  0  0  0  0  0
   -7.8862   24.4633  -31.1195 H   0  0  0  0  0  0  0  0  0  0  0  0
   -3.0330   25.2930  -30.4990 H   0  0  0  0  0  0  0  0  0  0  0  0
   -2.5300   18.7230  -31.4572 H   0  0  0  0  0  0  0  0  0  0  0  0
   -3.4147   18.9386  -33.0056 H   0  0  0  0  0  0  0  0  0  0  0  0
   -1.6232   18.8074  -33.0056 H   0  0  0  0  0  0  0  0  0  0  0  0
   -0.6599   21.2171  -31.0848 H   0  0  0  0  0  0  0  0  0  0  0  0
   -0.2622   20.3973  -32.6328 H   0  0  0  0  0  0  0  0  0  0  0  0
   -0.7626   22.1225  -32.6328 H   0  0  0  0  0  0  0  0  0  0  0  0
   -3.6653   22.1804  -33.2597 H   0  0  0  0  0  0  0  0  0  0  0  0
   -2.1528   21.8163  -34.1577 H   0  0  0  0  0  0  0  0  0  0  0  0
   -3.5042   20.6330  -34.1577 H   0  0  0  0  0  0  0  0  0  0  0  0
   -4.7575   20.0618  -31.9329 H   0  0  0  0  0  0  0  0  0  0  0  0
  1  2  1  0
  2  3  1  0
  3  4  1  0
  4  5  1  0
  5  6  2  0
  5  7  1  0
  7  8  1  0
  8  9  2  0
  9 10  1  0
 10 11  1  0
 11 12  2  0
 12 13  1  0
 13 14  2  0
 14 15  1  0
 15 16  2  0
 16 17  1  0
 17 18  1  0
 17 19  2  0
 16 20  1  0
 20 21  1  0
 21 22  2  0
 21 23  1  0
 23 24  1  0
 24 25  1  0
 24 26  1  0
 24 27  1  0
 20 28  1  0
 28 29  2  0
 10 30  2  0
 30 31  1  0
 31  8  1  0
 29 11  1  0
 28 14  1  0
  1 32  1  0
  1 33  1  0
  1 34  1  0
  3 35  1  0
  3 36  1  0
  4 37  1  0
  4 38  1  0
  7 39  1  0
  9 40  1  0
 12 41  1  0
 13 42  1  0
 15 43  1  0
 18 44  1  0
 25 45  1  0
 25 46  1  0
 25 47  1  0
 26 48  1  0
 26 49  1  0
 26 50  1  0
 27 51  1  0
 27 52  1  0
 27 53  1  0
 29 54  1  0
M  CHG  1  18  -1
M  END
>  <UniqueID>  (71) 
70

>  <SMILES>  (71) 
COCCC(=O)Nc1cc(-c2ccc3cc(C([NH-])=O)n(C(=O)OC(C)(C)C)c3c2)no1

>  <Energy>  (71) 
119.0708484685504

>  <Genealogy>  (71) 
COCCC(=O)Nc1cc(-c2ccc3cc(C([NH-])=O)n(C(=O)OC(C)(C)C)c3c2)no1 (protonated)
COCCC(=O)Nc1cc(-c2ccc3cc(C([NH-])=O)n(C(=O)OC(C)(C)C)c3c2)no1 (3D coordinates assigned)
COCCC(=O)Nc1cc(-c2ccc3cc(C([NH-])=O)n(C(=O)OC(C)(C)C)c3c2)no1 (optimized conformer: 119.0708484685504 kcal/mol)

>  <smiles>  (71) 
COCCC(=O)Nc1cc(-c2ccc3cc(C(N)=O)n(C(=O)OC(C)(C)C)c3c2)no1

>  <score_type>  (71) 
oracle

>  <origin>  (71) 
adg

>  <m_score__min__energy>  (71) 
-10.880000000000001

>  <m_primary>  (71) 
energy

$$$$
71:0
     RDKit          3D

 53 56  0  0  0  0  0  0  0  0999 V2000
   -4.0010   13.2320  -30.7680 C   0  0  0  0  0  0  0  0  0  0  0  0
   -3.9840   12.6200  -32.1640 C   0  0  0  0  0  0  0  0  0  0  0  0
   -5.2350   12.8950  -32.8660 N   0  0  0  0  0  0  0  0  0  0  0  0
   -5.4350   13.9290  -33.8410 C   0  0  0  0  0  0  0  0  0  0  0  0
   -5.3690   13.6290  -35.0640 O   0  0  0  0  0  0  0  0  0  0  0  0
   -5.7300   15.3230  -33.4590 C   0  0  0  0  0  0  0  0  0  0  0  0
   -5.0710   15.9070  -32.3690 C   0  0  0  0  0  0  0  0  0  0  0  0
   -5.3350   17.2330  -32.0120 C   0  0  0  0  0  0  0  0  0  0  0  0
   -6.2570   18.0000  -32.7480 C   0  0  0  0  0  0  0  0  0  0  0  0
   -6.5420   19.4090  -32.3700 C   0  0  0  0  0  0  0  0  0  0  0  0
   -7.8790   19.8880  -32.3410 C   0  0  0  0  0  0  0  0  0  0  0  0
   -8.1620   21.2120  -31.9670 C   0  0  0  0  0  0  0  0  0  0  0  0
   -7.0940   22.0370  -31.6340 C   0  0  0  0  0  0  0  0  0  0  0  0
   -7.0820   23.3540  -31.2280 C   0  0  0  0  0  0  0  0  0  0  0  0
   -5.7370   23.6640  -31.0300 C   0  0  0  0  0  0  0  0  0  0  0  0
   -5.2460   24.9920  -30.6110 C   0  0  0  0  0  0  0  0  0  0  0  0
   -3.8540   25.2910  -30.6840 N   0  0  0  0  0  0  0  0  0  0  0  0
   -6.0440   25.8660  -30.1770 O   0  0  0  0  0  0  0  0  0  0  0  0
   -4.9560   22.5850  -31.3090 N   0  0  0  0  0  0  0  0  0  0  0  0
   -3.5280   22.4890  -31.2030 C   0  0  0  0  0  0  0  0  0  0  0  0
   -2.8540   22.2450  -32.2390 O   0  0  0  0  0  0  0  0  0  0  0  0
   -2.8760   22.6400  -29.9220 N   0  0  0  0  0  0  0  0  0  0  0  0
   -1.4100   22.6600  -29.8240 C   0  0  0  0  0  0  0  0  0  0  0  0
   -0.9150   21.4190  -29.0820 C   0  0  0  0  0  0  0  0  0  0  0  0
   -1.7200   21.1360  -27.4530 S   0  0  0  0  0  0  0  0  0  0  0  0
   -2.8470   22.5750  -27.4260 C   0  0  0  0  0  0  0  0  0  0  0  0
   -3.6940   22.6370  -28.6980 C   0  0  0  0  0  0  0  0  0  0  0  0
   -5.7990   21.5980  -31.6720 C   0  0  0  0  0  0  0  0  0  0  0  0
   -5.4830   20.2840  -32.0270 C   0  0  0  0  0  0  0  0  0  0  0  0
   -6.9010   17.4130  -33.8520 C   0  0  0  0  0  0  0  0  0  0  0  0
   -6.6320   16.0900  -34.2090 C   0  0  0  0  0  0  0  0  0  0  0  0
   -3.9787   12.4298  -30.0157 H   0  0  0  0  0  0  0  0  0  0  0  0
   -3.1205   13.8789  -30.6405 H   0  0  0  0  0  0  0  0  0  0  0  0
   -4.9161   13.8290  -30.6405 H   0  0  0  0  0  0  0  0  0  0  0  0
   -3.1478   13.0489  -32.7357 H   0  0  0  0  0  0  0  0  0  0  0  0
   -3.8645   11.5306  -32.0700 H   0  0  0  0  0  0  0  0  0  0  0  0
   -4.3423   15.3194  -31.7912 H   0  0  0  0  0  0  0  0  0  0  0  0
   -4.8183   17.6796  -31.1497 H   0  0  0  0  0  0  0  0  0  0  0  0
   -8.7034   19.2133  -32.6150 H   0  0  0  0  0  0  0  0  0  0  0  0
   -9.1966   21.5844  -31.9385 H   0  0  0  0  0  0  0  0  0  0  0  0
   -7.9479   24.0182  -31.0898 H   0  0  0  0  0  0  0  0  0  0  0  0
   -3.5010   26.0510  -31.3050 H   0  0  0  0  0  0  0  0  0  0  0  0
   -0.9781   22.6752  -30.8356 H   0  0  0  0  0  0  0  0  0  0  0  0
   -1.0990   23.5580  -29.2700 H   0  0  0  0  0  0  0  0  0  0  0  0
   -1.1042   20.5406  -29.7164 H   0  0  0  0  0  0  0  0  0  0  0  0
    0.1542   21.5799  -28.8799 H   0  0  0  0  0  0  0  0  0  0  0  0
   -3.5134   22.4928  -26.5547 H   0  0  0  0  0  0  0  0  0  0  0  0
   -2.2413   23.4912  -27.3654 H   0  0  0  0  0  0  0  0  0  0  0  0
   -4.3598   21.7617  -28.7211 H   0  0  0  0  0  0  0  0  0  0  0  0
   -4.2628   23.5782  -28.6745 H   0  0  0  0  0  0  0  0  0  0  0  0
   -4.4388   19.9384  -32.0397 H   0  0  0  0  0  0  0  0  0  0  0  0
   -7.6223   18.0007  -34.4389 H   0  0  0  0  0  0  0  0  0  0  0  0
   -7.1308   15.6473  -35.0838 H   0  0  0  0  0  0  0  0  0  0  0  0
  1  2  1  0
  2  3  1  0
  3  4  1  0
  4  5  2  0
  4  6  1  0
  6  7  2  0
  7  8  1  0
  8  9  2  0
  9 10  1  0
 10 11  2  0
 11 12  1  0
 12 13  2  0
 13 14  1  0
 14 15  2  0
 15 16  1  0
 16 17  1  0
 16 18  2  0
 15 19  1  0
 19 20  1  0
 20 21  2  0
 20 22  1  0
 22 23  1  0
 23 24  1  0
 24 25  1  0
 25 26  1  0
 26 27  1  0
 19 28  1  0
 28 29  2  0
  9 30  1  0
 30 31  2  0
 31  6  1  0
 29 10  1  0
 28 13  1  0
 27 22  1  0
  1 32  1  0
  1 33  1  0
  1 34  1  0
  2 35  1  0
  2 36  1  0
  7 37  1  0
  8 38  1  0
 11 39  1  0
 12 40  1  0
 14 41  1  0
 17 42  1  0
 23 43  1  0
 23 44  1  0
 24 45  1  0
 24 46  1  0
 26 47  1  0
 26 48  1  0
 27 49  1  0
 27 50  1  0
 29 51  1  0
 30 52  1  0
 31 53  1  0
M  CHG  2   3  -1  17  -1
M  END
>  <UniqueID>  (72) 
71

>  <SMILES>  (72) 
CC[N-]C(=O)c1ccc(-c2ccc3cc(C([NH-])=O)n(C(=O)N4CCSCC4)c3c2)cc1

>  <Energy>  (72) 
102.66124083303993

>  <Genealogy>  (72) 
CC[N-]C(=O)c1ccc(-c2ccc3cc(C([NH-])=O)n(C(=O)N4CCSCC4)c3c2)cc1 (protonated)
CC[N-]C(=O)c1ccc(-c2ccc3cc(C([NH-])=O)n(C(=O)N4CCSCC4)c3c2)cc1 (3D coordinates assigned)
CC[N-]C(=O)c1ccc(-c2ccc3cc(C([NH-])=O)n(C(=O)N4CCSCC4)c3c2)cc1 (nonaromatic ring conformer: 102.66124083303993 kcal/mol)

>  <smiles>  (72) 
CCNC(=O)c1ccc(-c2ccc3cc(C(N)=O)n(C(=O)N4CCSCC4)c3c2)cc1

>  <score_type>  (72) 
oracle

>  <origin>  (72) 
adg

>  <m_score__min__energy>  (72) 
-11.93

>  <m_primary>  (72) 
energy

$$$$
72:0
     RDKit          3D

 59 60  0  0  0  0  0  0  0  0999 V2000
   -6.4800   17.5990  -33.9240 C   0  0  0  0  0  0  0  0  0  0  0  0
   -6.9520   18.7090  -33.0340 C   0  0  0  0  0  0  0  0  0  0  0  0
   -8.2320   18.6410  -32.4310 C   0  0  0  0  0  0  0  0  0  0  0  0
   -8.6900   19.6840  -31.6060 C   0  0  0  0  0  0  0  0  0  0  0  0
   -7.8600   20.7850  -31.4270 C   0  0  0  0  0  0  0  0  0  0  0  0
   -8.0440   21.9190  -30.6670 C   0  0  0  0  0  0  0  0  0  0  0  0
   -6.8940   22.6830  -30.8560 C   0  0  0  0  0  0  0  0  0  0  0  0
   -6.6860   24.0260  -30.2720 C   0  0  0  0  0  0  0  0  0  0  0  0
   -5.5300   24.3100  -29.4800 N   0  0  0  0  0  0  0  0  0  0  0  0
   -7.5410   24.9330  -30.4490 O   0  0  0  0  0  0  0  0  0  0  0  0
   -6.0370   22.0490  -31.7060 N   0  0  0  0  0  0  0  0  0  0  0  0
   -4.7390   22.4990  -32.1320 C   0  0  0  0  0  0  0  0  0  0  0  0
   -4.1640   23.4300  -31.5050 O   0  0  0  0  0  0  0  0  0  0  0  0
   -4.0460   21.8470  -33.2920 C   0  0  0  0  0  0  0  0  0  0  0  0
   -2.6060   20.9160  -32.7730 S   0  0  0  0  0  0  0  0  0  0  0  0
   -1.7200   20.7130  -33.9690 O   0  0  0  0  0  0  0  0  0  0  0  0
   -3.0180   19.5720  -32.2550 O   0  0  0  0  0  0  0  0  0  0  0  0
   -1.6850   21.8490  -31.5390 C   0  0  0  0  0  0  0  0  0  0  0  0
   -1.8280   21.4180  -30.0390 C   0  0  0  0  0  0  0  0  0  0  0  0
   -0.9620   20.1910  -29.6720 C   0  0  0  0  0  0  0  0  0  0  0  0
   -3.3050   21.0180  -29.8160 C   0  0  0  0  0  0  0  0  0  0  0  0
   -1.5320   22.6000  -29.0730 C   0  0  0  0  0  0  0  0  0  0  0  0
   -2.6390   23.4840  -28.9130 O   0  0  0  0  0  0  0  0  0  0  0  0
   -2.5820   24.8180  -29.3440 C   0  0  0  0  0  0  0  0  0  0  0  0
   -3.4890   25.2860  -30.0850 O   0  0  0  0  0  0  0  0  0  0  0  0
   -1.5130   25.6760  -28.9360 N   0  0  0  0  0  0  0  0  0  0  0  0
   -1.0600   25.8170  -27.5590 C   0  0  0  0  0  0  0  0  0  0  0  0
    0.2120   24.9960  -27.3620 C   0  0  0  0  0  0  0  0  0  0  0  0
   -2.1560   25.3520  -26.5990 C   0  0  0  0  0  0  0  0  0  0  0  0
   -6.6380   20.8840  -32.0380 C   0  0  0  0  0  0  0  0  0  0  0  0
   -6.1440   19.8520  -32.8430 C   0  0  0  0  0  0  0  0  0  0  0  0
   -6.1236   16.7608  -33.3072 H   0  0  0  0  0  0  0  0  0  0  0  0
   -7.3115   17.2594  -34.5590 H   0  0  0  0  0  0  0  0  0  0  0  0
   -5.6585   17.9623  -34.5590 H   0  0  0  0  0  0  0  0  0  0  0  0
   -8.8731   17.7652  -32.6095 H   0  0  0  0  0  0  0  0  0  0  0  0
   -9.6742   19.6303  -31.1176 H   0  0  0  0  0  0  0  0  0  0  0  0
   -8.9147   22.1687  -30.0428 H   0  0  0  0  0  0  0  0  0  0  0  0
   -4.7460   23.6250  -29.4010 H   0  0  0  0  0  0  0  0  0  0  0  0
   -5.4300   25.2380  -29.0130 H   0  0  0  0  0  0  0  0  0  0  0  0
   -4.7507   21.1641  -33.7891 H   0  0  0  0  0  0  0  0  0  0  0  0
   -3.7107   22.6391  -33.9776 H   0  0  0  0  0  0  0  0  0  0  0  0
   -0.6191   21.7761  -31.8010 H   0  0  0  0  0  0  0  0  0  0  0  0
   -2.1159   22.8603  -31.5785 H   0  0  0  0  0  0  0  0  0  0  0  0
   -0.8986   20.1011  -28.5775 H   0  0  0  0  0  0  0  0  0  0  0  0
   -1.4194   19.2815  -30.0887 H   0  0  0  0  0  0  0  0  0  0  0  0
    0.0482   20.3173  -30.0887 H   0  0  0  0  0  0  0  0  0  0  0  0
   -3.5109   20.9622  -28.7369 H   0  0  0  0  0  0  0  0  0  0  0  0
   -3.9622   21.7705  -30.2762 H   0  0  0  0  0  0  0  0  0  0  0  0
   -3.4926   20.0367  -30.2762 H   0  0  0  0  0  0  0  0  0  0  0  0
   -1.2676   22.1887  -28.0877 H   0  0  0  0  0  0  0  0  0  0  0  0
   -0.7085   23.1827  -29.5114 H   0  0  0  0  0  0  0  0  0  0  0  0
   -0.8410   26.8738  -27.3465 H   0  0  0  0  0  0  0  0  0  0  0  0
    0.4051   24.8714  -26.2863 H   0  0  0  0  0  0  0  0  0  0  0  0
    0.0867   24.0079  -27.8289 H   0  0  0  0  0  0  0  0  0  0  0  0
    1.0608   25.5171  -27.8289 H   0  0  0  0  0  0  0  0  0  0  0  0
   -1.8195   25.4948  -25.5615 H   0  0  0  0  0  0  0  0  0  0  0  0
   -3.0692   25.9402  -26.7725 H   0  0  0  0  0  0  0  0  0  0  0  0
   -2.3676   24.2866  -26.7725 H   0  0  0  0  0  0  0  0  0  0  0  0
   -5.1531   19.9285  -33.3145 H   0  0  0  0  0  0  0  0  0  0  0  0
  1  2  1  0
  2  3  2  0
  3  4  1  0
  4  5  2  0
  5  6  1  0
  6  7  2  0
  7  8  1  0
  8  9  1  0
  8 10  2  0
  7 11  1  0
 11 12  1  0
 12 13  2  0
 12 14  1  0
 14 15  1  0
 15 16  2  0
 15 17  2  0
 15 18  1  0
 18 19  1  0
 19 20  1  0
 19 21  1  0
 19 22  1  0
 22 23  1  0
 23 24  1  0
 24 25  2  0
 24 26  1  0
 26 27  1  0
 27 28  1  0
 27 29  1  0
 11 30  1  0
 30 31  2  0
 31  2  1  0
 30  5  1  0
  1 32  1  0
  1 33  1  0
  1 34  1  0
  3 35  1  0
  4 36  1  0
  6 37  1  0
  9 38  1  0
  9 39  1  0
 14 40  1  0
 14 41  1  0
 18 42  1  0
 18 43  1  0
 20 44  1  0
 20 45  1  0
 20 46  1  0
 21 47  1  0
 21 48  1  0
 21 49  1  0
 22 50  1  0
 22 51  1  0
 27 52  1  0
 28 53  1  0
 28 54  1  0
 28 55  1  0
 29 56  1  0
 29 57  1  0
 29 58  1  0
 31 59  1  0
M  CHG  1  26  -1
M  END
>  <UniqueID>  (73) 
72

>  <SMILES>  (73) 
Cc1ccc2cc(C(N)=O)n(C(=O)CS(=O)(=O)CC(C)(C)COC(=O)[N-]C(C)C)c2c1

>  <Energy>  (73) 
82.96176597733724

>  <Genealogy>  (73) 
Cc1ccc2cc(C(N)=O)n(C(=O)CS(=O)(=O)CC(C)(C)COC(=O)[N-]C(C)C)c2c1 (protonated)
Cc1ccc2cc(C(N)=O)n(C(=O)CS(=O)(=O)CC(C)(C)COC(=O)[N-]C(C)C)c2c1 (3D coordinates assigned)
Cc1ccc2cc(C(N)=O)n(C(=O)CS(=O)(=O)CC(C)(C)COC(=O)[N-]C(C)C)c2c1 (optimized conformer: 82.96176597733724 kcal/mol)

>  <smiles>  (73) 
Cc1ccc2cc(C(N)=O)n(C(=O)CS(=O)(=O)CC(C)(C)COC(=O)NC(C)C)c2c1

>  <score_type>  (73) 
oracle

>  <origin>  (73) 
adg

>  <m_score__min__energy>  (73) 
-11.81

>  <m_primary>  (73) 
energy

$$$$
73:0
     RDKit          3D

 55 57  0  0  0  0  0  0  0  0999 V2000
   -4.6140   13.0630  -31.1220 C   0  0  0  0  0  0  0  0  0  0  0  0
   -4.6030   14.1450  -32.1960 C   0  0  0  0  0  0  0  0  0  0  0  0
   -4.6680   13.5320  -33.6020 C   0  0  0  0  0  0  0  0  0  0  0  0
   -5.5300   14.3660  -34.5620 C   0  0  0  0  0  0  0  0  0  0  0  0
   -5.7470   15.7620  -34.0520 C   0  0  0  0  0  0  0  0  0  0  0  0
   -4.7490   16.7360  -34.1850 C   0  0  0  0  0  0  0  0  0  0  0  0
   -4.9900   18.0310  -33.7250 C   0  0  0  0  0  0  0  0  0  0  0  0
   -6.2250   18.3580  -33.1400 C   0  0  0  0  0  0  0  0  0  0  0  0
   -6.4960   19.7320  -32.6490 C   0  0  0  0  0  0  0  0  0  0  0  0
   -7.8280   20.2220  -32.5880 C   0  0  0  0  0  0  0  0  0  0  0  0
   -8.0940   21.5270  -32.1400 C   0  0  0  0  0  0  0  0  0  0  0  0
   -7.0170   22.3170  -31.7540 C   0  0  0  0  0  0  0  0  0  0  0  0
   -6.9890   23.6200  -31.3100 C   0  0  0  0  0  0  0  0  0  0  0  0
   -5.6440   23.9040  -31.0820 C   0  0  0  0  0  0  0  0  0  0  0  0
   -5.1640   25.1840  -30.5200 C   0  0  0  0  0  0  0  0  0  0  0  0
   -3.8710   25.6730  -30.8720 N   0  0  0  0  0  0  0  0  0  0  0  0
   -5.8960   25.8680  -29.7570 O   0  0  0  0  0  0  0  0  0  0  0  0
   -4.8700   22.8210  -31.3780 N   0  0  0  0  0  0  0  0  0  0  0  0
   -3.4370   22.7350  -31.3530 C   0  0  0  0  0  0  0  0  0  0  0  0
   -2.8200   22.3050  -32.3660 O   0  0  0  0  0  0  0  0  0  0  0  0
   -2.7410   23.1500  -30.2080 O   0  0  0  0  0  0  0  0  0  0  0  0
   -2.8370   22.5750  -28.8970 C   0  0  0  0  0  0  0  0  0  0  0  0
   -4.0520   23.1470  -28.1420 C   0  0  0  0  0  0  0  0  0  0  0  0
   -2.9230   21.0390  -28.9860 C   0  0  0  0  0  0  0  0  0  0  0  0
   -1.5570   22.9580  -28.1390 C   0  0  0  0  0  0  0  0  0  0  0  0
   -5.7260   21.8580  -31.7870 C   0  0  0  0  0  0  0  0  0  0  0  0
   -5.4280   20.5700  -32.2450 C   0  0  0  0  0  0  0  0  0  0  0  0
   -7.1980   17.3490  -33.0340 C   0  0  0  0  0  0  0  0  0  0  0  0
   -6.9390   16.0950  -33.4870 N   0  0  0  0  0  0  0  0  0  0  0  0
   -4.6092   13.5333  -30.1276 H   0  0  0  0  0  0  0  0  0  0  0  0
   -5.5185   12.4466  -31.2317 H   0  0  0  0  0  0  0  0  0  0  0  0
   -3.7223   12.4284  -31.2317 H   0  0  0  0  0  0  0  0  0  0  0  0
   -5.4722   14.8034  -32.0510 H   0  0  0  0  0  0  0  0  0  0  0  0
   -3.6661   14.7145  -32.1072 H   0  0  0  0  0  0  0  0  0  0  0  0
   -3.6475   13.4681  -34.0076 H   0  0  0  0  0  0  0  0  0  0  0  0
   -5.1284   12.5368  -33.5144 H   0  0  0  0  0  0  0  0  0  0  0  0
   -5.0256   14.4186  -35.5381 H   0  0  0  0  0  0  0  0  0  0  0  0
   -6.5123   13.8785  -34.6485 H   0  0  0  0  0  0  0  0  0  0  0  0
   -3.7840   16.4821  -34.6479 H   0  0  0  0  0  0  0  0  0  0  0  0
   -4.2092   18.7999  -33.8208 H   0  0  0  0  0  0  0  0  0  0  0  0
   -8.6608   19.5723  -32.8950 H   0  0  0  0  0  0  0  0  0  0  0  0
   -9.1235   21.9120  -32.0960 H   0  0  0  0  0  0  0  0  0  0  0  0
   -7.8464   24.2938  -31.1659 H   0  0  0  0  0  0  0  0  0  0  0  0
   -3.0110   25.2740  -30.4380 H   0  0  0  0  0  0  0  0  0  0  0  0
   -3.8813   23.0667  -27.0583 H   0  0  0  0  0  0  0  0  0  0  0  0
   -4.1885   24.2040  -28.4143 H   0  0  0  0  0  0  0  0  0  0  0  0
   -4.9537   22.5788  -28.4143 H   0  0  0  0  0  0  0  0  0  0  0  0
   -2.9468   20.6137  -27.9718 H   0  0  0  0  0  0  0  0  0  0  0  0
   -3.8385   20.7536  -29.5249 H   0  0  0  0  0  0  0  0  0  0  0  0
   -2.0450   20.6532  -29.5249 H   0  0  0  0  0  0  0  0  0  0  0  0
   -1.7417   22.9027  -27.0560 H   0  0  0  0  0  0  0  0  0  0  0  0
   -0.7489   22.2623  -28.4091 H   0  0  0  0  0  0  0  0  0  0  0  0
   -1.2638   23.9832  -28.4091 H   0  0  0  0  0  0  0  0  0  0  0  0
   -4.3875   20.2161  -32.2903 H   0  0  0  0  0  0  0  0  0  0  0  0
   -8.1746   17.5763  -32.5817 H   0  0  0  0  0  0  0  0  0  0  0  0
  1  2  1  0
  2  3  1  0
  3  4  1  0
  4  5  1  0
  5  6  2  0
  6  7  1  0
  7  8  2  0
  8  9  1  0
  9 10  2  0
 10 11  1  0
 11 12  2  0
 12 13  1  0
 13 14  2  0
 14 15  1  0
 15 16  1  0
 15 17  2  0
 14 18  1  0
 18 19  1  0
 19 20  2  0
 19 21  1  0
 21 22  1  0
 22 23  1  0
 22 24  1  0
 22 25  1  0
 18 26  1  0
 26 27  2  0
  8 28  1  0
 28 29  2  0
 29  5  1  0
 27  9  1  0
 26 12  1  0
  1 30  1  0
  1 31  1  0
  1 32  1  0
  2 33  1  0
  2 34  1  0
  3 35  1  0
  3 36  1  0
  4 37  1  0
  4 38  1  0
  6 39  1  0
  7 40  1  0
 10 41  1  0
 11 42  1  0
 13 43  1  0
 16 44  1  0
 23 45  1  0
 23 46  1  0
 23 47  1  0
 24 48  1  0
 24 49  1  0
 24 50  1  0
 25 51  1  0
 25 52  1  0
 25 53  1  0
 27 54  1  0
 28 55  1  0
M  CHG  1  16  -1
M  END
>  <UniqueID>  (74) 
73

>  <SMILES>  (74) 
CCCCc1ccc(-c2ccc3cc(C([NH-])=O)n(C(=O)OC(C)(C)C)c3c2)cn1

>  <Energy>  (74) 
88.90647486478692

>  <Genealogy>  (74) 
CCCCc1ccc(-c2ccc3cc(C([NH-])=O)n(C(=O)OC(C)(C)C)c3c2)cn1 (protonated)
CCCCc1ccc(-c2ccc3cc(C([NH-])=O)n(C(=O)OC(C)(C)C)c3c2)cn1 (3D coordinates assigned)
CCCCc1ccc(-c2ccc3cc(C([NH-])=O)n(C(=O)OC(C)(C)C)c3c2)cn1 (optimized conformer: 88.90647486478692 kcal/mol)

>  <smiles>  (74) 
CCCCc1ccc(-c2ccc3cc(C(N)=O)n(C(=O)OC(C)(C)C)c3c2)cn1

>  <score_type>  (74) 
oracle

>  <origin>  (74) 
adg

>  <m_score__min__energy>  (74) 
-11.199999999999999

>  <m_primary>  (74) 
energy

$$$$
74:0
     RDKit          3D

 63 65  0  0  0  0  0  0  0  0999 V2000
   -2.2360   13.1090  -31.7280 C   0  0  0  0  0  0  0  0  0  0  0  0
   -3.6170   13.5980  -32.2060 C   0  0  0  0  0  0  0  0  0  0  0  0
   -4.6260   13.4320  -31.0590 C   0  0  0  0  0  0  0  0  0  0  0  0
   -4.0970   12.7750  -33.4150 C   0  0  0  0  0  0  0  0  0  0  0  0
   -3.5730   14.9950  -32.5290 O   0  0  0  0  0  0  0  0  0  0  0  0
   -4.0280   15.5920  -33.7150 C   0  0  0  0  0  0  0  0  0  0  0  0
   -3.4220   15.3990  -34.8050 O   0  0  0  0  0  0  0  0  0  0  0  0
   -5.1960   16.4330  -33.6780 N   0  0  0  0  0  0  0  0  0  0  0  0
   -5.6780   17.1240  -34.8850 C   0  0  0  0  0  0  0  0  0  0  0  0
   -6.0510   18.5780  -34.5540 C   0  0  0  0  0  0  0  0  0  0  0  0
   -6.7630   18.6780  -33.2710 N   0  0  0  0  0  0  0  0  0  0  0  0
   -6.9210   19.9680  -32.6500 C   0  0  0  0  0  0  0  0  0  0  0  0
   -8.2150   20.4510  -32.3310 C   0  0  0  0  0  0  0  0  0  0  0  0
   -8.3810   21.7100  -31.7280 C   0  0  0  0  0  0  0  0  0  0  0  0
   -7.2420   22.4670  -31.4720 C   0  0  0  0  0  0  0  0  0  0  0  0
   -7.1140   23.7030  -30.8810 C   0  0  0  0  0  0  0  0  0  0  0  0
   -5.7470   23.9710  -30.8800 C   0  0  0  0  0  0  0  0  0  0  0  0
   -5.1680   25.2450  -30.4050 C   0  0  0  0  0  0  0  0  0  0  0  0
   -3.8810   25.6720  -30.8390 N   0  0  0  0  0  0  0  0  0  0  0  0
   -5.8410   25.9900  -29.6420 O   0  0  0  0  0  0  0  0  0  0  0  0
   -5.0550   22.9400  -31.4420 N   0  0  0  0  0  0  0  0  0  0  0  0
   -3.6300   22.7890  -31.5410 C   0  0  0  0  0  0  0  0  0  0  0  0
   -2.8890   23.2330  -30.6240 O   0  0  0  0  0  0  0  0  0  0  0  0
   -3.0800   22.1720  -32.6760 O   0  0  0  0  0  0  0  0  0  0  0  0
   -2.3710   20.9230  -32.7060 C   0  0  0  0  0  0  0  0  0  0  0  0
   -2.3810   20.2610  -31.3160 C   0  0  0  0  0  0  0  0  0  0  0  0
   -0.9200   21.2360  -33.0970 C   0  0  0  0  0  0  0  0  0  0  0  0
   -2.9790   19.9800  -33.7620 C   0  0  0  0  0  0  0  0  0  0  0  0
   -5.9850   22.0270  -31.7990 C   0  0  0  0  0  0  0  0  0  0  0  0
   -5.7890   20.7680  -32.3780 C   0  0  0  0  0  0  0  0  0  0  0  0
   -7.1650   17.4530  -32.5700 C   0  0  0  0  0  0  0  0  0  0  0  0
   -5.9500   16.5360  -32.4190 C   0  0  0  0  0  0  0  0  0  0  0  0
   -2.2107   13.1000  -30.6283 H   0  0  0  0  0  0  0  0  0  0  0  0
   -2.0556   12.0923  -32.1072 H   0  0  0  0  0  0  0  0  0  0  0  0
   -1.4560   13.7856  -32.1072 H   0  0  0  0  0  0  0  0  0  0  0  0
   -4.1029   13.5181  -30.0952 H   0  0  0  0  0  0  0  0  0  0  0  0
   -5.3945   14.2158  -31.1304 H   0  0  0  0  0  0  0  0  0  0  0  0
   -5.1029   12.4433  -31.1304 H   0  0  0  0  0  0  0  0  0  0  0  0
   -4.6217   11.8753  -33.0611 H   0  0  0  0  0  0  0  0  0  0  0  0
   -4.7820   13.3833  -34.0239 H   0  0  0  0  0  0  0  0  0  0  0  0
   -3.2303   12.4783  -34.0239 H   0  0  0  0  0  0  0  0  0  0  0  0
   -4.8855   17.1173  -35.6479 H   0  0  0  0  0  0  0  0  0  0  0  0
   -6.5698   16.6030  -35.2636 H   0  0  0  0  0  0  0  0  0  0  0  0
   -5.1310   19.1784  -34.4989 H   0  0  0  0  0  0  0  0  0  0  0  0
   -6.7175   18.9500  -35.3461 H   0  0  0  0  0  0  0  0  0  0  0  0
   -9.0976   19.8348  -32.5575 H   0  0  0  0  0  0  0  0  0  0  0  0
   -9.3813   22.0854  -31.4664 H   0  0  0  0  0  0  0  0  0  0  0  0
   -7.9196   24.3432  -30.4921 H   0  0  0  0  0  0  0  0  0  0  0  0
   -3.0120   25.3000  -30.3970 H   0  0  0  0  0  0  0  0  0  0  0  0
   -2.3692   21.0395  -30.5390 H   0  0  0  0  0  0  0  0  0  0  0  0
   -3.2885   19.6488  -31.2080 H   0  0  0  0  0  0  0  0  0  0  0  0
   -1.4924   19.6217  -31.2080 H   0  0  0  0  0  0  0  0  0  0  0  0
   -0.3152   21.3665  -32.1875 H   0  0  0  0  0  0  0  0  0  0  0  0
   -0.5131   20.4050  -33.6918 H   0  0  0  0  0  0  0  0  0  0  0  0
   -0.8919   22.1609  -33.6918 H   0  0  0  0  0  0  0  0  0  0  0  0
   -3.5088   19.1582  -33.2581 H   0  0  0  0  0  0  0  0  0  0  0  0
   -3.6860   20.5410  -34.3909 H   0  0  0  0  0  0  0  0  0  0  0  0
   -2.1763   19.5676  -34.3909 H   0  0  0  0  0  0  0  0  0  0  0  0
   -4.7766   20.4096  -32.6158 H   0  0  0  0  0  0  0  0  0  0  0  0
   -7.5570   17.7106  -31.5750 H   0  0  0  0  0  0  0  0  0  0  0  0
   -7.9467   16.9374  -33.1471 H   0  0  0  0  0  0  0  0  0  0  0  0
   -5.2898   16.9422  -31.6385 H   0  0  0  0  0  0  0  0  0  0  0  0
   -6.3058   15.5318  -32.1452 H   0  0  0  0  0  0  0  0  0  0  0  0
  1  2  1  0
  2  3  1  0
  2  4  1  0
  2  5  1  0
  5  6  1  0
  6  7  2  0
  6  8  1  0
  8  9  1  0
  9 10  1  0
 10 11  1  0
 11 12  1  0
 12 13  2  0
 13 14  1  0
 14 15  2  0
 15 16  1  0
 16 17  2  0
 17 18  1  0
 18 19  1  0
 18 20  2  0
 17 21  1  0
 21 22  1  0
 22 23  2  0
 22 24  1  0
 24 25  1  0
 25 26  1  0
 25 27  1  0
 25 28  1  0
 21 29  1  0
 29 30  2  0
 11 31  1  0
 31 32  1  0
 32  8  1  0
 30 12  1  0
 29 15  1  0
  1 33  1  0
  1 34  1  0
  1 35  1  0
  3 36  1  0
  3 37  1  0
  3 38  1  0
  4 39  1  0
  4 40  1  0
  4 41  1  0
  9 42  1  0
  9 43  1  0
 10 44  1  0
 10 45  1  0
 13 46  1  0
 14 47  1  0
 16 48  1  0
 19 49  1  0
 26 50  1  0
 26 51  1  0
 26 52  1  0
 27 53  1  0
 27 54  1  0
 27 55  1  0
 28 56  1  0
 28 57  1  0
 28 58  1  0
 30 59  1  0
 31 60  1  0
 31 61  1  0
 32 62  1  0
 32 63  1  0
M  CHG  1  19  -1
M  END
>  <UniqueID>  (75) 
74

>  <SMILES>  (75) 
CC(C)(C)OC(=O)N1CCN(c2ccc3cc(C([NH-])=O)n(C(=O)OC(C)(C)C)c3c2)CC1

>  <Energy>  (75) 
96.74307480153236

>  <Genealogy>  (75) 
CC(C)(C)OC(=O)N1CCN(c2ccc3cc(C([NH-])=O)n(C(=O)OC(C)(C)C)c3c2)CC1 (protonated)
CC(C)(C)OC(=O)N1CCN(c2ccc3cc(C([NH-])=O)n(C(=O)OC(C)(C)C)c3c2)CC1 (3D coordinates assigned)
CC(C)(C)OC(=O)N1CCN(c2ccc3cc(C([NH-])=O)n(C(=O)OC(C)(C)C)c3c2)CC1 (nonaromatic ring conformer: 96.74307480153236 kcal/mol)

>  <smiles>  (75) 
CC(C)(C)OC(=O)N1CCN(c2ccc3cc(C(N)=O)n(C(=O)OC(C)(C)C)c3c2)CC1

>  <score_type>  (75) 
oracle

>  <origin>  (75) 
adg

>  <m_score__min__energy>  (75) 
-11.51

>  <m_primary>  (75) 
energy

$$$$
75:0
     RDKit          3D

 55 58  0  0  0  0  0  0  0  0999 V2000
   -4.4680   22.6660  -28.8830 C   0  0  0  0  0  0  0  0  0  0  0  0
   -4.2670   24.1840  -28.7050 C   0  0  0  0  0  0  0  0  0  0  0  0
   -4.1560   24.5450  -27.2110 C   0  0  0  0  0  0  0  0  0  0  0  0
   -5.4730   24.9200  -29.3060 C   0  0  0  0  0  0  0  0  0  0  0  0
   -3.1030   24.6260  -29.4180 O   0  0  0  0  0  0  0  0  0  0  0  0
   -1.7690   24.4730  -29.0100 C   0  0  0  0  0  0  0  0  0  0  0  0
   -1.0730   25.4720  -28.6840 O   0  0  0  0  0  0  0  0  0  0  0  0
   -1.1970   23.1560  -28.9540 N   0  0  0  0  0  0  0  0  0  0  0  0
   -0.1750   22.7370  -28.1580 C   0  0  0  0  0  0  0  0  0  0  0  0
    0.4260   23.5050  -27.0490 C   0  0  0  0  0  0  0  0  0  0  0  0
    1.0730   24.7570  -27.2810 N   0  0  0  0  0  0  0  0  0  0  0  0
    0.3230   23.0730  -25.8690 O   0  0  0  0  0  0  0  0  0  0  0  0
    0.2250   21.4500  -28.5070 C   0  0  0  0  0  0  0  0  0  0  0  0
   -0.5970   21.0860  -29.5490 C   0  0  0  0  0  0  0  0  0  0  0  0
   -0.6160   19.9200  -30.3060 C   0  0  0  0  0  0  0  0  0  0  0  0
   -1.5330   19.8380  -31.3660 C   0  0  0  0  0  0  0  0  0  0  0  0
   -2.4060   20.9140  -31.6590 C   0  0  0  0  0  0  0  0  0  0  0  0
   -3.3080   20.7980  -32.7760 N   0  0  0  0  0  0  0  0  0  0  0  0
   -4.2400   21.8460  -33.2020 C   0  0  0  0  0  0  0  0  0  0  0  0
   -5.6470   21.5550  -32.7230 C   0  0  0  0  0  0  0  0  0  0  0  0
   -6.4550   22.6130  -32.2680 C   0  0  0  0  0  0  0  0  0  0  0  0
   -7.7590   22.3770  -31.8270 C   0  0  0  0  0  0  0  0  0  0  0  0
   -8.2870   21.0860  -31.8490 C   0  0  0  0  0  0  0  0  0  0  0  0
   -7.5120   20.0200  -32.3250 C   0  0  0  0  0  0  0  0  0  0  0  0
   -8.0330   18.7190  -32.3760 C   0  0  0  0  0  0  0  0  0  0  0  0
   -7.2470   17.6760  -32.8690 C   0  0  0  0  0  0  0  0  0  0  0  0
   -5.9450   17.9400  -33.2960 C   0  0  0  0  0  0  0  0  0  0  0  0
   -5.4500   19.2040  -33.2380 N   0  0  0  0  0  0  0  0  0  0  0  0
   -6.1890   20.2500  -32.7690 C   0  0  0  0  0  0  0  0  0  0  0  0
   -2.3630   22.0810  -30.8570 C   0  0  0  0  0  0  0  0  0  0  0  0
   -1.4470   22.1320  -29.7990 C   0  0  0  0  0  0  0  0  0  0  0  0
   -4.5315   22.1862  -27.8952 H   0  0  0  0  0  0  0  0  0  0  0  0
   -5.3983   22.4822  -29.4404 H   0  0  0  0  0  0  0  0  0  0  0  0
   -3.6176   22.2464  -29.4404 H   0  0  0  0  0  0  0  0  0  0  0  0
   -4.4251   23.6698  -26.6013 H   0  0  0  0  0  0  0  0  0  0  0  0
   -3.1234   24.8475  -26.9826 H   0  0  0  0  0  0  0  0  0  0  0  0
   -4.8403   25.3754  -26.9826 H   0  0  0  0  0  0  0  0  0  0  0  0
   -6.1075   25.3072  -28.4952 H   0  0  0  0  0  0  0  0  0  0  0  0
   -5.1199   25.7567  -29.9267 H   0  0  0  0  0  0  0  0  0  0  0  0
   -6.0556   24.2234  -29.9267 H   0  0  0  0  0  0  0  0  0  0  0  0
    1.5410   25.2590  -26.4940 H   0  0  0  0  0  0  0  0  0  0  0  0
    1.0230   25.2260  -28.2120 H   0  0  0  0  0  0  0  0  0  0  0  0
    1.0263   20.8522  -28.0482 H   0  0  0  0  0  0  0  0  0  0  0  0
    0.0666   19.0872  -30.0813 H   0  0  0  0  0  0  0  0  0  0  0  0
   -1.5740   18.9248  -31.9778 H   0  0  0  0  0  0  0  0  0  0  0  0
   -3.3030   19.9120  -33.3320 H   0  0  0  0  0  0  0  0  0  0  0  0
   -3.9112   22.8096  -32.7855 H   0  0  0  0  0  0  0  0  0  0  0  0
   -4.2464   21.8808  -34.3014 H   0  0  0  0  0  0  0  0  0  0  0  0
   -6.0552   23.6377  -32.2595 H   0  0  0  0  0  0  0  0  0  0  0  0
   -8.3726   23.2132  -31.4606 H   0  0  0  0  0  0  0  0  0  0  0  0
   -9.3118   20.9048  -31.4927 H   0  0  0  0  0  0  0  0  0  0  0  0
   -9.0578   18.5210  -32.0286 H   0  0  0  0  0  0  0  0  0  0  0  0
   -7.6508   16.6541  -32.9205 H   0  0  0  0  0  0  0  0  0  0  0  0
   -5.3176   17.1224  -33.6807 H   0  0  0  0  0  0  0  0  0  0  0  0
   -3.0342   22.9283  -31.0608 H   0  0  0  0  0  0  0  0  0  0  0  0
  1  2  1  0
  2  3  1  0
  2  4  1  0
  2  5  1  0
  5  6  1  0
  6  7  2  0
  6  8  1  0
  8  9  1  0
  9 10  1  0
 10 11  1  0
 10 12  2  0
  9 13  2  0
 13 14  1  0
 14 15  2  0
 15 16  1  0
 16 17  2  0
 17 18  1  0
 18 19  1  0
 19 20  1  0
 20 21  2  0
 21 22  1  0
 22 23  2  0
 23 24  1  0
 24 25  2  0
 25 26  1  0
 26 27  2  0
 27 28  1  0
 28 29  2  0
 17 30  1  0
 30 31  2  0
 31  8  1  0
 31 14  1  0
 29 20  1  0
 29 24  1  0
  1 32  1  0
  1 33  1  0
  1 34  1  0
  3 35  1  0
  3 36  1  0
  3 37  1  0
  4 38  1  0
  4 39  1  0
  4 40  1  0
 11 41  1  0
 11 42  1  0
 13 43  1  0
 15 44  1  0
 16 45  1  0
 18 46  1  0
 19 47  1  0
 19 48  1  0
 21 49  1  0
 22 50  1  0
 23 51  1  0
 25 52  1  0
 26 53  1  0
 27 54  1  0
 30 55  1  0
M  END
>  <UniqueID>  (76) 
75

>  <SMILES>  (76) 
CC(C)(C)OC(=O)n1c(C(N)=O)cc2ccc(NCc3cccc4cccnc34)cc21

>  <Energy>  (76) 
94.25089890106888

>  <Genealogy>  (76) 
CC(C)(C)OC(=O)n1c(C(N)=O)cc2ccc(NCc3cccc4cccnc34)cc21 (3D coordinates assigned)
CC(C)(C)OC(=O)n1c(C(N)=O)cc2ccc(NCc3cccc4cccnc34)cc21 (optimized conformer: 94.25089890106888 kcal/mol)

>  <smiles>  (76) 
CC(C)(C)OC(=O)n1c(C(N)=O)cc2ccc(NCc3cccc4cccnc34)cc21

>  <score_type>  (76) 
oracle

>  <origin>  (76) 
adg

>  <m_score__min__energy>  (76) 
-10.65

>  <m_primary>  (76) 
energy

$$$$
76:0
     RDKit          3D

 38 40  0  0  0  0  0  0  0  0999 V2000
   -6.7170   23.7940  -30.3060 C   0  0  0  0  0  0  0  0  0  0  0  0
   -5.7990   24.2660  -31.4280 C   0  0  0  0  0  0  0  0  0  0  0  0
   -4.5910   24.8030  -30.8970 O   0  0  0  0  0  0  0  0  0  0  0  0
   -3.9120   24.2470  -29.8070 C   0  0  0  0  0  0  0  0  0  0  0  0
   -4.2500   24.5410  -28.6270 O   0  0  0  0  0  0  0  0  0  0  0  0
   -2.8050   23.3610  -30.0340 N   0  0  0  0  0  0  0  0  0  0  0  0
   -1.4890   23.5750  -29.7460 C   0  0  0  0  0  0  0  0  0  0  0  0
   -0.9400   24.7160  -28.9850 C   0  0  0  0  0  0  0  0  0  0  0  0
   -1.6140   25.9710  -28.9540 N   0  0  0  0  0  0  0  0  0  0  0  0
    0.1170   24.5680  -28.3150 O   0  0  0  0  0  0  0  0  0  0  0  0
   -0.7130   22.5090  -30.1970 C   0  0  0  0  0  0  0  0  0  0  0  0
   -1.6010   21.6250  -30.7650 C   0  0  0  0  0  0  0  0  0  0  0  0
   -1.3730   20.3980  -31.3790 C   0  0  0  0  0  0  0  0  0  0  0  0
   -2.4770   19.7090  -31.9060 C   0  0  0  0  0  0  0  0  0  0  0  0
   -3.7850   20.2560  -31.8190 C   0  0  0  0  0  0  0  0  0  0  0  0
   -4.9450   19.5250  -32.3890 C   0  0  0  0  0  0  0  0  0  0  0  0
   -4.7490   18.3840  -33.1900 C   0  0  0  0  0  0  0  0  0  0  0  0
   -5.8420   17.6980  -33.7250 C   0  0  0  0  0  0  0  0  0  0  0  0
   -7.1420   18.1400  -33.4690 C   0  0  0  0  0  0  0  0  0  0  0  0
   -7.3520   19.2700  -32.6750 C   0  0  0  0  0  0  0  0  0  0  0  0
   -8.9850   19.8210  -32.3480 Cl  0  0  0  0  0  0  0  0  0  0  0  0
   -6.2600   19.9610  -32.1380 C   0  0  0  0  0  0  0  0  0  0  0  0
   -3.9730   21.5080  -31.1870 C   0  0  0  0  0  0  0  0  0  0  0  0
   -2.8560   22.1630  -30.6540 C   0  0  0  0  0  0  0  0  0  0  0  0
   -6.2590   24.0295  -29.3340 H   0  0  0  0  0  0  0  0  0  0  0  0
   -7.6878   24.3047  -30.3872 H   0  0  0  0  0  0  0  0  0  0  0  0
   -6.8665   22.7072  -30.3872 H   0  0  0  0  0  0  0  0  0  0  0  0
   -5.5592   23.4140  -32.0811 H   0  0  0  0  0  0  0  0  0  0  0  0
   -6.3143   25.0517  -32.0001 H   0  0  0  0  0  0  0  0  0  0  0  0
   -2.6560   26.0220  -28.9670 H   0  0  0  0  0  0  0  0  0  0  0  0
    0.3784   22.3979  -30.1160 H   0  0  0  0  0  0  0  0  0  0  0  0
   -0.3580   19.9799  -31.4496 H   0  0  0  0  0  0  0  0  0  0  0  0
   -2.3272   18.7337  -32.3922 H   0  0  0  0  0  0  0  0  0  0  0  0
   -3.7280   18.0302  -33.3960 H   0  0  0  0  0  0  0  0  0  0  0  0
   -5.6784   16.8074  -34.3495 H   0  0  0  0  0  0  0  0  0  0  0  0
   -8.0005   17.5983  -33.8926 H   0  0  0  0  0  0  0  0  0  0  0  0
   -6.4303   20.8515  -31.5151 H   0  0  0  0  0  0  0  0  0  0  0  0
   -4.9747   21.9569  -31.1160 H   0  0  0  0  0  0  0  0  0  0  0  0
  1  2  1  0
  2  3  1  0
  3  4  1  0
  4  5  2  0
  4  6  1  0
  6  7  1  0
  7  8  1  0
  8  9  1  0
  8 10  2  0
  7 11  2  0
 11 12  1  0
 12 13  2  0
 13 14  1  0
 14 15  2  0
 15 16  1  0
 16 17  2  0
 17 18  1  0
 18 19  2  0
 19 20  1  0
 20 21  1  0
 20 22  2  0
 15 23  1  0
 23 24  2  0
 24  6  1  0
 24 12  1  0
 22 16  1  0
  1 25  1  0
  1 26  1  0
  1 27  1  0
  2 28  1  0
  2 29  1  0
  9 30  1  0
 11 31  1  0
 13 32  1  0
 14 33  1  0
 17 34  1  0
 18 35  1  0
 19 36  1  0
 22 37  1  0
 23 38  1  0
M  CHG  1   9  -1
M  END
>  <UniqueID>  (77) 
76

>  <SMILES>  (77) 
CCOC(=O)n1c(C([NH-])=O)cc2ccc(-c3cccc(Cl)c3)cc21

>  <Energy>  (77) 
80.88031188196176

>  <Genealogy>  (77) 
CCOC(=O)n1c(C([NH-])=O)cc2ccc(-c3cccc(Cl)c3)cc21 (protonated)
CCOC(=O)n1c(C([NH-])=O)cc2ccc(-c3cccc(Cl)c3)cc21 (3D coordinates assigned)
CCOC(=O)n1c(C([NH-])=O)cc2ccc(-c3cccc(Cl)c3)cc21 (optimized conformer: 80.88031188196176 kcal/mol)

>  <smiles>  (77) 
CCOC(=O)n1c(C(N)=O)cc2ccc(-c3cccc(Cl)c3)cc21

>  <score_type>  (77) 
oracle

>  <origin>  (77) 
adg

>  <m_score__min__energy>  (77) 
-10.98

>  <m_primary>  (77) 
energy

$$$$
77:0
     RDKit          3D

 41 42  0  0  0  0  0  0  0  0999 V2000
   -5.7470   18.6780  -34.5730 C   0  0  0  0  0  0  0  0  0  0  0  0
   -6.7970   18.5070  -33.4800 C   0  0  0  0  0  0  0  0  0  0  0  0
   -7.0330   19.8080  -32.7620 C   0  0  0  0  0  0  0  0  0  0  0  0
   -8.3530   20.2160  -32.4430 C   0  0  0  0  0  0  0  0  0  0  0  0
   -8.5860   21.4370  -31.7900 C   0  0  0  0  0  0  0  0  0  0  0  0
   -7.4870   22.2350  -31.4870 C   0  0  0  0  0  0  0  0  0  0  0  0
   -7.4260   23.4530  -30.8480 C   0  0  0  0  0  0  0  0  0  0  0  0
   -6.0730   23.7880  -30.8170 C   0  0  0  0  0  0  0  0  0  0  0  0
   -5.5530   25.0730  -30.2980 C   0  0  0  0  0  0  0  0  0  0  0  0
   -6.1210   25.6740  -29.1350 N   0  0  0  0  0  0  0  0  0  0  0  0
   -4.6180   25.6670  -30.9010 O   0  0  0  0  0  0  0  0  0  0  0  0
   -5.3280   22.8140  -31.4130 N   0  0  0  0  0  0  0  0  0  0  0  0
   -3.8990   22.7570  -31.5460 C   0  0  0  0  0  0  0  0  0  0  0  0
   -3.3780   21.9390  -32.3520 O   0  0  0  0  0  0  0  0  0  0  0  0
   -3.1020   23.6260  -30.7850 O   0  0  0  0  0  0  0  0  0  0  0  0
   -2.5010   23.3380  -29.5140 C   0  0  0  0  0  0  0  0  0  0  0  0
   -2.0260   24.6370  -28.8340 C   0  0  0  0  0  0  0  0  0  0  0  0
   -3.5830   22.6870  -28.6400 C   0  0  0  0  0  0  0  0  0  0  0  0
   -1.3310   22.3500  -29.6780 C   0  0  0  0  0  0  0  0  0  0  0  0
   -6.2070   21.8710  -31.8170 C   0  0  0  0  0  0  0  0  0  0  0  0
   -5.9430   20.6490  -32.4480 C   0  0  0  0  0  0  0  0  0  0  0  0
   -4.7611   18.8386  -34.1124 H   0  0  0  0  0  0  0  0  0  0  0  0
   -5.7170   17.7729  -35.1974 H   0  0  0  0  0  0  0  0  0  0  0  0
   -6.0057   19.5458  -35.1974 H   0  0  0  0  0  0  0  0  0  0  0  0
   -7.7399   18.1691  -33.9346 H   0  0  0  0  0  0  0  0  0  0  0  0
   -6.4352   17.7631  -32.7549 H   0  0  0  0  0  0  0  0  0  0  0  0
   -9.2024   19.5699  -32.7096 H   0  0  0  0  0  0  0  0  0  0  0  0
   -9.6060   21.7531  -31.5260 H   0  0  0  0  0  0  0  0  0  0  0  0
   -8.2668   24.0380  -30.4469 H   0  0  0  0  0  0  0  0  0  0  0  0
   -5.7730   26.6000  -28.8000 H   0  0  0  0  0  0  0  0  0  0  0  0
   -6.8570   25.1880  -28.5760 H   0  0  0  0  0  0  0  0  0  0  0  0
   -2.0701   24.5163  -27.7415 H   0  0  0  0  0  0  0  0  0  0  0  0
   -0.9909   24.8525  -29.1376 H   0  0  0  0  0  0  0  0  0  0  0  0
   -2.6779   25.4694  -29.1376 H   0  0  0  0  0  0  0  0  0  0  0  0
   -3.3356   22.8359  -27.5786 H   0  0  0  0  0  0  0  0  0  0  0  0
   -4.5572   23.1490  -28.8577 H   0  0  0  0  0  0  0  0  0  0  0  0
   -3.6312   21.6098  -28.8577 H   0  0  0  0  0  0  0  0  0  0  0  0
   -0.9681   22.0435  -28.6858 H   0  0  0  0  0  0  0  0  0  0  0  0
   -1.6741   21.4642  -30.2326 H   0  0  0  0  0  0  0  0  0  0  0  0
   -0.5152   22.8366  -30.2326 H   0  0  0  0  0  0  0  0  0  0  0  0
   -4.9126   20.3518  -32.6928 H   0  0  0  0  0  0  0  0  0  0  0  0
  1  2  1  0
  2  3  1  0
  3  4  2  0
  4  5  1  0
  5  6  2  0
  6  7  1  0
  7  8  2  0
  8  9  1  0
  9 10  1  0
  9 11  2  0
  8 12  1  0
 12 13  1  0
 13 14  2  0
 13 15  1  0
 15 16  1  0
 16 17  1  0
 16 18  1  0
 16 19  1  0
 12 20  1  0
 20 21  2  0
 21  3  1  0
 20  6  1  0
  1 22  1  0
  1 23  1  0
  1 24  1  0
  2 25  1  0
  2 26  1  0
  4 27  1  0
  5 28  1  0
  7 29  1  0
 10 30  1  0
 10 31  1  0
 17 32  1  0
 17 33  1  0
 17 34  1  0
 18 35  1  0
 18 36  1  0
 18 37  1  0
 19 38  1  0
 19 39  1  0
 19 40  1  0
 21 41  1  0
M  END
>  <UniqueID>  (78) 
77

>  <SMILES>  (78) 
CCc1ccc2cc(C(N)=O)n(C(=O)OC(C)(C)C)c2c1

>  <Energy>  (78) 
70.84373894878556

>  <Genealogy>  (78) 
CCc1ccc2cc(C(N)=O)n(C(=O)OC(C)(C)C)c2c1 (3D coordinates assigned)
CCc1ccc2cc(C(N)=O)n(C(=O)OC(C)(C)C)c2c1 (optimized conformer: 70.84373894878556 kcal/mol)

>  <smiles>  (78) 
CCc1ccc2cc(C(N)=O)n(C(=O)OC(C)(C)C)c2c1

>  <score_type>  (78) 
oracle

>  <origin>  (78) 
adg

>  <m_score__min__energy>  (78) 
-8.8699999999999992

>  <m_primary>  (78) 
energy

$$$$
78:0
     RDKit          3D

 34 36  0  0  0  0  0  0  0  0999 V2000
   -1.4680   25.6990  -28.7920 N   0  0  0  0  0  0  0  0  0  0  0  0
   -0.9210   24.4040  -29.0440 C   0  0  0  0  0  0  0  0  0  0  0  0
    0.1990   24.1010  -28.5540 O   0  0  0  0  0  0  0  0  0  0  0  0
   -1.6130   23.4400  -29.9230 C   0  0  0  0  0  0  0  0  0  0  0  0
   -1.0280   22.2590  -30.3720 C   0  0  0  0  0  0  0  0  0  0  0  0
   -1.9620   21.6850  -31.2030 C   0  0  0  0  0  0  0  0  0  0  0  0
   -1.9150   20.4840  -31.9040 C   0  0  0  0  0  0  0  0  0  0  0  0
   -3.0440   20.1150  -32.6540 C   0  0  0  0  0  0  0  0  0  0  0  0
   -4.1900   20.9450  -32.6940 C   0  0  0  0  0  0  0  0  0  0  0  0
   -5.3420   20.5150  -33.4390 N   0  0  0  0  0  0  0  0  0  0  0  0
   -6.4800   19.8490  -32.8630 C   0  0  0  0  0  0  0  0  0  0  0  0
   -6.4530   18.4710  -32.5770 C   0  0  0  0  0  0  0  0  0  0  0  0
   -7.5620   17.8500  -31.9940 C   0  0  0  0  0  0  0  0  0  0  0  0
   -8.6980   18.5990  -31.6770 C   0  0  0  0  0  0  0  0  0  0  0  0
   -8.7240   19.9730  -31.9360 C   0  0  0  0  0  0  0  0  0  0  0  0
   -7.6160   20.5970  -32.5190 C   0  0  0  0  0  0  0  0  0  0  0  0
   -4.2100   22.1470  -31.9480 C   0  0  0  0  0  0  0  0  0  0  0  0
   -3.0620   22.5040  -31.2290 C   0  0  0  0  0  0  0  0  0  0  0  0
   -2.8640   23.5880  -30.4430 N   0  0  0  0  0  0  0  0  0  0  0  0
   -3.8240   24.6130  -30.1360 C   0  0  0  0  0  0  0  0  0  0  0  0
   -3.8640   25.6710  -30.8160 O   0  0  0  0  0  0  0  0  0  0  0  0
   -4.7180   24.4500  -29.0850 O   0  0  0  0  0  0  0  0  0  0  0  0
   -2.3030   26.0430  -29.3160 H   0  0  0  0  0  0  0  0  0  0  0  0
   -0.9840   26.3530  -28.1380 H   0  0  0  0  0  0  0  0  0  0  0  0
   -0.0319   21.8684  -30.1168 H   0  0  0  0  0  0  0  0  0  0  0  0
   -1.0214   19.8433  -31.8719 H   0  0  0  0  0  0  0  0  0  0  0  0
   -3.0375   19.1699  -33.2169 H   0  0  0  0  0  0  0  0  0  0  0  0
   -5.3540   20.6970  -34.4680 H   0  0  0  0  0  0  0  0  0  0  0  0
   -5.5557   17.8801  -32.8131 H   0  0  0  0  0  0  0  0  0  0  0  0
   -7.5399   16.7703  -31.7847 H   0  0  0  0  0  0  0  0  0  0  0  0
   -9.5718   18.1080  -31.2238 H   0  0  0  0  0  0  0  0  0  0  0  0
   -9.6164   20.5635  -31.6811 H   0  0  0  0  0  0  0  0  0  0  0  0
   -7.6355   21.6803  -32.7088 H   0  0  0  0  0  0  0  0  0  0  0  0
   -5.1054   22.7858  -31.9330 H   0  0  0  0  0  0  0  0  0  0  0  0
  1  2  1  0
  2  3  2  0
  2  4  1  0
  4  5  2  0
  5  6  1  0
  6  7  2  0
  7  8  1  0
  8  9  2  0
  9 10  1  0
 10 11  1  0
 11 12  2  0
 12 13  1  0
 13 14  2  0
 14 15  1  0
 15 16  2  0
  9 17  1  0
 17 18  2  0
 18 19  1  0
 19 20  1  0
 20 21  2  0
 20 22  1  0
 19  4  1  0
 18  6  1  0
 16 11  1  0
  1 23  1  0
  1 24  1  0
  5 25  1  0
  7 26  1  0
  8 27  1  0
 10 28  1  0
 12 29  1  0
 13 30  1  0
 14 31  1  0
 15 32  1  0
 16 33  1  0
 17 34  1  0
M  CHG  1  22  -1
M  END
>  <UniqueID>  (79) 
78

>  <SMILES>  (79) 
NC(=O)c1cc2ccc(Nc3ccccc3)cc2n1C(=O)[O-]

>  <Energy>  (79) 
82.0785602926755

>  <Genealogy>  (79) 
NC(=O)c1cc2ccc(Nc3ccccc3)cc2n1C(=O)[O-] (protonated)
NC(=O)c1cc2ccc(Nc3ccccc3)cc2n1C(=O)[O-] (3D coordinates assigned)
NC(=O)c1cc2ccc(Nc3ccccc3)cc2n1C(=O)[O-] (optimized conformer: 82.0785602926755 kcal/mol)

>  <smiles>  (79) 
NC(=O)c1cc2ccc(Nc3ccccc3)cc2n1C(=O)O

>  <score_type>  (79) 
oracle

>  <origin>  (79) 
adg

>  <m_score__min__energy>  (79) 
-9.7599999999999998

>  <m_primary>  (79) 
energy

$$$$
79:0
     RDKit          3D

 66 69  0  0  0  0  0  0  0  0999 V2000
   -2.8070   21.0690  -29.1510 C   0  0  0  0  0  0  0  0  0  0  0  0
   -2.6850   22.5830  -28.9260 C   0  0  0  0  0  0  0  0  0  0  0  0
   -1.3590   22.8730  -28.1980 C   0  0  0  0  0  0  0  0  0  0  0  0
   -3.8830   23.0580  -28.0820 C   0  0  0  0  0  0  0  0  0  0  0  0
   -2.6980   23.2060  -30.2180 O   0  0  0  0  0  0  0  0  0  0  0  0
   -3.3680   22.7390  -31.3590 C   0  0  0  0  0  0  0  0  0  0  0  0
   -2.7280   22.3190  -32.3600 O   0  0  0  0  0  0  0  0  0  0  0  0
   -4.8040   22.7680  -31.3960 N   0  0  0  0  0  0  0  0  0  0  0  0
   -5.6240   23.8110  -31.0860 C   0  0  0  0  0  0  0  0  0  0  0  0
   -5.2020   25.1000  -30.4980 C   0  0  0  0  0  0  0  0  0  0  0  0
   -3.9380   25.6600  -30.8510 N   0  0  0  0  0  0  0  0  0  0  0  0
   -5.9610   25.7330  -29.7200 O   0  0  0  0  0  0  0  0  0  0  0  0
   -6.9540   23.4750  -31.3280 C   0  0  0  0  0  0  0  0  0  0  0  0
   -6.9240   22.1810  -31.7940 C   0  0  0  0  0  0  0  0  0  0  0  0
   -7.9640   21.3550  -32.2060 C   0  0  0  0  0  0  0  0  0  0  0  0
   -7.6390   20.0700  -32.6750 C   0  0  0  0  0  0  0  0  0  0  0  0
   -6.2890   19.6360  -32.7320 C   0  0  0  0  0  0  0  0  0  0  0  0
   -5.9600   18.2520  -33.2590 C   0  0  1  0  0  0  0  0  0  0  0  0
   -4.9430   17.5230  -32.3500 C   0  0  0  0  0  0  0  0  0  0  0  0
   -5.2120   16.0080  -32.2290 C   0  0  0  0  0  0  0  0  0  0  0  0
   -5.6930   15.3900  -33.4880 N   0  0  2  0  0  0  0  0  0  0  0  0
   -4.6150   15.2500  -34.4430 C   0  0  0  0  0  0  0  0  0  0  0  0
   -4.0790   14.1250  -34.6430 O   0  0  0  0  0  0  0  0  0  0  0  0
   -4.1550   16.3800  -35.1310 O   0  0  0  0  0  0  0  0  0  0  0  0
   -2.7730   16.6600  -35.3410 C   0  0  0  0  0  0  0  0  0  0  0  0
   -2.2460   17.5490  -34.2470 C   0  0  0  0  0  0  0  0  0  0  0  0
   -2.5590   18.9180  -34.2220 C   0  0  0  0  0  0  0  0  0  0  0  0
   -2.0410   19.7400  -33.2160 C   0  0  0  0  0  0  0  0  0  0  0  0
   -1.2050   19.2030  -32.2330 C   0  0  0  0  0  0  0  0  0  0  0  0
   -0.8860   17.8420  -32.2540 C   0  0  0  0  0  0  0  0  0  0  0  0
   -1.4020   17.0170  -33.2580 C   0  0  0  0  0  0  0  0  0  0  0  0
   -6.8840   16.0560  -34.0940 C   0  0  0  0  0  0  0  0  0  0  0  0
   -7.2310   17.4150  -33.4640 C   0  0  0  0  0  0  0  0  0  0  0  0
   -5.2600   20.5130  -32.3090 C   0  0  0  0  0  0  0  0  0  0  0  0
   -5.6150   21.7770  -31.8270 C   0  0  0  0  0  0  0  0  0  0  0  0
   -2.8483   20.5560  -28.1788 H   0  0  0  0  0  0  0  0  0  0  0  0
   -3.7253   20.8553  -29.7177 H   0  0  0  0  0  0  0  0  0  0  0  0
   -1.9348   20.7111  -29.7177 H   0  0  0  0  0  0  0  0  0  0  0  0
   -1.5222   22.8373  -27.1108 H   0  0  0  0  0  0  0  0  0  0  0  0
   -0.6120   22.1170  -28.4817 H   0  0  0  0  0  0  0  0  0  0  0  0
   -0.9958   23.8718  -28.4817 H   0  0  0  0  0  0  0  0  0  0  0  0
   -3.6400   22.9616  -27.0135 H   0  0  0  0  0  0  0  0  0  0  0  0
   -4.1012   24.1107  -28.3149 H   0  0  0  0  0  0  0  0  0  0  0  0
   -4.7633   22.4409  -28.3149 H   0  0  0  0  0  0  0  0  0  0  0  0
   -3.0540   25.2970  -30.4310 H   0  0  0  0  0  0  0  0  0  0  0  0
   -7.8400   24.1095  -31.1783 H   0  0  0  0  0  0  0  0  0  0  0  0
   -9.0089   21.6965  -32.1662 H   0  0  0  0  0  0  0  0  0  0  0  0
   -8.4414   19.3923  -33.0020 H   0  0  0  0  0  0  0  0  0  0  0  0
   -5.4850   18.3798  -34.2429 H   0  0  0  0  0  0  0  0  0  0  0  0
   -4.9907   17.9678  -31.3451 H   0  0  0  0  0  0  0  0  0  0  0  0
   -3.9503   17.6430  -32.8084 H   0  0  0  0  0  0  0  0  0  0  0  0
   -5.9735   15.8507  -31.4509 H   0  0  0  0  0  0  0  0  0  0  0  0
   -4.2542   15.5284  -31.9787 H   0  0  0  0  0  0  0  0  0  0  0  0
   -5.9850   14.4170  -33.2340 H   0  0  0  0  0  0  0  0  0  0  0  0
   -2.2083   15.7160  -35.3446 H   0  0  0  0  0  0  0  0  0  0  0  0
   -2.6556   17.1741  -36.3063 H   0  0  0  0  0  0  0  0  0  0  0  0
   -3.2136   19.3450  -34.9961 H   0  0  0  0  0  0  0  0  0  0  0  0
   -2.2919   20.8109  -33.1984 H   0  0  0  0  0  0  0  0  0  0  0  0
   -0.7981   19.8512  -31.4429 H   0  0  0  0  0  0  0  0  0  0  0  0
   -0.2284   17.4198  -31.4799 H   0  0  0  0  0  0  0  0  0  0  0  0
   -1.1461   15.9473  -33.2735 H   0  0  0  0  0  0  0  0  0  0  0  0
   -7.7505   15.3889  -33.9755 H   0  0  0  0  0  0  0  0  0  0  0  0
   -6.6376   16.2487  -35.1486 H   0  0  0  0  0  0  0  0  0  0  0  0
   -7.7166   17.2497  -32.4909 H   0  0  0  0  0  0  0  0  0  0  0  0
   -7.9096   17.9574  -34.1387 H   0  0  0  0  0  0  0  0  0  0  0  0
   -4.2047   20.2065  -32.3586 H   0  0  0  0  0  0  0  0  0  0  0  0
  1  2  1  0
  2  3  1  0
  2  4  1  0
  2  5  1  0
  5  6  1  0
  6  7  2  0
  6  8  1  0
  8  9  1  0
  9 10  1  0
 10 11  1  0
 10 12  2  0
  9 13  2  0
 13 14  1  0
 14 15  2  0
 15 16  1  0
 16 17  2  0
 17 18  1  0
 18 19  1  0
 19 20  1  0
 20 21  1  0
 21 22  1  0
 22 23  2  0
 22 24  1  0
 24 25  1  0
 25 26  1  0
 26 27  2  0
 27 28  1  0
 28 29  2  0
 29 30  1  0
 30 31  2  0
 21 32  1  0
 32 33  1  0
 17 34  1  0
 34 35  2  0
 35  8  1  0
 35 14  1  0
 33 18  1  0
 31 26  1  0
  1 36  1  0
  1 37  1  0
  1 38  1  0
  3 39  1  0
  3 40  1  0
  3 41  1  0
  4 42  1  0
  4 43  1  0
  4 44  1  0
 11 45  1  0
 13 46  1  0
 15 47  1  0
 16 48  1  0
 18 49  1  6
 19 50  1  0
 19 51  1  0
 20 52  1  0
 20 53  1  0
 21 54  1  1
 25 55  1  0
 25 56  1  0
 27 57  1  0
 28 58  1  0
 29 59  1  0
 30 60  1  0
 31 61  1  0
 32 62  1  0
 32 63  1  0
 33 64  1  0
 33 65  1  0
 34 66  1  0
M  CHG  2  11  -1  21   1
M  END
>  <UniqueID>  (80) 
79

>  <SMILES>  (80) 
CC(C)(C)OC(=O)n1c(C([NH-])=O)cc2ccc(C3CC[NH+](C(=O)OCc4ccccc4)CC3)cc21

>  <Energy>  (80) 
112.49541378041863

>  <Genealogy>  (80) 
CC(C)(C)OC(=O)n1c(C([NH-])=O)cc2ccc(C3CC[NH+](C(=O)OCc4ccccc4)CC3)cc21 (protonated)
CC(C)(C)OC(=O)n1c(C([NH-])=O)cc2ccc(C3CC[NH+](C(=O)OCc4ccccc4)CC3)cc21 (3D coordinates assigned)
CC(C)(C)OC(=O)n1c(C([NH-])=O)cc2ccc(C3CC[NH+](C(=O)OCc4ccccc4)CC3)cc21 (nonaromatic ring conformer: 112.49541378041863 kcal/mol)

>  <smiles>  (80) 
CC(C)(C)OC(=O)n1c(C(N)=O)cc2ccc(C3CCN(C(=O)OCc4ccccc4)CC3)cc21

>  <score_type>  (80) 
oracle

>  <origin>  (80) 
adg

>  <m_score__min__energy>  (80) 
-11.779999999999999

>  <m_primary>  (80) 
energy

$$$$
80:0
     RDKit          3D

 43 45  0  0  0  0  0  0  0  0999 V2000
   -2.7180   21.1010  -29.2120 C   0  0  0  0  0  0  0  0  0  0  0  0
   -2.6230   22.6250  -29.0390 C   0  0  0  0  0  0  0  0  0  0  0  0
   -1.2840   22.9640  -28.3560 C   0  0  0  0  0  0  0  0  0  0  0  0
   -3.8080   23.1030  -28.1780 C   0  0  0  0  0  0  0  0  0  0  0  0
   -2.6860   23.2050  -30.3500 O   0  0  0  0  0  0  0  0  0  0  0  0
   -3.4140   22.7120  -31.4440 C   0  0  0  0  0  0  0  0  0  0  0  0
   -2.8260   22.2260  -32.4470 O   0  0  0  0  0  0  0  0  0  0  0  0
   -4.8470   22.7850  -31.4260 N   0  0  0  0  0  0  0  0  0  0  0  0
   -5.6220   23.8500  -31.0750 C   0  0  0  0  0  0  0  0  0  0  0  0
   -5.1430   25.1080  -30.4660 C   0  0  0  0  0  0  0  0  0  0  0  0
   -3.8850   25.6680  -30.8340 N   0  0  0  0  0  0  0  0  0  0  0  0
   -5.8300   25.6700  -29.5710 O   0  0  0  0  0  0  0  0  0  0  0  0
   -6.9680   23.5700  -31.2960 C   0  0  0  0  0  0  0  0  0  0  0  0
   -6.9970   22.2860  -31.7920 C   0  0  0  0  0  0  0  0  0  0  0  0
   -8.0760   21.5090  -32.1980 C   0  0  0  0  0  0  0  0  0  0  0  0
   -7.8110   20.2260  -32.7040 C   0  0  0  0  0  0  0  0  0  0  0  0
   -6.4790   19.7450  -32.8030 C   0  0  0  0  0  0  0  0  0  0  0  0
   -6.2090   18.3910  -33.3520 C   0  0  0  0  0  0  0  0  0  0  0  0
   -7.1120   17.3360  -33.1310 C   0  0  0  0  0  0  0  0  0  0  0  0
   -6.8380   16.0700  -33.6550 C   0  0  0  0  0  0  0  0  0  0  0  0
   -5.7040   15.8590  -34.3740 N   0  0  0  0  0  0  0  0  0  0  0  0
   -4.8120   16.8570  -34.6040 C   0  0  0  0  0  0  0  0  0  0  0  0
   -5.0460   18.1380  -34.1000 C   0  0  0  0  0  0  0  0  0  0  0  0
   -5.4090   20.5680  -32.3790 C   0  0  0  0  0  0  0  0  0  0  0  0
   -5.7050   21.8350  -31.8610 C   0  0  0  0  0  0  0  0  0  0  0  0
   -2.7479   20.6208  -28.2228 H   0  0  0  0  0  0  0  0  0  0  0  0
   -3.6334   20.8515  -29.7685 H   0  0  0  0  0  0  0  0  0  0  0  0
   -1.8406   20.7398  -29.7685 H   0  0  0  0  0  0  0  0  0  0  0  0
   -1.4110   22.9318  -27.2638 H   0  0  0  0  0  0  0  0  0  0  0  0
   -0.5221   22.2304  -28.6583 H   0  0  0  0  0  0  0  0  0  0  0  0
   -0.9630   23.9718  -28.6583 H   0  0  0  0  0  0  0  0  0  0  0  0
   -3.5525   23.0000  -27.1130 H   0  0  0  0  0  0  0  0  0  0  0  0
   -4.0227   24.1581  -28.4031 H   0  0  0  0  0  0  0  0  0  0  0  0
   -4.6947   22.4922  -28.4031 H   0  0  0  0  0  0  0  0  0  0  0  0
   -2.9940   25.2910  -30.4440 H   0  0  0  0  0  0  0  0  0  0  0  0
   -7.8259   24.2337  -31.1131 H   0  0  0  0  0  0  0  0  0  0  0  0
   -9.1062   21.8877  -32.1251 H   0  0  0  0  0  0  0  0  0  0  0  0
   -8.6453   19.5863  -33.0274 H   0  0  0  0  0  0  0  0  0  0  0  0
   -8.0294   17.5065  -32.5486 H   0  0  0  0  0  0  0  0  0  0  0  0
   -7.5419   15.2419  -33.4852 H   0  0  0  0  0  0  0  0  0  0  0  0
   -3.9025   16.6556  -35.1890 H   0  0  0  0  0  0  0  0  0  0  0  0
   -4.3233   18.9458  -34.2875 H   0  0  0  0  0  0  0  0  0  0  0  0
   -4.3681   20.2205  -32.4545 H   0  0  0  0  0  0  0  0  0  0  0  0
  1  2  1  0
  2  3  1  0
  2  4  1  0
  2  5  1  0
  5  6  1  0
  6  7  2  0
  6  8  1  0
  8  9  1  0
  9 10  1  0
 10 11  1  0
 10 12  2  0
  9 13  2  0
 13 14  1  0
 14 15  2  0
 15 16  1  0
 16 17  2  0
 17 18  1  0
 18 19  2  0
 19 20  1  0
 20 21  2  0
 21 22  1  0
 22 23  2  0
 17 24  1  0
 24 25  2  0
 25  8  1  0
 25 14  1  0
 23 18  1  0
  1 26  1  0
  1 27  1  0
  1 28  1  0
  3 29  1  0
  3 30  1  0
  3 31  1  0
  4 32  1  0
  4 33  1  0
  4 34  1  0
 11 35  1  0
 13 36  1  0
 15 37  1  0
 16 38  1  0
 19 39  1  0
 20 40  1  0
 22 41  1  0
 23 42  1  0
 24 43  1  0
M  CHG  1  11  -1
M  END
>  <UniqueID>  (81) 
80

>  <SMILES>  (81) 
CC(C)(C)OC(=O)n1c(C([NH-])=O)cc2ccc(-c3ccncc3)cc21

>  <Energy>  (81) 
85.59890273994841

>  <Genealogy>  (81) 
CC(C)(C)OC(=O)n1c(C([NH-])=O)cc2ccc(-c3ccncc3)cc21 (protonated)
CC(C)(C)OC(=O)n1c(C([NH-])=O)cc2ccc(-c3ccncc3)cc21 (3D coordinates assigned)
CC(C)(C)OC(=O)n1c(C([NH-])=O)cc2ccc(-c3ccncc3)cc21 (optimized conformer: 85.59890273994841 kcal/mol)

>  <smiles>  (81) 
CC(C)(C)OC(=O)n1c(C(N)=O)cc2ccc(-c3ccncc3)cc21

>  <score_type>  (81) 
oracle

>  <origin>  (81) 
adg

>  <m_score__min__energy>  (81) 
-11.09

>  <m_primary>  (81) 
energy

$$$$
81:0
     RDKit          3D

 56 58  0  0  0  0  0  0  0  0999 V2000
   -6.1030   17.0560  -31.6130 C   0  0  0  0  0  0  0  0  0  0  0  0
   -6.5660   16.8800  -33.0590 C   0  0  0  0  0  0  0  0  0  0  0  0
   -5.8530   17.8390  -34.0270 C   0  0  0  0  0  0  0  0  0  0  0  0
   -5.1000   18.9000  -33.3300 N   0  0  0  0  0  0  0  0  0  0  0  0
   -3.6650   18.7350  -33.0370 C   0  0  0  0  0  0  0  0  0  0  0  0
   -2.8000   19.5460  -34.0110 C   0  0  0  0  0  0  0  0  0  0  0  0
   -2.0400   20.6520  -33.2870 C   0  0  0  0  0  0  0  0  0  0  0  0
   -5.8050   20.0460  -32.8080 C   0  0  0  0  0  0  0  0  0  0  0  0
   -7.2210   20.1220  -32.8920 C   0  0  0  0  0  0  0  0  0  0  0  0
   -7.9140   21.2330  -32.3850 C   0  0  0  0  0  0  0  0  0  0  0  0
   -7.1730   22.2490  -31.7900 C   0  0  0  0  0  0  0  0  0  0  0  0
   -7.5870   23.4350  -31.2290 C   0  0  0  0  0  0  0  0  0  0  0  0
   -6.4240   24.0610  -30.7860 C   0  0  0  0  0  0  0  0  0  0  0  0
   -6.4100   25.3280  -30.0220 C   0  0  0  0  0  0  0  0  0  0  0  0
   -5.5470   26.4010  -30.4030 N   0  0  0  0  0  0  0  0  0  0  0  0
   -7.1860   25.4860  -29.0420 O   0  0  0  0  0  0  0  0  0  0  0  0
   -5.3320   23.2930  -31.0670 N   0  0  0  0  0  0  0  0  0  0  0  0
   -3.9510   23.6070  -30.8200 C   0  0  0  0  0  0  0  0  0  0  0  0
   -3.5640   24.8070  -30.8410 O   0  0  0  0  0  0  0  0  0  0  0  0
   -3.0370   22.5760  -30.5740 O   0  0  0  0  0  0  0  0  0  0  0  0
   -2.7180   22.1040  -29.2680 C   0  0  0  0  0  0  0  0  0  0  0  0
   -2.8410   23.2210  -28.2680 C   0  0  0  0  0  0  0  0  0  0  0  0
   -1.7020   23.9520  -27.8930 C   0  0  0  0  0  0  0  0  0  0  0  0
   -1.8010   24.9740  -26.9450 C   0  0  0  0  0  0  0  0  0  0  0  0
   -3.0360   25.2680  -26.3590 C   0  0  0  0  0  0  0  0  0  0  0  0
   -4.1730   24.5410  -26.7220 C   0  0  0  0  0  0  0  0  0  0  0  0
   -4.0780   23.5180  -27.6720 C   0  0  0  0  0  0  0  0  0  0  0  0
   -5.8090   22.1880  -31.6820 C   0  0  0  0  0  0  0  0  0  0  0  0
   -5.0910   21.1030  -32.1980 C   0  0  0  0  0  0  0  0  0  0  0  0
   -6.9090   16.7496  -30.9300 H   0  0  0  0  0  0  0  0  0  0  0  0
   -5.2142   16.4330  -31.4342 H   0  0  0  0  0  0  0  0  0  0  0  0
   -5.8525   18.1121  -31.4342 H   0  0  0  0  0  0  0  0  0  0  0  0
   -6.3602   15.8457  -33.3718 H   0  0  0  0  0  0  0  0  0  0  0  0
   -7.6416   17.1073  -33.0954 H   0  0  0  0  0  0  0  0  0  0  0  0
   -5.1520   17.2582  -34.6444 H   0  0  0  0  0  0  0  0  0  0  0  0
   -6.6260   18.3282  -34.6378 H   0  0  0  0  0  0  0  0  0  0  0  0
   -3.4671   19.0783  -32.0109 H   0  0  0  0  0  0  0  0  0  0  0  0
   -3.4082   17.6712  -33.1479 H   0  0  0  0  0  0  0  0  0  0  0  0
   -2.0776   18.8723  -34.4951 H   0  0  0  0  0  0  0  0  0  0  0  0
   -3.4603   20.0100  -34.7585 H   0  0  0  0  0  0  0  0  0  0  0  0
   -2.1361   20.5121  -32.2002 H   0  0  0  0  0  0  0  0  0  0  0  0
   -0.9776   20.6122  -33.5693 H   0  0  0  0  0  0  0  0  0  0  0  0
   -2.4580   21.6295  -33.5693 H   0  0  0  0  0  0  0  0  0  0  0  0
   -7.7819   19.2998  -33.3603 H   0  0  0  0  0  0  0  0  0  0  0  0
   -9.0098   21.2980  -32.4561 H   0  0  0  0  0  0  0  0  0  0  0  0
   -8.6180   23.8096  -31.1475 H   0  0  0  0  0  0  0  0  0  0  0  0
   -4.8590   26.2920  -31.1810 H   0  0  0  0  0  0  0  0  0  0  0  0
   -5.5660   27.3020  -29.8780 H   0  0  0  0  0  0  0  0  0  0  0  0
   -3.4104   21.2940  -28.9951 H   0  0  0  0  0  0  0  0  0  0  0  0
   -1.6833   21.7306  -29.2639 H   0  0  0  0  0  0  0  0  0  0  0  0
   -0.7277   23.7191  -28.3474 H   0  0  0  0  0  0  0  0  0  0  0  0
   -0.9068   25.5475  -26.6596 H   0  0  0  0  0  0  0  0  0  0  0  0
   -3.1127   26.0718  -25.6120 H   0  0  0  0  0  0  0  0  0  0  0  0
   -5.1440   24.7733  -26.2603 H   0  0  0  0  0  0  0  0  0  0  0  0
   -4.9740   22.9450  -27.9528 H   0  0  0  0  0  0  0  0  0  0  0  0
   -3.9935   21.0732  -32.1303 H   0  0  0  0  0  0  0  0  0  0  0  0
  1  2  1  0
  2  3  1  0
  3  4  1  0
  4  5  1  0
  5  6  1  0
  6  7  1  0
  4  8  1  0
  8  9  2  0
  9 10  1  0
 10 11  2  0
 11 12  1  0
 12 13  2  0
 13 14  1  0
 14 15  1  0
 14 16  2  0
 13 17  1  0
 17 18  1  0
 18 19  2  0
 18 20  1  0
 20 21  1  0
 21 22  1  0
 22 23  2  0
 23 24  1  0
 24 25  2  0
 25 26  1  0
 26 27  2  0
 17 28  1  0
 28 29  2  0
 29  8  1  0
 28 11  1  0
 27 22  1  0
  1 30  1  0
  1 31  1  0
  1 32  1  0
  2 33  1  0
  2 34  1  0
  3 35  1  0
  3 36  1  0
  5 37  1  0
  5 38  1  0
  6 39  1  0
  6 40  1  0
  7 41  1  0
  7 42  1  0
  7 43  1  0
  9 44  1  0
 10 45  1  0
 12 46  1  0
 15 47  1  0
 15 48  1  0
 21 49  1  0
 21 50  1  0
 23 51  1  0
 24 52  1  0
 25 53  1  0
 26 54  1  0
 27 55  1  0
 29 56  1  0
M  END
>  <UniqueID>  (82) 
81

>  <SMILES>  (82) 
CCCN(CCC)c1ccc2cc(C(N)=O)n(C(=O)OCc3ccccc3)c2c1

>  <Energy>  (82) 
89.24943399751942

>  <Genealogy>  (82) 
CCCN(CCC)c1ccc2cc(C(N)=O)n(C(=O)OCc3ccccc3)c2c1 (3D coordinates assigned)
CCCN(CCC)c1ccc2cc(C(N)=O)n(C(=O)OCc3ccccc3)c2c1 (optimized conformer: 89.24943399751942 kcal/mol)

>  <smiles>  (82) 
CCCN(CCC)c1ccc2cc(C(N)=O)n(C(=O)OCc3ccccc3)c2c1

>  <score_type>  (82) 
oracle

>  <origin>  (82) 
adg

>  <m_score__min__energy>  (82) 
-9.9499999999999993

>  <m_primary>  (82) 
energy

$$$$
82:0
     RDKit          3D

 47 49  0  0  0  0  0  0  0  0999 V2000
   -6.1930   22.6930  -30.0860 C   0  0  0  0  0  0  0  0  0  0  0  0
   -6.0340   24.0140  -30.8500 C   0  0  0  0  0  0  0  0  0  0  0  0
   -6.8670   25.1010  -30.1440 C   0  0  0  0  0  0  0  0  0  0  0  0
   -6.5220   23.8130  -32.2980 C   0  0  0  0  0  0  0  0  0  0  0  0
   -4.6400   24.3520  -30.8280 O   0  0  0  0  0  0  0  0  0  0  0  0
   -3.7450   24.1130  -29.7740 C   0  0  0  0  0  0  0  0  0  0  0  0
   -3.9660   24.5630  -28.6180 O   0  0  0  0  0  0  0  0  0  0  0  0
   -2.5490   23.3610  -30.0230 N   0  0  0  0  0  0  0  0  0  0  0  0
   -1.2890   23.6260  -29.5830 C   0  0  0  0  0  0  0  0  0  0  0  0
   -0.8610   24.8380  -28.8540 C   0  0  0  0  0  0  0  0  0  0  0  0
   -1.6070   26.0480  -28.9360 N   0  0  0  0  0  0  0  0  0  0  0  0
    0.1990   24.8160  -28.1770 O   0  0  0  0  0  0  0  0  0  0  0  0
   -0.4170   22.6080  -29.9640 C   0  0  0  0  0  0  0  0  0  0  0  0
   -1.1910   21.7040  -30.6580 C   0  0  0  0  0  0  0  0  0  0  0  0
   -0.8460   20.4890  -31.2410 C   0  0  0  0  0  0  0  0  0  0  0  0
   -1.8650   19.7360  -31.8490 C   0  0  0  0  0  0  0  0  0  0  0  0
   -3.2070   20.2030  -31.8610 C   0  0  0  0  0  0  0  0  0  0  0  0
   -4.2820   19.3780  -32.4680 C   0  0  0  0  0  0  0  0  0  0  0  0
   -3.9710   18.3860  -33.4140 C   0  0  0  0  0  0  0  0  0  0  0  0
   -4.9810   17.6130  -33.9880 C   0  0  0  0  0  0  0  0  0  0  0  0
   -6.3150   17.8210  -33.6350 C   0  0  0  0  0  0  0  0  0  0  0  0
   -7.2780   17.0440  -34.1980 F   0  0  0  0  0  0  0  0  0  0  0  0
   -6.6550   18.8180  -32.7020 C   0  0  0  0  0  0  0  0  0  0  0  0
   -8.1020   19.0200  -32.3150 C   0  0  0  0  0  0  0  0  0  0  0  0
   -8.6930   17.7950  -32.0570 F   0  0  0  0  0  0  0  0  0  0  0  0
   -8.1640   19.8030  -31.1780 F   0  0  0  0  0  0  0  0  0  0  0  0
   -8.8200   19.6420  -33.3220 F   0  0  0  0  0  0  0  0  0  0  0  0
   -5.6290   19.5830  -32.1150 C   0  0  0  0  0  0  0  0  0  0  0  0
   -3.5120   21.4510  -31.2660 C   0  0  0  0  0  0  0  0  0  0  0  0
   -2.4730   22.1820  -30.6770 C   0  0  0  0  0  0  0  0  0  0  0  0
   -6.1693   22.8900  -29.0040 H   0  0  0  0  0  0  0  0  0  0  0  0
   -7.1536   22.2283  -30.3531 H   0  0  0  0  0  0  0  0  0  0  0  0
   -5.3701   22.0136  -30.3531 H   0  0  0  0  0  0  0  0  0  0  0  0
   -6.7762   24.9825  -29.0542 H   0  0  0  0  0  0  0  0  0  0  0  0
   -6.4969   26.0946  -30.4369 H   0  0  0  0  0  0  0  0  0  0  0  0
   -7.9227   25.0020  -30.4369 H   0  0  0  0  0  0  0  0  0  0  0  0
   -7.5391   23.3941  -32.2873 H   0  0  0  0  0  0  0  0  0  0  0  0
   -6.5297   24.7812  -32.8201 H   0  0  0  0  0  0  0  0  0  0  0  0
   -5.8456   23.1203  -32.8201 H   0  0  0  0  0  0  0  0  0  0  0  0
   -2.6510   26.0350  -28.9610 H   0  0  0  0  0  0  0  0  0  0  0  0
    0.6608   22.5405  -29.7549 H   0  0  0  0  0  0  0  0  0  0  0  0
    0.1931   20.1285  -31.2265 H   0  0  0  0  0  0  0  0  0  0  0  0
   -1.6207   18.7731  -32.3215 H   0  0  0  0  0  0  0  0  0  0  0  0
   -2.9234   18.2177  -33.7041 H   0  0  0  0  0  0  0  0  0  0  0  0
   -4.7243   16.8356  -34.7226 H   0  0  0  0  0  0  0  0  0  0  0  0
   -5.8837   20.3515  -31.3703 H   0  0  0  0  0  0  0  0  0  0  0  0
   -4.5418   21.8376  -31.2664 H   0  0  0  0  0  0  0  0  0  0  0  0
  1  2  1  0
  2  3  1  0
  2  4  1  0
  2  5  1  0
  5  6  1  0
  6  7  2  0
  6  8  1  0
  8  9  1  0
  9 10  1  0
 10 11  1  0
 10 12  2  0
  9 13  2  0
 13 14  1  0
 14 15  2  0
 15 16  1  0
 16 17  2  0
 17 18  1  0
 18 19  2  0
 19 20  1  0
 20 21  2  0
 21 22  1  0
 21 23  1  0
 23 24  1  0
 24 25  1  0
 24 26  1  0
 24 27  1  0
 23 28  2  0
 17 29  1  0
 29 30  2  0
 30  8  1  0
 30 14  1  0
 28 18  1  0
  1 31  1  0
  1 32  1  0
  1 33  1  0
  3 34  1  0
  3 35  1  0
  3 36  1  0
  4 37  1  0
  4 38  1  0
  4 39  1  0
 11 40  1  0
 13 41  1  0
 15 42  1  0
 16 43  1  0
 19 44  1  0
 20 45  1  0
 28 46  1  0
 29 47  1  0
M  CHG  1  11  -1
M  END
>  <UniqueID>  (83) 
82

>  <SMILES>  (83) 
CC(C)(C)OC(=O)n1c(C([NH-])=O)cc2ccc(-c3ccc(F)c(C(F)(F)F)c3)cc21

>  <Energy>  (83) 
90.22340943373231

>  <Genealogy>  (83) 
CC(C)(C)OC(=O)n1c(C([NH-])=O)cc2ccc(-c3ccc(F)c(C(F)(F)F)c3)cc21 (protonated)
CC(C)(C)OC(=O)n1c(C([NH-])=O)cc2ccc(-c3ccc(F)c(C(F)(F)F)c3)cc21 (3D coordinates assigned)
CC(C)(C)OC(=O)n1c(C([NH-])=O)cc2ccc(-c3ccc(F)c(C(F)(F)F)c3)cc21 (optimized conformer: 90.22340943373231 kcal/mol)

>  <smiles>  (83) 
CC(C)(C)OC(=O)n1c(C(N)=O)cc2ccc(-c3ccc(F)c(C(F)(F)F)c3)cc21

>  <score_type>  (83) 
oracle

>  <origin>  (83) 
adg

>  <m_score__min__energy>  (83) 
-11

>  <m_primary>  (83) 
energy

$$$$
83:0
     RDKit          3D

 39 41  0  0  0  0  0  0  0  0999 V2000
   -4.2440   25.5160  -30.5960 N   0  0  0  0  0  0  0  0  0  0  0  0
   -5.5990   25.1390  -30.3450 C   0  0  0  0  0  0  0  0  0  0  0  0
   -6.3700   25.9550  -29.7710 O   0  0  0  0  0  0  0  0  0  0  0  0
   -6.1300   23.8380  -30.7990 C   0  0  0  0  0  0  0  0  0  0  0  0
   -7.4830   23.5940  -31.0200 C   0  0  0  0  0  0  0  0  0  0  0  0
   -7.5450   22.3050  -31.5000 C   0  0  0  0  0  0  0  0  0  0  0  0
   -8.6460   21.5460  -31.8840 C   0  0  0  0  0  0  0  0  0  0  0  0
   -8.4180   20.2280  -32.3180 C   0  0  0  0  0  0  0  0  0  0  0  0
   -7.1070   19.6930  -32.3420 C   0  0  0  0  0  0  0  0  0  0  0  0
   -6.8750   18.2930  -32.8280 C   0  0  0  0  0  0  0  0  0  0  0  0
   -5.9050   18.3290  -34.3210 Cl  0  0  0  0  0  0  0  0  0  0  0  0
   -6.0120   20.4970  -31.9540 C   0  0  0  0  0  0  0  0  0  0  0  0
   -6.2660   21.8110  -31.5470 C   0  0  0  0  0  0  0  0  0  0  0  0
   -5.3860   22.7410  -31.1120 N   0  0  0  0  0  0  0  0  0  0  0  0
   -3.9740   22.5630  -30.9300 C   0  0  0  0  0  0  0  0  0  0  0  0
   -3.1750   22.9020  -31.8460 O   0  0  0  0  0  0  0  0  0  0  0  0
   -3.4910   22.0010  -29.7430 O   0  0  0  0  0  0  0  0  0  0  0  0
   -3.9140   22.4270  -28.4500 C   0  0  0  0  0  0  0  0  0  0  0  0
   -3.0730   23.5860  -27.9860 C   0  0  0  0  0  0  0  0  0  0  0  0
   -3.4090   24.2660  -26.8050 C   0  0  0  0  0  0  0  0  0  0  0  0
   -2.6080   25.3150  -26.3440 C   0  0  0  0  0  0  0  0  0  0  0  0
   -1.4660   25.6910  -27.0580 C   0  0  0  0  0  0  0  0  0  0  0  0
   -1.1230   25.0150  -28.2320 C   0  0  0  0  0  0  0  0  0  0  0  0
   -1.9210   23.9650  -28.6950 C   0  0  0  0  0  0  0  0  0  0  0  0
   -3.6310   24.9470  -31.2210 H   0  0  0  0  0  0  0  0  0  0  0  0
   -3.8740   26.4190  -30.2250 H   0  0  0  0  0  0  0  0  0  0  0  0
   -8.3226   24.2835  -30.8479 H   0  0  0  0  0  0  0  0  0  0  0  0
   -9.6630   21.9638  -31.8492 H   0  0  0  0  0  0  0  0  0  0  0  0
   -9.2660   19.6067  -32.6419 H   0  0  0  0  0  0  0  0  0  0  0  0
   -6.3374   17.7224  -32.0563 H   0  0  0  0  0  0  0  0  0  0  0  0
   -7.8434   17.8138  -33.0342 H   0  0  0  0  0  0  0  0  0  0  0  0
   -4.9863   20.1000  -31.9715 H   0  0  0  0  0  0  0  0  0  0  0  0
   -4.9681   22.7380  -28.4963 H   0  0  0  0  0  0  0  0  0  0  0  0
   -3.8003   21.5934  -27.7414 H   0  0  0  0  0  0  0  0  0  0  0  0
   -4.3060   23.9724  -26.2400 H   0  0  0  0  0  0  0  0  0  0  0  0
   -2.8765   25.8453  -25.4184 H   0  0  0  0  0  0  0  0  0  0  0  0
   -0.8380   26.5183  -26.6958 H   0  0  0  0  0  0  0  0  0  0  0  0
   -0.2236   25.3097  -28.7926 H   0  0  0  0  0  0  0  0  0  0  0  0
   -1.6459   23.4335  -29.6179 H   0  0  0  0  0  0  0  0  0  0  0  0
  1  2  1  0
  2  3  2  0
  2  4  1  0
  4  5  2  0
  5  6  1  0
  6  7  2  0
  7  8  1  0
  8  9  2  0
  9 10  1  0
 10 11  1  0
  9 12  1  0
 12 13  2  0
 13 14  1  0
 14 15  1  0
 15 16  2  0
 15 17  1  0
 17 18  1  0
 18 19  1  0
 19 20  2  0
 20 21  1  0
 21 22  2  0
 22 23  1  0
 23 24  2  0
 14  4  1  0
 24 19  1  0
 13  6  1  0
  1 25  1  0
  1 26  1  0
  5 27  1  0
  7 28  1  0
  8 29  1  0
 10 30  1  0
 10 31  1  0
 12 32  1  0
 18 33  1  0
 18 34  1  0
 20 35  1  0
 21 36  1  0
 22 37  1  0
 23 38  1  0
 24 39  1  0
M  END
>  <UniqueID>  (84) 
83

>  <SMILES>  (84) 
NC(=O)c1cc2ccc(CCl)cc2n1C(=O)OCc1ccccc1

>  <Energy>  (84) 
77.39650852518326

>  <Genealogy>  (84) 
NC(=O)c1cc2ccc(CCl)cc2n1C(=O)OCc1ccccc1 (3D coordinates assigned)
NC(=O)c1cc2ccc(CCl)cc2n1C(=O)OCc1ccccc1 (optimized conformer: 77.39650852518326 kcal/mol)

>  <smiles>  (84) 
NC(=O)c1cc2ccc(CCl)cc2n1C(=O)OCc1ccccc1

>  <score_type>  (84) 
oracle

>  <origin>  (84) 
adg

>  <m_score__min__energy>  (84) 
-9.6899999999999995

>  <m_primary>  (84) 
energy

$$$$
84:0
     RDKit          3D

 47 49  0  0  0  0  0  0  0  0999 V2000
   -1.6920   24.5970  -28.8250 C   0  0  0  0  0  0  0  0  0  0  0  0
   -2.9800   23.7990  -29.1100 C   0  0  0  0  0  0  0  0  0  0  0  0
   -2.6640   22.2980  -29.0140 C   0  0  0  0  0  0  0  0  0  0  0  0
   -4.0730   24.1460  -28.0800 C   0  0  0  0  0  0  0  0  0  0  0  0
   -3.4450   24.0500  -30.4440 O   0  0  0  0  0  0  0  0  0  0  0  0
   -4.0270   23.1170  -31.3160 C   0  0  0  0  0  0  0  0  0  0  0  0
   -3.3110   22.4200  -32.0860 O   0  0  0  0  0  0  0  0  0  0  0  0
   -5.4560   22.9610  -31.3330 N   0  0  0  0  0  0  0  0  0  0  0  0
   -6.3900   23.8990  -31.0040 C   0  0  0  0  0  0  0  0  0  0  0  0
   -6.1170   25.2140  -30.3870 C   0  0  0  0  0  0  0  0  0  0  0  0
   -5.0370   26.0320  -30.8380 N   0  0  0  0  0  0  0  0  0  0  0  0
   -6.8080   25.5910  -29.4040 O   0  0  0  0  0  0  0  0  0  0  0  0
   -7.6720   23.4330  -31.2710 C   0  0  0  0  0  0  0  0  0  0  0  0
   -7.5010   22.1610  -31.7670 C   0  0  0  0  0  0  0  0  0  0  0  0
   -8.4450   21.2390  -32.2060 C   0  0  0  0  0  0  0  0  0  0  0  0
   -7.9860   20.0070  -32.6980 C   0  0  0  0  0  0  0  0  0  0  0  0
   -6.5960   19.7190  -32.7510 C   0  0  0  0  0  0  0  0  0  0  0  0
   -6.1220   18.4110  -33.2710 C   0  0  0  0  0  0  0  0  0  0  0  0
   -4.9300   18.3260  -34.0120 C   0  0  0  0  0  0  0  0  0  0  0  0
   -4.4780   17.0930  -34.4930 C   0  0  0  0  0  0  0  0  0  0  0  0
   -5.2120   15.9260  -34.2420 C   0  0  0  0  0  0  0  0  0  0  0  0
   -4.7470   14.6650  -34.7320 N   0  0  0  0  0  0  0  0  0  0  0  0
   -6.4020   16.0030  -33.5070 C   0  0  0  0  0  0  0  0  0  0  0  0
   -6.8540   17.2350  -33.0240 C   0  0  0  0  0  0  0  0  0  0  0  0
   -5.6680   20.6870  -32.3020 C   0  0  0  0  0  0  0  0  0  0  0  0
   -6.1540   21.8990  -31.7960 C   0  0  0  0  0  0  0  0  0  0  0  0
   -1.5487   24.6858  -27.7380 H   0  0  0  0  0  0  0  0  0  0  0  0
   -0.8312   24.0738  -29.2668 H   0  0  0  0  0  0  0  0  0  0  0  0
   -1.7772   25.6008  -29.2668 H   0  0  0  0  0  0  0  0  0  0  0  0
   -2.6020   22.0033  -27.9560 H   0  0  0  0  0  0  0  0  0  0  0  0
   -3.4608   21.7232  -29.5086 H   0  0  0  0  0  0  0  0  0  0  0  0
   -1.7031   22.0932  -29.5086 H   0  0  0  0  0  0  0  0  0  0  0  0
   -3.6725   24.0188  -27.0634 H   0  0  0  0  0  0  0  0  0  0  0  0
   -4.3915   25.1894  -28.2208 H   0  0  0  0  0  0  0  0  0  0  0  0
   -4.9350   23.4774  -28.2208 H   0  0  0  0  0  0  0  0  0  0  0  0
   -4.8760   26.9720  -30.4130 H   0  0  0  0  0  0  0  0  0  0  0  0
   -4.3490   25.6770  -31.5370 H   0  0  0  0  0  0  0  0  0  0  0  0
   -8.6213   23.9674  -31.1183 H   0  0  0  0  0  0  0  0  0  0  0  0
   -9.5202   21.4684  -32.1688 H   0  0  0  0  0  0  0  0  0  0  0  0
   -8.7107   19.2563  -33.0463 H   0  0  0  0  0  0  0  0  0  0  0  0
   -4.3480   19.2371  -34.2151 H   0  0  0  0  0  0  0  0  0  0  0  0
   -3.5432   17.0391  -35.0703 H   0  0  0  0  0  0  0  0  0  0  0  0
   -4.8730   13.7940  -34.1700 H   0  0  0  0  0  0  0  0  0  0  0  0
   -4.2690   14.5950  -35.6590 H   0  0  0  0  0  0  0  0  0  0  0  0
   -6.9834   15.0904  -33.3089 H   0  0  0  0  0  0  0  0  0  0  0  0
   -7.7889   17.2851  -32.4466 H   0  0  0  0  0  0  0  0  0  0  0  0
   -4.5865   20.4919  -32.3492 H   0  0  0  0  0  0  0  0  0  0  0  0
  1  2  1  0
  2  3  1  0
  2  4  1  0
  2  5  1  0
  5  6  1  0
  6  7  2  0
  6  8  1  0
  8  9  1  0
  9 10  1  0
 10 11  1  0
 10 12  2  0
  9 13  2  0
 13 14  1  0
 14 15  2  0
 15 16  1  0
 16 17  2  0
 17 18  1  0
 18 19  2  0
 19 20  1  0
 20 21  2  0
 21 22  1  0
 21 23  1  0
 23 24  2  0
 17 25  1  0
 25 26  2  0
 26  8  1  0
 26 14  1  0
 24 18  1  0
  1 27  1  0
  1 28  1  0
  1 29  1  0
  3 30  1  0
  3 31  1  0
  3 32  1  0
  4 33  1  0
  4 34  1  0
  4 35  1  0
 11 36  1  0
 11 37  1  0
 13 38  1  0
 15 39  1  0
 16 40  1  0
 19 41  1  0
 20 42  1  0
 22 43  1  0
 22 44  1  0
 23 45  1  0
 24 46  1  0
 25 47  1  0
M  END
>  <UniqueID>  (85) 
84

>  <SMILES>  (85) 
CC(C)(C)OC(=O)n1c(C(N)=O)cc2ccc(-c3ccc(N)cc3)cc21

>  <Energy>  (85) 
87.51607375392251

>  <Genealogy>  (85) 
CC(C)(C)OC(=O)n1c(C(N)=O)cc2ccc(-c3ccc(N)cc3)cc21 (3D coordinates assigned)
CC(C)(C)OC(=O)n1c(C(N)=O)cc2ccc(-c3ccc(N)cc3)cc21 (optimized conformer: 87.51607375392251 kcal/mol)

>  <smiles>  (85) 
CC(C)(C)OC(=O)n1c(C(N)=O)cc2ccc(-c3ccc(N)cc3)cc21

>  <score_type>  (85) 
oracle

>  <origin>  (85) 
adg

>  <m_score__min__energy>  (85) 
-9.3900000000000006

>  <m_primary>  (85) 
energy

$$$$
85:0
     RDKit          3D

 49 51  0  0  0  0  0  0  0  0999 V2000
   -2.0460   21.1250  -33.7630 C   0  0  0  0  0  0  0  0  0  0  0  0
   -2.4970   21.0810  -32.2910 C   0  0  0  0  0  0  0  0  0  0  0  0
   -3.2900   19.7880  -32.0530 C   0  0  0  0  0  0  0  0  0  0  0  0
   -1.2800   21.0980  -31.3480 C   0  0  0  0  0  0  0  0  0  0  0  0
   -3.3760   22.1750  -31.9960 O   0  0  0  0  0  0  0  0  0  0  0  0
   -4.1660   22.3230  -30.8460 C   0  0  0  0  0  0  0  0  0  0  0  0
   -3.7090   22.0510  -29.7040 O   0  0  0  0  0  0  0  0  0  0  0  0
   -5.5250   22.7630  -30.9840 N   0  0  0  0  0  0  0  0  0  0  0  0
   -6.0420   23.9980  -30.7300 C   0  0  0  0  0  0  0  0  0  0  0  0
   -5.2700   25.2070  -30.3740 C   0  0  0  0  0  0  0  0  0  0  0  0
   -3.8750   25.2970  -30.6490 N   0  0  0  0  0  0  0  0  0  0  0  0
   -5.8610   26.1950  -29.8600 O   0  0  0  0  0  0  0  0  0  0  0  0
   -7.4200   24.0000  -30.9350 C   0  0  0  0  0  0  0  0  0  0  0  0
   -7.7320   22.7200  -31.3360 C   0  0  0  0  0  0  0  0  0  0  0  0
   -8.9610   22.1570  -31.6680 C   0  0  0  0  0  0  0  0  0  0  0  0
   -8.9890   20.7980  -32.0230 C   0  0  0  0  0  0  0  0  0  0  0  0
   -7.7970   20.0290  -32.0410 C   0  0  0  0  0  0  0  0  0  0  0  0
   -7.8460   18.5610  -32.3850 C   0  0  0  0  0  0  0  0  0  0  0  0
   -6.5150   18.0700  -32.9140 C   0  0  0  0  0  0  0  0  0  0  0  0
   -6.1180   18.4570  -34.2080 C   0  0  0  0  0  0  0  0  0  0  0  0
   -4.9120   18.0070  -34.7480 C   0  0  0  0  0  0  0  0  0  0  0  0
   -4.0890   17.1580  -34.0090 C   0  0  0  0  0  0  0  0  0  0  0  0
   -4.4690   16.7590  -32.7280 C   0  0  0  0  0  0  0  0  0  0  0  0
   -5.6760   17.2040  -32.1660 C   0  0  0  0  0  0  0  0  0  0  0  0
   -6.0270   16.7640  -30.8460 N   0  0  0  0  0  0  0  0  0  0  0  0
   -6.5720   20.6330  -31.6780 C   0  0  0  0  0  0  0  0  0  0  0  0
   -6.5710   21.9930  -31.3550 C   0  0  0  0  0  0  0  0  0  0  0  0
   -0.9521   21.2317  -33.8083 H   0  0  0  0  0  0  0  0  0  0  0  0
   -2.3447   20.1935  -34.2660 H   0  0  0  0  0  0  0  0  0  0  0  0
   -2.5191   21.9813  -34.2660 H   0  0  0  0  0  0  0  0  0  0  0  0
   -3.3953   19.6163  -30.9716 H   0  0  0  0  0  0  0  0  0  0  0  0
   -4.2870   19.8803  -32.5084 H   0  0  0  0  0  0  0  0  0  0  0  0
   -2.7558   18.9411  -32.5084 H   0  0  0  0  0  0  0  0  0  0  0  0
   -1.6253   21.0932  -30.3036 H   0  0  0  0  0  0  0  0  0  0  0  0
   -0.6601   20.2084  -31.5333 H   0  0  0  0  0  0  0  0  0  0  0  0
   -0.6852   22.0045  -31.5333 H   0  0  0  0  0  0  0  0  0  0  0  0
   -3.4960   26.0450  -31.2690 H   0  0  0  0  0  0  0  0  0  0  0  0
   -8.1121   24.8449  -30.8043 H   0  0  0  0  0  0  0  0  0  0  0  0
   -9.8822   22.7579  -31.6529 H   0  0  0  0  0  0  0  0  0  0  0  0
   -9.9456   20.3251  -32.2899 H   0  0  0  0  0  0  0  0  0  0  0  0
   -8.1036   17.9904  -31.4805 H   0  0  0  0  0  0  0  0  0  0  0  0
   -8.6037   18.4155  -33.1690 H   0  0  0  0  0  0  0  0  0  0  0  0
   -6.7650   19.1211  -34.7999 H   0  0  0  0  0  0  0  0  0  0  0  0
   -4.6105   18.3225  -35.7577 H   0  0  0  0  0  0  0  0  0  0  0  0
   -3.1398   16.8029  -34.4366 H   0  0  0  0  0  0  0  0  0  0  0  0
   -3.8155   16.0879  -32.1513 H   0  0  0  0  0  0  0  0  0  0  0  0
   -6.6830   17.3260  -30.2600 H   0  0  0  0  0  0  0  0  0  0  0  0
   -5.6550   15.8840  -30.4310 H   0  0  0  0  0  0  0  0  0  0  0  0
   -5.6415   20.0469  -31.6503 H   0  0  0  0  0  0  0  0  0  0  0  0
  1  2  1  0
  2  3  1  0
  2  4  1  0
  2  5  1  0
  5  6  1  0
  6  7  2  0
  6  8  1  0
  8  9  1  0
  9 10  1  0
 10 11  1  0
 10 12  2  0
  9 13  2  0
 13 14  1  0
 14 15  2  0
 15 16  1  0
 16 17  2  0
 17 18  1  0
 18 19  1  0
 19 20  2  0
 20 21  1  0
 21 22  2  0
 22 23  1  0
 23 24  2  0
 24 25  1  0
 17 26  1  0
 26 27  2  0
 27  8  1  0
 27 14  1  0
 24 19  1  0
  1 28  1  0
  1 29  1  0
  1 30  1  0
  3 31  1  0
  3 32  1  0
  3 33  1  0
  4 34  1  0
  4 35  1  0
  4 36  1  0
 11 37  1  0
 13 38  1  0
 15 39  1  0
 16 40  1  0
 18 41  1  0
 18 42  1  0
 20 43  1  0
 21 44  1  0
 22 45  1  0
 23 46  1  0
 25 47  1  0
 25 48  1  0
 26 49  1  0
M  CHG  1  11  -1
M  END
>  <UniqueID>  (86) 
85

>  <SMILES>  (86) 
CC(C)(C)OC(=O)n1c(C([NH-])=O)cc2ccc(Cc3ccccc3N)cc21

>  <Energy>  (86) 
84.33556540320465

>  <Genealogy>  (86) 
CC(C)(C)OC(=O)n1c(C([NH-])=O)cc2ccc(Cc3ccccc3N)cc21 (protonated)
CC(C)(C)OC(=O)n1c(C([NH-])=O)cc2ccc(Cc3ccccc3N)cc21 (3D coordinates assigned)
CC(C)(C)OC(=O)n1c(C([NH-])=O)cc2ccc(Cc3ccccc3N)cc21 (optimized conformer: 84.33556540320465 kcal/mol)

>  <smiles>  (86) 
CC(C)(C)OC(=O)n1c(C(N)=O)cc2ccc(Cc3ccccc3N)cc21

>  <score_type>  (86) 
oracle

>  <origin>  (86) 
adg

>  <m_score__min__energy>  (86) 
-12.06

>  <m_primary>  (86) 
energy

$$$$
86:0
     RDKit          3D

 27 28  0  0  0  0  0  0  0  0999 V2000
   -4.1930   20.2340  -32.2900 C   0  0  0  0  0  0  0  0  0  0  0  0
   -5.5820   20.6350  -32.6690 C   0  0  0  0  0  0  0  0  0  0  0  0
   -6.0430   20.2720  -33.7840 O   0  0  0  0  0  0  0  0  0  0  0  0
   -6.4020   21.4080  -31.7760 N   0  0  0  0  0  0  0  0  0  0  0  0
   -7.7050   21.1770  -31.4510 C   0  0  0  0  0  0  0  0  0  0  0  0
   -8.4970   19.9930  -31.8430 C   0  0  0  0  0  0  0  0  0  0  0  0
   -8.7050   19.6600  -33.2170 N   0  0  0  0  0  0  0  0  0  0  0  0
   -8.9590   19.2360  -30.9500 O   0  0  0  0  0  0  0  0  0  0  0  0
   -8.2080   22.2120  -30.6670 C   0  0  0  0  0  0  0  0  0  0  0  0
   -7.1620   23.0930  -30.5140 C   0  0  0  0  0  0  0  0  0  0  0  0
   -7.1120   24.3130  -29.8460 C   0  0  0  0  0  0  0  0  0  0  0  0
   -5.9110   25.0410  -29.8960 C   0  0  0  0  0  0  0  0  0  0  0  0
   -4.7980   24.5460  -30.6170 C   0  0  0  0  0  0  0  0  0  0  0  0
   -3.5880   25.3060  -30.6740 N   0  0  0  0  0  0  0  0  0  0  0  0
   -4.8850   23.3070  -31.2860 C   0  0  0  0  0  0  0  0  0  0  0  0
   -6.0840   22.5880  -31.1970 C   0  0  0  0  0  0  0  0  0  0  0  0
   -4.1049   20.2086  -31.1938 H   0  0  0  0  0  0  0  0  0  0  0  0
   -3.9750   19.2362  -32.6986 H   0  0  0  0  0  0  0  0  0  0  0  0
   -3.4768   20.9621  -32.6986 H   0  0  0  0  0  0  0  0  0  0  0  0
   -9.3110   18.8490  -33.4710 H   0  0  0  0  0  0  0  0  0  0  0  0
   -8.1840   20.1490  -33.9770 H   0  0  0  0  0  0  0  0  0  0  0  0
   -9.2246   22.3055  -30.2574 H   0  0  0  0  0  0  0  0  0  0  0  0
   -7.9848   24.6952  -29.2964 H   0  0  0  0  0  0  0  0  0  0  0  0
   -5.8352   26.0042  -29.3701 H   0  0  0  0  0  0  0  0  0  0  0  0
   -3.1230   25.6350  -29.7980 H   0  0  0  0  0  0  0  0  0  0  0  0
   -3.1490   25.5440  -31.5910 H   0  0  0  0  0  0  0  0  0  0  0  0
   -4.0337   22.9158  -31.8624 H   0  0  0  0  0  0  0  0  0  0  0  0
  1  2  1  0
  2  3  2  0
  2  4  1  0
  4  5  1  0
  5  6  1  0
  6  7  1  0
  6  8  2  0
  5  9  2  0
  9 10  1  0
 10 11  2  0
 11 12  1  0
 12 13  2  0
 13 14  1  0
 13 15  1  0
 15 16  2  0
 16  4  1  0
 16 10  1  0
  1 17  1  0
  1 18  1  0
  1 19  1  0
  7 20  1  0
  7 21  1  0
  9 22  1  0
 11 23  1  0
 12 24  1  0
 14 25  1  0
 14 26  1  0
 15 27  1  0
M  END
>  <UniqueID>  (87) 
86

>  <SMILES>  (87) 
CC(=O)n1c(C(N)=O)cc2ccc(N)cc21

>  <Energy>  (87) 
65.8065228651528

>  <Genealogy>  (87) 
CC(=O)n1c(C(N)=O)cc2ccc(N)cc21 (3D coordinates assigned)
CC(=O)n1c(C(N)=O)cc2ccc(N)cc21 (optimized conformer: 65.8065228651528 kcal/mol)

>  <smiles>  (87) 
CC(=O)n1c(C(N)=O)cc2ccc(N)cc21

>  <score_type>  (87) 
oracle

>  <origin>  (87) 
adg

>  <m_score__min__energy>  (87) 
-7.6299999999999999

>  <m_primary>  (87) 
energy

$$$$
87:0
     RDKit          3D

 49 51  0  0  0  0  0  0  0  0999 V2000
   -9.4730   20.2720  -32.2830 C   0  0  0  0  0  0  0  0  0  0  0  0
   -8.1070   19.9890  -32.8140 C   0  0  0  0  0  0  0  0  0  0  0  0
   -7.3360   20.9500  -33.0860 O   0  0  0  0  0  0  0  0  0  0  0  0
   -7.6940   18.6340  -33.0320 N   0  0  0  0  0  0  0  0  0  0  0  0
   -6.3490   18.2580  -33.3500 C   0  0  0  0  0  0  0  0  0  0  0  0
   -5.1440   18.9110  -33.5770 C   0  0  0  0  0  0  0  0  0  0  0  0
   -4.7090   20.2740  -33.5390 N   0  0  0  0  0  0  0  0  0  0  0  0
   -3.6140   20.7400  -32.7370 C   0  0  0  0  0  0  0  0  0  0  0  0
   -2.3330   20.1360  -32.8210 C   0  0  0  0  0  0  0  0  0  0  0  0
   -1.2590   20.6260  -32.0610 C   0  0  0  0  0  0  0  0  0  0  0  0
   -1.4860   21.7320  -31.2470 C   0  0  0  0  0  0  0  0  0  0  0  0
   -0.6260   22.4070  -30.4150 C   0  0  0  0  0  0  0  0  0  0  0  0
   -1.3800   23.4390  -29.8620 C   0  0  0  0  0  0  0  0  0  0  0  0
   -0.8070   24.4800  -28.9840 C   0  0  0  0  0  0  0  0  0  0  0  0
   -1.3440   25.8000  -28.9700 N   0  0  0  0  0  0  0  0  0  0  0  0
    0.2040   24.2180  -28.2800 O   0  0  0  0  0  0  0  0  0  0  0  0
   -2.6620   23.3980  -30.3240 N   0  0  0  0  0  0  0  0  0  0  0  0
   -3.7700   24.2180  -29.9130 C   0  0  0  0  0  0  0  0  0  0  0  0
   -3.8400   24.6170  -28.7220 O   0  0  0  0  0  0  0  0  0  0  0  0
   -4.7850   24.5240  -30.8310 O   0  0  0  0  0  0  0  0  0  0  0  0
   -6.1550   24.1090  -30.7540 C   0  0  0  0  0  0  0  0  0  0  0  0
   -6.9390   25.2490  -30.0840 C   0  0  0  0  0  0  0  0  0  0  0  0
   -6.2840   22.8400  -29.8900 C   0  0  0  0  0  0  0  0  0  0  0  0
   -6.7380   23.8720  -32.1610 C   0  0  0  0  0  0  0  0  0  0  0  0
   -2.7080   22.3480  -31.1750 C   0  0  0  0  0  0  0  0  0  0  0  0
   -3.8020   21.8640  -31.9040 C   0  0  0  0  0  0  0  0  0  0  0  0
   -4.5200   17.6880  -33.7550 C   0  0  0  0  0  0  0  0  0  0  0  0
   -3.3430   17.3110  -33.9920 O   0  0  0  0  0  0  0  0  0  0  0  0
   -5.7180   17.0420  -33.5270 C   0  0  0  0  0  0  0  0  0  0  0  0
   -6.0820   15.8370  -33.4830 O   0  0  0  0  0  0  0  0  0  0  0  0
   -9.4473   20.2667  -31.1833 H   0  0  0  0  0  0  0  0  0  0  0  0
   -9.8070   21.2584  -32.6372 H   0  0  0  0  0  0  0  0  0  0  0  0
  -10.1714   19.4995  -32.6372 H   0  0  0  0  0  0  0  0  0  0  0  0
   -8.4230   17.8810  -33.0180 H   0  0  0  0  0  0  0  0  0  0  0  0
   -5.2720   20.9750  -34.0660 H   0  0  0  0  0  0  0  0  0  0  0  0
   -2.1797   19.2751  -33.4883 H   0  0  0  0  0  0  0  0  0  0  0  0
   -0.2683   20.1503  -32.1074 H   0  0  0  0  0  0  0  0  0  0  0  0
    0.4336   22.1803  -30.2258 H   0  0  0  0  0  0  0  0  0  0  0  0
   -2.3760   25.9610  -28.9630 H   0  0  0  0  0  0  0  0  0  0  0  0
   -6.8699   25.1485  -28.9908 H   0  0  0  0  0  0  0  0  0  0  0  0
   -6.5140   26.2161  -30.3909 H   0  0  0  0  0  0  0  0  0  0  0  0
   -7.9941   25.1982  -30.3909 H   0  0  0  0  0  0  0  0  0  0  0  0
   -6.2559   23.1166  -28.8257 H   0  0  0  0  0  0  0  0  0  0  0  0
   -7.2377   22.3395  -30.1137 H   0  0  0  0  0  0  0  0  0  0  0  0
   -5.4506   22.1578  -30.1137 H   0  0  0  0  0  0  0  0  0  0  0  0
   -7.7537   23.4591  -32.0723 H   0  0  0  0  0  0  0  0  0  0  0  0
   -6.7764   24.8259  -32.7074 H   0  0  0  0  0  0  0  0  0  0  0  0
   -6.1000   23.1619  -32.7074 H   0  0  0  0  0  0  0  0  0  0  0  0
   -4.7863   22.3494  -31.8289 H   0  0  0  0  0  0  0  0  0  0  0  0
  1  2  1  0
  2  3  2  0
  2  4  1  0
  4  5  1  0
  5  6  2  0
  6  7  1  0
  7  8  1  0
  8  9  2  0
  9 10  1  0
 10 11  2  0
 11 12  1  0
 12 13  2  0
 13 14  1  0
 14 15  1  0
 14 16  2  0
 13 17  1  0
 17 18  1  0
 18 19  2  0
 18 20  1  0
 20 21  1  0
 21 22  1  0
 21 23  1  0
 21 24  1  0
 17 25  1  0
 25 26  2  0
  6 27  1  0
 27 28  2  0
 27 29  1  0
 29 30  2  0
 29  5  1  0
 26  8  1  0
 25 11  1  0
  1 31  1  0
  1 32  1  0
  1 33  1  0
  4 34  1  0
  7 35  1  0
  9 36  1  0
 10 37  1  0
 12 38  1  0
 15 39  1  0
 22 40  1  0
 22 41  1  0
 22 42  1  0
 23 43  1  0
 23 44  1  0
 23 45  1  0
 24 46  1  0
 24 47  1  0
 24 48  1  0
 26 49  1  0
M  CHG  1  15  -1
M  END
>  <UniqueID>  (88) 
87

>  <SMILES>  (88) 
CC(=O)Nc1c(Nc2ccc3cc(C([NH-])=O)n(C(=O)OC(C)(C)C)c3c2)c(=O)c1=O

>  <Energy>  (88) 
78.67055761690091

>  <Genealogy>  (88) 
CC(=O)Nc1c(Nc2ccc3cc(C([NH-])=O)n(C(=O)OC(C)(C)C)c3c2)c(=O)c1=O (protonated)
CC(=O)Nc1c(Nc2ccc3cc(C([NH-])=O)n(C(=O)OC(C)(C)C)c3c2)c(=O)c1=O (3D coordinates assigned)
CC(=O)Nc1c(Nc2ccc3cc(C([NH-])=O)n(C(=O)OC(C)(C)C)c3c2)c(=O)c1=O (optimized conformer: 78.67055761690091 kcal/mol)

>  <smiles>  (88) 
CC(=O)Nc1c(Nc2ccc3cc(C(N)=O)n(C(=O)OC(C)(C)C)c3c2)c(=O)c1=O

>  <score_type>  (88) 
oracle

>  <origin>  (88) 
adg

>  <m_score__min__energy>  (88) 
-11.66

>  <m_primary>  (88) 
energy

$$$$
88:0
     RDKit          3D

 40 41  0  0  0  0  0  0  0  0999 V2000
   -1.2110   20.2030  -31.6210 C   0  0  0  0  0  0  0  0  0  0  0  0
   -2.5940   20.3520  -32.2730 C   0  0  0  0  0  0  0  0  0  0  0  0
   -2.4770   21.3040  -33.4790 C   0  0  0  0  0  0  0  0  0  0  0  0
   -3.0860   18.9630  -32.7210 C   0  0  0  0  0  0  0  0  0  0  0  0
   -3.4710   20.9020  -31.2800 O   0  0  0  0  0  0  0  0  0  0  0  0
   -3.9690   22.2140  -31.2430 C   0  0  0  0  0  0  0  0  0  0  0  0
   -3.1880   23.2030  -31.2450 O   0  0  0  0  0  0  0  0  0  0  0  0
   -5.3880   22.4280  -31.2040 N   0  0  0  0  0  0  0  0  0  0  0  0
   -6.0480   23.5650  -30.8440 C   0  0  0  0  0  0  0  0  0  0  0  0
   -5.4320   24.7750  -30.2640 C   0  0  0  0  0  0  0  0  0  0  0  0
   -5.8670   25.2990  -29.0080 N   0  0  0  0  0  0  0  0  0  0  0  0
   -4.5430   25.3870  -30.9140 O   0  0  0  0  0  0  0  0  0  0  0  0
   -7.4180   23.4230  -31.0440 C   0  0  0  0  0  0  0  0  0  0  0  0
   -7.5830   22.1460  -31.5320 C   0  0  0  0  0  0  0  0  0  0  0  0
   -8.7440   21.4760  -31.9090 C   0  0  0  0  0  0  0  0  0  0  0  0
   -8.6160   20.1690  -32.4080 C   0  0  0  0  0  0  0  0  0  0  0  0
   -7.3390   19.5680  -32.5400 C   0  0  0  0  0  0  0  0  0  0  0  0
   -7.2170   18.1620  -33.0600 C   0  0  0  0  0  0  0  0  0  0  0  0
   -6.1090   18.0690  -34.0620 C   0  0  0  0  0  0  0  0  0  0  0  0
   -5.9970   18.9100  -34.9400 O   0  0  0  0  0  0  0  0  0  0  0  0
   -6.1840   20.2760  -32.1400 C   0  0  0  0  0  0  0  0  0  0  0  0
   -6.3430   21.5670  -31.6220 C   0  0  0  0  0  0  0  0  0  0  0  0
   -1.3185   20.2146  -30.5263 H   0  0  0  0  0  0  0  0  0  0  0  0
   -0.7583   19.2509  -31.9349 H   0  0  0  0  0  0  0  0  0  0  0  0
   -0.5659   21.0368  -31.9349 H   0  0  0  0  0  0  0  0  0  0  0  0
   -2.3502   22.3361  -33.1204 H   0  0  0  0  0  0  0  0  0  0  0  0
   -1.6072   21.0182  -34.0887 H   0  0  0  0  0  0  0  0  0  0  0  0
   -3.3901   21.2373  -34.0887 H   0  0  0  0  0  0  0  0  0  0  0  0
   -3.3039   18.3480  -31.8354 H   0  0  0  0  0  0  0  0  0  0  0  0
   -3.9994   19.0744  -33.3238 H   0  0  0  0  0  0  0  0  0  0  0  0
   -2.3062   18.4746  -33.3238 H   0  0  0  0  0  0  0  0  0  0  0  0
   -6.7130   24.9210  -28.5290 H   0  0  0  0  0  0  0  0  0  0  0  0
   -5.3890   26.1310  -28.5940 H   0  0  0  0  0  0  0  0  0  0  0  0
   -8.2015   24.1711  -30.8530 H   0  0  0  0  0  0  0  0  0  0  0  0
   -9.7302   21.9549  -31.8190 H   0  0  0  0  0  0  0  0  0  0  0  0
   -9.5154   19.6066  -32.6991 H   0  0  0  0  0  0  0  0  0  0  0  0
   -7.0047   17.4828  -32.2212 H   0  0  0  0  0  0  0  0  0  0  0  0
   -8.1620   17.8790  -33.5467 H   0  0  0  0  0  0  0  0  0  0  0  0
   -5.3909   17.2375  -34.0070 H   0  0  0  0  0  0  0  0  0  0  0  0
   -5.1852   19.8246  -32.2331 H   0  0  0  0  0  0  0  0  0  0  0  0
  1  2  1  0
  2  3  1  0
  2  4  1  0
  2  5  1  0
  5  6  1  0
  6  7  2  0
  6  8  1  0
  8  9  1  0
  9 10  1  0
 10 11  1  0
 10 12  2  0
  9 13  2  0
 13 14  1  0
 14 15  2  0
 15 16  1  0
 16 17  2  0
 17 18  1  0
 18 19  1  0
 19 20  2  0
 17 21  1  0
 21 22  2  0
 22  8  1  0
 22 14  1  0
  1 23  1  0
  1 24  1  0
  1 25  1  0
  3 26  1  0
  3 27  1  0
  3 28  1  0
  4 29  1  0
  4 30  1  0
  4 31  1  0
 11 32  1  0
 11 33  1  0
 13 34  1  0
 15 35  1  0
 16 36  1  0
 18 37  1  0
 18 38  1  0
 19 39  1  0
 21 40  1  0
M  END
>  <UniqueID>  (89) 
88

>  <SMILES>  (89) 
CC(C)(C)OC(=O)n1c(C(N)=O)cc2ccc(CC=O)cc21

>  <Energy>  (89) 
72.04312793778031

>  <Genealogy>  (89) 
CC(C)(C)OC(=O)n1c(C(N)=O)cc2ccc(CC=O)cc21 (3D coordinates assigned)
CC(C)(C)OC(=O)n1c(C(N)=O)cc2ccc(CC=O)cc21 (optimized conformer: 72.04312793778031 kcal/mol)

>  <smiles>  (89) 
CC(C)(C)OC(=O)n1c(C(N)=O)cc2ccc(CC=O)cc21

>  <score_type>  (89) 
oracle

>  <origin>  (89) 
adg

>  <m_score__min__energy>  (89) 
-8.6099999999999994

>  <m_primary>  (89) 
energy

$$$$
89:0
     RDKit          3D

 68 72  0  0  0  0  0  0  0  0999 V2000
    0.4840   18.5760  -34.7900 C   0  0  0  0  0  0  0  0  0  0  0  0
    1.0470   17.7950  -35.8210 O   0  0  0  0  0  0  0  0  0  0  0  0
    1.8700   16.7750  -35.2830 C   0  0  0  0  0  0  0  0  0  0  0  0
    1.7630   15.5190  -36.1400 C   0  0  0  0  0  0  0  0  0  0  0  0
    0.7480   14.6650  -35.6190 O   0  0  0  0  0  0  0  0  0  0  0  0
   -0.4240   15.1160  -34.9930 C   0  0  0  0  0  0  0  0  0  0  0  0
   -0.6300   14.7720  -33.6360 C   0  0  0  0  0  0  0  0  0  0  0  0
   -1.7850   15.1870  -32.9500 C   0  0  0  0  0  0  0  0  0  0  0  0
   -2.7130   15.9450  -33.6540 C   0  0  0  0  0  0  0  0  0  0  0  0
   -2.5290   16.2920  -34.9780 C   0  0  0  0  0  0  0  0  0  0  0  0
   -1.3920   15.8940  -35.6780 C   0  0  0  0  0  0  0  0  0  0  0  0
   -3.5690   17.0190  -35.4520 N   0  0  0  0  0  0  0  0  0  0  0  0
   -4.4150   17.1220  -34.4010 C   0  0  0  0  0  0  0  0  0  0  0  0
   -5.6510   17.7470  -34.3370 C   0  0  0  0  0  0  0  0  0  0  0  0
   -6.1140   18.3350  -35.3530 O   0  0  0  0  0  0  0  0  0  0  0  0
   -6.3510   17.7050  -33.1470 N   0  0  0  0  0  0  0  0  0  0  0  0
   -7.6950   18.3100  -33.0650 C   0  0  0  0  0  0  0  0  0  0  0  0
   -7.6010   19.7280  -32.5660 C   0  0  0  0  0  0  0  0  0  0  0  0
   -8.7640   20.5330  -32.4800 C   0  0  0  0  0  0  0  0  0  0  0  0
   -8.6930   21.8410  -31.9740 C   0  0  0  0  0  0  0  0  0  0  0  0
   -7.4540   22.3130  -31.5540 C   0  0  0  0  0  0  0  0  0  0  0  0
   -7.1030   23.5390  -31.0380 C   0  0  0  0  0  0  0  0  0  0  0  0
   -5.7320   23.4590  -30.7940 C   0  0  0  0  0  0  0  0  0  0  0  0
   -4.9480   24.5300  -30.1430 C   0  0  0  0  0  0  0  0  0  0  0  0
   -5.2250   24.9230  -28.7980 N   0  0  0  0  0  0  0  0  0  0  0  0
   -4.0020   25.0870  -30.7620 O   0  0  0  0  0  0  0  0  0  0  0  0
   -5.2550   22.2310  -31.1470 N   0  0  0  0  0  0  0  0  0  0  0  0
   -3.8900   21.7850  -31.1140 C   0  0  0  0  0  0  0  0  0  0  0  0
   -3.4120   21.3140  -30.0470 O   0  0  0  0  0  0  0  0  0  0  0  0
   -3.1110   21.8650  -32.2780 O   0  0  0  0  0  0  0  0  0  0  0  0
   -2.4180   20.7800  -32.9150 C   0  0  0  0  0  0  0  0  0  0  0  0
   -3.4250   20.0820  -33.8400 C   0  0  0  0  0  0  0  0  0  0  0  0
   -1.9180   19.7670  -31.8670 C   0  0  0  0  0  0  0  0  0  0  0  0
   -1.2450   21.3080  -33.7650 C   0  0  0  0  0  0  0  0  0  0  0  0
   -6.3220   21.5420  -31.6120 C   0  0  0  0  0  0  0  0  0  0  0  0
   -6.3590   20.2420  -32.1310 C   0  0  0  0  0  0  0  0  0  0  0  0
   -5.8130   17.0460  -32.0510 C   0  0  0  0  0  0  0  0  0  0  0  0
   -6.4400   16.9980  -30.9590 O   0  0  0  0  0  0  0  0  0  0  0  0
   -4.5940   16.4330  -32.1320 N   0  0  0  0  0  0  0  0  0  0  0  0
   -3.9240   16.4850  -33.3020 C   0  0  0  0  0  0  0  0  0  0  0  0
    0.7809   18.1641  -33.8142 H   0  0  0  0  0  0  0  0  0  0  0  0
    0.8446   19.6117  -34.8759 H   0  0  0  0  0  0  0  0  0  0  0  0
   -0.6125   18.5612  -34.8759 H   0  0  0  0  0  0  0  0  0  0  0  0
    2.9148   17.1188  -35.2679 H   0  0  0  0  0  0  0  0  0  0  0  0
    1.5405   16.5450  -34.2590 H   0  0  0  0  0  0  0  0  0  0  0  0
    1.5084   15.8016  -37.1721 H   0  0  0  0  0  0  0  0  0  0  0  0
    2.7262   14.9879  -36.1284 H   0  0  0  0  0  0  0  0  0  0  0  0
    0.1255   14.1704  -33.1094 H   0  0  0  0  0  0  0  0  0  0  0  0
   -1.9481   14.9215  -31.8950 H   0  0  0  0  0  0  0  0  0  0  0  0
   -1.2492   16.1751  -36.7318 H   0  0  0  0  0  0  0  0  0  0  0  0
   -3.6940   17.4030  -36.4150 H   0  0  0  0  0  0  0  0  0  0  0  0
   -8.1559   18.3067  -34.0638 H   0  0  0  0  0  0  0  0  0  0  0  0
   -8.3086   17.7244  -32.3646 H   0  0  0  0  0  0  0  0  0  0  0  0
   -9.7317   20.1294  -32.8128 H   0  0  0  0  0  0  0  0  0  0  0  0
   -9.5908   22.4736  -31.9117 H   0  0  0  0  0  0  0  0  0  0  0  0
   -7.7634   24.3997  -30.8564 H   0  0  0  0  0  0  0  0  0  0  0  0
   -4.6440   25.6570  -28.3350 H   0  0  0  0  0  0  0  0  0  0  0  0
   -6.0330   24.5220  -28.2720 H   0  0  0  0  0  0  0  0  0  0  0  0
   -4.1791   19.5593  -33.2332 H   0  0  0  0  0  0  0  0  0  0  0  0
   -3.9204   20.8314  -34.4748 H   0  0  0  0  0  0  0  0  0  0  0  0
   -2.8971   19.3551  -34.4748 H   0  0  0  0  0  0  0  0  0  0  0  0
   -2.1112   20.1584  -30.8573 H   0  0  0  0  0  0  0  0  0  0  0  0
   -2.4483   18.8122  -31.9978 H   0  0  0  0  0  0  0  0  0  0  0  0
   -0.8376   19.6072  -31.9978 H   0  0  0  0  0  0  0  0  0  0  0  0
   -0.4447   21.6682  -33.1019 H   0  0  0  0  0  0  0  0  0  0  0  0
   -0.8581   20.4972  -34.3998 H   0  0  0  0  0  0  0  0  0  0  0  0
   -1.5954   22.1352  -34.3998 H   0  0  0  0  0  0  0  0  0  0  0  0
   -5.4435   19.6359  -32.1984 H   0  0  0  0  0  0  0  0  0  0  0  0
  1  2  1  0
  2  3  1  0
  3  4  1  0
  4  5  1  0
  5  6  1  0
  6  7  2  0
  7  8  1  0
  8  9  2  0
  9 10  1  0
 10 11  2  0
 10 12  1  0
 12 13  1  0
 13 14  1  0
 14 15  2  0
 14 16  1  0
 16 17  1  0
 17 18  1  0
 18 19  2  0
 19 20  1  0
 20 21  2  0
 21 22  1  0
 22 23  2  0
 23 24  1  0
 24 25  1  0
 24 26  2  0
 23 27  1  0
 27 28  1  0
 28 29  2  0
 28 30  1  0
 30 31  1  0
 31 32  1  0
 31 33  1  0
 31 34  1  0
 27 35  1  0
 35 36  2  0
 16 37  1  0
 37 38  2  0
 37 39  1  0
 39 40  1  0
 11  6  1  0
 40 13  2  0
 40  9  1  0
 36 18  1  0
 35 21  1  0
  1 41  1  0
  1 42  1  0
  1 43  1  0
  3 44  1  0
  3 45  1  0
  4 46  1  0
  4 47  1  0
  7 48  1  0
  8 49  1  0
 11 50  1  0
 12 51  1  0
 17 52  1  0
 17 53  1  0
 19 54  1  0
 20 55  1  0
 22 56  1  0
 25 57  1  0
 25 58  1  0
 32 59  1  0
 32 60  1  0
 32 61  1  0
 33 62  1  0
 33 63  1  0
 33 64  1  0
 34 65  1  0
 34 66  1  0
 34 67  1  0
 36 68  1  0
M  CHG  1  39  -1
M  END
>  <UniqueID>  (90) 
89

>  <SMILES>  (90) 
COCCOc1ccc2c(c1)[nH]c1c(=O)n(Cc3ccc4cc(C(N)=O)n(C(=O)OC(C)(C)C)c4c3)c(=O)[n-]c12

>  <Energy>  (90) 
153.88369108398246

>  <Genealogy>  (90) 
COCCOc1ccc2c(c1)[nH]c1c(=O)n(Cc3ccc4cc(C(N)=O)n(C(=O)OC(C)(C)C)c4c3)c(=O)[n-]c12 (protonated)
COCCOc1ccc2c(c1)[nH]c1c(=O)n(Cc3ccc4cc(C(N)=O)n(C(=O)OC(C)(C)C)c4c3)c(=O)[n-]c12 (3D coordinates assigned)
COCCOc1ccc2c(c1)[nH]c1c(=O)n(Cc3ccc4cc(C(N)=O)n(C(=O)OC(C)(C)C)c4c3)c(=O)[n-]c12 (optimized conformer: 153.88369108398246 kcal/mol)

>  <smiles>  (90) 
COCCOc1ccc2c(c1)[nH]c1c(=O)n(Cc3ccc4cc(C(N)=O)n(C(=O)OC(C)(C)C)c4c3)c(=O)[nH]c12

>  <score_type>  (90) 
oracle

>  <origin>  (90) 
adg

>  <m_score__min__energy>  (90) 
-10.06

>  <m_primary>  (90) 
energy

$$$$
90:0
     RDKit          3D

 46 49  0  0  0  0  0  0  0  0999 V2000
   -2.3260   16.7820  -33.2850 C   0  0  0  0  0  0  0  0  0  0  0  0
   -3.3100   16.1810  -34.2000 N   0  0  0  0  0  0  0  0  0  0  0  0
   -4.3300   15.3740  -33.4800 C   0  0  0  0  0  0  0  0  0  0  0  0
   -5.7650   15.9250  -33.5840 C   0  0  0  0  0  0  0  0  0  0  0  0
   -5.7810   17.4600  -33.4320 C   0  0  0  0  0  0  0  0  0  0  0  0
   -4.8350   18.1630  -34.4490 C   0  0  0  0  0  0  0  0  0  0  0  0
   -3.8730   17.1760  -35.1370 C   0  0  0  0  0  0  0  0  0  0  0  0
   -7.2120   18.0290  -33.4170 C   0  0  0  0  0  0  0  0  0  0  0  0
   -7.0440   18.4240  -31.9500 C   0  0  0  0  0  0  0  0  0  0  0  0
   -7.1940   19.9080  -31.6600 C   0  0  0  0  0  0  0  0  0  0  0  0
   -8.4690   20.5340  -31.5950 C   0  0  0  0  0  0  0  0  0  0  0  0
   -8.5840   21.9060  -31.3190 C   0  0  0  0  0  0  0  0  0  0  0  0
   -7.4150   22.6310  -31.1200 C   0  0  0  0  0  0  0  0  0  0  0  0
   -7.2400   23.9620  -30.8160 C   0  0  0  0  0  0  0  0  0  0  0  0
   -5.8630   24.1420  -30.7200 C   0  0  0  0  0  0  0  0  0  0  0  0
   -5.2300   25.4570  -30.4860 C   0  0  0  0  0  0  0  0  0  0  0  0
   -3.8650   25.6610  -30.8450 N   0  0  0  0  0  0  0  0  0  0  0  0
   -5.8690   26.3930  -29.9390 O   0  0  0  0  0  0  0  0  0  0  0  0
   -5.2100   22.9670  -30.9500 N   0  0  0  0  0  0  0  0  0  0  0  0
   -3.7960   22.7150  -30.8860 C   0  0  0  0  0  0  0  0  0  0  0  0
   -3.2140   22.1120  -31.8260 O   0  0  0  0  0  0  0  0  0  0  0  0
   -3.0530   23.1570  -29.7980 O   0  0  0  0  0  0  0  0  0  0  0  0
   -6.1750   22.0530  -31.1960 C   0  0  0  0  0  0  0  0  0  0  0  0
   -6.0310   20.6840  -31.4520 C   0  0  0  0  0  0  0  0  0  0  0  0
   -5.6020   17.9170  -31.9690 C   0  0  0  0  0  0  0  0  0  0  0  0
   -2.6311   16.5957  -32.2447 H   0  0  0  0  0  0  0  0  0  0  0  0
   -1.3376   16.3332  -33.4633 H   0  0  0  0  0  0  0  0  0  0  0  0
   -2.2739   17.8662  -33.4633 H   0  0  0  0  0  0  0  0  0  0  0  0
   -4.3209   14.3562  -33.8971 H   0  0  0  0  0  0  0  0  0  0  0  0
   -4.0587   15.4024  -32.4144 H   0  0  0  0  0  0  0  0  0  0  0  0
   -6.1830   15.6565  -34.5654 H   0  0  0  0  0  0  0  0  0  0  0  0
   -6.3678   15.4868  -32.7749 H   0  0  0  0  0  0  0  0  0  0  0  0
   -5.4474   18.6542  -35.2195 H   0  0  0  0  0  0  0  0  0  0  0  0
   -4.2264   18.8909  -33.8924 H   0  0  0  0  0  0  0  0  0  0  0  0
   -4.4215   16.6435  -35.9280 H   0  0  0  0  0  0  0  0  0  0  0  0
   -3.0346   17.7594  -35.5453 H   0  0  0  0  0  0  0  0  0  0  0  0
   -7.3630   18.8809  -34.0963 H   0  0  0  0  0  0  0  0  0  0  0  0
   -8.0614   17.4041  -33.7301 H   0  0  0  0  0  0  0  0  0  0  0  0
   -7.7529   18.0510  -31.1961 H   0  0  0  0  0  0  0  0  0  0  0  0
   -9.3768   19.9359  -31.7630 H   0  0  0  0  0  0  0  0  0  0  0  0
   -9.5691   22.3921  -31.2620 H   0  0  0  0  0  0  0  0  0  0  0  0
   -8.0227   24.7225  -30.6781 H   0  0  0  0  0  0  0  0  0  0  0  0
   -3.0930   25.2930  -30.2480 H   0  0  0  0  0  0  0  0  0  0  0  0
   -5.0335   20.2219  -31.4905 H   0  0  0  0  0  0  0  0  0  0  0  0
   -4.8470   18.7056  -31.8342 H   0  0  0  0  0  0  0  0  0  0  0  0
   -5.2510   17.2089  -31.2039 H   0  0  0  0  0  0  0  0  0  0  0  0
  1  2  1  0
  2  3  1  0
  3  4  1  0
  4  5  1  0
  5  6  1  0
  6  7  1  0
  5  8  1  0
  8  9  1  0
  9 10  1  0
 10 11  2  0
 11 12  1  0
 12 13  2  0
 13 14  1  0
 14 15  2  0
 15 16  1  0
 16 17  1  0
 16 18  2  0
 15 19  1  0
 19 20  1  0
 20 21  2  0
 20 22  1  0
 19 23  1  0
 23 24  2  0
  9 25  1  0
  7  2  1  0
 24 10  1  0
 25  5  1  0
 23 13  1  0
  1 26  1  0
  1 27  1  0
  1 28  1  0
  3 29  1  0
  3 30  1  0
  4 31  1  0
  4 32  1  0
  6 33  1  0
  6 34  1  0
  7 35  1  0
  7 36  1  0
  8 37  1  0
  8 38  1  0
  9 39  1  0
 11 40  1  0
 12 41  1  0
 14 42  1  0
 17 43  1  0
 24 44  1  0
 25 45  1  0
 25 46  1  0
M  CHG  2  17  -1  22  -1
M  END
>  <UniqueID>  (91) 
90

>  <SMILES>  (91) 
CN1CCC2(CC1)CC(c1ccc3cc(C([NH-])=O)n(C(=O)[O-])c3c1)C2

>  <Energy>  (91) 
161.28869933812842

>  <Genealogy>  (91) 
CN1CCC2(CC1)CC(c1ccc3cc(C([NH-])=O)n(C(=O)[O-])c3c1)C2 (protonated)
CN1CCC2(CC1)CC(c1ccc3cc(C([NH-])=O)n(C(=O)[O-])c3c1)C2 (3D coordinates assigned)
CN1CCC2(CC1)CC(c1ccc3cc(C([NH-])=O)n(C(=O)[O-])c3c1)C2 (nonaromatic ring conformer: 161.28869933812842 kcal/mol)

>  <smiles>  (91) 
CN1CCC2(CC1)CC(c1ccc3cc(C(N)=O)n(C(=O)O)c3c1)C2

>  <score_type>  (91) 
oracle

>  <origin>  (91) 
adg

>  <m_score__min__energy>  (91) 
-12.130000000000001

>  <m_primary>  (91) 
energy

$$$$
91:0
     RDKit          3D

 54 57  0  0  0  0  0  0  0  0999 V2000
   -2.8770   20.2000  -33.8070 C   0  0  0  0  0  0  0  0  0  0  0  0
   -2.2090   20.9500  -32.6400 C   0  0  0  0  0  0  0  0  0  0  0  0
   -0.7330   21.2040  -32.9860 C   0  0  0  0  0  0  0  0  0  0  0  0
   -2.2780   20.1180  -31.3440 C   0  0  0  0  0  0  0  0  0  0  0  0
   -2.8190   22.2320  -32.4470 O   0  0  0  0  0  0  0  0  0  0  0  0
   -3.4920   22.6750  -31.2990 C   0  0  0  0  0  0  0  0  0  0  0  0
   -2.8590   23.0010  -30.2590 O   0  0  0  0  0  0  0  0  0  0  0  0
   -4.9220   22.7900  -31.3310 N   0  0  0  0  0  0  0  0  0  0  0  0
   -5.6860   23.8870  -31.0630 C   0  0  0  0  0  0  0  0  0  0  0  0
   -5.1960   25.1840  -30.5500 C   0  0  0  0  0  0  0  0  0  0  0  0
   -3.8820   25.6460  -30.8530 N   0  0  0  0  0  0  0  0  0  0  0  0
   -5.9330   25.8750  -29.7980 O   0  0  0  0  0  0  0  0  0  0  0  0
   -7.0360   23.6000  -31.2570 C   0  0  0  0  0  0  0  0  0  0  0  0
   -7.0750   22.2810  -31.6480 C   0  0  0  0  0  0  0  0  0  0  0  0
   -8.1610   21.4750  -31.9730 C   0  0  0  0  0  0  0  0  0  0  0  0
   -7.9040   20.1490  -32.3640 C   0  0  0  0  0  0  0  0  0  0  0  0
   -6.5750   19.6560  -32.4360 C   0  0  0  0  0  0  0  0  0  0  0  0
   -6.3260   18.2610  -32.8640 C   0  0  0  0  0  0  0  0  0  0  0  0
   -6.8410   17.7320  -33.9980 N   0  0  0  0  0  0  0  0  0  0  0  0
   -6.4720   16.4360  -34.1780 C   0  0  0  0  0  0  0  0  0  0  0  0
   -5.6530   15.9250  -33.1820 C   0  0  0  0  0  0  0  0  0  0  0  0
   -5.0160   14.2900  -33.1160 S   0  0  0  0  0  0  0  0  0  0  0  0
   -5.9170   13.3410  -33.8540 O   0  0  0  0  0  0  0  0  0  0  0  0
   -4.9590   13.8620  -31.6770 O   0  0  0  0  0  0  0  0  0  0  0  0
   -3.4080   14.2500  -33.7630 N   0  0  0  0  0  0  0  0  0  0  0  0
   -2.5150   15.3680  -33.8640 C   0  0  0  0  0  0  0  0  0  0  0  0
   -1.4600   15.4560  -32.9460 C   0  0  0  0  0  0  0  0  0  0  0  0
   -0.5560   16.5220  -33.0030 C   0  0  0  0  0  0  0  0  0  0  0  0
   -0.6850   17.4950  -33.9970 C   0  0  0  0  0  0  0  0  0  0  0  0
    0.2010   18.5210  -34.0570 F   0  0  0  0  0  0  0  0  0  0  0  0
   -1.7100   17.3960  -34.9380 C   0  0  0  0  0  0  0  0  0  0  0  0
   -2.6290   16.3430  -34.8770 C   0  0  0  0  0  0  0  0  0  0  0  0
   -3.5720   16.2540  -35.8440 F   0  0  0  0  0  0  0  0  0  0  0  0
   -5.3840   17.1260  -32.0400 S   0  0  0  0  0  0  0  0  0  0  0  0
   -5.4990   20.5090  -32.0960 C   0  0  0  0  0  0  0  0  0  0  0  0
   -5.7870   21.8160  -31.6870 C   0  0  0  0  0  0  0  0  0  0  0  0
   -3.5589   19.4344  -33.4084 H   0  0  0  0  0  0  0  0  0  0  0  0
   -3.4454   20.9122  -34.4232 H   0  0  0  0  0  0  0  0  0  0  0  0
   -2.1040   19.7175  -34.4232 H   0  0  0  0  0  0  0  0  0  0  0  0
   -0.1509   21.3042  -32.0581 H   0  0  0  0  0  0  0  0  0  0  0  0
   -0.3436   20.3597  -33.5738 H   0  0  0  0  0  0  0  0  0  0  0  0
   -0.6483   22.1299  -33.5738 H   0  0  0  0  0  0  0  0  0  0  0  0
   -2.2224   20.7890  -30.4741 H   0  0  0  0  0  0  0  0  0  0  0  0
   -3.2255   19.5599  -31.3166 H   0  0  0  0  0  0  0  0  0  0  0  0
   -1.4354   19.4114  -31.3166 H   0  0  0  0  0  0  0  0  0  0  0  0
   -3.0420   25.1630  -30.4690 H   0  0  0  0  0  0  0  0  0  0  0  0
   -7.8887   24.2824  -31.1256 H   0  0  0  0  0  0  0  0  0  0  0  0
   -9.1892   21.8629  -31.9256 H   0  0  0  0  0  0  0  0  0  0  0  0
   -8.7438   19.4852  -32.6173 H   0  0  0  0  0  0  0  0  0  0  0  0
   -6.7968   15.8405  -35.0439 H   0  0  0  0  0  0  0  0  0  0  0  0
   -1.3418   14.6808  -32.1746 H   0  0  0  0  0  0  0  0  0  0  0  0
    0.2565   16.5941  -32.2650 H   0  0  0  0  0  0  0  0  0  0  0  0
   -1.7962   18.1510  -35.7333 H   0  0  0  0  0  0  0  0  0  0  0  0
   -4.4597   20.1531  -32.1518 H   0  0  0  0  0  0  0  0  0  0  0  0
  1  2  1  0
  2  3  1  0
  2  4  1  0
  2  5  1  0
  5  6  1  0
  6  7  2  0
  6  8  1  0
  8  9  1  0
  9 10  1  0
 10 11  1  0
 10 12  2  0
  9 13  2  0
 13 14  1  0
 14 15  2  0
 15 16  1  0
 16 17  2  0
 17 18  1  0
 18 19  2  0
 19 20  1  0
 20 21  2  0
 21 22  1  0
 22 23  2  0
 22 24  2  0
 22 25  1  0
 25 26  1  0
 26 27  2  0
 27 28  1  0
 28 29  2  0
 29 30  1  0
 29 31  1  0
 31 32  2  0
 32 33  1  0
 21 34  1  0
 17 35  1  0
 35 36  2  0
 36  8  1  0
 36 14  1  0
 34 18  1  0
 32 26  1  0
  1 37  1  0
  1 38  1  0
  1 39  1  0
  3 40  1  0
  3 41  1  0
  3 42  1  0
  4 43  1  0
  4 44  1  0
  4 45  1  0
 11 46  1  0
 13 47  1  0
 15 48  1  0
 16 49  1  0
 20 50  1  0
 27 51  1  0
 28 52  1  0
 31 53  1  0
 35 54  1  0
M  CHG  2  11  -1  25  -1
M  END
>  <UniqueID>  (92) 
91

>  <SMILES>  (92) 
CC(C)(C)OC(=O)n1c(C([NH-])=O)cc2ccc(-c3ncc(S(=O)(=O)[N-]c4ccc(F)cc4F)s3)cc21

>  <Energy>  (92) 
129.4315362616958

>  <Genealogy>  (92) 
CC(C)(C)OC(=O)n1c(C([NH-])=O)cc2ccc(-c3ncc(S(=O)(=O)[N-]c4ccc(F)cc4F)s3)cc21 (protonated)
CC(C)(C)OC(=O)n1c(C([NH-])=O)cc2ccc(-c3ncc(S(=O)(=O)[N-]c4ccc(F)cc4F)s3)cc21 (3D coordinates assigned)
CC(C)(C)OC(=O)n1c(C([NH-])=O)cc2ccc(-c3ncc(S(=O)(=O)[N-]c4ccc(F)cc4F)s3)cc21 (optimized conformer: 129.4315362616958 kcal/mol)

>  <smiles>  (92) 
CC(C)(C)OC(=O)n1c(C(N)=O)cc2ccc(-c3ncc(S(=O)(=O)Nc4ccc(F)cc4F)s3)cc21

>  <score_type>  (92) 
oracle

>  <origin>  (92) 
adg

>  <m_score__min__energy>  (92) 
-11.359999999999999

>  <m_primary>  (92) 
energy

$$$$
92:0
     RDKit          3D

 47 48  0  0  0  0  0  0  0  0999 V2000
   -2.1530   19.6470  -32.1050 C   0  0  0  0  0  0  0  0  0  0  0  0
   -1.6320   21.0420  -32.4970 C   0  0  0  0  0  0  0  0  0  0  0  0
   -0.5120   21.4950  -31.5420 C   0  0  0  0  0  0  0  0  0  0  0  0
   -1.0710   20.9820  -33.9260 C   0  0  0  0  0  0  0  0  0  0  0  0
   -2.7020   21.9980  -32.5060 O   0  0  0  0  0  0  0  0  0  0  0  0
   -3.3740   22.5070  -31.3840 C   0  0  0  0  0  0  0  0  0  0  0  0
   -2.7340   22.9530  -30.3920 O   0  0  0  0  0  0  0  0  0  0  0  0
   -4.8100   22.5380  -31.3780 N   0  0  0  0  0  0  0  0  0  0  0  0
   -5.6220   23.5520  -30.9630 C   0  0  0  0  0  0  0  0  0  0  0  0
   -5.1730   24.7940  -30.2950 C   0  0  0  0  0  0  0  0  0  0  0  0
   -5.7280   25.1910  -29.0390 N   0  0  0  0  0  0  0  0  0  0  0  0
   -4.2720   25.5040  -30.8170 O   0  0  0  0  0  0  0  0  0  0  0  0
   -6.9590   23.2170  -31.1670 C   0  0  0  0  0  0  0  0  0  0  0  0
   -6.9390   21.9580  -31.7210 C   0  0  0  0  0  0  0  0  0  0  0  0
   -7.9880   21.1470  -32.1320 C   0  0  0  0  0  0  0  0  0  0  0  0
   -7.6770   19.8990  -32.6940 C   0  0  0  0  0  0  0  0  0  0  0  0
   -6.3260   19.4700  -32.8530 C   0  0  0  0  0  0  0  0  0  0  0  0
   -6.0370   18.0940  -33.4850 C   0  0  0  0  0  0  0  0  0  0  0  0
   -5.7480   18.2690  -34.9920 C   0  0  0  0  0  0  0  0  0  0  0  0
   -4.8070   17.4610  -32.7970 C   0  0  0  0  0  0  0  0  0  0  0  0
   -7.2170   17.1000  -33.3470 C   0  0  0  0  0  0  0  0  0  0  0  0
   -5.2890   20.3430  -32.4180 C   0  0  0  0  0  0  0  0  0  0  0  0
   -5.6330   21.5710  -31.8410 C   0  0  0  0  0  0  0  0  0  0  0  0
   -2.1847   19.5622  -31.0087 H   0  0  0  0  0  0  0  0  0  0  0  0
   -3.1646   19.5054  -32.5131 H   0  0  0  0  0  0  0  0  0  0  0  0
   -1.4819   18.8769  -32.5131 H   0  0  0  0  0  0  0  0  0  0  0  0
   -0.8415   21.3617  -30.5010 H   0  0  0  0  0  0  0  0  0  0  0  0
    0.3895   20.8908  -31.7214 H   0  0  0  0  0  0  0  0  0  0  0  0
   -0.2840   22.5560  -31.7214 H   0  0  0  0  0  0  0  0  0  0  0  0
    0.0220   20.8651  -33.8862 H   0  0  0  0  0  0  0  0  0  0  0  0
   -1.5122   20.1259  -34.4575 H   0  0  0  0  0  0  0  0  0  0  0  0
   -1.3212   21.9120  -34.4575 H   0  0  0  0  0  0  0  0  0  0  0  0
   -5.3770   26.0480  -28.5590 H   0  0  0  0  0  0  0  0  0  0  0  0
   -6.5150   24.6620  -28.6030 H   0  0  0  0  0  0  0  0  0  0  0  0
   -7.8428   23.8292  -30.9344 H   0  0  0  0  0  0  0  0  0  0  0  0
   -9.0327   21.4730  -32.0205 H   0  0  0  0  0  0  0  0  0  0  0  0
   -8.4932   19.2371  -33.0190 H   0  0  0  0  0  0  0  0  0  0  0  0
   -4.8137   18.8347  -35.1229 H   0  0  0  0  0  0  0  0  0  0  0  0
   -5.6470   17.2802  -35.4632 H   0  0  0  0  0  0  0  0  0  0  0  0
   -6.5774   18.8167  -35.4632 H   0  0  0  0  0  0  0  0  0  0  0  0
   -4.9257   17.5221  -31.7051 H   0  0  0  0  0  0  0  0  0  0  0  0
   -4.7207   16.4065  -33.0980 H   0  0  0  0  0  0  0  0  0  0  0  0
   -3.8988   18.0037  -33.0980 H   0  0  0  0  0  0  0  0  0  0  0  0
   -7.4256   16.9242  -32.2814 H   0  0  0  0  0  0  0  0  0  0  0  0
   -8.1103   17.5219  -33.8308 H   0  0  0  0  0  0  0  0  0  0  0  0
   -6.9530   16.1480  -33.8308 H   0  0  0  0  0  0  0  0  0  0  0  0
   -4.2332   20.0568  -32.5336 H   0  0  0  0  0  0  0  0  0  0  0  0
  1  2  1  0
  2  3  1  0
  2  4  1  0
  2  5  1  0
  5  6  1  0
  6  7  2  0
  6  8  1  0
  8  9  1  0
  9 10  1  0
 10 11  1  0
 10 12  2  0
  9 13  2  0
 13 14  1  0
 14 15  2  0
 15 16  1  0
 16 17  2  0
 17 18  1  0
 18 19  1  0
 18 20  1  0
 18 21  1  0
 17 22  1  0
 22 23  2  0
 23  8  1  0
 23 14  1  0
  1 24  1  0
  1 25  1  0
  1 26  1  0
  3 27  1  0
  3 28  1  0
  3 29  1  0
  4 30  1  0
  4 31  1  0
  4 32  1  0
 11 33  1  0
 11 34  1  0
 13 35  1  0
 15 36  1  0
 16 37  1  0
 19 38  1  0
 19 39  1  0
 19 40  1  0
 20 41  1  0
 20 42  1  0
 20 43  1  0
 21 44  1  0
 21 45  1  0
 21 46  1  0
 22 47  1  0
M  END
>  <UniqueID>  (93) 
92

>  <SMILES>  (93) 
CC(C)(C)OC(=O)n1c(C(N)=O)cc2ccc(C(C)(C)C)cc21

>  <Energy>  (93) 
80.75326673987585

>  <Genealogy>  (93) 
CC(C)(C)OC(=O)n1c(C(N)=O)cc2ccc(C(C)(C)C)cc21 (3D coordinates assigned)
CC(C)(C)OC(=O)n1c(C(N)=O)cc2ccc(C(C)(C)C)cc21 (optimized conformer: 80.75326673987585 kcal/mol)

>  <smiles>  (93) 
CC(C)(C)OC(=O)n1c(C(N)=O)cc2ccc(C(C)(C)C)cc21

>  <score_type>  (93) 
oracle

>  <origin>  (93) 
adg

>  <m_score__min__energy>  (93) 
-9.4199999999999999

>  <m_primary>  (93) 
energy

$$$$
