0:0
     RDKit          3D

 56 59  0  0  0  0  0  0  0  0999 V2000
   -2.9670   20.6400  -33.3910 C   0  0  0  0  0  0  0  0  0  0  0  0
   -3.9840   19.6870  -33.6840 O   0  0  0  0  0  0  0  0  0  0  0  0
   -3.7350   18.3720  -34.1030 C   0  0  0  0  0  0  0  0  0  0  0  0
   -2.4580   17.9300  -34.5200 C   0  0  0  0  0  0  0  0  0  0  0  0
   -2.2710   16.6050  -34.9580 C   0  0  0  0  0  0  0  0  0  0  0  0
   -3.3530   15.7120  -34.9940 C   0  0  0  0  0  0  0  0  0  0  0  0
   -4.6000   16.1700  -34.5780 C   0  0  0  0  0  0  0  0  0  0  0  0
   -4.7870   17.4460  -34.1240 C   0  0  0  0  0  0  0  0  0  0  0  0
   -6.2230   17.6440  -33.7540 C   0  0  2  0  0  0  0  0  0  0  0  0
   -6.3770   17.9740  -32.2560 C   0  0  0  0  0  0  0  0  0  0  0  0
   -6.6330   19.4430  -32.0410 C   0  0  0  0  0  0  0  0  0  0  0  0
   -7.9120   19.9960  -32.3010 C   0  0  0  0  0  0  0  0  0  0  0  0
   -8.1520   21.3660  -32.1050 C   0  0  0  0  0  0  0  0  0  0  0  0
   -7.0970   22.1570  -31.6610 C   0  0  0  0  0  0  0  0  0  0  0  0
   -7.0620   23.5000  -31.3640 C   0  0  0  0  0  0  0  0  0  0  0  0
   -5.7550   23.7530  -30.9520 C   0  0  0  0  0  0  0  0  0  0  0  0
   -5.2570   25.1010  -30.6120 C   0  0  0  0  0  0  0  0  0  0  0  0
   -3.8630   25.3470  -30.4440 N   0  0  0  0  0  0  0  0  0  0  0  0
   -6.0670   26.0610  -30.5180 O   0  0  0  0  0  0  0  0  0  0  0  0
   -5.0130   22.6100  -30.9870 N   0  0  0  0  0  0  0  0  0  0  0  0
   -3.6580   22.4310  -30.5470 C   0  0  0  0  0  0  0  0  0  0  0  0
   -2.7220   23.0260  -31.1470 O   0  0  0  0  0  0  0  0  0  0  0  0
   -3.3910   21.5730  -29.4690 O   0  0  0  0  0  0  0  0  0  0  0  0
   -2.1050   21.3000  -28.8960 C   0  0  0  0  0  0  0  0  0  0  0  0
   -1.2520   20.6430  -29.9910 C   0  0  0  0  0  0  0  0  0  0  0  0
   -1.4220   22.6080  -28.4500 C   0  0  0  0  0  0  0  0  0  0  0  0
   -2.2320   20.3220  -27.7120 C   0  0  0  0  0  0  0  0  0  0  0  0
   -5.8490   21.6420  -31.4240 C   0  0  0  0  0  0  0  0  0  0  0  0
   -5.5860   20.2780  -31.5900 C   0  0  0  0  0  0  0  0  0  0  0  0
   -6.8540   16.2680  -34.1280 C   0  0  0  0  0  0  0  0  0  0  0  0
   -5.7750   15.4520  -34.5790 O   0  0  0  0  0  0  0  0  0  0  0  0
   -2.8609   20.7395  -32.3007 H   0  0  0  0  0  0  0  0  0  0  0  0
   -2.0132   20.3029  -33.8230 H   0  0  0  0  0  0  0  0  0  0  0  0
   -3.2415   21.6137  -33.8230 H   0  0  0  0  0  0  0  0  0  0  0  0
   -1.6059   18.6254  -34.5021 H   0  0  0  0  0  0  0  0  0  0  0  0
   -1.2724   16.2683  -35.2734 H   0  0  0  0  0  0  0  0  0  0  0  0
   -3.2192   14.6771  -35.3419 H   0  0  0  0  0  0  0  0  0  0  0  0
   -6.7042   18.4903  -34.2661 H   0  0  0  0  0  0  0  0  0  0  0  0
   -7.2219   17.3999  -31.8479 H   0  0  0  0  0  0  0  0  0  0  0  0
   -5.4406   17.7069  -31.7443 H   0  0  0  0  0  0  0  0  0  0  0  0
   -8.7240   19.3463  -32.6595 H   0  0  0  0  0  0  0  0  0  0  0  0
   -9.1442   21.8005  -32.2968 H   0  0  0  0  0  0  0  0  0  0  0  0
   -7.8898   24.2208  -31.4364 H   0  0  0  0  0  0  0  0  0  0  0  0
   -3.1860   25.1600  -31.2160 H   0  0  0  0  0  0  0  0  0  0  0  0
   -0.4625   20.0349  -29.5253 H   0  0  0  0  0  0  0  0  0  0  0  0
   -1.8893   20.0002  -30.6160 H   0  0  0  0  0  0  0  0  0  0  0  0
   -0.7932   21.4233  -30.6160 H   0  0  0  0  0  0  0  0  0  0  0  0
   -1.3984   22.6531  -27.3512 H   0  0  0  0  0  0  0  0  0  0  0  0
   -0.3940   22.6364  -28.8403 H   0  0  0  0  0  0  0  0  0  0  0  0
   -1.9862   23.4678  -28.8403 H   0  0  0  0  0  0  0  0  0  0  0  0
   -2.1596   20.8795  -26.7665 H   0  0  0  0  0  0  0  0  0  0  0  0
   -3.2042   19.8098  -27.7621 H   0  0  0  0  0  0  0  0  0  0  0  0
   -1.4229   19.5785  -27.7621 H   0  0  0  0  0  0  0  0  0  0  0  0
   -4.5891   19.8658  -31.3748 H   0  0  0  0  0  0  0  0  0  0  0  0
   -7.3338   15.8154  -33.2477 H   0  0  0  0  0  0  0  0  0  0  0  0
   -7.6287   16.3762  -34.9014 H   0  0  0  0  0  0  0  0  0  0  0  0
  1  2  1  0
  2  3  1  0
  3  4  2  0
  4  5  1  0
  5  6  2  0
  6  7  1  0
  7  8  2  0
  8  9  1  0
  9 10  1  0
 10 11  1  0
 11 12  2  0
 12 13  1  0
 13 14  2  0
 14 15  1  0
 15 16  2  0
 16 17  1  0
 17 18  1  0
 17 19  2  0
 16 20  1  0
 20 21  1  0
 21 22  2  0
 21 23  1  0
 23 24  1  0
 24 25  1  0
 24 26  1  0
 24 27  1  0
 20 28  1  0
 28 29  2  0
  9 30  1  0
 30 31  1  0
  8  3  1  0
 29 11  1  0
 31  7  1  0
 28 14  1  0
  1 32  1  0
  1 33  1  0
  1 34  1  0
  4 35  1  0
  5 36  1  0
  6 37  1  0
  9 38  1  6
 10 39  1  0
 10 40  1  0
 12 41  1  0
 13 42  1  0
 15 43  1  0
 18 44  1  0
 25 45  1  0
 25 46  1  0
 25 47  1  0
 26 48  1  0
 26 49  1  0
 26 50  1  0
 27 51  1  0
 27 52  1  0
 27 53  1  0
 29 54  1  0
 30 55  1  0
 30 56  1  0
M  CHG  1  18  -1
M  END
>  <UniqueID>  (1) 
1

>  <SMILES>  (1) 
COc1cccc2c1[C@H](Cc1ccc3cc(C([NH-])=O)n(C(=O)OC(C)(C)C)c3c1)CO2

>  <Energy>  (1) 
107.1969362160297

>  <Genealogy>  (1) 
COc1cccc2c1C(Cc1ccc3cc(C([NH-])=O)n(C(=O)OC(C)(C)C)c3c1)CO2 (protonated)
COc1cccc2c1[C@H](Cc1ccc3cc(C([NH-])=O)n(C(=O)OC(C)(C)C)c3c1)CO2 (chirality)
COc1cccc2c1[C@H](Cc1ccc3cc(C([NH-])=O)n(C(=O)OC(C)(C)C)c3c1)CO2 (3D coordinates assigned)
COc1cccc2c1[C@H](Cc1ccc3cc(C([NH-])=O)n(C(=O)OC(C)(C)C)c3c1)CO2 (nonaromatic ring conformer: 107.1969362160297 kcal/mol)

>  <smiles>  (1) 
COc1cccc2c1C(Cc1ccc3cc(C(N)=O)n(C(=O)OC(C)(C)C)c3c1)CO2

>  <score_type>  (1) 
oracle

>  <origin>  (1) 
adg

>  <m_score__min__energy>  (1) 
-11.35

>  <m_primary>  (1) 
energy

$$$$
1:0
     RDKit          3D

 54 56  0  0  0  0  0  0  0  0999 V2000
   -9.1890   19.3560  -32.2340 C   0  0  0  0  0  0  0  0  0  0  0  0
   -8.3920   18.2430  -31.8920 O   0  0  0  0  0  0  0  0  0  0  0  0
   -7.0120   18.5730  -31.9450 C   0  0  1  0  0  0  0  0  0  0  0  0
   -6.3220   17.6860  -32.9980 C   0  0  0  0  0  0  0  0  0  0  0  0
   -4.8520   18.0830  -33.1710 C   0  0  0  0  0  0  0  0  0  0  0  0
   -4.6640   19.5910  -33.5070 C   0  0  2  0  0  0  0  0  0  0  0  0
   -3.5960   20.2550  -32.6490 C   0  0  0  0  0  0  0  0  0  0  0  0
   -2.2940   19.6900  -32.5880 C   0  0  0  0  0  0  0  0  0  0  0  0
   -1.2720   20.3110  -31.8510 C   0  0  0  0  0  0  0  0  0  0  0  0
   -1.5740   21.4940  -31.1860 C   0  0  0  0  0  0  0  0  0  0  0  0
   -0.7670   22.3210  -30.4350 C   0  0  0  0  0  0  0  0  0  0  0  0
   -1.5870   23.3750  -30.0360 C   0  0  0  0  0  0  0  0  0  0  0  0
   -1.1410   24.4660  -29.1470 C   0  0  0  0  0  0  0  0  0  0  0  0
   -1.9650   25.6150  -28.9640 N   0  0  0  0  0  0  0  0  0  0  0  0
   -0.0210   24.4140  -28.5730 O   0  0  0  0  0  0  0  0  0  0  0  0
   -2.8490   23.2070  -30.5230 N   0  0  0  0  0  0  0  0  0  0  0  0
   -3.9620   24.1040  -30.4080 C   0  0  0  0  0  0  0  0  0  0  0  0
   -3.8540   25.2900  -30.8240 O   0  0  0  0  0  0  0  0  0  0  0  0
   -5.1490   23.6580  -29.8070 O   0  0  0  0  0  0  0  0  0  0  0  0
   -6.4820   23.8800  -30.2900 C   0  0  0  0  0  0  0  0  0  0  0  0
   -7.4240   22.7540  -29.8190 C   0  0  0  0  0  0  0  0  0  0  0  0
   -6.4170   23.8640  -31.8240 C   0  0  0  0  0  0  0  0  0  0  0  0
   -7.0040   25.2540  -29.8280 C   0  0  0  0  0  0  0  0  0  0  0  0
   -2.8240   22.0520  -31.2230 C   0  0  0  0  0  0  0  0  0  0  0  0
   -3.8550   21.4650  -31.9620 C   0  0  0  0  0  0  0  0  0  0  0  0
   -5.9830   20.3980  -33.4800 C   0  0  0  0  0  0  0  0  0  0  0  0
   -6.8700   20.0860  -32.2630 C   0  0  0  0  0  0  0  0  0  0  0  0
   -9.5425   19.8496  -31.3167 H   0  0  0  0  0  0  0  0  0  0  0  0
   -8.5927   20.0659  -32.8260 H   0  0  0  0  0  0  0  0  0  0  0  0
  -10.0532   19.0201  -32.8260 H   0  0  0  0  0  0  0  0  0  0  0  0
   -6.5212   18.3844  -30.9788 H   0  0  0  0  0  0  0  0  0  0  0  0
   -6.8414   17.8003  -33.9609 H   0  0  0  0  0  0  0  0  0  0  0  0
   -6.3655   16.6405  -32.6589 H   0  0  0  0  0  0  0  0  0  0  0  0
   -4.4216   17.4856  -33.9882 H   0  0  0  0  0  0  0  0  0  0  0  0
   -4.3456   17.8941  -32.2130 H   0  0  0  0  0  0  0  0  0  0  0  0
   -4.3085   19.6053  -34.5479 H   0  0  0  0  0  0  0  0  0  0  0  0
   -2.0833   18.7535  -33.1252 H   0  0  0  0  0  0  0  0  0  0  0  0
   -0.2635   19.8746  -31.8015 H   0  0  0  0  0  0  0  0  0  0  0  0
    0.2983   22.1793  -30.2003 H   0  0  0  0  0  0  0  0  0  0  0  0
   -2.9370   25.6440  -29.3450 H   0  0  0  0  0  0  0  0  0  0  0  0
   -7.4447   22.7292  -28.7195 H   0  0  0  0  0  0  0  0  0  0  0  0
   -8.4385   22.9410  -30.2007 H   0  0  0  0  0  0  0  0  0  0  0  0
   -7.0608   21.7884  -30.2007 H   0  0  0  0  0  0  0  0  0  0  0  0
   -5.3954   23.6125  -32.1451 H   0  0  0  0  0  0  0  0  0  0  0  0
   -7.1192   23.1119  -32.2129 H   0  0  0  0  0  0  0  0  0  0  0  0
   -6.6899   24.8561  -32.2129 H   0  0  0  0  0  0  0  0  0  0  0  0
   -7.0178   25.2903  -28.7287 H   0  0  0  0  0  0  0  0  0  0  0  0
   -6.3439   26.0453  -30.2127 H   0  0  0  0  0  0  0  0  0  0  0  0
   -8.0230   25.4074  -30.2127 H   0  0  0  0  0  0  0  0  0  0  0  0
   -4.8487   21.9345  -32.0088 H   0  0  0  0  0  0  0  0  0  0  0  0
   -6.5512   20.1666  -34.3930 H   0  0  0  0  0  0  0  0  0  0  0  0
   -5.7096   21.4616  -33.4161 H   0  0  0  0  0  0  0  0  0  0  0  0
   -7.8737   20.4930  -32.4552 H   0  0  0  0  0  0  0  0  0  0  0  0
   -6.3810   20.5458  -31.3915 H   0  0  0  0  0  0  0  0  0  0  0  0
  1  2  1  0
  2  3  1  0
  3  4  1  0
  4  5  1  0
  5  6  1  0
  6  7  1  0
  7  8  2  0
  8  9  1  0
  9 10  2  0
 10 11  1  0
 11 12  2  0
 12 13  1  0
 13 14  1  0
 13 15  2  0
 12 16  1  0
 16 17  1  0
 17 18  2  0
 17 19  1  0
 19 20  1  0
 20 21  1  0
 20 22  1  0
 20 23  1  0
 16 24  1  0
 24 25  2  0
  6 26  1  0
 26 27  1  0
 27  3  1  0
 25  7  1  0
 24 10  1  0
  1 28  1  0
  1 29  1  0
  1 30  1  0
  3 31  1  1
  4 32  1  0
  4 33  1  0
  5 34  1  0
  5 35  1  0
  6 36  1  6
  8 37  1  0
  9 38  1  0
 11 39  1  0
 14 40  1  0
 21 41  1  0
 21 42  1  0
 21 43  1  0
 22 44  1  0
 22 45  1  0
 22 46  1  0
 23 47  1  0
 23 48  1  0
 23 49  1  0
 25 50  1  0
 26 51  1  0
 26 52  1  0
 27 53  1  0
 27 54  1  0
M  CHG  1  14  -1
M  END
>  <UniqueID>  (2) 
2

>  <SMILES>  (2) 
COC1CCC(c2ccc3cc(C([NH-])=O)n(C(=O)OC(C)(C)C)c3c2)CC1

>  <Energy>  (2) 
96.52180465501856

>  <Genealogy>  (2) 
COC1CCC(c2ccc3cc(C([NH-])=O)n(C(=O)OC(C)(C)C)c3c2)CC1 (protonated)
COC1CCC(c2ccc3cc(C([NH-])=O)n(C(=O)OC(C)(C)C)c3c2)CC1 (3D coordinates assigned)
COC1CCC(c2ccc3cc(C([NH-])=O)n(C(=O)OC(C)(C)C)c3c2)CC1 (nonaromatic ring conformer: 96.52180465501856 kcal/mol)

>  <smiles>  (2) 
COC1CCC(c2ccc3cc(C(N)=O)n(C(=O)OC(C)(C)C)c3c2)CC1

>  <score_type>  (2) 
oracle

>  <origin>  (2) 
adg

>  <m_score__min__energy>  (2) 
-12.18

>  <m_primary>  (2) 
energy

$$$$
2:0
     RDKit          3D

 27 29  0  0  0  0  0  0  0  0999 V2000
   -1.5310   25.9700  -28.8570 N   0  0  0  0  0  0  0  0  0  0  0  0
   -0.8760   24.7070  -28.9280 C   0  0  0  0  0  0  0  0  0  0  0  0
    0.2370   24.5560  -28.3550 O   0  0  0  0  0  0  0  0  0  0  0  0
   -1.4520   23.5950  -29.7120 C   0  0  0  0  0  0  0  0  0  0  0  0
   -0.7240   22.4710  -30.0950 C   0  0  0  0  0  0  0  0  0  0  0  0
   -1.5810   21.7310  -30.8760 C   0  0  0  0  0  0  0  0  0  0  0  0
   -1.3810   20.5100  -31.5130 C   0  0  0  0  0  0  0  0  0  0  0  0
   -2.4520   19.9580  -32.2320 C   0  0  0  0  0  0  0  0  0  0  0  0
   -3.7060   20.6240  -32.2990 C   0  0  0  0  0  0  0  0  0  0  0  0
   -4.8470   20.0410  -33.0460 C   0  0  0  0  0  0  0  0  0  0  0  0
   -6.1660   20.4490  -33.0100 C   0  0  0  0  0  0  0  0  0  0  0  0
   -6.8910   19.6640  -33.8270 N   0  0  0  0  0  0  0  0  0  0  0  0
   -5.9910   18.7990  -34.3370 C   0  0  0  0  0  0  0  0  0  0  0  0
   -4.7360   18.9960  -33.8860 N   0  0  0  0  0  0  0  0  0  0  0  0
   -3.8660   21.8640  -31.6340 C   0  0  0  0  0  0  0  0  0  0  0  0
   -2.7740   22.4000  -30.9410 C   0  0  0  0  0  0  0  0  0  0  0  0
   -2.7130   23.5470  -30.2280 N   0  0  0  0  0  0  0  0  0  0  0  0
   -3.7950   24.4620  -29.9890 C   0  0  0  0  0  0  0  0  0  0  0  0
   -4.6600   24.2100  -29.1090 O   0  0  0  0  0  0  0  0  0  0  0  0
   -3.8810   25.6490  -30.7070 O   0  0  0  0  0  0  0  0  0  0  0  0
   -2.5670   26.0450  -28.9620 H   0  0  0  0  0  0  0  0  0  0  0  0
    0.3152   22.2270  -29.8294 H   0  0  0  0  0  0  0  0  0  0  0  0
   -0.4119   19.9929  -31.4546 H   0  0  0  0  0  0  0  0  0  0  0  0
   -2.3195   18.9971  -32.7507 H   0  0  0  0  0  0  0  0  0  0  0  0
   -6.5603   21.2821  -32.4096 H   0  0  0  0  0  0  0  0  0  0  0  0
   -6.2559   18.0074  -35.0534 H   0  0  0  0  0  0  0  0  0  0  0  0
   -4.8288   22.3953  -31.6614 H   0  0  0  0  0  0  0  0  0  0  0  0
  1  2  1  0
  2  3  2  0
  2  4  1  0
  4  5  2  0
  5  6  1  0
  6  7  2  0
  7  8  1  0
  8  9  2  0
  9 10  1  0
 10 11  2  0
 11 12  1  0
 12 13  2  0
 13 14  1  0
  9 15  1  0
 15 16  2  0
 16 17  1  0
 17 18  1  0
 18 19  2  0
 18 20  1  0
 17  4  1  0
 16  6  1  0
 14 10  1  0
  1 21  1  0
  5 22  1  0
  7 23  1  0
  8 24  1  0
 11 25  1  0
 13 26  1  0
 15 27  1  0
M  CHG  3   1  -1  14  -1  20  -1
M  END
>  <UniqueID>  (3) 
3

>  <SMILES>  (3) 
[NH-]C(=O)c1cc2ccc(-c3cnc[n-]3)cc2n1C(=O)[O-]

>  <Energy>  (3) 
98.83459193239793

>  <Genealogy>  (3) 
[NH-]C(=O)c1cc2ccc(-c3cnc[n-]3)cc2n1C(=O)[O-] (protonated)
[NH-]C(=O)c1cc2ccc(-c3cnc[n-]3)cc2n1C(=O)[O-] (3D coordinates assigned)
[NH-]C(=O)c1cc2ccc(-c3cnc[n-]3)cc2n1C(=O)[O-] (optimized conformer: 98.83459193239793 kcal/mol)

>  <smiles>  (3) 
NC(=O)c1cc2ccc(-c3cnc[nH]3)cc2n1C(=O)O

>  <score_type>  (3) 
oracle

>  <origin>  (3) 
adg

>  <m_score__min__energy>  (3) 
-10.619999999999999

>  <m_primary>  (3) 
energy

$$$$
3:0
     RDKit          3D

 38 40  0  0  0  0  0  0  0  0999 V2000
   -3.9510   25.6700  -30.8490 N   0  0  0  0  0  0  0  0  0  0  0  0
   -5.2800   25.3210  -30.4690 C   0  0  0  0  0  0  0  0  0  0  0  0
   -5.9140   26.0730  -29.6810 O   0  0  0  0  0  0  0  0  0  0  0  0
   -5.8990   24.0640  -30.9360 C   0  0  0  0  0  0  0  0  0  0  0  0
   -7.2430   23.9570  -31.2820 C   0  0  0  0  0  0  0  0  0  0  0  0
   -7.4470   22.6240  -31.5510 C   0  0  0  0  0  0  0  0  0  0  0  0
   -8.6060   21.9560  -31.9320 C   0  0  0  0  0  0  0  0  0  0  0  0
   -8.5270   20.5710  -32.1540 C   0  0  0  0  0  0  0  0  0  0  0  0
   -7.2920   19.8840  -32.0180 C   0  0  0  0  0  0  0  0  0  0  0  0
   -7.2260   18.3910  -32.2180 C   0  0  0  0  0  0  0  0  0  0  0  0
   -8.4780   17.8470  -31.9970 F   0  0  0  0  0  0  0  0  0  0  0  0
   -6.3240   17.8210  -31.3370 F   0  0  0  0  0  0  0  0  0  0  0  0
   -6.8240   18.0870  -33.5070 F   0  0  0  0  0  0  0  0  0  0  0  0
   -6.1410   20.5960  -31.6080 C   0  0  0  0  0  0  0  0  0  0  0  0
   -6.2540   21.9720  -31.3760 C   0  0  0  0  0  0  0  0  0  0  0  0
   -5.2900   22.8450  -31.0020 N   0  0  0  0  0  0  0  0  0  0  0  0
   -3.9030   22.5390  -30.7900 C   0  0  0  0  0  0  0  0  0  0  0  0
   -3.0140   23.1420  -31.4510 O   0  0  0  0  0  0  0  0  0  0  0  0
   -3.5450   21.5530  -29.8670 O   0  0  0  0  0  0  0  0  0  0  0  0
   -3.3210   21.8270  -28.4870 C   0  0  0  0  0  0  0  0  0  0  0  0
   -2.3730   23.0210  -28.3410 C   0  0  0  0  0  0  0  0  0  0  0  0
   -3.0440   24.3890  -28.0760 C   0  0  0  0  0  0  0  0  0  0  0  0
   -2.7570   24.9400  -26.6820 C   0  0  0  0  0  0  0  0  0  0  0  0
   -4.1710   24.5400  -27.0560 C   0  0  0  0  0  0  0  0  0  0  0  0
   -3.1350   25.1050  -30.5270 H   0  0  0  0  0  0  0  0  0  0  0  0
   -7.9851   24.7675  -31.3301 H   0  0  0  0  0  0  0  0  0  0  0  0
   -9.5562   22.4961  -32.0558 H   0  0  0  0  0  0  0  0  0  0  0  0
   -9.4318   20.0128  -32.4363 H   0  0  0  0  0  0  0  0  0  0  0  0
   -5.1786   20.0803  -31.4744 H   0  0  0  0  0  0  0  0  0  0  0  0
   -4.2798   22.0607  -28.0010 H   0  0  0  0  0  0  0  0  0  0  0  0
   -2.8687   20.9445  -28.0108 H   0  0  0  0  0  0  0  0  0  0  0  0
   -1.6935   22.8109  -27.5019 H   0  0  0  0  0  0  0  0  0  0  0  0
   -1.8686   23.1207  -29.3134 H   0  0  0  0  0  0  0  0  0  0  0  0
   -2.9577   24.7053  -29.1260 H   0  0  0  0  0  0  0  0  0  0  0  0
   -2.1885   24.3365  -25.9592 H   0  0  0  0  0  0  0  0  0  0  0  0
   -2.2868   25.8540  -26.2903 H   0  0  0  0  0  0  0  0  0  0  0  0
   -4.6269   23.6465  -26.6046 H   0  0  0  0  0  0  0  0  0  0  0  0
   -5.1487   25.0440  -27.0477 H   0  0  0  0  0  0  0  0  0  0  0  0
  1  2  1  0
  2  3  2  0
  2  4  1  0
  4  5  2  0
  5  6  1  0
  6  7  2  0
  7  8  1  0
  8  9  2  0
  9 10  1  0
 10 11  1  0
 10 12  1  0
 10 13  1  0
  9 14  1  0
 14 15  2  0
 15 16  1  0
 16 17  1  0
 17 18  2  0
 17 19  1  0
 19 20  1  0
 20 21  1  0
 21 22  1  0
 22 23  1  0
 23 24  1  0
 16  4  1  0
 24 22  1  0
 15  6  1  0
  1 25  1  0
  5 26  1  0
  7 27  1  0
  8 28  1  0
 14 29  1  0
 20 30  1  0
 20 31  1  0
 21 32  1  0
 21 33  1  0
 22 34  1  0
 23 35  1  0
 23 36  1  0
 24 37  1  0
 24 38  1  0
M  CHG  1   1  -1
M  END
>  <UniqueID>  (4) 
4

>  <SMILES>  (4) 
[NH-]C(=O)c1cc2ccc(C(F)(F)F)cc2n1C(=O)OCCC1CC1

>  <Energy>  (4) 
342.23575706609347

>  <Genealogy>  (4) 
[NH-]C(=O)c1cc2ccc(C(F)(F)F)cc2n1C(=O)OCCC1CC1 (protonated)
[NH-]C(=O)c1cc2ccc(C(F)(F)F)cc2n1C(=O)OCCC1CC1 (3D coordinates assigned)
[NH-]C(=O)c1cc2ccc(C(F)(F)F)cc2n1C(=O)OCCC1CC1 (nonaromatic ring conformer: 342.23575706609347 kcal/mol)

>  <smiles>  (4) 
NC(=O)c1cc2ccc(C(F)(F)F)cc2n1C(=O)OCCC1CC1

>  <score_type>  (4) 
oracle

>  <origin>  (4) 
adg

>  <m_score__min__energy>  (4) 
-9.9299999999999997

>  <m_primary>  (4) 
energy

$$$$
4:0
     RDKit          3D

 48 50  0  0  0  0  0  0  0  0999 V2000
   -3.0320   21.2010  -29.0280 C   0  0  0  0  0  0  0  0  0  0  0  0
   -2.7220   22.7010  -28.9220 C   0  0  0  0  0  0  0  0  0  0  0  0
   -1.3450   22.8790  -28.2520 C   0  0  0  0  0  0  0  0  0  0  0  0
   -3.8230   23.3800  -28.0850 C   0  0  0  0  0  0  0  0  0  0  0  0
   -2.7080   23.2270  -30.2570 O   0  0  0  0  0  0  0  0  0  0  0  0
   -3.4150   22.7200  -31.3590 C   0  0  0  0  0  0  0  0  0  0  0  0
   -2.8060   22.2450  -32.3550 O   0  0  0  0  0  0  0  0  0  0  0  0
   -4.8490   22.7660  -31.3590 N   0  0  0  0  0  0  0  0  0  0  0  0
   -5.6470   23.8350  -31.0780 C   0  0  0  0  0  0  0  0  0  0  0  0
   -5.1990   25.1350  -30.5390 C   0  0  0  0  0  0  0  0  0  0  0  0
   -3.9140   25.6600  -30.8650 N   0  0  0  0  0  0  0  0  0  0  0  0
   -5.9390   25.7680  -29.7400 O   0  0  0  0  0  0  0  0  0  0  0  0
   -6.9860   23.5170  -31.2940 C   0  0  0  0  0  0  0  0  0  0  0  0
   -6.9850   22.2050  -31.7130 C   0  0  0  0  0  0  0  0  0  0  0  0
   -8.0450   21.3850  -32.0840 C   0  0  0  0  0  0  0  0  0  0  0  0
   -7.7500   20.0800  -32.5100 C   0  0  0  0  0  0  0  0  0  0  0  0
   -6.4090   19.6190  -32.5710 C   0  0  0  0  0  0  0  0  0  0  0  0
   -6.1070   18.2420  -33.0370 C   0  0  0  0  0  0  0  0  0  0  0  0
   -4.7780   17.7920  -33.1270 C   0  0  0  0  0  0  0  0  0  0  0  0
   -4.4960   16.4970  -33.5670 C   0  0  0  0  0  0  0  0  0  0  0  0
   -5.5290   15.6240  -33.9260 C   0  0  0  0  0  0  0  0  0  0  0  0
   -5.1860   14.3340  -34.3610 O   0  0  0  0  0  0  0  0  0  0  0  0
   -4.4700   13.3700  -33.5930 C   0  0  0  0  0  0  0  0  0  0  0  0
   -3.1470   13.7580  -33.5060 F   0  0  0  0  0  0  0  0  0  0  0  0
   -4.9960   13.2920  -32.3150 F   0  0  0  0  0  0  0  0  0  0  0  0
   -4.5320   12.1300  -34.2040 F   0  0  0  0  0  0  0  0  0  0  0  0
   -6.8620   16.0690  -33.8380 C   0  0  0  0  0  0  0  0  0  0  0  0
   -7.1450   17.3650  -33.3970 C   0  0  0  0  0  0  0  0  0  0  0  0
   -5.3580   20.4880  -32.1850 C   0  0  0  0  0  0  0  0  0  0  0  0
   -5.6840   21.7760  -31.7450 C   0  0  0  0  0  0  0  0  0  0  0  0
   -3.1205   20.7727  -28.0187 H   0  0  0  0  0  0  0  0  0  0  0  0
   -3.9783   21.0596  -29.5706 H   0  0  0  0  0  0  0  0  0  0  0  0
   -2.2192   20.6961  -29.5706 H   0  0  0  0  0  0  0  0  0  0  0  0
   -1.4645   22.8636  -27.1586 H   0  0  0  0  0  0  0  0  0  0  0  0
   -0.6789   22.0595  -28.5597 H   0  0  0  0  0  0  0  0  0  0  0  0
   -0.9091   23.8410  -28.5597 H   0  0  0  0  0  0  0  0  0  0  0  0
   -3.6055   23.2458  -27.0151 H   0  0  0  0  0  0  0  0  0  0  0  0
   -3.8533   24.4539  -28.3212 H   0  0  0  0  0  0  0  0  0  0  0  0
   -4.7962   22.9250  -28.3212 H   0  0  0  0  0  0  0  0  0  0  0  0
   -3.0500   25.2790  -30.4210 H   0  0  0  0  0  0  0  0  0  0  0  0
   -7.8581   24.1737  -31.1588 H   0  0  0  0  0  0  0  0  0  0  0  0
   -9.0828   21.7476  -32.0449 H   0  0  0  0  0  0  0  0  0  0  0  0
   -8.5692   19.4058  -32.8004 H   0  0  0  0  0  0  0  0  0  0  0  0
   -3.9539   18.4653  -32.8486 H   0  0  0  0  0  0  0  0  0  0  0  0
   -3.4510   16.1597  -33.6321 H   0  0  0  0  0  0  0  0  0  0  0  0
   -7.6843   15.3939  -34.1175 H   0  0  0  0  0  0  0  0  0  0  0  0
   -8.1901   17.7018  -33.3310 H   0  0  0  0  0  0  0  0  0  0  0  0
   -4.3098   20.1576  -32.2302 H   0  0  0  0  0  0  0  0  0  0  0  0
  1  2  1  0
  2  3  1  0
  2  4  1  0
  2  5  1  0
  5  6  1  0
  6  7  2  0
  6  8  1  0
  8  9  1  0
  9 10  1  0
 10 11  1  0
 10 12  2  0
  9 13  2  0
 13 14  1  0
 14 15  2  0
 15 16  1  0
 16 17  2  0
 17 18  1  0
 18 19  2  0
 19 20  1  0
 20 21  2  0
 21 22  1  0
 22 23  1  0
 23 24  1  0
 23 25  1  0
 23 26  1  0
 21 27  1  0
 27 28  2  0
 17 29  1  0
 29 30  2  0
 30  8  1  0
 30 14  1  0
 28 18  1  0
  1 31  1  0
  1 32  1  0
  1 33  1  0
  3 34  1  0
  3 35  1  0
  3 36  1  0
  4 37  1  0
  4 38  1  0
  4 39  1  0
 11 40  1  0
 13 41  1  0
 15 42  1  0
 16 43  1  0
 19 44  1  0
 20 45  1  0
 27 46  1  0
 28 47  1  0
 29 48  1  0
M  CHG  1  11  -1
M  END
>  <UniqueID>  (5) 
5

>  <SMILES>  (5) 
CC(C)(C)OC(=O)n1c(C([NH-])=O)cc2ccc(-c3ccc(OC(F)(F)F)cc3)cc21

>  <Energy>  (5) 
89.84206296665882

>  <Genealogy>  (5) 
CC(C)(C)OC(=O)n1c(C([NH-])=O)cc2ccc(-c3ccc(OC(F)(F)F)cc3)cc21 (protonated)
CC(C)(C)OC(=O)n1c(C([NH-])=O)cc2ccc(-c3ccc(OC(F)(F)F)cc3)cc21 (3D coordinates assigned)
CC(C)(C)OC(=O)n1c(C([NH-])=O)cc2ccc(-c3ccc(OC(F)(F)F)cc3)cc21 (optimized conformer: 89.84206296665882 kcal/mol)

>  <smiles>  (5) 
CC(C)(C)OC(=O)n1c(C(N)=O)cc2ccc(-c3ccc(OC(F)(F)F)cc3)cc21

>  <score_type>  (5) 
oracle

>  <origin>  (5) 
adg

>  <m_score__min__energy>  (5) 
-10.619999999999999

>  <m_primary>  (5) 
energy

$$$$
5:0
     RDKit          3D

 58 62  0  0  0  0  0  0  0  0999 V2000
   -6.1710   24.7290  -29.8340 C   0  0  0  0  0  0  0  0  0  0  0  0
   -5.2430   25.7500  -30.4820 C   0  0  0  0  0  0  0  0  0  0  0  0
   -3.9520   25.1870  -30.7020 O   0  0  0  0  0  0  0  0  0  0  0  0
   -3.7330   23.8240  -30.9290 C   0  0  0  0  0  0  0  0  0  0  0  0
   -4.4800   23.1800  -31.7160 O   0  0  0  0  0  0  0  0  0  0  0  0
   -2.6630   23.1500  -30.2470 N   0  0  0  0  0  0  0  0  0  0  0  0
   -2.0160   23.5430  -29.1130 C   0  0  0  0  0  0  0  0  0  0  0  0
   -2.1850   24.8400  -28.4260 C   0  0  0  0  0  0  0  0  0  0  0  0
   -1.5210   25.9990  -28.9260 N   0  0  0  0  0  0  0  0  0  0  0  0
   -2.9380   24.9460  -27.4230 O   0  0  0  0  0  0  0  0  0  0  0  0
   -1.0940   22.5770  -28.7170 C   0  0  0  0  0  0  0  0  0  0  0  0
   -1.1900   21.5740  -29.6540 C   0  0  0  0  0  0  0  0  0  0  0  0
   -0.5130   20.3610  -29.7400 C   0  0  0  0  0  0  0  0  0  0  0  0
   -0.8390   19.5000  -30.8010 C   0  0  0  0  0  0  0  0  0  0  0  0
   -1.8270   19.8640  -31.7460 C   0  0  0  0  0  0  0  0  0  0  0  0
   -2.2040   18.9250  -32.8190 C   0  0  0  0  0  0  0  0  0  0  0  0
   -3.5020   18.7200  -33.2990 C   0  0  0  0  0  0  0  0  0  0  0  0
   -4.7300   19.3350  -32.7550 C   0  0  0  0  0  0  0  0  0  0  0  0
   -5.1240   20.6160  -33.1720 C   0  0  0  0  0  0  0  0  0  0  0  0
   -6.2990   21.1880  -32.6740 C   0  0  0  0  0  0  0  0  0  0  0  0
   -7.0900   20.4820  -31.7630 C   0  0  0  0  0  0  0  0  0  0  0  0
   -6.7070   19.2030  -31.3500 C   0  0  0  0  0  0  0  0  0  0  0  0
   -5.5320   18.6290  -31.8430 C   0  0  0  0  0  0  0  0  0  0  0  0
   -3.4050   17.8630  -34.3960 C   0  0  0  0  0  0  0  0  0  0  0  0
   -4.5000   17.4330  -35.2920 C   0  0  0  0  0  0  0  0  0  0  0  0
   -4.2370   17.0330  -36.4580 O   0  0  0  0  0  0  0  0  0  0  0  0
   -5.8260   17.4880  -34.8520 O   0  0  0  0  0  0  0  0  0  0  0  0
   -6.4580   16.4080  -34.1770 C   0  0  0  0  0  0  0  0  0  0  0  0
   -2.1070   17.5500  -34.5740 N   0  0  0  0  0  0  0  0  0  0  0  0
   -1.5770   16.8010  -35.5420 N   0  0  0  0  0  0  0  0  0  0  0  0
   -0.2300   16.6190  -35.5740 C   0  0  0  0  0  0  0  0  0  0  0  0
    0.5530   17.1850  -34.6120 N   0  0  0  0  0  0  0  0  0  0  0  0
    0.0200   17.9530  -33.6190 C   0  0  0  0  0  0  0  0  0  0  0  0
    0.8720   18.4400  -32.5810 N   0  0  0  0  0  0  0  0  0  0  0  0
   -1.3690   18.1620  -33.6330 C   0  0  0  0  0  0  0  0  0  0  0  0
   -2.5040   21.0960  -31.6200 C   0  0  0  0  0  0  0  0  0  0  0  0
   -2.1450   21.9430  -30.5660 C   0  0  0  0  0  0  0  0  0  0  0  0
   -6.0977   24.8097  -28.7394 H   0  0  0  0  0  0  0  0  0  0  0  0
   -7.2071   24.9244  -30.1475 H   0  0  0  0  0  0  0  0  0  0  0  0
   -5.8779   23.7162  -30.1475 H   0  0  0  0  0  0  0  0  0  0  0  0
   -5.6690   26.0649  -31.4460 H   0  0  0  0  0  0  0  0  0  0  0  0
   -5.1426   26.6146  -29.8094 H   0  0  0  0  0  0  0  0  0  0  0  0
   -1.2170   26.0540  -29.9240 H   0  0  0  0  0  0  0  0  0  0  0  0
   -0.4298   22.6092  -27.8408 H   0  0  0  0  0  0  0  0  0  0  0  0
    0.2532   20.0852  -29.0005 H   0  0  0  0  0  0  0  0  0  0  0  0
   -0.3215   18.5342  -30.8980 H   0  0  0  0  0  0  0  0  0  0  0  0
   -4.5065   21.1719  -33.8929 H   0  0  0  0  0  0  0  0  0  0  0  0
   -6.6010   22.1944  -32.9995 H   0  0  0  0  0  0  0  0  0  0  0  0
   -8.0137   20.9330  -31.3713 H   0  0  0  0  0  0  0  0  0  0  0  0
   -7.3317   18.6469  -30.6354 H   0  0  0  0  0  0  0  0  0  0  0  0
   -5.2344   17.6218  -31.5160 H   0  0  0  0  0  0  0  0  0  0  0  0
   -6.3723   16.5544  -33.0902 H   0  0  0  0  0  0  0  0  0  0  0  0
   -7.5205   16.3706  -34.4593 H   0  0  0  0  0  0  0  0  0  0  0  0
   -5.9702   15.4634  -34.4593 H   0  0  0  0  0  0  0  0  0  0  0  0
    0.2266   16.0170  -36.3735 H   0  0  0  0  0  0  0  0  0  0  0  0
    1.0070   17.8730  -31.7150 H   0  0  0  0  0  0  0  0  0  0  0  0
    1.2270   19.4200  -32.5750 H   0  0  0  0  0  0  0  0  0  0  0  0
   -3.2926   21.3825  -32.3313 H   0  0  0  0  0  0  0  0  0  0  0  0
  1  2  1  0
  2  3  1  0
  3  4  1  0
  4  5  2  0
  4  6  1  0
  6  7  1  0
  7  8  1  0
  8  9  1  0
  8 10  2  0
  7 11  2  0
 11 12  1  0
 12 13  2  0
 13 14  1  0
 14 15  2  0
 15 16  1  0
 16 17  1  0
 17 18  1  0
 18 19  2  0
 19 20  1  0
 20 21  2  0
 21 22  1  0
 22 23  2  0
 17 24  2  0
 24 25  1  0
 25 26  2  0
 25 27  1  0
 27 28  1  0
 24 29  1  0
 29 30  1  0
 30 31  2  0
 31 32  1  0
 32 33  2  0
 33 34  1  0
 33 35  1  0
 15 36  1  0
 36 37  2  0
 37  6  1  0
 37 12  1  0
 35 16  2  0
 23 18  1  0
 35 29  1  0
  1 38  1  0
  1 39  1  0
  1 40  1  0
  2 41  1  0
  2 42  1  0
  9 43  1  0
 11 44  1  0
 13 45  1  0
 14 46  1  0
 19 47  1  0
 20 48  1  0
 21 49  1  0
 22 50  1  0
 23 51  1  0
 28 52  1  0
 28 53  1  0
 28 54  1  0
 31 55  1  0
 34 56  1  0
 34 57  1  0
 36 58  1  0
M  CHG  1   9  -1
M  END
>  <UniqueID>  (6) 
6

>  <SMILES>  (6) 
CCOC(=O)n1c(C([NH-])=O)cc2ccc(-c3c(-c4ccccc4)c(C(=O)OC)n4ncnc(N)c34)cc21

>  <Energy>  (6) 
145.127908597571

>  <Genealogy>  (6) 
CCOC(=O)n1c(C([NH-])=O)cc2ccc(-c3c(-c4ccccc4)c(C(=O)OC)n4ncnc(N)c34)cc21 (protonated)
CCOC(=O)n1c(C([NH-])=O)cc2ccc(-c3c(-c4ccccc4)c(C(=O)OC)n4ncnc(N)c34)cc21 (3D coordinates assigned)
CCOC(=O)n1c(C([NH-])=O)cc2ccc(-c3c(-c4ccccc4)c(C(=O)OC)n4ncnc(N)c34)cc21 (optimized conformer: 145.127908597571 kcal/mol)

>  <smiles>  (6) 
CCOC(=O)n1c(C(N)=O)cc2ccc(-c3c(-c4ccccc4)c(C(=O)OC)n4ncnc(N)c34)cc21

>  <score_type>  (6) 
oracle

>  <origin>  (6) 
adg

>  <m_score__min__energy>  (6) 
-10.83

>  <m_primary>  (6) 
energy

$$$$
6:0
     RDKit          3D

 48 50  0  0  0  0  0  0  0  0999 V2000
   -2.8210   21.5370  -33.5010 C   0  0  0  0  0  0  0  0  0  0  0  0
   -2.4790   20.8260  -32.1820 C   0  0  0  0  0  0  0  0  0  0  0  0
   -0.9840   21.0330  -31.8750 C   0  0  0  0  0  0  0  0  0  0  0  0
   -2.8040   19.3280  -32.3270 C   0  0  0  0  0  0  0  0  0  0  0  0
   -3.2910   21.4210  -31.1610 O   0  0  0  0  0  0  0  0  0  0  0  0
   -3.8680   22.7000  -31.1920 C   0  0  0  0  0  0  0  0  0  0  0  0
   -3.1500   23.7350  -31.1250 O   0  0  0  0  0  0  0  0  0  0  0  0
   -5.2940   22.8280  -31.2960 N   0  0  0  0  0  0  0  0  0  0  0  0
   -6.0790   23.8280  -30.8070 C   0  0  0  0  0  0  0  0  0  0  0  0
   -5.6000   25.0810  -30.1920 C   0  0  0  0  0  0  0  0  0  0  0  0
   -6.1710   25.5790  -28.9810 N   0  0  0  0  0  0  0  0  0  0  0  0
   -4.6310   25.6950  -30.7140 O   0  0  0  0  0  0  0  0  0  0  0  0
   -7.4260   23.5400  -31.0120 C   0  0  0  0  0  0  0  0  0  0  0  0
   -7.4430   22.3260  -31.6610 C   0  0  0  0  0  0  0  0  0  0  0  0
   -8.5190   21.5580  -32.0930 C   0  0  0  0  0  0  0  0  0  0  0  0
   -8.2450   20.3220  -32.7030 C   0  0  0  0  0  0  0  0  0  0  0  0
   -6.9080   19.8750  -32.8640 C   0  0  0  0  0  0  0  0  0  0  0  0
   -6.6330   18.5960  -33.4690 N   0  0  0  0  0  0  0  0  0  0  0  0
   -5.8490   18.5040  -34.7070 C   0  0  0  0  0  0  0  0  0  0  0  0
   -4.8820   17.2970  -34.6590 C   0  0  0  0  0  0  0  0  0  0  0  0
   -5.1310   16.4030  -33.5850 O   0  0  0  0  0  0  0  0  0  0  0  0
   -6.5150   16.1400  -33.4740 C   0  0  0  0  0  0  0  0  0  0  0  0
   -7.2220   17.3740  -32.9090 C   0  0  0  0  0  0  0  0  0  0  0  0
   -5.8440   20.6790  -32.3990 C   0  0  0  0  0  0  0  0  0  0  0  0
   -6.1440   21.9170  -31.8190 C   0  0  0  0  0  0  0  0  0  0  0  0
   -3.2884   22.5087  -33.2833 H   0  0  0  0  0  0  0  0  0  0  0  0
   -1.9003   21.6949  -34.0819 H   0  0  0  0  0  0  0  0  0  0  0  0
   -3.5191   20.9163  -34.0819 H   0  0  0  0  0  0  0  0  0  0  0  0
   -0.8329   21.0539  -30.7856 H   0  0  0  0  0  0  0  0  0  0  0  0
   -0.4025   20.2068  -32.3101 H   0  0  0  0  0  0  0  0  0  0  0  0
   -0.6489   21.9861  -32.3101 H   0  0  0  0  0  0  0  0  0  0  0  0
   -2.9021   18.8758  -31.3290 H   0  0  0  0  0  0  0  0  0  0  0  0
   -3.7488   19.2094  -32.8778 H   0  0  0  0  0  0  0  0  0  0  0  0
   -1.9933   18.8286  -32.8778 H   0  0  0  0  0  0  0  0  0  0  0  0
   -5.8460   26.4880  -28.5840 H   0  0  0  0  0  0  0  0  0  0  0  0
   -6.8510   25.0090  -28.4320 H   0  0  0  0  0  0  0  0  0  0  0  0
   -8.2916   24.1519  -30.7181 H   0  0  0  0  0  0  0  0  0  0  0  0
   -9.5536   21.9076  -31.9611 H   0  0  0  0  0  0  0  0  0  0  0  0
   -9.0754   19.6947  -33.0593 H   0  0  0  0  0  0  0  0  0  0  0  0
   -6.5341   18.3831  -35.5591 H   0  0  0  0  0  0  0  0  0  0  0  0
   -5.2572   19.4246  -34.8178 H   0  0  0  0  0  0  0  0  0  0  0  0
   -4.9766   16.7397  -35.6026 H   0  0  0  0  0  0  0  0  0  0  0  0
   -3.8711   17.7036  -34.5082 H   0  0  0  0  0  0  0  0  0  0  0  0
   -6.9249   15.9046  -34.4673 H   0  0  0  0  0  0  0  0  0  0  0  0
   -6.6741   15.2845  -32.8011 H   0  0  0  0  0  0  0  0  0  0  0  0
   -8.2897   17.3325  -33.1702 H   0  0  0  0  0  0  0  0  0  0  0  0
   -7.1032   17.3867  -31.8155 H   0  0  0  0  0  0  0  0  0  0  0  0
   -4.8017   20.3395  -32.4907 H   0  0  0  0  0  0  0  0  0  0  0  0
  1  2  1  0
  2  3  1  0
  2  4  1  0
  2  5  1  0
  5  6  1  0
  6  7  2  0
  6  8  1  0
  8  9  1  0
  9 10  1  0
 10 11  1  0
 10 12  2  0
  9 13  2  0
 13 14  1  0
 14 15  2  0
 15 16  1  0
 16 17  2  0
 17 18  1  0
 18 19  1  0
 19 20  1  0
 20 21  1  0
 21 22  1  0
 22 23  1  0
 17 24  1  0
 24 25  2  0
 25  8  1  0
 25 14  1  0
 23 18  1  0
  1 26  1  0
  1 27  1  0
  1 28  1  0
  3 29  1  0
  3 30  1  0
  3 31  1  0
  4 32  1  0
  4 33  1  0
  4 34  1  0
 11 35  1  0
 11 36  1  0
 13 37  1  0
 15 38  1  0
 16 39  1  0
 19 40  1  0
 19 41  1  0
 20 42  1  0
 20 43  1  0
 22 44  1  0
 22 45  1  0
 23 46  1  0
 23 47  1  0
 24 48  1  0
M  END
>  <UniqueID>  (7) 
7

>  <SMILES>  (7) 
CC(C)(C)OC(=O)n1c(C(N)=O)cc2ccc(N3CCOCC3)cc21

>  <Energy>  (7) 
93.43161198365642

>  <Genealogy>  (7) 
CC(C)(C)OC(=O)n1c(C(N)=O)cc2ccc(N3CCOCC3)cc21 (3D coordinates assigned)
CC(C)(C)OC(=O)n1c(C(N)=O)cc2ccc(N3CCOCC3)cc21 (nonaromatic ring conformer: 93.43161198365642 kcal/mol)

>  <smiles>  (7) 
CC(C)(C)OC(=O)n1c(C(N)=O)cc2ccc(N3CCOCC3)cc21

>  <score_type>  (7) 
oracle

>  <origin>  (7) 
adg

>  <m_score__min__energy>  (7) 
-9.6300000000000008

>  <m_primary>  (7) 
energy

$$$$
7:0
     RDKit          3D

 58 61  0  0  0  0  0  0  0  0999 V2000
   -6.1260   17.8330  -31.2420 C   0  0  0  0  0  0  0  0  0  0  0  0
   -6.8710   18.2890  -32.5010 C   0  0  0  0  0  0  0  0  0  0  0  0
   -7.0130   17.1130  -33.4780 C   0  0  0  0  0  0  0  0  0  0  0  0
   -8.1560   18.7380  -32.1290 O   0  0  0  0  0  0  0  0  0  0  0  0
   -8.3310   19.9620  -32.7670 C   0  0  0  0  0  0  0  0  0  0  0  0
   -6.9550   20.4390  -33.1530 C   0  0  1  0  0  0  0  0  0  0  0  0
   -6.4160   21.5020  -32.1900 C   0  0  0  0  0  0  0  0  0  0  0  0
   -5.1720   21.0680  -31.6520 O   0  0  0  0  0  0  0  0  0  0  0  0
   -3.9580   21.2320  -32.3240 C   0  0  0  0  0  0  0  0  0  0  0  0
   -3.8970   21.9590  -33.3520 O   0  0  0  0  0  0  0  0  0  0  0  0
   -2.7780   20.5710  -31.8370 N   0  0  0  0  0  0  0  0  0  0  0  0
   -2.1540   19.4890  -32.3840 C   0  0  0  0  0  0  0  0  0  0  0  0
   -2.6620   18.6660  -33.5000 C   0  0  0  0  0  0  0  0  0  0  0  0
   -3.7890   19.0800  -34.2740 N   0  0  0  0  0  0  0  0  0  0  0  0
   -2.1300   17.5470  -33.7350 O   0  0  0  0  0  0  0  0  0  0  0  0
   -0.9770   19.2020  -31.6990 C   0  0  0  0  0  0  0  0  0  0  0  0
   -0.9010   20.1380  -30.6940 C   0  0  0  0  0  0  0  0  0  0  0  0
    0.0650   20.3160  -29.7110 C   0  0  0  0  0  0  0  0  0  0  0  0
   -0.1020   21.3790  -28.8080 C   0  0  0  0  0  0  0  0  0  0  0  0
   -1.2240   22.2400  -28.9040 C   0  0  0  0  0  0  0  0  0  0  0  0
   -1.3810   23.3660  -27.9550 C   0  0  0  0  0  0  0  0  0  0  0  0
   -0.9730   23.2020  -26.6190 C   0  0  0  0  0  0  0  0  0  0  0  0
   -1.0430   24.2680  -25.7190 C   0  0  0  0  0  0  0  0  0  0  0  0
   -1.5140   25.5110  -26.1420 C   0  0  0  0  0  0  0  0  0  0  0  0
   -1.9320   25.6890  -27.4620 C   0  0  0  0  0  0  0  0  0  0  0  0
   -1.8900   24.6220  -28.3680 C   0  0  0  0  0  0  0  0  0  0  0  0
   -2.3840   24.8300  -29.6940 N   0  0  0  0  0  0  0  0  0  0  0  0
   -4.0690   24.7000  -30.0790 S   0  0  0  0  0  0  0  0  0  0  0  0
   -4.9680   24.0860  -28.6740 C   0  0  0  0  0  0  0  0  0  0  0  0
   -4.2370   23.7550  -31.2360 O   0  0  0  0  0  0  0  0  0  0  0  0
   -4.6160   26.0460  -30.4620 O   0  0  0  0  0  0  0  0  0  0  0  0
   -2.1760   22.0380  -29.9290 C   0  0  0  0  0  0  0  0  0  0  0  0
   -1.9980   20.9570  -30.8000 C   0  0  0  0  0  0  0  0  0  0  0  0
   -6.1290   19.3160  -33.1250 O   0  0  0  0  0  0  0  0  0  0  0  0
   -6.6745   18.1687  -30.3496 H   0  0  0  0  0  0  0  0  0  0  0  0
   -6.0532   16.7354  -31.2363 H   0  0  0  0  0  0  0  0  0  0  0  0
   -5.1155   18.2675  -31.2363 H   0  0  0  0  0  0  0  0  0  0  0  0
   -7.1260   16.1770  -32.9112 H   0  0  0  0  0  0  0  0  0  0  0  0
   -7.8990   17.2674  -34.1113 H   0  0  0  0  0  0  0  0  0  0  0  0
   -6.1157   17.0521  -34.1113 H   0  0  0  0  0  0  0  0  0  0  0  0
   -8.9564   19.8382  -33.6634 H   0  0  0  0  0  0  0  0  0  0  0  0
   -8.8353   20.6863  -32.1104 H   0  0  0  0  0  0  0  0  0  0  0  0
   -6.9889   20.9094  -34.1468 H   0  0  0  0  0  0  0  0  0  0  0  0
   -6.2709   22.4480  -32.7322 H   0  0  0  0  0  0  0  0  0  0  0  0
   -7.1358   21.6545  -31.3723 H   0  0  0  0  0  0  0  0  0  0  0  0
   -4.3400   19.9270  -34.0160 H   0  0  0  0  0  0  0  0  0  0  0  0
   -4.1400   18.4780  -35.0500 H   0  0  0  0  0  0  0  0  0  0  0  0
   -0.2593   18.3970  -31.9155 H   0  0  0  0  0  0  0  0  0  0  0  0
    0.9339   19.6450  -29.6421 H   0  0  0  0  0  0  0  0  0  0  0  0
    0.6456   21.5450  -28.0183 H   0  0  0  0  0  0  0  0  0  0  0  0
   -0.5956   22.2260  -26.2800 H   0  0  0  0  0  0  0  0  0  0  0  0
   -0.7262   24.1270  -24.6751 H   0  0  0  0  0  0  0  0  0  0  0  0
   -1.5561   26.3522  -25.4344 H   0  0  0  0  0  0  0  0  0  0  0  0
   -2.2964   26.6729  -27.7923 H   0  0  0  0  0  0  0  0  0  0  0  0
   -4.4765   24.4217  -27.7489 H   0  0  0  0  0  0  0  0  0  0  0  0
   -5.9985   24.4698  -28.7018 H   0  0  0  0  0  0  0  0  0  0  0  0
   -4.9854   22.9865  -28.7018 H   0  0  0  0  0  0  0  0  0  0  0  0
   -3.0364   22.7144  -30.0395 H   0  0  0  0  0  0  0  0  0  0  0  0
  1  2  1  0
  2  3  1  0
  2  4  1  0
  4  5  1  0
  5  6  1  0
  6  7  1  0
  7  8  1  0
  8  9  1  0
  9 10  2  0
  9 11  1  0
 11 12  1  0
 12 13  1  0
 13 14  1  0
 13 15  2  0
 12 16  2  0
 16 17  1  0
 17 18  2  0
 18 19  1  0
 19 20  2  0
 20 21  1  0
 21 22  2  0
 22 23  1  0
 23 24  2  0
 24 25  1  0
 25 26  2  0
 26 27  1  0
 27 28  1  0
 28 29  1  0
 28 30  2  0
 28 31  2  0
 20 32  1  0
 32 33  2  0
  6 34  1  0
 34  2  1  0
 33 11  1  0
 33 17  1  0
 26 21  1  0
  1 35  1  0
  1 36  1  0
  1 37  1  0
  3 38  1  0
  3 39  1  0
  3 40  1  0
  5 41  1  0
  5 42  1  0
  6 43  1  6
  7 44  1  0
  7 45  1  0
 14 46  1  0
 14 47  1  0
 16 48  1  0
 18 49  1  0
 19 50  1  0
 22 51  1  0
 23 52  1  0
 24 53  1  0
 25 54  1  0
 29 55  1  0
 29 56  1  0
 29 57  1  0
 32 58  1  0
M  CHG  1  27  -1
M  END
>  <UniqueID>  (8) 
8

>  <SMILES>  (8) 
CC1(C)OC[C@@H](COC(=O)n2c(C(N)=O)cc3ccc(-c4ccccc4[N-]S(C)(=O)=O)cc32)O1

>  <Energy>  (8) 
97.60250398175766

>  <Genealogy>  (8) 
CC1(C)OCC(COC(=O)n2c(C(N)=O)cc3ccc(-c4ccccc4[N-]S(C)(=O)=O)cc32)O1 (protonated)
CC1(C)OC[C@@H](COC(=O)n2c(C(N)=O)cc3ccc(-c4ccccc4[N-]S(C)(=O)=O)cc32)O1 (chirality)
CC1(C)OC[C@@H](COC(=O)n2c(C(N)=O)cc3ccc(-c4ccccc4[N-]S(C)(=O)=O)cc32)O1 (3D coordinates assigned)
CC1(C)OC[C@@H](COC(=O)n2c(C(N)=O)cc3ccc(-c4ccccc4[N-]S(C)(=O)=O)cc32)O1 (nonaromatic ring conformer: 97.60250398175766 kcal/mol)

>  <smiles>  (8) 
CC1(C)OCC(COC(=O)n2c(C(N)=O)cc3ccc(-c4ccccc4NS(C)(=O)=O)cc32)O1

>  <score_type>  (8) 
oracle

>  <origin>  (8) 
adg

>  <m_score__min__energy>  (8) 
-10.619999999999999

>  <m_primary>  (8) 
energy

$$$$
8:0
     RDKit          3D

 24 25  0  0  0  0  0  0  0  0999 V2000
   -3.8860   25.6550  -30.8510 N   0  0  0  0  0  0  0  0  0  0  0  0
   -5.2020   25.2910  -30.4430 C   0  0  0  0  0  0  0  0  0  0  0  0
   -5.8930   26.1110  -29.7810 O   0  0  0  0  0  0  0  0  0  0  0  0
   -5.7830   23.9900  -30.8320 C   0  0  0  0  0  0  0  0  0  0  0  0
   -7.1530   23.7680  -30.9650 C   0  0  0  0  0  0  0  0  0  0  0  0
   -7.2690   22.4790  -31.4350 C   0  0  0  0  0  0  0  0  0  0  0  0
   -8.4030   21.7390  -31.7520 C   0  0  0  0  0  0  0  0  0  0  0  0
   -8.2250   20.4210  -32.2050 C   0  0  0  0  0  0  0  0  0  0  0  0
   -6.9250   19.8600  -32.3120 C   0  0  0  0  0  0  0  0  0  0  0  0
   -6.7450   18.4580  -32.8390 C   0  0  0  0  0  0  0  0  0  0  0  0
   -6.0800   18.4740  -34.0530 F   0  0  0  0  0  0  0  0  0  0  0  0
   -7.9700   17.8440  -33.0240 F   0  0  0  0  0  0  0  0  0  0  0  0
   -6.0040   17.7240  -31.9310 F   0  0  0  0  0  0  0  0  0  0  0  0
   -5.7960   20.6530  -32.0020 C   0  0  0  0  0  0  0  0  0  0  0  0
   -6.0060   21.9660  -31.5660 C   0  0  0  0  0  0  0  0  0  0  0  0
   -5.0830   22.8790  -31.1970 N   0  0  0  0  0  0  0  0  0  0  0  0
   -3.6670   22.6620  -31.1180 C   0  0  0  0  0  0  0  0  0  0  0  0
   -3.0050   23.1480  -30.1640 O   0  0  0  0  0  0  0  0  0  0  0  0
   -2.8030   21.7680  -32.4250 S   0  0  0  0  0  0  0  0  0  0  0  0
   -3.0470   25.2910  -30.3470 H   0  0  0  0  0  0  0  0  0  0  0  0
   -7.9677   24.4726  -30.7419 H   0  0  0  0  0  0  0  0  0  0  0  0
   -9.4089   22.1725  -31.6511 H   0  0  0  0  0  0  0  0  0  0  0  0
   -9.1024   19.8171  -32.4798 H   0  0  0  0  0  0  0  0  0  0  0  0
   -4.7781   20.2479  -32.1011 H   0  0  0  0  0  0  0  0  0  0  0  0
  1  2  1  0
  2  3  2  0
  2  4  1  0
  4  5  2  0
  5  6  1  0
  6  7  2  0
  7  8  1  0
  8  9  2  0
  9 10  1  0
 10 11  1  0
 10 12  1  0
 10 13  1  0
  9 14  1  0
 14 15  2  0
 15 16  1  0
 16 17  1  0
 17 18  2  0
 17 19  1  0
 16  4  1  0
 15  6  1  0
  1 20  1  0
  5 21  1  0
  7 22  1  0
  8 23  1  0
 14 24  1  0
M  CHG  2   1  -1  19  -1
M  END
>  <UniqueID>  (9) 
9

>  <SMILES>  (9) 
[NH-]C(=O)c1cc2ccc(C(F)(F)F)cc2n1C(=O)[S-]

>  <Energy>  (9) 
65.99026484856245

>  <Genealogy>  (9) 
[NH-]C(=O)c1cc2ccc(C(F)(F)F)cc2n1C(=O)[S-] (protonated)
[NH-]C(=O)c1cc2ccc(C(F)(F)F)cc2n1C(=O)[S-] (3D coordinates assigned)
[NH-]C(=O)c1cc2ccc(C(F)(F)F)cc2n1C(=O)[S-] (optimized conformer: 65.99026484856245 kcal/mol)

>  <smiles>  (9) 
NC(=O)c1cc2ccc(C(F)(F)F)cc2n1C(=O)S

>  <score_type>  (9) 
oracle

>  <origin>  (9) 
adg

>  <m_score__min__energy>  (9) 
-9.4900000000000002

>  <m_primary>  (9) 
energy

$$$$
9:0
     RDKit          3D

 59 62  0  0  0  0  0  0  0  0999 V2000
   -6.1900   13.2400  -34.4010 C   0  0  0  0  0  0  0  0  0  0  0  0
   -5.2910   14.3350  -34.5530 O   0  0  0  0  0  0  0  0  0  0  0  0
   -5.5840   15.6650  -34.2120 C   0  0  0  0  0  0  0  0  0  0  0  0
   -6.8770   16.0480  -33.8080 C   0  0  0  0  0  0  0  0  0  0  0  0
   -7.1350   17.3530  -33.3910 C   0  0  0  0  0  0  0  0  0  0  0  0
   -6.1030   18.2980  -33.3390 C   0  0  0  0  0  0  0  0  0  0  0  0
   -6.3680   19.6710  -32.8420 C   0  0  0  0  0  0  0  0  0  0  0  0
   -7.6950   20.1650  -32.7800 C   0  0  0  0  0  0  0  0  0  0  0  0
   -7.9570   21.4540  -32.2920 C   0  0  0  0  0  0  0  0  0  0  0  0
   -6.8790   22.2300  -31.8810 C   0  0  0  0  0  0  0  0  0  0  0  0
   -6.8660   23.4940  -31.3470 C   0  0  0  0  0  0  0  0  0  0  0  0
   -5.5290   23.7670  -31.0840 C   0  0  0  0  0  0  0  0  0  0  0  0
   -5.0930   25.0090  -30.4260 C   0  0  0  0  0  0  0  0  0  0  0  0
   -3.8780   25.6450  -30.8190 N   0  0  0  0  0  0  0  0  0  0  0  0
   -5.7460   25.4630  -29.4490 O   0  0  0  0  0  0  0  0  0  0  0  0
   -4.7290   22.7280  -31.4670 N   0  0  0  0  0  0  0  0  0  0  0  0
   -3.2810   22.7070  -31.4980 C   0  0  0  0  0  0  0  0  0  0  0  0
   -2.6200   23.1730  -30.5270 O   0  0  0  0  0  0  0  0  0  0  0  0
   -2.6110   22.1270  -32.5890 O   0  0  0  0  0  0  0  0  0  0  0  0
   -1.6010   21.1080  -32.5220 C   0  0  0  0  0  0  0  0  0  0  0  0
   -1.0020   20.8330  -33.9210 C   0  0  0  0  0  0  0  0  0  0  0  0
   -2.2880   19.8260  -32.0160 C   0  0  0  0  0  0  0  0  0  0  0  0
   -0.4930   21.5120  -31.5240 C   0  0  0  0  0  0  0  0  0  0  0  0
   -5.5810   21.7830  -31.9430 C   0  0  0  0  0  0  0  0  0  0  0  0
   -5.2960   20.4920  -32.4170 C   0  0  0  0  0  0  0  0  0  0  0  0
   -4.8150   17.9270  -33.7570 C   0  0  0  0  0  0  0  0  0  0  0  0
   -4.5540   16.6350  -34.2570 C   0  0  0  0  0  0  0  0  0  0  0  0
   -3.1360   16.2500  -34.6680 C   0  0  0  0  0  0  0  0  0  0  0  0
   -3.1580   15.5210  -35.8750 O   0  0  0  0  0  0  0  0  0  0  0  0
   -2.1220   17.4090  -34.6910 C   0  0  0  0  0  0  0  0  0  0  0  0
   -1.2510   16.6780  -33.6800 C   0  0  0  0  0  0  0  0  0  0  0  0
   -2.2830   15.5640  -33.5810 C   0  0  0  0  0  0  0  0  0  0  0  0
   -6.3511   13.0437  -33.3307 H   0  0  0  0  0  0  0  0  0  0  0  0
   -7.1506   13.4854  -34.8775 H   0  0  0  0  0  0  0  0  0  0  0  0
   -5.7623   12.3456  -34.8775 H   0  0  0  0  0  0  0  0  0  0  0  0
   -7.6924   15.3098  -33.8215 H   0  0  0  0  0  0  0  0  0  0  0  0
   -8.1559   17.6422  -33.1009 H   0  0  0  0  0  0  0  0  0  0  0  0
   -8.5281   19.5312  -33.1180 H   0  0  0  0  0  0  0  0  0  0  0  0
   -8.9857   21.8396  -32.2361 H   0  0  0  0  0  0  0  0  0  0  0  0
   -7.7295   24.1509  -31.1658 H   0  0  0  0  0  0  0  0  0  0  0  0
   -2.9550   25.2990  -30.4730 H   0  0  0  0  0  0  0  0  0  0  0  0
   -0.0074   20.3764  -33.8107 H   0  0  0  0  0  0  0  0  0  0  0  0
   -1.6610   20.1473  -34.4737 H   0  0  0  0  0  0  0  0  0  0  0  0
   -0.9116   21.7798  -34.4737 H   0  0  0  0  0  0  0  0  0  0  0  0
   -2.2906   19.8211  -30.9160 H   0  0  0  0  0  0  0  0  0  0  0  0
   -3.3237   19.7948  -32.3853 H   0  0  0  0  0  0  0  0  0  0  0  0
   -1.7404   18.9464  -32.3853 H   0  0  0  0  0  0  0  0  0  0  0  0
   -0.8594   21.3784  -30.4955 H   0  0  0  0  0  0  0  0  0  0  0  0
    0.3923   20.8788  -31.6830 H   0  0  0  0  0  0  0  0  0  0  0  0
   -0.2230   22.5664  -31.6830 H   0  0  0  0  0  0  0  0  0  0  0  0
   -4.2595   20.1258  -32.4572 H   0  0  0  0  0  0  0  0  0  0  0  0
   -3.9950   18.6574  -33.6932 H   0  0  0  0  0  0  0  0  0  0  0  0
   -3.8490   14.8110  -35.8090 H   0  0  0  0  0  0  0  0  0  0  0  0
   -1.6406   17.5636  -35.6679 H   0  0  0  0  0  0  0  0  0  0  0  0
   -2.4536   18.4392  -34.4942 H   0  0  0  0  0  0  0  0  0  0  0  0
   -0.2787   16.3532  -34.0789 H   0  0  0  0  0  0  0  0  0  0  0  0
   -0.9050   17.1940  -32.7722 H   0  0  0  0  0  0  0  0  0  0  0  0
   -1.9020   14.5731  -33.8691 H   0  0  0  0  0  0  0  0  0  0  0  0
   -2.7273   15.3040  -32.6089 H   0  0  0  0  0  0  0  0  0  0  0  0
  1  2  1  0
  2  3  1  0
  3  4  2  0
  4  5  1  0
  5  6  2  0
  6  7  1  0
  7  8  2  0
  8  9  1  0
  9 10  2  0
 10 11  1  0
 11 12  2  0
 12 13  1  0
 13 14  1  0
 13 15  2  0
 12 16  1  0
 16 17  1  0
 17 18  2  0
 17 19  1  0
 19 20  1  0
 20 21  1  0
 20 22  1  0
 20 23  1  0
 16 24  1  0
 24 25  2  0
  6 26  1  0
 26 27  2  0
 27 28  1  0
 28 29  1  0
 28 30  1  0
 30 31  1  0
 31 32  1  0
 27  3  1  0
 32 28  1  0
 25  7  1  0
 24 10  1  0
  1 33  1  0
  1 34  1  0
  1 35  1  0
  4 36  1  0
  5 37  1  0
  8 38  1  0
  9 39  1  0
 11 40  1  0
 14 41  1  0
 21 42  1  0
 21 43  1  0
 21 44  1  0
 22 45  1  0
 22 46  1  0
 22 47  1  0
 23 48  1  0
 23 49  1  0
 23 50  1  0
 25 51  1  0
 26 52  1  0
 29 53  1  0
 30 54  1  0
 30 55  1  0
 31 56  1  0
 31 57  1  0
 32 58  1  0
 32 59  1  0
M  CHG  1  14  -1
M  END
>  <UniqueID>  (10) 
10

>  <SMILES>  (10) 
COc1ccc(-c2ccc3cc(C([NH-])=O)n(C(=O)OC(C)(C)C)c3c2)cc1C1(O)CCC1

>  <Energy>  (10) 
171.064296320797

>  <Genealogy>  (10) 
COc1ccc(-c2ccc3cc(C([NH-])=O)n(C(=O)OC(C)(C)C)c3c2)cc1C1(O)CCC1 (protonated)
COc1ccc(-c2ccc3cc(C([NH-])=O)n(C(=O)OC(C)(C)C)c3c2)cc1C1(O)CCC1 (3D coordinates assigned)
COc1ccc(-c2ccc3cc(C([NH-])=O)n(C(=O)OC(C)(C)C)c3c2)cc1C1(O)CCC1 (nonaromatic ring conformer: 171.064296320797 kcal/mol)

>  <smiles>  (10) 
COc1ccc(-c2ccc3cc(C(N)=O)n(C(=O)OC(C)(C)C)c3c2)cc1C1(O)CCC1

>  <score_type>  (10) 
oracle

>  <origin>  (10) 
adg

>  <m_score__min__energy>  (10) 
-10.93

>  <m_primary>  (10) 
energy

$$$$
10:0
     RDKit          3D

 32 34  0  0  0  0  0  0  0  0999 V2000
   -3.9780   25.6710  -30.8610 N   0  0  0  0  0  0  0  0  0  0  0  0
   -5.2670   25.1960  -30.4810 C   0  0  0  0  0  0  0  0  0  0  0  0
   -5.9750   25.8880  -29.7020 O   0  0  0  0  0  0  0  0  0  0  0  0
   -5.7380   23.8820  -30.9660 C   0  0  0  0  0  0  0  0  0  0  0  0
   -7.0850   23.5630  -31.1280 C   0  0  0  0  0  0  0  0  0  0  0  0
   -7.0970   22.3020  -31.6820 C   0  0  0  0  0  0  0  0  0  0  0  0
   -8.1690   21.4950  -32.0430 C   0  0  0  0  0  0  0  0  0  0  0  0
   -7.8880   20.2230  -32.5700 C   0  0  0  0  0  0  0  0  0  0  0  0
   -6.5490   19.7770  -32.7200 C   0  0  0  0  0  0  0  0  0  0  0  0
   -6.2630   18.4270  -33.2680 C   0  0  0  0  0  0  0  0  0  0  0  0
   -7.1390   17.3530  -33.0200 C   0  0  0  0  0  0  0  0  0  0  0  0
   -6.8680   16.0830  -33.5370 C   0  0  0  0  0  0  0  0  0  0  0  0
   -5.7220   15.8700  -34.3080 C   0  0  0  0  0  0  0  0  0  0  0  0
   -4.8450   16.9270  -34.5620 C   0  0  0  0  0  0  0  0  0  0  0  0
   -3.7360   16.7210  -35.3140 F   0  0  0  0  0  0  0  0  0  0  0  0
   -5.1120   18.2000  -34.0460 C   0  0  0  0  0  0  0  0  0  0  0  0
   -5.4860   20.6320  -32.3400 C   0  0  0  0  0  0  0  0  0  0  0  0
   -5.7960   21.8990  -31.8340 C   0  0  0  0  0  0  0  0  0  0  0  0
   -4.9490   22.8560  -31.3940 N   0  0  0  0  0  0  0  0  0  0  0  0
   -3.5170   22.7600  -31.3330 C   0  0  0  0  0  0  0  0  0  0  0  0
   -2.8170   23.1750  -30.1610 N   0  0  0  0  0  0  0  0  0  0  0  0
   -2.8730   22.2810  -32.3040 O   0  0  0  0  0  0  0  0  0  0  0  0
   -3.1140   25.2990  -30.4080 H   0  0  0  0  0  0  0  0  0  0  0  0
   -7.9538   24.1858  -30.8686 H   0  0  0  0  0  0  0  0  0  0  0  0
   -9.2058   21.8412  -31.9200 H   0  0  0  0  0  0  0  0  0  0  0  0
   -8.7164   19.5645  -32.8701 H   0  0  0  0  0  0  0  0  0  0  0  0
   -8.0433   17.5146  -32.4149 H   0  0  0  0  0  0  0  0  0  0  0  0
   -7.5578   15.2499  -33.3367 H   0  0  0  0  0  0  0  0  0  0  0  0
   -5.5107   14.8701  -34.7148 H   0  0  0  0  0  0  0  0  0  0  0  0
   -4.4179   19.0287  -34.2496 H   0  0  0  0  0  0  0  0  0  0  0  0
   -4.4399   20.3072  -32.4404 H   0  0  0  0  0  0  0  0  0  0  0  0
   -3.0120   24.1010  -29.7200 H   0  0  0  0  0  0  0  0  0  0  0  0
  1  2  1  0
  2  3  2  0
  2  4  1  0
  4  5  2  0
  5  6  1  0
  6  7  2  0
  7  8  1  0
  8  9  2  0
  9 10  1  0
 10 11  2  0
 11 12  1  0
 12 13  2  0
 13 14  1  0
 14 15  1  0
 14 16  2  0
  9 17  1  0
 17 18  2  0
 18 19  1  0
 19 20  1  0
 20 21  1  0
 20 22  2  0
 19  4  1  0
 18  6  1  0
 16 10  1  0
  1 23  1  0
  5 24  1  0
  7 25  1  0
  8 26  1  0
 11 27  1  0
 12 28  1  0
 13 29  1  0
 16 30  1  0
 17 31  1  0
 21 32  1  0
M  CHG  2   1  -1  21  -1
M  END
>  <UniqueID>  (11) 
11

>  <SMILES>  (11) 
[NH-]C(=O)c1cc2ccc(-c3cccc(F)c3)cc2n1C([NH-])=O

>  <Energy>  (11) 
79.18069636975171

>  <Genealogy>  (11) 
[NH-]C(=O)c1cc2ccc(-c3cccc(F)c3)cc2n1C([NH-])=O (protonated)
[NH-]C(=O)c1cc2ccc(-c3cccc(F)c3)cc2n1C([NH-])=O (3D coordinates assigned)
[NH-]C(=O)c1cc2ccc(-c3cccc(F)c3)cc2n1C([NH-])=O (optimized conformer: 79.18069636975171 kcal/mol)

>  <smiles>  (11) 
NC(=O)c1cc2ccc(-c3cccc(F)c3)cc2n1C(N)=O

>  <score_type>  (11) 
oracle

>  <origin>  (11) 
adg

>  <m_score__min__energy>  (11) 
-11.720000000000001

>  <m_primary>  (11) 
energy

$$$$
11:0
     RDKit          3D

 42 44  0  0  0  0  0  0  0  0999 V2000
   -7.1720   13.7230  -34.6780 C   0  0  0  0  0  0  0  0  0  0  0  0
   -5.8080   13.2100  -34.4740 N   0  0  0  0  0  0  0  0  0  0  0  0
   -5.7020   12.5340  -33.1700 C   0  0  0  0  0  0  0  0  0  0  0  0
   -4.8540   14.2970  -34.5690 C   0  0  0  0  0  0  0  0  0  0  0  0
   -3.7010   14.0760  -35.0340 O   0  0  0  0  0  0  0  0  0  0  0  0
   -5.1840   15.6690  -34.0980 C   0  0  0  0  0  0  0  0  0  0  0  0
   -5.0180   16.7920  -34.9290 C   0  0  0  0  0  0  0  0  0  0  0  0
   -5.3420   18.0720  -34.4670 C   0  0  0  0  0  0  0  0  0  0  0  0
   -5.8420   18.2580  -33.1680 C   0  0  0  0  0  0  0  0  0  0  0  0
   -6.1840   19.6180  -32.6780 C   0  0  0  0  0  0  0  0  0  0  0  0
   -7.5360   20.0520  -32.6520 C   0  0  0  0  0  0  0  0  0  0  0  0
   -7.8710   21.3320  -32.1800 C   0  0  0  0  0  0  0  0  0  0  0  0
   -6.8400   22.1600  -31.7480 C   0  0  0  0  0  0  0  0  0  0  0  0
   -6.8870   23.4300  -31.2230 C   0  0  0  0  0  0  0  0  0  0  0  0
   -5.5630   23.7700  -30.9560 C   0  0  0  0  0  0  0  0  0  0  0  0
   -5.1500   25.0990  -30.4610 C   0  0  0  0  0  0  0  0  0  0  0  0
   -3.9060   25.6730  -30.8520 N   0  0  0  0  0  0  0  0  0  0  0  0
   -5.9280   25.7580  -29.7210 O   0  0  0  0  0  0  0  0  0  0  0  0
   -4.7290   22.7460  -31.2950 N   0  0  0  0  0  0  0  0  0  0  0  0
   -3.3100   22.6650  -31.0880 C   0  0  0  0  0  0  0  0  0  0  0  0
   -2.5780   22.0690  -31.9220 O   0  0  0  0  0  0  0  0  0  0  0  0
   -2.7350   23.2190  -29.9510 O   0  0  0  0  0  0  0  0  0  0  0  0
   -5.5270   21.7680  -31.7810 C   0  0  0  0  0  0  0  0  0  0  0  0
   -5.1650   20.4920  -32.2280 C   0  0  0  0  0  0  0  0  0  0  0  0
   -6.0170   17.1370  -32.3410 C   0  0  0  0  0  0  0  0  0  0  0  0
   -5.6960   15.8570  -32.8030 C   0  0  0  0  0  0  0  0  0  0  0  0
   -7.6465   13.9014  -33.7018 H   0  0  0  0  0  0  0  0  0  0  0  0
   -7.1284   14.6662  -35.2424 H   0  0  0  0  0  0  0  0  0  0  0  0
   -7.7608   12.9849  -35.2424 H   0  0  0  0  0  0  0  0  0  0  0  0
   -5.6080   12.4880  -35.2040 H   0  0  0  0  0  0  0  0  0  0  0  0
   -5.8179   13.2729  -32.3634 H   0  0  0  0  0  0  0  0  0  0  0  0
   -6.4918   11.7729  -33.0863 H   0  0  0  0  0  0  0  0  0  0  0  0
   -4.7172   12.0512  -33.0863 H   0  0  0  0  0  0  0  0  0  0  0  0
   -4.6303   16.6625  -35.9502 H   0  0  0  0  0  0  0  0  0  0  0  0
   -5.2038   18.9408  -35.1273 H   0  0  0  0  0  0  0  0  0  0  0  0
   -8.3301   19.3780  -33.0056 H   0  0  0  0  0  0  0  0  0  0  0  0
   -8.9176   21.6696  -32.1528 H   0  0  0  0  0  0  0  0  0  0  0  0
   -7.7812   24.0470  -31.0504 H   0  0  0  0  0  0  0  0  0  0  0  0
   -3.0030   25.2980  -30.4860 H   0  0  0  0  0  0  0  0  0  0  0  0
   -4.1117   20.1751  -32.2297 H   0  0  0  0  0  0  0  0  0  0  0  0
   -6.4097   17.2667  -31.3217 H   0  0  0  0  0  0  0  0  0  0  0  0
   -5.8459   14.9878  -32.1457 H   0  0  0  0  0  0  0  0  0  0  0  0
  1  2  1  0
  2  3  1  0
  2  4  1  0
  4  5  2  0
  4  6  1  0
  6  7  2  0
  7  8  1  0
  8  9  2  0
  9 10  1  0
 10 11  2  0
 11 12  1  0
 12 13  2  0
 13 14  1  0
 14 15  2  0
 15 16  1  0
 16 17  1  0
 16 18  2  0
 15 19  1  0
 19 20  1  0
 20 21  2  0
 20 22  1  0
 19 23  1  0
 23 24  2  0
  9 25  1  0
 25 26  2  0
 26  6  1  0
 24 10  1  0
 23 13  1  0
  1 27  1  0
  1 28  1  0
  1 29  1  0
  2 30  1  0
  3 31  1  0
  3 32  1  0
  3 33  1  0
  7 34  1  0
  8 35  1  0
 11 36  1  0
 12 37  1  0
 14 38  1  0
 17 39  1  0
 24 40  1  0
 25 41  1  0
 26 42  1  0
M  CHG  3   2   1  17  -1  22  -1
M  END
>  <UniqueID>  (12) 
12

>  <SMILES>  (12) 
C[NH+](C)C(=O)c1ccc(-c2ccc3cc(C([NH-])=O)n(C(=O)[O-])c3c2)cc1

>  <Energy>  (12) 
93.44178420999428

>  <Genealogy>  (12) 
C[NH+](C)C(=O)c1ccc(-c2ccc3cc(C([NH-])=O)n(C(=O)[O-])c3c2)cc1 (protonated)
C[NH+](C)C(=O)c1ccc(-c2ccc3cc(C([NH-])=O)n(C(=O)[O-])c3c2)cc1 (3D coordinates assigned)
C[NH+](C)C(=O)c1ccc(-c2ccc3cc(C([NH-])=O)n(C(=O)[O-])c3c2)cc1 (optimized conformer: 93.44178420999428 kcal/mol)

>  <smiles>  (12) 
CN(C)C(=O)c1ccc(-c2ccc3cc(C(N)=O)n(C(=O)O)c3c2)cc1

>  <score_type>  (12) 
oracle

>  <origin>  (12) 
adg

>  <m_score__min__energy>  (12) 
-10.58

>  <m_primary>  (12) 
energy

$$$$
12:0
     RDKit          3D

 25 26  0  0  0  0  0  0  0  0999 V2000
   -3.8770   25.6510  -30.8480 N   0  0  0  0  0  0  0  0  0  0  0  0
   -5.1960   25.3080  -30.4310 C   0  0  0  0  0  0  0  0  0  0  0  0
   -5.8440   26.1130  -29.7110 O   0  0  0  0  0  0  0  0  0  0  0  0
   -5.8310   24.0480  -30.8740 C   0  0  0  0  0  0  0  0  0  0  0  0
   -7.2070   23.8350  -30.8520 C   0  0  0  0  0  0  0  0  0  0  0  0
   -7.3940   22.5920  -31.4110 C   0  0  0  0  0  0  0  0  0  0  0  0
   -8.5660   21.8720  -31.6200 C   0  0  0  0  0  0  0  0  0  0  0  0
   -8.4590   20.5900  -32.1840 C   0  0  0  0  0  0  0  0  0  0  0  0
   -7.1930   20.0560  -32.5290 C   0  0  0  0  0  0  0  0  0  0  0  0
   -7.0890   18.6660  -33.0840 C   0  0  0  0  0  0  0  0  0  0  0  0
   -6.4120   17.4670  -31.7240 Br  0  0  0  0  0  0  0  0  0  0  0  0
   -6.0230   20.8110  -32.2900 C   0  0  0  0  0  0  0  0  0  0  0  0
   -6.1610   22.0940  -31.7450 C   0  0  0  0  0  0  0  0  0  0  0  0
   -5.1900   22.9740  -31.4190 N   0  0  0  0  0  0  0  0  0  0  0  0
   -3.7730   22.7660  -31.5440 C   0  0  0  0  0  0  0  0  0  0  0  0
   -2.8960   23.1380  -30.4840 N   0  0  0  0  0  0  0  0  0  0  0  0
   -3.2980   22.2670  -32.5980 O   0  0  0  0  0  0  0  0  0  0  0  0
   -3.0420   25.2960  -30.3310 H   0  0  0  0  0  0  0  0  0  0  0  0
   -7.9807   24.5165  -30.4687 H   0  0  0  0  0  0  0  0  0  0  0  0
   -9.5460   22.2936  -31.3519 H   0  0  0  0  0  0  0  0  0  0  0  0
   -9.3672   19.9948  -32.3595 H   0  0  0  0  0  0  0  0  0  0  0  0
   -8.0839   18.3266  -33.4078 H   0  0  0  0  0  0  0  0  0  0  0  0
   -6.4009   18.6678  -33.9422 H   0  0  0  0  0  0  0  0  0  0  0  0
   -5.0295   20.4019  -32.5258 H   0  0  0  0  0  0  0  0  0  0  0  0
   -2.4510   24.0830  -30.4630 H   0  0  0  0  0  0  0  0  0  0  0  0
  1  2  1  0
  2  3  2  0
  2  4  1  0
  4  5  2  0
  5  6  1  0
  6  7  2  0
  7  8  1  0
  8  9  2  0
  9 10  1  0
 10 11  1  0
  9 12  1  0
 12 13  2  0
 13 14  1  0
 14 15  1  0
 15 16  1  0
 15 17  2  0
 14  4  1  0
 13  6  1  0
  1 18  1  0
  5 19  1  0
  7 20  1  0
  8 21  1  0
 10 22  1  0
 10 23  1  0
 12 24  1  0
 16 25  1  0
M  CHG  2   1  -1  16  -1
M  END
>  <UniqueID>  (13) 
13

>  <SMILES>  (13) 
[NH-]C(=O)c1cc2ccc(CBr)cc2n1C([NH-])=O

>  <Energy>  (13) 
63.81693997397093

>  <Genealogy>  (13) 
[NH-]C(=O)c1cc2ccc(CBr)cc2n1C([NH-])=O (protonated)
[NH-]C(=O)c1cc2ccc(CBr)cc2n1C([NH-])=O (3D coordinates assigned)
[NH-]C(=O)c1cc2ccc(CBr)cc2n1C([NH-])=O (optimized conformer: 63.81693997397093 kcal/mol)

>  <smiles>  (13) 
NC(=O)c1cc2ccc(CBr)cc2n1C(N)=O

>  <score_type>  (13) 
oracle

>  <origin>  (13) 
adg

>  <m_score__min__energy>  (13) 
-10.119999999999999

>  <m_primary>  (13) 
energy

$$$$
13:0
     RDKit          3D

 34 36  0  0  0  0  0  0  0  0999 V2000
   -0.8020   19.1380  -34.1930 C   0  0  0  0  0  0  0  0  0  0  0  0
   -1.6250   18.0070  -34.4450 O   0  0  0  0  0  0  0  0  0  0  0  0
   -3.0160   18.0350  -34.2970 C   0  0  0  0  0  0  0  0  0  0  0  0
   -3.6170   19.1350  -33.6840 C   0  0  0  0  0  0  0  0  0  0  0  0
   -5.0150   19.1520  -33.5390 C   0  0  0  0  0  0  0  0  0  0  0  0
   -5.7220   20.2920  -32.9010 C   0  0  0  0  0  0  0  0  0  0  0  0
   -7.1410   20.3040  -32.8620 C   0  0  0  0  0  0  0  0  0  0  0  0
   -7.8370   21.3570  -32.2470 C   0  0  0  0  0  0  0  0  0  0  0  0
   -7.0940   22.3900  -31.6850 C   0  0  0  0  0  0  0  0  0  0  0  0
   -7.5140   23.5050  -30.9970 C   0  0  0  0  0  0  0  0  0  0  0  0
   -6.3490   24.1770  -30.6420 C   0  0  0  0  0  0  0  0  0  0  0  0
   -6.3430   25.4710  -29.9320 C   0  0  0  0  0  0  0  0  0  0  0  0
   -5.4860   26.5370  -30.3430 N   0  0  0  0  0  0  0  0  0  0  0  0
   -7.1500   25.6590  -28.9820 O   0  0  0  0  0  0  0  0  0  0  0  0
   -5.2490   23.5000  -31.0780 N   0  0  0  0  0  0  0  0  0  0  0  0
   -3.8700   23.8100  -30.8140 C   0  0  0  0  0  0  0  0  0  0  0  0
   -2.9920   22.9100  -30.8810 O   0  0  0  0  0  0  0  0  0  0  0  0
   -3.4900   25.1040  -30.4830 O   0  0  0  0  0  0  0  0  0  0  0  0
   -5.7240   22.4070  -31.7210 C   0  0  0  0  0  0  0  0  0  0  0  0
   -5.0030   21.3580  -32.3040 C   0  0  0  0  0  0  0  0  0  0  0  0
   -5.7380   18.0990  -34.0140 N   0  0  0  0  0  0  0  0  0  0  0  0
   -5.1360   17.0370  -34.6070 C   0  0  0  0  0  0  0  0  0  0  0  0
   -3.7860   17.0080  -34.7440 N   0  0  0  0  0  0  0  0  0  0  0  0
   -0.6979   19.2811  -33.1073 H   0  0  0  0  0  0  0  0  0  0  0  0
    0.1906   18.9757  -34.6383 H   0  0  0  0  0  0  0  0  0  0  0  0
   -1.2618   20.0326  -34.6383 H   0  0  0  0  0  0  0  0  0  0  0  0
   -3.0069   19.9749  -33.3203 H   0  0  0  0  0  0  0  0  0  0  0  0
   -7.7031   19.4768  -33.3200 H   0  0  0  0  0  0  0  0  0  0  0  0
   -8.9364   21.3648  -32.2107 H   0  0  0  0  0  0  0  0  0  0  0  0
   -8.5497   23.8016  -30.7751 H   0  0  0  0  0  0  0  0  0  0  0  0
   -4.9330   26.4740  -31.2260 H   0  0  0  0  0  0  0  0  0  0  0  0
   -5.4680   27.4310  -29.8050 H   0  0  0  0  0  0  0  0  0  0  0  0
   -3.9030   21.3609  -32.2989 H   0  0  0  0  0  0  0  0  0  0  0  0
   -5.7434   16.1980  -34.9773 H   0  0  0  0  0  0  0  0  0  0  0  0
  1  2  1  0
  2  3  1  0
  3  4  2  0
  4  5  1  0
  5  6  1  0
  6  7  2  0
  7  8  1  0
  8  9  2  0
  9 10  1  0
 10 11  2  0
 11 12  1  0
 12 13  1  0
 12 14  2  0
 11 15  1  0
 15 16  1  0
 16 17  2  0
 16 18  1  0
 15 19  1  0
 19 20  2  0
  5 21  2  0
 21 22  1  0
 22 23  2  0
 23  3  1  0
 20  6  1  0
 19  9  1  0
  1 24  1  0
  1 25  1  0
  1 26  1  0
  4 27  1  0
  7 28  1  0
  8 29  1  0
 10 30  1  0
 13 31  1  0
 13 32  1  0
 20 33  1  0
 22 34  1  0
M  CHG  1  18  -1
M  END
>  <UniqueID>  (14) 
14

>  <SMILES>  (14) 
COc1cc(-c2ccc3cc(C(N)=O)n(C(=O)[O-])c3c2)ncn1

>  <Energy>  (14) 
79.80500591063684

>  <Genealogy>  (14) 
COc1cc(-c2ccc3cc(C(N)=O)n(C(=O)[O-])c3c2)ncn1 (protonated)
COc1cc(-c2ccc3cc(C(N)=O)n(C(=O)[O-])c3c2)ncn1 (3D coordinates assigned)
COc1cc(-c2ccc3cc(C(N)=O)n(C(=O)[O-])c3c2)ncn1 (optimized conformer: 79.80500591063684 kcal/mol)

>  <smiles>  (14) 
COc1cc(-c2ccc3cc(C(N)=O)n(C(=O)O)c3c2)ncn1

>  <score_type>  (14) 
oracle

>  <origin>  (14) 
adg

>  <m_score__min__energy>  (14) 
-9

>  <m_primary>  (14) 
energy

$$$$
14:0
     RDKit          3D

 60 64  0  0  0  0  0  0  0  0999 V2000
   -3.0590   22.8560  -27.5170 C   0  0  0  0  0  0  0  0  0  0  0  0
   -2.5500   21.6440  -28.3220 C   0  0  0  0  0  0  0  0  0  0  0  0
   -1.0430   21.7770  -28.6190 C   0  0  0  0  0  0  0  0  0  0  0  0
   -2.7860   20.3690  -27.4990 C   0  0  0  0  0  0  0  0  0  0  0  0
   -3.2930   21.5010  -29.5420 O   0  0  0  0  0  0  0  0  0  0  0  0
   -3.5700   22.5130  -30.4740 C   0  0  0  0  0  0  0  0  0  0  0  0
   -2.6530   23.2640  -30.9060 O   0  0  0  0  0  0  0  0  0  0  0  0
   -4.9210   22.7110  -30.9170 N   0  0  0  0  0  0  0  0  0  0  0  0
   -5.7100   23.8090  -30.7400 C   0  0  0  0  0  0  0  0  0  0  0  0
   -5.2800   25.1090  -30.1830 C   0  0  0  0  0  0  0  0  0  0  0  0
   -4.0190   25.6760  -30.5320 N   0  0  0  0  0  0  0  0  0  0  0  0
   -6.0580   25.7500  -29.4290 O   0  0  0  0  0  0  0  0  0  0  0  0
   -6.9890   23.5780  -31.2410 C   0  0  0  0  0  0  0  0  0  0  0  0
   -6.9580   22.2980  -31.7460 C   0  0  0  0  0  0  0  0  0  0  0  0
   -7.9570   21.5540  -32.3660 C   0  0  0  0  0  0  0  0  0  0  0  0
   -7.6510   20.2430  -32.7690 C   0  0  0  0  0  0  0  0  0  0  0  0
   -6.3620   19.6940  -32.5390 C   0  0  0  0  0  0  0  0  0  0  0  0
   -6.0510   18.3060  -32.9580 C   0  0  0  0  0  0  0  0  0  0  0  0
   -7.0930   17.4240  -33.3550 C   0  0  0  0  0  0  0  0  0  0  0  0
   -6.8100   16.1040  -33.7440 C   0  0  0  0  0  0  0  0  0  0  0  0
   -5.4820   15.6910  -33.7260 C   0  0  0  0  0  0  0  0  0  0  0  0
   -4.9990   14.4830  -34.0590 N   0  0  0  0  0  0  0  0  0  0  0  0
   -3.6600   14.6150  -33.8680 C   0  0  0  0  0  0  0  0  0  0  0  0
   -2.7300   13.4980  -34.1320 C   0  0  0  0  0  0  0  0  0  0  0  0
   -2.8840   12.5530  -35.1300 C   0  0  0  0  0  0  0  0  0  0  0  0
   -1.8040   11.7030  -35.0180 C   0  0  0  0  0  0  0  0  0  0  0  0
   -1.0560   12.1890  -33.9680 C   0  0  0  0  0  0  0  0  0  0  0  0
    0.4460   11.5040  -33.3830 Cl  0  0  0  0  0  0  0  0  0  0  0  0
   -1.6280   13.2550  -33.4580 O   0  0  0  0  0  0  0  0  0  0  0  0
   -3.3040   15.8570  -33.4230 N   0  0  0  0  0  0  0  0  0  0  0  0
   -1.9670   16.3870  -33.1310 C   0  0  0  0  0  0  0  0  0  0  0  0
   -1.3500   17.0360  -34.3700 C   0  0  0  0  0  0  0  0  0  0  0  0
   -1.7220   16.3490  -35.5110 F   0  0  0  0  0  0  0  0  0  0  0  0
   -1.7700   18.3470  -34.4780 F   0  0  0  0  0  0  0  0  0  0  0  0
    0.0270   17.0160  -34.2650 F   0  0  0  0  0  0  0  0  0  0  0  0
   -4.4720   16.5230  -33.3480 C   0  0  0  0  0  0  0  0  0  0  0  0
   -4.7130   17.8440  -32.9590 C   0  0  0  0  0  0  0  0  0  0  0  0
   -5.3750   20.4840  -31.9050 C   0  0  0  0  0  0  0  0  0  0  0  0
   -5.7010   21.7950  -31.5350 C   0  0  0  0  0  0  0  0  0  0  0  0
   -2.9704   22.6449  -26.4411 H   0  0  0  0  0  0  0  0  0  0  0  0
   -2.4569   23.7418  -27.7677 H   0  0  0  0  0  0  0  0  0  0  0  0
   -4.1130   23.0462  -27.7677 H   0  0  0  0  0  0  0  0  0  0  0  0
   -0.4856   21.8262  -27.6720 H   0  0  0  0  0  0  0  0  0  0  0  0
   -0.7051   20.9052  -29.1985 H   0  0  0  0  0  0  0  0  0  0  0  0
   -0.8631   22.6945  -29.1985 H   0  0  0  0  0  0  0  0  0  0  0  0
   -2.7412   20.6111  -26.4269 H   0  0  0  0  0  0  0  0  0  0  0  0
   -3.7761   19.9548  -27.7403 H   0  0  0  0  0  0  0  0  0  0  0  0
   -2.0098   19.6279  -27.7403 H   0  0  0  0  0  0  0  0  0  0  0  0
   -3.2400   25.0800  -30.8920 H   0  0  0  0  0  0  0  0  0  0  0  0
   -7.8428   24.2715  -31.2344 H   0  0  0  0  0  0  0  0  0  0  0  0
   -8.9570   21.9796  -32.5357 H   0  0  0  0  0  0  0  0  0  0  0  0
   -8.4194   19.6348  -33.2687 H   0  0  0  0  0  0  0  0  0  0  0  0
   -8.1339   17.7796  -33.3576 H   0  0  0  0  0  0  0  0  0  0  0  0
   -7.6132   15.4189  -34.0530 H   0  0  0  0  0  0  0  0  0  0  0  0
   -3.7014   12.4919  -35.8636 H   0  0  0  0  0  0  0  0  0  0  0  0
   -1.5853   10.8209  -35.6377 H   0  0  0  0  0  0  0  0  0  0  0  0
   -2.0453   17.1395  -32.3325 H   0  0  0  0  0  0  0  0  0  0  0  0
   -1.3221   15.5538  -32.8150 H   0  0  0  0  0  0  0  0  0  0  0  0
   -3.8861   18.5058  -32.6620 H   0  0  0  0  0  0  0  0  0  0  0  0
   -4.3723   20.0774  -31.7066 H   0  0  0  0  0  0  0  0  0  0  0  0
  1  2  1  0
  2  3  1  0
  2  4  1  0
  2  5  1  0
  5  6  1  0
  6  7  2  0
  6  8  1  0
  8  9  1  0
  9 10  1  0
 10 11  1  0
 10 12  2  0
  9 13  2  0
 13 14  1  0
 14 15  2  0
 15 16  1  0
 16 17  2  0
 17 18  1  0
 18 19  2  0
 19 20  1  0
 20 21  2  0
 21 22  1  0
 22 23  2  0
 23 24  1  0
 24 25  2  0
 25 26  1  0
 26 27  2  0
 27 28  1  0
 27 29  1  0
 23 30  1  0
 30 31  1  0
 31 32  1  0
 32 33  1  0
 32 34  1  0
 32 35  1  0
 30 36  1  0
 36 37  2  0
 17 38  1  0
 38 39  2  0
 39  8  1  0
 39 14  1  0
 37 18  1  0
 36 21  1  0
 29 24  1  0
  1 40  1  0
  1 41  1  0
  1 42  1  0
  3 43  1  0
  3 44  1  0
  3 45  1  0
  4 46  1  0
  4 47  1  0
  4 48  1  0
 11 49  1  0
 13 50  1  0
 15 51  1  0
 16 52  1  0
 19 53  1  0
 20 54  1  0
 25 55  1  0
 26 56  1  0
 31 57  1  0
 31 58  1  0
 37 59  1  0
 38 60  1  0
M  CHG  1  11  -1
M  END
>  <UniqueID>  (15) 
15

>  <SMILES>  (15) 
CC(C)(C)OC(=O)n1c(C([NH-])=O)cc2ccc(-c3ccc4nc(-c5ccc(Cl)o5)n(CC(F)(F)F)c4c3)cc21

>  <Energy>  (15) 
166.75763371060577

>  <Genealogy>  (15) 
CC(C)(C)OC(=O)n1c(C([NH-])=O)cc2ccc(-c3ccc4nc(-c5ccc(Cl)o5)n(CC(F)(F)F)c4c3)cc21 (protonated)
CC(C)(C)OC(=O)n1c(C([NH-])=O)cc2ccc(-c3ccc4nc(-c5ccc(Cl)o5)n(CC(F)(F)F)c4c3)cc21 (3D coordinates assigned)
CC(C)(C)OC(=O)n1c(C([NH-])=O)cc2ccc(-c3ccc4nc(-c5ccc(Cl)o5)n(CC(F)(F)F)c4c3)cc21 (optimized conformer: 166.75763371060577 kcal/mol)

>  <smiles>  (15) 
CC(C)(C)OC(=O)n1c(C(N)=O)cc2ccc(-c3ccc4nc(-c5ccc(Cl)o5)n(CC(F)(F)F)c4c3)cc21

>  <score_type>  (15) 
oracle

>  <origin>  (15) 
adg

>  <m_score__min__energy>  (15) 
-11.23

>  <m_primary>  (15) 
energy

$$$$
15:0
     RDKit          3D

 32 34  0  0  0  0  0  0  0  0999 V2000
   -3.8620   25.6720  -30.8860 N   0  0  0  0  0  0  0  0  0  0  0  0
   -5.1420   25.1410  -30.5560 C   0  0  0  0  0  0  0  0  0  0  0  0
   -5.8620   25.7480  -29.7180 O   0  0  0  0  0  0  0  0  0  0  0  0
   -5.6130   23.8680  -31.1390 C   0  0  0  0  0  0  0  0  0  0  0  0
   -6.9570   23.5850  -31.3770 C   0  0  0  0  0  0  0  0  0  0  0  0
   -6.9800   22.2880  -31.8390 C   0  0  0  0  0  0  0  0  0  0  0  0
   -8.0550   21.5040  -32.2440 C   0  0  0  0  0  0  0  0  0  0  0  0
   -7.7850   20.2070  -32.7100 C   0  0  0  0  0  0  0  0  0  0  0  0
   -6.4530   19.7190  -32.7680 C   0  0  0  0  0  0  0  0  0  0  0  0
   -6.1760   18.3570  -33.2820 C   0  0  0  0  0  0  0  0  0  0  0  0
   -7.0890   17.3140  -33.0390 C   0  0  0  0  0  0  0  0  0  0  0  0
   -6.8360   16.0240  -33.5140 C   0  0  0  0  0  0  0  0  0  0  0  0
   -5.6720   15.7610  -34.2380 C   0  0  0  0  0  0  0  0  0  0  0  0
   -5.4290   14.5090  -34.7000 F   0  0  0  0  0  0  0  0  0  0  0  0
   -4.7600   16.7880  -34.4930 C   0  0  0  0  0  0  0  0  0  0  0  0
   -5.0070   18.0820  -34.0200 C   0  0  0  0  0  0  0  0  0  0  0  0
   -4.1220   19.0680  -34.3150 F   0  0  0  0  0  0  0  0  0  0  0  0
   -5.3890   20.5510  -32.3530 C   0  0  0  0  0  0  0  0  0  0  0  0
   -5.6890   21.8320  -31.8750 C   0  0  0  0  0  0  0  0  0  0  0  0
   -4.8360   22.7900  -31.4480 N   0  0  0  0  0  0  0  0  0  0  0  0
   -3.4020   22.7040  -31.4230 C   0  0  0  0  0  0  0  0  0  0  0  0
   -2.6710   23.2210  -30.3140 N   0  0  0  0  0  0  0  0  0  0  0  0
   -2.7840   22.1600  -32.3760 O   0  0  0  0  0  0  0  0  0  0  0  0
   -2.9940   25.2970  -30.4440 H   0  0  0  0  0  0  0  0  0  0  0  0
   -7.8164   24.2552  -31.2276 H   0  0  0  0  0  0  0  0  0  0  0  0
   -9.0849   21.8880  -32.2007 H   0  0  0  0  0  0  0  0  0  0  0  0
   -8.6150   19.5618  -33.0338 H   0  0  0  0  0  0  0  0  0  0  0  0
   -8.0090   17.5155  -32.4707 H   0  0  0  0  0  0  0  0  0  0  0  0
   -7.5550   15.2152  -33.3170 H   0  0  0  0  0  0  0  0  0  0  0  0
   -3.8452   16.5792  -35.0671 H   0  0  0  0  0  0  0  0  0  0  0  0
   -4.3478   20.1998  -32.4044 H   0  0  0  0  0  0  0  0  0  0  0  0
   -2.3470   24.2130  -30.3010 H   0  0  0  0  0  0  0  0  0  0  0  0
  1  2  1  0
  2  3  2  0
  2  4  1  0
  4  5  2  0
  5  6  1  0
  6  7  2  0
  7  8  1  0
  8  9  2  0
  9 10  1  0
 10 11  2  0
 11 12  1  0
 12 13  2  0
 13 14  1  0
 13 15  1  0
 15 16  2  0
 16 17  1  0
  9 18  1  0
 18 19  2  0
 19 20  1  0
 20 21  1  0
 21 22  1  0
 21 23  2  0
 20  4  1  0
 19  6  1  0
 16 10  1  0
  1 24  1  0
  5 25  1  0
  7 26  1  0
  8 27  1  0
 11 28  1  0
 12 29  1  0
 15 30  1  0
 18 31  1  0
 22 32  1  0
M  CHG  2   1  -1  22  -1
M  END
>  <UniqueID>  (16) 
16

>  <SMILES>  (16) 
[NH-]C(=O)c1cc2ccc(-c3ccc(F)cc3F)cc2n1C([NH-])=O

>  <Energy>  (16) 
80.62541433779786

>  <Genealogy>  (16) 
[NH-]C(=O)c1cc2ccc(-c3ccc(F)cc3F)cc2n1C([NH-])=O (protonated)
[NH-]C(=O)c1cc2ccc(-c3ccc(F)cc3F)cc2n1C([NH-])=O (3D coordinates assigned)
[NH-]C(=O)c1cc2ccc(-c3ccc(F)cc3F)cc2n1C([NH-])=O (optimized conformer: 80.62541433779786 kcal/mol)

>  <smiles>  (16) 
NC(=O)c1cc2ccc(-c3ccc(F)cc3F)cc2n1C(N)=O

>  <score_type>  (16) 
oracle

>  <origin>  (16) 
adg

>  <m_score__min__energy>  (16) 
-10.83

>  <m_primary>  (16) 
energy

$$$$
16:0
     RDKit          3D

 28 30  0  0  0  0  0  0  0  0999 V2000
   -3.9110   25.6600  -30.8310 N   0  0  0  0  0  0  0  0  0  0  0  0
   -5.1410   25.0890  -30.3910 C   0  0  0  0  0  0  0  0  0  0  0  0
   -5.8110   25.6770  -29.5030 O   0  0  0  0  0  0  0  0  0  0  0  0
   -5.6340   23.8400  -31.0090 C   0  0  0  0  0  0  0  0  0  0  0  0
   -6.9870   23.5580  -31.1920 C   0  0  0  0  0  0  0  0  0  0  0  0
   -7.0270   22.2830  -31.7060 C   0  0  0  0  0  0  0  0  0  0  0  0
   -8.1150   21.5060  -32.0860 C   0  0  0  0  0  0  0  0  0  0  0  0
   -7.8650   20.2300  -32.6150 C   0  0  0  0  0  0  0  0  0  0  0  0
   -6.5350   19.7500  -32.7640 C   0  0  0  0  0  0  0  0  0  0  0  0
   -6.2700   18.4050  -33.3360 C   0  0  0  0  0  0  0  0  0  0  0  0
   -5.2330   18.0530  -34.2050 C   0  0  0  0  0  0  0  0  0  0  0  0
   -5.2440   16.7020  -34.5760 C   0  0  0  0  0  0  0  0  0  0  0  0
   -6.2820   15.9850  -34.0060 C   0  0  0  0  0  0  0  0  0  0  0  0
   -6.6390   14.1310  -34.2680 Br  0  0  0  0  0  0  0  0  0  0  0  0
   -7.1900   17.0180  -33.0450 S   0  0  0  0  0  0  0  0  0  0  0  0
   -5.4560   20.5770  -32.3670 C   0  0  0  0  0  0  0  0  0  0  0  0
   -5.7370   21.8360  -31.8250 C   0  0  0  0  0  0  0  0  0  0  0  0
   -4.8680   22.7820  -31.4040 N   0  0  0  0  0  0  0  0  0  0  0  0
   -3.4340   22.6950  -31.4330 C   0  0  0  0  0  0  0  0  0  0  0  0
   -2.7470   23.1630  -30.4880 O   0  0  0  0  0  0  0  0  0  0  0  0
   -2.7890   22.1160  -32.5190 O   0  0  0  0  0  0  0  0  0  0  0  0
   -2.9960   25.3000  -30.4810 H   0  0  0  0  0  0  0  0  0  0  0  0
   -7.8410   24.2155  -30.9720 H   0  0  0  0  0  0  0  0  0  0  0  0
   -9.1433   21.8805  -31.9753 H   0  0  0  0  0  0  0  0  0  0  0  0
   -8.7091   19.5932  -32.9182 H   0  0  0  0  0  0  0  0  0  0  0  0
   -4.4793   18.7694  -34.5638 H   0  0  0  0  0  0  0  0  0  0  0  0
   -4.5013   16.2552  -35.2533 H   0  0  0  0  0  0  0  0  0  0  0  0
   -4.4166   20.2360  -32.4826 H   0  0  0  0  0  0  0  0  0  0  0  0
  1  2  1  0
  2  3  2  0
  2  4  1  0
  4  5  2  0
  5  6  1  0
  6  7  2  0
  7  8  1  0
  8  9  2  0
  9 10  1  0
 10 11  2  0
 11 12  1  0
 12 13  2  0
 13 14  1  0
 13 15  1  0
  9 16  1  0
 16 17  2  0
 17 18  1  0
 18 19  1  0
 19 20  2  0
 19 21  1  0
 18  4  1  0
 17  6  1  0
 15 10  1  0
  1 22  1  0
  5 23  1  0
  7 24  1  0
  8 25  1  0
 11 26  1  0
 12 27  1  0
 16 28  1  0
M  CHG  2   1  -1  21  -1
M  END
>  <UniqueID>  (17) 
17

>  <SMILES>  (17) 
[NH-]C(=O)c1cc2ccc(-c3ccc(Br)s3)cc2n1C(=O)[O-]

>  <Energy>  (17) 
98.86335932271234

>  <Genealogy>  (17) 
[NH-]C(=O)c1cc2ccc(-c3ccc(Br)s3)cc2n1C(=O)[O-] (protonated)
[NH-]C(=O)c1cc2ccc(-c3ccc(Br)s3)cc2n1C(=O)[O-] (3D coordinates assigned)
[NH-]C(=O)c1cc2ccc(-c3ccc(Br)s3)cc2n1C(=O)[O-] (optimized conformer: 98.86335932271234 kcal/mol)

>  <smiles>  (17) 
NC(=O)c1cc2ccc(-c3ccc(Br)s3)cc2n1C(=O)O

>  <score_type>  (17) 
oracle

>  <origin>  (17) 
adg

>  <m_score__min__energy>  (17) 
-11.18

>  <m_primary>  (17) 
energy

$$$$
18:0
     RDKit          3D

 25 26  0  0  0  0  0  0  0  0999 V2000
   -6.8920   20.3430  -33.4110 C   0  0  0  0  0  0  0  0  0  0  0  0
   -5.5940   20.6660  -32.7310 C   0  0  0  0  0  0  0  0  0  0  0  0
   -4.4720   19.8190  -32.9050 C   0  0  0  0  0  0  0  0  0  0  0  0
   -3.2380   20.1360  -32.3130 C   0  0  0  0  0  0  0  0  0  0  0  0
   -3.1570   21.3030  -31.5600 C   0  0  0  0  0  0  0  0  0  0  0  0
   -2.0820   21.8620  -30.9050 C   0  0  0  0  0  0  0  0  0  0  0  0
   -2.5680   23.0360  -30.3340 C   0  0  0  0  0  0  0  0  0  0  0  0
   -1.7590   23.9060  -29.4570 C   0  0  0  0  0  0  0  0  0  0  0  0
   -2.0460   25.2980  -29.3380 N   0  0  0  0  0  0  0  0  0  0  0  0
   -0.8330   23.4060  -28.7630 O   0  0  0  0  0  0  0  0  0  0  0  0
   -3.8880   23.2040  -30.6330 N   0  0  0  0  0  0  0  0  0  0  0  0
   -4.7260   24.3270  -30.3190 C   0  0  0  0  0  0  0  0  0  0  0  0
   -4.4580   25.6070  -30.8880 N   0  0  0  0  0  0  0  0  0  0  0  0
   -5.7230   24.1800  -29.5620 O   0  0  0  0  0  0  0  0  0  0  0  0
   -4.2340   22.1330  -31.3800 C   0  0  0  0  0  0  0  0  0  0  0  0
   -5.4700   21.8500  -31.9740 C   0  0  0  0  0  0  0  0  0  0  0  0
   -7.6653   20.1506  -32.6527 H   0  0  0  0  0  0  0  0  0  0  0  0
   -7.1980   21.1924  -34.0394 H   0  0  0  0  0  0  0  0  0  0  0  0
   -6.7643   19.4493  -34.0394 H   0  0  0  0  0  0  0  0  0  0  0  0
   -4.5678   18.9048  -33.5091 H   0  0  0  0  0  0  0  0  0  0  0  0
   -2.3630   19.4818  -32.4409 H   0  0  0  0  0  0  0  0  0  0  0  0
   -1.0576   21.4657  -30.8455 H   0  0  0  0  0  0  0  0  0  0  0  0
   -3.0300   25.6440  -29.3280 H   0  0  0  0  0  0  0  0  0  0  0  0
   -3.5010   26.0240  -30.8440 H   0  0  0  0  0  0  0  0  0  0  0  0
   -6.3231   22.5339  -31.8534 H   0  0  0  0  0  0  0  0  0  0  0  0
  1  2  1  0
  2  3  2  0
  3  4  1  0
  4  5  2  0
  5  6  1  0
  6  7  2  0
  7  8  1  0
  8  9  1  0
  8 10  2  0
  7 11  1  0
 11 12  1  0
 12 13  1  0
 12 14  2  0
 11 15  1  0
 15 16  2  0
 16  2  1  0
 15  5  1  0
  1 17  1  0
  1 18  1  0
  1 19  1  0
  3 20  1  0
  4 21  1  0
  6 22  1  0
  9 23  1  0
 13 24  1  0
 16 25  1  0
M  CHG  2   9  -1  13  -1
M  END
>  <UniqueID>  (18) 
18

>  <SMILES>  (18) 
Cc1ccc2cc(C([NH-])=O)n(C([NH-])=O)c2c1

>  <Energy>  (18) 
64.26789689174275

>  <Genealogy>  (18) 
Cc1ccc2cc(C([NH-])=O)n(C([NH-])=O)c2c1 (protonated)
Cc1ccc2cc(C([NH-])=O)n(C([NH-])=O)c2c1 (3D coordinates assigned)
Cc1ccc2cc(C([NH-])=O)n(C([NH-])=O)c2c1 (optimized conformer: 64.26789689174275 kcal/mol)

>  <smiles>  (18) 
Cc1ccc2cc(C(N)=O)n(C(N)=O)c2c1

>  <score_type>  (18) 
oracle

>  <origin>  (18) 
adg

>  <m_score__min__energy>  (18) 
-9.3900000000000006

>  <m_primary>  (18) 
energy

$$$$
19:0
     RDKit          3D

 44 46  0  0  0  0  0  0  0  0999 V2000
   -1.2090   18.9670  -34.5720 C   0  0  0  0  0  0  0  0  0  0  0  0
   -2.5220   18.5160  -33.8870 C   0  0  0  0  0  0  0  0  0  0  0  0
   -3.3320   17.6820  -34.9150 C   0  0  0  0  0  0  0  0  0  0  0  0
   -2.1810   17.7150  -32.7770 O   0  0  0  0  0  0  0  0  0  0  0  0
   -3.3060   19.7830  -33.3680 C   0  0  1  0  0  0  0  0  0  0  0  0
   -4.7670   19.4970  -33.0400 C   0  0  0  0  0  0  0  0  0  0  0  0
   -5.1160   18.3300  -32.3320 C   0  0  0  0  0  0  0  0  0  0  0  0
   -6.4500   18.0640  -32.0140 C   0  0  0  0  0  0  0  0  0  0  0  0
   -7.4560   18.9560  -32.3980 C   0  0  0  0  0  0  0  0  0  0  0  0
   -9.1300   18.6170  -31.9980 Cl  0  0  0  0  0  0  0  0  0  0  0  0
   -7.1240   20.1170  -33.1010 C   0  0  0  0  0  0  0  0  0  0  0  0
   -5.7900   20.3890  -33.4200 C   0  0  0  0  0  0  0  0  0  0  0  0
   -2.6580   20.6010  -32.2450 C   0  0  0  0  0  0  0  0  0  0  0  0
   -1.4380   20.1220  -31.6960 C   0  0  0  0  0  0  0  0  0  0  0  0
   -0.7610   20.8320  -30.6930 C   0  0  0  0  0  0  0  0  0  0  0  0
   -1.3110   22.0320  -30.2610 C   0  0  0  0  0  0  0  0  0  0  0  0
   -0.8750   22.9060  -29.2920 C   0  0  0  0  0  0  0  0  0  0  0  0
   -1.8130   23.9370  -29.2760 C   0  0  0  0  0  0  0  0  0  0  0  0
   -1.6810   25.1420  -28.4320 C   0  0  0  0  0  0  0  0  0  0  0  0
   -1.2220   26.3750  -28.9820 N   0  0  0  0  0  0  0  0  0  0  0  0
   -1.9320   25.0690  -27.1990 O   0  0  0  0  0  0  0  0  0  0  0  0
   -2.7960   23.7030  -30.1930 N   0  0  0  0  0  0  0  0  0  0  0  0
   -3.9860   24.4780  -30.4170 C   0  0  0  0  0  0  0  0  0  0  0  0
   -3.9050   25.6610  -30.8420 O   0  0  0  0  0  0  0  0  0  0  0  0
   -5.2390   23.9200  -30.1930 O   0  0  0  0  0  0  0  0  0  0  0  0
   -2.4720   22.5340  -30.7890 C   0  0  0  0  0  0  0  0  0  0  0  0
   -3.1790   21.8360  -31.7750 C   0  0  0  0  0  0  0  0  0  0  0  0
   -0.4640   19.2229  -33.8042 H   0  0  0  0  0  0  0  0  0  0  0  0
   -0.8232   18.1498  -35.1993 H   0  0  0  0  0  0  0  0  0  0  0  0
   -1.4068   19.8487  -35.1993 H   0  0  0  0  0  0  0  0  0  0  0  0
   -4.0020   16.9921  -34.3809 H   0  0  0  0  0  0  0  0  0  0  0  0
   -3.9284   18.3571  -35.5464 H   0  0  0  0  0  0  0  0  0  0  0  0
   -2.6398   17.1056  -35.5464 H   0  0  0  0  0  0  0  0  0  0  0  0
   -2.8980   17.0410  -32.6420 H   0  0  0  0  0  0  0  0  0  0  0  0
   -3.2506   20.4357  -34.2517 H   0  0  0  0  0  0  0  0  0  0  0  0
   -4.3312   17.6221  -32.0270 H   0  0  0  0  0  0  0  0  0  0  0  0
   -6.7098   17.1500  -31.4598 H   0  0  0  0  0  0  0  0  0  0  0  0
   -7.9145   20.8192  -33.4044 H   0  0  0  0  0  0  0  0  0  0  0  0
   -5.5370   21.3063  -33.9718 H   0  0  0  0  0  0  0  0  0  0  0  0
   -1.0159   19.1755  -32.0648 H   0  0  0  0  0  0  0  0  0  0  0  0
    0.1763   20.4501  -30.2621 H   0  0  0  0  0  0  0  0  0  0  0  0
    0.0228   22.8113  -28.6636 H   0  0  0  0  0  0  0  0  0  0  0  0
   -0.8780   26.4260  -29.9670 H   0  0  0  0  0  0  0  0  0  0  0  0
   -4.1207   22.2365  -32.1784 H   0  0  0  0  0  0  0  0  0  0  0  0
  1  2  1  0
  2  3  1  0
  2  4  1  0
  2  5  1  0
  5  6  1  0
  6  7  2  0
  7  8  1  0
  8  9  2  0
  9 10  1  0
  9 11  1  0
 11 12  2  0
  5 13  1  0
 13 14  2  0
 14 15  1  0
 15 16  2  0
 16 17  1  0
 17 18  2  0
 18 19  1  0
 19 20  1  0
 19 21  2  0
 18 22  1  0
 22 23  1  0
 23 24  2  0
 23 25  1  0
 22 26  1  0
 26 27  2  0
 12  6  1  0
 27 13  1  0
 26 16  1  0
  1 28  1  0
  1 29  1  0
  1 30  1  0
  3 31  1  0
  3 32  1  0
  3 33  1  0
  4 34  1  0
  5 35  1  6
  7 36  1  0
  8 37  1  0
 11 38  1  0
 12 39  1  0
 14 40  1  0
 15 41  1  0
 17 42  1  0
 20 43  1  0
 27 44  1  0
M  CHG  2  20  -1  25  -1
M  END
>  <UniqueID>  (19) 
19

>  <SMILES>  (19) 
CC(C)(O)[C@@H](c1ccc(Cl)cc1)c1ccc2cc(C([NH-])=O)n(C(=O)[O-])c2c1

>  <Energy>  (19) 
93.96022612645865

>  <Genealogy>  (19) 
CC(C)(O)C(c1ccc(Cl)cc1)c1ccc2cc(C([NH-])=O)n(C(=O)[O-])c2c1 (protonated)
CC(C)(O)[C@@H](c1ccc(Cl)cc1)c1ccc2cc(C([NH-])=O)n(C(=O)[O-])c2c1 (chirality)
CC(C)(O)[C@@H](c1ccc(Cl)cc1)c1ccc2cc(C([NH-])=O)n(C(=O)[O-])c2c1 (3D coordinates assigned)
CC(C)(O)[C@@H](c1ccc(Cl)cc1)c1ccc2cc(C([NH-])=O)n(C(=O)[O-])c2c1 (optimized conformer: 93.96022612645865 kcal/mol)

>  <smiles>  (19) 
CC(C)(O)C(c1ccc(Cl)cc1)c1ccc2cc(C(N)=O)n(C(=O)O)c2c1

>  <score_type>  (19) 
oracle

>  <origin>  (19) 
adg

>  <m_score__min__energy>  (19) 
-12.279999999999999

>  <m_primary>  (19) 
energy

$$$$
20:0
     RDKit          3D

 32 34  0  0  0  0  0  0  0  0999 V2000
   -5.3890   26.5660  -30.4230 N   0  0  0  0  0  0  0  0  0  0  0  0
   -6.2820   25.5280  -30.0160 C   0  0  0  0  0  0  0  0  0  0  0  0
   -6.9970   25.6950  -28.9910 O   0  0  0  0  0  0  0  0  0  0  0  0
   -6.3340   24.2390  -30.7340 C   0  0  0  0  0  0  0  0  0  0  0  0
   -7.5210   23.6470  -31.1570 C   0  0  0  0  0  0  0  0  0  0  0  0
   -7.1490   22.4450  -31.7120 C   0  0  0  0  0  0  0  0  0  0  0  0
   -7.9270   21.4570  -32.3040 C   0  0  0  0  0  0  0  0  0  0  0  0
   -7.2750   20.3310  -32.8320 C   0  0  0  0  0  0  0  0  0  0  0  0
   -5.8610   20.2140  -32.7680 C   0  0  0  0  0  0  0  0  0  0  0  0
   -5.1810   19.0250  -33.3430 C   0  0  0  0  0  0  0  0  0  0  0  0
   -5.9160   17.8670  -33.6630 C   0  0  0  0  0  0  0  0  0  0  0  0
   -5.2740   16.7480  -34.2030 C   0  0  0  0  0  0  0  0  0  0  0  0
   -3.8970   16.7710  -34.4300 C   0  0  0  0  0  0  0  0  0  0  0  0
   -3.2800   15.6830  -34.9550 F   0  0  0  0  0  0  0  0  0  0  0  0
   -3.1560   17.9130  -34.1160 C   0  0  0  0  0  0  0  0  0  0  0  0
   -1.8170   17.9370  -34.3320 F   0  0  0  0  0  0  0  0  0  0  0  0
   -3.7940   19.0360  -33.5760 C   0  0  0  0  0  0  0  0  0  0  0  0
   -5.1050   21.2440  -32.1590 C   0  0  0  0  0  0  0  0  0  0  0  0
   -5.7840   22.3440  -31.6230 C   0  0  0  0  0  0  0  0  0  0  0  0
   -5.2670   23.4440  -31.0250 N   0  0  0  0  0  0  0  0  0  0  0  0
   -3.8740   23.7590  -30.8550 C   0  0  0  0  0  0  0  0  0  0  0  0
   -2.9970   22.8630  -30.9710 O   0  0  0  0  0  0  0  0  0  0  0  0
   -3.4800   25.0610  -30.5670 O   0  0  0  0  0  0  0  0  0  0  0  0
   -4.6700   26.3990  -31.1610 H   0  0  0  0  0  0  0  0  0  0  0  0
   -5.3920   27.4830  -29.9260 H   0  0  0  0  0  0  0  0  0  0  0  0
   -8.5390   24.0538  -31.0666 H   0  0  0  0  0  0  0  0  0  0  0  0
   -9.0214   21.5543  -32.3573 H   0  0  0  0  0  0  0  0  0  0  0  0
   -7.8662   19.5304  -33.3006 H   0  0  0  0  0  0  0  0  0  0  0  0
   -7.0016   17.8426  -33.4871 H   0  0  0  0  0  0  0  0  0  0  0  0
   -5.8557   15.8475  -34.4494 H   0  0  0  0  0  0  0  0  0  0  0  0
   -3.2064   19.9334  -33.3322 H   0  0  0  0  0  0  0  0  0  0  0  0
   -4.0080   21.1812  -32.1081 H   0  0  0  0  0  0  0  0  0  0  0  0
  1  2  1  0
  2  3  2  0
  2  4  1  0
  4  5  2  0
  5  6  1  0
  6  7  2  0
  7  8  1  0
  8  9  2  0
  9 10  1  0
 10 11  2  0
 11 12  1  0
 12 13  2  0
 13 14  1  0
 13 15  1  0
 15 16  1  0
 15 17  2  0
  9 18  1  0
 18 19  2  0
 19 20  1  0
 20 21  1  0
 21 22  2  0
 21 23  1  0
 20  4  1  0
 19  6  1  0
 17 10  1  0
  1 24  1  0
  1 25  1  0
  5 26  1  0
  7 27  1  0
  8 28  1  0
 11 29  1  0
 12 30  1  0
 17 31  1  0
 18 32  1  0
M  CHG  1  23  -1
M  END
>  <UniqueID>  (20) 
20

>  <SMILES>  (20) 
NC(=O)c1cc2ccc(-c3ccc(F)c(F)c3)cc2n1C(=O)[O-]

>  <Energy>  (20) 
80.41737274001589

>  <Genealogy>  (20) 
NC(=O)c1cc2ccc(-c3ccc(F)c(F)c3)cc2n1C(=O)[O-] (protonated)
NC(=O)c1cc2ccc(-c3ccc(F)c(F)c3)cc2n1C(=O)[O-] (3D coordinates assigned)
NC(=O)c1cc2ccc(-c3ccc(F)c(F)c3)cc2n1C(=O)[O-] (optimized conformer: 80.41737274001589 kcal/mol)

>  <smiles>  (20) 
NC(=O)c1cc2ccc(-c3ccc(F)c(F)c3)cc2n1C(=O)O

>  <score_type>  (20) 
oracle

>  <origin>  (20) 
adg

>  <m_score__min__energy>  (20) 
-9.3599999999999994

>  <m_primary>  (20) 
energy

$$$$
21:0
     RDKit          3D

 35 36  0  0  0  0  0  0  0  0999 V2000
   -9.4190   20.7890  -31.9620 C   0  0  0  0  0  0  0  0  0  0  0  0
   -9.4780   22.2920  -31.7130 C   0  0  0  0  0  0  0  0  0  0  0  0
   -8.1870   22.8790  -31.8590 O   0  0  0  0  0  0  0  0  0  0  0  0
   -7.1920   22.8100  -30.8750 C   0  0  0  0  0  0  0  0  0  0  0  0
   -7.4690   23.0640  -29.6710 O   0  0  0  0  0  0  0  0  0  0  0  0
   -5.8540   22.4330  -31.2400 N   0  0  0  0  0  0  0  0  0  0  0  0
   -4.7160   23.1620  -31.0650 C   0  0  0  0  0  0  0  0  0  0  0  0
   -4.6060   24.4200  -30.3000 C   0  0  0  0  0  0  0  0  0  0  0  0
   -5.2760   24.5850  -29.0490 N   0  0  0  0  0  0  0  0  0  0  0  0
   -3.8650   25.3430  -30.7290 O   0  0  0  0  0  0  0  0  0  0  0  0
   -3.6300   22.5350  -31.6670 C   0  0  0  0  0  0  0  0  0  0  0  0
   -4.1360   21.3790  -32.2150 C   0  0  0  0  0  0  0  0  0  0  0  0
   -3.4960   20.3800  -32.9430 C   0  0  0  0  0  0  0  0  0  0  0  0
   -4.2750   19.3140  -33.4230 C   0  0  0  0  0  0  0  0  0  0  0  0
   -5.6700   19.2740  -33.1830 C   0  0  0  0  0  0  0  0  0  0  0  0
   -6.4900   18.1180  -33.6890 C   0  0  0  0  0  0  0  0  0  0  0  0
   -7.6200   17.7930  -32.7180 C   0  0  0  0  0  0  0  0  0  0  0  0
   -6.2840   20.3000  -32.4300 C   0  0  0  0  0  0  0  0  0  0  0  0
   -5.4820   21.3410  -31.9470 C   0  0  0  0  0  0  0  0  0  0  0  0
   -9.3982   20.2583  -30.9987 H   0  0  0  0  0  0  0  0  0  0  0  0
  -10.3056   20.4769  -32.5335 H   0  0  0  0  0  0  0  0  0  0  0  0
   -8.5107   20.5474  -32.5335 H   0  0  0  0  0  0  0  0  0  0  0  0
  -10.1672   22.7510  -32.4371 H   0  0  0  0  0  0  0  0  0  0  0  0
   -9.8312   22.4663  -30.6859 H   0  0  0  0  0  0  0  0  0  0  0  0
   -5.7520   23.7810  -28.5840 H   0  0  0  0  0  0  0  0  0  0  0  0
   -5.2290   25.4980  -28.5470 H   0  0  0  0  0  0  0  0  0  0  0  0
   -2.5887   22.8882  -31.6982 H   0  0  0  0  0  0  0  0  0  0  0  0
   -2.4140   20.4239  -33.1364 H   0  0  0  0  0  0  0  0  0  0  0  0
   -3.7966   18.5024  -33.9909 H   0  0  0  0  0  0  0  0  0  0  0  0
   -6.9189   18.3804  -34.6674 H   0  0  0  0  0  0  0  0  0  0  0  0
   -5.8389   17.2363  -33.7818 H   0  0  0  0  0  0  0  0  0  0  0  0
   -7.2571   17.8974  -31.6849 H   0  0  0  0  0  0  0  0  0  0  0  0
   -8.4573   18.4867  -32.8844 H   0  0  0  0  0  0  0  0  0  0  0  0
   -7.9608   16.7604  -32.8844 H   0  0  0  0  0  0  0  0  0  0  0  0
   -7.3652   20.2813  -32.2283 H   0  0  0  0  0  0  0  0  0  0  0  0
  1  2  1  0
  2  3  1  0
  3  4  1  0
  4  5  2  0
  4  6  1  0
  6  7  1  0
  7  8  1  0
  8  9  1  0
  8 10  2  0
  7 11  2  0
 11 12  1  0
 12 13  2  0
 13 14  1  0
 14 15  2  0
 15 16  1  0
 16 17  1  0
 15 18  1  0
 18 19  2  0
 19  6  1  0
 19 12  1  0
  1 20  1  0
  1 21  1  0
  1 22  1  0
  2 23  1  0
  2 24  1  0
  9 25  1  0
  9 26  1  0
 11 27  1  0
 13 28  1  0
 14 29  1  0
 16 30  1  0
 16 31  1  0
 17 32  1  0
 17 33  1  0
 17 34  1  0
 18 35  1  0
M  END
>  <UniqueID>  (21) 
21

>  <SMILES>  (21) 
CCOC(=O)n1c(C(N)=O)cc2ccc(CC)cc21

>  <Energy>  (21) 
66.63120019518821

>  <Genealogy>  (21) 
CCOC(=O)n1c(C(N)=O)cc2ccc(CC)cc21 (3D coordinates assigned)
CCOC(=O)n1c(C(N)=O)cc2ccc(CC)cc21 (optimized conformer: 66.63120019518821 kcal/mol)

>  <smiles>  (21) 
CCOC(=O)n1c(C(N)=O)cc2ccc(CC)cc21

>  <score_type>  (21) 
oracle

>  <origin>  (21) 
adg

>  <m_score__min__energy>  (21) 
-8.1799999999999997

>  <m_primary>  (21) 
energy

$$$$
22:0
     RDKit          3D

 45 47  0  0  0  0  0  0  0  0999 V2000
   -3.9220   25.1860  -30.1310 N   0  0  0  0  0  0  0  0  0  0  0  0
   -5.3460   25.0800  -30.1690 C   0  0  0  0  0  0  0  0  0  0  0  0
   -6.0440   26.0400  -29.7470 O   0  0  0  0  0  0  0  0  0  0  0  0
   -6.0000   23.8470  -30.6640 C   0  0  0  0  0  0  0  0  0  0  0  0
   -7.3810   23.6940  -30.7840 C   0  0  0  0  0  0  0  0  0  0  0  0
   -7.5610   22.4600  -31.3640 C   0  0  0  0  0  0  0  0  0  0  0  0
   -8.7340   21.7950  -31.7030 C   0  0  0  0  0  0  0  0  0  0  0  0
   -8.6270   20.5140  -32.2670 C   0  0  0  0  0  0  0  0  0  0  0  0
   -7.3570   19.9170  -32.4810 C   0  0  0  0  0  0  0  0  0  0  0  0
   -7.2420   18.5220  -33.0690 C   0  0  0  0  0  0  0  0  0  0  0  0
   -7.1030   17.4310  -31.9680 C   0  0  0  0  0  0  0  0  0  0  0  0
   -5.7080   16.7920  -31.9300 C   0  0  0  0  0  0  0  0  0  0  0  0
   -5.3160   16.1880  -33.2920 C   0  0  0  0  0  0  0  0  0  0  0  0
   -5.7980   17.0170  -34.5020 C   0  0  0  0  0  0  0  0  0  0  0  0
   -6.1140   18.4670  -34.1240 C   0  0  0  0  0  0  0  0  0  0  0  0
   -6.1870   20.6260  -32.1180 C   0  0  0  0  0  0  0  0  0  0  0  0
   -6.3240   21.9090  -31.5750 C   0  0  0  0  0  0  0  0  0  0  0  0
   -5.3540   22.7490  -31.1490 N   0  0  0  0  0  0  0  0  0  0  0  0
   -3.9400   22.4960  -31.1590 C   0  0  0  0  0  0  0  0  0  0  0  0
   -3.3270   22.3130  -30.0720 O   0  0  0  0  0  0  0  0  0  0  0  0
   -3.2550   22.4320  -32.3780 O   0  0  0  0  0  0  0  0  0  0  0  0
   -2.2540   21.4580  -32.6720 C   0  0  0  0  0  0  0  0  0  0  0  0
   -2.8900   20.1210  -33.0490 C   0  0  0  0  0  0  0  0  0  0  0  0
   -3.9930   20.3360  -33.8560 F   0  0  0  0  0  0  0  0  0  0  0  0
   -1.9810   19.3270  -33.7240 F   0  0  0  0  0  0  0  0  0  0  0  0
   -3.2930   19.4630  -31.9010 F   0  0  0  0  0  0  0  0  0  0  0  0
   -3.3120   24.4360  -30.5220 H   0  0  0  0  0  0  0  0  0  0  0  0
   -3.4720   26.0450  -29.7430 H   0  0  0  0  0  0  0  0  0  0  0  0
   -8.1603   24.4082  -30.4796 H   0  0  0  0  0  0  0  0  0  0  0  0
   -9.7169   22.2590  -31.5342 H   0  0  0  0  0  0  0  0  0  0  0  0
   -9.5388   19.9659  -32.5467 H   0  0  0  0  0  0  0  0  0  0  0  0
   -8.1827   18.2915  -33.5905 H   0  0  0  0  0  0  0  0  0  0  0  0
   -7.3040   17.8924  -30.9899 H   0  0  0  0  0  0  0  0  0  0  0  0
   -7.8240   16.6338  -32.2017 H   0  0  0  0  0  0  0  0  0  0  0  0
   -4.9714   17.5620  -31.6571 H   0  0  0  0  0  0  0  0  0  0  0  0
   -5.7251   15.9794  -31.1887 H   0  0  0  0  0  0  0  0  0  0  0  0
   -4.2193   16.1146  -33.3363 H   0  0  0  0  0  0  0  0  0  0  0  0
   -5.8062   15.2057  -33.3604 H   0  0  0  0  0  0  0  0  0  0  0  0
   -5.0094   17.0151  -35.2688 H   0  0  0  0  0  0  0  0  0  0  0  0
   -6.7243   16.5575  -34.8774 H   0  0  0  0  0  0  0  0  0  0  0  0
   -5.2098   18.9379  -33.7110 H   0  0  0  0  0  0  0  0  0  0  0  0
   -6.4456   19.0036  -35.0252 H   0  0  0  0  0  0  0  0  0  0  0  0
   -5.1920   20.1787  -32.2594 H   0  0  0  0  0  0  0  0  0  0  0  0
   -1.6400   21.8146  -33.5121 H   0  0  0  0  0  0  0  0  0  0  0  0
   -1.6316   21.3117  -31.7769 H   0  0  0  0  0  0  0  0  0  0  0  0
  1  2  1  0
  2  3  2  0
  2  4  1  0
  4  5  2  0
  5  6  1  0
  6  7  2  0
  7  8  1  0
  8  9  2  0
  9 10  1  0
 10 11  1  0
 11 12  1  0
 12 13  1  0
 13 14  1  0
 14 15  1  0
  9 16  1  0
 16 17  2  0
 17 18  1  0
 18 19  1  0
 19 20  2  0
 19 21  1  0
 21 22  1  0
 22 23  1  0
 23 24  1  0
 23 25  1  0
 23 26  1  0
 18  4  1  0
 17  6  1  0
 15 10  1  0
  1 27  1  0
  1 28  1  0
  5 29  1  0
  7 30  1  0
  8 31  1  0
 10 32  1  0
 11 33  1  0
 11 34  1  0
 12 35  1  0
 12 36  1  0
 13 37  1  0
 13 38  1  0
 14 39  1  0
 14 40  1  0
 15 41  1  0
 15 42  1  0
 16 43  1  0
 22 44  1  0
 22 45  1  0
M  END
>  <UniqueID>  (22) 
22

>  <SMILES>  (22) 
NC(=O)c1cc2ccc(C3CCCCC3)cc2n1C(=O)OCC(F)(F)F

>  <Energy>  (22) 
84.54488702370836

>  <Genealogy>  (22) 
NC(=O)c1cc2ccc(C3CCCCC3)cc2n1C(=O)OCC(F)(F)F (3D coordinates assigned)
NC(=O)c1cc2ccc(C3CCCCC3)cc2n1C(=O)OCC(F)(F)F (nonaromatic ring conformer: 84.54488702370836 kcal/mol)

>  <smiles>  (22) 
NC(=O)c1cc2ccc(C3CCCCC3)cc2n1C(=O)OCC(F)(F)F

>  <score_type>  (22) 
oracle

>  <origin>  (22) 
adg

>  <m_score__min__energy>  (22) 
-9.8900000000000006

>  <m_primary>  (22) 
energy

$$$$
23:0
     RDKit          3D

 68 71  0  0  0  0  0  0  0  0999 V2000
   -0.9000   14.3380  -32.2830 C   0  0  0  0  0  0  0  0  0  0  0  0
    0.0580   15.4470  -32.7140 C   0  0  0  0  0  0  0  0  0  0  0  0
   -0.2890   15.9950  -34.1040 C   0  0  0  0  0  0  0  0  0  0  0  0
   -1.3240   17.0510  -34.0120 N   0  0  0  0  0  0  0  0  0  0  0  0
   -1.2870   17.7310  -32.7040 C   0  0  0  0  0  0  0  0  0  0  0  0
   -2.1630   18.9950  -32.7410 C   0  0  0  0  0  0  0  0  0  0  0  0
   -3.2400   18.9300  -33.8330 C   0  0  0  0  0  0  0  0  0  0  0  0
   -3.8120   17.5030  -33.9590 C   0  0  1  0  0  0  0  0  0  0  0  0
   -4.9390   17.4680  -35.0260 C   0  0  0  0  0  0  0  0  0  0  0  0
   -6.1090   18.4220  -34.7300 C   0  0  0  0  0  0  0  0  0  0  0  0
   -6.6300   18.3250  -33.2890 C   0  0  0  0  0  0  0  0  0  0  0  0
   -6.9000   19.7000  -32.7390 C   0  0  0  0  0  0  0  0  0  0  0  0
   -8.2320   20.1410  -32.5410 C   0  0  0  0  0  0  0  0  0  0  0  0
   -8.4900   21.3990  -31.9670 C   0  0  0  0  0  0  0  0  0  0  0  0
   -7.4070   22.1830  -31.5880 C   0  0  0  0  0  0  0  0  0  0  0  0
   -7.3680   23.4210  -30.9860 C   0  0  0  0  0  0  0  0  0  0  0  0
   -6.0100   23.6970  -30.7960 C   0  0  0  0  0  0  0  0  0  0  0  0
   -5.4670   24.9530  -30.2240 C   0  0  0  0  0  0  0  0  0  0  0  0
   -5.9330   25.4660  -28.9720 N   0  0  0  0  0  0  0  0  0  0  0  0
   -4.6120   25.6200  -30.8690 O   0  0  0  0  0  0  0  0  0  0  0  0
   -5.2520   22.6620  -31.2560 N   0  0  0  0  0  0  0  0  0  0  0  0
   -3.8350   22.4950  -31.1140 C   0  0  0  0  0  0  0  0  0  0  0  0
   -3.1680   22.0380  -32.0770 O   0  0  0  0  0  0  0  0  0  0  0  0
   -3.1810   22.8580  -29.8840 N   0  0  0  0  0  0  0  0  0  0  0  0
   -1.7560   23.2260  -29.9000 C   0  0  0  0  0  0  0  0  0  0  0  0
   -1.3460   24.0950  -28.6840 C   0  0  0  0  0  0  0  0  0  0  0  0
   -2.3890   24.3110  -27.7450 O   0  0  0  0  0  0  0  0  0  0  0  0
   -3.0260   23.0860  -27.4380 C   0  0  0  0  0  0  0  0  0  0  0  0
   -3.9050   22.6880  -28.6150 C   0  0  0  0  0  0  0  0  0  0  0  0
   -6.1170   21.7530  -31.7500 C   0  0  0  0  0  0  0  0  0  0  0  0
   -5.8230   20.5160  -32.3270 C   0  0  0  0  0  0  0  0  0  0  0  0
   -2.6700   16.4800  -34.2530 C   0  0  0  0  0  0  0  0  0  0  0  0
   -0.9387   14.2932  -31.1846 H   0  0  0  0  0  0  0  0  0  0  0  0
   -1.9053   14.5482  -32.6770 H   0  0  0  0  0  0  0  0  0  0  0  0
   -0.5459   13.3740  -32.6770 H   0  0  0  0  0  0  0  0  0  0  0  0
    0.0027   16.2681  -31.9841 H   0  0  0  0  0  0  0  0  0  0  0  0
    1.0721   15.0231  -32.7583 H   0  0  0  0  0  0  0  0  0  0  0  0
    0.6177   16.4181  -34.5611 H   0  0  0  0  0  0  0  0  0  0  0  0
   -0.6806   15.1714  -34.7191 H   0  0  0  0  0  0  0  0  0  0  0  0
   -1.6651   17.0488  -31.9283 H   0  0  0  0  0  0  0  0  0  0  0  0
   -0.2498   18.0180  -32.4764 H   0  0  0  0  0  0  0  0  0  0  0  0
   -2.6565   19.1113  -31.7648 H   0  0  0  0  0  0  0  0  0  0  0  0
   -1.5084   19.8497  -32.9666 H   0  0  0  0  0  0  0  0  0  0  0  0
   -4.0548   19.6231  -33.5767 H   0  0  0  0  0  0  0  0  0  0  0  0
   -2.7835   19.2113  -34.7935 H   0  0  0  0  0  0  0  0  0  0  0  0
   -4.2655   17.2050  -33.0022 H   0  0  0  0  0  0  0  0  0  0  0  0
   -4.5042   17.7446  -35.9979 H   0  0  0  0  0  0  0  0  0  0  0  0
   -5.3505   16.4479  -35.0217 H   0  0  0  0  0  0  0  0  0  0  0  0
   -5.7710   19.4533  -34.9091 H   0  0  0  0  0  0  0  0  0  0  0  0
   -6.9375   18.1328  -35.3933 H   0  0  0  0  0  0  0  0  0  0  0  0
   -7.5616   17.7402  -33.2783 H   0  0  0  0  0  0  0  0  0  0  0  0
   -5.8695   17.8324  -32.6653 H   0  0  0  0  0  0  0  0  0  0  0  0
   -9.0708   19.4945  -32.8385 H   0  0  0  0  0  0  0  0  0  0  0  0
   -9.5214   21.7527  -31.8220 H   0  0  0  0  0  0  0  0  0  0  0  0
   -8.2227   24.0572  -30.7128 H   0  0  0  0  0  0  0  0  0  0  0  0
   -5.6420   26.4190  -28.6600 H   0  0  0  0  0  0  0  0  0  0  0  0
   -6.5650   24.9230  -28.3450 H   0  0  0  0  0  0  0  0  0  0  0  0
   -1.1551   22.3047  -29.8920 H   0  0  0  0  0  0  0  0  0  0  0  0
   -1.5781   23.8217  -30.8075 H   0  0  0  0  0  0  0  0  0  0  0  0
   -0.5144   23.5941  -28.1668 H   0  0  0  0  0  0  0  0  0  0  0  0
   -1.0681   25.0827  -29.0806 H   0  0  0  0  0  0  0  0  0  0  0  0
   -2.2684   22.3083  -27.2615 H   0  0  0  0  0  0  0  0  0  0  0  0
   -3.6392   23.1979  -26.5317 H   0  0  0  0  0  0  0  0  0  0  0  0
   -4.1998   21.6339  -28.5056 H   0  0  0  0  0  0  0  0  0  0  0  0
   -4.7956   23.3336  -28.6261 H   0  0  0  0  0  0  0  0  0  0  0  0
   -4.7817   20.1861  -32.4571 H   0  0  0  0  0  0  0  0  0  0  0  0
   -2.8040   15.6041  -33.6012 H   0  0  0  0  0  0  0  0  0  0  0  0
   -2.7320   16.2047  -35.3162 H   0  0  0  0  0  0  0  0  0  0  0  0
  1  2  1  0
  2  3  1  0
  3  4  1  0
  4  5  1  0
  5  6  1  0
  6  7  1  0
  7  8  1  0
  8  9  1  0
  9 10  1  0
 10 11  1  0
 11 12  1  0
 12 13  2  0
 13 14  1  0
 14 15  2  0
 15 16  1  0
 16 17  2  0
 17 18  1  0
 18 19  1  0
 18 20  2  0
 17 21  1  0
 21 22  1  0
 22 23  2  0
 22 24  1  0
 24 25  1  0
 25 26  1  0
 26 27  1  0
 27 28  1  0
 28 29  1  0
 21 30  1  0
 30 31  2  0
  8 32  1  0
 32  4  1  0
 31 12  1  0
 30 15  1  0
 29 24  1  0
  1 33  1  0
  1 34  1  0
  1 35  1  0
  2 36  1  0
  2 37  1  0
  3 38  1  0
  3 39  1  0
  5 40  1  0
  5 41  1  0
  6 42  1  0
  6 43  1  0
  7 44  1  0
  7 45  1  0
  8 46  1  1
  9 47  1  0
  9 48  1  0
 10 49  1  0
 10 50  1  0
 11 51  1  0
 11 52  1  0
 13 53  1  0
 14 54  1  0
 16 55  1  0
 19 56  1  0
 19 57  1  0
 25 58  1  0
 25 59  1  0
 26 60  1  0
 26 61  1  0
 28 62  1  0
 28 63  1  0
 29 64  1  0
 29 65  1  0
 31 66  1  0
 32 67  1  0
 32 68  1  0
M  END
>  <UniqueID>  (23) 
23

>  <SMILES>  (23) 
CCCN1CCC[C@@H](CCCc2ccc3cc(C(N)=O)n(C(=O)N4CCOCC4)c3c2)C1

>  <Energy>  (23) 
115.8503349884262

>  <Genealogy>  (23) 
CCCN1CCC[C@@H](CCCc2ccc3cc(C(N)=O)n(C(=O)N4CCOCC4)c3c2)C1 (chirality)
CCCN1CCC[C@@H](CCCc2ccc3cc(C(N)=O)n(C(=O)N4CCOCC4)c3c2)C1 (3D coordinates assigned)
CCCN1CCC[C@@H](CCCc2ccc3cc(C(N)=O)n(C(=O)N4CCOCC4)c3c2)C1 (nonaromatic ring conformer: 115.8503349884262 kcal/mol)

>  <smiles>  (23) 
CCCN1CCCC(CCCc2ccc3cc(C(N)=O)n(C(=O)N4CCOCC4)c3c2)C1

>  <score_type>  (23) 
oracle

>  <origin>  (23) 
adg

>  <m_score__min__energy>  (23) 
-10.57

>  <m_primary>  (23) 
energy

$$$$
24:0
     RDKit          3D

 26 27  0  0  0  0  0  0  0  0999 V2000
   -3.1030   23.5480  -30.8440 N   0  0  0  0  0  0  0  0  0  0  0  0
   -3.9500   22.7130  -31.6330 C   0  0  0  0  0  0  0  0  0  0  0  0
   -3.4400   21.9750  -32.5180 O   0  0  0  0  0  0  0  0  0  0  0  0
   -5.3730   22.7260  -31.4310 N   0  0  0  0  0  0  0  0  0  0  0  0
   -6.1280   23.7370  -30.9170 C   0  0  0  0  0  0  0  0  0  0  0  0
   -5.6130   24.9720  -30.2930 C   0  0  0  0  0  0  0  0  0  0  0  0
   -6.1200   25.4340  -29.0400 N   0  0  0  0  0  0  0  0  0  0  0  0
   -4.7510   25.6610  -30.9020 O   0  0  0  0  0  0  0  0  0  0  0  0
   -7.4840   23.4330  -31.0010 C   0  0  0  0  0  0  0  0  0  0  0  0
   -7.5400   22.1830  -31.5760 C   0  0  0  0  0  0  0  0  0  0  0  0
   -8.6410   21.4000  -31.9070 C   0  0  0  0  0  0  0  0  0  0  0  0
   -8.4080   20.1620  -32.5270 C   0  0  0  0  0  0  0  0  0  0  0  0
   -7.0860   19.7340  -32.8100 C   0  0  0  0  0  0  0  0  0  0  0  0
   -6.8410   18.4180  -33.4900 C   0  0  0  0  0  0  0  0  0  0  0  0
   -6.0430   18.6100  -34.6030 F   0  0  0  0  0  0  0  0  0  0  0  0
   -6.2080   17.5520  -32.6170 F   0  0  0  0  0  0  0  0  0  0  0  0
   -5.9930   20.5580  -32.4620 C   0  0  0  0  0  0  0  0  0  0  0  0
   -6.2530   21.7780  -31.8270 C   0  0  0  0  0  0  0  0  0  0  0  0
   -3.1040   24.5840  -30.9700 H   0  0  0  0  0  0  0  0  0  0  0  0
   -6.9460   24.9790  -28.5920 H   0  0  0  0  0  0  0  0  0  0  0  0
   -5.7190   26.2890  -28.5960 H   0  0  0  0  0  0  0  0  0  0  0  0
   -8.3296   24.0576  -30.6773 H   0  0  0  0  0  0  0  0  0  0  0  0
   -9.6640   21.7407  -31.6894 H   0  0  0  0  0  0  0  0  0  0  0  0
   -9.2586   19.5183  -32.7956 H   0  0  0  0  0  0  0  0  0  0  0  0
   -7.8050   17.9875  -33.7989 H   0  0  0  0  0  0  0  0  0  0  0  0
   -4.9613   20.2482  -32.6848 H   0  0  0  0  0  0  0  0  0  0  0  0
  1  2  1  0
  2  3  2  0
  2  4  1  0
  4  5  1  0
  5  6  1  0
  6  7  1  0
  6  8  2  0
  5  9  2  0
  9 10  1  0
 10 11  2  0
 11 12  1  0
 12 13  2  0
 13 14  1  0
 14 15  1  0
 14 16  1  0
 13 17  1  0
 17 18  2  0
 18  4  1  0
 18 10  1  0
  1 19  1  0
  7 20  1  0
  7 21  1  0
  9 22  1  0
 11 23  1  0
 12 24  1  0
 14 25  1  0
 17 26  1  0
M  CHG  1   1  -1
M  END
>  <UniqueID>  (24) 
24

>  <SMILES>  (24) 
[NH-]C(=O)n1c(C(N)=O)cc2ccc(C(F)F)cc21

>  <Energy>  (24) 
65.70622755641429

>  <Genealogy>  (24) 
[NH-]C(=O)n1c(C(N)=O)cc2ccc(C(F)F)cc21 (protonated)
[NH-]C(=O)n1c(C(N)=O)cc2ccc(C(F)F)cc21 (3D coordinates assigned)
[NH-]C(=O)n1c(C(N)=O)cc2ccc(C(F)F)cc21 (optimized conformer: 65.70622755641429 kcal/mol)

>  <smiles>  (24) 
NC(=O)c1cc2ccc(C(F)F)cc2n1C(N)=O

>  <score_type>  (24) 
oracle

>  <origin>  (24) 
adg

>  <m_score__min__energy>  (24) 
-7.9400000000000004

>  <m_primary>  (24) 
energy

$$$$
25:0
     RDKit          3D

 31 32  0  0  0  0  0  0  0  0999 V2000
   -6.2110   17.4210  -32.2480 C   0  0  0  0  0  0  0  0  0  0  0  0
   -6.7180   18.3930  -33.3200 C   0  0  0  0  0  0  0  0  0  0  0  0
   -5.7390   18.4790  -34.4960 C   0  0  0  0  0  0  0  0  0  0  0  0
   -6.9850   19.7650  -32.7310 C   0  0  0  0  0  0  0  0  0  0  0  0
   -8.3140   20.2180  -32.5100 C   0  0  0  0  0  0  0  0  0  0  0  0
   -8.5590   21.4830  -31.9520 C   0  0  0  0  0  0  0  0  0  0  0  0
   -7.4640   22.2790  -31.6330 C   0  0  0  0  0  0  0  0  0  0  0  0
   -7.4200   23.5260  -31.0550 C   0  0  0  0  0  0  0  0  0  0  0  0
   -6.0670   23.8360  -30.9560 C   0  0  0  0  0  0  0  0  0  0  0  0
   -5.5670   25.1280  -30.4440 C   0  0  0  0  0  0  0  0  0  0  0  0
   -4.2120   25.5310  -30.6500 N   0  0  0  0  0  0  0  0  0  0  0  0
   -6.3620   25.9130  -29.8630 O   0  0  0  0  0  0  0  0  0  0  0  0
   -5.3000   22.8180  -31.4410 N   0  0  0  0  0  0  0  0  0  0  0  0
   -3.8670   22.7130  -31.4000 C   0  0  0  0  0  0  0  0  0  0  0  0
   -3.2330   22.2370  -32.3780 O   0  0  0  0  0  0  0  0  0  0  0  0
   -3.1660   23.1290  -30.2750 O   0  0  0  0  0  0  0  0  0  0  0  0
   -6.1740   21.8710  -31.8560 C   0  0  0  0  0  0  0  0  0  0  0  0
   -5.9000   20.6060  -32.3910 C   0  0  0  0  0  0  0  0  0  0  0  0
   -6.4251   17.8314  -31.2502 H   0  0  0  0  0  0  0  0  0  0  0  0
   -6.7184   16.4518  -32.3624 H   0  0  0  0  0  0  0  0  0  0  0  0
   -5.1258   17.2825  -32.3624 H   0  0  0  0  0  0  0  0  0  0  0  0
   -7.6710   18.0006  -33.7045 H   0  0  0  0  0  0  0  0  0  0  0  0
   -4.7120   18.5692  -34.1123 H   0  0  0  0  0  0  0  0  0  0  0  0
   -5.8226   17.5701  -35.1099 H   0  0  0  0  0  0  0  0  0  0  0  0
   -5.9797   19.3595  -35.1099 H   0  0  0  0  0  0  0  0  0  0  0  0
   -9.1609   19.5697  -32.7794 H   0  0  0  0  0  0  0  0  0  0  0  0
   -9.5860   21.8339  -31.7726 H   0  0  0  0  0  0  0  0  0  0  0  0
   -8.2719   24.1458  -30.7386 H   0  0  0  0  0  0  0  0  0  0  0  0
   -3.8660   26.4310  -30.2500 H   0  0  0  0  0  0  0  0  0  0  0  0
   -3.5740   24.9800  -31.2680 H   0  0  0  0  0  0  0  0  0  0  0  0
   -4.8626   20.2735  -32.5435 H   0  0  0  0  0  0  0  0  0  0  0  0
  1  2  1  0
  2  3  1  0
  2  4  1  0
  4  5  2  0
  5  6  1  0
  6  7  2  0
  7  8  1  0
  8  9  2  0
  9 10  1  0
 10 11  1  0
 10 12  2  0
  9 13  1  0
 13 14  1  0
 14 15  2  0
 14 16  1  0
 13 17  1  0
 17 18  2  0
 18  4  1  0
 17  7  1  0
  1 19  1  0
  1 20  1  0
  1 21  1  0
  2 22  1  0
  3 23  1  0
  3 24  1  0
  3 25  1  0
  5 26  1  0
  6 27  1  0
  8 28  1  0
 11 29  1  0
 11 30  1  0
 18 31  1  0
M  CHG  1  16  -1
M  END
>  <UniqueID>  (25) 
25

>  <SMILES>  (25) 
CC(C)c1ccc2cc(C(N)=O)n(C(=O)[O-])c2c1

>  <Energy>  (25) 
67.73430305246833

>  <Genealogy>  (25) 
CC(C)c1ccc2cc(C(N)=O)n(C(=O)[O-])c2c1 (protonated)
CC(C)c1ccc2cc(C(N)=O)n(C(=O)[O-])c2c1 (3D coordinates assigned)
CC(C)c1ccc2cc(C(N)=O)n(C(=O)[O-])c2c1 (optimized conformer: 67.73430305246833 kcal/mol)

>  <smiles>  (25) 
CC(C)c1ccc2cc(C(N)=O)n(C(=O)O)c2c1

>  <score_type>  (25) 
oracle

>  <origin>  (25) 
adg

>  <m_score__min__energy>  (25) 
-9.1899999999999995

>  <m_primary>  (25) 
energy

$$$$
26:0
     RDKit          3D

 47 49  0  0  0  0  0  0  0  0999 V2000
   -6.5970   24.7000  -30.5000 C   0  0  0  0  0  0  0  0  0  0  0  0
   -5.4330   25.6770  -30.4410 C   0  0  0  0  0  0  0  0  0  0  0  0
   -4.2090   24.9670  -30.5930 O   0  0  0  0  0  0  0  0  0  0  0  0
   -3.8800   23.8520  -29.8180 C   0  0  0  0  0  0  0  0  0  0  0  0
   -4.6030   23.5230  -28.8370 O   0  0  0  0  0  0  0  0  0  0  0  0
   -2.7300   23.0620  -30.1580 N   0  0  0  0  0  0  0  0  0  0  0  0
   -1.4350   23.2610  -29.7830 C   0  0  0  0  0  0  0  0  0  0  0  0
   -0.9090   24.4360  -29.0570 C   0  0  0  0  0  0  0  0  0  0  0  0
   -1.6610   25.6440  -28.9720 N   0  0  0  0  0  0  0  0  0  0  0  0
    0.2410   24.3900  -28.5460 O   0  0  0  0  0  0  0  0  0  0  0  0
   -0.6270   22.2300  -30.2560 C   0  0  0  0  0  0  0  0  0  0  0  0
   -1.4710   21.3910  -30.9470 C   0  0  0  0  0  0  0  0  0  0  0  0
   -1.1980   20.2120  -31.6290 C   0  0  0  0  0  0  0  0  0  0  0  0
   -2.2680   19.5420  -32.2430 C   0  0  0  0  0  0  0  0  0  0  0  0
   -3.5940   20.0470  -32.1500 C   0  0  0  0  0  0  0  0  0  0  0  0
   -4.7640   19.3660  -32.8460 C   0  0  2  0  0  0  0  0  0  0  0  0
   -4.3320   18.2260  -33.7820 C   0  0  0  0  0  0  0  0  0  0  0  0
   -5.6960   20.3860  -33.5400 C   0  0  0  0  0  0  0  0  0  0  0  0
   -6.9940   20.6270  -32.8040 C   0  0  0  0  0  0  0  0  0  0  0  0
   -7.2710   21.8890  -32.2510 C   0  0  0  0  0  0  0  0  0  0  0  0
   -8.4810   22.1190  -31.5910 C   0  0  0  0  0  0  0  0  0  0  0  0
   -9.4210   21.0920  -31.4730 C   0  0  0  0  0  0  0  0  0  0  0  0
   -9.1510   19.8310  -32.0130 C   0  0  0  0  0  0  0  0  0  0  0  0
   -7.9410   19.5970  -32.6760 C   0  0  0  0  0  0  0  0  0  0  0  0
   -3.8230   21.2590  -31.4550 C   0  0  0  0  0  0  0  0  0  0  0  0
   -2.7340   21.9160  -30.8720 C   0  0  0  0  0  0  0  0  0  0  0  0
   -6.9085   24.4386  -29.4779 H   0  0  0  0  0  0  0  0  0  0  0  0
   -7.4396   25.1653  -31.0324 H   0  0  0  0  0  0  0  0  0  0  0  0
   -6.2848   23.7894  -31.0324 H   0  0  0  0  0  0  0  0  0  0  0  0
   -5.5320   26.4145  -31.2511 H   0  0  0  0  0  0  0  0  0  0  0  0
   -5.4381   26.1950  -29.4706 H   0  0  0  0  0  0  0  0  0  0  0  0
   -2.6640   25.6750  -29.2600 H   0  0  0  0  0  0  0  0  0  0  0  0
    0.4566   22.1114  -30.1085 H   0  0  0  0  0  0  0  0  0  0  0  0
   -0.1737   19.8151  -31.6862 H   0  0  0  0  0  0  0  0  0  0  0  0
   -2.0782   18.6145  -32.8032 H   0  0  0  0  0  0  0  0  0  0  0  0
   -5.3541   18.8835  -32.0529 H   0  0  0  0  0  0  0  0  0  0  0  0
   -4.0051   17.3635  -33.1827 H   0  0  0  0  0  0  0  0  0  0  0  0
   -5.1807   17.9311  -34.4166 H   0  0  0  0  0  0  0  0  0  0  0  0
   -3.5010   18.5676  -34.4166 H   0  0  0  0  0  0  0  0  0  0  0  0
   -5.1614   21.3438  -33.6225 H   0  0  0  0  0  0  0  0  0  0  0  0
   -5.9583   19.9637  -34.5213 H   0  0  0  0  0  0  0  0  0  0  0  0
   -6.5321   22.6992  -32.3381 H   0  0  0  0  0  0  0  0  0  0  0  0
   -8.6938   23.1100  -31.1637 H   0  0  0  0  0  0  0  0  0  0  0  0
  -10.3739   21.2757  -30.9550 H   0  0  0  0  0  0  0  0  0  0  0  0
   -9.8902   19.0221  -31.9167 H   0  0  0  0  0  0  0  0  0  0  0  0
   -7.7306   18.6033  -33.0983 H   0  0  0  0  0  0  0  0  0  0  0  0
   -4.8377   21.6761  -31.3749 H   0  0  0  0  0  0  0  0  0  0  0  0
  1  2  1  0
  2  3  1  0
  3  4  1  0
  4  5  2  0
  4  6  1  0
  6  7  1  0
  7  8  1  0
  8  9  1  0
  8 10  2  0
  7 11  2  0
 11 12  1  0
 12 13  2  0
 13 14  1  0
 14 15  2  0
 15 16  1  0
 16 17  1  0
 16 18  1  0
 18 19  1  0
 19 20  2  0
 20 21  1  0
 21 22  2  0
 22 23  1  0
 23 24  2  0
 15 25  1  0
 25 26  2  0
 26  6  1  0
 26 12  1  0
 24 19  1  0
  1 27  1  0
  1 28  1  0
  1 29  1  0
  2 30  1  0
  2 31  1  0
  9 32  1  0
 11 33  1  0
 13 34  1  0
 14 35  1  0
 16 36  1  1
 17 37  1  0
 17 38  1  0
 17 39  1  0
 18 40  1  0
 18 41  1  0
 20 42  1  0
 21 43  1  0
 22 44  1  0
 23 45  1  0
 24 46  1  0
 25 47  1  0
M  CHG  1   9  -1
M  END
>  <UniqueID>  (26) 
26

>  <SMILES>  (26) 
CCOC(=O)n1c(C([NH-])=O)cc2ccc([C@H](C)Cc3ccccc3)cc21

>  <Energy>  (26) 
81.1308695816482

>  <Genealogy>  (26) 
CCOC(=O)n1c(C([NH-])=O)cc2ccc(C(C)Cc3ccccc3)cc21 (protonated)
CCOC(=O)n1c(C([NH-])=O)cc2ccc([C@H](C)Cc3ccccc3)cc21 (chirality)
CCOC(=O)n1c(C([NH-])=O)cc2ccc([C@H](C)Cc3ccccc3)cc21 (3D coordinates assigned)
CCOC(=O)n1c(C([NH-])=O)cc2ccc([C@H](C)Cc3ccccc3)cc21 (optimized conformer: 81.1308695816482 kcal/mol)

>  <smiles>  (26) 
CCOC(=O)n1c(C(N)=O)cc2ccc(C(C)Cc3ccccc3)cc21

>  <score_type>  (26) 
oracle

>  <origin>  (26) 
adg

>  <m_score__min__energy>  (26) 
-11.710000000000001

>  <m_primary>  (26) 
energy

$$$$
27:0
     RDKit          3D

 36 37  0  0  0  0  0  0  0  0999 V2000
   -1.7160   20.7980  -33.8350 C   0  0  0  0  0  0  0  0  0  0  0  0
   -3.0670   20.6360  -33.1130 C   0  0  0  0  0  0  0  0  0  0  0  0
   -3.9390   19.5810  -33.8190 C   0  0  0  0  0  0  0  0  0  0  0  0
   -2.8070   20.1800  -31.6690 C   0  0  0  0  0  0  0  0  0  0  0  0
   -3.7560   21.8930  -33.0410 O   0  0  0  0  0  0  0  0  0  0  0  0
   -3.9430   22.6730  -31.8900 C   0  0  0  0  0  0  0  0  0  0  0  0
   -2.9590   23.1090  -31.2350 O   0  0  0  0  0  0  0  0  0  0  0  0
   -5.2770   22.9980  -31.4720 N   0  0  0  0  0  0  0  0  0  0  0  0
   -5.7290   24.1700  -30.9410 C   0  0  0  0  0  0  0  0  0  0  0  0
   -4.8920   25.3180  -30.5320 C   0  0  0  0  0  0  0  0  0  0  0  0
   -3.5330   25.1340  -30.1460 N   0  0  0  0  0  0  0  0  0  0  0  0
   -5.3990   26.4710  -30.4770 O   0  0  0  0  0  0  0  0  0  0  0  0
   -7.1080   24.1200  -30.7500 C   0  0  0  0  0  0  0  0  0  0  0  0
   -7.4900   22.8680  -31.1730 C   0  0  0  0  0  0  0  0  0  0  0  0
   -8.7530   22.2830  -31.2160 C   0  0  0  0  0  0  0  0  0  0  0  0
   -8.8570   20.9790  -31.7300 C   0  0  0  0  0  0  0  0  0  0  0  0
   -7.7090   20.2950  -32.1950 C   0  0  0  0  0  0  0  0  0  0  0  0
   -7.8310   18.9730  -32.7280 N   0  0  0  0  0  0  0  0  0  0  0  0
   -6.4450   20.9180  -32.1390 C   0  0  0  0  0  0  0  0  0  0  0  0
   -6.3670   22.2100  -31.6050 C   0  0  0  0  0  0  0  0  0  0  0  0
   -0.9118   20.8944  -33.0907 H   0  0  0  0  0  0  0  0  0  0  0  0
   -1.5288   19.9159  -34.4649 H   0  0  0  0  0  0  0  0  0  0  0  0
   -1.7427   21.6994  -34.4649 H   0  0  0  0  0  0  0  0  0  0  0  0
   -4.4495   18.9634  -33.0654 H   0  0  0  0  0  0  0  0  0  0  0  0
   -4.6874   20.0852  -34.4479 H   0  0  0  0  0  0  0  0  0  0  0  0
   -3.3029   18.9408  -34.4479 H   0  0  0  0  0  0  0  0  0  0  0  0
   -3.2277   20.9179  -30.9701 H   0  0  0  0  0  0  0  0  0  0  0  0
   -3.2838   19.2029  -31.5016 H   0  0  0  0  0  0  0  0  0  0  0  0
   -1.7233   20.0927  -31.5016 H   0  0  0  0  0  0  0  0  0  0  0  0
   -2.7560   25.2790  -30.8290 H   0  0  0  0  0  0  0  0  0  0  0  0
   -7.7543   24.9134  -30.3465 H   0  0  0  0  0  0  0  0  0  0  0  0
   -9.6414   22.8245  -30.8589 H   0  0  0  0  0  0  0  0  0  0  0  0
   -9.8394   20.4859  -31.7711 H   0  0  0  0  0  0  0  0  0  0  0  0
   -7.3710   18.1630  -32.2570 H   0  0  0  0  0  0  0  0  0  0  0  0
   -8.3820   18.7970  -33.5980 H   0  0  0  0  0  0  0  0  0  0  0  0
   -5.5447   20.4028  -32.5050 H   0  0  0  0  0  0  0  0  0  0  0  0
  1  2  1  0
  2  3  1  0
  2  4  1  0
  2  5  1  0
  5  6  1  0
  6  7  2  0
  6  8  1  0
  8  9  1  0
  9 10  1  0
 10 11  1  0
 10 12  2  0
  9 13  2  0
 13 14  1  0
 14 15  2  0
 15 16  1  0
 16 17  2  0
 17 18  1  0
 17 19  1  0
 19 20  2  0
 20  8  1  0
 20 14  1  0
  1 21  1  0
  1 22  1  0
  1 23  1  0
  3 24  1  0
  3 25  1  0
  3 26  1  0
  4 27  1  0
  4 28  1  0
  4 29  1  0
 11 30  1  0
 13 31  1  0
 15 32  1  0
 16 33  1  0
 18 34  1  0
 18 35  1  0
 19 36  1  0
M  CHG  1  11  -1
M  END
>  <UniqueID>  (27) 
27

>  <SMILES>  (27) 
CC(C)(C)OC(=O)n1c(C([NH-])=O)cc2ccc(N)cc21

>  <Energy>  (27) 
69.49365261248361

>  <Genealogy>  (27) 
CC(C)(C)OC(=O)n1c(C([NH-])=O)cc2ccc(N)cc21 (protonated)
CC(C)(C)OC(=O)n1c(C([NH-])=O)cc2ccc(N)cc21 (3D coordinates assigned)
CC(C)(C)OC(=O)n1c(C([NH-])=O)cc2ccc(N)cc21 (optimized conformer: 69.49365261248361 kcal/mol)

>  <smiles>  (27) 
CC(C)(C)OC(=O)n1c(C(N)=O)cc2ccc(N)cc21

>  <score_type>  (27) 
oracle

>  <origin>  (27) 
adg

>  <m_score__min__energy>  (27) 
-9.4000000000000004

>  <m_primary>  (27) 
energy

$$$$
28:0
     RDKit          3D

 31 32  0  0  0  0  0  0  0  0999 V2000
   -5.5160   17.2430  -32.8850 C   0  0  0  0  0  0  0  0  0  0  0  0
   -6.4500   18.2790  -33.4370 C   0  0  0  0  0  0  0  0  0  0  0  0
   -6.1520   18.8610  -34.4690 O   0  0  0  0  0  0  0  0  0  0  0  0
   -7.7380   18.6210  -32.7390 C   0  0  0  0  0  0  0  0  0  0  0  0
   -7.6810   20.0250  -32.2060 C   0  0  0  0  0  0  0  0  0  0  0  0
   -8.8200   20.5920  -31.5820 C   0  0  0  0  0  0  0  0  0  0  0  0
   -8.7680   21.8870  -31.0380 C   0  0  0  0  0  0  0  0  0  0  0  0
   -7.5680   22.5860  -31.1310 C   0  0  0  0  0  0  0  0  0  0  0  0
   -7.2310   23.8330  -30.6580 C   0  0  0  0  0  0  0  0  0  0  0  0
   -5.8950   24.0140  -31.0110 C   0  0  0  0  0  0  0  0  0  0  0  0
   -5.1410   25.2580  -30.7460 C   0  0  0  0  0  0  0  0  0  0  0  0
   -3.7480   25.2250  -30.4500 N   0  0  0  0  0  0  0  0  0  0  0  0
   -5.7280   26.3700  -30.8180 O   0  0  0  0  0  0  0  0  0  0  0  0
   -5.4250   22.9190  -31.6740 N   0  0  0  0  0  0  0  0  0  0  0  0
   -4.0870   22.6770  -32.1350 C   0  0  0  0  0  0  0  0  0  0  0  0
   -3.8470   22.3000  -33.4910 N   0  0  0  0  0  0  0  0  0  0  0  0
   -3.1160   22.7900  -31.3400 O   0  0  0  0  0  0  0  0  0  0  0  0
   -6.4600   22.0540  -31.7390 C   0  0  0  0  0  0  0  0  0  0  0  0
   -6.4770   20.7610  -32.2710 C   0  0  0  0  0  0  0  0  0  0  0  0
   -5.5432   17.2732  -31.7858 H   0  0  0  0  0  0  0  0  0  0  0  0
   -5.8270   16.2467  -33.2322 H   0  0  0  0  0  0  0  0  0  0  0  0
   -4.4929   17.4495  -33.2322 H   0  0  0  0  0  0  0  0  0  0  0  0
   -8.5715   18.5363  -33.4518 H   0  0  0  0  0  0  0  0  0  0  0  0
   -7.8889   17.9243  -31.9012 H   0  0  0  0  0  0  0  0  0  0  0  0
   -9.7536   20.0132  -31.5228 H   0  0  0  0  0  0  0  0  0  0  0  0
   -9.6486   22.3343  -30.5537 H   0  0  0  0  0  0  0  0  0  0  0  0
   -7.8787   24.5378  -30.1161 H   0  0  0  0  0  0  0  0  0  0  0  0
   -3.0490   24.9570  -31.1790 H   0  0  0  0  0  0  0  0  0  0  0  0
   -2.8770   22.0960  -33.8180 H   0  0  0  0  0  0  0  0  0  0  0  0
   -4.6320   22.2640  -34.1780 H   0  0  0  0  0  0  0  0  0  0  0  0
   -5.5754   20.3278  -32.7287 H   0  0  0  0  0  0  0  0  0  0  0  0
  1  2  1  0
  2  3  2  0
  2  4  1  0
  4  5  1  0
  5  6  2  0
  6  7  1  0
  7  8  2  0
  8  9  1  0
  9 10  2  0
 10 11  1  0
 11 12  1  0
 11 13  2  0
 10 14  1  0
 14 15  1  0
 15 16  1  0
 15 17  2  0
 14 18  1  0
 18 19  2  0
 19  5  1  0
 18  8  1  0
  1 20  1  0
  1 21  1  0
  1 22  1  0
  4 23  1  0
  4 24  1  0
  6 25  1  0
  7 26  1  0
  9 27  1  0
 12 28  1  0
 16 29  1  0
 16 30  1  0
 19 31  1  0
M  CHG  1  12  -1
M  END
>  <UniqueID>  (28) 
28

>  <SMILES>  (28) 
CC(=O)Cc1ccc2cc(C([NH-])=O)n(C(N)=O)c2c1

>  <Energy>  (28) 
65.57846468041424

>  <Genealogy>  (28) 
CC(=O)Cc1ccc2cc(C([NH-])=O)n(C(N)=O)c2c1 (protonated)
CC(=O)Cc1ccc2cc(C([NH-])=O)n(C(N)=O)c2c1 (3D coordinates assigned)
CC(=O)Cc1ccc2cc(C([NH-])=O)n(C(N)=O)c2c1 (optimized conformer: 65.57846468041424 kcal/mol)

>  <smiles>  (28) 
CC(=O)Cc1ccc2cc(C(N)=O)n(C(N)=O)c2c1

>  <score_type>  (28) 
oracle

>  <origin>  (28) 
adg

>  <m_score__min__energy>  (28) 
-10.56

>  <m_primary>  (28) 
energy

$$$$
29:0
     RDKit          3D

 35 36  0  0  0  0  0  0  0  0999 V2000
   -5.7540   18.5440  -34.8330 C   0  0  0  0  0  0  0  0  0  0  0  0
   -5.4900   18.6240  -33.3140 C   0  0  0  0  0  0  0  0  0  0  0  0
   -6.1220   17.3980  -32.6190 C   0  0  0  0  0  0  0  0  0  0  0  0
   -3.9600   18.5470  -33.0980 C   0  0  0  0  0  0  0  0  0  0  0  0
   -6.1170   19.9150  -32.7510 C   0  0  0  0  0  0  0  0  0  0  0  0
   -7.5290   20.1230  -32.6950 C   0  0  0  0  0  0  0  0  0  0  0  0
   -8.0710   21.3040  -32.1640 C   0  0  0  0  0  0  0  0  0  0  0  0
   -7.1950   22.2760  -31.6990 C   0  0  0  0  0  0  0  0  0  0  0  0
   -7.4570   23.4910  -31.1100 C   0  0  0  0  0  0  0  0  0  0  0  0
   -6.2090   24.0400  -30.8340 C   0  0  0  0  0  0  0  0  0  0  0  0
   -6.0240   25.3850  -30.2530 C   0  0  0  0  0  0  0  0  0  0  0  0
   -6.5260   25.7050  -28.9540 N   0  0  0  0  0  0  0  0  0  0  0  0
   -5.3620   26.2480  -30.8890 O   0  0  0  0  0  0  0  0  0  0  0  0
   -5.2140   23.1940  -31.2220 N   0  0  0  0  0  0  0  0  0  0  0  0
   -3.8010   23.3450  -31.0010 C   0  0  0  0  0  0  0  0  0  0  0  0
   -3.2840   24.5610  -30.4630 N   0  0  0  0  0  0  0  0  0  0  0  0
   -3.0110   22.4030  -31.2710 O   0  0  0  0  0  0  0  0  0  0  0  0
   -5.8370   22.1180  -31.7550 C   0  0  0  0  0  0  0  0  0  0  0  0
   -5.2670   20.9430  -32.2580 C   0  0  0  0  0  0  0  0  0  0  0  0
   -6.7932   18.2291  -35.0085 H   0  0  0  0  0  0  0  0  0  0  0  0
   -5.5889   19.5325  -35.2864 H   0  0  0  0  0  0  0  0  0  0  0  0
   -5.0680   17.8134  -35.2864 H   0  0  0  0  0  0  0  0  0  0  0  0
   -6.0582   17.5218  -31.5278 H   0  0  0  0  0  0  0  0  0  0  0  0
   -7.1773   17.3111  -32.9171 H   0  0  0  0  0  0  0  0  0  0  0  0
   -5.5806   16.4880  -32.9171 H   0  0  0  0  0  0  0  0  0  0  0  0
   -3.7420   18.5360  -32.0199 H   0  0  0  0  0  0  0  0  0  0  0  0
   -3.5702   17.6281  -33.5603 H   0  0  0  0  0  0  0  0  0  0  0  0
   -3.4799   19.4221  -33.5603 H   0  0  0  0  0  0  0  0  0  0  0  0
   -8.2047   19.3427  -33.0753 H   0  0  0  0  0  0  0  0  0  0  0  0
   -9.1595   21.4553  -32.1175 H   0  0  0  0  0  0  0  0  0  0  0  0
   -8.4422   23.9337  -30.9018 H   0  0  0  0  0  0  0  0  0  0  0  0
   -6.4170   26.6720  -28.5750 H   0  0  0  0  0  0  0  0  0  0  0  0
   -6.9300   24.9690  -28.3360 H   0  0  0  0  0  0  0  0  0  0  0  0
   -3.3500   25.4550  -30.9970 H   0  0  0  0  0  0  0  0  0  0  0  0
   -4.1744   20.8161  -32.2719 H   0  0  0  0  0  0  0  0  0  0  0  0
  1  2  1  0
  2  3  1  0
  2  4  1  0
  2  5  1  0
  5  6  2  0
  6  7  1  0
  7  8  2  0
  8  9  1  0
  9 10  2  0
 10 11  1  0
 11 12  1  0
 11 13  2  0
 10 14  1  0
 14 15  1  0
 15 16  1  0
 15 17  2  0
 14 18  1  0
 18 19  2  0
 19  5  1  0
 18  8  1  0
  1 20  1  0
  1 21  1  0
  1 22  1  0
  3 23  1  0
  3 24  1  0
  3 25  1  0
  4 26  1  0
  4 27  1  0
  4 28  1  0
  6 29  1  0
  7 30  1  0
  9 31  1  0
 12 32  1  0
 12 33  1  0
 16 34  1  0
 19 35  1  0
M  CHG  1  16  -1
M  END
>  <UniqueID>  (29) 
29

>  <SMILES>  (29) 
CC(C)(C)c1ccc2cc(C(N)=O)n(C([NH-])=O)c2c1

>  <Energy>  (29) 
75.77555653660671

>  <Genealogy>  (29) 
CC(C)(C)c1ccc2cc(C(N)=O)n(C([NH-])=O)c2c1 (protonated)
CC(C)(C)c1ccc2cc(C(N)=O)n(C([NH-])=O)c2c1 (3D coordinates assigned)
CC(C)(C)c1ccc2cc(C(N)=O)n(C([NH-])=O)c2c1 (optimized conformer: 75.77555653660671 kcal/mol)

>  <smiles>  (29) 
CC(C)(C)c1ccc2cc(C(N)=O)n(C(N)=O)c2c1

>  <score_type>  (29) 
oracle

>  <origin>  (29) 
adg

>  <m_score__min__energy>  (29) 
-9.2599999999999998

>  <m_primary>  (29) 
energy

$$$$
30:0
     RDKit          3D

 33 35  0  0  0  0  0  0  0  0999 V2000
   -1.6380   25.7250  -28.9720 N   0  0  0  0  0  0  0  0  0  0  0  0
   -1.1780   24.4150  -29.2930 C   0  0  0  0  0  0  0  0  0  0  0  0
   -0.0040   24.0790  -28.9790 O   0  0  0  0  0  0  0  0  0  0  0  0
   -2.0710   23.4330  -29.9410 C   0  0  0  0  0  0  0  0  0  0  0  0
   -1.6310   22.2110  -30.4470 C   0  0  0  0  0  0  0  0  0  0  0  0
   -2.7680   21.5610  -30.8700 C   0  0  0  0  0  0  0  0  0  0  0  0
   -2.9180   20.3120  -31.4630 C   0  0  0  0  0  0  0  0  0  0  0  0
   -4.2150   19.9020  -31.8190 C   0  0  0  0  0  0  0  0  0  0  0  0
   -5.3350   20.7450  -31.5830 C   0  0  0  0  0  0  0  0  0  0  0  0
   -6.6990   20.3050  -31.9720 C   0  0  0  0  0  0  0  0  0  0  0  0
   -6.9420   18.9670  -32.3410 C   0  0  0  0  0  0  0  0  0  0  0  0
   -8.2270   18.5560  -32.7050 C   0  0  0  0  0  0  0  0  0  0  0  0
   -9.2820   19.4710  -32.7050 C   0  0  0  0  0  0  0  0  0  0  0  0
   -9.0550   20.7990  -32.3410 C   0  0  0  0  0  0  0  0  0  0  0  0
   -7.7710   21.2170  -31.9760 C   0  0  0  0  0  0  0  0  0  0  0  0
   -5.1370   22.0080  -30.9770 C   0  0  0  0  0  0  0  0  0  0  0  0
   -3.8360   22.3810  -30.6210 C   0  0  0  0  0  0  0  0  0  0  0  0
   -3.4250   23.5370  -30.0570 N   0  0  0  0  0  0  0  0  0  0  0  0
   -4.2550   24.6630  -29.7310 C   0  0  0  0  0  0  0  0  0  0  0  0
   -5.0500   24.6560  -28.5440 N   0  0  0  0  0  0  0  0  0  0  0  0
   -4.2580   25.6790  -30.4750 O   0  0  0  0  0  0  0  0  0  0  0  0
   -2.6560   25.9550  -28.9800 H   0  0  0  0  0  0  0  0  0  0  0  0
   -0.5952   21.8441  -30.4975 H   0  0  0  0  0  0  0  0  0  0  0  0
   -2.0483   19.6644  -31.6479 H   0  0  0  0  0  0  0  0  0  0  0  0
   -4.3648   18.9172  -32.2857 H   0  0  0  0  0  0  0  0  0  0  0  0
   -6.1151   18.2416  -32.3425 H   0  0  0  0  0  0  0  0  0  0  0  0
   -8.4079   17.5097  -32.9921 H   0  0  0  0  0  0  0  0  0  0  0  0
  -10.2925   19.1448  -32.9921 H   0  0  0  0  0  0  0  0  0  0  0  0
   -9.8873   21.5183  -32.3411 H   0  0  0  0  0  0  0  0  0  0  0  0
   -7.5980   22.2651  -31.6903 H   0  0  0  0  0  0  0  0  0  0  0  0
   -5.9864   22.6815  -30.7899 H   0  0  0  0  0  0  0  0  0  0  0  0
   -5.0010   23.8550  -27.8770 H   0  0  0  0  0  0  0  0  0  0  0  0
   -5.6620   25.4710  -28.3150 H   0  0  0  0  0  0  0  0  0  0  0  0
  1  2  1  0
  2  3  2  0
  2  4  1  0
  4  5  2  0
  5  6  1  0
  6  7  2  0
  7  8  1  0
  8  9  2  0
  9 10  1  0
 10 11  2  0
 11 12  1  0
 12 13  2  0
 13 14  1  0
 14 15  2  0
  9 16  1  0
 16 17  2  0
 17 18  1  0
 18 19  1  0
 19 20  1  0
 19 21  2  0
 18  4  1  0
 17  6  1  0
 15 10  1  0
  1 22  1  0
  5 23  1  0
  7 24  1  0
  8 25  1  0
 11 26  1  0
 12 27  1  0
 13 28  1  0
 14 29  1  0
 15 30  1  0
 16 31  1  0
 20 32  1  0
 20 33  1  0
M  CHG  1   1  -1
M  END
>  <UniqueID>  (30) 
30

>  <SMILES>  (30) 
[NH-]C(=O)c1cc2ccc(-c3ccccc3)cc2n1C(N)=O

>  <Energy>  (30) 
79.67024492839785

>  <Genealogy>  (30) 
[NH-]C(=O)c1cc2ccc(-c3ccccc3)cc2n1C(N)=O (protonated)
[NH-]C(=O)c1cc2ccc(-c3ccccc3)cc2n1C(N)=O (3D coordinates assigned)
[NH-]C(=O)c1cc2ccc(-c3ccccc3)cc2n1C(N)=O (optimized conformer: 79.67024492839785 kcal/mol)

>  <smiles>  (30) 
NC(=O)c1cc2ccc(-c3ccccc3)cc2n1C(N)=O

>  <score_type>  (30) 
oracle

>  <origin>  (30) 
adg

>  <m_score__min__energy>  (30) 
-11.09

>  <m_primary>  (30) 
energy

$$$$
31:0
     RDKit          3D

 38 40  0  0  0  0  0  0  0  0999 V2000
   -1.5900   25.7880  -28.9660 N   0  0  0  0  0  0  0  0  0  0  0  0
   -1.1260   24.4580  -29.1780 C   0  0  0  0  0  0  0  0  0  0  0  0
    0.0530   24.1560  -28.8510 O   0  0  0  0  0  0  0  0  0  0  0  0
   -1.9880   23.4460  -29.8220 C   0  0  0  0  0  0  0  0  0  0  0  0
   -1.5140   22.2320  -30.3150 C   0  0  0  0  0  0  0  0  0  0  0  0
   -2.5980   21.6320  -30.9140 C   0  0  0  0  0  0  0  0  0  0  0  0
   -2.6990   20.4060  -31.5640 C   0  0  0  0  0  0  0  0  0  0  0  0
   -3.9530   20.0290  -32.0700 C   0  0  0  0  0  0  0  0  0  0  0  0
   -5.0840   20.8740  -31.9150 C   0  0  0  0  0  0  0  0  0  0  0  0
   -6.4310   20.4400  -32.4650 C   0  0  0  0  0  0  0  0  0  0  0  0
   -7.5410   21.4610  -32.1270 C   0  0  0  0  0  0  0  0  0  0  0  0
   -8.9420   20.8160  -32.0980 C   0  0  0  0  0  0  0  0  0  0  0  0
   -9.0320   19.6740  -33.0170 N   0  0  0  0  0  0  0  0  0  0  0  0
   -8.1440   18.5650  -32.6140 C   0  0  0  0  0  0  0  0  0  0  0  0
   -6.8140   19.0310  -31.9790 C   0  0  0  0  0  0  0  0  0  0  0  0
   -4.9370   22.1150  -31.2490 C   0  0  0  0  0  0  0  0  0  0  0  0
   -3.6730   22.4690  -30.7690 C   0  0  0  0  0  0  0  0  0  0  0  0
   -3.3170   23.5840  -30.0960 N   0  0  0  0  0  0  0  0  0  0  0  0
   -4.1970   24.6460  -29.6910 C   0  0  0  0  0  0  0  0  0  0  0  0
   -5.0280   24.4970  -28.5410 N   0  0  0  0  0  0  0  0  0  0  0  0
   -4.2620   25.7020  -30.3750 O   0  0  0  0  0  0  0  0  0  0  0  0
   -2.6120   26.0060  -28.9610 H   0  0  0  0  0  0  0  0  0  0  0  0
   -0.4901   21.8369  -30.2411 H   0  0  0  0  0  0  0  0  0  0  0  0
   -1.8223   19.7515  -31.6780 H   0  0  0  0  0  0  0  0  0  0  0  0
   -4.0610   19.0673  -32.5930 H   0  0  0  0  0  0  0  0  0  0  0  0
   -6.3334   20.4023  -33.5600 H   0  0  0  0  0  0  0  0  0  0  0  0
   -7.3318   21.8965  -31.1388 H   0  0  0  0  0  0  0  0  0  0  0  0
   -7.5412   22.2299  -32.9136 H   0  0  0  0  0  0  0  0  0  0  0  0
   -9.1538   20.4689  -31.0759 H   0  0  0  0  0  0  0  0  0  0  0  0
   -9.6748   21.5719  -32.4167 H   0  0  0  0  0  0  0  0  0  0  0  0
   -8.7690   19.9940  -33.9790 H   0  0  0  0  0  0  0  0  0  0  0  0
   -8.6781   17.9413  -31.8821 H   0  0  0  0  0  0  0  0  0  0  0  0
   -7.8860   18.0120  -33.5292 H   0  0  0  0  0  0  0  0  0  0  0  0
   -6.9244   19.0462  -30.8847 H   0  0  0  0  0  0  0  0  0  0  0  0
   -6.0201   18.3308  -32.2781 H   0  0  0  0  0  0  0  0  0  0  0  0
   -5.7984   22.7854  -31.1125 H   0  0  0  0  0  0  0  0  0  0  0  0
   -5.6580   25.2740  -28.2410 H   0  0  0  0  0  0  0  0  0  0  0  0
   -5.0400   23.5990  -28.0080 H   0  0  0  0  0  0  0  0  0  0  0  0
  1  2  1  0
  2  3  2  0
  2  4  1  0
  4  5  2  0
  5  6  1  0
  6  7  2  0
  7  8  1  0
  8  9  2  0
  9 10  1  0
 10 11  1  0
 11 12  1  0
 12 13  1  0
 13 14  1  0
 14 15  1  0
  9 16  1  0
 16 17  2  0
 17 18  1  0
 18 19  1  0
 19 20  1  0
 19 21  2  0
 18  4  1  0
 17  6  1  0
 15 10  1  0
  1 22  1  0
  5 23  1  0
  7 24  1  0
  8 25  1  0
 10 26  1  0
 11 27  1  0
 11 28  1  0
 12 29  1  0
 12 30  1  0
 13 31  1  0
 14 32  1  0
 14 33  1  0
 15 34  1  0
 15 35  1  0
 16 36  1  0
 20 37  1  0
 20 38  1  0
M  CHG  1   1  -1
M  END
>  <UniqueID>  (31) 
31

>  <SMILES>  (31) 
[NH-]C(=O)c1cc2ccc(C3CCNCC3)cc2n1C(N)=O

>  <Energy>  (31) 
83.34513535851771

>  <Genealogy>  (31) 
[NH-]C(=O)c1cc2ccc(C3CCNCC3)cc2n1C(N)=O (protonated)
[NH-]C(=O)c1cc2ccc(C3CCNCC3)cc2n1C(N)=O (3D coordinates assigned)
[NH-]C(=O)c1cc2ccc(C3CCNCC3)cc2n1C(N)=O (nonaromatic ring conformer: 83.34513535851771 kcal/mol)

>  <smiles>  (31) 
NC(=O)c1cc2ccc(C3CCNCC3)cc2n1C(N)=O

>  <score_type>  (31) 
oracle

>  <origin>  (31) 
adg

>  <m_score__min__energy>  (31) 
-11.449999999999999

>  <m_primary>  (31) 
energy

$$$$
32:0
     RDKit          3D

 41 44  0  0  0  0  0  0  0  0999 V2000
   -3.9190   25.6640  -30.8430 N   0  0  0  0  0  0  0  0  0  0  0  0
   -5.2530   25.2630  -30.5340 C   0  0  0  0  0  0  0  0  0  0  0  0
   -5.9860   26.0330  -29.8570 O   0  0  0  0  0  0  0  0  0  0  0  0
   -5.7820   23.9620  -30.9980 C   0  0  0  0  0  0  0  0  0  0  0  0
   -7.1160   23.7420  -31.3490 C   0  0  0  0  0  0  0  0  0  0  0  0
   -7.1810   22.4140  -31.7120 C   0  0  0  0  0  0  0  0  0  0  0  0
   -8.2670   21.6500  -32.1270 C   0  0  0  0  0  0  0  0  0  0  0  0
   -8.0460   20.2890  -32.4040 C   0  0  0  0  0  0  0  0  0  0  0  0
   -6.7510   19.7190  -32.2600 C   0  0  0  0  0  0  0  0  0  0  0  0
   -6.5120   18.2810  -32.5200 C   0  0  0  0  0  0  0  0  0  0  0  0
   -5.7450   17.4000  -31.7770 C   0  0  0  0  0  0  0  0  0  0  0  0
   -5.7670   16.1900  -32.3710 N   0  0  0  0  0  0  0  0  0  0  0  0
   -6.5540   16.3910  -33.4460 C   0  0  0  0  0  0  0  0  0  0  0  0
   -6.8640   15.3670  -34.3890 N   0  0  0  0  0  0  0  0  0  0  0  0
   -7.0010   17.6220  -33.5450 O   0  0  0  0  0  0  0  0  0  0  0  0
   -5.6730   20.5340  -31.8430 C   0  0  0  0  0  0  0  0  0  0  0  0
   -5.9250   21.8800  -31.5790 C   0  0  0  0  0  0  0  0  0  0  0  0
   -5.0600   22.8180  -31.1480 N   0  0  0  0  0  0  0  0  0  0  0  0
   -3.6650   22.6230  -30.8950 C   0  0  0  0  0  0  0  0  0  0  0  0
   -3.1620   23.0640  -29.8270 O   0  0  0  0  0  0  0  0  0  0  0  0
   -2.8440   21.9460  -31.8550 N   0  0  0  0  0  0  0  0  0  0  0  0
   -1.4630   21.5740  -31.6060 C   0  0  0  0  0  0  0  0  0  0  0  0
   -0.9270   21.0800  -32.9450 C   0  0  0  0  0  0  0  0  0  0  0  0
   -2.1500   20.8250  -33.8270 C   0  0  0  0  0  0  0  0  0  0  0  0
   -3.2960   21.6020  -33.1920 C   0  0  0  0  0  0  0  0  0  0  0  0
   -3.1010   25.1600  -30.4340 H   0  0  0  0  0  0  0  0  0  0  0  0
   -7.9385   24.4723  -31.3380 H   0  0  0  0  0  0  0  0  0  0  0  0
   -9.2666   22.0962  -32.2350 H   0  0  0  0  0  0  0  0  0  0  0  0
   -8.8840   19.6584  -32.7357 H   0  0  0  0  0  0  0  0  0  0  0  0
   -5.2048   17.6474  -30.8513 H   0  0  0  0  0  0  0  0  0  0  0  0
   -6.1010   14.8040  -34.8230 H   0  0  0  0  0  0  0  0  0  0  0  0
   -7.8510   15.2100  -34.6910 H   0  0  0  0  0  0  0  0  0  0  0  0
   -4.6615   20.1168  -31.7298 H   0  0  0  0  0  0  0  0  0  0  0  0
   -0.8869   22.4444  -31.2587 H   0  0  0  0  0  0  0  0  0  0  0  0
   -1.3821   20.8040  -30.8247 H   0  0  0  0  0  0  0  0  0  0  0  0
   -0.2801   21.8435  -33.4018 H   0  0  0  0  0  0  0  0  0  0  0  0
   -0.3238   20.1682  -32.8232 H   0  0  0  0  0  0  0  0  0  0  0  0
   -1.9650   21.1848  -34.8499 H   0  0  0  0  0  0  0  0  0  0  0  0
   -2.3805   19.7516  -33.8951 H   0  0  0  0  0  0  0  0  0  0  0  0
   -3.5092   22.5127  -33.7710 H   0  0  0  0  0  0  0  0  0  0  0  0
   -4.2232   21.0107  -33.1676 H   0  0  0  0  0  0  0  0  0  0  0  0
  1  2  1  0
  2  3  2  0
  2  4  1  0
  4  5  2  0
  5  6  1  0
  6  7  2  0
  7  8  1  0
  8  9  2  0
  9 10  1  0
 10 11  2  0
 11 12  1  0
 12 13  2  0
 13 14  1  0
 13 15  1  0
  9 16  1  0
 16 17  2  0
 17 18  1  0
 18 19  1  0
 19 20  2  0
 19 21  1  0
 21 22  1  0
 22 23  1  0
 23 24  1  0
 24 25  1  0
 18  4  1  0
 25 21  1  0
 17  6  1  0
 15 10  1  0
  1 26  1  0
  5 27  1  0
  7 28  1  0
  8 29  1  0
 11 30  1  0
 14 31  1  0
 14 32  1  0
 16 33  1  0
 22 34  1  0
 22 35  1  0
 23 36  1  0
 23 37  1  0
 24 38  1  0
 24 39  1  0
 25 40  1  0
 25 41  1  0
M  CHG  1   1  -1
M  END
>  <UniqueID>  (32) 
32

>  <SMILES>  (32) 
[NH-]C(=O)c1cc2ccc(-c3cnc(N)o3)cc2n1C(=O)N1CCCC1

>  <Energy>  (32) 
112.50321196601176

>  <Genealogy>  (32) 
[NH-]C(=O)c1cc2ccc(-c3cnc(N)o3)cc2n1C(=O)N1CCCC1 (protonated)
[NH-]C(=O)c1cc2ccc(-c3cnc(N)o3)cc2n1C(=O)N1CCCC1 (3D coordinates assigned)
[NH-]C(=O)c1cc2ccc(-c3cnc(N)o3)cc2n1C(=O)N1CCCC1 (nonaromatic ring conformer: 112.50321196601176 kcal/mol)

>  <smiles>  (32) 
NC(=O)c1cc2ccc(-c3cnc(N)o3)cc2n1C(=O)N1CCCC1

>  <score_type>  (32) 
oracle

>  <origin>  (32) 
adg

>  <m_score__min__energy>  (32) 
-10.69

>  <m_primary>  (32) 
energy

$$$$
33:0
     RDKit          3D

 57 60  0  0  0  0  0  0  0  0999 V2000
   -3.9440   24.1840  -28.5760 C   0  0  0  0  0  0  0  0  0  0  0  0
   -2.8380   24.7910  -29.2300 O   0  0  0  0  0  0  0  0  0  0  0  0
   -1.7360   25.3040  -28.5380 C   0  0  0  0  0  0  0  0  0  0  0  0
   -1.1610   26.3470  -28.9550 O   0  0  0  0  0  0  0  0  0  0  0  0
   -1.2620   24.6470  -27.2950 C   0  0  0  0  0  0  0  0  0  0  0  0
   -1.0570   25.4410  -26.1480 C   0  0  0  0  0  0  0  0  0  0  0  0
   -0.6790   24.8610  -24.9360 C   0  0  0  0  0  0  0  0  0  0  0  0
   -0.5010   23.4820  -24.8460 C   0  0  0  0  0  0  0  0  0  0  0  0
   -0.6840   22.6780  -25.9710 C   0  0  0  0  0  0  0  0  0  0  0  0
   -1.0500   23.2450  -27.2050 C   0  0  0  0  0  0  0  0  0  0  0  0
   -1.1420   22.3510  -28.3820 C   0  0  0  0  0  0  0  0  0  0  0  0
   -1.9420   21.1980  -28.3360 C   0  0  0  0  0  0  0  0  0  0  0  0
   -2.0340   20.3590  -29.4510 C   0  0  0  0  0  0  0  0  0  0  0  0
   -1.3290   20.6630  -30.6260 C   0  0  0  0  0  0  0  0  0  0  0  0
   -1.4640   19.7830  -31.8410 C   0  0  0  0  0  0  0  0  0  0  0  0
   -1.9530   20.5610  -32.9860 N   0  0  0  0  0  0  0  0  0  0  0  0
   -3.3060   20.9960  -32.7460 C   0  0  0  0  0  0  0  0  0  0  0  0
   -3.5600   22.3110  -32.2760 C   0  0  0  0  0  0  0  0  0  0  0  0
   -4.8710   22.7320  -31.9980 C   0  0  0  0  0  0  0  0  0  0  0  0
   -5.9060   21.8240  -32.1990 C   0  0  0  0  0  0  0  0  0  0  0  0
   -7.2580   21.9600  -31.9810 C   0  0  0  0  0  0  0  0  0  0  0  0
   -7.8140   20.7330  -32.3340 C   0  0  0  0  0  0  0  0  0  0  0  0
   -9.2690   20.4700  -32.3340 C   0  0  0  0  0  0  0  0  0  0  0  0
   -9.8040   19.3090  -32.9640 N   0  0  0  0  0  0  0  0  0  0  0  0
  -10.0540   21.3070  -31.8120 O   0  0  0  0  0  0  0  0  0  0  0  0
   -6.8440   19.8680  -32.7450 N   0  0  0  0  0  0  0  0  0  0  0  0
   -6.9940   18.4850  -33.1020 C   0  0  0  0  0  0  0  0  0  0  0  0
   -7.6450   17.7080  -32.3510 O   0  0  0  0  0  0  0  0  0  0  0  0
   -6.4350   18.0100  -34.2920 O   0  0  0  0  0  0  0  0  0  0  0  0
   -5.5440   16.9030  -34.3340 C   0  0  0  0  0  0  0  0  0  0  0  0
   -5.6810   20.5530  -32.6590 C   0  0  0  0  0  0  0  0  0  0  0  0
   -4.3840   20.0980  -32.9250 C   0  0  0  0  0  0  0  0  0  0  0  0
   -0.5530   21.8310  -30.6810 C   0  0  0  0  0  0  0  0  0  0  0  0
   -0.4590   22.6690  -29.5660 C   0  0  0  0  0  0  0  0  0  0  0  0
   -3.8110   24.2570  -27.4865 H   0  0  0  0  0  0  0  0  0  0  0  0
   -4.8707   24.6999  -28.8676 H   0  0  0  0  0  0  0  0  0  0  0  0
   -4.0065   23.1252  -28.8676 H   0  0  0  0  0  0  0  0  0  0  0  0
   -1.1966   26.5304  -26.2091 H   0  0  0  0  0  0  0  0  0  0  0  0
   -0.5213   25.4938  -24.0502 H   0  0  0  0  0  0  0  0  0  0  0  0
   -0.2157   23.0266  -23.8862 H   0  0  0  0  0  0  0  0  0  0  0  0
   -0.5407   21.5902  -25.8924 H   0  0  0  0  0  0  0  0  0  0  0  0
   -2.4986   20.9537  -27.4192 H   0  0  0  0  0  0  0  0  0  0  0  0
   -2.6617   19.4567  -29.4070 H   0  0  0  0  0  0  0  0  0  0  0  0
   -0.4820   19.3533  -32.0879 H   0  0  0  0  0  0  0  0  0  0  0  0
   -2.1840   18.9808  -31.6217 H   0  0  0  0  0  0  0  0  0  0  0  0
   -1.9220   19.9730  -33.8530 H   0  0  0  0  0  0  0  0  0  0  0  0
   -1.3370   21.3940  -33.1370 H   0  0  0  0  0  0  0  0  0  0  0  0
   -2.7216   23.0076  -32.1279 H   0  0  0  0  0  0  0  0  0  0  0  0
   -5.0734   23.7495  -31.6322 H   0  0  0  0  0  0  0  0  0  0  0  0
   -7.7871   22.8491  -31.6073 H   0  0  0  0  0  0  0  0  0  0  0  0
   -9.1930   18.6700  -33.5200 H   0  0  0  0  0  0  0  0  0  0  0  0
   -5.2950   16.5936  -33.3082 H   0  0  0  0  0  0  0  0  0  0  0  0
   -6.0235   16.0663  -34.8632 H   0  0  0  0  0  0  0  0  0  0  0  0
   -4.6241   17.1926  -34.8632 H   0  0  0  0  0  0  0  0  0  0  0  0
   -4.2075   19.0669  -33.2650 H   0  0  0  0  0  0  0  0  0  0  0  0
   -0.0161   22.0884  -31.6059 H   0  0  0  0  0  0  0  0  0  0  0  0
    0.1530   23.5816  -29.6169 H   0  0  0  0  0  0  0  0  0  0  0  0
  1  2  1  0
  2  3  1  0
  3  4  2  0
  3  5  1  0
  5  6  2  0
  6  7  1  0
  7  8  2  0
  8  9  1  0
  9 10  2  0
 10 11  1  0
 11 12  2  0
 12 13  1  0
 13 14  2  0
 14 15  1  0
 15 16  1  0
 16 17  1  0
 17 18  2  0
 18 19  1  0
 19 20  2  0
 20 21  1  0
 21 22  2  0
 22 23  1  0
 23 24  1  0
 23 25  2  0
 22 26  1  0
 26 27  1  0
 27 28  2  0
 27 29  1  0
 29 30  1  0
 26 31  1  0
 31 32  2  0
 14 33  1  0
 33 34  2  0
 10  5  1  0
 34 11  1  0
 32 17  1  0
 31 20  1  0
  1 35  1  0
  1 36  1  0
  1 37  1  0
  6 38  1  0
  7 39  1  0
  8 40  1  0
  9 41  1  0
 12 42  1  0
 13 43  1  0
 15 44  1  0
 15 45  1  0
 16 46  1  0
 16 47  1  0
 18 48  1  0
 19 49  1  0
 21 50  1  0
 24 51  1  0
 30 52  1  0
 30 53  1  0
 30 54  1  0
 32 55  1  0
 33 56  1  0
 34 57  1  0
M  CHG  2  16   1  24  -1
M  END
>  <UniqueID>  (33) 
33

>  <SMILES>  (33) 
COC(=O)c1ccccc1-c1ccc(C[NH2+]c2ccc3cc(C([NH-])=O)n(C(=O)OC)c3c2)cc1

>  <Energy>  (33) 
106.52395610498719

>  <Genealogy>  (33) 
COC(=O)c1ccccc1-c1ccc(C[NH2+]c2ccc3cc(C([NH-])=O)n(C(=O)OC)c3c2)cc1 (protonated)
COC(=O)c1ccccc1-c1ccc(C[NH2+]c2ccc3cc(C([NH-])=O)n(C(=O)OC)c3c2)cc1 (3D coordinates assigned)
COC(=O)c1ccccc1-c1ccc(C[NH2+]c2ccc3cc(C([NH-])=O)n(C(=O)OC)c3c2)cc1 (optimized conformer: 106.52395610498719 kcal/mol)

>  <smiles>  (33) 
COC(=O)c1ccccc1-c1ccc(CNc2ccc3cc(C(N)=O)n(C(=O)OC)c3c2)cc1

>  <score_type>  (33) 
oracle

>  <origin>  (33) 
adg

>  <m_score__min__energy>  (33) 
-10.880000000000001

>  <m_primary>  (33) 
energy

$$$$
34:0
     RDKit          3D

 32 33  0  0  0  0  0  0  0  0999 V2000
   -6.4840   17.3260  -32.4250 C   0  0  0  0  0  0  0  0  0  0  0  0
   -6.8600   18.3990  -33.4530 C   0  0  0  0  0  0  0  0  0  0  0  0
   -5.7890   18.5170  -34.5440 C   0  0  0  0  0  0  0  0  0  0  0  0
   -7.1070   19.7370  -32.7820 C   0  0  0  0  0  0  0  0  0  0  0  0
   -8.4290   20.1830  -32.5100 C   0  0  0  0  0  0  0  0  0  0  0  0
   -8.6580   21.4270  -31.9010 C   0  0  0  0  0  0  0  0  0  0  0  0
   -7.5530   22.2020  -31.5670 C   0  0  0  0  0  0  0  0  0  0  0  0
   -7.4920   23.4540  -31.0010 C   0  0  0  0  0  0  0  0  0  0  0  0
   -6.1350   23.7490  -30.9060 C   0  0  0  0  0  0  0  0  0  0  0  0
   -5.6150   24.9840  -30.2860 C   0  0  0  0  0  0  0  0  0  0  0  0
   -6.1190   25.4510  -29.0330 N   0  0  0  0  0  0  0  0  0  0  0  0
   -4.7520   25.6680  -30.8970 O   0  0  0  0  0  0  0  0  0  0  0  0
   -5.3830   22.7270  -31.4050 N   0  0  0  0  0  0  0  0  0  0  0  0
   -3.9580   22.7000  -31.5920 C   0  0  0  0  0  0  0  0  0  0  0  0
   -3.1190   23.5850  -30.8520 N   0  0  0  0  0  0  0  0  0  0  0  0
   -3.4410   21.9050  -32.4210 O   0  0  0  0  0  0  0  0  0  0  0  0
   -6.2680   21.7840  -31.8030 C   0  0  0  0  0  0  0  0  0  0  0  0
   -6.0110   20.5580  -32.4270 C   0  0  0  0  0  0  0  0  0  0  0  0
   -6.6241   17.7257  -31.4098 H   0  0  0  0  0  0  0  0  0  0  0  0
   -7.1267   16.4441  -32.5637 H   0  0  0  0  0  0  0  0  0  0  0  0
   -5.4314   17.0381  -32.5637 H   0  0  0  0  0  0  0  0  0  0  0  0
   -7.7984   18.0879  -33.9354 H   0  0  0  0  0  0  0  0  0  0  0  0
   -4.7994   18.6260  -34.0761 H   0  0  0  0  0  0  0  0  0  0  0  0
   -5.8013   17.6121  -35.1693 H   0  0  0  0  0  0  0  0  0  0  0  0
   -5.9980   19.3976  -35.1693 H   0  0  0  0  0  0  0  0  0  0  0  0
   -9.2836   19.5452  -32.7802 H   0  0  0  0  0  0  0  0  0  0  0  0
   -9.6799   21.7777  -31.6945 H   0  0  0  0  0  0  0  0  0  0  0  0
   -8.3358   24.0873  -30.6897 H   0  0  0  0  0  0  0  0  0  0  0  0
   -5.7130   26.3050  -28.5910 H   0  0  0  0  0  0  0  0  0  0  0  0
   -6.9450   25.0000  -28.5830 H   0  0  0  0  0  0  0  0  0  0  0  0
   -3.1090   24.6090  -31.0530 H   0  0  0  0  0  0  0  0  0  0  0  0
   -4.9792   20.2396  -32.6369 H   0  0  0  0  0  0  0  0  0  0  0  0
  1  2  1  0
  2  3  1  0
  2  4  1  0
  4  5  2  0
  5  6  1  0
  6  7  2  0
  7  8  1  0
  8  9  2  0
  9 10  1  0
 10 11  1  0
 10 12  2  0
  9 13  1  0
 13 14  1  0
 14 15  1  0
 14 16  2  0
 13 17  1  0
 17 18  2  0
 18  4  1  0
 17  7  1  0
  1 19  1  0
  1 20  1  0
  1 21  1  0
  2 22  1  0
  3 23  1  0
  3 24  1  0
  3 25  1  0
  5 26  1  0
  6 27  1  0
  8 28  1  0
 11 29  1  0
 11 30  1  0
 15 31  1  0
 18 32  1  0
M  CHG  1  15  -1
M  END
>  <UniqueID>  (34) 
34

>  <SMILES>  (34) 
CC(C)c1ccc2cc(C(N)=O)n(C([NH-])=O)c2c1

>  <Energy>  (34) 
68.19488888387647

>  <Genealogy>  (34) 
CC(C)c1ccc2cc(C(N)=O)n(C([NH-])=O)c2c1 (protonated)
CC(C)c1ccc2cc(C(N)=O)n(C([NH-])=O)c2c1 (3D coordinates assigned)
CC(C)c1ccc2cc(C(N)=O)n(C([NH-])=O)c2c1 (optimized conformer: 68.19488888387647 kcal/mol)

>  <smiles>  (34) 
CC(C)c1ccc2cc(C(N)=O)n(C(N)=O)c2c1

>  <score_type>  (34) 
oracle

>  <origin>  (34) 
adg

>  <m_score__min__energy>  (34) 
-9.0399999999999991

>  <m_primary>  (34) 
energy

$$$$
35:0
     RDKit          3D

 49 52  0  0  0  0  0  0  0  0999 V2000
   -3.6750   25.2680  -30.3480 N   0  0  0  0  0  0  0  0  0  0  0  0
   -5.0990   25.3230  -30.3710 C   0  0  0  0  0  0  0  0  0  0  0  0
   -5.6780   26.4170  -30.1370 O   0  0  0  0  0  0  0  0  0  0  0  0
   -5.9010   24.1310  -30.7180 C   0  0  0  0  0  0  0  0  0  0  0  0
   -7.2880   24.1500  -30.8440 C   0  0  0  0  0  0  0  0  0  0  0  0
   -7.6320   22.8890  -31.2760 C   0  0  0  0  0  0  0  0  0  0  0  0
   -8.8830   22.3500  -31.5640 C   0  0  0  0  0  0  0  0  0  0  0  0
   -8.9420   21.0080  -31.9770 C   0  0  0  0  0  0  0  0  0  0  0  0
   -7.7600   20.2340  -32.0970 C   0  0  0  0  0  0  0  0  0  0  0  0
   -7.8380   18.7870  -32.5290 C   0  0  0  0  0  0  0  0  0  0  0  0
   -6.5250   18.1960  -33.0960 C   0  0  2  0  0  0  0  0  0  0  0  0
   -5.9700   18.8820  -34.3120 C   0  0  0  0  0  0  0  0  0  0  0  0
   -5.1320   17.7860  -34.9490 C   0  0  0  0  0  0  0  0  0  0  0  0
   -5.5550   16.5260  -34.4720 O   0  0  0  0  0  0  0  0  0  0  0  0
   -6.5970   16.7480  -33.5490 C   0  0  0  0  0  0  0  0  0  0  0  0
   -6.5110   20.8130  -31.7780 C   0  0  0  0  0  0  0  0  0  0  0  0
   -6.4800   22.1560  -31.3910 C   0  0  0  0  0  0  0  0  0  0  0  0
   -5.4090   22.9030  -31.0460 N   0  0  0  0  0  0  0  0  0  0  0  0
   -4.0460   22.4570  -30.9920 C   0  0  0  0  0  0  0  0  0  0  0  0
   -3.1450   23.1180  -31.5750 O   0  0  0  0  0  0  0  0  0  0  0  0
   -3.7260   21.2960  -30.2770 O   0  0  0  0  0  0  0  0  0  0  0  0
   -2.7040   21.2480  -29.2850 C   0  0  0  0  0  0  0  0  0  0  0  0
   -2.6970   22.5220  -28.4850 C   0  0  0  0  0  0  0  0  0  0  0  0
   -1.5410   23.3190  -28.4470 C   0  0  0  0  0  0  0  0  0  0  0  0
   -1.5380   24.5220  -27.7350 C   0  0  0  0  0  0  0  0  0  0  0  0
   -2.6890   24.9400  -27.0610 C   0  0  0  0  0  0  0  0  0  0  0  0
   -3.8450   24.1550  -27.1000 C   0  0  0  0  0  0  0  0  0  0  0  0
   -3.8520   22.9510  -27.8100 C   0  0  0  0  0  0  0  0  0  0  0  0
   -3.1210   25.2850  -31.2330 H   0  0  0  0  0  0  0  0  0  0  0  0
   -7.9646   24.9933  -30.6414 H   0  0  0  0  0  0  0  0  0  0  0  0
   -9.7966   22.9556  -31.4712 H   0  0  0  0  0  0  0  0  0  0  0  0
   -9.9160   20.5529  -32.2098 H   0  0  0  0  0  0  0  0  0  0  0  0
   -8.1319   18.1866  -31.6554 H   0  0  0  0  0  0  0  0  0  0  0  0
   -8.5676   18.7533  -33.3515 H   0  0  0  0  0  0  0  0  0  0  0  0
   -5.8930   18.3338  -32.2063 H   0  0  0  0  0  0  0  0  0  0  0  0
   -6.7748   19.2105  -34.9860 H   0  0  0  0  0  0  0  0  0  0  0  0
   -5.3999   19.7940  -34.0811 H   0  0  0  0  0  0  0  0  0  0  0  0
   -5.2519   17.8224  -36.0418 H   0  0  0  0  0  0  0  0  0  0  0  0
   -4.0742   17.9380  -34.6884 H   0  0  0  0  0  0  0  0  0  0  0  0
   -7.5678   16.5553  -34.0290 H   0  0  0  0  0  0  0  0  0  0  0  0
   -6.4927   16.0731  -32.6867 H   0  0  0  0  0  0  0  0  0  0  0  0
   -5.5854   20.2212  -31.8329 H   0  0  0  0  0  0  0  0  0  0  0  0
   -2.8899   20.3976  -28.6125 H   0  0  0  0  0  0  0  0  0  0  0  0
   -1.7287   21.1291  -29.7796 H   0  0  0  0  0  0  0  0  0  0  0  0
   -0.6346   22.9953  -28.9796 H   0  0  0  0  0  0  0  0  0  0  0  0
   -0.6288   25.1404  -27.7051 H   0  0  0  0  0  0  0  0  0  0  0  0
   -2.6851   25.8863  -26.5001 H   0  0  0  0  0  0  0  0  0  0  0  0
   -4.7510   24.4855  -26.5709 H   0  0  0  0  0  0  0  0  0  0  0  0
   -4.7646   22.3376  -27.8403 H   0  0  0  0  0  0  0  0  0  0  0  0
  1  2  1  0
  2  3  2  0
  2  4  1  0
  4  5  2  0
  5  6  1  0
  6  7  2  0
  7  8  1  0
  8  9  2  0
  9 10  1  0
 10 11  1  0
 11 12  1  0
 12 13  1  0
 13 14  1  0
 14 15  1  0
  9 16  1  0
 16 17  2  0
 17 18  1  0
 18 19  1  0
 19 20  2  0
 19 21  1  0
 21 22  1  0
 22 23  1  0
 23 24  2  0
 24 25  1  0
 25 26  2  0
 26 27  1  0
 27 28  2  0
 18  4  1  0
 28 23  1  0
 17  6  1  0
 15 11  1  0
  1 29  1  0
  5 30  1  0
  7 31  1  0
  8 32  1  0
 10 33  1  0
 10 34  1  0
 11 35  1  1
 12 36  1  0
 12 37  1  0
 13 38  1  0
 13 39  1  0
 15 40  1  0
 15 41  1  0
 16 42  1  0
 22 43  1  0
 22 44  1  0
 24 45  1  0
 25 46  1  0
 26 47  1  0
 27 48  1  0
 28 49  1  0
M  CHG  1   1  -1
M  END
>  <UniqueID>  (35) 
35

>  <SMILES>  (35) 
[NH-]C(=O)c1cc2ccc(C[C@@H]3CCOC3)cc2n1C(=O)OCc1ccccc1

>  <Energy>  (35) 
90.5105391140345

>  <Genealogy>  (35) 
[NH-]C(=O)c1cc2ccc(CC3CCOC3)cc2n1C(=O)OCc1ccccc1 (protonated)
[NH-]C(=O)c1cc2ccc(C[C@@H]3CCOC3)cc2n1C(=O)OCc1ccccc1 (chirality)
[NH-]C(=O)c1cc2ccc(C[C@@H]3CCOC3)cc2n1C(=O)OCc1ccccc1 (3D coordinates assigned)
[NH-]C(=O)c1cc2ccc(C[C@@H]3CCOC3)cc2n1C(=O)OCc1ccccc1 (nonaromatic ring conformer: 90.5105391140345 kcal/mol)

>  <smiles>  (35) 
NC(=O)c1cc2ccc(CC3CCOC3)cc2n1C(=O)OCc1ccccc1

>  <score_type>  (35) 
oracle

>  <origin>  (35) 
adg

>  <m_score__min__energy>  (35) 
-12.31

>  <m_primary>  (35) 
energy

$$$$
36:0
     RDKit          3D

 28 30  0  0  0  0  0  0  0  0999 V2000
   -1.6040   25.7680  -28.9610 N   0  0  0  0  0  0  0  0  0  0  0  0
   -1.0430   24.4680  -29.1330 C   0  0  0  0  0  0  0  0  0  0  0  0
    0.0900   24.2160  -28.6430 O   0  0  0  0  0  0  0  0  0  0  0  0
   -1.7460   23.4350  -29.9210 C   0  0  0  0  0  0  0  0  0  0  0  0
   -1.1540   22.2340  -30.3060 C   0  0  0  0  0  0  0  0  0  0  0  0
   -2.0910   21.5990  -31.0880 C   0  0  0  0  0  0  0  0  0  0  0  0
   -2.0350   20.3660  -31.7260 C   0  0  0  0  0  0  0  0  0  0  0  0
   -3.1650   19.9440  -32.4460 C   0  0  0  0  0  0  0  0  0  0  0  0
   -4.3320   20.7460  -32.5120 C   0  0  0  0  0  0  0  0  0  0  0  0
   -5.5100   20.2020  -33.3020 C   0  0  0  0  0  0  0  0  0  0  0  0
   -6.9070   20.5290  -32.7900 C   0  0  0  0  0  0  0  0  0  0  0  0
   -6.3500   19.1180  -32.6410 C   0  0  0  0  0  0  0  0  0  0  0  0
   -4.3460   22.0000  -31.8440 C   0  0  0  0  0  0  0  0  0  0  0  0
   -3.1990   22.4040  -31.1520 C   0  0  0  0  0  0  0  0  0  0  0  0
   -3.0040   23.5340  -30.4370 N   0  0  0  0  0  0  0  0  0  0  0  0
   -3.9710   24.5720  -30.2090 C   0  0  0  0  0  0  0  0  0  0  0  0
   -3.8760   25.6730  -30.8110 O   0  0  0  0  0  0  0  0  0  0  0  0
   -5.0070   24.3790  -29.3040 O   0  0  0  0  0  0  0  0  0  0  0  0
   -2.6380   25.9130  -28.9740 H   0  0  0  0  0  0  0  0  0  0  0  0
   -0.1502   21.8705  -30.0409 H   0  0  0  0  0  0  0  0  0  0  0  0
   -1.1329   19.7391  -31.6690 H   0  0  0  0  0  0  0  0  0  0  0  0
   -3.1439   18.9755  -32.9670 H   0  0  0  0  0  0  0  0  0  0  0  0
   -4.9917   20.3061  -34.2666 H   0  0  0  0  0  0  0  0  0  0  0  0
   -7.0324   21.1675  -31.9031 H   0  0  0  0  0  0  0  0  0  0  0  0
   -7.8155   20.9644  -33.2316 H   0  0  0  0  0  0  0  0  0  0  0  0
   -6.0737   18.7380  -31.6464 H   0  0  0  0  0  0  0  0  0  0  0  0
   -6.6903   18.1128  -32.9305 H   0  0  0  0  0  0  0  0  0  0  0  0
   -5.2402   22.6400  -31.8704 H   0  0  0  0  0  0  0  0  0  0  0  0
  1  2  1  0
  2  3  2  0
  2  4  1  0
  4  5  2  0
  5  6  1  0
  6  7  2  0
  7  8  1  0
  8  9  2  0
  9 10  1  0
 10 11  1  0
 11 12  1  0
  9 13  1  0
 13 14  2  0
 14 15  1  0
 15 16  1  0
 16 17  2  0
 16 18  1  0
 15  4  1  0
 14  6  1  0
 12 10  1  0
  1 19  1  0
  5 20  1  0
  7 21  1  0
  8 22  1  0
 10 23  1  0
 11 24  1  0
 11 25  1  0
 12 26  1  0
 12 27  1  0
 13 28  1  0
M  CHG  2   1  -1  18  -1
M  END
>  <UniqueID>  (36) 
36

>  <SMILES>  (36) 
[NH-]C(=O)c1cc2ccc(C3CC3)cc2n1C(=O)[O-]

>  <Energy>  (36) 
337.13484865380445

>  <Genealogy>  (36) 
[NH-]C(=O)c1cc2ccc(C3CC3)cc2n1C(=O)[O-] (protonated)
[NH-]C(=O)c1cc2ccc(C3CC3)cc2n1C(=O)[O-] (3D coordinates assigned)
[NH-]C(=O)c1cc2ccc(C3CC3)cc2n1C(=O)[O-] (nonaromatic ring conformer: 337.13484865380445 kcal/mol)

>  <smiles>  (36) 
NC(=O)c1cc2ccc(C3CC3)cc2n1C(=O)O

>  <score_type>  (36) 
oracle

>  <origin>  (36) 
adg

>  <m_score__min__energy>  (36) 
-10.66

>  <m_primary>  (36) 
energy

$$$$
37:0
     RDKit          3D

 34 36  0  0  0  0  0  0  0  0999 V2000
   -4.7630   14.3080  -31.2830 N   0  0  0  0  0  0  0  0  0  0  0  0
   -4.9360   15.2170  -31.9780 C   0  0  0  0  0  0  0  0  0  0  0  0
   -5.1500   16.3470  -32.8430 C   0  0  0  0  0  0  0  0  0  0  0  0
   -4.8720   16.2450  -34.2110 C   0  0  0  0  0  0  0  0  0  0  0  0
   -5.0840   17.3400  -35.0510 C   0  0  0  0  0  0  0  0  0  0  0  0
   -5.5760   18.5410  -34.5300 C   0  0  0  0  0  0  0  0  0  0  0  0
   -5.8610   18.6590  -33.1570 C   0  0  0  0  0  0  0  0  0  0  0  0
   -6.3820   19.9340  -32.6030 C   0  0  0  0  0  0  0  0  0  0  0  0
   -7.7810   20.1650  -32.5290 C   0  0  0  0  0  0  0  0  0  0  0  0
   -8.2850   21.3730  -32.0190 C   0  0  0  0  0  0  0  0  0  0  0  0
   -7.3740   22.3280  -31.5810 C   0  0  0  0  0  0  0  0  0  0  0  0
   -7.5900   23.5880  -31.0760 C   0  0  0  0  0  0  0  0  0  0  0  0
   -6.3220   24.1030  -30.8190 C   0  0  0  0  0  0  0  0  0  0  0  0
   -6.0930   25.4240  -30.2010 C   0  0  0  0  0  0  0  0  0  0  0  0
   -6.7390   25.7910  -28.9800 N   0  0  0  0  0  0  0  0  0  0  0  0
   -5.3620   26.2640  -30.7880 O   0  0  0  0  0  0  0  0  0  0  0  0
   -5.3570   23.2040  -31.1640 N   0  0  0  0  0  0  0  0  0  0  0  0
   -3.9330   23.4040  -31.1620 C   0  0  0  0  0  0  0  0  0  0  0  0
   -3.3660   24.5190  -30.4770 N   0  0  0  0  0  0  0  0  0  0  0  0
   -3.1780   22.6040  -31.7740 O   0  0  0  0  0  0  0  0  0  0  0  0
   -6.0190   22.1190  -31.6250 C   0  0  0  0  0  0  0  0  0  0  0  0
   -5.4880   20.9320  -32.1480 C   0  0  0  0  0  0  0  0  0  0  0  0
   -5.6430   17.5500  -32.3180 C   0  0  0  0  0  0  0  0  0  0  0  0
   -4.4862   15.3015  -34.6246 H   0  0  0  0  0  0  0  0  0  0  0  0
   -4.8634   17.2578  -36.1255 H   0  0  0  0  0  0  0  0  0  0  0  0
   -5.7413   19.3992  -35.1980 H   0  0  0  0  0  0  0  0  0  0  0  0
   -8.4788   19.3884  -32.8753 H   0  0  0  0  0  0  0  0  0  0  0  0
   -9.3681   21.5580  -31.9676 H   0  0  0  0  0  0  0  0  0  0  0  0
   -8.5579   24.0837  -30.9103 H   0  0  0  0  0  0  0  0  0  0  0  0
   -7.4750   25.1840  -28.5570 H   0  0  0  0  0  0  0  0  0  0  0  0
   -6.5380   26.7150  -28.5390 H   0  0  0  0  0  0  0  0  0  0  0  0
   -3.3550   25.4680  -30.9130 H   0  0  0  0  0  0  0  0  0  0  0  0
   -4.4000   20.7796  -32.2035 H   0  0  0  0  0  0  0  0  0  0  0  0
   -5.8610   17.6277  -31.2426 H   0  0  0  0  0  0  0  0  0  0  0  0
  1  2  3  0
  2  3  1  0
  3  4  2  0
  4  5  1  0
  5  6  2  0
  6  7  1  0
  7  8  1  0
  8  9  2  0
  9 10  1  0
 10 11  2  0
 11 12  1  0
 12 13  2  0
 13 14  1  0
 14 15  1  0
 14 16  2  0
 13 17  1  0
 17 18  1  0
 18 19  1  0
 18 20  2  0
 17 21  1  0
 21 22  2  0
  7 23  2  0
 23  3  1  0
 22  8  1  0
 21 11  1  0
  4 24  1  0
  5 25  1  0
  6 26  1  0
  9 27  1  0
 10 28  1  0
 12 29  1  0
 15 30  1  0
 15 31  1  0
 19 32  1  0
 22 33  1  0
 23 34  1  0
M  CHG  1  19  -1
M  END
>  <UniqueID>  (37) 
37

>  <SMILES>  (37) 
N#Cc1cccc(-c2ccc3cc(C(N)=O)n(C([NH-])=O)c3c2)c1

>  <Energy>  (37) 
80.90992449354705

>  <Genealogy>  (37) 
N#Cc1cccc(-c2ccc3cc(C(N)=O)n(C([NH-])=O)c3c2)c1 (protonated)
N#Cc1cccc(-c2ccc3cc(C(N)=O)n(C([NH-])=O)c3c2)c1 (3D coordinates assigned)
N#Cc1cccc(-c2ccc3cc(C(N)=O)n(C([NH-])=O)c3c2)c1 (optimized conformer: 80.90992449354705 kcal/mol)

>  <smiles>  (37) 
N#Cc1cccc(-c2ccc3cc(C(N)=O)n(C(N)=O)c3c2)c1

>  <score_type>  (37) 
oracle

>  <origin>  (37) 
adg

>  <m_score__min__energy>  (37) 
-10.07

>  <m_primary>  (37) 
energy

$$$$
38:0
     RDKit          3D

 28 30  0  0  0  0  0  0  0  0999 V2000
   -4.9730   16.3010  -34.6560 N   0  0  0  0  0  0  0  0  0  0  0  0
   -6.1480   16.7730  -33.9920 C   0  0  0  0  0  0  0  0  0  0  0  0
   -7.1440   16.0090  -33.8920 O   0  0  0  0  0  0  0  0  0  0  0  0
   -6.2120   18.1530  -33.4600 C   0  0  0  0  0  0  0  0  0  0  0  0
   -7.3920   18.7780  -33.0640 C   0  0  0  0  0  0  0  0  0  0  0  0
   -7.0070   19.9930  -32.5500 C   0  0  0  0  0  0  0  0  0  0  0  0
   -7.7760   21.0240  -32.0220 C   0  0  0  0  0  0  0  0  0  0  0  0
   -7.1160   22.1850  -31.5890 C   0  0  0  0  0  0  0  0  0  0  0  0
   -5.7040   22.3050  -31.6950 C   0  0  0  0  0  0  0  0  0  0  0  0
   -5.0180   23.5430  -31.2460 C   0  0  0  0  0  0  0  0  0  0  0  0
   -5.5280   24.8280  -31.2020 C   0  0  0  0  0  0  0  0  0  0  0  0
   -4.5830   25.6640  -30.7320 N   0  0  0  0  0  0  0  0  0  0  0  0
   -3.4900   24.9630  -30.4720 N   0  0  0  0  0  0  0  0  0  0  0  0
   -3.7240   23.6730  -30.7750 C   0  0  0  0  0  0  0  0  0  0  0  0
   -4.9590   21.2300  -32.2400 C   0  0  0  0  0  0  0  0  0  0  0  0
   -5.6430   20.0770  -32.6450 C   0  0  0  0  0  0  0  0  0  0  0  0
   -5.1380   18.9530  -33.2030 N   0  0  0  0  0  0  0  0  0  0  0  0
   -3.7580   18.6980  -33.5150 C   0  0  0  0  0  0  0  0  0  0  0  0
   -3.1280   19.4650  -34.2890 O   0  0  0  0  0  0  0  0  0  0  0  0
   -3.1010   17.6100  -32.9540 O   0  0  0  0  0  0  0  0  0  0  0  0
   -4.9530   15.3390  -35.0620 H   0  0  0  0  0  0  0  0  0  0  0  0
   -4.1100   16.8840  -34.7110 H   0  0  0  0  0  0  0  0  0  0  0  0
   -8.4153   18.3828  -33.1454 H   0  0  0  0  0  0  0  0  0  0  0  0
   -8.8695   20.9327  -31.9458 H   0  0  0  0  0  0  0  0  0  0  0  0
   -7.7001   23.0134  -31.1617 H   0  0  0  0  0  0  0  0  0  0  0  0
   -6.5447   25.1206  -31.5033 H   0  0  0  0  0  0  0  0  0  0  0  0
   -3.0005   22.8517  -30.6654 H   0  0  0  0  0  0  0  0  0  0  0  0
   -3.8660   21.2996  -32.3429 H   0  0  0  0  0  0  0  0  0  0  0  0
  1  2  1  0
  2  3  2  0
  2  4  1  0
  4  5  2  0
  5  6  1  0
  6  7  2  0
  7  8  1  0
  8  9  2  0
  9 10  1  0
 10 11  1  0
 11 12  2  0
 12 13  1  0
 13 14  1  0
  9 15  1  0
 15 16  2  0
 16 17  1  0
 17 18  1  0
 18 19  2  0
 18 20  1  0
 17  4  1  0
 16  6  1  0
 14 10  2  0
  1 21  1  0
  1 22  1  0
  5 23  1  0
  7 24  1  0
  8 25  1  0
 11 26  1  0
 14 27  1  0
 15 28  1  0
M  CHG  2  13  -1  20  -1
M  END
>  <UniqueID>  (38) 
38

>  <SMILES>  (38) 
NC(=O)c1cc2ccc(-c3cn[n-]c3)cc2n1C(=O)[O-]

>  <Energy>  (38) 
101.71917077632483

>  <Genealogy>  (38) 
NC(=O)c1cc2ccc(-c3cn[n-]c3)cc2n1C(=O)[O-] (protonated)
NC(=O)c1cc2ccc(-c3cn[n-]c3)cc2n1C(=O)[O-] (3D coordinates assigned)
NC(=O)c1cc2ccc(-c3cn[n-]c3)cc2n1C(=O)[O-] (optimized conformer: 101.71917077632483 kcal/mol)

>  <smiles>  (38) 
NC(=O)c1cc2ccc(-c3cn[nH]c3)cc2n1C(=O)O

>  <score_type>  (38) 
oracle

>  <origin>  (38) 
adg

>  <m_score__min__energy>  (38) 
-8.8699999999999992

>  <m_primary>  (38) 
energy

$$$$
39:0
     RDKit          3D

 43 45  0  0  0  0  0  0  0  0999 V2000
   -4.4900   14.1960  -34.6030 C   0  0  0  0  0  0  0  0  0  0  0  0
   -4.7510   14.8270  -33.2680 C   0  0  0  0  0  0  0  0  0  0  0  0
   -4.4350   14.1860  -32.2290 O   0  0  0  0  0  0  0  0  0  0  0  0
   -5.3270   16.1470  -33.1580 N   0  0  0  0  0  0  0  0  0  0  0  0
   -5.4220   17.0130  -34.3450 C   0  0  0  0  0  0  0  0  0  0  0  0
   -5.7750   18.4550  -33.9670 C   0  0  0  0  0  0  0  0  0  0  0  0
   -7.0450   18.5090  -33.0920 C   0  0  0  0  0  0  0  0  0  0  0  0
   -7.2370   19.9060  -32.5300 C   0  0  0  0  0  0  0  0  0  0  0  0
   -8.5340   20.4760  -32.4750 C   0  0  0  0  0  0  0  0  0  0  0  0
   -8.7250   21.7800  -31.9890 C   0  0  0  0  0  0  0  0  0  0  0  0
   -7.6080   22.4880  -31.5600 C   0  0  0  0  0  0  0  0  0  0  0  0
   -7.5130   23.7670  -31.0660 C   0  0  0  0  0  0  0  0  0  0  0  0
   -6.1580   23.9660  -30.8260 C   0  0  0  0  0  0  0  0  0  0  0  0
   -5.6190   25.2170  -30.2710 C   0  0  0  0  0  0  0  0  0  0  0  0
   -6.1520   25.7730  -29.0700 N   0  0  0  0  0  0  0  0  0  0  0  0
   -4.6260   25.7630  -30.8230 O   0  0  0  0  0  0  0  0  0  0  0  0
   -5.4370   22.8480  -31.1270 N   0  0  0  0  0  0  0  0  0  0  0  0
   -4.0400   22.6110  -30.8540 C   0  0  0  0  0  0  0  0  0  0  0  0
   -3.1140   23.6950  -30.8270 N   0  0  0  0  0  0  0  0  0  0  0  0
   -3.6120   21.4410  -30.6730 O   0  0  0  0  0  0  0  0  0  0  0  0
   -6.3440   21.9530  -31.5910 C   0  0  0  0  0  0  0  0  0  0  0  0
   -6.1240   20.6640  -32.0900 C   0  0  0  0  0  0  0  0  0  0  0  0
   -7.0660   17.4280  -31.9730 C   0  0  0  0  0  0  0  0  0  0  0  0
   -5.7420   16.6660  -31.8450 C   0  0  0  0  0  0  0  0  0  0  0  0
   -4.0733   13.1885  -34.4572 H   0  0  0  0  0  0  0  0  0  0  0  0
   -5.4326   14.1250  -35.1656 H   0  0  0  0  0  0  0  0  0  0  0  0
   -3.7727   14.8116  -35.1656 H   0  0  0  0  0  0  0  0  0  0  0  0
   -4.4544   17.0082  -34.8682 H   0  0  0  0  0  0  0  0  0  0  0  0
   -6.2215   16.6223  -34.9916 H   0  0  0  0  0  0  0  0  0  0  0  0
   -4.9357   18.8949  -33.4084 H   0  0  0  0  0  0  0  0  0  0  0  0
   -5.9652   19.0202  -34.8913 H   0  0  0  0  0  0  0  0  0  0  0  0
   -7.8980   18.2710  -33.7444 H   0  0  0  0  0  0  0  0  0  0  0  0
   -9.4003   19.8906  -32.8167 H   0  0  0  0  0  0  0  0  0  0  0  0
   -9.7289   22.2279  -31.9490 H   0  0  0  0  0  0  0  0  0  0  0  0
   -8.3331   24.4803  -30.8968 H   0  0  0  0  0  0  0  0  0  0  0  0
   -6.8850   25.2650  -28.5270 H   0  0  0  0  0  0  0  0  0  0  0  0
   -5.7720   26.6690  -28.6900 H   0  0  0  0  0  0  0  0  0  0  0  0
   -3.1310   24.4350  -31.5640 H   0  0  0  0  0  0  0  0  0  0  0  0
   -5.1070   20.2477  -32.1396 H   0  0  0  0  0  0  0  0  0  0  0  0
   -7.2793   17.9220  -31.0136 H   0  0  0  0  0  0  0  0  0  0  0  0
   -7.8408   16.6947  -32.2412 H   0  0  0  0  0  0  0  0  0  0  0  0
   -4.9669   17.3457  -31.4611 H   0  0  0  0  0  0  0  0  0  0  0  0
   -5.8780   15.8229  -31.1517 H   0  0  0  0  0  0  0  0  0  0  0  0
  1  2  1  0
  2  3  2  0
  2  4  1  0
  4  5  1  0
  5  6  1  0
  6  7  1  0
  7  8  1  0
  8  9  2  0
  9 10  1  0
 10 11  2  0
 11 12  1  0
 12 13  2  0
 13 14  1  0
 14 15  1  0
 14 16  2  0
 13 17  1  0
 17 18  1  0
 18 19  1  0
 18 20  2  0
 17 21  1  0
 21 22  2  0
  7 23  1  0
 23 24  1  0
 24  4  1  0
 22  8  1  0
 21 11  1  0
  1 25  1  0
  1 26  1  0
  1 27  1  0
  5 28  1  0
  5 29  1  0
  6 30  1  0
  6 31  1  0
  7 32  1  0
  9 33  1  0
 10 34  1  0
 12 35  1  0
 15 36  1  0
 15 37  1  0
 19 38  1  0
 22 39  1  0
 23 40  1  0
 23 41  1  0
 24 42  1  0
 24 43  1  0
M  CHG  1  19  -1
M  END
>  <UniqueID>  (39) 
39

>  <SMILES>  (39) 
CC(=O)N1CCC(c2ccc3cc(C(N)=O)n(C([NH-])=O)c3c2)CC1

>  <Energy>  (39) 
88.3787274807979

>  <Genealogy>  (39) 
CC(=O)N1CCC(c2ccc3cc(C(N)=O)n(C([NH-])=O)c3c2)CC1 (protonated)
CC(=O)N1CCC(c2ccc3cc(C(N)=O)n(C([NH-])=O)c3c2)CC1 (3D coordinates assigned)
CC(=O)N1CCC(c2ccc3cc(C(N)=O)n(C([NH-])=O)c3c2)CC1 (nonaromatic ring conformer: 88.3787274807979 kcal/mol)

>  <smiles>  (39) 
CC(=O)N1CCC(c2ccc3cc(C(N)=O)n(C(N)=O)c3c2)CC1

>  <score_type>  (39) 
oracle

>  <origin>  (39) 
adg

>  <m_score__min__energy>  (39) 
-10.390000000000001

>  <m_primary>  (39) 
energy

$$$$
40:0
     RDKit          3D

 53 55  0  0  0  0  0  0  0  0999 V2000
   -5.0410   14.8810  -33.8500 C   0  0  0  0  0  0  0  0  0  0  0  0
   -4.8220   16.3050  -33.5540 N   0  0  0  0  0  0  0  0  0  0  0  0
   -5.4780   16.7010  -32.2810 C   0  0  0  0  0  0  0  0  0  0  0  0
   -6.8760   17.3090  -32.4880 C   0  0  0  0  0  0  0  0  0  0  0  0
   -6.8650   18.5140  -33.4670 C   0  0  0  0  0  0  0  0  0  0  0  0
   -7.1010   19.8380  -32.7600 C   0  0  0  0  0  0  0  0  0  0  0  0
   -8.4040   20.2210  -32.3440 C   0  0  0  0  0  0  0  0  0  0  0  0
   -8.6160   21.4360  -31.6710 C   0  0  0  0  0  0  0  0  0  0  0  0
   -7.5150   22.2490  -31.4290 C   0  0  0  0  0  0  0  0  0  0  0  0
   -7.4350   23.4570  -30.7750 C   0  0  0  0  0  0  0  0  0  0  0  0
   -6.0870   23.8090  -30.8120 C   0  0  0  0  0  0  0  0  0  0  0  0
   -5.5540   25.0900  -30.2990 C   0  0  0  0  0  0  0  0  0  0  0  0
   -6.1320   25.7130  -29.1500 N   0  0  0  0  0  0  0  0  0  0  0  0
   -4.6010   25.6610  -30.8910 O   0  0  0  0  0  0  0  0  0  0  0  0
   -5.3630   22.8540  -31.4620 N   0  0  0  0  0  0  0  0  0  0  0  0
   -3.9380   22.8150  -31.6420 C   0  0  0  0  0  0  0  0  0  0  0  0
   -3.4400   22.0670  -32.5250 O   0  0  0  0  0  0  0  0  0  0  0  0
   -3.1180   23.6040  -30.8200 O   0  0  0  0  0  0  0  0  0  0  0  0
   -2.5160   23.2020  -29.5820 C   0  0  0  0  0  0  0  0  0  0  0  0
   -3.6340   22.6200  -28.7020 C   0  0  0  0  0  0  0  0  0  0  0  0
   -1.4540   22.1130  -29.8230 C   0  0  0  0  0  0  0  0  0  0  0  0
   -1.8970   24.4150  -28.8610 C   0  0  0  0  0  0  0  0  0  0  0  0
   -6.2510   21.9050  -31.8330 C   0  0  0  0  0  0  0  0  0  0  0  0
   -6.0070   20.6930  -32.4880 C   0  0  0  0  0  0  0  0  0  0  0  0
   -5.5830   18.5630  -34.3190 C   0  0  0  0  0  0  0  0  0  0  0  0
   -5.1770   17.1440  -34.7260 C   0  0  0  0  0  0  0  0  0  0  0  0
   -5.1273   14.3197  -32.9079 H   0  0  0  0  0  0  0  0  0  0  0  0
   -5.9674   14.7657  -34.4317 H   0  0  0  0  0  0  0  0  0  0  0  0
   -4.1920   14.4926  -34.4317 H   0  0  0  0  0  0  0  0  0  0  0  0
   -5.5745   15.8092  -31.6444 H   0  0  0  0  0  0  0  0  0  0  0  0
   -4.8495   17.4735  -31.8138 H   0  0  0  0  0  0  0  0  0  0  0  0
   -7.5413   16.5323  -32.8930 H   0  0  0  0  0  0  0  0  0  0  0  0
   -7.2270   17.6761  -31.5123 H   0  0  0  0  0  0  0  0  0  0  0  0
   -7.7107   18.3536  -34.1519 H   0  0  0  0  0  0  0  0  0  0  0  0
   -9.2573   19.5585  -32.5512 H   0  0  0  0  0  0  0  0  0  0  0  0
   -9.6233   21.7349  -31.3454 H   0  0  0  0  0  0  0  0  0  0  0  0
   -8.2600   24.0245  -30.3196 H   0  0  0  0  0  0  0  0  0  0  0  0
   -5.7730   26.6350  -28.8180 H   0  0  0  0  0  0  0  0  0  0  0  0
   -6.8870   25.2440  -28.6010 H   0  0  0  0  0  0  0  0  0  0  0  0
   -3.3741   22.7553  -27.6418 H   0  0  0  0  0  0  0  0  0  0  0  0
   -4.5787   23.1408  -28.9173 H   0  0  0  0  0  0  0  0  0  0  0  0
   -3.7493   21.5474  -28.9173 H   0  0  0  0  0  0  0  0  0  0  0  0
   -1.0879   21.7375  -28.8561 H   0  0  0  0  0  0  0  0  0  0  0  0
   -1.9008   21.2848  -30.3925 H   0  0  0  0  0  0  0  0  0  0  0  0
   -0.6148   22.5389  -30.3925 H   0  0  0  0  0  0  0  0  0  0  0  0
   -1.9703   24.2714  -27.7729 H   0  0  0  0  0  0  0  0  0  0  0  0
   -0.8394   24.5115  -29.1477 H   0  0  0  0  0  0  0  0  0  0  0  0
   -2.4394   25.3280  -29.1477 H   0  0  0  0  0  0  0  0  0  0  0  0
   -4.9862   20.4108  -32.7852 H   0  0  0  0  0  0  0  0  0  0  0  0
   -5.7673   19.1634  -35.2221 H   0  0  0  0  0  0  0  0  0  0  0  0
   -4.7727   19.0182  -33.7306 H   0  0  0  0  0  0  0  0  0  0  0  0
   -6.0176   16.6735  -35.2570 H   0  0  0  0  0  0  0  0  0  0  0  0
   -4.2883   17.2184  -35.3700 H   0  0  0  0  0  0  0  0  0  0  0  0
  1  2  1  0
  2  3  1  0
  3  4  1  0
  4  5  1  0
  5  6  1  0
  6  7  2  0
  7  8  1  0
  8  9  2  0
  9 10  1  0
 10 11  2  0
 11 12  1  0
 12 13  1  0
 12 14  2  0
 11 15  1  0
 15 16  1  0
 16 17  2  0
 16 18  1  0
 18 19  1  0
 19 20  1  0
 19 21  1  0
 19 22  1  0
 15 23  1  0
 23 24  2  0
  5 25  1  0
 25 26  1  0
 26  2  1  0
 24  6  1  0
 23  9  1  0
  1 27  1  0
  1 28  1  0
  1 29  1  0
  3 30  1  0
  3 31  1  0
  4 32  1  0
  4 33  1  0
  5 34  1  0
  7 35  1  0
  8 36  1  0
 10 37  1  0
 13 38  1  0
 13 39  1  0
 20 40  1  0
 20 41  1  0
 20 42  1  0
 21 43  1  0
 21 44  1  0
 21 45  1  0
 22 46  1  0
 22 47  1  0
 22 48  1  0
 24 49  1  0
 25 50  1  0
 25 51  1  0
 26 52  1  0
 26 53  1  0
M  END
>  <UniqueID>  (40) 
40

>  <SMILES>  (40) 
CN1CCC(c2ccc3cc(C(N)=O)n(C(=O)OC(C)(C)C)c3c2)CC1

>  <Energy>  (40) 
96.1760086055473

>  <Genealogy>  (40) 
CN1CCC(c2ccc3cc(C(N)=O)n(C(=O)OC(C)(C)C)c3c2)CC1 (3D coordinates assigned)
CN1CCC(c2ccc3cc(C(N)=O)n(C(=O)OC(C)(C)C)c3c2)CC1 (nonaromatic ring conformer: 96.1760086055473 kcal/mol)

>  <smiles>  (40) 
CN1CCC(c2ccc3cc(C(N)=O)n(C(=O)OC(C)(C)C)c3c2)CC1

>  <score_type>  (40) 
oracle

>  <origin>  (40) 
adg

>  <m_score__min__energy>  (40) 
-10.57

>  <m_primary>  (40) 
energy

$$$$
41:0
     RDKit          3D

 51 53  0  0  0  0  0  0  0  0999 V2000
   -1.7910   18.9590  -33.5920 C   0  0  0  0  0  0  0  0  0  0  0  0
   -2.3660   20.2370  -32.9560 C   0  0  0  0  0  0  0  0  0  0  0  0
   -2.4360   20.0980  -31.4230 C   0  0  0  0  0  0  0  0  0  0  0  0
   -1.4530   21.4210  -33.3080 C   0  0  0  0  0  0  0  0  0  0  0  0
   -3.6610   20.5310  -33.4950 O   0  0  0  0  0  0  0  0  0  0  0  0
   -4.6690   19.6040  -33.8040 C   0  0  0  0  0  0  0  0  0  0  0  0
   -4.4960   18.7280  -34.6920 O   0  0  0  0  0  0  0  0  0  0  0  0
   -5.9210   19.6740  -33.1040 N   0  0  0  0  0  0  0  0  0  0  0  0
   -6.8730   18.7050  -32.9850 C   0  0  0  0  0  0  0  0  0  0  0  0
   -6.7540   17.3180  -33.4860 C   0  0  0  0  0  0  0  0  0  0  0  0
   -6.4890   17.0610  -34.8670 N   0  0  0  0  0  0  0  0  0  0  0  0
   -6.9160   16.3450  -32.7040 O   0  0  0  0  0  0  0  0  0  0  0  0
   -7.9470   19.1690  -32.2270 C   0  0  0  0  0  0  0  0  0  0  0  0
   -7.6180   20.4600  -31.8780 C   0  0  0  0  0  0  0  0  0  0  0  0
   -8.3190   21.3900  -31.1150 C   0  0  0  0  0  0  0  0  0  0  0  0
   -7.7380   22.6540  -30.9190 C   0  0  0  0  0  0  0  0  0  0  0  0
   -6.4770   22.9680  -31.4910 C   0  0  0  0  0  0  0  0  0  0  0  0
   -5.8610   24.3350  -31.2840 C   0  0  0  0  0  0  0  0  0  0  0  0
   -4.6070   24.3510  -30.3700 C   0  0  1  0  0  0  0  0  0  0  0  0
   -3.8620   25.4950  -30.7240 O   0  0  0  0  0  0  0  0  0  0  0  0
   -5.0120   24.4650  -28.9070 C   0  0  0  0  0  0  0  0  0  0  0  0
   -4.2190   24.0000  -27.9340 C   0  0  0  0  0  0  0  0  0  0  0  0
   -2.9680   23.2870  -28.2540 C   0  0  0  0  0  0  0  0  0  0  0  0
   -2.6980   22.9170  -29.5100 C   0  0  0  0  0  0  0  0  0  0  0  0
   -3.7310   23.0810  -30.5930 C   0  0  0  0  0  0  0  0  0  0  0  0
   -5.8080   22.0030  -32.2760 C   0  0  0  0  0  0  0  0  0  0  0  0
   -6.3940   20.7410  -32.4240 C   0  0  0  0  0  0  0  0  0  0  0  0
   -1.4782   18.2637  -32.7991 H   0  0  0  0  0  0  0  0  0  0  0  0
   -2.5610   18.4814  -34.2157 H   0  0  0  0  0  0  0  0  0  0  0  0
   -0.9229   19.2184  -34.2157 H   0  0  0  0  0  0  0  0  0  0  0  0
   -1.9886   20.9865  -30.9535 H   0  0  0  0  0  0  0  0  0  0  0  0
   -3.4869   20.0081  -31.1106 H   0  0  0  0  0  0  0  0  0  0  0  0
   -1.8825   19.2002  -31.1106 H   0  0  0  0  0  0  0  0  0  0  0  0
   -1.0899   21.8918  -32.3825 H   0  0  0  0  0  0  0  0  0  0  0  0
   -0.5964   21.0611  -33.8968 H   0  0  0  0  0  0  0  0  0  0  0  0
   -2.0189   22.1580  -33.8968 H   0  0  0  0  0  0  0  0  0  0  0  0
   -6.4460   16.0790  -35.2190 H   0  0  0  0  0  0  0  0  0  0  0  0
   -6.2940   17.8380  -35.5370 H   0  0  0  0  0  0  0  0  0  0  0  0
   -8.8632   18.6202  -31.9635 H   0  0  0  0  0  0  0  0  0  0  0  0
   -9.2981   21.1426  -30.6789 H   0  0  0  0  0  0  0  0  0  0  0  0
   -8.2654   23.4081  -30.3163 H   0  0  0  0  0  0  0  0  0  0  0  0
   -5.5726   24.7331  -32.2680 H   0  0  0  0  0  0  0  0  0  0  0  0
   -6.6227   24.9447  -30.7760 H   0  0  0  0  0  0  0  0  0  0  0  0
   -3.9930   25.6720  -31.6910 H   0  0  0  0  0  0  0  0  0  0  0  0
   -5.9708   24.9366  -28.6455 H   0  0  0  0  0  0  0  0  0  0  0  0
   -4.5039   24.1515  -26.8824 H   0  0  0  0  0  0  0  0  0  0  0  0
   -2.2508   23.0577  -27.4521 H   0  0  0  0  0  0  0  0  0  0  0  0
   -1.7142   22.4897  -29.7539 H   0  0  0  0  0  0  0  0  0  0  0  0
   -3.2194   23.1672  -31.5629 H   0  0  0  0  0  0  0  0  0  0  0  0
   -4.3917   22.2018  -30.5712 H   0  0  0  0  0  0  0  0  0  0  0  0
   -4.8485   22.2381  -32.7598 H   0  0  0  0  0  0  0  0  0  0  0  0
  1  2  1  0
  2  3  1  0
  2  4  1  0
  2  5  1  0
  5  6  1  0
  6  7  2  0
  6  8  1  0
  8  9  1  0
  9 10  1  0
 10 11  1  0
 10 12  2  0
  9 13  2  0
 13 14  1  0
 14 15  2  0
 15 16  1  0
 16 17  2  0
 17 18  1  0
 18 19  1  0
 19 20  1  6
 19 21  1  0
 21 22  2  0
 22 23  1  0
 23 24  2  0
 24 25  1  0
 17 26  1  0
 26 27  2  0
 27  8  1  0
 27 14  1  0
 25 19  1  0
  1 28  1  0
  1 29  1  0
  1 30  1  0
  3 31  1  0
  3 32  1  0
  3 33  1  0
  4 34  1  0
  4 35  1  0
  4 36  1  0
 11 37  1  0
 11 38  1  0
 13 39  1  0
 15 40  1  0
 16 41  1  0
 18 42  1  0
 18 43  1  0
 20 44  1  0
 21 45  1  0
 22 46  1  0
 23 47  1  0
 24 48  1  0
 25 49  1  0
 25 50  1  0
 26 51  1  0
M  END
>  <UniqueID>  (41) 
41

>  <SMILES>  (41) 
CC(C)(C)OC(=O)n1c(C(N)=O)cc2ccc(C[C@@]3(O)C=CC=CC3)cc21

>  <Energy>  (41) 
87.68605834288454

>  <Genealogy>  (41) 
CC(C)(C)OC(=O)n1c(C(N)=O)cc2ccc(C[C@@]3(O)C=CC=CC3)cc21 (chirality)
CC(C)(C)OC(=O)n1c(C(N)=O)cc2ccc(C[C@@]3(O)C=CC=CC3)cc21 (3D coordinates assigned)
CC(C)(C)OC(=O)n1c(C(N)=O)cc2ccc(C[C@@]3(O)C=CC=CC3)cc21 (nonaromatic ring conformer: 87.68605834288454 kcal/mol)

>  <smiles>  (41) 
CC(C)(C)OC(=O)n1c(C(N)=O)cc2ccc(CC3(O)C=CC=CC3)cc21

>  <score_type>  (41) 
oracle

>  <origin>  (41) 
adg

>  <m_score__min__energy>  (41) 
-9.8200000000000003

>  <m_primary>  (41) 
energy

$$$$
42:0
     RDKit          3D

 73 77  0  0  0  0  0  0  0  0999 V2000
   -0.9680   18.4360  -32.8180 C   0  0  0  0  0  0  0  0  0  0  0  0
    0.2120   17.4510  -32.6860 C   0  0  0  0  0  0  0  0  0  0  0  0
    0.2420   16.8170  -31.2820 C   0  0  0  0  0  0  0  0  0  0  0  0
    1.5230   18.2180  -32.9160 C   0  0  0  0  0  0  0  0  0  0  0  0
    0.1380   16.4260  -33.6890 O   0  0  0  0  0  0  0  0  0  0  0  0
   -0.8230   16.3280  -34.7040 C   0  0  0  0  0  0  0  0  0  0  0  0
   -0.5470   16.6150  -35.8990 O   0  0  0  0  0  0  0  0  0  0  0  0
   -2.1410   15.9000  -34.3730 N   0  0  0  0  0  0  0  0  0  0  0  0
   -3.4100   15.6460  -35.0780 C   0  0  0  0  0  0  0  0  0  0  0  0
   -4.2160   15.3360  -33.8490 C   0  0  0  0  0  0  0  0  0  0  0  0
   -5.2580   16.3340  -33.5740 N   0  0  0  0  0  0  0  0  0  0  0  0
   -5.0620   17.6160  -33.2070 C   0  0  0  0  0  0  0  0  0  0  0  0
   -6.2970   18.1940  -32.9490 C   0  0  0  0  0  0  0  0  0  0  0  0
   -6.5760   19.5990  -32.5620 C   0  0  0  0  0  0  0  0  0  0  0  0
   -7.8800   20.1420  -32.7100 C   0  0  0  0  0  0  0  0  0  0  0  0
   -8.1490   21.4700  -32.3430 C   0  0  0  0  0  0  0  0  0  0  0  0
   -7.1080   22.2270  -31.8160 C   0  0  0  0  0  0  0  0  0  0  0  0
   -7.1000   23.5320  -31.3840 C   0  0  0  0  0  0  0  0  0  0  0  0
   -5.8050   23.7610  -30.9320 C   0  0  0  0  0  0  0  0  0  0  0  0
   -5.3950   25.0110  -30.2620 C   0  0  0  0  0  0  0  0  0  0  0  0
   -4.1780   25.6600  -30.6130 N   0  0  0  0  0  0  0  0  0  0  0  0
   -6.1020   25.4810  -29.3320 O   0  0  0  0  0  0  0  0  0  0  0  0
   -5.0310   22.6510  -31.0970 N   0  0  0  0  0  0  0  0  0  0  0  0
   -3.6240   22.5160  -30.8230 C   0  0  0  0  0  0  0  0  0  0  0  0
   -2.7910   23.2380  -31.4330 O   0  0  0  0  0  0  0  0  0  0  0  0
   -3.1780   21.5540  -29.9100 O   0  0  0  0  0  0  0  0  0  0  0  0
   -3.4220   21.6230  -28.5070 C   0  0  0  0  0  0  0  0  0  0  0  0
   -3.4340   23.0830  -28.0410 C   0  0  0  0  0  0  0  0  0  0  0  0
   -2.1840   23.4230  -27.3160 N   0  0  0  0  0  0  0  0  0  0  0  0
   -0.9630   23.1480  -28.1060 C   0  0  0  0  0  0  0  0  0  0  0  0
   -0.7510   24.1860  -29.2330 C   0  0  0  0  0  0  0  0  0  0  0  0
   -1.6430   25.2820  -29.1450 O   0  0  0  0  0  0  0  0  0  0  0  0
   -1.6110   25.8190  -27.8420 C   0  0  0  0  0  0  0  0  0  0  0  0
   -2.1750   24.8160  -26.8130 C   0  0  0  0  0  0  0  0  0  0  0  0
   -5.8480   21.7170  -31.6390 C   0  0  0  0  0  0  0  0  0  0  0  0
   -5.5450   20.4060  -32.0270 C   0  0  0  0  0  0  0  0  0  0  0  0
   -7.2160   17.1740  -33.1430 C   0  0  0  0  0  0  0  0  0  0  0  0
   -6.5530   16.0610  -33.5020 N   0  0  0  0  0  0  0  0  0  0  0  0
   -2.9110   15.6050  -33.1540 C   0  0  0  0  0  0  0  0  0  0  0  0
   -1.3166   18.7270  -31.8161 H   0  0  0  0  0  0  0  0  0  0  0  0
   -0.6388   19.3312  -33.3660 H   0  0  0  0  0  0  0  0  0  0  0  0
   -1.7899   17.9522  -33.3660 H   0  0  0  0  0  0  0  0  0  0  0  0
    0.2045   17.6101  -30.5207 H   0  0  0  0  0  0  0  0  0  0  0  0
   -0.6257   16.1517  -31.1615 H   0  0  0  0  0  0  0  0  0  0  0  0
    1.1686   16.2366  -31.1615 H   0  0  0  0  0  0  0  0  0  0  0  0
    1.9699   18.4795  -31.9455 H   0  0  0  0  0  0  0  0  0  0  0  0
    2.2224   17.5866  -33.4836 H   0  0  0  0  0  0  0  0  0  0  0  0
    1.3154   19.1371  -33.4836 H   0  0  0  0  0  0  0  0  0  0  0  0
   -3.7807   16.5304  -35.6169 H   0  0  0  0  0  0  0  0  0  0  0  0
   -3.3977   14.8865  -35.8737 H   0  0  0  0  0  0  0  0  0  0  0  0
   -4.8123   14.4230  -33.7045 H   0  0  0  0  0  0  0  0  0  0  0  0
   -4.0873   18.1193  -33.1257 H   0  0  0  0  0  0  0  0  0  0  0  0
   -8.6876   19.5154  -33.1164 H   0  0  0  0  0  0  0  0  0  0  0  0
   -9.1539   21.8994  -32.4686 H   0  0  0  0  0  0  0  0  0  0  0  0
   -7.9390   24.2433  -31.3938 H   0  0  0  0  0  0  0  0  0  0  0  0
   -3.2630   25.1610  -30.5360 H   0  0  0  0  0  0  0  0  0  0  0  0
   -4.3963   21.1631  -28.2849 H   0  0  0  0  0  0  0  0  0  0  0  0
   -2.6221   21.0847  -27.9775 H   0  0  0  0  0  0  0  0  0  0  0  0
   -3.5302   23.7394  -28.9184 H   0  0  0  0  0  0  0  0  0  0  0  0
   -4.2839   23.2245  -27.3572 H   0  0  0  0  0  0  0  0  0  0  0  0
   -0.0928   23.1724  -27.4335 H   0  0  0  0  0  0  0  0  0  0  0  0
   -1.0790   22.1595  -28.5744 H   0  0  0  0  0  0  0  0  0  0  0  0
    0.2795   24.5659  -29.1715 H   0  0  0  0  0  0  0  0  0  0  0  0
   -0.9429   23.6791  -30.1902 H   0  0  0  0  0  0  0  0  0  0  0  0
   -0.5704   26.0580  -27.5775 H   0  0  0  0  0  0  0  0  0  0  0  0
   -2.2331   26.7260  -27.8228 H   0  0  0  0  0  0  0  0  0  0  0  0
   -1.5555   24.8580  -25.9050 H   0  0  0  0  0  0  0  0  0  0  0  0
   -3.2175   25.1015  -26.6087 H   0  0  0  0  0  0  0  0  0  0  0  0
   -4.5241   20.0112  -31.9177 H   0  0  0  0  0  0  0  0  0  0  0  0
   -8.3060   17.2610  -33.0231 H   0  0  0  0  0  0  0  0  0  0  0  0
   -6.9820   15.1250  -33.6740 H   0  0  0  0  0  0  0  0  0  0  0  0
   -2.9646   16.4631  -32.4679 H   0  0  0  0  0  0  0  0  0  0  0  0
   -2.5223   14.8140  -32.4958 H   0  0  0  0  0  0  0  0  0  0  0  0
  1  2  1  0
  2  3  1  0
  2  4  1  0
  2  5  1  0
  5  6  1  0
  6  7  2  0
  6  8  1  0
  8  9  1  0
  9 10  1  0
 10 11  1  0
 11 12  1  0
 12 13  2  0
 13 14  1  0
 14 15  2  0
 15 16  1  0
 16 17  2  0
 17 18  1  0
 18 19  2  0
 19 20  1  0
 20 21  1  0
 20 22  2  0
 19 23  1  0
 23 24  1  0
 24 25  2  0
 24 26  1  0
 26 27  1  0
 27 28  1  0
 28 29  1  0
 29 30  1  0
 30 31  1  0
 31 32  1  0
 32 33  1  0
 33 34  1  0
 23 35  1  0
 35 36  2  0
 13 37  1  0
 37 38  2  0
 10 39  1  0
 39  8  1  0
 38 11  1  0
 36 14  1  0
 35 17  1  0
 34 29  1  0
  1 40  1  0
  1 41  1  0
  1 42  1  0
  3 43  1  0
  3 44  1  0
  3 45  1  0
  4 46  1  0
  4 47  1  0
  4 48  1  0
  9 49  1  0
  9 50  1  0
 10 51  1  0
 12 52  1  0
 15 53  1  0
 16 54  1  0
 18 55  1  0
 21 56  1  0
 27 57  1  0
 27 58  1  0
 28 59  1  0
 28 60  1  0
 30 61  1  0
 30 62  1  0
 31 63  1  0
 31 64  1  0
 33 65  1  0
 33 66  1  0
 34 67  1  0
 34 68  1  0
 36 69  1  0
 37 70  1  0
 38 71  1  0
 39 72  1  0
 39 73  1  0
M  CHG  2  21  -1  38   1
M  END
>  <UniqueID>  (42) 
42

>  <SMILES>  (42) 
CC(C)(C)OC(=O)N1CC(n2cc(-c3ccc4cc(C([NH-])=O)n(C(=O)OCCN5CCOCC5)c4c3)c[nH+]2)C1

>  <Energy>  (42) 
200.89075207276835

>  <Genealogy>  (42) 
CC(C)(C)OC(=O)N1CC(n2cc(-c3ccc4cc(C([NH-])=O)n(C(=O)OCCN5CCOCC5)c4c3)c[nH+]2)C1 (protonated)
CC(C)(C)OC(=O)N1CC(n2cc(-c3ccc4cc(C([NH-])=O)n(C(=O)OCCN5CCOCC5)c4c3)c[nH+]2)C1 (3D coordinates assigned)
CC(C)(C)OC(=O)N1CC(n2cc(-c3ccc4cc(C([NH-])=O)n(C(=O)OCCN5CCOCC5)c4c3)c[nH+]2)C1 (nonaromatic ring conformer: 200.89075207276835 kcal/mol)

>  <smiles>  (42) 
CC(C)(C)OC(=O)N1CC(n2cc(-c3ccc4cc(C(N)=O)n(C(=O)OCCN5CCOCC5)c4c3)cn2)C1

>  <score_type>  (42) 
oracle

>  <origin>  (42) 
adg

>  <m_score__min__energy>  (42) 
-11.390000000000001

>  <m_primary>  (42) 
energy

$$$$
43:0
     RDKit          3D

 50 52  0  0  0  0  0  0  0  0999 V2000
   -6.4630   23.8090  -31.9370 C   0  0  0  0  0  0  0  0  0  0  0  0
   -6.4160   23.7260  -30.4040 C   0  0  0  0  0  0  0  0  0  0  0  0
   -6.7540   25.1100  -29.8180 C   0  0  0  0  0  0  0  0  0  0  0  0
   -7.4350   22.6710  -29.9320 C   0  0  0  0  0  0  0  0  0  0  0  0
   -5.0840   23.3360  -30.0430 O   0  0  0  0  0  0  0  0  0  0  0  0
   -3.8940   23.9340  -30.4830 C   0  0  0  0  0  0  0  0  0  0  0  0
   -3.8700   25.1440  -30.8380 O   0  0  0  0  0  0  0  0  0  0  0  0
   -2.6870   23.1570  -30.5260 N   0  0  0  0  0  0  0  0  0  0  0  0
   -1.5640   23.3190  -29.7710 C   0  0  0  0  0  0  0  0  0  0  0  0
   -1.2970   24.4420  -28.8490 C   0  0  0  0  0  0  0  0  0  0  0  0
   -2.3540   25.2780  -28.3750 N   0  0  0  0  0  0  0  0  0  0  0  0
   -0.1100   24.7030  -28.5190 O   0  0  0  0  0  0  0  0  0  0  0  0
   -0.6520   22.2970  -30.0180 C   0  0  0  0  0  0  0  0  0  0  0  0
   -1.2480   21.5010  -30.9700 C   0  0  0  0  0  0  0  0  0  0  0  0
   -0.7930   20.3300  -31.5700 C   0  0  0  0  0  0  0  0  0  0  0  0
   -1.6380   19.6920  -32.4930 C   0  0  0  0  0  0  0  0  0  0  0  0
   -2.9130   20.2300  -32.7960 C   0  0  0  0  0  0  0  0  0  0  0  0
   -3.8310   19.5140  -33.7520 C   0  0  0  0  0  0  0  0  0  0  0  0
   -4.8460   18.6630  -33.0270 C   0  0  0  0  0  0  0  0  0  0  0  0
   -4.5370   17.4860  -32.6920 O   0  0  0  0  0  0  0  0  0  0  0  0
   -6.2200   19.1580  -32.7490 C   0  0  0  0  0  0  0  0  0  0  0  0
   -6.5660   20.5110  -32.9410 C   0  0  0  0  0  0  0  0  0  0  0  0
   -7.8640   20.9560  -32.6740 C   0  0  0  0  0  0  0  0  0  0  0  0
   -8.8340   20.0610  -32.2180 C   0  0  0  0  0  0  0  0  0  0  0  0
  -10.0900   20.4980  -31.9610 F   0  0  0  0  0  0  0  0  0  0  0  0
   -8.5070   18.7150  -32.0290 C   0  0  0  0  0  0  0  0  0  0  0  0
   -9.4470   17.8430  -31.5890 F   0  0  0  0  0  0  0  0  0  0  0  0
   -7.2100   18.2650  -32.2950 C   0  0  0  0  0  0  0  0  0  0  0  0
   -3.3470   21.4120  -32.1570 C   0  0  0  0  0  0  0  0  0  0  0  0
   -2.4760   22.0410  -31.2590 C   0  0  0  0  0  0  0  0  0  0  0  0
   -6.9843   24.7295  -32.2386 H   0  0  0  0  0  0  0  0  0  0  0  0
   -5.4377   23.8210  -32.3352 H   0  0  0  0  0  0  0  0  0  0  0  0
   -7.0007   22.9359  -32.3352 H   0  0  0  0  0  0  0  0  0  0  0  0
   -6.7409   25.0562  -28.7194 H   0  0  0  0  0  0  0  0  0  0  0  0
   -6.0087   25.8441  -30.1581 H   0  0  0  0  0  0  0  0  0  0  0  0
   -7.7538   25.4180  -30.1581 H   0  0  0  0  0  0  0  0  0  0  0  0
   -7.4568   22.6485  -28.8324 H   0  0  0  0  0  0  0  0  0  0  0  0
   -8.4339   22.9297  -30.3133 H   0  0  0  0  0  0  0  0  0  0  0  0
   -7.1418   21.6817  -30.3133 H   0  0  0  0  0  0  0  0  0  0  0  0
   -2.1500   26.0470  -27.6980 H   0  0  0  0  0  0  0  0  0  0  0  0
   -3.3200   25.2010  -28.7630 H   0  0  0  0  0  0  0  0  0  0  0  0
    0.3343   22.1556  -29.5520 H   0  0  0  0  0  0  0  0  0  0  0  0
    0.1976   19.9172  -31.3287 H   0  0  0  0  0  0  0  0  0  0  0  0
   -1.3066   18.7658  -32.9852 H   0  0  0  0  0  0  0  0  0  0  0  0
   -4.3625   20.2602  -34.3609 H   0  0  0  0  0  0  0  0  0  0  0  0
   -3.2184   18.8520  -34.3817 H   0  0  0  0  0  0  0  0  0  0  0  0
   -5.8090   21.2219  -33.3036 H   0  0  0  0  0  0  0  0  0  0  0  0
   -8.1221   22.0148  -32.8236 H   0  0  0  0  0  0  0  0  0  0  0  0
   -6.9606   17.2037  -32.1483 H   0  0  0  0  0  0  0  0  0  0  0  0
   -4.3448   21.8284  -32.3597 H   0  0  0  0  0  0  0  0  0  0  0  0
  1  2  1  0
  2  3  1  0
  2  4  1  0
  2  5  1  0
  5  6  1  0
  6  7  2  0
  6  8  1  0
  8  9  1  0
  9 10  1  0
 10 11  1  0
 10 12  2  0
  9 13  2  0
 13 14  1  0
 14 15  2  0
 15 16  1  0
 16 17  2  0
 17 18  1  0
 18 19  1  0
 19 20  2  0
 19 21  1  0
 21 22  2  0
 22 23  1  0
 23 24  2  0
 24 25  1  0
 24 26  1  0
 26 27  1  0
 26 28  2  0
 17 29  1  0
 29 30  2  0
 30  8  1  0
 30 14  1  0
 28 21  1  0
  1 31  1  0
  1 32  1  0
  1 33  1  0
  3 34  1  0
  3 35  1  0
  3 36  1  0
  4 37  1  0
  4 38  1  0
  4 39  1  0
 11 40  1  0
 11 41  1  0
 13 42  1  0
 15 43  1  0
 16 44  1  0
 18 45  1  0
 18 46  1  0
 22 47  1  0
 23 48  1  0
 28 49  1  0
 29 50  1  0
M  END
>  <UniqueID>  (43) 
43

>  <SMILES>  (43) 
CC(C)(C)OC(=O)n1c(C(N)=O)cc2ccc(CC(=O)c3ccc(F)c(F)c3)cc21

>  <Energy>  (43) 
88.37623980048511

>  <Genealogy>  (43) 
CC(C)(C)OC(=O)n1c(C(N)=O)cc2ccc(CC(=O)c3ccc(F)c(F)c3)cc21 (3D coordinates assigned)
CC(C)(C)OC(=O)n1c(C(N)=O)cc2ccc(CC(=O)c3ccc(F)c(F)c3)cc21 (optimized conformer: 88.37623980048511 kcal/mol)

>  <smiles>  (43) 
CC(C)(C)OC(=O)n1c(C(N)=O)cc2ccc(CC(=O)c3ccc(F)c(F)c3)cc21

>  <score_type>  (43) 
oracle

>  <origin>  (43) 
adg

>  <m_score__min__energy>  (43) 
-9.9499999999999993

>  <m_primary>  (43) 
energy

$$$$
44:0
     RDKit          3D

 24 25  0  0  0  0  0  0  0  0999 V2000
   -5.4400   20.2540  -33.3040 C   0  0  0  0  0  0  0  0  0  0  0  0
   -4.2300   20.7500  -32.5690 C   0  0  0  0  0  0  0  0  0  0  0  0
   -3.0650   19.9490  -32.5000 C   0  0  0  0  0  0  0  0  0  0  0  0
   -1.9430   20.3790  -31.7730 C   0  0  0  0  0  0  0  0  0  0  0  0
   -2.0180   21.6090  -31.1260 C   0  0  0  0  0  0  0  0  0  0  0  0
   -1.0950   22.2480  -30.3310 C   0  0  0  0  0  0  0  0  0  0  0  0
   -1.7060   23.4350  -29.9330 C   0  0  0  0  0  0  0  0  0  0  0  0
   -1.0220   24.4690  -29.1280 C   0  0  0  0  0  0  0  0  0  0  0  0
   -1.5920   25.7650  -28.9630 N   0  0  0  0  0  0  0  0  0  0  0  0
    0.1040   24.2210  -28.6210 O   0  0  0  0  0  0  0  0  0  0  0  0
   -2.9630   23.5220  -30.4530 N   0  0  0  0  0  0  0  0  0  0  0  0
   -3.9490   24.5420  -30.2150 C   0  0  0  0  0  0  0  0  0  0  0  0
   -3.8640   25.6550  -30.7960 O   0  0  0  0  0  0  0  0  0  0  0  0
   -4.9880   24.3170  -29.3200 O   0  0  0  0  0  0  0  0  0  0  0  0
   -3.1380   22.3990  -31.1840 C   0  0  0  0  0  0  0  0  0  0  0  0
   -4.2770   21.9850  -31.8850 C   0  0  0  0  0  0  0  0  0  0  0  0
   -6.2059   19.9400  -32.5796 H   0  0  0  0  0  0  0  0  0  0  0  0
   -5.8413   21.0602  -33.9357 H   0  0  0  0  0  0  0  0  0  0  0  0
   -5.1600   19.3981  -33.9357 H   0  0  0  0  0  0  0  0  0  0  0  0
   -3.0382   18.9805  -33.0208 H   0  0  0  0  0  0  0  0  0  0  0  0
   -1.0334   19.7630  -31.7167 H   0  0  0  0  0  0  0  0  0  0  0  0
   -0.0872   21.8960  -30.0656 H   0  0  0  0  0  0  0  0  0  0  0  0
   -2.6260   25.9040  -28.9920 H   0  0  0  0  0  0  0  0  0  0  0  0
   -5.1851   22.6055  -31.9027 H   0  0  0  0  0  0  0  0  0  0  0  0
  1  2  1  0
  2  3  2  0
  3  4  1  0
  4  5  2  0
  5  6  1  0
  6  7  2  0
  7  8  1  0
  8  9  1  0
  8 10  2  0
  7 11  1  0
 11 12  1  0
 12 13  2  0
 12 14  1  0
 11 15  1  0
 15 16  2  0
 16  2  1  0
 15  5  1  0
  1 17  1  0
  1 18  1  0
  1 19  1  0
  3 20  1  0
  4 21  1  0
  6 22  1  0
  9 23  1  0
 16 24  1  0
M  CHG  2   9  -1  14  -1
M  END
>  <UniqueID>  (44) 
44

>  <SMILES>  (44) 
Cc1ccc2cc(C([NH-])=O)n(C(=O)[O-])c2c1

>  <Energy>  (44) 
63.793267573906306

>  <Genealogy>  (44) 
Cc1ccc2cc(C([NH-])=O)n(C(=O)[O-])c2c1 (protonated)
Cc1ccc2cc(C([NH-])=O)n(C(=O)[O-])c2c1 (3D coordinates assigned)
Cc1ccc2cc(C([NH-])=O)n(C(=O)[O-])c2c1 (optimized conformer: 63.793267573906306 kcal/mol)

>  <smiles>  (44) 
Cc1ccc2cc(C(N)=O)n(C(=O)O)c2c1

>  <score_type>  (44) 
oracle

>  <origin>  (44) 
adg

>  <m_score__min__energy>  (44) 
-9.8000000000000007

>  <m_primary>  (44) 
energy

$$$$
45:0
     RDKit          3D

 37 38  0  0  0  0  0  0  0  0999 V2000
   -7.0880   18.6220  -33.0230 C   0  0  0  0  0  0  0  0  0  0  0  0
   -7.1910   20.0300  -32.5200 C   0  0  0  0  0  0  0  0  0  0  0  0
   -8.4640   20.6080  -32.2840 C   0  0  0  0  0  0  0  0  0  0  0  0
   -8.5730   21.9100  -31.7670 C   0  0  0  0  0  0  0  0  0  0  0  0
   -7.3990   22.6030  -31.4910 C   0  0  0  0  0  0  0  0  0  0  0  0
   -7.2160   23.8590  -30.9580 C   0  0  0  0  0  0  0  0  0  0  0  0
   -5.8350   24.0320  -30.8850 C   0  0  0  0  0  0  0  0  0  0  0  0
   -5.1960   25.2900  -30.4470 C   0  0  0  0  0  0  0  0  0  0  0  0
   -3.8810   25.6330  -30.8760 N   0  0  0  0  0  0  0  0  0  0  0  0
   -5.8380   26.0960  -29.7220 O   0  0  0  0  0  0  0  0  0  0  0  0
   -5.1900   22.9220  -31.3430 N   0  0  0  0  0  0  0  0  0  0  0  0
   -3.7770   22.6650  -31.3620 C   0  0  0  0  0  0  0  0  0  0  0  0
   -3.2690   22.0410  -32.3320 O   0  0  0  0  0  0  0  0  0  0  0  0
   -2.9800   23.1390  -30.3090 O   0  0  0  0  0  0  0  0  0  0  0  0
   -2.8680   22.5610  -29.0010 C   0  0  0  0  0  0  0  0  0  0  0  0
   -2.7290   21.0300  -29.0940 C   0  0  0  0  0  0  0  0  0  0  0  0
   -4.1630   22.8980  -28.2450 C   0  0  0  0  0  0  0  0  0  0  0  0
   -1.6750   23.1710  -28.2400 C   0  0  0  0  0  0  0  0  0  0  0  0
   -6.1600   22.0580  -31.7140 C   0  0  0  0  0  0  0  0  0  0  0  0
   -6.0220   20.7570  -32.2120 C   0  0  0  0  0  0  0  0  0  0  0  0
   -7.0374   17.9304  -32.1691 H   0  0  0  0  0  0  0  0  0  0  0  0
   -7.9712   18.3856  -33.6345 H   0  0  0  0  0  0  0  0  0  0  0  0
   -6.1797   18.5166  -33.6345 H   0  0  0  0  0  0  0  0  0  0  0  0
   -9.3742   20.0322  -32.5076 H   0  0  0  0  0  0  0  0  0  0  0  0
   -9.5569   22.3673  -31.5860 H   0  0  0  0  0  0  0  0  0  0  0  0
   -7.9945   24.5743  -30.6542 H   0  0  0  0  0  0  0  0  0  0  0  0
   -3.0410   25.2980  -30.3540 H   0  0  0  0  0  0  0  0  0  0  0  0
   -2.6902   20.6031  -28.0809 H   0  0  0  0  0  0  0  0  0  0  0  0
   -3.5932   20.6155  -29.6337 H   0  0  0  0  0  0  0  0  0  0  0  0
   -1.8043   20.7779  -29.6337 H   0  0  0  0  0  0  0  0  0  0  0  0
   -3.9783   22.8499  -27.1617 H   0  0  0  0  0  0  0  0  0  0  0  0
   -4.4926   23.9118  -28.5161 H   0  0  0  0  0  0  0  0  0  0  0  0
   -4.9450   22.1734  -28.5161 H   0  0  0  0  0  0  0  0  0  0  0  0
   -1.8471   23.0830  -27.1571 H   0  0  0  0  0  0  0  0  0  0  0  0
   -0.7542   22.6331  -28.5098 H   0  0  0  0  0  0  0  0  0  0  0  0
   -1.5720   24.2324  -28.5098 H   0  0  0  0  0  0  0  0  0  0  0  0
   -5.0266   20.3126  -32.3595 H   0  0  0  0  0  0  0  0  0  0  0  0
  1  2  1  0
  2  3  2  0
  3  4  1  0
  4  5  2  0
  5  6  1  0
  6  7  2  0
  7  8  1  0
  8  9  1  0
  8 10  2  0
  7 11  1  0
 11 12  1  0
 12 13  2  0
 12 14  1  0
 14 15  1  0
 15 16  1  0
 15 17  1  0
 15 18  1  0
 11 19  1  0
 19 20  2  0
 20  2  1  0
 19  5  1  0
  1 21  1  0
  1 22  1  0
  1 23  1  0
  3 24  1  0
  4 25  1  0
  6 26  1  0
  9 27  1  0
 16 28  1  0
 16 29  1  0
 16 30  1  0
 17 31  1  0
 17 32  1  0
 17 33  1  0
 18 34  1  0
 18 35  1  0
 18 36  1  0
 20 37  1  0
M  CHG  1   9  -1
M  END
>  <UniqueID>  (45) 
45

>  <SMILES>  (45) 
Cc1ccc2cc(C([NH-])=O)n(C(=O)OC(C)(C)C)c2c1

>  <Energy>  (45) 
70.4573948034107

>  <Genealogy>  (45) 
Cc1ccc2cc(C([NH-])=O)n(C(=O)OC(C)(C)C)c2c1 (protonated)
Cc1ccc2cc(C([NH-])=O)n(C(=O)OC(C)(C)C)c2c1 (3D coordinates assigned)
Cc1ccc2cc(C([NH-])=O)n(C(=O)OC(C)(C)C)c2c1 (optimized conformer: 70.4573948034107 kcal/mol)

>  <smiles>  (45) 
Cc1ccc2cc(C(N)=O)n(C(=O)OC(C)(C)C)c2c1

>  <score_type>  (45) 
oracle

>  <origin>  (45) 
adg

>  <m_score__min__energy>  (45) 
-10.09

>  <m_primary>  (45) 
energy

$$$$
46:0
     RDKit          3D

 43 45  0  0  0  0  0  0  0  0999 V2000
   -1.6300   21.1860  -33.5120 C   0  0  0  0  0  0  0  0  0  0  0  0
   -3.1420   20.9470  -33.4660 C   0  0  0  0  0  0  0  0  0  0  0  0
   -3.4920   19.9570  -32.3560 C   0  0  0  0  0  0  0  0  0  0  0  0
   -3.8260   22.1750  -33.2210 O   0  0  0  0  0  0  0  0  0  0  0  0
   -4.0810   22.6790  -31.9410 C   0  0  0  0  0  0  0  0  0  0  0  0
   -3.1410   22.8300  -31.1150 O   0  0  0  0  0  0  0  0  0  0  0  0
   -5.4270   23.0060  -31.5630 N   0  0  0  0  0  0  0  0  0  0  0  0
   -5.8690   24.1130  -30.9030 C   0  0  0  0  0  0  0  0  0  0  0  0
   -5.0650   25.3090  -30.5730 C   0  0  0  0  0  0  0  0  0  0  0  0
   -3.6520   25.2200  -30.4120 N   0  0  0  0  0  0  0  0  0  0  0  0
   -5.6260   26.4330  -30.4800 O   0  0  0  0  0  0  0  0  0  0  0  0
   -7.2340   24.0140  -30.6400 C   0  0  0  0  0  0  0  0  0  0  0  0
   -7.6200   22.8040  -31.1720 C   0  0  0  0  0  0  0  0  0  0  0  0
   -8.8680   22.1900  -31.1860 C   0  0  0  0  0  0  0  0  0  0  0  0
   -8.9720   20.9210  -31.7790 C   0  0  0  0  0  0  0  0  0  0  0  0
   -7.8300   20.2820  -32.3360 C   0  0  0  0  0  0  0  0  0  0  0  0
   -7.9090   18.9740  -32.9340 N   0  0  0  0  0  0  0  0  0  0  0  0
   -7.2500   17.7820  -32.4030 C   0  0  0  0  0  0  0  0  0  0  0  0
   -6.0600   17.4280  -33.2380 C   0  0  0  0  0  0  0  0  0  0  0  0
   -5.2390   16.4320  -32.9990 O   0  0  0  0  0  0  0  0  0  0  0  0
   -4.3320   16.4750  -33.9500 C   0  0  0  0  0  0  0  0  0  0  0  0
   -3.3780   15.6580  -34.0400 O   0  0  0  0  0  0  0  0  0  0  0  0
   -4.5270   17.4620  -34.7950 O   0  0  0  0  0  0  0  0  0  0  0  0
   -5.6040   18.0750  -34.3660 C   0  0  0  0  0  0  0  0  0  0  0  0
   -6.1740   19.1910  -34.9680 O   0  0  0  0  0  0  0  0  0  0  0  0
   -6.5820   20.9430  -32.3010 C   0  0  0  0  0  0  0  0  0  0  0  0
   -6.5120   22.2160  -31.7220 C   0  0  0  0  0  0  0  0  0  0  0  0
   -1.2372   21.2481  -32.4864 H   0  0  0  0  0  0  0  0  0  0  0  0
   -1.1431   20.3537  -34.0413 H   0  0  0  0  0  0  0  0  0  0  0  0
   -1.4236   22.1279  -34.0413 H   0  0  0  0  0  0  0  0  0  0  0  0
   -3.4539   20.5346  -34.4369 H   0  0  0  0  0  0  0  0  0  0  0  0
   -3.3249   20.4297  -31.3769 H   0  0  0  0  0  0  0  0  0  0  0  0
   -4.5483   19.6636  -32.4460 H   0  0  0  0  0  0  0  0  0  0  0  0
   -2.8548   19.0649  -32.4460 H   0  0  0  0  0  0  0  0  0  0  0  0
   -3.0330   24.9820  -31.2190 H   0  0  0  0  0  0  0  0  0  0  0  0
   -7.8679   24.7463  -30.1186 H   0  0  0  0  0  0  0  0  0  0  0  0
   -9.7471   22.6834  -30.7459 H   0  0  0  0  0  0  0  0  0  0  0  0
   -9.9483   20.4154  -31.8130 H   0  0  0  0  0  0  0  0  0  0  0  0
   -8.4580   18.8600  -33.8170 H   0  0  0  0  0  0  0  0  0  0  0  0
   -6.9233   17.9779  -31.3711 H   0  0  0  0  0  0  0  0  0  0  0  0
   -7.9612   16.9430  -32.4217 H   0  0  0  0  0  0  0  0  0  0  0  0
   -6.8240   19.0830  -35.7370 H   0  0  0  0  0  0  0  0  0  0  0  0
   -5.6832   20.4672  -32.7202 H   0  0  0  0  0  0  0  0  0  0  0  0
  1  2  1  0
  2  3  1  0
  2  4  1  0
  4  5  1  0
  5  6  2  0
  5  7  1  0
  7  8  1  0
  8  9  1  0
  9 10  1  0
  9 11  2  0
  8 12  2  0
 12 13  1  0
 13 14  2  0
 14 15  1  0
 15 16  2  0
 16 17  1  0
 17 18  1  0
 18 19  1  0
 19 20  1  0
 20 21  1  0
 21 22  2  0
 21 23  1  0
 23 24  1  0
 24 25  1  0
 16 26  1  0
 26 27  2  0
 27  7  1  0
 27 13  1  0
 24 19  2  0
  1 28  1  0
  1 29  1  0
  1 30  1  0
  2 31  1  0
  3 32  1  0
  3 33  1  0
  3 34  1  0
 10 35  1  0
 12 36  1  0
 14 37  1  0
 15 38  1  0
 17 39  1  0
 18 40  1  0
 18 41  1  0
 25 42  1  0
 26 43  1  0
M  CHG  1  10  -1
M  END
>  <UniqueID>  (46) 
46

>  <SMILES>  (46) 
CC(C)OC(=O)n1c(C([NH-])=O)cc2ccc(NCc3oc(=O)oc3O)cc21

>  <Energy>  (46) 
110.3560943435234

>  <Genealogy>  (46) 
CC(C)OC(=O)n1c(C([NH-])=O)cc2ccc(NCc3oc(=O)oc3O)cc21 (protonated)
CC(C)OC(=O)n1c(C([NH-])=O)cc2ccc(NCc3oc(=O)oc3O)cc21 (3D coordinates assigned)
CC(C)OC(=O)n1c(C([NH-])=O)cc2ccc(NCc3oc(=O)oc3O)cc21 (optimized conformer: 110.3560943435234 kcal/mol)

>  <smiles>  (46) 
CC(C)OC(=O)n1c(C(N)=O)cc2ccc(NCc3oc(=O)oc3O)cc21

>  <score_type>  (46) 
oracle

>  <origin>  (46) 
adg

>  <m_score__min__energy>  (46) 
-10.35

>  <m_primary>  (46) 
energy

$$$$
47:0
     RDKit          3D

 40 42  0  0  0  0  0  0  0  0999 V2000
   -3.9800   18.2960  -34.2020 C   0  0  0  0  0  0  0  0  0  0  0  0
   -4.6330   19.1700  -33.1230 C   0  0  2  0  0  0  0  0  0  0  0  0
   -5.6810   20.1170  -33.7450 C   0  0  0  0  0  0  0  0  0  0  0  0
   -6.8530   20.3200  -32.8260 C   0  0  0  0  0  0  0  0  0  0  0  0
   -7.1460   21.5840  -32.2960 C   0  0  0  0  0  0  0  0  0  0  0  0
   -8.2420   21.7410  -31.5080 N   0  0  0  0  0  0  0  0  0  0  0  0
   -9.0620   20.6950  -31.2250 C   0  0  0  0  0  0  0  0  0  0  0  0
   -8.7780   19.4370  -31.7590 C   0  0  0  0  0  0  0  0  0  0  0  0
   -7.6840   19.2780  -32.5480 N   0  0  0  0  0  0  0  0  0  0  0  0
   -3.5790   19.9310  -32.3370 C   0  0  0  0  0  0  0  0  0  0  0  0
   -2.2850   19.3740  -32.1730 C   0  0  0  0  0  0  0  0  0  0  0  0
   -1.2990   20.0520  -31.4390 C   0  0  0  0  0  0  0  0  0  0  0  0
   -1.6340   21.2750  -30.8690 C   0  0  0  0  0  0  0  0  0  0  0  0
   -0.8620   22.1500  -30.1390 C   0  0  0  0  0  0  0  0  0  0  0  0
   -1.7040   23.2160  -29.8360 C   0  0  0  0  0  0  0  0  0  0  0  0
   -1.2900   24.3680  -29.0090 C   0  0  0  0  0  0  0  0  0  0  0  0
   -2.2410   25.3260  -28.5440 N   0  0  0  0  0  0  0  0  0  0  0  0
   -0.0830   24.4780  -28.6630 O   0  0  0  0  0  0  0  0  0  0  0  0
   -2.9450   23.0170  -30.3650 N   0  0  0  0  0  0  0  0  0  0  0  0
   -4.0510   23.9360  -30.3620 C   0  0  0  0  0  0  0  0  0  0  0  0
   -3.8580   25.2980  -30.7330 N   0  0  0  0  0  0  0  0  0  0  0  0
   -5.2030   23.5380  -30.0400 O   0  0  0  0  0  0  0  0  0  0  0  0
   -2.8850   21.8220  -30.9950 C   0  0  0  0  0  0  0  0  0  0  0  0
   -3.8790   21.1810  -31.7440 C   0  0  0  0  0  0  0  0  0  0  0  0
   -3.3875   17.5029  -33.7225 H   0  0  0  0  0  0  0  0  0  0  0  0
   -4.7617   17.8417  -34.8285 H   0  0  0  0  0  0  0  0  0  0  0  0
   -3.3227   18.9168  -34.8285 H   0  0  0  0  0  0  0  0  0  0  0  0
   -5.1623   18.5150  -32.4153 H   0  0  0  0  0  0  0  0  0  0  0  0
   -5.2096   21.0908  -33.9439 H   0  0  0  0  0  0  0  0  0  0  0  0
   -6.0476   19.6622  -34.6771 H   0  0  0  0  0  0  0  0  0  0  0  0
   -6.4940   22.4421  -32.5161 H   0  0  0  0  0  0  0  0  0  0  0  0
   -9.9419   20.8384  -30.5807 H   0  0  0  0  0  0  0  0  0  0  0  0
   -9.4348   18.5815  -31.5426 H   0  0  0  0  0  0  0  0  0  0  0  0
   -2.0513   18.3993  -32.6263 H   0  0  0  0  0  0  0  0  0  0  0  0
   -0.2911   19.6282  -31.3184 H   0  0  0  0  0  0  0  0  0  0  0  0
    0.1943   22.0320  -29.8557 H   0  0  0  0  0  0  0  0  0  0  0  0
   -1.9230   26.1570  -27.9970 H   0  0  0  0  0  0  0  0  0  0  0  0
   -3.2660   25.1700  -28.6640 H   0  0  0  0  0  0  0  0  0  0  0  0
   -4.2700   25.6780  -31.6140 H   0  0  0  0  0  0  0  0  0  0  0  0
   -4.8715   21.6386  -31.8690 H   0  0  0  0  0  0  0  0  0  0  0  0
  1  2  1  0
  2  3  1  0
  3  4  1  0
  4  5  2  0
  5  6  1  0
  6  7  2  0
  7  8  1  0
  8  9  2  0
  2 10  1  0
 10 11  2  0
 11 12  1  0
 12 13  2  0
 13 14  1  0
 14 15  2  0
 15 16  1  0
 16 17  1  0
 16 18  2  0
 15 19  1  0
 19 20  1  0
 20 21  1  0
 20 22  2  0
 19 23  1  0
 23 24  2  0
  9  4  1  0
 24 10  1  0
 23 13  1  0
  1 25  1  0
  1 26  1  0
  1 27  1  0
  2 28  1  1
  3 29  1  0
  3 30  1  0
  5 31  1  0
  7 32  1  0
  8 33  1  0
 11 34  1  0
 12 35  1  0
 14 36  1  0
 17 37  1  0
 17 38  1  0
 21 39  1  0
 24 40  1  0
M  CHG  1  21  -1
M  END
>  <UniqueID>  (47) 
47

>  <SMILES>  (47) 
C[C@H](Cc1cnccn1)c1ccc2cc(C(N)=O)n(C([NH-])=O)c2c1

>  <Energy>  (47) 
79.55547252588532

>  <Genealogy>  (47) 
CC(Cc1cnccn1)c1ccc2cc(C(N)=O)n(C([NH-])=O)c2c1 (protonated)
C[C@H](Cc1cnccn1)c1ccc2cc(C(N)=O)n(C([NH-])=O)c2c1 (chirality)
C[C@H](Cc1cnccn1)c1ccc2cc(C(N)=O)n(C([NH-])=O)c2c1 (3D coordinates assigned)
C[C@H](Cc1cnccn1)c1ccc2cc(C(N)=O)n(C([NH-])=O)c2c1 (optimized conformer: 79.55547252588532 kcal/mol)

>  <smiles>  (47) 
CC(Cc1cnccn1)c1ccc2cc(C(N)=O)n(C(N)=O)c2c1

>  <score_type>  (47) 
oracle

>  <origin>  (47) 
adg

>  <m_score__min__energy>  (47) 
-9.8200000000000003

>  <m_primary>  (47) 
energy

$$$$
48:0
     RDKit          3D

 59 62  0  0  0  0  0  0  0  0999 V2000
   -3.7390   23.6080  -27.8710 C   0  0  0  0  0  0  0  0  0  0  0  0
   -2.6770   22.8420  -28.6820 C   0  0  0  0  0  0  0  0  0  0  0  0
   -3.0770   21.3600  -28.7530 C   0  0  0  0  0  0  0  0  0  0  0  0
   -1.2940   22.9520  -28.0120 C   0  0  0  0  0  0  0  0  0  0  0  0
   -2.6210   23.3290  -30.0310 O   0  0  0  0  0  0  0  0  0  0  0  0
   -3.1380   22.6930  -31.1690 C   0  0  0  0  0  0  0  0  0  0  0  0
   -2.3760   22.1220  -31.9950 O   0  0  0  0  0  0  0  0  0  0  0  0
   -4.5580   22.6700  -31.3750 N   0  0  0  0  0  0  0  0  0  0  0  0
   -5.4500   23.6830  -31.1930 C   0  0  0  0  0  0  0  0  0  0  0  0
   -5.1600   24.9990  -30.5850 C   0  0  0  0  0  0  0  0  0  0  0  0
   -3.9300   25.6710  -30.8410 N   0  0  0  0  0  0  0  0  0  0  0  0
   -5.9910   25.5150  -29.7900 O   0  0  0  0  0  0  0  0  0  0  0  0
   -6.7260   23.2850  -31.5860 C   0  0  0  0  0  0  0  0  0  0  0  0
   -6.5880   21.9820  -32.0080 C   0  0  0  0  0  0  0  0  0  0  0  0
   -7.5370   21.0970  -32.5110 C   0  0  0  0  0  0  0  0  0  0  0  0
   -7.1060   19.8160  -32.8950 C   0  0  0  0  0  0  0  0  0  0  0  0
   -5.7410   19.4440  -32.7810 C   0  0  0  0  0  0  0  0  0  0  0  0
   -5.2920   18.0930  -33.2010 C   0  0  0  0  0  0  0  0  0  0  0  0
   -3.9240   17.7770  -33.2420 C   0  0  0  0  0  0  0  0  0  0  0  0
   -3.5020   16.5090  -33.6440 C   0  0  0  0  0  0  0  0  0  0  0  0
   -4.4360   15.5320  -34.0150 C   0  0  0  0  0  0  0  0  0  0  0  0
   -3.9700   14.2400  -34.4370 N   0  0  0  0  0  0  0  0  0  0  0  0
   -3.4920   14.0410  -35.8070 C   0  0  0  0  0  0  0  0  0  0  0  0
   -4.2340   12.8670  -36.4820 C   0  0  0  0  0  0  0  0  0  0  0  0
   -4.7180   11.8350  -35.5410 N   0  0  0  0  0  0  0  0  0  0  0  0
   -3.9310   11.7790  -34.3010 C   0  0  0  0  0  0  0  0  0  0  0  0
   -4.0680   13.0950  -33.5260 C   0  0  0  0  0  0  0  0  0  0  0  0
   -5.8100   15.8350  -33.9660 C   0  0  0  0  0  0  0  0  0  0  0  0
   -6.8040   14.8390  -34.2820 C   0  0  0  0  0  0  0  0  0  0  0  0
   -7.6030   14.0410  -34.5340 N   0  0  0  0  0  0  0  0  0  0  0  0
   -6.2300   17.1100  -33.5640 C   0  0  0  0  0  0  0  0  0  0  0  0
   -4.8080   20.3740  -32.2650 C   0  0  0  0  0  0  0  0  0  0  0  0
   -5.2710   21.6360  -31.8730 C   0  0  0  0  0  0  0  0  0  0  0  0
   -3.5489   23.4709  -26.7963 H   0  0  0  0  0  0  0  0  0  0  0  0
   -3.6879   24.6785  -28.1188 H   0  0  0  0  0  0  0  0  0  0  0  0
   -4.7387   23.2216  -28.1188 H   0  0  0  0  0  0  0  0  0  0  0  0
   -3.1849   20.9601  -27.7340 H   0  0  0  0  0  0  0  0  0  0  0  0
   -4.0333   21.2635  -29.2879 H   0  0  0  0  0  0  0  0  0  0  0  0
   -2.2991   20.7955  -29.2879 H   0  0  0  0  0  0  0  0  0  0  0  0
   -1.4144   22.9424  -26.9187 H   0  0  0  0  0  0  0  0  0  0  0  0
   -0.6689   22.1007  -28.3195 H   0  0  0  0  0  0  0  0  0  0  0  0
   -0.8113   23.8914  -28.3195 H   0  0  0  0  0  0  0  0  0  0  0  0
   -3.0240   25.2880  -30.4900 H   0  0  0  0  0  0  0  0  0  0  0  0
   -7.6479   23.8846  -31.5638 H   0  0  0  0  0  0  0  0  0  0  0  0
   -8.5927   21.3915  -32.6051 H   0  0  0  0  0  0  0  0  0  0  0  0
   -7.8352   19.0927  -33.2887 H   0  0  0  0  0  0  0  0  0  0  0  0
   -3.1798   18.5346  -32.9551 H   0  0  0  0  0  0  0  0  0  0  0  0
   -2.4276   16.2744  -33.6699 H   0  0  0  0  0  0  0  0  0  0  0  0
   -3.6670   14.9592  -36.3869 H   0  0  0  0  0  0  0  0  0  0  0  0
   -2.4176   13.8070  -35.7749 H   0  0  0  0  0  0  0  0  0  0  0  0
   -5.1006   13.2729  -37.0245 H   0  0  0  0  0  0  0  0  0  0  0  0
   -3.5083   12.3742  -37.1457 H   0  0  0  0  0  0  0  0  0  0  0  0
   -5.7130   12.0450  -35.2910 H   0  0  0  0  0  0  0  0  0  0  0  0
   -4.2956   10.9501  -33.6765 H   0  0  0  0  0  0  0  0  0  0  0  0
   -2.8725   11.6209  -34.5550 H   0  0  0  0  0  0  0  0  0  0  0  0
   -5.0446   13.1173  -33.0203 H   0  0  0  0  0  0  0  0  0  0  0  0
   -3.2564   13.1584  -32.7862 H   0  0  0  0  0  0  0  0  0  0  0  0
   -7.3043   17.3444  -33.5320 H   0  0  0  0  0  0  0  0  0  0  0  0
   -3.7436   20.1118  -32.1739 H   0  0  0  0  0  0  0  0  0  0  0  0
  1  2  1  0
  2  3  1  0
  2  4  1  0
  2  5  1  0
  5  6  1  0
  6  7  2  0
  6  8  1  0
  8  9  1  0
  9 10  1  0
 10 11  1  0
 10 12  2  0
  9 13  2  0
 13 14  1  0
 14 15  2  0
 15 16  1  0
 16 17  2  0
 17 18  1  0
 18 19  2  0
 19 20  1  0
 20 21  2  0
 21 22  1  0
 22 23  1  0
 23 24  1  0
 24 25  1  0
 25 26  1  0
 26 27  1  0
 21 28  1  0
 28 29  1  0
 29 30  3  0
 28 31  2  0
 17 32  1  0
 32 33  2  0
 33  8  1  0
 33 14  1  0
 31 18  1  0
 27 22  1  0
  1 34  1  0
  1 35  1  0
  1 36  1  0
  3 37  1  0
  3 38  1  0
  3 39  1  0
  4 40  1  0
  4 41  1  0
  4 42  1  0
 11 43  1  0
 13 44  1  0
 15 45  1  0
 16 46  1  0
 19 47  1  0
 20 48  1  0
 23 49  1  0
 23 50  1  0
 24 51  1  0
 24 52  1  0
 25 53  1  0
 26 54  1  0
 26 55  1  0
 27 56  1  0
 27 57  1  0
 31 58  1  0
 32 59  1  0
M  CHG  1  11  -1
M  END
>  <UniqueID>  (48) 
48

>  <SMILES>  (48) 
CC(C)(C)OC(=O)n1c(C([NH-])=O)cc2ccc(-c3ccc(N4CCNCC4)c(C#N)c3)cc21

>  <Energy>  (48) 
110.81889764184902

>  <Genealogy>  (48) 
CC(C)(C)OC(=O)n1c(C([NH-])=O)cc2ccc(-c3ccc(N4CCNCC4)c(C#N)c3)cc21 (protonated)
CC(C)(C)OC(=O)n1c(C([NH-])=O)cc2ccc(-c3ccc(N4CCNCC4)c(C#N)c3)cc21 (3D coordinates assigned)
CC(C)(C)OC(=O)n1c(C([NH-])=O)cc2ccc(-c3ccc(N4CCNCC4)c(C#N)c3)cc21 (nonaromatic ring conformer: 110.81889764184902 kcal/mol)

>  <smiles>  (48) 
CC(C)(C)OC(=O)n1c(C(N)=O)cc2ccc(-c3ccc(N4CCNCC4)c(C#N)c3)cc21

>  <score_type>  (48) 
oracle

>  <origin>  (48) 
adg

>  <m_score__min__energy>  (48) 
-11.449999999999999

>  <m_primary>  (48) 
energy

$$$$
49:0
     RDKit          3D

 43 45  0  0  0  0  0  0  0  0999 V2000
   -4.5200   14.9900  -32.7860 C   0  0  0  0  0  0  0  0  0  0  0  0
   -5.3210   15.9010  -31.8600 C   0  0  0  0  0  0  0  0  0  0  0  0
   -5.3070   17.2890  -32.3660 N   0  0  0  0  0  0  0  0  0  0  0  0
   -6.6530   17.8940  -32.3390 C   0  0  0  0  0  0  0  0  0  0  0  0
   -6.5610   19.4160  -32.5620 C   0  0  0  0  0  0  0  0  0  0  0  0
   -5.3620   19.8270  -33.4580 C   0  0  1  0  0  0  0  0  0  0  0  0
   -4.1330   20.3170  -32.6960 C   0  0  0  0  0  0  0  0  0  0  0  0
   -2.8850   19.6280  -32.7230 C   0  0  0  0  0  0  0  0  0  0  0  0
   -1.7690   20.1320  -32.0370 C   0  0  0  0  0  0  0  0  0  0  0  0
   -1.9130   21.3290  -31.3440 C   0  0  0  0  0  0  0  0  0  0  0  0
   -1.0010   22.0270  -30.5860 C   0  0  0  0  0  0  0  0  0  0  0  0
   -1.6860   23.1500  -30.1270 C   0  0  0  0  0  0  0  0  0  0  0  0
   -1.0490   24.2280  -29.3430 C   0  0  0  0  0  0  0  0  0  0  0  0
   -1.6130   25.5370  -29.3480 N   0  0  0  0  0  0  0  0  0  0  0  0
   -0.0320   23.9980  -28.6370 O   0  0  0  0  0  0  0  0  0  0  0  0
   -2.9730   23.1430  -30.5780 N   0  0  0  0  0  0  0  0  0  0  0  0
   -4.0200   24.0800  -30.2760 C   0  0  0  0  0  0  0  0  0  0  0  0
   -3.9980   25.3880  -30.8390 N   0  0  0  0  0  0  0  0  0  0  0  0
   -4.9470   23.7590  -29.4850 O   0  0  0  0  0  0  0  0  0  0  0  0
   -3.0940   22.0210  -31.3240 C   0  0  0  0  0  0  0  0  0  0  0  0
   -4.2270   21.5350  -31.9840 C   0  0  0  0  0  0  0  0  0  0  0  0
   -4.9900   18.6970  -34.4400 C   0  0  2  0  0  0  0  0  0  0  0  0
   -6.0270   18.5320  -35.3440 F   0  0  0  0  0  0  0  0  0  0  0  0
   -4.7220   17.3510  -33.7250 C   0  0  0  0  0  0  0  0  0  0  0  0
   -3.9120   14.2985  -32.1841 H   0  0  0  0  0  0  0  0  0  0  0  0
   -5.2098   14.4144  -33.4207 H   0  0  0  0  0  0  0  0  0  0  0  0
   -3.8608   15.6005  -33.4207 H   0  0  0  0  0  0  0  0  0  0  0  0
   -6.3602   15.5438  -31.8099 H   0  0  0  0  0  0  0  0  0  0  0  0
   -4.8663   15.8813  -30.8586 H   0  0  0  0  0  0  0  0  0  0  0  0
   -7.2674   17.4474  -33.1346 H   0  0  0  0  0  0  0  0  0  0  0  0
   -7.1107   17.7037  -31.3570 H   0  0  0  0  0  0  0  0  0  0  0  0
   -7.4902   19.7566  -33.0422 H   0  0  0  0  0  0  0  0  0  0  0  0
   -6.4115   19.8840  -31.5778 H   0  0  0  0  0  0  0  0  0  0  0  0
   -5.7153   20.7004  -34.0258 H   0  0  0  0  0  0  0  0  0  0  0  0
   -2.7956   18.6890  -33.2890 H   0  0  0  0  0  0  0  0  0  0  0  0
   -0.8086   19.5958  -32.0473 H   0  0  0  0  0  0  0  0  0  0  0  0
    0.0460   21.7560  -30.3852 H   0  0  0  0  0  0  0  0  0  0  0  0
   -2.6470   25.6770  -29.3360 H   0  0  0  0  0  0  0  0  0  0  0  0
   -3.1010   25.8240  -31.1500 H   0  0  0  0  0  0  0  0  0  0  0  0
   -5.1755   22.0910  -31.9498 H   0  0  0  0  0  0  0  0  0  0  0  0
   -4.0594   18.9892  -34.9486 H   0  0  0  0  0  0  0  0  0  0  0  0
   -5.1551   16.5408  -34.3300 H   0  0  0  0  0  0  0  0  0  0  0  0
   -3.6321   17.2475  -33.6182 H   0  0  0  0  0  0  0  0  0  0  0  0
  1  2  1  0
  2  3  1  0
  3  4  1  0
  4  5  1  0
  5  6  1  0
  6  7  1  0
  7  8  2  0
  8  9  1  0
  9 10  2  0
 10 11  1  0
 11 12  2  0
 12 13  1  0
 13 14  1  0
 13 15  2  0
 12 16  1  0
 16 17  1  0
 17 18  1  0
 17 19  2  0
 16 20  1  0
 20 21  2  0
  6 22  1  0
 22 23  1  0
 22 24  1  0
 24  3  1  0
 21  7  1  0
 20 10  1  0
  1 25  1  0
  1 26  1  0
  1 27  1  0
  2 28  1  0
  2 29  1  0
  4 30  1  0
  4 31  1  0
  5 32  1  0
  5 33  1  0
  6 34  1  6
  8 35  1  0
  9 36  1  0
 11 37  1  0
 14 38  1  0
 18 39  1  0
 21 40  1  0
 22 41  1  6
 24 42  1  0
 24 43  1  0
M  CHG  2  14  -1  18  -1
M  END
>  <UniqueID>  (49) 
49

>  <SMILES>  (49) 
CCN1CC[C@@H](c2ccc3cc(C([NH-])=O)n(C([NH-])=O)c3c2)[C@H](F)C1

>  <Energy>  (49) 
91.28640884385034

>  <Genealogy>  (49) 
CCN1CC[C@@H](c2ccc3cc(C([NH-])=O)n(C([NH-])=O)c3c2)[C@H](F)C1 (protonated)
CCN1CC[C@@H](c2ccc3cc(C([NH-])=O)n(C([NH-])=O)c3c2)[C@H](F)C1 (3D coordinates assigned)
CCN1CC[C@@H](c2ccc3cc(C([NH-])=O)n(C([NH-])=O)c3c2)[C@H](F)C1 (nonaromatic ring conformer: 91.28640884385034 kcal/mol)

>  <smiles>  (49) 
CCN1CC[C@@H](c2ccc3cc(C(N)=O)n(C(N)=O)c3c2)[C@H](F)C1

>  <score_type>  (49) 
oracle

>  <origin>  (49) 
adg

>  <m_score__min__energy>  (49) 
-11.550000000000001

>  <m_primary>  (49) 
energy

$$$$
50:0
     RDKit          3D

 35 38  0  0  0  0  0  0  0  0999 V2000
   -1.5120   25.9700  -28.9490 N   0  0  0  0  0  0  0  0  0  0  0  0
   -0.8310   24.7180  -28.9520 C   0  0  0  0  0  0  0  0  0  0  0  0
    0.2860   24.6230  -28.3780 O   0  0  0  0  0  0  0  0  0  0  0  0
   -1.3900   23.5500  -29.6650 C   0  0  0  0  0  0  0  0  0  0  0  0
   -0.6300   22.4370  -30.0210 C   0  0  0  0  0  0  0  0  0  0  0  0
   -1.4820   21.6280  -30.7360 C   0  0  0  0  0  0  0  0  0  0  0  0
   -1.2550   20.3860  -31.3190 C   0  0  0  0  0  0  0  0  0  0  0  0
   -2.3280   19.7580  -31.9710 C   0  0  0  0  0  0  0  0  0  0  0  0
   -3.6080   20.3730  -32.0260 C   0  0  0  0  0  0  0  0  0  0  0  0
   -4.7390   19.6970  -32.7070 C   0  0  0  0  0  0  0  0  0  0  0  0
   -4.5860   18.9110  -33.8500 C   0  0  0  0  0  0  0  0  0  0  0  0
   -6.1020   18.3300  -34.2880 S   0  0  0  0  0  0  0  0  0  0  0  0
   -6.9000   19.0920  -33.0240 C   0  0  0  0  0  0  0  0  0  0  0  0
   -8.3890   18.9920  -32.8080 C   0  0  0  0  0  0  0  0  0  0  0  0
   -9.0000   20.0050  -31.8520 C   0  0  0  0  0  0  0  0  0  0  0  0
   -8.8420   18.5520  -31.4250 C   0  0  0  0  0  0  0  0  0  0  0  0
   -6.0260   19.7920  -32.2590 N   0  0  0  0  0  0  0  0  0  0  0  0
   -3.7960   21.6360  -31.4170 C   0  0  0  0  0  0  0  0  0  0  0  0
   -2.7030   22.2480  -30.7910 C   0  0  0  0  0  0  0  0  0  0  0  0
   -2.6650   23.4280  -30.1340 N   0  0  0  0  0  0  0  0  0  0  0  0
   -3.7750   24.3140  -29.9120 C   0  0  0  0  0  0  0  0  0  0  0  0
   -4.6840   24.0030  -29.0990 O   0  0  0  0  0  0  0  0  0  0  0  0
   -3.8670   25.5100  -30.6130 O   0  0  0  0  0  0  0  0  0  0  0  0
   -2.5540   26.0140  -28.9760 H   0  0  0  0  0  0  0  0  0  0  0  0
    0.4264   22.2463  -29.7811 H   0  0  0  0  0  0  0  0  0  0  0  0
   -0.2645   19.9100  -31.2707 H   0  0  0  0  0  0  0  0  0  0  0  0
   -2.1760   18.7773  -32.4454 H   0  0  0  0  0  0  0  0  0  0  0  0
   -3.6398   18.7073  -34.3727 H   0  0  0  0  0  0  0  0  0  0  0  0
   -8.6012   18.6654  -33.8367 H   0  0  0  0  0  0  0  0  0  0  0  0
   -8.3690   20.7835  -31.3983 H   0  0  0  0  0  0  0  0  0  0  0  0
   -9.8391   20.7146  -31.9020 H   0  0  0  0  0  0  0  0  0  0  0  0
   -8.0969   18.2806  -30.6626 H   0  0  0  0  0  0  0  0  0  0  0  0
   -9.5198   17.7766  -31.0385 H   0  0  0  0  0  0  0  0  0  0  0  0
   -6.3040   20.3630  -31.4320 H   0  0  0  0  0  0  0  0  0  0  0  0
   -4.7802   22.1270  -31.4348 H   0  0  0  0  0  0  0  0  0  0  0  0
  1  2  1  0
  2  3  2  0
  2  4  1  0
  4  5  2  0
  5  6  1  0
  6  7  2  0
  7  8  1  0
  8  9  2  0
  9 10  1  0
 10 11  2  0
 11 12  1  0
 12 13  1  0
 13 14  1  0
 14 15  1  0
 15 16  1  0
 13 17  2  0
  9 18  1  0
 18 19  2  0
 19 20  1  0
 20 21  1  0
 21 22  2  0
 21 23  1  0
 20  4  1  0
 19  6  1  0
 17 10  1  0
 16 14  1  0
  1 24  1  0
  5 25  1  0
  7 26  1  0
  8 27  1  0
 11 28  1  0
 14 29  1  0
 15 30  1  0
 15 31  1  0
 16 32  1  0
 16 33  1  0
 17 34  1  0
 18 35  1  0
M  CHG  3   1  -1  17   1  23  -1
M  END
>  <UniqueID>  (50) 
50

>  <SMILES>  (50) 
[NH-]C(=O)c1cc2ccc(-c3csc(C4CC4)[nH+]3)cc2n1C(=O)[O-]

>  <Energy>  (50) 
375.927332823053

>  <Genealogy>  (50) 
[NH-]C(=O)c1cc2ccc(-c3csc(C4CC4)[nH+]3)cc2n1C(=O)[O-] (protonated)
[NH-]C(=O)c1cc2ccc(-c3csc(C4CC4)[nH+]3)cc2n1C(=O)[O-] (3D coordinates assigned)
[NH-]C(=O)c1cc2ccc(-c3csc(C4CC4)[nH+]3)cc2n1C(=O)[O-] (nonaromatic ring conformer: 375.927332823053 kcal/mol)

>  <smiles>  (50) 
NC(=O)c1cc2ccc(-c3csc(C4CC4)n3)cc2n1C(=O)O

>  <score_type>  (50) 
oracle

>  <origin>  (50) 
adg

>  <m_score__min__energy>  (50) 
-11.92

>  <m_primary>  (50) 
energy

$$$$
51:0
     RDKit          3D

 43 44  0  0  0  0  0  0  0  0999 V2000
   -6.0880   18.4640  -34.2260 C   0  0  0  0  0  0  0  0  0  0  0  0
   -6.9930   18.5200  -32.9900 C   0  0  0  0  0  0  0  0  0  0  0  0
   -6.4890   17.5730  -31.8940 C   0  0  0  0  0  0  0  0  0  0  0  0
   -7.1190   19.9400  -32.4700 C   0  0  0  0  0  0  0  0  0  0  0  0
   -8.4040   20.5070  -32.2660 C   0  0  0  0  0  0  0  0  0  0  0  0
   -8.5420   21.8240  -31.7970 C   0  0  0  0  0  0  0  0  0  0  0  0
   -7.3850   22.5490  -31.5340 C   0  0  0  0  0  0  0  0  0  0  0  0
   -7.2300   23.8450  -31.0960 C   0  0  0  0  0  0  0  0  0  0  0  0
   -5.8540   24.0460  -31.0150 C   0  0  0  0  0  0  0  0  0  0  0  0
   -5.2420   25.2880  -30.4970 C   0  0  0  0  0  0  0  0  0  0  0  0
   -3.9150   25.6610  -30.8600 N   0  0  0  0  0  0  0  0  0  0  0  0
   -5.8830   26.0070  -29.6840 O   0  0  0  0  0  0  0  0  0  0  0  0
   -5.1840   22.9220  -31.3970 N   0  0  0  0  0  0  0  0  0  0  0  0
   -3.7670   22.7360  -31.5280 C   0  0  0  0  0  0  0  0  0  0  0  0
   -2.9950   23.1570  -30.6240 O   0  0  0  0  0  0  0  0  0  0  0  0
   -3.2590   22.1130  -32.6780 O   0  0  0  0  0  0  0  0  0  0  0  0
   -2.4890   20.9050  -32.7230 C   0  0  0  0  0  0  0  0  0  0  0  0
   -3.1040   19.9090  -33.7250 C   0  0  0  0  0  0  0  0  0  0  0  0
   -1.0240   21.2080  -33.0860 C   0  0  0  0  0  0  0  0  0  0  0  0
   -2.5370   20.2850  -31.3180 C   0  0  0  0  0  0  0  0  0  0  0  0
   -6.1350   22.0150  -31.7080 C   0  0  0  0  0  0  0  0  0  0  0  0
   -5.9660   20.7130  -32.1930 C   0  0  0  0  0  0  0  0  0  0  0  0
   -5.0369   18.3990  -33.9082 H   0  0  0  0  0  0  0  0  0  0  0  0
   -6.3443   17.5800  -34.8284 H   0  0  0  0  0  0  0  0  0  0  0  0
   -6.2334   19.3729  -34.8284 H   0  0  0  0  0  0  0  0  0  0  0  0
   -7.9956   18.1821  -33.2911 H   0  0  0  0  0  0  0  0  0  0  0  0
   -6.7167   18.0009  -30.9065 H   0  0  0  0  0  0  0  0  0  0  0  0
   -6.9873   16.5975  -31.9947 H   0  0  0  0  0  0  0  0  0  0  0  0
   -5.4015   17.4414  -31.9947 H   0  0  0  0  0  0  0  0  0  0  0  0
   -9.3022   19.9083  -32.4776 H   0  0  0  0  0  0  0  0  0  0  0  0
   -9.5362   22.2686  -31.6424 H   0  0  0  0  0  0  0  0  0  0  0  0
   -8.0244   24.5684  -30.8600 H   0  0  0  0  0  0  0  0  0  0  0  0
   -3.0910   25.2940  -30.3350 H   0  0  0  0  0  0  0  0  0  0  0  0
   -3.6047   19.0982  -33.1756 H   0  0  0  0  0  0  0  0  0  0  0  0
   -3.8374   20.4308  -34.3574 H   0  0  0  0  0  0  0  0  0  0  0  0
   -2.3090   19.4870  -34.3574 H   0  0  0  0  0  0  0  0  0  0  0  0
   -0.4356   21.3297  -32.1646 H   0  0  0  0  0  0  0  0  0  0  0  0
   -0.6129   20.3759  -33.6764 H   0  0  0  0  0  0  0  0  0  0  0  0
   -0.9767   22.1349  -33.6764 H   0  0  0  0  0  0  0  0  0  0  0  0
   -2.4753   21.0826  -30.5630 H   0  0  0  0  0  0  0  0  0  0  0  0
   -3.4805   19.7336  -31.1926 H   0  0  0  0  0  0  0  0  0  0  0  0
   -1.6896   19.5950  -31.1926 H   0  0  0  0  0  0  0  0  0  0  0  0
   -4.9596   20.2997  -32.3553 H   0  0  0  0  0  0  0  0  0  0  0  0
  1  2  1  0
  2  3  1  0
  2  4  1  0
  4  5  2  0
  5  6  1  0
  6  7  2  0
  7  8  1  0
  8  9  2  0
  9 10  1  0
 10 11  1  0
 10 12  2  0
  9 13  1  0
 13 14  1  0
 14 15  2  0
 14 16  1  0
 16 17  1  0
 17 18  1  0
 17 19  1  0
 17 20  1  0
 13 21  1  0
 21 22  2  0
 22  4  1  0
 21  7  1  0
  1 23  1  0
  1 24  1  0
  1 25  1  0
  2 26  1  0
  3 27  1  0
  3 28  1  0
  3 29  1  0
  5 30  1  0
  6 31  1  0
  8 32  1  0
 11 33  1  0
 18 34  1  0
 18 35  1  0
 18 36  1  0
 19 37  1  0
 19 38  1  0
 19 39  1  0
 20 40  1  0
 20 41  1  0
 20 42  1  0
 22 43  1  0
M  CHG  1  11  -1
M  END
>  <UniqueID>  (51) 
51

>  <SMILES>  (51) 
CC(C)c1ccc2cc(C([NH-])=O)n(C(=O)OC(C)(C)C)c2c1

>  <Energy>  (51) 
72.85014110723279

>  <Genealogy>  (51) 
CC(C)c1ccc2cc(C([NH-])=O)n(C(=O)OC(C)(C)C)c2c1 (protonated)
CC(C)c1ccc2cc(C([NH-])=O)n(C(=O)OC(C)(C)C)c2c1 (3D coordinates assigned)
CC(C)c1ccc2cc(C([NH-])=O)n(C(=O)OC(C)(C)C)c2c1 (optimized conformer: 72.85014110723279 kcal/mol)

>  <smiles>  (51) 
CC(C)c1ccc2cc(C(N)=O)n(C(=O)OC(C)(C)C)c2c1

>  <score_type>  (51) 
oracle

>  <origin>  (51) 
adg

>  <m_score__min__energy>  (51) 
-10.6

>  <m_primary>  (51) 
energy

$$$$
52:0
     RDKit          3D

 38 40  0  0  0  0  0  0  0  0999 V2000
   -3.5390   25.1980  -30.4450 N   0  0  0  0  0  0  0  0  0  0  0  0
   -4.9480   25.3000  -30.6370 C   0  0  0  0  0  0  0  0  0  0  0  0
   -5.4910   26.4370  -30.6380 O   0  0  0  0  0  0  0  0  0  0  0  0
   -5.7700   24.0960  -30.8810 C   0  0  0  0  0  0  0  0  0  0  0  0
   -7.1070   23.9880  -30.5020 C   0  0  0  0  0  0  0  0  0  0  0  0
   -7.5270   22.7720  -30.9910 C   0  0  0  0  0  0  0  0  0  0  0  0
   -8.7670   22.1470  -30.8940 C   0  0  0  0  0  0  0  0  0  0  0  0
   -8.9100   20.8740  -31.4720 C   0  0  0  0  0  0  0  0  0  0  0  0
   -7.8210   20.2560  -32.1360 C   0  0  0  0  0  0  0  0  0  0  0  0
   -7.9730   18.8750  -32.7110 C   0  0  0  0  0  0  0  0  0  0  0  0
   -6.9670   17.9130  -32.0720 C   0  0  0  0  0  0  0  0  0  0  0  0
   -5.9930   17.4060  -33.1010 C   0  0  0  0  0  0  0  0  0  0  0  0
   -5.5850   16.0640  -33.0910 C   0  0  0  0  0  0  0  0  0  0  0  0
   -4.6550   15.6210  -34.0350 C   0  0  0  0  0  0  0  0  0  0  0  0
   -4.1440   16.4890  -34.9480 N   0  0  0  0  0  0  0  0  0  0  0  0
   -4.5140   17.7970  -34.9730 C   0  0  0  0  0  0  0  0  0  0  0  0
   -5.4410   18.2810  -34.0470 C   0  0  0  0  0  0  0  0  0  0  0  0
   -6.5750   20.9170  -32.2050 C   0  0  0  0  0  0  0  0  0  0  0  0
   -6.4650   22.1880  -31.6320 C   0  0  0  0  0  0  0  0  0  0  0  0
   -5.3770   22.9850  -31.5680 N   0  0  0  0  0  0  0  0  0  0  0  0
   -4.0650   22.6670  -32.0560 C   0  0  0  0  0  0  0  0  0  0  0  0
   -3.8700   22.2990  -33.4210 N   0  0  0  0  0  0  0  0  0  0  0  0
   -3.0710   22.7470  -31.2850 O   0  0  0  0  0  0  0  0  0  0  0  0
   -2.9120   24.9040  -31.2270 H   0  0  0  0  0  0  0  0  0  0  0  0
   -7.7002   24.7191  -29.9331 H   0  0  0  0  0  0  0  0  0  0  0  0
   -9.6090   22.6345  -30.3808 H   0  0  0  0  0  0  0  0  0  0  0  0
   -9.8763   20.3523  -31.4085 H   0  0  0  0  0  0  0  0  0  0  0  0
   -8.9934   18.5127  -32.5172 H   0  0  0  0  0  0  0  0  0  0  0  0
   -7.7847   18.9183  -33.7939 H   0  0  0  0  0  0  0  0  0  0  0  0
   -6.4148   18.4406  -31.2803 H   0  0  0  0  0  0  0  0  0  0  0  0
   -7.5136   17.0574  -31.6487 H   0  0  0  0  0  0  0  0  0  0  0  0
   -5.9940   15.3658  -32.3458 H   0  0  0  0  0  0  0  0  0  0  0  0
   -4.3358   14.5683  -34.0394 H   0  0  0  0  0  0  0  0  0  0  0  0
   -4.0826   18.4753  -35.7238 H   0  0  0  0  0  0  0  0  0  0  0  0
   -5.7357   19.3407  -34.0600 H   0  0  0  0  0  0  0  0  0  0  0  0
   -5.7124   20.4440  -32.6972 H   0  0  0  0  0  0  0  0  0  0  0  0
   -2.9170   22.0560  -33.7720 H   0  0  0  0  0  0  0  0  0  0  0  0
   -4.6710   22.3020  -34.0910 H   0  0  0  0  0  0  0  0  0  0  0  0
  1  2  1  0
  2  3  2  0
  2  4  1  0
  4  5  2  0
  5  6  1  0
  6  7  2  0
  7  8  1  0
  8  9  2  0
  9 10  1  0
 10 11  1  0
 11 12  1  0
 12 13  2  0
 13 14  1  0
 14 15  2  0
 15 16  1  0
 16 17  2  0
  9 18  1  0
 18 19  2  0
 19 20  1  0
 20 21  1  0
 21 22  1  0
 21 23  2  0
 20  4  1  0
 19  6  1  0
 17 12  1  0
  1 24  1  0
  5 25  1  0
  7 26  1  0
  8 27  1  0
 10 28  1  0
 10 29  1  0
 11 30  1  0
 11 31  1  0
 13 32  1  0
 14 33  1  0
 16 34  1  0
 17 35  1  0
 18 36  1  0
 22 37  1  0
 22 38  1  0
M  CHG  1   1  -1
M  END
>  <UniqueID>  (52) 
52

>  <SMILES>  (52) 
[NH-]C(=O)c1cc2ccc(CCc3ccncc3)cc2n1C(N)=O

>  <Energy>  (52) 
76.60082229912186

>  <Genealogy>  (52) 
[NH-]C(=O)c1cc2ccc(CCc3ccncc3)cc2n1C(N)=O (protonated)
[NH-]C(=O)c1cc2ccc(CCc3ccncc3)cc2n1C(N)=O (3D coordinates assigned)
[NH-]C(=O)c1cc2ccc(CCc3ccncc3)cc2n1C(N)=O (optimized conformer: 76.60082229912186 kcal/mol)

>  <smiles>  (52) 
NC(=O)c1cc2ccc(CCc3ccncc3)cc2n1C(N)=O

>  <score_type>  (52) 
oracle

>  <origin>  (52) 
adg

>  <m_score__min__energy>  (52) 
-11.130000000000001

>  <m_primary>  (52) 
energy

$$$$
53:0
     RDKit          3D

 60 63  0  0  0  0  0  0  0  0999 V2000
   -2.7180   20.3300  -27.7230 C   0  0  0  0  0  0  0  0  0  0  0  0
   -2.7370   21.6690  -28.4850 C   0  0  0  0  0  0  0  0  0  0  0  0
   -3.5320   22.7310  -27.6980 C   0  0  0  0  0  0  0  0  0  0  0  0
   -1.2930   22.1610  -28.6610 C   0  0  0  0  0  0  0  0  0  0  0  0
   -3.2880   21.4960  -29.7980 O   0  0  0  0  0  0  0  0  0  0  0  0
   -3.7020   22.5190  -30.6650 C   0  0  0  0  0  0  0  0  0  0  0  0
   -2.8730   23.3360  -31.1470 O   0  0  0  0  0  0  0  0  0  0  0  0
   -5.0890   22.6210  -31.0240 N   0  0  0  0  0  0  0  0  0  0  0  0
   -5.9130   23.6930  -30.8570 C   0  0  0  0  0  0  0  0  0  0  0  0
   -5.4890   25.0370  -30.4030 C   0  0  0  0  0  0  0  0  0  0  0  0
   -4.1620   25.5060  -30.6500 N   0  0  0  0  0  0  0  0  0  0  0  0
   -6.2890   25.7710  -29.7660 O   0  0  0  0  0  0  0  0  0  0  0  0
   -7.2100   23.3780  -31.2590 C   0  0  0  0  0  0  0  0  0  0  0  0
   -7.1540   22.0680  -31.6780 C   0  0  0  0  0  0  0  0  0  0  0  0
   -8.1580   21.2390  -32.1680 C   0  0  0  0  0  0  0  0  0  0  0  0
   -7.8210   19.9140  -32.4940 C   0  0  0  0  0  0  0  0  0  0  0  0
   -6.4950   19.4320  -32.3160 C   0  0  0  0  0  0  0  0  0  0  0  0
   -6.1350   17.9900  -32.6610 C   0  0  1  0  0  0  0  0  0  0  0  0
   -6.8110   17.1060  -31.8260 F   0  0  0  0  0  0  0  0  0  0  0  0
   -6.4860   17.6410  -34.0990 C   0  0  0  0  0  0  0  0  0  0  0  0
   -5.3970   16.6770  -34.5200 C   0  0  0  0  0  0  0  0  0  0  0  0
   -4.1770   17.0280  -33.7750 N   0  0  0  0  0  0  0  0  0  0  0  0
   -3.2790   17.8920  -34.5730 C   0  0  0  0  0  0  0  0  0  0  0  0
   -2.5180   18.8340  -33.6750 C   0  0  0  0  0  0  0  0  0  0  0  0
   -2.7200   20.2220  -33.7570 C   0  0  0  0  0  0  0  0  0  0  0  0
   -2.0060   21.0870  -32.9220 C   0  0  0  0  0  0  0  0  0  0  0  0
   -1.0890   20.5740  -32.0000 C   0  0  0  0  0  0  0  0  0  0  0  0
   -0.8830   19.1940  -31.9140 C   0  0  0  0  0  0  0  0  0  0  0  0
   -1.5940   18.3260  -32.7470 C   0  0  0  0  0  0  0  0  0  0  0  0
   -4.6270   17.7030  -32.5420 C   0  0  0  0  0  0  0  0  0  0  0  0
   -5.5040   20.3170  -31.8230 C   0  0  0  0  0  0  0  0  0  0  0  0
   -5.8640   21.6340  -31.5240 C   0  0  0  0  0  0  0  0  0  0  0  0
   -2.7208   20.5242  -26.6403 H   0  0  0  0  0  0  0  0  0  0  0  0
   -3.6079   19.7422  -27.9923 H   0  0  0  0  0  0  0  0  0  0  0  0
   -1.8118   19.7677  -27.9923 H   0  0  0  0  0  0  0  0  0  0  0  0
   -3.4039   22.5598  -26.6190 H   0  0  0  0  0  0  0  0  0  0  0  0
   -3.1605   23.7335  -27.9569 H   0  0  0  0  0  0  0  0  0  0  0  0
   -4.5985   22.6570  -27.9569 H   0  0  0  0  0  0  0  0  0  0  0  0
   -0.8357   22.3168  -27.6728 H   0  0  0  0  0  0  0  0  0  0  0  0
   -0.7148   21.4092  -29.2182 H   0  0  0  0  0  0  0  0  0  0  0  0
   -1.2941   23.1095  -29.2182 H   0  0  0  0  0  0  0  0  0  0  0  0
   -3.8620   26.4400  -30.2920 H   0  0  0  0  0  0  0  0  0  0  0  0
   -3.4860   24.9520  -31.2230 H   0  0  0  0  0  0  0  0  0  0  0  0
   -8.0911   24.0364  -31.2445 H   0  0  0  0  0  0  0  0  0  0  0  0
   -9.1856   21.6097  -32.2966 H   0  0  0  0  0  0  0  0  0  0  0  0
   -8.5939   19.2403  -32.8925 H   0  0  0  0  0  0  0  0  0  0  0  0
   -7.4747   17.1621  -34.1546 H   0  0  0  0  0  0  0  0  0  0  0  0
   -6.5399   18.5275  -34.7480 H   0  0  0  0  0  0  0  0  0  0  0  0
   -5.6972   15.6457  -34.2829 H   0  0  0  0  0  0  0  0  0  0  0  0
   -5.2200   16.7447  -35.6035 H   0  0  0  0  0  0  0  0  0  0  0  0
   -2.5656   17.2616  -35.1242 H   0  0  0  0  0  0  0  0  0  0  0  0
   -3.8851   18.4822  -35.2761 H   0  0  0  0  0  0  0  0  0  0  0  0
   -3.4419   20.6294  -34.4801 H   0  0  0  0  0  0  0  0  0  0  0  0
   -2.1662   22.1731  -32.9908 H   0  0  0  0  0  0  0  0  0  0  0  0
   -0.5298   21.2559  -31.3425 H   0  0  0  0  0  0  0  0  0  0  0  0
   -0.1601   18.7908  -31.1895 H   0  0  0  0  0  0  0  0  0  0  0  0
   -1.4294   17.2407  -32.6757 H   0  0  0  0  0  0  0  0  0  0  0  0
   -4.4409   17.0527  -31.6746 H   0  0  0  0  0  0  0  0  0  0  0  0
   -4.0750   18.6447  -32.4064 H   0  0  0  0  0  0  0  0  0  0  0  0
   -4.4692   19.9733  -31.6781 H   0  0  0  0  0  0  0  0  0  0  0  0
  1  2  1  0
  2  3  1  0
  2  4  1  0
  2  5  1  0
  5  6  1  0
  6  7  2  0
  6  8  1  0
  8  9  1  0
  9 10  1  0
 10 11  1  0
 10 12  2  0
  9 13  2  0
 13 14  1  0
 14 15  2  0
 15 16  1  0
 16 17  2  0
 17 18  1  0
 18 19  1  1
 18 20  1  0
 20 21  1  0
 21 22  1  0
 22 23  1  0
 23 24  1  0
 24 25  2  0
 25 26  1  0
 26 27  2  0
 27 28  1  0
 28 29  2  0
 22 30  1  0
 17 31  1  0
 31 32  2  0
 32  8  1  0
 32 14  1  0
 30 18  1  0
 29 24  1  0
  1 33  1  0
  1 34  1  0
  1 35  1  0
  3 36  1  0
  3 37  1  0
  3 38  1  0
  4 39  1  0
  4 40  1  0
  4 41  1  0
 11 42  1  0
 11 43  1  0
 13 44  1  0
 15 45  1  0
 16 46  1  0
 20 47  1  0
 20 48  1  0
 21 49  1  0
 21 50  1  0
 23 51  1  0
 23 52  1  0
 25 53  1  0
 26 54  1  0
 27 55  1  0
 28 56  1  0
 29 57  1  0
 30 58  1  0
 30 59  1  0
 31 60  1  0
M  END
>  <UniqueID>  (53) 
53

>  <SMILES>  (53) 
CC(C)(C)OC(=O)n1c(C(N)=O)cc2ccc([C@@]3(F)CCN(Cc4ccccc4)C3)cc21

>  <Energy>  (53) 
103.10464236444486

>  <Genealogy>  (53) 
CC(C)(C)OC(=O)n1c(C(N)=O)cc2ccc([C@@]3(F)CCN(Cc4ccccc4)C3)cc21 (chirality)
CC(C)(C)OC(=O)n1c(C(N)=O)cc2ccc([C@@]3(F)CCN(Cc4ccccc4)C3)cc21 (3D coordinates assigned)
CC(C)(C)OC(=O)n1c(C(N)=O)cc2ccc([C@@]3(F)CCN(Cc4ccccc4)C3)cc21 (nonaromatic ring conformer: 103.10464236444486 kcal/mol)

>  <smiles>  (53) 
CC(C)(C)OC(=O)n1c(C(N)=O)cc2ccc(C3(F)CCN(Cc4ccccc4)C3)cc21

>  <score_type>  (53) 
oracle

>  <origin>  (53) 
adg

>  <m_score__min__energy>  (53) 
-10.23

>  <m_primary>  (53) 
energy

$$$$
54:0
     RDKit          3D

 42 44  0  0  0  0  0  0  0  0999 V2000
   -7.4920   21.6120  -31.9130 C   0  0  0  0  0  0  0  0  0  0  0  0
   -8.3050   20.3180  -31.9260 C   0  0  0  0  0  0  0  0  0  0  0  0
   -8.0160   19.5480  -33.0940 O   0  0  0  0  0  0  0  0  0  0  0  0
   -7.4760   18.2560  -33.0550 C   0  0  0  0  0  0  0  0  0  0  0  0
   -7.8610   17.4240  -32.1890 O   0  0  0  0  0  0  0  0  0  0  0  0
   -6.4810   17.8460  -34.0960 C   0  0  0  0  0  0  0  0  0  0  0  0
   -5.1580   18.3820  -33.7820 N   0  0  0  0  0  0  0  0  0  0  0  0
   -4.8740   19.2430  -32.7860 C   0  0  0  0  0  0  0  0  0  0  0  0
   -3.5250   19.5530  -32.8590 C   0  0  0  0  0  0  0  0  0  0  0  0
   -2.7580   20.4630  -31.9700 C   0  0  0  0  0  0  0  0  0  0  0  0
   -1.4010   20.1830  -31.6540 C   0  0  0  0  0  0  0  0  0  0  0  0
   -0.6620   21.0400  -30.8210 C   0  0  0  0  0  0  0  0  0  0  0  0
   -1.3020   22.1650  -30.3100 C   0  0  0  0  0  0  0  0  0  0  0  0
   -0.8150   23.1740  -29.5100 C   0  0  0  0  0  0  0  0  0  0  0  0
   -1.8840   24.0520  -29.3300 C   0  0  0  0  0  0  0  0  0  0  0  0
   -1.8160   25.2630  -28.4850 C   0  0  0  0  0  0  0  0  0  0  0  0
   -1.1610   26.4340  -28.9720 N   0  0  0  0  0  0  0  0  0  0  0  0
   -2.3160   25.2730  -27.3300 O   0  0  0  0  0  0  0  0  0  0  0  0
   -2.9860   23.6010  -29.9930 N   0  0  0  0  0  0  0  0  0  0  0  0
   -4.2650   24.2440  -30.1100 C   0  0  0  0  0  0  0  0  0  0  0  0
   -4.8460   24.9080  -28.9870 N   0  0  0  0  0  0  0  0  0  0  0  0
   -4.8920   24.2050  -31.2020 O   0  0  0  0  0  0  0  0  0  0  0  0
   -2.6130   22.4470  -30.5890 C   0  0  0  0  0  0  0  0  0  0  0  0
   -3.3680   21.6220  -31.4310 C   0  0  0  0  0  0  0  0  0  0  0  0
   -3.0560   18.8350  -33.9530 C   0  0  0  0  0  0  0  0  0  0  0  0
   -4.0700   18.1360  -34.4990 N   0  0  0  0  0  0  0  0  0  0  0  0
   -7.3016   21.9150  -30.8728 H   0  0  0  0  0  0  0  0  0  0  0  0
   -6.5341   21.4484  -32.4284 H   0  0  0  0  0  0  0  0  0  0  0  0
   -8.0551   22.4040  -32.4284 H   0  0  0  0  0  0  0  0  0  0  0  0
   -8.0549   19.7262  -31.0331 H   0  0  0  0  0  0  0  0  0  0  0  0
   -9.3747   20.5742  -31.9289 H   0  0  0  0  0  0  0  0  0  0  0  0
   -6.4270   16.7479  -34.1320 H   0  0  0  0  0  0  0  0  0  0  0  0
   -6.8026   18.2431  -35.0701 H   0  0  0  0  0  0  0  0  0  0  0  0
   -5.5875   19.6320  -32.0446 H   0  0  0  0  0  0  0  0  0  0  0  0
   -0.9225   19.2829  -32.0673 H   0  0  0  0  0  0  0  0  0  0  0  0
    0.3902   20.8281  -30.5802 H   0  0  0  0  0  0  0  0  0  0  0  0
    0.2013   23.2679  -29.0998 H   0  0  0  0  0  0  0  0  0  0  0  0
   -0.8500   26.4990  -29.9670 H   0  0  0  0  0  0  0  0  0  0  0  0
   -4.3110   25.0100  -28.0950 H   0  0  0  0  0  0  0  0  0  0  0  0
   -5.7990   25.3330  -29.0590 H   0  0  0  0  0  0  0  0  0  0  0  0
   -4.4132   21.8687  -31.6690 H   0  0  0  0  0  0  0  0  0  0  0  0
   -2.0178   18.8372  -34.3165 H   0  0  0  0  0  0  0  0  0  0  0  0
  1  2  1  0
  2  3  1  0
  3  4  1  0
  4  5  2  0
  4  6  1  0
  6  7  1  0
  7  8  1  0
  8  9  2  0
  9 10  1  0
 10 11  2  0
 11 12  1  0
 12 13  2  0
 13 14  1  0
 14 15  2  0
 15 16  1  0
 16 17  1  0
 16 18  2  0
 15 19  1  0
 19 20  1  0
 20 21  1  0
 20 22  2  0
 19 23  1  0
 23 24  2  0
  9 25  1  0
 25 26  2  0
 26  7  1  0
 24 10  1  0
 23 13  1  0
  1 27  1  0
  1 28  1  0
  1 29  1  0
  2 30  1  0
  2 31  1  0
  6 32  1  0
  6 33  1  0
  8 34  1  0
 11 35  1  0
 12 36  1  0
 14 37  1  0
 17 38  1  0
 21 39  1  0
 21 40  1  0
 24 41  1  0
 25 42  1  0
M  CHG  1  17  -1
M  END
>  <UniqueID>  (54) 
54

>  <SMILES>  (54) 
CCOC(=O)Cn1cc(-c2ccc3cc(C([NH-])=O)n(C(N)=O)c3c2)cn1

>  <Energy>  (54) 
108.76383815077492

>  <Genealogy>  (54) 
CCOC(=O)Cn1cc(-c2ccc3cc(C([NH-])=O)n(C(N)=O)c3c2)cn1 (protonated)
CCOC(=O)Cn1cc(-c2ccc3cc(C([NH-])=O)n(C(N)=O)c3c2)cn1 (3D coordinates assigned)
CCOC(=O)Cn1cc(-c2ccc3cc(C([NH-])=O)n(C(N)=O)c3c2)cn1 (optimized conformer: 108.76383815077492 kcal/mol)

>  <smiles>  (54) 
CCOC(=O)Cn1cc(-c2ccc3cc(C(N)=O)n(C(N)=O)c3c2)cn1

>  <score_type>  (54) 
oracle

>  <origin>  (54) 
adg

>  <m_score__min__energy>  (54) 
-10.34

>  <m_primary>  (54) 
energy

$$$$
55:0
     RDKit          3D

 40 42  0  0  0  0  0  0  0  0999 V2000
   -8.9420   21.2390  -30.9180 C   0  0  0  0  0  0  0  0  0  0  0  0
   -9.0990   19.7330  -31.8540 S   0  0  0  0  0  0  0  0  0  0  0  0
   -8.8620   18.3350  -30.9510 O   0  0  0  0  0  0  0  0  0  0  0  0
   -8.1980   19.7320  -33.3380 N   0  0  0  0  0  0  0  0  0  0  0  0
   -6.8110   19.3790  -33.4630 C   0  0  0  0  0  0  0  0  0  0  0  0
   -5.7960   20.0660  -32.7750 C   0  0  0  0  0  0  0  0  0  0  0  0
   -4.4540   19.6820  -32.9380 C   0  0  0  0  0  0  0  0  0  0  0  0
   -3.3710   20.4050  -32.2220 C   0  0  0  0  0  0  0  0  0  0  0  0
   -2.0480   19.8870  -32.2120 C   0  0  0  0  0  0  0  0  0  0  0  0
   -1.0180   20.5550  -31.5290 C   0  0  0  0  0  0  0  0  0  0  0  0
   -1.3330   21.7420  -30.8730 C   0  0  0  0  0  0  0  0  0  0  0  0
   -0.5390   22.5710  -30.1160 C   0  0  0  0  0  0  0  0  0  0  0  0
   -1.3790   23.5990  -29.6910 C   0  0  0  0  0  0  0  0  0  0  0  0
   -0.9160   24.7550  -28.8930 C   0  0  0  0  0  0  0  0  0  0  0  0
   -1.6060   26.0020  -28.9370 N   0  0  0  0  0  0  0  0  0  0  0  0
    0.1250   24.6510  -28.1930 O   0  0  0  0  0  0  0  0  0  0  0  0
   -2.6420   23.4100  -30.1670 N   0  0  0  0  0  0  0  0  0  0  0  0
   -3.8120   24.1990  -29.8990 C   0  0  0  0  0  0  0  0  0  0  0  0
   -4.7720   23.7620  -28.9380 N   0  0  0  0  0  0  0  0  0  0  0  0
   -3.9920   25.2850  -30.5100 O   0  0  0  0  0  0  0  0  0  0  0  0
   -2.5980   22.2670  -30.8870 C   0  0  0  0  0  0  0  0  0  0  0  0
   -3.6480   21.6130  -31.5390 C   0  0  0  0  0  0  0  0  0  0  0  0
   -4.1550   18.6070  -33.7880 C   0  0  0  0  0  0  0  0  0  0  0  0
   -5.1870   17.9450  -34.4520 C   0  0  0  0  0  0  0  0  0  0  0  0
   -6.4740   18.3410  -34.2780 N   0  0  0  0  0  0  0  0  0  0  0  0
   -8.9662   21.0068  -29.8431 H   0  0  0  0  0  0  0  0  0  0  0  0
   -7.9881   21.7273  -31.1663 H   0  0  0  0  0  0  0  0  0  0  0  0
   -9.7747   21.9135  -31.1663 H   0  0  0  0  0  0  0  0  0  0  0  0
   -9.7600   17.9350  -30.8430 H   0  0  0  0  0  0  0  0  0  0  0  0
   -8.7110   20.0300  -34.1970 H   0  0  0  0  0  0  0  0  0  0  0  0
   -6.0519   20.9036  -32.1095 H   0  0  0  0  0  0  0  0  0  0  0  0
   -1.8274   18.9509  -32.7459 H   0  0  0  0  0  0  0  0  0  0  0  0
    0.0057   20.1527  -31.5130 H   0  0  0  0  0  0  0  0  0  0  0  0
    0.5313   22.4489  -29.8932 H   0  0  0  0  0  0  0  0  0  0  0  0
   -2.6480   26.0370  -28.9780 H   0  0  0  0  0  0  0  0  0  0  0  0
   -5.6080   24.3490  -28.7220 H   0  0  0  0  0  0  0  0  0  0  0  0
   -4.6710   22.8340  -28.4690 H   0  0  0  0  0  0  0  0  0  0  0  0
   -4.6665   22.0282  -31.5214 H   0  0  0  0  0  0  0  0  0  0  0  0
   -3.1119   18.2879  -33.9300 H   0  0  0  0  0  0  0  0  0  0  0  0
   -4.9580   17.1002  -35.1182 H   0  0  0  0  0  0  0  0  0  0  0  0
  1  2  1  0
  2  3  1  1
  2  4  1  0
  4  5  1  0
  5  6  2  0
  6  7  1  0
  7  8  1  0
  8  9  2  0
  9 10  1  0
 10 11  2  0
 11 12  1  0
 12 13  2  0
 13 14  1  0
 14 15  1  0
 14 16  2  0
 13 17  1  0
 17 18  1  0
 18 19  1  0
 18 20  2  0
 17 21  1  0
 21 22  2  0
  7 23  2  0
 23 24  1  0
 24 25  2  0
 25  5  1  0
 22  8  1  0
 21 11  1  0
  1 26  1  0
  1 27  1  0
  1 28  1  0
  3 29  1  0
  4 30  1  0
  6 31  1  0
  9 32  1  0
 10 33  1  0
 12 34  1  0
 15 35  1  0
 19 36  1  0
 19 37  1  0
 22 38  1  0
 23 39  1  0
 24 40  1  0
M  CHG  2   2   1  15  -1
M  END
>  <UniqueID>  (55) 
55

>  <SMILES>  (55) 
C[S@+](O)Nc1cc(-c2ccc3cc(C([NH-])=O)n(C(N)=O)c3c2)ccn1

>  <Energy>  (55) 
84.62416502151174

>  <Genealogy>  (55) 
C[S+](O)Nc1cc(-c2ccc3cc(C([NH-])=O)n(C(N)=O)c3c2)ccn1 (protonated)
C[S@+](O)Nc1cc(-c2ccc3cc(C([NH-])=O)n(C(N)=O)c3c2)ccn1 (chirality)
C[S@+](O)Nc1cc(-c2ccc3cc(C([NH-])=O)n(C(N)=O)c3c2)ccn1 (3D coordinates assigned)
C[S@+](O)Nc1cc(-c2ccc3cc(C([NH-])=O)n(C(N)=O)c3c2)ccn1 (optimized conformer: 84.62416502151174 kcal/mol)

>  <smiles>  (55) 
C[S+]([O-])Nc1cc(-c2ccc3cc(C(N)=O)n(C(N)=O)c3c2)ccn1

>  <score_type>  (55) 
oracle

>  <origin>  (55) 
adg

>  <m_score__min__energy>  (55) 
-11.210000000000001

>  <m_primary>  (55) 
energy

$$$$
56:0
     RDKit          3D

 25 26  0  0  0  0  0  0  0  0999 V2000
   -5.5370   26.4980  -30.4010 N   0  0  0  0  0  0  0  0  0  0  0  0
   -6.3660   25.4170  -29.9700 C   0  0  0  0  0  0  0  0  0  0  0  0
   -7.1280   25.5850  -28.9820 O   0  0  0  0  0  0  0  0  0  0  0  0
   -6.3070   24.1030  -30.6490 C   0  0  0  0  0  0  0  0  0  0  0  0
   -7.4330   23.3910  -31.0580 C   0  0  0  0  0  0  0  0  0  0  0  0
   -6.9450   22.2920  -31.7260 C   0  0  0  0  0  0  0  0  0  0  0  0
   -7.6270   21.2480  -32.3450 C   0  0  0  0  0  0  0  0  0  0  0  0
   -6.8680   20.2300  -32.9460 C   0  0  0  0  0  0  0  0  0  0  0  0
   -5.4500   20.2580  -32.8980 C   0  0  0  0  0  0  0  0  0  0  0  0
   -4.6470   19.1790  -33.5790 C   0  0  0  0  0  0  0  0  0  0  0  0
   -4.4340   18.1130  -32.7230 F   0  0  0  0  0  0  0  0  0  0  0  0
   -3.4150   19.6650  -33.9780 F   0  0  0  0  0  0  0  0  0  0  0  0
   -5.3360   18.7320  -34.6910 F   0  0  0  0  0  0  0  0  0  0  0  0
   -4.7960   21.3490  -32.2800 C   0  0  0  0  0  0  0  0  0  0  0  0
   -5.5770   22.3590  -31.7040 C   0  0  0  0  0  0  0  0  0  0  0  0
   -5.1680   23.4680  -31.0470 N   0  0  0  0  0  0  0  0  0  0  0  0
   -3.8110   23.8470  -30.7600 C   0  0  0  0  0  0  0  0  0  0  0  0
   -2.8980   22.9800  -30.7430 O   0  0  0  0  0  0  0  0  0  0  0  0
   -3.4950   25.1710  -30.4850 O   0  0  0  0  0  0  0  0  0  0  0  0
   -5.5570   27.4080  -29.8910 H   0  0  0  0  0  0  0  0  0  0  0  0
   -4.9320   26.4130  -31.2480 H   0  0  0  0  0  0  0  0  0  0  0  0
   -8.4873   23.6522  -30.8838 H   0  0  0  0  0  0  0  0  0  0  0  0
   -8.7265   21.2210  -32.3630 H   0  0  0  0  0  0  0  0  0  0  0  0
   -7.3786   19.4020  -33.4595 H   0  0  0  0  0  0  0  0  0  0  0  0
   -3.6977   21.4032  -32.2523 H   0  0  0  0  0  0  0  0  0  0  0  0
  1  2  1  0
  2  3  2  0
  2  4  1  0
  4  5  2  0
  5  6  1  0
  6  7  2  0
  7  8  1  0
  8  9  2  0
  9 10  1  0
 10 11  1  0
 10 12  1  0
 10 13  1  0
  9 14  1  0
 14 15  2  0
 15 16  1  0
 16 17  1  0
 17 18  2  0
 17 19  1  0
 16  4  1  0
 15  6  1  0
  1 20  1  0
  1 21  1  0
  5 22  1  0
  7 23  1  0
  8 24  1  0
 14 25  1  0
M  CHG  1  19  -1
M  END
>  <UniqueID>  (56) 
56

>  <SMILES>  (56) 
NC(=O)c1cc2ccc(C(F)(F)F)cc2n1C(=O)[O-]

>  <Energy>  (56) 
65.431130675013

>  <Genealogy>  (56) 
NC(=O)c1cc2ccc(C(F)(F)F)cc2n1C(=O)[O-] (protonated)
NC(=O)c1cc2ccc(C(F)(F)F)cc2n1C(=O)[O-] (3D coordinates assigned)
NC(=O)c1cc2ccc(C(F)(F)F)cc2n1C(=O)[O-] (optimized conformer: 65.431130675013 kcal/mol)

>  <smiles>  (56) 
NC(=O)c1cc2ccc(C(F)(F)F)cc2n1C(=O)O

>  <score_type>  (56) 
oracle

>  <origin>  (56) 
adg

>  <m_score__min__energy>  (56) 
-8

>  <m_primary>  (56) 
energy

$$$$
57:0
     RDKit          3D

 49 52  0  0  0  0  0  0  0  0999 V2000
   -2.6670   19.2800  -33.8760 C   0  0  0  0  0  0  0  0  0  0  0  0
   -3.4890   18.0700  -34.0240 N   0  0  0  0  0  0  0  0  0  0  0  0
   -3.6260   17.3760  -32.7270 C   0  0  0  0  0  0  0  0  0  0  0  0
   -4.0780   15.9060  -32.8960 C   0  0  0  0  0  0  0  0  0  0  0  0
   -4.7650   15.6650  -34.1840 N   0  0  0  0  0  0  0  0  0  0  0  0
   -6.0760   16.3500  -34.2500 C   0  0  0  0  0  0  0  0  0  0  0  0
   -6.4970   16.9580  -32.9410 C   0  0  0  0  0  0  0  0  0  0  0  0
   -6.4310   18.3610  -33.3840 N   0  0  0  0  0  0  0  0  0  0  0  0
   -6.6740   19.6540  -32.8300 C   0  0  0  0  0  0  0  0  0  0  0  0
   -8.0020   20.1170  -32.6710 C   0  0  0  0  0  0  0  0  0  0  0  0
   -8.2540   21.3940  -32.1400 C   0  0  0  0  0  0  0  0  0  0  0  0
   -7.1610   22.1740  -31.7730 C   0  0  0  0  0  0  0  0  0  0  0  0
   -7.1150   23.4520  -31.2640 C   0  0  0  0  0  0  0  0  0  0  0  0
   -5.7600   23.7370  -31.1020 C   0  0  0  0  0  0  0  0  0  0  0  0
   -5.2530   24.9970  -30.5180 C   0  0  0  0  0  0  0  0  0  0  0  0
   -3.8620   25.3020  -30.5840 N   0  0  0  0  0  0  0  0  0  0  0  0
   -6.0390   25.8210  -29.9810 O   0  0  0  0  0  0  0  0  0  0  0  0
   -4.9990   22.6780  -31.4960 N   0  0  0  0  0  0  0  0  0  0  0  0
   -3.5660   22.5890  -31.5350 C   0  0  0  0  0  0  0  0  0  0  0  0
   -2.7850   23.0150  -30.4180 N   0  0  0  0  0  0  0  0  0  0  0  0
   -2.9910   22.1300  -32.5570 O   0  0  0  0  0  0  0  0  0  0  0  0
   -5.8700   21.7290  -31.9050 C   0  0  0  0  0  0  0  0  0  0  0  0
   -5.5900   20.4710  -32.4500 C   0  0  0  0  0  0  0  0  0  0  0  0
   -5.9830   17.7910  -34.6670 C   0  0  0  0  0  0  0  0  0  0  0  0
   -3.8890   16.0180  -35.3330 C   0  0  0  0  0  0  0  0  0  0  0  0
   -2.9120   17.1730  -35.0350 C   0  0  0  0  0  0  0  0  0  0  0  0
   -2.5207   19.4954  -32.8073 H   0  0  0  0  0  0  0  0  0  0  0  0
   -1.6897   19.1202  -34.3550 H   0  0  0  0  0  0  0  0  0  0  0  0
   -3.1756   20.1296  -34.3550 H   0  0  0  0  0  0  0  0  0  0  0  0
   -2.6537   17.3908  -32.2128 H   0  0  0  0  0  0  0  0  0  0  0  0
   -4.3958   17.9011  -32.1425 H   0  0  0  0  0  0  0  0  0  0  0  0
   -3.1916   15.2568  -32.8430 H   0  0  0  0  0  0  0  0  0  0  0  0
   -4.7935   15.6835  -32.0907 H   0  0  0  0  0  0  0  0  0  0  0  0
   -6.6452   15.5819  -34.7940 H   0  0  0  0  0  0  0  0  0  0  0  0
   -7.5112   16.6561  -32.6406 H   0  0  0  0  0  0  0  0  0  0  0  0
   -5.9068   16.6874  -32.0531 H   0  0  0  0  0  0  0  0  0  0  0  0
   -8.8435   19.4726  -32.9652 H   0  0  0  0  0  0  0  0  0  0  0  0
   -9.2823   21.7651  -32.0184 H   0  0  0  0  0  0  0  0  0  0  0  0
   -7.9667   24.1090  -31.0339 H   0  0  0  0  0  0  0  0  0  0  0  0
   -3.5000   26.0140  -31.2550 H   0  0  0  0  0  0  0  0  0  0  0  0
   -1.7450   22.9210  -30.4360 H   0  0  0  0  0  0  0  0  0  0  0  0
   -3.2390   23.4610  -29.5910 H   0  0  0  0  0  0  0  0  0  0  0  0
   -4.5524   20.1290  -32.5784 H   0  0  0  0  0  0  0  0  0  0  0  0
   -6.6601   18.0358  -35.4987 H   0  0  0  0  0  0  0  0  0  0  0  0
   -5.0131   18.1363  -35.0544 H   0  0  0  0  0  0  0  0  0  0  0  0
   -3.3024   15.1292  -35.6085 H   0  0  0  0  0  0  0  0  0  0  0  0
   -4.5470   16.3553  -36.1474 H   0  0  0  0  0  0  0  0  0  0  0  0
   -1.9644   16.7607  -34.6581 H   0  0  0  0  0  0  0  0  0  0  0  0
   -2.7300   17.7402  -35.9598 H   0  0  0  0  0  0  0  0  0  0  0  0
  1  2  1  0
  2  3  1  0
  3  4  1  0
  4  5  1  0
  5  6  1  0
  6  7  1  0
  7  8  1  0
  8  9  1  0
  9 10  2  0
 10 11  1  0
 11 12  2  0
 12 13  1  0
 13 14  2  0
 14 15  1  0
 15 16  1  0
 15 17  2  0
 14 18  1  0
 18 19  1  0
 19 20  1  0
 19 21  2  0
 18 22  1  0
 22 23  2  0
  8 24  1  0
  5 25  1  0
 25 26  1  0
 26  2  1  0
 24  6  1  0
 23  9  1  0
 22 12  1  0
  1 27  1  0
  1 28  1  0
  1 29  1  0
  3 30  1  0
  3 31  1  0
  4 32  1  0
  4 33  1  0
  6 34  1  0
  7 35  1  0
  7 36  1  0
 10 37  1  0
 11 38  1  0
 13 39  1  0
 16 40  1  0
 20 41  1  0
 20 42  1  0
 23 43  1  0
 24 44  1  0
 24 45  1  0
 25 46  1  0
 25 47  1  0
 26 48  1  0
 26 49  1  0
M  CHG  1  16  -1
M  END
>  <UniqueID>  (57) 
57

>  <SMILES>  (57) 
CN1CCN(C2CN(c3ccc4cc(C([NH-])=O)n(C(N)=O)c4c3)C2)CC1

>  <Energy>  (57) 
144.67069255509878

>  <Genealogy>  (57) 
CN1CCN(C2CN(c3ccc4cc(C([NH-])=O)n(C(N)=O)c4c3)C2)CC1 (protonated)
CN1CCN(C2CN(c3ccc4cc(C([NH-])=O)n(C(N)=O)c4c3)C2)CC1 (3D coordinates assigned)
CN1CCN(C2CN(c3ccc4cc(C([NH-])=O)n(C(N)=O)c4c3)C2)CC1 (nonaromatic ring conformer: 144.67069255509878 kcal/mol)

>  <smiles>  (57) 
CN1CCN(C2CN(c3ccc4cc(C(N)=O)n(C(N)=O)c4c3)C2)CC1

>  <score_type>  (57) 
oracle

>  <origin>  (57) 
adg

>  <m_score__min__energy>  (57) 
-10.699999999999999

>  <m_primary>  (57) 
energy

$$$$
58:0
     RDKit          3D

 46 48  0  0  0  0  0  0  0  0999 V2000
   -4.2970   25.5410  -30.6270 N   0  0  0  0  0  0  0  0  0  0  0  0
   -5.6080   25.1470  -30.2170 C   0  0  0  0  0  0  0  0  0  0  0  0
   -6.2410   25.8750  -29.4060 O   0  0  0  0  0  0  0  0  0  0  0  0
   -6.2330   23.9170  -30.7530 C   0  0  0  0  0  0  0  0  0  0  0  0
   -7.6010   23.7720  -30.9880 C   0  0  0  0  0  0  0  0  0  0  0  0
   -7.7630   22.4710  -31.4120 C   0  0  0  0  0  0  0  0  0  0  0  0
   -8.9110   21.7960  -31.8180 C   0  0  0  0  0  0  0  0  0  0  0  0
   -8.7740   20.4680  -32.2580 C   0  0  0  0  0  0  0  0  0  0  0  0
   -7.5010   19.8440  -32.2820 C   0  0  0  0  0  0  0  0  0  0  0  0
   -7.3500   18.4390  -32.8060 C   0  0  0  0  0  0  0  0  0  0  0  0
   -6.0650   18.2870  -33.6390 C   0  0  0  0  0  0  0  0  0  0  0  0
   -6.1780   17.1740  -34.4560 F   0  0  0  0  0  0  0  0  0  0  0  0
   -5.8870   19.4050  -34.4370 F   0  0  0  0  0  0  0  0  0  0  0  0
   -4.8340   18.1100  -32.7430 C   0  0  0  0  0  0  0  0  0  0  0  0
   -4.0040   19.2410  -32.8020 O   0  0  0  0  0  0  0  0  0  0  0  0
   -6.3610   20.5630  -31.8650 C   0  0  0  0  0  0  0  0  0  0  0  0
   -6.5290   21.8770  -31.4180 C   0  0  0  0  0  0  0  0  0  0  0  0
   -5.5810   22.7500  -31.0160 N   0  0  0  0  0  0  0  0  0  0  0  0
   -4.1670   22.5010  -30.9810 C   0  0  0  0  0  0  0  0  0  0  0  0
   -3.3660   23.3560  -31.4470 O   0  0  0  0  0  0  0  0  0  0  0  0
   -3.6920   21.2940  -30.4560 O   0  0  0  0  0  0  0  0  0  0  0  0
   -2.7650   21.2210  -29.3770 C   0  0  0  0  0  0  0  0  0  0  0  0
   -2.7800   22.5130  -28.6070 C   0  0  0  0  0  0  0  0  0  0  0  0
   -3.9120   22.8700  -27.8580 C   0  0  0  0  0  0  0  0  0  0  0  0
   -3.9120   24.0390  -27.0920 C   0  0  0  0  0  0  0  0  0  0  0  0
   -2.7790   24.8570  -27.0640 C   0  0  0  0  0  0  0  0  0  0  0  0
   -1.6440   24.5040  -27.8000 C   0  0  0  0  0  0  0  0  0  0  0  0
   -1.6400   23.3350  -28.5670 C   0  0  0  0  0  0  0  0  0  0  0  0
   -3.7170   24.9360  -31.2480 H   0  0  0  0  0  0  0  0  0  0  0  0
   -3.8830   26.4310  -30.2700 H   0  0  0  0  0  0  0  0  0  0  0  0
   -8.3837   24.5344  -30.8616 H   0  0  0  0  0  0  0  0  0  0  0  0
   -9.8951   22.2869  -31.7952 H   0  0  0  0  0  0  0  0  0  0  0  0
   -9.6620   19.9081  -32.5865 H   0  0  0  0  0  0  0  0  0  0  0  0
   -7.3103   17.7420  -31.9559 H   0  0  0  0  0  0  0  0  0  0  0  0
   -8.2111   18.2157  -33.4530 H   0  0  0  0  0  0  0  0  0  0  0  0
   -5.1634   17.9589  -31.7044 H   0  0  0  0  0  0  0  0  0  0  0  0
   -4.2647   17.2377  -33.0966 H   0  0  0  0  0  0  0  0  0  0  0  0
   -4.0670   19.6930  -31.9200 H   0  0  0  0  0  0  0  0  0  0  0  0
   -5.3633   20.1005  -31.8910 H   0  0  0  0  0  0  0  0  0  0  0  0
   -3.0463   20.3938  -28.7087 H   0  0  0  0  0  0  0  0  0  0  0  0
   -1.7548   21.0466  -29.7760 H   0  0  0  0  0  0  0  0  0  0  0  0
   -4.8039   22.2263  -27.8739 H   0  0  0  0  0  0  0  0  0  0  0  0
   -4.8041   24.3154  -26.5109 H   0  0  0  0  0  0  0  0  0  0  0  0
   -2.7804   25.7783  -26.4630 H   0  0  0  0  0  0  0  0  0  0  0  0
   -0.7521   25.1474  -27.7756 H   0  0  0  0  0  0  0  0  0  0  0  0
   -0.7431   23.0578  -29.1403 H   0  0  0  0  0  0  0  0  0  0  0  0
  1  2  1  0
  2  3  2  0
  2  4  1  0
  4  5  2  0
  5  6  1  0
  6  7  2  0
  7  8  1  0
  8  9  2  0
  9 10  1  0
 10 11  1  0
 11 12  1  0
 11 13  1  0
 11 14  1  0
 14 15  1  0
  9 16  1  0
 16 17  2  0
 17 18  1  0
 18 19  1  0
 19 20  2  0
 19 21  1  0
 21 22  1  0
 22 23  1  0
 23 24  2  0
 24 25  1  0
 25 26  2  0
 26 27  1  0
 27 28  2  0
 18  4  1  0
 28 23  1  0
 17  6  1  0
  1 29  1  0
  1 30  1  0
  5 31  1  0
  7 32  1  0
  8 33  1  0
 10 34  1  0
 10 35  1  0
 14 36  1  0
 14 37  1  0
 15 38  1  0
 16 39  1  0
 22 40  1  0
 22 41  1  0
 24 42  1  0
 25 43  1  0
 26 44  1  0
 27 45  1  0
 28 46  1  0
M  END
>  <UniqueID>  (58) 
58

>  <SMILES>  (58) 
NC(=O)c1cc2ccc(CC(F)(F)CO)cc2n1C(=O)OCc1ccccc1

>  <Energy>  (58) 
79.65238551966483

>  <Genealogy>  (58) 
NC(=O)c1cc2ccc(CC(F)(F)CO)cc2n1C(=O)OCc1ccccc1 (3D coordinates assigned)
NC(=O)c1cc2ccc(CC(F)(F)CO)cc2n1C(=O)OCc1ccccc1 (optimized conformer: 79.65238551966483 kcal/mol)

>  <smiles>  (58) 
NC(=O)c1cc2ccc(CC(F)(F)CO)cc2n1C(=O)OCc1ccccc1

>  <score_type>  (58) 
oracle

>  <origin>  (58) 
adg

>  <m_score__min__energy>  (58) 
-9.8399999999999999

>  <m_primary>  (58) 
energy

$$$$
59:0
     RDKit          3D

 63 67  0  0  0  0  0  0  0  0999 V2000
   -3.8190   23.4200  -27.9940 C   0  0  0  0  0  0  0  0  0  0  0  0
   -2.8790   22.5700  -28.8340 C   0  0  0  0  0  0  0  0  0  0  0  0
   -2.7370   23.1530  -30.1250 O   0  0  0  0  0  0  0  0  0  0  0  0
   -3.4360   22.6940  -31.2450 C   0  0  0  0  0  0  0  0  0  0  0  0
   -2.8140   22.1730  -32.2120 O   0  0  0  0  0  0  0  0  0  0  0  0
   -4.8680   22.7890  -31.2790 N   0  0  0  0  0  0  0  0  0  0  0  0
   -5.6430   23.8860  -31.0460 C   0  0  0  0  0  0  0  0  0  0  0  0
   -5.1700   25.1960  -30.5510 C   0  0  0  0  0  0  0  0  0  0  0  0
   -3.8660   25.6750  -30.8710 N   0  0  0  0  0  0  0  0  0  0  0  0
   -5.9100   25.8800  -29.7940 O   0  0  0  0  0  0  0  0  0  0  0  0
   -6.9880   23.5890  -31.2560 C   0  0  0  0  0  0  0  0  0  0  0  0
   -7.0150   22.2610  -31.6170 C   0  0  0  0  0  0  0  0  0  0  0  0
   -8.0930   21.4460  -31.9490 C   0  0  0  0  0  0  0  0  0  0  0  0
   -7.8260   20.1150  -32.3090 C   0  0  0  0  0  0  0  0  0  0  0  0
   -6.4950   19.6230  -32.3420 C   0  0  0  0  0  0  0  0  0  0  0  0
   -6.2210   18.2160  -32.7340 C   0  0  0  0  0  0  0  0  0  0  0  0
   -6.2990   17.8170  -34.0760 C   0  0  0  0  0  0  0  0  0  0  0  0
   -6.0410   16.4940  -34.4310 C   0  0  0  0  0  0  0  0  0  0  0  0
   -5.7010   15.5610  -33.4430 C   0  0  0  0  0  0  0  0  0  0  0  0
   -5.4320   14.1970  -33.8280 N   0  0  0  0  0  0  0  0  0  0  0  0
   -4.0920   13.5920  -33.8490 C   0  0  0  0  0  0  0  0  0  0  0  0
   -3.2340   14.1120  -32.6680 C   0  0  0  0  0  0  0  0  0  0  0  0
   -2.2550   15.2220  -33.0750 C   0  0  0  0  0  0  0  0  0  0  0  0
   -2.8570   16.0860  -34.1090 N   0  0  0  0  0  0  0  0  0  0  0  0
   -2.1280   17.3830  -34.1860 C   0  0  0  0  0  0  0  0  0  0  0  0
   -1.6540   17.9800  -32.8750 C   0  0  0  0  0  0  0  0  0  0  0  0
   -2.5080   19.0940  -33.0000 O   0  0  0  0  0  0  0  0  0  0  0  0
   -2.9920   18.6270  -34.2390 C   0  0  0  0  0  0  0  0  0  0  0  0
   -3.0670   15.3600  -35.3920 C   0  0  0  0  0  0  0  0  0  0  0  0
   -3.3910   13.8630  -35.1940 C   0  0  0  0  0  0  0  0  0  0  0  0
   -5.6320   15.9630  -32.1380 N   0  0  0  0  0  0  0  0  0  0  0  0
   -5.8810   17.2510  -31.7720 C   0  0  0  0  0  0  0  0  0  0  0  0
   -5.4280   20.4870  -32.0010 C   0  0  0  0  0  0  0  0  0  0  0  0
   -5.7250   21.8020  -31.6240 C   0  0  0  0  0  0  0  0  0  0  0  0
   -3.6207   23.2407  -26.9270 H   0  0  0  0  0  0  0  0  0  0  0  0
   -3.6558   24.4833  -28.2236 H   0  0  0  0  0  0  0  0  0  0  0  0
   -4.8606   23.1510  -28.2236 H   0  0  0  0  0  0  0  0  0  0  0  0
   -1.8952   22.5188  -28.3447 H   0  0  0  0  0  0  0  0  0  0  0  0
   -3.2926   21.5556  -28.9335 H   0  0  0  0  0  0  0  0  0  0  0  0
   -3.0200   25.2800  -30.4050 H   0  0  0  0  0  0  0  0  0  0  0  0
   -7.8455   24.2705  -31.1549 H   0  0  0  0  0  0  0  0  0  0  0  0
   -9.1227   21.8324  -31.9300 H   0  0  0  0  0  0  0  0  0  0  0  0
   -8.6590   19.4452  -32.5687 H   0  0  0  0  0  0  0  0  0  0  0  0
   -6.5647   18.5506  -34.8513 H   0  0  0  0  0  0  0  0  0  0  0  0
   -6.1042   16.1834  -35.4843 H   0  0  0  0  0  0  0  0  0  0  0  0
   -6.2550   13.5980  -34.0700 H   0  0  0  0  0  0  0  0  0  0  0  0
   -4.2068   12.5039  -33.7352 H   0  0  0  0  0  0  0  0  0  0  0  0
   -3.9079   14.5068  -31.8934 H   0  0  0  0  0  0  0  0  0  0  0  0
   -2.6347   13.2655  -32.3016 H   0  0  0  0  0  0  0  0  0  0  0  0
   -2.0098   15.8306  -32.1921 H   0  0  0  0  0  0  0  0  0  0  0  0
   -1.3428   14.7613  -33.4821 H   0  0  0  0  0  0  0  0  0  0  0  0
   -1.4464   17.0691  -34.9903 H   0  0  0  0  0  0  0  0  0  0  0  0
   -1.8777   17.3516  -32.0003 H   0  0  0  0  0  0  0  0  0  0  0  0
   -0.5774   18.1474  -32.7234 H   0  0  0  0  0  0  0  0  0  0  0  0
   -4.0709   18.4124  -34.2359 H   0  0  0  0  0  0  0  0  0  0  0  0
   -2.9274   19.2841  -35.1188 H   0  0  0  0  0  0  0  0  0  0  0  0
   -3.9037   15.8315  -35.9283 H   0  0  0  0  0  0  0  0  0  0  0  0
   -2.1275   15.4202  -35.9609 H   0  0  0  0  0  0  0  0  0  0  0  0
   -4.0504   13.5323  -36.0100 H   0  0  0  0  0  0  0  0  0  0  0  0
   -2.4409   13.3086  -35.1973 H   0  0  0  0  0  0  0  0  0  0  0  0
   -5.3890   15.2900  -31.3800 H   0  0  0  0  0  0  0  0  0  0  0  0
   -5.8151   17.5383  -30.7122 H   0  0  0  0  0  0  0  0  0  0  0  0
   -4.3870   20.1330  -32.0315 H   0  0  0  0  0  0  0  0  0  0  0  0
  1  2  1  0
  2  3  1  0
  3  4  1  0
  4  5  2  0
  4  6  1  0
  6  7  1  0
  7  8  1  0
  8  9  1  0
  8 10  2  0
  7 11  2  0
 11 12  1  0
 12 13  2  0
 13 14  1  0
 14 15  2  0
 15 16  1  0
 16 17  2  0
 17 18  1  0
 18 19  2  0
 19 20  1  0
 20 21  1  0
 21 22  1  0
 22 23  1  0
 23 24  1  0
 24 25  1  0
 25 26  1  0
 26 27  1  0
 27 28  1  0
 24 29  1  0
 29 30  1  0
 19 31  1  0
 31 32  2  0
 15 33  1  0
 33 34  2  0
 34  6  1  0
 34 12  1  0
 32 16  1  0
 30 21  1  0
 28 25  1  0
  1 35  1  0
  1 36  1  0
  1 37  1  0
  2 38  1  0
  2 39  1  0
  9 40  1  0
 11 41  1  0
 13 42  1  0
 14 43  1  0
 17 44  1  0
 18 45  1  0
 20 46  1  0
 21 47  1  0
 22 48  1  0
 22 49  1  0
 23 50  1  0
 23 51  1  0
 25 52  1  0
 26 53  1  0
 26 54  1  0
 28 55  1  0
 28 56  1  0
 29 57  1  0
 29 58  1  0
 30 59  1  0
 30 60  1  0
 31 61  1  0
 32 62  1  0
 33 63  1  0
M  CHG  2   9  -1  31   1
M  END
>  <UniqueID>  (59) 
59

>  <SMILES>  (59) 
CCOC(=O)n1c(C([NH-])=O)cc2ccc(-c3ccc(NC4CCN(C5COC5)CC4)[nH+]c3)cc21

>  <Energy>  (59) 
184.50792607982942

>  <Genealogy>  (59) 
CCOC(=O)n1c(C([NH-])=O)cc2ccc(-c3ccc(NC4CCN(C5COC5)CC4)[nH+]c3)cc21 (protonated)
CCOC(=O)n1c(C([NH-])=O)cc2ccc(-c3ccc(NC4CCN(C5COC5)CC4)[nH+]c3)cc21 (3D coordinates assigned)
CCOC(=O)n1c(C([NH-])=O)cc2ccc(-c3ccc(NC4CCN(C5COC5)CC4)[nH+]c3)cc21 (nonaromatic ring conformer: 184.50792607982942 kcal/mol)

>  <smiles>  (59) 
CCOC(=O)n1c(C(N)=O)cc2ccc(-c3ccc(NC4CCN(C5COC5)CC4)nc3)cc21

>  <score_type>  (59) 
oracle

>  <origin>  (59) 
adg

>  <m_score__min__energy>  (59) 
-10.58

>  <m_primary>  (59) 
energy

$$$$
60:0
     RDKit          3D

 52 54  0  0  0  0  0  0  0  0999 V2000
   -3.8630   23.1550  -27.9640 C   0  0  0  0  0  0  0  0  0  0  0  0
   -2.8500   22.7030  -29.0250 C   0  0  0  0  0  0  0  0  0  0  0  0
   -1.4540   23.2120  -28.6290 C   0  0  0  0  0  0  0  0  0  0  0  0
   -2.8670   21.1640  -29.1010 C   0  0  0  0  0  0  0  0  0  0  0  0
   -3.2580   23.2830  -30.2730 O   0  0  0  0  0  0  0  0  0  0  0  0
   -4.0520   22.6760  -31.2520 C   0  0  0  0  0  0  0  0  0  0  0  0
   -3.5260   22.0030  -32.1810 O   0  0  0  0  0  0  0  0  0  0  0  0
   -5.4810   22.8340  -31.2000 N   0  0  0  0  0  0  0  0  0  0  0  0
   -6.1740   23.9790  -30.9360 C   0  0  0  0  0  0  0  0  0  0  0  0
   -5.5960   25.2470  -30.4430 C   0  0  0  0  0  0  0  0  0  0  0  0
   -4.2510   25.6180  -30.7490 N   0  0  0  0  0  0  0  0  0  0  0  0
   -6.2860   25.9930  -29.6970 O   0  0  0  0  0  0  0  0  0  0  0  0
   -7.5360   23.7920  -31.1460 C   0  0  0  0  0  0  0  0  0  0  0  0
   -7.6640   22.4780  -31.5350 C   0  0  0  0  0  0  0  0  0  0  0  0
   -8.8020   21.7590  -31.8840 C   0  0  0  0  0  0  0  0  0  0  0  0
   -8.6400   20.4190  -32.2710 C   0  0  0  0  0  0  0  0  0  0  0  0
   -7.3540   19.8300  -32.3210 C   0  0  0  0  0  0  0  0  0  0  0  0
   -7.1940   18.3900  -32.7480 C   0  0  0  0  0  0  0  0  0  0  0  0
   -5.7740   17.8000  -32.5350 C   0  0  0  0  0  0  0  0  0  0  0  0
   -4.6940   18.4350  -33.4460 C   0  0  0  0  0  0  0  0  0  0  0  0
   -4.3240   17.5450  -34.6460 C   0  0  0  0  0  0  0  0  0  0  0  0
   -5.3900   16.6910  -34.9970 O   0  0  0  0  0  0  0  0  0  0  0  0
   -5.5430   15.6870  -34.0120 C   0  0  0  0  0  0  0  0  0  0  0  0
   -5.7370   16.2550  -32.5860 C   0  0  0  0  0  0  0  0  0  0  0  0
   -6.2220   20.5910  -31.9600 C   0  0  0  0  0  0  0  0  0  0  0  0
   -6.4120   21.9200  -31.5590 C   0  0  0  0  0  0  0  0  0  0  0  0
   -3.4503   22.9709  -26.9611 H   0  0  0  0  0  0  0  0  0  0  0  0
   -4.0663   24.2292  -28.0853 H   0  0  0  0  0  0  0  0  0  0  0  0
   -4.7983   22.5888  -28.0853 H   0  0  0  0  0  0  0  0  0  0  0  0
   -1.3720   23.2419  -27.5325 H   0  0  0  0  0  0  0  0  0  0  0  0
   -0.6880   22.5353  -29.0356 H   0  0  0  0  0  0  0  0  0  0  0  0
   -1.3033   24.2229  -29.0356 H   0  0  0  0  0  0  0  0  0  0  0  0
   -2.8716   20.7467  -28.0833 H   0  0  0  0  0  0  0  0  0  0  0  0
   -3.7689   20.8333  -29.6370 H   0  0  0  0  0  0  0  0  0  0  0  0
   -1.9727   20.8135  -29.6370 H   0  0  0  0  0  0  0  0  0  0  0  0
   -3.6030   24.9440  -31.2090 H   0  0  0  0  0  0  0  0  0  0  0  0
   -3.8610   26.5240  -30.4040 H   0  0  0  0  0  0  0  0  0  0  0  0
   -8.3386   24.5347  -31.0268 H   0  0  0  0  0  0  0  0  0  0  0  0
   -9.7979   22.2254  -31.8577 H   0  0  0  0  0  0  0  0  0  0  0  0
   -9.5230   19.8200  -32.5385 H   0  0  0  0  0  0  0  0  0  0  0  0
   -7.9069   17.7815  -32.1723 H   0  0  0  0  0  0  0  0  0  0  0  0
   -7.3787   18.3669  -33.8321 H   0  0  0  0  0  0  0  0  0  0  0  0
   -5.5111   18.0840  -31.5053 H   0  0  0  0  0  0  0  0  0  0  0  0
   -5.0747   19.3949  -33.8251 H   0  0  0  0  0  0  0  0  0  0  0  0
   -3.7857   18.5657  -32.8394 H   0  0  0  0  0  0  0  0  0  0  0  0
   -4.0799   18.1859  -35.5060 H   0  0  0  0  0  0  0  0  0  0  0  0
   -3.4596   16.9251  -34.3658 H   0  0  0  0  0  0  0  0  0  0  0  0
   -6.4223   15.0776  -34.2679 H   0  0  0  0  0  0  0  0  0  0  0  0
   -4.6166   15.0940  -34.0038 H   0  0  0  0  0  0  0  0  0  0  0  0
   -6.6865   15.8709  -32.1849 H   0  0  0  0  0  0  0  0  0  0  0  0
   -4.8704   15.9331  -31.9898 H   0  0  0  0  0  0  0  0  0  0  0  0
   -5.2142   20.1513  -31.9926 H   0  0  0  0  0  0  0  0  0  0  0  0
  1  2  1  0
  2  3  1  0
  2  4  1  0
  2  5  1  0
  5  6  1  0
  6  7  2  0
  6  8  1  0
  8  9  1  0
  9 10  1  0
 10 11  1  0
 10 12  2  0
  9 13  2  0
 13 14  1  0
 14 15  2  0
 15 16  1  0
 16 17  2  0
 17 18  1  0
 18 19  1  0
 19 20  1  0
 20 21  1  0
 21 22  1  0
 22 23  1  0
 23 24  1  0
 17 25  1  0
 25 26  2  0
 26  8  1  0
 26 14  1  0
 24 19  1  0
  1 27  1  0
  1 28  1  0
  1 29  1  0
  3 30  1  0
  3 31  1  0
  3 32  1  0
  4 33  1  0
  4 34  1  0
  4 35  1  0
 11 36  1  0
 11 37  1  0
 13 38  1  0
 15 39  1  0
 16 40  1  0
 18 41  1  0
 18 42  1  0
 19 43  1  0
 20 44  1  0
 20 45  1  0
 21 46  1  0
 21 47  1  0
 23 48  1  0
 23 49  1  0
 24 50  1  0
 24 51  1  0
 25 52  1  0
M  END
>  <UniqueID>  (60) 
60

>  <SMILES>  (60) 
CC(C)(C)OC(=O)n1c(C(N)=O)cc2ccc(CC3CCOCC3)cc21

>  <Energy>  (60) 
94.14768608809074

>  <Genealogy>  (60) 
CC(C)(C)OC(=O)n1c(C(N)=O)cc2ccc(CC3CCOCC3)cc21 (3D coordinates assigned)
CC(C)(C)OC(=O)n1c(C(N)=O)cc2ccc(CC3CCOCC3)cc21 (nonaromatic ring conformer: 94.14768608809074 kcal/mol)

>  <smiles>  (60) 
CC(C)(C)OC(=O)n1c(C(N)=O)cc2ccc(CC3CCOCC3)cc21

>  <score_type>  (60) 
oracle

>  <origin>  (60) 
adg

>  <m_score__min__energy>  (60) 
-9.6899999999999995

>  <m_primary>  (60) 
energy

$$$$
61:0
     RDKit          3D

 47 49  0  0  0  0  0  0  0  0999 V2000
   -6.8890   20.6800  -32.0820 C   0  0  0  0  0  0  0  0  0  0  0  0
   -6.2020   19.7060  -32.9880 C   0  0  0  0  0  0  0  0  0  0  0  0
   -6.8510   18.8610  -33.8100 N   0  0  0  0  0  0  0  0  0  0  0  0
   -5.9680   18.1500  -34.4450 O   0  0  0  0  0  0  0  0  0  0  0  0
   -4.7520   18.4790  -34.0700 C   0  0  0  0  0  0  0  0  0  0  0  0
   -3.5150   17.8370  -34.6070 C   0  0  0  0  0  0  0  0  0  0  0  0
   -4.8370   19.4920  -33.1220 C   0  0  0  0  0  0  0  0  0  0  0  0
   -3.7320   20.1700  -32.4100 C   0  0  0  0  0  0  0  0  0  0  0  0
   -2.4450   19.5790  -32.3600 C   0  0  0  0  0  0  0  0  0  0  0  0
   -1.3870   20.2180  -31.6920 C   0  0  0  0  0  0  0  0  0  0  0  0
   -1.6460   21.4410  -31.0800 C   0  0  0  0  0  0  0  0  0  0  0  0
   -0.8020   22.2840  -30.3930 C   0  0  0  0  0  0  0  0  0  0  0  0
   -1.5920   23.3680  -30.0150 C   0  0  0  0  0  0  0  0  0  0  0  0
   -1.0970   24.4800  -29.1760 C   0  0  0  0  0  0  0  0  0  0  0  0
   -1.8980   25.6360  -28.9440 N   0  0  0  0  0  0  0  0  0  0  0  0
    0.0270   24.3860  -28.6150 O   0  0  0  0  0  0  0  0  0  0  0  0
   -2.8700   23.2070  -30.4600 N   0  0  0  0  0  0  0  0  0  0  0  0
   -3.9620   24.1350  -30.3690 C   0  0  0  0  0  0  0  0  0  0  0  0
   -3.8370   25.2950  -30.8480 O   0  0  0  0  0  0  0  0  0  0  0  0
   -5.1650   23.7250  -29.7770 O   0  0  0  0  0  0  0  0  0  0  0  0
   -6.4880   23.9740  -30.2750 C   0  0  0  0  0  0  0  0  0  0  0  0
   -7.3810   22.8290  -29.7770 C   0  0  0  0  0  0  0  0  0  0  0  0
   -7.0310   25.3070  -29.7250 C   0  0  0  0  0  0  0  0  0  0  0  0
   -6.4950   23.9760  -31.8150 C   0  0  0  0  0  0  0  0  0  0  0  0
   -2.8870   22.0200  -31.1060 C   0  0  0  0  0  0  0  0  0  0  0  0
   -3.9550   21.4130  -31.7760 C   0  0  0  0  0  0  0  0  0  0  0  0
   -6.6955   20.4057  -31.0345 H   0  0  0  0  0  0  0  0  0  0  0  0
   -6.5042   21.6926  -32.2729 H   0  0  0  0  0  0  0  0  0  0  0  0
   -7.9721   20.6573  -32.2729 H   0  0  0  0  0  0  0  0  0  0  0  0
   -7.8850   18.7770  -33.9340 H   0  0  0  0  0  0  0  0  0  0  0  0
   -2.8804   17.5076  -33.7711 H   0  0  0  0  0  0  0  0  0  0  0  0
   -3.7905   16.9681  -35.2227 H   0  0  0  0  0  0  0  0  0  0  0  0
   -2.9631   18.5624  -35.2227 H   0  0  0  0  0  0  0  0  0  0  0  0
   -2.2724   18.6092  -32.8496 H   0  0  0  0  0  0  0  0  0  0  0  0
   -0.3850   19.7658  -31.6538 H   0  0  0  0  0  0  0  0  0  0  0  0
    0.2680   22.1340  -30.1864 H   0  0  0  0  0  0  0  0  0  0  0  0
   -2.8720   25.6990  -29.3150 H   0  0  0  0  0  0  0  0  0  0  0  0
   -7.3874   22.8208  -28.6770 H   0  0  0  0  0  0  0  0  0  0  0  0
   -8.4060   22.9752  -30.1485 H   0  0  0  0  0  0  0  0  0  0  0  0
   -6.9895   21.8705  -30.1485 H   0  0  0  0  0  0  0  0  0  0  0  0
   -7.0206   25.2814  -28.6253 H   0  0  0  0  0  0  0  0  0  0  0  0
   -6.3983   26.1344  -30.0785 H   0  0  0  0  0  0  0  0  0  0  0  0
   -8.0618   25.4568  -30.0785 H   0  0  0  0  0  0  0  0  0  0  0  0
   -7.4939   24.2612  -32.1768 H   0  0  0  0  0  0  0  0  0  0  0  0
   -5.7514   24.6977  -32.1841 H   0  0  0  0  0  0  0  0  0  0  0  0
   -6.2447   22.9705  -32.1841 H   0  0  0  0  0  0  0  0  0  0  0  0
   -4.9447   21.8921  -31.8084 H   0  0  0  0  0  0  0  0  0  0  0  0
  1  2  1  0
  2  3  2  0
  3  4  1  0
  4  5  1  0
  5  6  1  0
  5  7  2  0
  7  8  1  0
  8  9  2  0
  9 10  1  0
 10 11  2  0
 11 12  1  0
 12 13  2  0
 13 14  1  0
 14 15  1  0
 14 16  2  0
 13 17  1  0
 17 18  1  0
 18 19  2  0
 18 20  1  0
 20 21  1  0
 21 22  1  0
 21 23  1  0
 21 24  1  0
 17 25  1  0
 25 26  2  0
  7  2  1  0
 26  8  1  0
 25 11  1  0
  1 27  1  0
  1 28  1  0
  1 29  1  0
  3 30  1  0
  6 31  1  0
  6 32  1  0
  6 33  1  0
  9 34  1  0
 10 35  1  0
 12 36  1  0
 15 37  1  0
 22 38  1  0
 22 39  1  0
 22 40  1  0
 23 41  1  0
 23 42  1  0
 23 43  1  0
 24 44  1  0
 24 45  1  0
 24 46  1  0
 26 47  1  0
M  CHG  2   3   1  15  -1
M  END
>  <UniqueID>  (61) 
61

>  <SMILES>  (61) 
Cc1[nH+]oc(C)c1-c1ccc2cc(C([NH-])=O)n(C(=O)OC(C)(C)C)c2c1

>  <Energy>  (61) 
116.39590265407305

>  <Genealogy>  (61) 
Cc1[nH+]oc(C)c1-c1ccc2cc(C([NH-])=O)n(C(=O)OC(C)(C)C)c2c1 (protonated)
Cc1[nH+]oc(C)c1-c1ccc2cc(C([NH-])=O)n(C(=O)OC(C)(C)C)c2c1 (3D coordinates assigned)
Cc1[nH+]oc(C)c1-c1ccc2cc(C([NH-])=O)n(C(=O)OC(C)(C)C)c2c1 (optimized conformer: 116.39590265407305 kcal/mol)

>  <smiles>  (61) 
Cc1noc(C)c1-c1ccc2cc(C(N)=O)n(C(=O)OC(C)(C)C)c2c1

>  <score_type>  (61) 
oracle

>  <origin>  (61) 
adg

>  <m_score__min__energy>  (61) 
-11.23

>  <m_primary>  (61) 
energy

$$$$
62:0
     RDKit          3D

 32 34  0  0  0  0  0  0  0  0999 V2000
   -3.8800   25.6530  -30.8430 N   0  0  0  0  0  0  0  0  0  0  0  0
   -5.1370   25.1150  -30.4400 C   0  0  0  0  0  0  0  0  0  0  0  0
   -5.8290   25.7350  -29.5900 O   0  0  0  0  0  0  0  0  0  0  0  0
   -5.6090   23.8170  -30.9620 C   0  0  0  0  0  0  0  0  0  0  0  0
   -6.9550   23.5110  -31.1510 C   0  0  0  0  0  0  0  0  0  0  0  0
   -6.9790   22.1940  -31.5500 C   0  0  0  0  0  0  0  0  0  0  0  0
   -8.0550   21.3800  -31.8850 C   0  0  0  0  0  0  0  0  0  0  0  0
   -7.7840   20.0630  -32.2910 C   0  0  0  0  0  0  0  0  0  0  0  0
   -6.4480   19.5840  -32.3630 C   0  0  0  0  0  0  0  0  0  0  0  0
   -6.1730   18.1930  -32.8050 C   0  0  0  0  0  0  0  0  0  0  0  0
   -6.4580   17.7920  -34.1230 C   0  0  0  0  0  0  0  0  0  0  0  0
   -6.1980   16.4820  -34.5380 C   0  0  0  0  0  0  0  0  0  0  0  0
   -5.6510   15.5580  -33.6430 C   0  0  0  0  0  0  0  0  0  0  0  0
   -5.3260   13.9160  -34.1650 Cl  0  0  0  0  0  0  0  0  0  0  0  0
   -5.3630   15.9450  -32.3310 C   0  0  0  0  0  0  0  0  0  0  0  0
   -5.6210   17.2550  -31.9120 C   0  0  0  0  0  0  0  0  0  0  0  0
   -5.3820   20.4460  -32.0140 C   0  0  0  0  0  0  0  0  0  0  0  0
   -5.6840   21.7480  -31.5970 C   0  0  0  0  0  0  0  0  0  0  0  0
   -4.8300   22.7330  -31.2420 N   0  0  0  0  0  0  0  0  0  0  0  0
   -3.3950   22.6610  -31.2610 C   0  0  0  0  0  0  0  0  0  0  0  0
   -2.6330   23.2280  -30.1970 N   0  0  0  0  0  0  0  0  0  0  0  0
   -2.8010   22.1230  -32.2330 O   0  0  0  0  0  0  0  0  0  0  0  0
   -2.9890   25.3110  -30.4200 H   0  0  0  0  0  0  0  0  0  0  0  0
   -7.8165   24.1805  -31.0109 H   0  0  0  0  0  0  0  0  0  0  0  0
   -9.0875   21.7560  -31.8337 H   0  0  0  0  0  0  0  0  0  0  0  0
   -8.6160   19.3942  -32.5565 H   0  0  0  0  0  0  0  0  0  0  0  0
   -6.8885   18.5141  -34.8324 H   0  0  0  0  0  0  0  0  0  0  0  0
   -6.4244   16.1782  -35.5707 H   0  0  0  0  0  0  0  0  0  0  0  0
   -4.9326   15.2182  -31.6264 H   0  0  0  0  0  0  0  0  0  0  0  0
   -5.3911   17.5537  -30.8786 H   0  0  0  0  0  0  0  0  0  0  0  0
   -4.3390   20.1010  -32.0690 H   0  0  0  0  0  0  0  0  0  0  0  0
   -2.3430   24.2300  -30.2210 H   0  0  0  0  0  0  0  0  0  0  0  0
  1  2  1  0
  2  3  2  0
  2  4  1  0
  4  5  2  0
  5  6  1  0
  6  7  2  0
  7  8  1  0
  8  9  2  0
  9 10  1  0
 10 11  2  0
 11 12  1  0
 12 13  2  0
 13 14  1  0
 13 15  1  0
 15 16  2  0
  9 17  1  0
 17 18  2  0
 18 19  1  0
 19 20  1  0
 20 21  1  0
 20 22  2  0
 19  4  1  0
 18  6  1  0
 16 10  1  0
  1 23  1  0
  5 24  1  0
  7 25  1  0
  8 26  1  0
 11 27  1  0
 12 28  1  0
 15 29  1  0
 16 30  1  0
 17 31  1  0
 21 32  1  0
M  CHG  2   1  -1  21  -1
M  END
>  <UniqueID>  (62) 
62

>  <SMILES>  (62) 
[NH-]C(=O)c1cc2ccc(-c3ccc(Cl)cc3)cc2n1C([NH-])=O

>  <Energy>  (62) 
79.54673264269736

>  <Genealogy>  (62) 
[NH-]C(=O)c1cc2ccc(-c3ccc(Cl)cc3)cc2n1C([NH-])=O (protonated)
[NH-]C(=O)c1cc2ccc(-c3ccc(Cl)cc3)cc2n1C([NH-])=O (3D coordinates assigned)
[NH-]C(=O)c1cc2ccc(-c3ccc(Cl)cc3)cc2n1C([NH-])=O (optimized conformer: 79.54673264269736 kcal/mol)

>  <smiles>  (62) 
NC(=O)c1cc2ccc(-c3ccc(Cl)cc3)cc2n1C(N)=O

>  <score_type>  (62) 
oracle

>  <origin>  (62) 
adg

>  <m_score__min__energy>  (62) 
-10.869999999999999

>  <m_primary>  (62) 
energy

$$$$
63:0
     RDKit          3D

 36 38  0  0  0  0  0  0  0  0999 V2000
   -3.9240   25.6740  -30.8360 N   0  0  0  0  0  0  0  0  0  0  0  0
   -5.2250   25.2010  -30.4990 C   0  0  0  0  0  0  0  0  0  0  0  0
   -6.0070   25.9500  -29.8560 O   0  0  0  0  0  0  0  0  0  0  0  0
   -5.6880   23.8700  -30.9450 C   0  0  0  0  0  0  0  0  0  0  0  0
   -7.0330   23.5390  -31.0940 C   0  0  0  0  0  0  0  0  0  0  0  0
   -7.0390   22.2620  -31.6080 C   0  0  0  0  0  0  0  0  0  0  0  0
   -8.1090   21.4390  -31.9430 C   0  0  0  0  0  0  0  0  0  0  0  0
   -7.8240   20.1520  -32.4280 C   0  0  0  0  0  0  0  0  0  0  0  0
   -6.4820   19.7070  -32.5630 C   0  0  0  0  0  0  0  0  0  0  0  0
   -6.1930   18.3390  -33.0650 C   0  0  0  0  0  0  0  0  0  0  0  0
   -4.9250   18.0220  -33.5850 C   0  0  0  0  0  0  0  0  0  0  0  0
   -4.6530   16.7350  -34.0570 C   0  0  0  0  0  0  0  0  0  0  0  0
   -5.6410   15.7400  -34.0110 C   0  0  0  0  0  0  0  0  0  0  0  0
   -5.3590   14.3650  -34.5490 C   0  0  0  0  0  0  0  0  0  0  0  0
   -6.6170   13.5590  -34.5870 C   0  0  0  0  0  0  0  0  0  0  0  0
   -7.5990   13.9500  -35.2710 O   0  0  0  0  0  0  0  0  0  0  0  0
   -6.6890   12.3490  -33.9080 O   0  0  0  0  0  0  0  0  0  0  0  0
   -6.9110   16.0540  -33.5050 C   0  0  0  0  0  0  0  0  0  0  0  0
   -7.1830   17.3410  -33.0320 C   0  0  0  0  0  0  0  0  0  0  0  0
   -5.4220   20.5760  -32.2100 C   0  0  0  0  0  0  0  0  0  0  0  0
   -5.7370   21.8590  -31.7480 C   0  0  0  0  0  0  0  0  0  0  0  0
   -4.8930   22.8360  -31.3420 N   0  0  0  0  0  0  0  0  0  0  0  0
   -3.4630   22.7450  -31.2530 C   0  0  0  0  0  0  0  0  0  0  0  0
   -2.7960   22.2600  -32.2050 O   0  0  0  0  0  0  0  0  0  0  0  0
   -2.8020   23.1670  -30.1060 O   0  0  0  0  0  0  0  0  0  0  0  0
   -3.0750   25.2920  -30.3620 H   0  0  0  0  0  0  0  0  0  0  0  0
   -7.9047   24.1649  -30.8523 H   0  0  0  0  0  0  0  0  0  0  0  0
   -9.1470   21.7855  -31.8315 H   0  0  0  0  0  0  0  0  0  0  0  0
   -8.6498   19.4809  -32.7065 H   0  0  0  0  0  0  0  0  0  0  0  0
   -4.1414   18.7932  -33.6204 H   0  0  0  0  0  0  0  0  0  0  0  0
   -3.6593   16.5010  -34.4666 H   0  0  0  0  0  0  0  0  0  0  0  0
   -4.9505   14.4495  -35.5668 H   0  0  0  0  0  0  0  0  0  0  0  0
   -4.6312   13.8647  -33.8932 H   0  0  0  0  0  0  0  0  0  0  0  0
   -7.6963   15.2842  -33.4803 H   0  0  0  0  0  0  0  0  0  0  0  0
   -8.1800   17.5750  -32.6306 H   0  0  0  0  0  0  0  0  0  0  0  0
   -4.3749   20.2505  -32.2968 H   0  0  0  0  0  0  0  0  0  0  0  0
  1  2  1  0
  2  3  2  0
  2  4  1  0
  4  5  2  0
  5  6  1  0
  6  7  2  0
  7  8  1  0
  8  9  2  0
  9 10  1  0
 10 11  2  0
 11 12  1  0
 12 13  2  0
 13 14  1  0
 14 15  1  0
 15 16  2  0
 15 17  1  0
 13 18  1  0
 18 19  2  0
  9 20  1  0
 20 21  2  0
 21 22  1  0
 22 23  1  0
 23 24  2  0
 23 25  1  0
 22  4  1  0
 21  6  1  0
 19 10  1  0
  1 26  1  0
  5 27  1  0
  7 28  1  0
  8 29  1  0
 11 30  1  0
 12 31  1  0
 14 32  1  0
 14 33  1  0
 18 34  1  0
 19 35  1  0
 20 36  1  0
M  CHG  3   1  -1  17  -1  25  -1
M  END
>  <UniqueID>  (63) 
63

>  <SMILES>  (63) 
[NH-]C(=O)c1cc2ccc(-c3ccc(CC(=O)[O-])cc3)cc2n1C(=O)[O-]

>  <Energy>  (63) 
82.29445699128505

>  <Genealogy>  (63) 
[NH-]C(=O)c1cc2ccc(-c3ccc(CC(=O)[O-])cc3)cc2n1C(=O)[O-] (protonated)
[NH-]C(=O)c1cc2ccc(-c3ccc(CC(=O)[O-])cc3)cc2n1C(=O)[O-] (3D coordinates assigned)
[NH-]C(=O)c1cc2ccc(-c3ccc(CC(=O)[O-])cc3)cc2n1C(=O)[O-] (optimized conformer: 82.29445699128505 kcal/mol)

>  <smiles>  (63) 
NC(=O)c1cc2ccc(-c3ccc(CC(=O)O)cc3)cc2n1C(=O)O

>  <score_type>  (63) 
oracle

>  <origin>  (63) 
adg

>  <m_score__min__energy>  (63) 
-10.859999999999999

>  <m_primary>  (63) 
energy

$$$$
64:0
     RDKit          3D

 49 51  0  0  0  0  0  0  0  0999 V2000
    0.3380   24.4200  -36.1750 C   0  0  0  0  0  0  0  0  0  0  0  0
    0.4060   23.1520  -35.4440 N   0  0  0  0  0  0  0  0  0  0  0  0
    1.5760   22.3620  -35.8540 C   0  0  0  0  0  0  0  0  0  0  0  0
    1.1950   20.9390  -36.1820 C   0  0  0  0  0  0  0  0  0  0  0  0
    2.0020   20.2340  -36.8420 O   0  0  0  0  0  0  0  0  0  0  0  0
   -0.0340   20.3460  -35.7380 N   0  0  0  0  0  0  0  0  0  0  0  0
   -0.6010   20.4450  -34.4240 C   0  0  0  0  0  0  0  0  0  0  0  0
   -1.9890   20.3880  -34.2220 C   0  0  0  0  0  0  0  0  0  0  0  0
   -2.5170   20.4850  -32.9320 C   0  0  0  0  0  0  0  0  0  0  0  0
   -1.6640   20.6220  -31.8280 C   0  0  0  0  0  0  0  0  0  0  0  0
   -2.2440   20.7970  -30.4510 C   0  0  0  0  0  0  0  0  0  0  0  0
   -3.5970   21.2370  -30.5470 O   0  0  0  0  0  0  0  0  0  0  0  0
   -3.9610   22.4790  -31.0790 C   0  0  0  0  0  0  0  0  0  0  0  0
   -3.0820   23.2560  -31.5440 O   0  0  0  0  0  0  0  0  0  0  0  0
   -5.3470   22.8570  -31.1210 N   0  0  0  0  0  0  0  0  0  0  0  0
   -5.8880   24.0640  -30.7920 C   0  0  0  0  0  0  0  0  0  0  0  0
   -5.1380   25.3000  -30.4960 C   0  0  0  0  0  0  0  0  0  0  0  0
   -3.7160   25.2860  -30.3980 N   0  0  0  0  0  0  0  0  0  0  0  0
   -5.7540   26.3930  -30.3810 O   0  0  0  0  0  0  0  0  0  0  0  0
   -7.2790   24.0070  -30.8470 C   0  0  0  0  0  0  0  0  0  0  0  0
   -7.5770   22.7200  -31.2310 C   0  0  0  0  0  0  0  0  0  0  0  0
   -8.8100   22.1090  -31.4270 C   0  0  0  0  0  0  0  0  0  0  0  0
   -8.8240   20.7510  -31.7880 C   0  0  0  0  0  0  0  0  0  0  0  0
   -7.6130   20.0280  -31.9440 C   0  0  0  0  0  0  0  0  0  0  0  0
   -7.6730   18.5640  -32.2940 C   0  0  0  0  0  0  0  0  0  0  0  0
   -6.9780   17.7920  -31.3810 F   0  0  0  0  0  0  0  0  0  0  0  0
   -8.9920   18.1530  -32.3110 F   0  0  0  0  0  0  0  0  0  0  0  0
   -7.1210   18.3610  -33.5460 F   0  0  0  0  0  0  0  0  0  0  0  0
   -6.3780   20.6820  -31.7200 C   0  0  0  0  0  0  0  0  0  0  0  0
   -6.3940   22.0440  -31.3870 C   0  0  0  0  0  0  0  0  0  0  0  0
   -0.2750   20.6460  -32.0280 C   0  0  0  0  0  0  0  0  0  0  0  0
    0.2510   20.5450  -33.3200 C   0  0  0  0  0  0  0  0  0  0  0  0
    0.2933   25.2540  -35.4591 H   0  0  0  0  0  0  0  0  0  0  0  0
    1.2317   24.5271  -36.8073 H   0  0  0  0  0  0  0  0  0  0  0  0
   -0.5620   24.4309  -36.8073 H   0  0  0  0  0  0  0  0  0  0  0  0
   -0.4530   22.6050  -35.6870 H   0  0  0  0  0  0  0  0  0  0  0  0
    2.0263   22.8257  -36.7440 H   0  0  0  0  0  0  0  0  0  0  0  0
    2.2906   22.3441  -35.0179 H   0  0  0  0  0  0  0  0  0  0  0  0
   -2.6634   20.2665  -35.0824 H   0  0  0  0  0  0  0  0  0  0  0  0
   -3.6063   20.4537  -32.7821 H   0  0  0  0  0  0  0  0  0  0  0  0
   -2.2098   19.8365  -29.9160 H   0  0  0  0  0  0  0  0  0  0  0  0
   -1.6566   21.5486  -29.9033 H   0  0  0  0  0  0  0  0  0  0  0  0
   -3.1170   25.4360  -31.2420 H   0  0  0  0  0  0  0  0  0  0  0  0
   -7.9885   24.8189  -30.6295 H   0  0  0  0  0  0  0  0  0  0  0  0
   -9.7470   22.6718  -31.3032 H   0  0  0  0  0  0  0  0  0  0  0  0
   -9.7854   20.2422  -31.9517 H   0  0  0  0  0  0  0  0  0  0  0  0
   -5.4277   20.1346  -31.8052 H   0  0  0  0  0  0  0  0  0  0  0  0
    0.4017   20.7445  -31.1664 H   0  0  0  0  0  0  0  0  0  0  0  0
    1.3410   20.5442  -33.4684 H   0  0  0  0  0  0  0  0  0  0  0  0
  1  2  1  0
  2  3  1  0
  3  4  1  0
  4  5  2  0
  4  6  1  0
  6  7  1  0
  7  8  2  0
  8  9  1  0
  9 10  2  0
 10 11  1  0
 11 12  1  0
 12 13  1  0
 13 14  2  0
 13 15  1  0
 15 16  1  0
 16 17  1  0
 17 18  1  0
 17 19  2  0
 16 20  2  0
 20 21  1  0
 21 22  2  0
 22 23  1  0
 23 24  2  0
 24 25  1  0
 25 26  1  0
 25 27  1  0
 25 28  1  0
 24 29  1  0
 29 30  2  0
 10 31  1  0
 31 32  2  0
 32  7  1  0
 30 15  1  0
 30 21  1  0
  1 33  1  0
  1 34  1  0
  1 35  1  0
  2 36  1  0
  3 37  1  0
  3 38  1  0
  8 39  1  0
  9 40  1  0
 11 41  1  0
 11 42  1  0
 18 43  1  0
 20 44  1  0
 22 45  1  0
 23 46  1  0
 29 47  1  0
 31 48  1  0
 32 49  1  0
M  CHG  2   6  -1  18  -1
M  END
>  <UniqueID>  (64) 
64

>  <SMILES>  (64) 
CNCC(=O)[N-]c1ccc(COC(=O)n2c(C([NH-])=O)cc3ccc(C(F)(F)F)cc32)cc1

>  <Energy>  (64) 
91.11970289837426

>  <Genealogy>  (64) 
CNCC(=O)[N-]c1ccc(COC(=O)n2c(C([NH-])=O)cc3ccc(C(F)(F)F)cc32)cc1 (protonated)
CNCC(=O)[N-]c1ccc(COC(=O)n2c(C([NH-])=O)cc3ccc(C(F)(F)F)cc32)cc1 (3D coordinates assigned)
CNCC(=O)[N-]c1ccc(COC(=O)n2c(C([NH-])=O)cc3ccc(C(F)(F)F)cc32)cc1 (optimized conformer: 91.11970289837426 kcal/mol)

>  <smiles>  (64) 
CNCC(=O)Nc1ccc(COC(=O)n2c(C(N)=O)cc3ccc(C(F)(F)F)cc32)cc1

>  <score_type>  (64) 
oracle

>  <origin>  (64) 
adg

>  <m_score__min__energy>  (64) 
-11.69

>  <m_primary>  (64) 
energy

$$$$
65:0
     RDKit          3D

 41 42  0  0  0  0  0  0  0  0999 V2000
   -5.7580   18.3660  -34.5280 C   0  0  0  0  0  0  0  0  0  0  0  0
   -6.8490   18.2280  -33.4720 C   0  0  0  0  0  0  0  0  0  0  0  0
   -7.0790   19.5400  -32.7700 C   0  0  0  0  0  0  0  0  0  0  0  0
   -8.3940   19.9410  -32.4290 C   0  0  0  0  0  0  0  0  0  0  0  0
   -8.6260   21.1830  -31.8160 C   0  0  0  0  0  0  0  0  0  0  0  0
   -7.5280   21.9980  -31.5560 C   0  0  0  0  0  0  0  0  0  0  0  0
   -7.4750   23.2610  -31.0120 C   0  0  0  0  0  0  0  0  0  0  0  0
   -6.1270   23.6050  -31.0130 C   0  0  0  0  0  0  0  0  0  0  0  0
   -5.6110   24.8710  -30.4580 C   0  0  0  0  0  0  0  0  0  0  0  0
   -5.8490   25.2320  -29.0970 N   0  0  0  0  0  0  0  0  0  0  0  0
   -4.9970   25.6720  -31.2100 O   0  0  0  0  0  0  0  0  0  0  0  0
   -5.3730   22.6020  -31.5470 N   0  0  0  0  0  0  0  0  0  0  0  0
   -3.9660   22.6350  -31.8340 C   0  0  0  0  0  0  0  0  0  0  0  0
   -3.5050   21.9560  -32.7910 O   0  0  0  0  0  0  0  0  0  0  0  0
   -3.1210   23.4290  -31.0440 O   0  0  0  0  0  0  0  0  0  0  0  0
   -2.5720   23.0800  -29.7640 C   0  0  0  0  0  0  0  0  0  0  0  0
   -1.3600   22.1730  -30.0250 C   0  0  0  0  0  0  0  0  0  0  0  0
   -3.6040   22.3030  -28.9260 C   0  0  0  0  0  0  0  0  0  0  0  0
   -2.0990   24.3390  -29.0130 C   0  0  0  0  0  0  0  0  0  0  0  0
   -6.2470   21.6230  -31.8730 C   0  0  0  0  0  0  0  0  0  0  0  0
   -5.9900   20.3990  -32.5040 C   0  0  0  0  0  0  0  0  0  0  0  0
   -4.7830   18.4893  -34.0339 H   0  0  0  0  0  0  0  0  0  0  0  0
   -5.7392   17.4631  -35.1560 H   0  0  0  0  0  0  0  0  0  0  0  0
   -5.9646   19.2452  -35.1560 H   0  0  0  0  0  0  0  0  0  0  0  0
   -7.7833   17.9096  -33.9575 H   0  0  0  0  0  0  0  0  0  0  0  0
   -6.5306   17.4809  -32.7301 H   0  0  0  0  0  0  0  0  0  0  0  0
   -9.2410   19.2736  -32.6463 H   0  0  0  0  0  0  0  0  0  0  0  0
   -9.6444   21.5020  -31.5494 H   0  0  0  0  0  0  0  0  0  0  0  0
   -8.3186   23.8689  -30.6530 H   0  0  0  0  0  0  0  0  0  0  0  0
   -6.4980   24.6750  -28.4980 H   0  0  0  0  0  0  0  0  0  0  0  0
   -5.4360   26.1070  -28.7050 H   0  0  0  0  0  0  0  0  0  0  0  0
   -0.9296   21.8509  -29.0653 H   0  0  0  0  0  0  0  0  0  0  0  0
   -1.6794   21.2902  -30.5983 H   0  0  0  0  0  0  0  0  0  0  0  0
   -0.6031   22.7284  -30.5983 H   0  0  0  0  0  0  0  0  0  0  0  0
   -3.3988   22.4575  -27.8564 H   0  0  0  0  0  0  0  0  0  0  0  0
   -4.6154   22.6657  -29.1615 H   0  0  0  0  0  0  0  0  0  0  0  0
   -3.5350   21.2307  -29.1615 H   0  0  0  0  0  0  0  0  0  0  0  0
   -2.1642   24.1654  -27.9288 H   0  0  0  0  0  0  0  0  0  0  0  0
   -1.0567   24.5595  -29.2870 H   0  0  0  0  0  0  0  0  0  0  0  0
   -2.7383   25.1912  -29.2870 H   0  0  0  0  0  0  0  0  0  0  0  0
   -4.9655   20.1140  -32.7853 H   0  0  0  0  0  0  0  0  0  0  0  0
  1  2  1  0
  2  3  1  0
  3  4  2  0
  4  5  1  0
  5  6  2  0
  6  7  1  0
  7  8  2  0
  8  9  1  0
  9 10  1  0
  9 11  2  0
  8 12  1  0
 12 13  1  0
 13 14  2  0
 13 15  1  0
 15 16  1  0
 16 17  1  0
 16 18  1  0
 16 19  1  0
 12 20  1  0
 20 21  2  0
 21  3  1  0
 20  6  1  0
  1 22  1  0
  1 23  1  0
  1 24  1  0
  2 25  1  0
  2 26  1  0
  4 27  1  0
  5 28  1  0
  7 29  1  0
 10 30  1  0
 10 31  1  0
 17 32  1  0
 17 33  1  0
 17 34  1  0
 18 35  1  0
 18 36  1  0
 18 37  1  0
 19 38  1  0
 19 39  1  0
 19 40  1  0
 21 41  1  0
M  END
>  <UniqueID>  (65) 
65

>  <SMILES>  (65) 
CCc1ccc2cc(C(N)=O)n(C(=O)OC(C)(C)C)c2c1

>  <Energy>  (65) 
71.38989423035954

>  <Genealogy>  (65) 
CCc1ccc2cc(C(N)=O)n(C(=O)OC(C)(C)C)c2c1 (3D coordinates assigned)
CCc1ccc2cc(C(N)=O)n(C(=O)OC(C)(C)C)c2c1 (optimized conformer: 71.38989423035954 kcal/mol)

>  <smiles>  (65) 
CCc1ccc2cc(C(N)=O)n(C(=O)OC(C)(C)C)c2c1

>  <score_type>  (65) 
oracle

>  <origin>  (65) 
adg

>  <m_score__min__energy>  (65) 
-8.7799999999999994

>  <m_primary>  (65) 
energy

$$$$
66:0
     RDKit          3D

 34 36  0  0  0  0  0  0  0  0999 V2000
   -7.1250   18.0990  -32.5410 C   0  0  0  0  0  0  0  0  0  0  0  0
   -7.7410   19.4590  -32.4570 C   0  0  0  0  0  0  0  0  0  0  0  0
   -9.0390   19.7040  -32.7240 N   0  0  0  0  0  0  0  0  0  0  0  0
   -9.2320   20.9800  -32.5530 O   0  0  0  0  0  0  0  0  0  0  0  0
   -8.1270   21.5840  -32.1790 C   0  0  0  0  0  0  0  0  0  0  0  0
   -8.0320   23.0490  -31.9020 C   0  0  0  0  0  0  0  0  0  0  0  0
   -7.1150   20.6420  -32.0980 C   0  0  0  0  0  0  0  0  0  0  0  0
   -5.7020   20.8500  -31.7180 C   0  0  0  0  0  0  0  0  0  0  0  0
   -4.7480   19.8220  -31.9310 C   0  0  0  0  0  0  0  0  0  0  0  0
   -3.4060   20.0010  -31.5590 C   0  0  0  0  0  0  0  0  0  0  0  0
   -3.0440   21.2170  -30.9860 C   0  0  0  0  0  0  0  0  0  0  0  0
   -1.8260   21.6370  -30.5050 C   0  0  0  0  0  0  0  0  0  0  0  0
   -2.0450   22.9280  -30.0330 C   0  0  0  0  0  0  0  0  0  0  0  0
   -0.9730   23.7810  -29.4790 C   0  0  0  0  0  0  0  0  0  0  0  0
   -1.1530   25.1900  -29.3280 N   0  0  0  0  0  0  0  0  0  0  0  0
    0.1370   23.2650  -29.1850 O   0  0  0  0  0  0  0  0  0  0  0  0
   -3.3480   23.2900  -30.2000 N   0  0  0  0  0  0  0  0  0  0  0  0
   -3.9890   24.4910  -29.7370 C   0  0  0  0  0  0  0  0  0  0  0  0
   -4.6080   24.4980  -28.6400 O   0  0  0  0  0  0  0  0  0  0  0  0
   -3.9360   25.6560  -30.4920 O   0  0  0  0  0  0  0  0  0  0  0  0
   -3.9480   22.2290  -30.7880 C   0  0  0  0  0  0  0  0  0  0  0  0
   -5.2960   22.0690  -31.1310 C   0  0  0  0  0  0  0  0  0  0  0  0
   -6.9499   17.7125  -31.5261 H   0  0  0  0  0  0  0  0  0  0  0  0
   -7.8041   17.4215  -33.0793 H   0  0  0  0  0  0  0  0  0  0  0  0
   -6.1678   18.1626  -33.0793 H   0  0  0  0  0  0  0  0  0  0  0  0
   -8.0211   23.2167  -30.8149 H   0  0  0  0  0  0  0  0  0  0  0  0
   -7.1062   23.4464  -32.3436 H   0  0  0  0  0  0  0  0  0  0  0  0
   -8.8987   23.5626  -32.3436 H   0  0  0  0  0  0  0  0  0  0  0  0
   -5.0630   18.8745  -32.3925 H   0  0  0  0  0  0  0  0  0  0  0  0
   -2.6634   19.2048  -31.7155 H   0  0  0  0  0  0  0  0  0  0  0  0
   -0.8813   21.0735  -30.4953 H   0  0  0  0  0  0  0  0  0  0  0  0
   -0.3990   25.7700  -28.9010 H   0  0  0  0  0  0  0  0  0  0  0  0
   -1.9930   25.6700  -29.7170 H   0  0  0  0  0  0  0  0  0  0  0  0
   -6.0225   22.8743  -30.9475 H   0  0  0  0  0  0  0  0  0  0  0  0
  1  2  1  0
  2  3  2  0
  3  4  1  0
  4  5  1  0
  5  6  1  0
  5  7  2  0
  7  8  1  0
  8  9  2  0
  9 10  1  0
 10 11  2  0
 11 12  1  0
 12 13  2  0
 13 14  1  0
 14 15  1  0
 14 16  2  0
 13 17  1  0
 17 18  1  0
 18 19  2  0
 18 20  1  0
 17 21  1  0
 21 22  2  0
  7  2  1  0
 22  8  1  0
 21 11  1  0
  1 23  1  0
  1 24  1  0
  1 25  1  0
  6 26  1  0
  6 27  1  0
  6 28  1  0
  9 29  1  0
 10 30  1  0
 12 31  1  0
 15 32  1  0
 15 33  1  0
 22 34  1  0
M  CHG  1  20  -1
M  END
>  <UniqueID>  (66) 
66

>  <SMILES>  (66) 
Cc1noc(C)c1-c1ccc2cc(C(N)=O)n(C(=O)[O-])c2c1

>  <Energy>  (66) 
109.99140098336966

>  <Genealogy>  (66) 
Cc1noc(C)c1-c1ccc2cc(C(N)=O)n(C(=O)[O-])c2c1 (protonated)
Cc1noc(C)c1-c1ccc2cc(C(N)=O)n(C(=O)[O-])c2c1 (3D coordinates assigned)
Cc1noc(C)c1-c1ccc2cc(C(N)=O)n(C(=O)[O-])c2c1 (optimized conformer: 109.99140098336966 kcal/mol)

>  <smiles>  (66) 
Cc1noc(C)c1-c1ccc2cc(C(N)=O)n(C(=O)O)c2c1

>  <score_type>  (66) 
oracle

>  <origin>  (66) 
adg

>  <m_score__min__energy>  (66) 
-9.5700000000000003

>  <m_primary>  (66) 
energy

$$$$
67:0
     RDKit          3D

 39 40  0  0  0  0  0  0  0  0999 V2000
   -3.3910   22.0990  -30.2730 C   0  0  0  0  0  0  0  0  0  0  0  0
   -4.2720   22.3380  -31.4580 C   0  0  0  0  0  0  0  0  0  0  0  0
   -3.8030   22.1770  -32.6170 O   0  0  0  0  0  0  0  0  0  0  0  0
   -5.6410   22.7390  -31.2900 N   0  0  0  0  0  0  0  0  0  0  0  0
   -6.1090   23.9650  -30.9220 C   0  0  0  0  0  0  0  0  0  0  0  0
   -5.2840   25.1160  -30.4920 C   0  0  0  0  0  0  0  0  0  0  0  0
   -3.8950   25.1830  -30.8050 N   0  0  0  0  0  0  0  0  0  0  0  0
   -5.8070   26.0380  -29.8100 O   0  0  0  0  0  0  0  0  0  0  0  0
   -7.5020   23.9820  -30.9430 C   0  0  0  0  0  0  0  0  0  0  0  0
   -7.8770   22.7190  -31.3370 C   0  0  0  0  0  0  0  0  0  0  0  0
   -9.1450   22.1810  -31.5350 C   0  0  0  0  0  0  0  0  0  0  0  0
   -9.2350   20.8490  -31.9720 C   0  0  0  0  0  0  0  0  0  0  0  0
   -8.0640   20.0900  -32.2210 C   0  0  0  0  0  0  0  0  0  0  0  0
   -8.1710   18.6560  -32.6650 C   0  0  0  0  0  0  0  0  0  0  0  0
   -6.7780   18.0040  -32.7200 C   0  0  0  0  0  0  0  0  0  0  0  0
   -6.1500   18.1190  -34.0580 N   0  0  0  0  0  0  0  0  0  0  0  0
   -4.9130   18.9210  -34.0130 C   0  0  0  0  0  0  0  0  0  0  0  0
   -5.8470   16.7760  -34.5850 C   0  0  0  0  0  0  0  0  0  0  0  0
   -6.7940   20.6680  -32.0000 C   0  0  0  0  0  0  0  0  0  0  0  0
   -6.7350   21.9880  -31.5440 C   0  0  0  0  0  0  0  0  0  0  0  0
   -3.9680   22.2555  -29.3496 H   0  0  0  0  0  0  0  0  0  0  0  0
   -3.0137   21.0660  -30.2990 H   0  0  0  0  0  0  0  0  0  0  0  0
   -2.5434   22.7997  -30.2990 H   0  0  0  0  0  0  0  0  0  0  0  0
   -3.4850   26.0360  -31.2460 H   0  0  0  0  0  0  0  0  0  0  0  0
   -8.1620   24.8268  -30.6966 H   0  0  0  0  0  0  0  0  0  0  0  0
  -10.0494   22.7806  -31.3548 H   0  0  0  0  0  0  0  0  0  0  0  0
  -10.2236   20.3906  -32.1224 H   0  0  0  0  0  0  0  0  0  0  0  0
   -8.8019   18.1028  -31.9537 H   0  0  0  0  0  0  0  0  0  0  0  0
   -8.6176   18.6268  -33.6698 H   0  0  0  0  0  0  0  0  0  0  0  0
   -6.1283   18.4970  -31.9818 H   0  0  0  0  0  0  0  0  0  0  0  0
   -6.9010   16.9334  -32.4993 H   0  0  0  0  0  0  0  0  0  0  0  0
   -6.8220   18.5760  -34.7210 H   0  0  0  0  0  0  0  0  0  0  0  0
   -4.6320   19.1032  -32.9652 H   0  0  0  0  0  0  0  0  0  0  0  0
   -4.1036   18.3754  -34.5201 H   0  0  0  0  0  0  0  0  0  0  0  0
   -5.0808   19.8826  -34.5201 H   0  0  0  0  0  0  0  0  0  0  0  0
   -5.6900   16.0803  -33.7475 H   0  0  0  0  0  0  0  0  0  0  0  0
   -6.6886   16.4251  -35.2004 H   0  0  0  0  0  0  0  0  0  0  0  0
   -4.9363   16.8205  -35.2004 H   0  0  0  0  0  0  0  0  0  0  0  0
   -5.8740   20.0933  -32.1823 H   0  0  0  0  0  0  0  0  0  0  0  0
  1  2  1  0
  2  3  2  0
  2  4  1  0
  4  5  1  0
  5  6  1  0
  6  7  1  0
  6  8  2  0
  5  9  2  0
  9 10  1  0
 10 11  2  0
 11 12  1  0
 12 13  2  0
 13 14  1  0
 14 15  1  0
 15 16  1  0
 16 17  1  0
 16 18  1  0
 13 19  1  0
 19 20  2  0
 20  4  1  0
 20 10  1  0
  1 21  1  0
  1 22  1  0
  1 23  1  0
  7 24  1  0
  9 25  1  0
 11 26  1  0
 12 27  1  0
 14 28  1  0
 14 29  1  0
 15 30  1  0
 15 31  1  0
 16 32  1  0
 17 33  1  0
 17 34  1  0
 17 35  1  0
 18 36  1  0
 18 37  1  0
 18 38  1  0
 19 39  1  0
M  CHG  2   7  -1  16   1
M  END
>  <UniqueID>  (67) 
67

>  <SMILES>  (67) 
CC(=O)n1c(C([NH-])=O)cc2ccc(CC[NH+](C)C)cc21

>  <Energy>  (67) 
76.16267459706754

>  <Genealogy>  (67) 
CC(=O)n1c(C([NH-])=O)cc2ccc(CC[NH+](C)C)cc21 (protonated)
CC(=O)n1c(C([NH-])=O)cc2ccc(CC[NH+](C)C)cc21 (3D coordinates assigned)
CC(=O)n1c(C([NH-])=O)cc2ccc(CC[NH+](C)C)cc21 (optimized conformer: 76.16267459706754 kcal/mol)

>  <smiles>  (67) 
CC(=O)n1c(C(N)=O)cc2ccc(CCN(C)C)cc21

>  <score_type>  (67) 
oracle

>  <origin>  (67) 
adg

>  <m_score__min__energy>  (67) 
-9.8000000000000007

>  <m_primary>  (67) 
energy

$$$$
68:0
     RDKit          3D

 44 46  0  0  0  0  0  0  0  0999 V2000
   -6.3380   24.7880  -29.8010 C   0  0  0  0  0  0  0  0  0  0  0  0
   -5.1750   23.8870  -29.3990 C   0  0  0  0  0  0  0  0  0  0  0  0
   -3.9720   24.1690  -30.2490 C   0  0  0  0  0  0  0  0  0  0  0  0
   -3.8690   25.2790  -30.8360 O   0  0  0  0  0  0  0  0  0  0  0  0
   -2.9180   23.2010  -30.3640 N   0  0  0  0  0  0  0  0  0  0  0  0
   -1.6280   23.3240  -29.9430 C   0  0  0  0  0  0  0  0  0  0  0  0
   -1.0680   24.4710  -29.1980 C   0  0  0  0  0  0  0  0  0  0  0  0
   -1.8710   25.6260  -28.9610 N   0  0  0  0  0  0  0  0  0  0  0  0
    0.1200   24.4510  -28.7800 O   0  0  0  0  0  0  0  0  0  0  0  0
   -0.9000   22.1810  -30.2720 C   0  0  0  0  0  0  0  0  0  0  0  0
   -1.7910   21.3520  -30.9150 C   0  0  0  0  0  0  0  0  0  0  0  0
   -1.6020   20.0930  -31.4770 C   0  0  0  0  0  0  0  0  0  0  0  0
   -2.6980   19.4830  -32.1090 C   0  0  0  0  0  0  0  0  0  0  0  0
   -3.9530   20.1390  -32.1760 C   0  0  0  0  0  0  0  0  0  0  0  0
   -5.0610   19.5070  -32.8410 N   0  0  0  0  0  0  0  0  0  0  0  0
   -5.3310   18.0860  -32.6090 C   0  0  0  0  0  0  0  0  0  0  0  0
   -5.9930   20.3110  -33.6380 C   0  0  0  0  0  0  0  0  0  0  0  0
   -7.1770   20.7020  -32.7970 C   0  0  0  0  0  0  0  0  0  0  0  0
   -7.2150   21.9420  -32.1440 C   0  0  0  0  0  0  0  0  0  0  0  0
   -8.3400   22.3050  -31.4000 C   0  0  0  0  0  0  0  0  0  0  0  0
   -9.4230   21.4270  -31.3260 C   0  0  0  0  0  0  0  0  0  0  0  0
   -9.3790   20.2330  -31.9760 N   0  0  0  0  0  0  0  0  0  0  0  0
   -8.2940   19.8570  -32.7060 C   0  0  0  0  0  0  0  0  0  0  0  0
   -4.1050   21.4170  -31.5950 C   0  0  0  0  0  0  0  0  0  0  0  0
   -3.0020   21.9930  -30.9580 C   0  0  0  0  0  0  0  0  0  0  0  0
   -6.8337   25.1720  -28.8972 H   0  0  0  0  0  0  0  0  0  0  0  0
   -5.9595   25.6309  -30.3979 H   0  0  0  0  0  0  0  0  0  0  0  0
   -7.0596   24.2109  -30.3979 H   0  0  0  0  0  0  0  0  0  0  0  0
   -4.9234   24.0702  -28.3439 H   0  0  0  0  0  0  0  0  0  0  0  0
   -5.4728   22.8378  -29.5419 H   0  0  0  0  0  0  0  0  0  0  0  0
   -2.8520   25.6780  -29.3170 H   0  0  0  0  0  0  0  0  0  0  0  0
    0.1616   21.9837  -30.0621 H   0  0  0  0  0  0  0  0  0  0  0  0
   -0.6244   19.5911  -31.4278 H   0  0  0  0  0  0  0  0  0  0  0  0
   -2.5813   18.4852  -32.5570 H   0  0  0  0  0  0  0  0  0  0  0  0
   -5.3679   17.8917  -31.5269 H   0  0  0  0  0  0  0  0  0  0  0  0
   -6.2963   17.8173  -33.0629 H   0  0  0  0  0  0  0  0  0  0  0  0
   -4.5316   17.4820  -33.0629 H   0  0  0  0  0  0  0  0  0  0  0  0
   -5.4817   21.2180  -33.9927 H   0  0  0  0  0  0  0  0  0  0  0  0
   -6.3385   19.7195  -34.4986 H   0  0  0  0  0  0  0  0  0  0  0  0
   -6.3590   22.6289  -32.2176 H   0  0  0  0  0  0  0  0  0  0  0  0
   -8.3724   23.2726  -30.8778 H   0  0  0  0  0  0  0  0  0  0  0  0
  -10.3133   21.7013  -30.7411 H   0  0  0  0  0  0  0  0  0  0  0  0
   -8.2923   18.8879  -33.2264 H   0  0  0  0  0  0  0  0  0  0  0  0
   -5.0680   21.9465  -31.6425 H   0  0  0  0  0  0  0  0  0  0  0  0
  1  2  1  0
  2  3  1  0
  3  4  2  0
  3  5  1  0
  5  6  1  0
  6  7  1  0
  7  8  1  0
  7  9  2  0
  6 10  2  0
 10 11  1  0
 11 12  2  0
 12 13  1  0
 13 14  2  0
 14 15  1  0
 15 16  1  0
 15 17  1  0
 17 18  1  0
 18 19  2  0
 19 20  1  0
 20 21  2  0
 21 22  1  0
 22 23  2  0
 14 24  1  0
 24 25  2  0
 25  5  1  0
 25 11  1  0
 23 18  1  0
  1 26  1  0
  1 27  1  0
  1 28  1  0
  2 29  1  0
  2 30  1  0
  8 31  1  0
 10 32  1  0
 12 33  1  0
 13 34  1  0
 16 35  1  0
 16 36  1  0
 16 37  1  0
 17 38  1  0
 17 39  1  0
 19 40  1  0
 20 41  1  0
 21 42  1  0
 23 43  1  0
 24 44  1  0
M  CHG  1   8  -1
M  END
>  <UniqueID>  (68) 
68

>  <SMILES>  (68) 
CCC(=O)n1c(C([NH-])=O)cc2ccc(N(C)Cc3cccnc3)cc21

>  <Energy>  (68) 
84.39949961282399

>  <Genealogy>  (68) 
CCC(=O)n1c(C([NH-])=O)cc2ccc(N(C)Cc3cccnc3)cc21 (protonated)
CCC(=O)n1c(C([NH-])=O)cc2ccc(N(C)Cc3cccnc3)cc21 (3D coordinates assigned)
CCC(=O)n1c(C([NH-])=O)cc2ccc(N(C)Cc3cccnc3)cc21 (optimized conformer: 84.39949961282399 kcal/mol)

>  <smiles>  (68) 
CCC(=O)n1c(C(N)=O)cc2ccc(N(C)Cc3cccnc3)cc21

>  <score_type>  (68) 
oracle

>  <origin>  (68) 
adg

>  <m_score__min__energy>  (68) 
-11.26

>  <m_primary>  (68) 
energy

$$$$
69:0
     RDKit          3D

 50 52  0  0  0  0  0  0  0  0999 V2000
    0.5000   19.9520  -31.4160 C   0  0  0  0  0  0  0  0  0  0  0  0
   -0.7470   20.5980  -31.9550 C   0  0  0  0  0  0  0  0  0  0  0  0
   -1.5850   21.3260  -31.0930 C   0  0  0  0  0  0  0  0  0  0  0  0
   -2.7620   21.9240  -31.5720 C   0  0  0  0  0  0  0  0  0  0  0  0
   -3.6570   22.6660  -30.6530 C   0  0  0  0  0  0  0  0  0  0  0  0
   -3.2040   23.1320  -29.5720 O   0  0  0  0  0  0  0  0  0  0  0  0
   -5.0480   22.8460  -30.9660 N   0  0  0  0  0  0  0  0  0  0  0  0
   -5.7790   23.9920  -30.8880 C   0  0  0  0  0  0  0  0  0  0  0  0
   -5.2560   25.3260  -30.5260 C   0  0  0  0  0  0  0  0  0  0  0  0
   -3.9090   25.6700  -30.8430 N   0  0  0  0  0  0  0  0  0  0  0  0
   -5.9800   26.1610  -29.9240 O   0  0  0  0  0  0  0  0  0  0  0  0
   -7.1030   23.7490  -31.2520 C   0  0  0  0  0  0  0  0  0  0  0  0
   -7.1580   22.4070  -31.5580 C   0  0  0  0  0  0  0  0  0  0  0  0
   -8.2300   21.6220  -31.9690 C   0  0  0  0  0  0  0  0  0  0  0  0
   -7.9960   20.2540  -32.1950 C   0  0  0  0  0  0  0  0  0  0  0  0
   -6.7030   19.7010  -32.0140 C   0  0  0  0  0  0  0  0  0  0  0  0
   -6.4680   18.2260  -32.2370 C   0  0  0  0  0  0  0  0  0  0  0  0
   -6.8330   17.7580  -33.6600 C   0  0  0  0  0  0  0  0  0  0  0  0
   -5.7170   17.9630  -34.7040 C   0  0  0  0  0  0  0  0  0  0  0  0
   -4.4140   18.5780  -34.1670 C   0  0  0  0  0  0  0  0  0  0  0  0
   -3.2910   17.5550  -33.9870 C   0  0  0  0  0  0  0  0  0  0  0  0
   -2.6020   17.8210  -32.7980 O   0  0  0  0  0  0  0  0  0  0  0  0
   -5.6470   20.5260  -31.5690 C   0  0  0  0  0  0  0  0  0  0  0  0
   -5.9050   21.8860  -31.3730 C   0  0  0  0  0  0  0  0  0  0  0  0
   -3.0840   21.8060  -32.9330 C   0  0  0  0  0  0  0  0  0  0  0  0
   -2.2570   21.0840  -33.7940 C   0  0  0  0  0  0  0  0  0  0  0  0
   -1.0940   20.4750  -33.3150 C   0  0  0  0  0  0  0  0  0  0  0  0
    0.0920   19.3840  -34.6960 I   0  0  0  0  0  0  0  0  0  0  0  0
    0.4740   19.9655  -30.3164 H   0  0  0  0  0  0  0  0  0  0  0  0
    0.5558   18.9116  -31.7687 H   0  0  0  0  0  0  0  0  0  0  0  0
    1.3821   20.5066  -31.7687 H   0  0  0  0  0  0  0  0  0  0  0  0
   -1.3160   21.4285  -30.0313 H   0  0  0  0  0  0  0  0  0  0  0  0
   -3.1080   25.1800  -30.3860 H   0  0  0  0  0  0  0  0  0  0  0  0
   -7.9286   24.4751  -31.2873 H   0  0  0  0  0  0  0  0  0  0  0  0
   -9.2297   22.0577  -32.1128 H   0  0  0  0  0  0  0  0  0  0  0  0
   -8.8249   19.6059  -32.5157 H   0  0  0  0  0  0  0  0  0  0  0  0
   -5.4035   18.0117  -32.0614 H   0  0  0  0  0  0  0  0  0  0  0  0
   -7.1212   17.6830  -31.5381 H   0  0  0  0  0  0  0  0  0  0  0  0
   -7.0724   16.6852  -33.6185 H   0  0  0  0  0  0  0  0  0  0  0  0
   -7.6838   18.3750  -33.9848 H   0  0  0  0  0  0  0  0  0  0  0  0
   -5.4749   16.9819  -35.1386 H   0  0  0  0  0  0  0  0  0  0  0  0
   -6.1139   18.6847  -35.4331 H   0  0  0  0  0  0  0  0  0  0  0  0
   -4.0741   19.3486  -34.8746 H   0  0  0  0  0  0  0  0  0  0  0  0
   -4.6361   18.9959  -33.1740 H   0  0  0  0  0  0  0  0  0  0  0  0
   -3.7205   16.5433  -33.9431 H   0  0  0  0  0  0  0  0  0  0  0  0
   -2.5951   17.6221  -34.8362 H   0  0  0  0  0  0  0  0  0  0  0  0
   -1.8520   17.1730  -32.7630 H   0  0  0  0  0  0  0  0  0  0  0  0
   -4.6465   20.1091  -31.3813 H   0  0  0  0  0  0  0  0  0  0  0  0
   -3.9938   22.2856  -33.3231 H   0  0  0  0  0  0  0  0  0  0  0  0
   -2.5224   20.9935  -34.8577 H   0  0  0  0  0  0  0  0  0  0  0  0
  1  2  1  0
  2  3  2  0
  3  4  1  0
  4  5  1  0
  5  6  2  0
  5  7  1  0
  7  8  1  0
  8  9  1  0
  9 10  1  0
  9 11  2  0
  8 12  2  0
 12 13  1  0
 13 14  2  0
 14 15  1  0
 15 16  2  0
 16 17  1  0
 17 18  1  0
 18 19  1  0
 19 20  1  0
 20 21  1  0
 21 22  1  0
 16 23  1  0
 23 24  2  0
  4 25  2  0
 25 26  1  0
 26 27  2  0
 27 28  1  0
 27  2  1  0
 24  7  1  0
 24 13  1  0
  1 29  1  0
  1 30  1  0
  1 31  1  0
  3 32  1  0
 10 33  1  0
 12 34  1  0
 14 35  1  0
 15 36  1  0
 17 37  1  0
 17 38  1  0
 18 39  1  0
 18 40  1  0
 19 41  1  0
 19 42  1  0
 20 43  1  0
 20 44  1  0
 21 45  1  0
 21 46  1  0
 22 47  1  0
 23 48  1  0
 25 49  1  0
 26 50  1  0
M  CHG  1  10  -1
M  END
>  <UniqueID>  (69) 
69

>  <SMILES>  (69) 
Cc1cc(C(=O)n2c(C([NH-])=O)cc3ccc(CCCCCO)cc32)ccc1I

>  <Energy>  (69) 
84.48178866777128

>  <Genealogy>  (69) 
Cc1cc(C(=O)n2c(C([NH-])=O)cc3ccc(CCCCCO)cc32)ccc1I (protonated)
Cc1cc(C(=O)n2c(C([NH-])=O)cc3ccc(CCCCCO)cc32)ccc1I (3D coordinates assigned)
Cc1cc(C(=O)n2c(C([NH-])=O)cc3ccc(CCCCCO)cc32)ccc1I (optimized conformer: 84.48178866777128 kcal/mol)

>  <smiles>  (69) 
Cc1cc(C(=O)n2c(C(N)=O)cc3ccc(CCCCCO)cc32)ccc1I

>  <score_type>  (69) 
oracle

>  <origin>  (69) 
adg

>  <m_score__min__energy>  (69) 
-12.32

>  <m_primary>  (69) 
energy

$$$$
70:0
     RDKit          3D

 53 54  0  0  0  0  0  0  0  0999 V2000
   -3.0030   21.1310  -33.4500 C   0  0  0  0  0  0  0  0  0  0  0  0
   -2.8530   19.6730  -33.0450 C   0  0  0  0  0  0  0  0  0  0  0  0
   -3.0650   18.8400  -34.1800 O   0  0  0  0  0  0  0  0  0  0  0  0
   -4.1320   17.9410  -34.2680 C   0  0  0  0  0  0  0  0  0  0  0  0
   -3.9730   16.7260  -33.9630 O   0  0  0  0  0  0  0  0  0  0  0  0
   -5.4860   18.4300  -34.6820 C   0  0  0  0  0  0  0  0  0  0  0  0
   -6.5930   17.7830  -33.8350 C   0  0  0  0  0  0  0  0  0  0  0  0
   -6.4280   18.0700  -32.3350 C   0  0  0  0  0  0  0  0  0  0  0  0
   -6.7480   19.5040  -31.9960 C   0  0  0  0  0  0  0  0  0  0  0  0
   -8.0570   20.0090  -32.1930 C   0  0  0  0  0  0  0  0  0  0  0  0
   -8.3540   21.3550  -31.9120 C   0  0  0  0  0  0  0  0  0  0  0  0
   -7.3210   22.1710  -31.4570 C   0  0  0  0  0  0  0  0  0  0  0  0
   -7.3270   23.5040  -31.1170 C   0  0  0  0  0  0  0  0  0  0  0  0
   -6.0130   23.8010  -30.7550 C   0  0  0  0  0  0  0  0  0  0  0  0
   -5.5370   25.1610  -30.4110 C   0  0  0  0  0  0  0  0  0  0  0  0
   -4.1990   25.5650  -30.7140 N   0  0  0  0  0  0  0  0  0  0  0  0
   -6.3000   25.9680  -29.8190 O   0  0  0  0  0  0  0  0  0  0  0  0
   -5.2290   22.6910  -30.8650 N   0  0  0  0  0  0  0  0  0  0  0  0
   -3.8250   22.5670  -30.5840 C   0  0  0  0  0  0  0  0  0  0  0  0
   -2.9960   23.2920  -31.1980 O   0  0  0  0  0  0  0  0  0  0  0  0
   -3.4020   21.6520  -29.6100 O   0  0  0  0  0  0  0  0  0  0  0  0
   -2.8800   21.9660  -28.3110 C   0  0  0  0  0  0  0  0  0  0  0  0
   -3.7920   22.9780  -27.5900 C   0  0  0  0  0  0  0  0  0  0  0  0
   -1.4970   22.6010  -28.5230 C   0  0  0  0  0  0  0  0  0  0  0  0
   -2.7150   20.6840  -27.4700 C   0  0  0  0  0  0  0  0  0  0  0  0
   -6.0430   21.7030  -31.2920 C   0  0  0  0  0  0  0  0  0  0  0  0
   -5.7270   20.3620  -31.5330 C   0  0  0  0  0  0  0  0  0  0  0  0
   -3.0674   21.7573  -32.5480 H   0  0  0  0  0  0  0  0  0  0  0  0
   -2.1316   21.4371  -34.0475 H   0  0  0  0  0  0  0  0  0  0  0  0
   -3.9185   21.2533  -34.0475 H   0  0  0  0  0  0  0  0  0  0  0  0
   -1.8400   19.5045  -32.6508 H   0  0  0  0  0  0  0  0  0  0  0  0
   -3.5940   19.4303  -32.2691 H   0  0  0  0  0  0  0  0  0  0  0  0
   -5.5279   19.5217  -34.5539 H   0  0  0  0  0  0  0  0  0  0  0  0
   -5.6482   18.1567  -35.7351 H   0  0  0  0  0  0  0  0  0  0  0  0
   -7.5656   18.1769  -34.1649 H   0  0  0  0  0  0  0  0  0  0  0  0
   -6.5294   16.6940  -33.9764 H   0  0  0  0  0  0  0  0  0  0  0  0
   -7.1053   17.4120  -31.7709 H   0  0  0  0  0  0  0  0  0  0  0  0
   -5.3776   17.8836  -32.0668 H   0  0  0  0  0  0  0  0  0  0  0  0
   -8.8477   19.3430  -32.5688 H   0  0  0  0  0  0  0  0  0  0  0  0
   -9.3712   21.7511  -32.0475 H   0  0  0  0  0  0  0  0  0  0  0  0
   -8.1864   24.1906  -31.1282 H   0  0  0  0  0  0  0  0  0  0  0  0
   -3.8690   26.5190  -30.4460 H   0  0  0  0  0  0  0  0  0  0  0  0
   -3.5470   24.9410  -31.2370 H   0  0  0  0  0  0  0  0  0  0  0  0
   -3.6842   22.8584  -26.5019 H   0  0  0  0  0  0  0  0  0  0  0  0
   -3.5041   24.0002  -27.8768 H   0  0  0  0  0  0  0  0  0  0  0  0
   -4.8385   22.7977  -27.8768 H   0  0  0  0  0  0  0  0  0  0  0  0
   -1.0369   22.8122  -27.5464 H   0  0  0  0  0  0  0  0  0  0  0  0
   -0.8572   21.9065  -29.0872 H   0  0  0  0  0  0  0  0  0  0  0  0
   -1.6067   23.5389  -29.0872 H   0  0  0  0  0  0  0  0  0  0  0  0
   -2.7480   20.9401  -26.4007 H   0  0  0  0  0  0  0  0  0  0  0  0
   -3.5305   19.9840  -27.7047 H   0  0  0  0  0  0  0  0  0  0  0  0
   -1.7489   20.2133  -27.7047 H   0  0  0  0  0  0  0  0  0  0  0  0
   -4.7073   19.9849  -31.3658 H   0  0  0  0  0  0  0  0  0  0  0  0
  1  2  1  0
  2  3  1  0
  3  4  1  0
  4  5  2  0
  4  6  1  0
  6  7  1  0
  7  8  1  0
  8  9  1  0
  9 10  2  0
 10 11  1  0
 11 12  2  0
 12 13  1  0
 13 14  2  0
 14 15  1  0
 15 16  1  0
 15 17  2  0
 14 18  1  0
 18 19  1  0
 19 20  2  0
 19 21  1  0
 21 22  1  0
 22 23  1  0
 22 24  1  0
 22 25  1  0
 18 26  1  0
 26 27  2  0
 27  9  1  0
 26 12  1  0
  1 28  1  0
  1 29  1  0
  1 30  1  0
  2 31  1  0
  2 32  1  0
  6 33  1  0
  6 34  1  0
  7 35  1  0
  7 36  1  0
  8 37  1  0
  8 38  1  0
 10 39  1  0
 11 40  1  0
 13 41  1  0
 16 42  1  0
 16 43  1  0
 23 44  1  0
 23 45  1  0
 23 46  1  0
 24 47  1  0
 24 48  1  0
 24 49  1  0
 25 50  1  0
 25 51  1  0
 25 52  1  0
 27 53  1  0
M  END
>  <UniqueID>  (70) 
70

>  <SMILES>  (70) 
CCOC(=O)CCCc1ccc2cc(C(N)=O)n(C(=O)OC(C)(C)C)c2c1

>  <Energy>  (70) 
74.88263488264131

>  <Genealogy>  (70) 
CCOC(=O)CCCc1ccc2cc(C(N)=O)n(C(=O)OC(C)(C)C)c2c1 (3D coordinates assigned)
CCOC(=O)CCCc1ccc2cc(C(N)=O)n(C(=O)OC(C)(C)C)c2c1 (optimized conformer: 74.88263488264131 kcal/mol)

>  <smiles>  (70) 
CCOC(=O)CCCc1ccc2cc(C(N)=O)n(C(=O)OC(C)(C)C)c2c1

>  <score_type>  (70) 
oracle

>  <origin>  (70) 
adg

>  <m_score__min__energy>  (70) 
-8.6799999999999997

>  <m_primary>  (70) 
energy

$$$$
71:0
     RDKit          3D

 46 49  0  0  0  0  0  0  0  0999 V2000
   -7.6950   18.6390  -32.1900 C   0  0  0  0  0  0  0  0  0  0  0  0
   -7.6380   20.0980  -31.8470 C   0  0  0  0  0  0  0  0  0  0  0  0
   -8.8380   20.8360  -31.7020 C   0  0  0  0  0  0  0  0  0  0  0  0
   -8.8000   22.2030  -31.3730 C   0  0  0  0  0  0  0  0  0  0  0  0
   -7.5550   22.7940  -31.1840 C   0  0  0  0  0  0  0  0  0  0  0  0
   -7.2290   24.0980  -30.8880 C   0  0  0  0  0  0  0  0  0  0  0  0
   -5.8370   24.1270  -30.8330 C   0  0  0  0  0  0  0  0  0  0  0  0
   -5.0630   25.3250  -30.4510 C   0  0  0  0  0  0  0  0  0  0  0  0
   -3.6390   25.2840  -30.4630 N   0  0  0  0  0  0  0  0  0  0  0  0
   -5.6470   26.3980  -30.1470 O   0  0  0  0  0  0  0  0  0  0  0  0
   -5.3210   22.8940  -31.1070 N   0  0  0  0  0  0  0  0  0  0  0  0
   -3.9390   22.5100  -31.2210 C   0  0  0  0  0  0  0  0  0  0  0  0
   -3.3080   22.8050  -32.2720 O   0  0  0  0  0  0  0  0  0  0  0  0
   -3.2350   21.7650  -30.1420 C   0  0  0  0  0  0  0  0  0  0  0  0
   -3.6350   21.9900  -28.8120 C   0  0  0  0  0  0  0  0  0  0  0  0
   -2.9650   21.3820  -27.7490 C   0  0  0  0  0  0  0  0  0  0  0  0
   -1.8840   20.5380  -27.9970 C   0  0  0  0  0  0  0  0  0  0  0  0
   -1.4840   20.2820  -29.3080 C   0  0  0  0  0  0  0  0  0  0  0  0
   -2.1590   20.8670  -30.3920 C   0  0  0  0  0  0  0  0  0  0  0  0
   -1.7300   20.4840  -31.7550 C   0  0  0  0  0  0  0  0  0  0  0  0
   -0.6430   20.9510  -32.1910 O   0  0  0  0  0  0  0  0  0  0  0  0
   -2.5070   19.5350  -32.5940 C   0  0  0  0  0  0  0  0  0  0  0  0
   -3.7650   19.8880  -33.1220 C   0  0  0  0  0  0  0  0  0  0  0  0
   -4.4780   18.9840  -33.9170 C   0  0  0  0  0  0  0  0  0  0  0  0
   -3.9500   17.7200  -34.1880 C   0  0  0  0  0  0  0  0  0  0  0  0
   -2.7110   17.3540  -33.6620 C   0  0  0  0  0  0  0  0  0  0  0  0
   -1.9930   18.2520  -32.8670 C   0  0  0  0  0  0  0  0  0  0  0  0
   -6.3870   22.0850  -31.2970 C   0  0  0  0  0  0  0  0  0  0  0  0
   -6.3930   20.7260  -31.6280 C   0  0  0  0  0  0  0  0  0  0  0  0
   -7.7182   18.0453  -31.2642 H   0  0  0  0  0  0  0  0  0  0  0  0
   -8.6018   18.4359  -32.7787 H   0  0  0  0  0  0  0  0  0  0  0  0
   -6.8068   18.3658  -32.7787 H   0  0  0  0  0  0  0  0  0  0  0  0
   -9.8071   20.3364  -31.8478 H   0  0  0  0  0  0  0  0  0  0  0  0
   -9.7264   22.7868  -31.2684 H   0  0  0  0  0  0  0  0  0  0  0  0
   -7.9204   24.9386  -30.7287 H   0  0  0  0  0  0  0  0  0  0  0  0
   -3.1240   24.7000  -31.1590 H   0  0  0  0  0  0  0  0  0  0  0  0
   -4.4875   22.6542  -28.6070 H   0  0  0  0  0  0  0  0  0  0  0  0
   -3.2904   21.5691  -26.7150 H   0  0  0  0  0  0  0  0  0  0  0  0
   -1.3458   20.0734  -27.1577 H   0  0  0  0  0  0  0  0  0  0  0  0
   -0.6301   19.6143  -29.4954 H   0  0  0  0  0  0  0  0  0  0  0  0
   -4.1889   20.8802  -32.9078 H   0  0  0  0  0  0  0  0  0  0  0  0
   -5.4569   19.2697  -34.3296 H   0  0  0  0  0  0  0  0  0  0  0  0
   -4.5112   17.0128  -34.8164 H   0  0  0  0  0  0  0  0  0  0  0  0
   -2.2981   16.3566  -33.8733 H   0  0  0  0  0  0  0  0  0  0  0  0
   -1.0190   17.9546  -32.4513 H   0  0  0  0  0  0  0  0  0  0  0  0
   -5.4527   20.1618  -31.7153 H   0  0  0  0  0  0  0  0  0  0  0  0
  1  2  1  0
  2  3  2  0
  3  4  1  0
  4  5  2  0
  5  6  1  0
  6  7  2  0
  7  8  1  0
  8  9  1  0
  8 10  2  0
  7 11  1  0
 11 12  1  0
 12 13  2  0
 12 14  1  0
 14 15  2  0
 15 16  1  0
 16 17  2  0
 17 18  1  0
 18 19  2  0
 19 20  1  0
 20 21  2  0
 20 22  1  0
 22 23  2  0
 23 24  1  0
 24 25  2  0
 25 26  1  0
 26 27  2  0
 11 28  1  0
 28 29  2  0
 29  2  1  0
 28  5  1  0
 19 14  1  0
 27 22  1  0
  1 30  1  0
  1 31  1  0
  1 32  1  0
  3 33  1  0
  4 34  1  0
  6 35  1  0
  9 36  1  0
 15 37  1  0
 16 38  1  0
 17 39  1  0
 18 40  1  0
 23 41  1  0
 24 42  1  0
 25 43  1  0
 26 44  1  0
 27 45  1  0
 29 46  1  0
M  CHG  1   9  -1
M  END
>  <UniqueID>  (71) 
71

>  <SMILES>  (71) 
Cc1ccc2cc(C([NH-])=O)n(C(=O)c3ccccc3C(=O)c3ccccc3)c2c1

>  <Energy>  (71) 
95.9491931957018

>  <Genealogy>  (71) 
Cc1ccc2cc(C([NH-])=O)n(C(=O)c3ccccc3C(=O)c3ccccc3)c2c1 (protonated)
Cc1ccc2cc(C([NH-])=O)n(C(=O)c3ccccc3C(=O)c3ccccc3)c2c1 (3D coordinates assigned)
Cc1ccc2cc(C([NH-])=O)n(C(=O)c3ccccc3C(=O)c3ccccc3)c2c1 (optimized conformer: 95.9491931957018 kcal/mol)

>  <smiles>  (71) 
Cc1ccc2cc(C(N)=O)n(C(=O)c3ccccc3C(=O)c3ccccc3)c2c1

>  <score_type>  (71) 
oracle

>  <origin>  (71) 
adg

>  <m_score__min__energy>  (71) 
-12.32

>  <m_primary>  (71) 
energy

$$$$
72:0
     RDKit          3D

 41 43  0  0  0  0  0  0  0  0999 V2000
   -2.0840   19.7980  -26.7500 C   0  0  0  0  0  0  0  0  0  0  0  0
   -2.7420   20.5020  -27.9360 C   0  0  0  0  0  0  0  0  0  0  0  0
   -1.9780   21.7610  -28.3690 C   0  0  0  0  0  0  0  0  0  0  0  0
   -2.9210   22.8850  -28.8280 C   0  0  0  0  0  0  0  0  0  0  0  0
   -2.8850   23.2020  -30.2320 O   0  0  0  0  0  0  0  0  0  0  0  0
   -3.6510   22.6840  -31.2910 C   0  0  0  0  0  0  0  0  0  0  0  0
   -3.1210   22.0450  -32.2390 O   0  0  0  0  0  0  0  0  0  0  0  0
   -5.0740   22.8630  -31.2710 N   0  0  0  0  0  0  0  0  0  0  0  0
   -5.7740   24.0000  -30.9940 C   0  0  0  0  0  0  0  0  0  0  0  0
   -5.2050   25.2700  -30.4960 C   0  0  0  0  0  0  0  0  0  0  0  0
   -3.8840   25.6710  -30.8460 N   0  0  0  0  0  0  0  0  0  0  0  0
   -5.8800   25.9880  -29.7090 O   0  0  0  0  0  0  0  0  0  0  0  0
   -7.1400   23.7850  -31.1610 C   0  0  0  0  0  0  0  0  0  0  0  0
   -7.2600   22.4680  -31.5390 C   0  0  0  0  0  0  0  0  0  0  0  0
   -8.3950   21.7270  -31.8520 C   0  0  0  0  0  0  0  0  0  0  0  0
   -8.2210   20.3890  -32.2430 C   0  0  0  0  0  0  0  0  0  0  0  0
   -6.9250   19.8130  -32.3050 C   0  0  0  0  0  0  0  0  0  0  0  0
   -6.7450   18.3940  -32.7840 C   0  0  0  0  0  0  0  0  0  0  0  0
   -5.7440   17.7610  -32.0680 F   0  0  0  0  0  0  0  0  0  0  0  0
   -7.9290   17.7030  -32.6100 F   0  0  0  0  0  0  0  0  0  0  0  0
   -6.4010   18.3720  -34.1240 F   0  0  0  0  0  0  0  0  0  0  0  0
   -5.7950   20.6080  -32.0030 C   0  0  0  0  0  0  0  0  0  0  0  0
   -5.9990   21.9330  -31.5970 C   0  0  0  0  0  0  0  0  0  0  0  0
   -3.0670   24.0510  -27.8580 C   0  0  0  0  0  0  0  0  0  0  0  0
   -4.2270   23.0690  -28.0630 C   0  0  0  0  0  0  0  0  0  0  0  0
   -2.4757   20.2171  -25.8114 H   0  0  0  0  0  0  0  0  0  0  0  0
   -2.3075   18.7218  -26.7924 H   0  0  0  0  0  0  0  0  0  0  0  0
   -0.9951   19.9483  -26.7924 H   0  0  0  0  0  0  0  0  0  0  0  0
   -2.7800   19.8030  -28.7845 H   0  0  0  0  0  0  0  0  0  0  0  0
   -3.7497   20.8131  -27.6233 H   0  0  0  0  0  0  0  0  0  0  0  0
   -1.3825   22.1238  -27.5183 H   0  0  0  0  0  0  0  0  0  0  0  0
   -1.3368   21.4900  -29.2207 H   0  0  0  0  0  0  0  0  0  0  0  0
   -3.0550   25.3020  -30.3270 H   0  0  0  0  0  0  0  0  0  0  0  0
   -7.9513   24.5143  -31.0203 H   0  0  0  0  0  0  0  0  0  0  0  0
   -9.3980   22.1751  -31.7951 H   0  0  0  0  0  0  0  0  0  0  0  0
   -9.0993   19.7805  -32.5042 H   0  0  0  0  0  0  0  0  0  0  0  0
   -4.7787   20.1951  -32.0851 H   0  0  0  0  0  0  0  0  0  0  0  0
   -2.5078   24.0524  -26.9108 H   0  0  0  0  0  0  0  0  0  0  0  0
   -2.9487   25.1423  -27.9286 H   0  0  0  0  0  0  0  0  0  0  0  0
   -4.5005   22.3651  -27.2631 H   0  0  0  0  0  0  0  0  0  0  0  0
   -5.2869   23.1624  -28.3420 H   0  0  0  0  0  0  0  0  0  0  0  0
  1  2  1  0
  2  3  1  0
  3  4  1  0
  4  5  1  0
  5  6  1  0
  6  7  2  0
  6  8  1  0
  8  9  1  0
  9 10  1  0
 10 11  1  0
 10 12  2  0
  9 13  2  0
 13 14  1  0
 14 15  2  0
 15 16  1  0
 16 17  2  0
 17 18  1  0
 18 19  1  0
 18 20  1  0
 18 21  1  0
 17 22  1  0
 22 23  2  0
  4 24  1  0
 24 25  1  0
 25  4  1  0
 23  8  1  0
 23 14  1  0
  1 26  1  0
  1 27  1  0
  1 28  1  0
  2 29  1  0
  2 30  1  0
  3 31  1  0
  3 32  1  0
 11 33  1  0
 13 34  1  0
 15 35  1  0
 16 36  1  0
 22 37  1  0
 24 38  1  0
 24 39  1  0
 25 40  1  0
 25 41  1  0
M  CHG  1  11  -1
M  END
>  <UniqueID>  (72) 
72

>  <SMILES>  (72) 
CCCC1(OC(=O)n2c(C([NH-])=O)cc3ccc(C(F)(F)F)cc32)CC1

>  <Energy>  (72) 
350.4104184679514

>  <Genealogy>  (72) 
CCCC1(OC(=O)n2c(C([NH-])=O)cc3ccc(C(F)(F)F)cc32)CC1 (protonated)
CCCC1(OC(=O)n2c(C([NH-])=O)cc3ccc(C(F)(F)F)cc32)CC1 (3D coordinates assigned)
CCCC1(OC(=O)n2c(C([NH-])=O)cc3ccc(C(F)(F)F)cc32)CC1 (nonaromatic ring conformer: 350.4104184679514 kcal/mol)

>  <smiles>  (72) 
CCCC1(OC(=O)n2c(C(N)=O)cc3ccc(C(F)(F)F)cc32)CC1

>  <score_type>  (72) 
oracle

>  <origin>  (72) 
adg

>  <m_score__min__energy>  (72) 
-10.529999999999999

>  <m_primary>  (72) 
energy

$$$$
73:0
     RDKit          3D

 41 43  0  0  0  0  0  0  0  0999 V2000
   -2.7770   20.0380  -33.6460 C   0  0  0  0  0  0  0  0  0  0  0  0
   -2.1860   20.9610  -32.5630 C   0  0  0  0  0  0  0  0  0  0  0  0
   -0.6890   21.2150  -32.8220 C   0  0  0  0  0  0  0  0  0  0  0  0
   -2.3460   20.2870  -31.1930 C   0  0  0  0  0  0  0  0  0  0  0  0
   -2.9050   22.2010  -32.5090 O   0  0  0  0  0  0  0  0  0  0  0  0
   -3.5240   22.7580  -31.3800 C   0  0  0  0  0  0  0  0  0  0  0  0
   -2.8440   23.1300  -30.3840 O   0  0  0  0  0  0  0  0  0  0  0  0
   -4.9540   22.8770  -31.3480 N   0  0  0  0  0  0  0  0  0  0  0  0
   -5.7010   23.9240  -30.8970 C   0  0  0  0  0  0  0  0  0  0  0  0
   -5.1840   25.2430  -30.4750 C   0  0  0  0  0  0  0  0  0  0  0  0
   -3.8750   25.6700  -30.8430 N   0  0  0  0  0  0  0  0  0  0  0  0
   -5.9260   26.0240  -29.8230 O   0  0  0  0  0  0  0  0  0  0  0  0
   -7.0580   23.6170  -30.9610 C   0  0  0  0  0  0  0  0  0  0  0  0
   -7.1200   22.3440  -31.4800 C   0  0  0  0  0  0  0  0  0  0  0  0
   -8.2220   21.5390  -31.7460 C   0  0  0  0  0  0  0  0  0  0  0  0
   -7.9900   20.2500  -32.2550 C   0  0  0  0  0  0  0  0  0  0  0  0
   -6.6680   19.7850  -32.4840 C   0  0  0  0  0  0  0  0  0  0  0  0
   -6.4400   18.4160  -33.0120 C   0  0  0  0  0  0  0  0  0  0  0  0
   -6.4830   18.0770  -34.3230 N   0  0  0  0  0  0  0  0  0  0  0  0
   -6.2400   16.7560  -34.5360 C   0  0  0  0  0  0  0  0  0  0  0  0
   -5.9980   16.0120  -33.3880 C   0  0  0  0  0  0  0  0  0  0  0  0
   -6.0990   17.0560  -32.0750 S   0  0  0  0  0  0  0  0  0  0  0  0
   -5.5750   20.6340  -32.1910 C   0  0  0  0  0  0  0  0  0  0  0  0
   -5.8380   21.9200  -31.7050 C   0  0  0  0  0  0  0  0  0  0  0  0
   -3.3107   19.2045  -33.1660 H   0  0  0  0  0  0  0  0  0  0  0  0
   -3.4775   20.6096  -34.2726 H   0  0  0  0  0  0  0  0  0  0  0  0
   -1.9647   19.6410  -34.2726 H   0  0  0  0  0  0  0  0  0  0  0  0
   -0.1607   21.3046  -31.8613 H   0  0  0  0  0  0  0  0  0  0  0  0
   -0.2684   20.3754  -33.3948 H   0  0  0  0  0  0  0  0  0  0  0  0
   -0.5689   22.1464  -33.3948 H   0  0  0  0  0  0  0  0  0  0  0  0
   -2.1705   21.0265  -30.3978 H   0  0  0  0  0  0  0  0  0  0  0  0
   -3.3650   19.8832  -31.0998 H   0  0  0  0  0  0  0  0  0  0  0  0
   -1.6172   19.4683  -31.0998 H   0  0  0  0  0  0  0  0  0  0  0  0
   -3.0300   25.2870  -30.3620 H   0  0  0  0  0  0  0  0  0  0  0  0
   -7.9012   24.2563  -30.6605 H   0  0  0  0  0  0  0  0  0  0  0  0
   -9.2448   21.9004  -31.5635 H   0  0  0  0  0  0  0  0  0  0  0  0
   -8.8432   19.5928  -32.4789 H   0  0  0  0  0  0  0  0  0  0  0  0
   -6.7010   18.7350  -35.1030 H   0  0  0  0  0  0  0  0  0  0  0  0
   -6.2354   16.3102  -35.5416 H   0  0  0  0  0  0  0  0  0  0  0  0
   -5.7798   14.9347  -33.3461 H   0  0  0  0  0  0  0  0  0  0  0  0
   -4.5408   20.2909  -32.3419 H   0  0  0  0  0  0  0  0  0  0  0  0
  1  2  1  0
  2  3  1  0
  2  4  1  0
  2  5  1  0
  5  6  1  0
  6  7  2  0
  6  8  1  0
  8  9  1  0
  9 10  1  0
 10 11  1  0
 10 12  2  0
  9 13  2  0
 13 14  1  0
 14 15  2  0
 15 16  1  0
 16 17  2  0
 17 18  1  0
 18 19  2  0
 19 20  1  0
 20 21  2  0
 21 22  1  0
 17 23  1  0
 23 24  2  0
 24  8  1  0
 24 14  1  0
 22 18  1  0
  1 25  1  0
  1 26  1  0
  1 27  1  0
  3 28  1  0
  3 29  1  0
  3 30  1  0
  4 31  1  0
  4 32  1  0
  4 33  1  0
 11 34  1  0
 13 35  1  0
 15 36  1  0
 16 37  1  0
 19 38  1  0
 20 39  1  0
 21 40  1  0
 23 41  1  0
M  CHG  2  11  -1  19   1
M  END
>  <UniqueID>  (73) 
73

>  <SMILES>  (73) 
CC(C)(C)OC(=O)n1c(C([NH-])=O)cc2ccc(-c3[nH+]ccs3)cc21

>  <Energy>  (73) 
108.64062879112866

>  <Genealogy>  (73) 
CC(C)(C)OC(=O)n1c(C([NH-])=O)cc2ccc(-c3[nH+]ccs3)cc21 (protonated)
CC(C)(C)OC(=O)n1c(C([NH-])=O)cc2ccc(-c3[nH+]ccs3)cc21 (3D coordinates assigned)
CC(C)(C)OC(=O)n1c(C([NH-])=O)cc2ccc(-c3[nH+]ccs3)cc21 (optimized conformer: 108.64062879112866 kcal/mol)

>  <smiles>  (73) 
CC(C)(C)OC(=O)n1c(C(N)=O)cc2ccc(-c3nccs3)cc21

>  <score_type>  (73) 
oracle

>  <origin>  (73) 
adg

>  <m_score__min__energy>  (73) 
-10.56

>  <m_primary>  (73) 
energy

$$$$
74:0
     RDKit          3D

 47 49  0  0  0  0  0  0  0  0999 V2000
   -3.6020   14.0780  -32.6630 C   0  0  0  0  0  0  0  0  0  0  0  0
   -4.2400   14.1930  -34.0470 C   0  0  0  0  0  0  0  0  0  0  0  0
   -4.2180   15.6360  -34.5710 C   0  0  0  0  0  0  0  0  0  0  0  0
   -4.6460   16.5890  -33.5230 N   0  0  0  0  0  0  0  0  0  0  0  0
   -4.4190   18.0050  -33.9140 C   0  0  0  0  0  0  0  0  0  0  0  0
   -5.6890   18.7050  -34.4310 C   0  0  0  0  0  0  0  0  0  0  0  0
   -6.8700   18.6230  -33.4270 C   0  0  0  0  0  0  0  0  0  0  0  0
   -7.1510   19.9530  -32.7510 C   0  0  0  0  0  0  0  0  0  0  0  0
   -8.4780   20.3490  -32.4390 C   0  0  0  0  0  0  0  0  0  0  0  0
   -8.7340   21.5760  -31.8050 C   0  0  0  0  0  0  0  0  0  0  0  0
   -7.6500   22.3930  -31.5030 C   0  0  0  0  0  0  0  0  0  0  0  0
   -7.6130   23.6110  -30.8650 C   0  0  0  0  0  0  0  0  0  0  0  0
   -6.2680   23.9630  -30.8230 C   0  0  0  0  0  0  0  0  0  0  0  0
   -5.7810   25.2450  -30.2760 C   0  0  0  0  0  0  0  0  0  0  0  0
   -6.1300   25.6680  -28.9580 N   0  0  0  0  0  0  0  0  0  0  0  0
   -4.9980   25.9530  -30.9640 O   0  0  0  0  0  0  0  0  0  0  0  0
   -5.4970   22.9960  -31.3980 N   0  0  0  0  0  0  0  0  0  0  0  0
   -4.0620   22.9330  -31.4420 C   0  0  0  0  0  0  0  0  0  0  0  0
   -3.2780   23.9300  -30.7920 N   0  0  0  0  0  0  0  0  0  0  0  0
   -3.4860   21.9890  -32.0470 O   0  0  0  0  0  0  0  0  0  0  0  0
   -6.3620   22.0420  -31.8140 C   0  0  0  0  0  0  0  0  0  0  0  0
   -6.0750   20.8160  -32.4260 C   0  0  0  0  0  0  0  0  0  0  0  0
   -6.6770   17.5010  -32.3890 C   0  0  0  0  0  0  0  0  0  0  0  0
   -6.0220   16.2890  -33.0580 C   0  0  0  0  0  0  0  0  0  0  0  0
   -4.3732   14.2170  -31.8910 H   0  0  0  0  0  0  0  0  0  0  0  0
   -3.1461   13.0832  -32.5509 H   0  0  0  0  0  0  0  0  0  0  0  0
   -2.8275   14.8510  -32.5509 H   0  0  0  0  0  0  0  0  0  0  0  0
   -3.6857   13.5518  -34.7482 H   0  0  0  0  0  0  0  0  0  0  0  0
   -5.2904   13.8768  -33.9649 H   0  0  0  0  0  0  0  0  0  0  0  0
   -3.1955   15.8872  -34.8894 H   0  0  0  0  0  0  0  0  0  0  0  0
   -4.9157   15.7112  -35.4181 H   0  0  0  0  0  0  0  0  0  0  0  0
   -4.0502   18.5549  -33.0356 H   0  0  0  0  0  0  0  0  0  0  0  0
   -3.6900   18.0027  -34.7377 H   0  0  0  0  0  0  0  0  0  0  0  0
   -5.4566   19.7643  -34.6150 H   0  0  0  0  0  0  0  0  0  0  0  0
   -6.0001   18.1904  -35.3521 H   0  0  0  0  0  0  0  0  0  0  0  0
   -7.7577   18.3690  -34.0249 H   0  0  0  0  0  0  0  0  0  0  0  0
   -9.3170   19.6861  -32.6972 H   0  0  0  0  0  0  0  0  0  0  0  0
   -9.7608   21.8813  -31.5550 H   0  0  0  0  0  0  0  0  0  0  0  0
   -8.4654   24.1844  -30.4718 H   0  0  0  0  0  0  0  0  0  0  0  0
   -6.6400   25.0320  -28.3050 H   0  0  0  0  0  0  0  0  0  0  0  0
   -5.8070   26.5950  -28.6020 H   0  0  0  0  0  0  0  0  0  0  0  0
   -3.2630   24.9140  -31.1410 H   0  0  0  0  0  0  0  0  0  0  0  0
   -5.0370   20.5289  -32.6497 H   0  0  0  0  0  0  0  0  0  0  0  0
   -6.0319   17.8627  -31.5747 H   0  0  0  0  0  0  0  0  0  0  0  0
   -7.6558   17.2084  -31.9812 H   0  0  0  0  0  0  0  0  0  0  0  0
   -5.9800   15.4626  -32.3333 H   0  0  0  0  0  0  0  0  0  0  0  0
   -6.6263   16.0169  -33.9360 H   0  0  0  0  0  0  0  0  0  0  0  0
  1  2  1  0
  2  3  1  0
  3  4  1  0
  4  5  1  0
  5  6  1  0
  6  7  1  0
  7  8  1  0
  8  9  2  0
  9 10  1  0
 10 11  2  0
 11 12  1  0
 12 13  2  0
 13 14  1  0
 14 15  1  0
 14 16  2  0
 13 17  1  0
 17 18  1  0
 18 19  1  0
 18 20  2  0
 17 21  1  0
 21 22  2  0
  7 23  1  0
 23 24  1  0
 24  4  1  0
 22  8  1  0
 21 11  1  0
  1 25  1  0
  1 26  1  0
  1 27  1  0
  2 28  1  0
  2 29  1  0
  3 30  1  0
  3 31  1  0
  5 32  1  0
  5 33  1  0
  6 34  1  0
  6 35  1  0
  7 36  1  0
  9 37  1  0
 10 38  1  0
 12 39  1  0
 15 40  1  0
 15 41  1  0
 19 42  1  0
 22 43  1  0
 23 44  1  0
 23 45  1  0
 24 46  1  0
 24 47  1  0
M  CHG  1  19  -1
M  END
>  <UniqueID>  (74) 
74

>  <SMILES>  (74) 
CCCN1CCC(c2ccc3cc(C(N)=O)n(C([NH-])=O)c3c2)CC1

>  <Energy>  (74) 
93.74932452353487

>  <Genealogy>  (74) 
CCCN1CCC(c2ccc3cc(C(N)=O)n(C([NH-])=O)c3c2)CC1 (protonated)
CCCN1CCC(c2ccc3cc(C(N)=O)n(C([NH-])=O)c3c2)CC1 (3D coordinates assigned)
CCCN1CCC(c2ccc3cc(C(N)=O)n(C([NH-])=O)c3c2)CC1 (nonaromatic ring conformer: 93.74932452353487 kcal/mol)

>  <smiles>  (74) 
CCCN1CCC(c2ccc3cc(C(N)=O)n(C(N)=O)c3c2)CC1

>  <score_type>  (74) 
oracle

>  <origin>  (74) 
adg

>  <m_score__min__energy>  (74) 
-10.119999999999999

>  <m_primary>  (74) 
energy

$$$$
75:0
     RDKit          3D

 63 65  0  0  0  0  0  0  0  0999 V2000
   -2.7600   13.3980  -31.9660 C   0  0  0  0  0  0  0  0  0  0  0  0
   -3.2940   13.7700  -33.2870 N   0  0  0  0  0  0  0  0  0  0  0  0
   -2.7730   15.0790  -33.7140 C   0  0  0  0  0  0  0  0  0  0  0  0
   -4.7420   13.7910  -33.2510 C   0  0  0  0  0  0  0  0  0  0  0  0
   -5.3410   13.1550  -32.3910 O   0  0  0  0  0  0  0  0  0  0  0  0
   -5.5110   14.6540  -34.2360 C   0  0  0  0  0  0  0  0  0  0  0  0
   -5.8690   16.0030  -33.7450 N   0  0  0  0  0  0  0  0  0  0  0  0
   -5.2980   17.1060  -34.5370 C   0  0  0  0  0  0  0  0  0  0  0  0
   -6.0950   18.3960  -34.2820 C   0  0  0  0  0  0  0  0  0  0  0  0
   -6.6800   18.4560  -32.8480 C   0  0  0  0  0  0  0  0  0  0  0  0
   -6.8820   19.8890  -32.3930 C   0  0  0  0  0  0  0  0  0  0  0  0
   -8.1890   20.4190  -32.2160 C   0  0  0  0  0  0  0  0  0  0  0  0
   -8.3780   21.7290  -31.7480 C   0  0  0  0  0  0  0  0  0  0  0  0
   -7.2470   22.4920  -31.4740 C   0  0  0  0  0  0  0  0  0  0  0  0
   -7.1420   23.7710  -30.9790 C   0  0  0  0  0  0  0  0  0  0  0  0
   -5.7740   24.0230  -30.8920 C   0  0  0  0  0  0  0  0  0  0  0  0
   -5.2120   25.3300  -30.4880 C   0  0  0  0  0  0  0  0  0  0  0  0
   -3.8770   25.6730  -30.8540 N   0  0  0  0  0  0  0  0  0  0  0  0
   -5.8840   26.1330  -29.7920 O   0  0  0  0  0  0  0  0  0  0  0  0
   -5.0620   22.9380  -31.3090 N   0  0  0  0  0  0  0  0  0  0  0  0
   -3.6350   22.7760  -31.3170 C   0  0  0  0  0  0  0  0  0  0  0  0
   -2.9630   23.1320  -30.3130 O   0  0  0  0  0  0  0  0  0  0  0  0
   -3.0070   22.2380  -32.4490 O   0  0  0  0  0  0  0  0  0  0  0  0
   -2.3160   20.9830  -32.5270 C   0  0  0  0  0  0  0  0  0  0  0  0
   -2.9610   20.0750  -33.5910 C   0  0  0  0  0  0  0  0  0  0  0  0
   -2.4440   20.3090  -31.1530 C   0  0  0  0  0  0  0  0  0  0  0  0
   -0.8220   21.2020  -32.8340 C   0  0  0  0  0  0  0  0  0  0  0  0
   -5.9780   22.0100  -31.6630 C   0  0  0  0  0  0  0  0  0  0  0  0
   -5.7600   20.7020  -32.1080 C   0  0  0  0  0  0  0  0  0  0  0  0
   -5.8130   17.6590  -31.8540 C   0  0  0  0  0  0  0  0  0  0  0  0
   -5.6840   16.1790  -32.2860 C   0  0  0  0  0  0  0  0  0  0  0  0
   -3.3904   13.8372  -31.1788 H   0  0  0  0  0  0  0  0  0  0  0  0
   -2.7587   12.3025  -31.8662 H   0  0  0  0  0  0  0  0  0  0  0  0
   -1.7320   13.7764  -31.8662 H   0  0  0  0  0  0  0  0  0  0  0  0
   -2.9670   13.0550  -33.9820 H   0  0  0  0  0  0  0  0  0  0  0  0
   -2.5320   15.6845  -32.8278 H   0  0  0  0  0  0  0  0  0  0  0  0
   -1.8644   14.9332  -34.3166 H   0  0  0  0  0  0  0  0  0  0  0  0
   -3.5333   15.5974  -34.3166 H   0  0  0  0  0  0  0  0  0  0  0  0
   -4.8936   14.7730  -35.1386 H   0  0  0  0  0  0  0  0  0  0  0  0
   -6.4624   14.1335  -34.4203 H   0  0  0  0  0  0  0  0  0  0  0  0
   -4.2489   17.2608  -34.2446 H   0  0  0  0  0  0  0  0  0  0  0  0
   -5.3506   16.8514  -35.6058 H   0  0  0  0  0  0  0  0  0  0  0  0
   -5.4275   19.2581  -34.4275 H   0  0  0  0  0  0  0  0  0  0  0  0
   -6.9377   18.4146  -34.9888 H   0  0  0  0  0  0  0  0  0  0  0  0
   -7.6707   17.9787  -32.8722 H   0  0  0  0  0  0  0  0  0  0  0  0
   -9.0640   19.7944  -32.4488 H   0  0  0  0  0  0  0  0  0  0  0  0
   -9.3882   22.1393  -31.6025 H   0  0  0  0  0  0  0  0  0  0  0  0
   -7.9635   24.4508  -30.7090 H   0  0  0  0  0  0  0  0  0  0  0  0
   -3.0590   25.2930  -30.3250 H   0  0  0  0  0  0  0  0  0  0  0  0
   -3.5294   19.2748  -33.0944 H   0  0  0  0  0  0  0  0  0  0  0  0
   -3.6393   20.6710  -34.2192 H   0  0  0  0  0  0  0  0  0  0  0  0
   -2.1749   19.6307  -34.2192 H   0  0  0  0  0  0  0  0  0  0  0  0
   -2.3014   21.0596  -30.3617 H   0  0  0  0  0  0  0  0  0  0  0  0
   -3.4435   19.8599  -31.0566 H   0  0  0  0  0  0  0  0  0  0  0  0
   -1.6787   19.5247  -31.0566 H   0  0  0  0  0  0  0  0  0  0  0  0
   -0.2620   21.2841  -31.8908 H   0  0  0  0  0  0  0  0  0  0  0  0
   -0.4384   20.3505  -33.4152 H   0  0  0  0  0  0  0  0  0  0  0  0
   -0.6990   22.1278  -33.4152 H   0  0  0  0  0  0  0  0  0  0  0  0
   -4.7384   20.3140  -32.2336 H   0  0  0  0  0  0  0  0  0  0  0  0
   -4.8102   18.1091  -31.8115 H   0  0  0  0  0  0  0  0  0  0  0  0
   -6.2954   17.6928  -30.8660 H   0  0  0  0  0  0  0  0  0  0  0  0
   -4.6833   15.8154  -32.0096 H   0  0  0  0  0  0  0  0  0  0  0  0
   -6.4732   15.6083  -31.7746 H   0  0  0  0  0  0  0  0  0  0  0  0
  1  2  1  0
  2  3  1  0
  2  4  1  0
  4  5  2  0
  4  6  1  0
  6  7  1  0
  7  8  1  0
  8  9  1  0
  9 10  1  0
 10 11  1  0
 11 12  2  0
 12 13  1  0
 13 14  2  0
 14 15  1  0
 15 16  2  0
 16 17  1  0
 17 18  1  0
 17 19  2  0
 16 20  1  0
 20 21  1  0
 21 22  2  0
 21 23  1  0
 23 24  1  0
 24 25  1  0
 24 26  1  0
 24 27  1  0
 20 28  1  0
 28 29  2  0
 10 30  1  0
 30 31  1  0
 31  7  1  0
 29 11  1  0
 28 14  1  0
  1 32  1  0
  1 33  1  0
  1 34  1  0
  2 35  1  0
  3 36  1  0
  3 37  1  0
  3 38  1  0
  6 39  1  0
  6 40  1  0
  8 41  1  0
  8 42  1  0
  9 43  1  0
  9 44  1  0
 10 45  1  0
 12 46  1  0
 13 47  1  0
 15 48  1  0
 18 49  1  0
 25 50  1  0
 25 51  1  0
 25 52  1  0
 26 53  1  0
 26 54  1  0
 26 55  1  0
 27 56  1  0
 27 57  1  0
 27 58  1  0
 29 59  1  0
 30 60  1  0
 30 61  1  0
 31 62  1  0
 31 63  1  0
M  CHG  2   2   1  18  -1
M  END
>  <UniqueID>  (75) 
75

>  <SMILES>  (75) 
C[NH+](C)C(=O)CN1CCC(c2ccc3cc(C([NH-])=O)n(C(=O)OC(C)(C)C)c3c2)CC1

>  <Energy>  (75) 
108.03763938813628

>  <Genealogy>  (75) 
C[NH+](C)C(=O)CN1CCC(c2ccc3cc(C([NH-])=O)n(C(=O)OC(C)(C)C)c3c2)CC1 (protonated)
C[NH+](C)C(=O)CN1CCC(c2ccc3cc(C([NH-])=O)n(C(=O)OC(C)(C)C)c3c2)CC1 (3D coordinates assigned)
C[NH+](C)C(=O)CN1CCC(c2ccc3cc(C([NH-])=O)n(C(=O)OC(C)(C)C)c3c2)CC1 (nonaromatic ring conformer: 108.03763938813628 kcal/mol)

>  <smiles>  (75) 
CN(C)C(=O)CN1CCC(c2ccc3cc(C(N)=O)n(C(=O)OC(C)(C)C)c3c2)CC1

>  <score_type>  (75) 
oracle

>  <origin>  (75) 
adg

>  <m_score__min__energy>  (75) 
-11.15

>  <m_primary>  (75) 
energy

$$$$
76:0
     RDKit          3D

 35 37  0  0  0  0  0  0  0  0999 V2000
   -5.3650   26.5100  -30.4510 N   0  0  0  0  0  0  0  0  0  0  0  0
   -6.2660   25.4910  -30.0130 C   0  0  0  0  0  0  0  0  0  0  0  0
   -6.9550   25.6800  -28.9760 O   0  0  0  0  0  0  0  0  0  0  0  0
   -6.3540   24.1960  -30.7170 C   0  0  0  0  0  0  0  0  0  0  0  0
   -7.5580   23.6260  -31.1180 C   0  0  0  0  0  0  0  0  0  0  0  0
   -7.2170   22.4140  -31.6740 C   0  0  0  0  0  0  0  0  0  0  0  0
   -8.0220   21.4380  -32.2420 C   0  0  0  0  0  0  0  0  0  0  0  0
   -7.4020   20.2970  -32.7750 C   0  0  0  0  0  0  0  0  0  0  0  0
   -5.9830   20.1400  -32.7510 C   0  0  0  0  0  0  0  0  0  0  0  0
   -5.3470   18.9540  -33.3220 N   0  0  0  0  0  0  0  0  0  0  0  0
   -3.9160   19.0050  -33.6880 C   0  0  0  0  0  0  0  0  0  0  0  0
   -3.3670   17.6720  -34.2060 C   0  0  0  0  0  0  0  0  0  0  0  0
   -4.3160   17.0140  -35.0080 O   0  0  0  0  0  0  0  0  0  0  0  0
   -5.3730   16.5860  -34.1840 C   0  0  0  0  0  0  0  0  0  0  0  0
   -6.1790   17.7790  -33.6600 C   0  0  0  0  0  0  0  0  0  0  0  0
   -5.2070   21.1730  -32.1520 C   0  0  0  0  0  0  0  0  0  0  0  0
   -5.8560   22.2870  -31.6080 C   0  0  0  0  0  0  0  0  0  0  0  0
   -5.3080   23.3790  -31.0230 N   0  0  0  0  0  0  0  0  0  0  0  0
   -3.9060   23.6610  -30.8710 C   0  0  0  0  0  0  0  0  0  0  0  0
   -3.0510   22.7580  -31.0700 O   0  0  0  0  0  0  0  0  0  0  0  0
   -3.4780   24.9320  -30.5070 O   0  0  0  0  0  0  0  0  0  0  0  0
   -4.6600   26.3230  -31.1970 H   0  0  0  0  0  0  0  0  0  0  0  0
   -5.3440   27.4350  -29.9650 H   0  0  0  0  0  0  0  0  0  0  0  0
   -8.5665   24.0526  -31.0132 H   0  0  0  0  0  0  0  0  0  0  0  0
   -9.1153   21.5547  -32.2739 H   0  0  0  0  0  0  0  0  0  0  0  0
   -8.0231   19.5063  -33.2211 H   0  0  0  0  0  0  0  0  0  0  0  0
   -3.7849   19.7638  -34.4736 H   0  0  0  0  0  0  0  0  0  0  0  0
   -3.3576   19.2495  -32.7723 H   0  0  0  0  0  0  0  0  0  0  0  0
   -2.4625   17.8628  -34.8022 H   0  0  0  0  0  0  0  0  0  0  0  0
   -3.1319   17.0309  -33.3436 H   0  0  0  0  0  0  0  0  0  0  0  0
   -6.0382   15.9296  -34.7642 H   0  0  0  0  0  0  0  0  0  0  0  0
   -4.9502   16.0445  -33.3249 H   0  0  0  0  0  0  0  0  0  0  0  0
   -6.9025   18.0763  -34.4334 H   0  0  0  0  0  0  0  0  0  0  0  0
   -6.6694   17.4534  -32.7308 H   0  0  0  0  0  0  0  0  0  0  0  0
   -4.1102   21.0961  -32.1174 H   0  0  0  0  0  0  0  0  0  0  0  0
  1  2  1  0
  2  3  2  0
  2  4  1  0
  4  5  2  0
  5  6  1  0
  6  7  2  0
  7  8  1  0
  8  9  2  0
  9 10  1  0
 10 11  1  0
 11 12  1  0
 12 13  1  0
 13 14  1  0
 14 15  1  0
  9 16  1  0
 16 17  2  0
 17 18  1  0
 18 19  1  0
 19 20  2  0
 19 21  1  0
 18  4  1  0
 17  6  1  0
 15 10  1  0
  1 22  1  0
  1 23  1  0
  5 24  1  0
  7 25  1  0
  8 26  1  0
 11 27  1  0
 11 28  1  0
 12 29  1  0
 12 30  1  0
 14 31  1  0
 14 32  1  0
 15 33  1  0
 15 34  1  0
 16 35  1  0
M  CHG  1  21  -1
M  END
>  <UniqueID>  (76) 
76

>  <SMILES>  (76) 
NC(=O)c1cc2ccc(N3CCOCC3)cc2n1C(=O)[O-]

>  <Energy>  (76) 
84.60996735756657

>  <Genealogy>  (76) 
NC(=O)c1cc2ccc(N3CCOCC3)cc2n1C(=O)[O-] (protonated)
NC(=O)c1cc2ccc(N3CCOCC3)cc2n1C(=O)[O-] (3D coordinates assigned)
NC(=O)c1cc2ccc(N3CCOCC3)cc2n1C(=O)[O-] (nonaromatic ring conformer: 84.60996735756657 kcal/mol)

>  <smiles>  (76) 
NC(=O)c1cc2ccc(N3CCOCC3)cc2n1C(=O)O

>  <score_type>  (76) 
oracle

>  <origin>  (76) 
adg

>  <m_score__min__energy>  (76) 
-8.8499999999999996

>  <m_primary>  (76) 
energy

$$$$
77:0
     RDKit          3D

 56 58  0  0  0  0  0  0  0  0999 V2000
   -4.4560   13.2640  -31.4960 C   0  0  0  0  0  0  0  0  0  0  0  0
   -3.6710   14.0400  -32.5010 C   0  0  0  0  0  0  0  0  0  0  0  0
   -2.4250   13.8630  -32.5910 O   0  0  0  0  0  0  0  0  0  0  0  0
   -4.3270   14.9680  -33.3210 O   0  0  0  0  0  0  0  0  0  0  0  0
   -5.0670   16.0800  -32.8120 C   0  0  2  0  0  0  0  0  0  0  0  0
   -6.4760   16.0600  -33.4310 C   0  0  0  0  0  0  0  0  0  0  0  0
   -7.2020   17.3810  -33.1620 C   0  0  0  0  0  0  0  0  0  0  0  0
   -6.4820   18.5750  -33.8390 C   0  0  1  0  0  0  0  0  0  0  0  0
   -6.7050   19.8750  -33.0800 C   0  0  0  0  0  0  0  0  0  0  0  0
   -8.0150   20.3240  -32.7590 C   0  0  0  0  0  0  0  0  0  0  0  0
   -8.2140   21.5290  -32.0660 C   0  0  0  0  0  0  0  0  0  0  0  0
   -7.0930   22.2620  -31.6920 C   0  0  0  0  0  0  0  0  0  0  0  0
   -7.0020   23.4750  -31.0470 C   0  0  0  0  0  0  0  0  0  0  0  0
   -5.6380   23.7380  -30.9520 C   0  0  0  0  0  0  0  0  0  0  0  0
   -5.0790   24.9160  -30.2560 C   0  0  0  0  0  0  0  0  0  0  0  0
   -3.9730   25.6160  -30.8230 N   0  0  0  0  0  0  0  0  0  0  0  0
   -5.5870   25.3320  -29.1820 O   0  0  0  0  0  0  0  0  0  0  0  0
   -4.9160   22.7290  -31.5170 N   0  0  0  0  0  0  0  0  0  0  0  0
   -3.4930   22.6460  -31.6780 C   0  0  0  0  0  0  0  0  0  0  0  0
   -2.7350   23.1610  -30.8110 O   0  0  0  0  0  0  0  0  0  0  0  0
   -2.9670   22.0070  -32.8100 O   0  0  0  0  0  0  0  0  0  0  0  0
   -2.0950   20.8680  -32.8170 C   0  0  0  0  0  0  0  0  0  0  0  0
   -2.3910   19.9570  -31.6100 C   0  0  0  0  0  0  0  0  0  0  0  0
   -0.6580   21.3950  -32.6980 C   0  0  0  0  0  0  0  0  0  0  0  0
   -2.2310   20.0830  -34.1360 C   0  0  0  0  0  0  0  0  0  0  0  0
   -5.8210   21.8330  -31.9650 C   0  0  0  0  0  0  0  0  0  0  0  0
   -5.5910   20.6450  -32.6690 C   0  0  0  0  0  0  0  0  0  0  0  0
   -4.9760   18.3190  -34.1120 C   0  0  0  0  0  0  0  0  0  0  0  0
   -4.3070   17.4130  -33.0660 C   0  0  0  0  0  0  0  0  0  0  0  0
   -4.1523   13.5642  -30.4823 H   0  0  0  0  0  0  0  0  0  0  0  0
   -5.5285   13.4667  -31.6326 H   0  0  0  0  0  0  0  0  0  0  0  0
   -4.2657   12.1892  -31.6326 H   0  0  0  0  0  0  0  0  0  0  0  0
   -5.1747   16.0017  -31.7201 H   0  0  0  0  0  0  0  0  0  0  0  0
   -6.3915   15.9087  -34.5173 H   0  0  0  0  0  0  0  0  0  0  0  0
   -7.0514   15.2403  -32.9761 H   0  0  0  0  0  0  0  0  0  0  0  0
   -8.2267   17.3120  -33.5559 H   0  0  0  0  0  0  0  0  0  0  0  0
   -7.2100   17.5546  -32.0758 H   0  0  0  0  0  0  0  0  0  0  0  0
   -6.9503   18.6806  -34.8287 H   0  0  0  0  0  0  0  0  0  0  0  0
   -8.8843   19.7196  -33.0574 H   0  0  0  0  0  0  0  0  0  0  0  0
   -9.2275   21.8829  -31.8259 H   0  0  0  0  0  0  0  0  0  0  0  0
   -7.8298   24.1021  -30.6843 H   0  0  0  0  0  0  0  0  0  0  0  0
   -2.9930   25.2980  -30.6550 H   0  0  0  0  0  0  0  0  0  0  0  0
   -2.2104   20.5128  -30.6781 H   0  0  0  0  0  0  0  0  0  0  0  0
   -3.4411   19.6315  -31.6451 H   0  0  0  0  0  0  0  0  0  0  0  0
   -1.7328   19.0764  -31.6451 H   0  0  0  0  0  0  0  0  0  0  0  0
   -0.3903   21.4932  -31.6356 H   0  0  0  0  0  0  0  0  0  0  0  0
    0.0322   20.6915  -33.1866 H   0  0  0  0  0  0  0  0  0  0  0  0
   -0.5863   22.3779  -33.1866 H   0  0  0  0  0  0  0  0  0  0  0  0
   -2.4149   19.0215  -33.9137 H   0  0  0  0  0  0  0  0  0  0  0  0
   -3.0726   20.4869  -34.7180 H   0  0  0  0  0  0  0  0  0  0  0  0
   -1.3026   20.1802  -34.7180 H   0  0  0  0  0  0  0  0  0  0  0  0
   -4.5663   20.3170  -32.8978 H   0  0  0  0  0  0  0  0  0  0  0  0
   -4.8773   17.8429  -35.0987 H   0  0  0  0  0  0  0  0  0  0  0  0
   -4.4692   19.2942  -34.0659 H   0  0  0  0  0  0  0  0  0  0  0  0
   -3.2917   17.1724  -33.4142 H   0  0  0  0  0  0  0  0  0  0  0  0
   -4.3060   17.9673  -32.1158 H   0  0  0  0  0  0  0  0  0  0  0  0
  1  2  1  0
  2  3  2  0
  2  4  1  0
  4  5  1  0
  5  6  1  0
  6  7  1  0
  7  8  1  0
  8  9  1  0
  9 10  2  0
 10 11  1  0
 11 12  2  0
 12 13  1  0
 13 14  2  0
 14 15  1  0
 15 16  1  0
 15 17  2  0
 14 18  1  0
 18 19  1  0
 19 20  2  0
 19 21  1  0
 21 22  1  0
 22 23  1  0
 22 24  1  0
 22 25  1  0
 18 26  1  0
 26 27  2  0
  8 28  1  0
 28 29  1  0
 29  5  1  0
 27  9  1  0
 26 12  1  0
  1 30  1  0
  1 31  1  0
  1 32  1  0
  5 33  1  1
  6 34  1  0
  6 35  1  0
  7 36  1  0
  7 37  1  0
  8 38  1  6
 10 39  1  0
 11 40  1  0
 13 41  1  0
 16 42  1  0
 23 43  1  0
 23 44  1  0
 23 45  1  0
 24 46  1  0
 24 47  1  0
 24 48  1  0
 25 49  1  0
 25 50  1  0
 25 51  1  0
 27 52  1  0
 28 53  1  0
 28 54  1  0
 29 55  1  0
 29 56  1  0
M  CHG  1  16  -1
M  END
>  <UniqueID>  (77) 
77

>  <SMILES>  (77) 
CC(=O)OC1CCC(c2ccc3cc(C([NH-])=O)n(C(=O)OC(C)(C)C)c3c2)CC1

>  <Energy>  (77) 
93.00069602756842

>  <Genealogy>  (77) 
CC(=O)OC1CCC(c2ccc3cc(C([NH-])=O)n(C(=O)OC(C)(C)C)c3c2)CC1 (protonated)
CC(=O)OC1CCC(c2ccc3cc(C([NH-])=O)n(C(=O)OC(C)(C)C)c3c2)CC1 (3D coordinates assigned)
CC(=O)OC1CCC(c2ccc3cc(C([NH-])=O)n(C(=O)OC(C)(C)C)c3c2)CC1 (nonaromatic ring conformer: 93.00069602756842 kcal/mol)

>  <smiles>  (77) 
CC(=O)OC1CCC(c2ccc3cc(C(N)=O)n(C(=O)OC(C)(C)C)c3c2)CC1

>  <score_type>  (77) 
oracle

>  <origin>  (77) 
adg

>  <m_score__min__energy>  (77) 
-11.539999999999999

>  <m_primary>  (77) 
energy

$$$$
78:0
     RDKit          3D

 35 37  0  0  0  0  0  0  0  0999 V2000
   -1.6330   25.6710  -28.9810 N   0  0  0  0  0  0  0  0  0  0  0  0
   -1.1140   24.3640  -29.2090 C   0  0  0  0  0  0  0  0  0  0  0  0
    0.0550   24.0910  -28.8270 O   0  0  0  0  0  0  0  0  0  0  0  0
   -1.9040   23.3450  -29.9320 C   0  0  0  0  0  0  0  0  0  0  0  0
   -1.3510   22.1840  -30.4660 C   0  0  0  0  0  0  0  0  0  0  0  0
   -2.3850   21.5530  -31.1180 C   0  0  0  0  0  0  0  0  0  0  0  0
   -2.4020   20.3500  -31.8140 C   0  0  0  0  0  0  0  0  0  0  0  0
   -3.6220   19.9210  -32.3610 C   0  0  0  0  0  0  0  0  0  0  0  0
   -4.8020   20.6940  -32.2020 C   0  0  0  0  0  0  0  0  0  0  0  0
   -6.0570   20.2320  -32.7470 N   0  0  0  0  0  0  0  0  0  0  0  0
   -7.3090   20.8870  -32.3360 C   0  0  0  0  0  0  0  0  0  0  0  0
   -8.5430   20.0540  -32.6960 C   0  0  0  0  0  0  0  0  0  0  0  0
   -8.3560   18.3410  -32.0950 S   0  0  0  0  0  0  0  0  0  0  0  0
   -6.8170   17.8970  -33.0010 C   0  0  0  0  0  0  0  0  0  0  0  0
   -6.0990   19.0800  -33.6570 C   0  0  0  0  0  0  0  0  0  0  0  0
   -4.7430   21.9100  -31.4800 C   0  0  0  0  0  0  0  0  0  0  0  0
   -3.5090   22.3220  -30.9640 C   0  0  0  0  0  0  0  0  0  0  0  0
   -3.2310   23.4260  -30.2370 N   0  0  0  0  0  0  0  0  0  0  0  0
   -4.1740   24.4210  -29.8050 C   0  0  0  0  0  0  0  0  0  0  0  0
   -4.2490   25.6770  -30.4740 N   0  0  0  0  0  0  0  0  0  0  0  0
   -4.9470   24.1830  -28.8390 O   0  0  0  0  0  0  0  0  0  0  0  0
   -2.6620   25.8460  -28.9590 H   0  0  0  0  0  0  0  0  0  0  0  0
   -0.3082   21.8435  -30.3839 H   0  0  0  0  0  0  0  0  0  0  0  0
   -1.4867   19.7516  -31.9328 H   0  0  0  0  0  0  0  0  0  0  0  0
   -3.6639   18.9743  -32.9196 H   0  0  0  0  0  0  0  0  0  0  0  0
   -7.2889   21.0378  -31.2466 H   0  0  0  0  0  0  0  0  0  0  0  0
   -7.3804   21.8452  -32.8715 H   0  0  0  0  0  0  0  0  0  0  0  0
   -9.4323   20.5053  -32.2319 H   0  0  0  0  0  0  0  0  0  0  0  0
   -8.6535   20.0368  -33.7903 H   0  0  0  0  0  0  0  0  0  0  0  0
   -6.1231   17.4269  -32.2886 H   0  0  0  0  0  0  0  0  0  0  0  0
   -7.1191   17.2244  -33.8173 H   0  0  0  0  0  0  0  0  0  0  0  0
   -5.0708   18.7826  -33.9106 H   0  0  0  0  0  0  0  0  0  0  0  0
   -6.6486   19.3672  -34.5655 H   0  0  0  0  0  0  0  0  0  0  0  0
   -5.6471   22.5178  -31.3278 H   0  0  0  0  0  0  0  0  0  0  0  0
   -3.8860   26.5470  -30.0230 H   0  0  0  0  0  0  0  0  0  0  0  0
  1  2  1  0
  2  3  2  0
  2  4  1  0
  4  5  2  0
  5  6  1  0
  6  7  2  0
  7  8  1  0
  8  9  2  0
  9 10  1  0
 10 11  1  0
 11 12  1  0
 12 13  1  0
 13 14  1  0
 14 15  1  0
  9 16  1  0
 16 17  2  0
 17 18  1  0
 18 19  1  0
 19 20  1  0
 19 21  2  0
 18  4  1  0
 17  6  1  0
 15 10  1  0
  1 22  1  0
  5 23  1  0
  7 24  1  0
  8 25  1  0
 11 26  1  0
 11 27  1  0
 12 28  1  0
 12 29  1  0
 14 30  1  0
 14 31  1  0
 15 32  1  0
 15 33  1  0
 16 34  1  0
 20 35  1  0
M  CHG  2   1  -1  20  -1
M  END
>  <UniqueID>  (78) 
78

>  <SMILES>  (78) 
[NH-]C(=O)c1cc2ccc(N3CCSCC3)cc2n1C([NH-])=O

>  <Energy>  (78) 
80.47729416658305

>  <Genealogy>  (78) 
[NH-]C(=O)c1cc2ccc(N3CCSCC3)cc2n1C([NH-])=O (protonated)
[NH-]C(=O)c1cc2ccc(N3CCSCC3)cc2n1C([NH-])=O (3D coordinates assigned)
[NH-]C(=O)c1cc2ccc(N3CCSCC3)cc2n1C([NH-])=O (nonaromatic ring conformer: 80.47729416658305 kcal/mol)

>  <smiles>  (78) 
NC(=O)c1cc2ccc(N3CCSCC3)cc2n1C(N)=O

>  <score_type>  (78) 
oracle

>  <origin>  (78) 
adg

>  <m_score__min__energy>  (78) 
-11.609999999999999

>  <m_primary>  (78) 
energy

$$$$
79:0
     RDKit          3D

 34 36  0  0  0  0  0  0  0  0999 V2000
   -1.6440   25.7400  -28.8500 N   0  0  0  0  0  0  0  0  0  0  0  0
   -0.8510   24.5750  -29.0630 C   0  0  0  0  0  0  0  0  0  0  0  0
    0.2970   24.5090  -28.5470 O   0  0  0  0  0  0  0  0  0  0  0  0
   -1.3760   23.4250  -29.8280 C   0  0  0  0  0  0  0  0  0  0  0  0
   -0.5980   22.3280  -30.1870 C   0  0  0  0  0  0  0  0  0  0  0  0
   -1.4640   21.4520  -30.7980 C   0  0  0  0  0  0  0  0  0  0  0  0
   -1.2230   20.2020  -31.3610 C   0  0  0  0  0  0  0  0  0  0  0  0
   -2.3010   19.5280  -31.9560 C   0  0  0  0  0  0  0  0  0  0  0  0
   -3.5950   20.1100  -31.9870 C   0  0  0  0  0  0  0  0  0  0  0  0
   -4.7260   19.3930  -32.6300 C   0  0  0  0  0  0  0  0  0  0  0  0
   -4.4970   18.5210  -33.7080 C   0  0  0  0  0  0  0  0  0  0  0  0
   -5.5600   17.8370  -34.3010 C   0  0  0  0  0  0  0  0  0  0  0  0
   -6.8630   18.0190  -33.8330 C   0  0  0  0  0  0  0  0  0  0  0  0
   -7.1200   18.9050  -32.7740 C   0  0  0  0  0  0  0  0  0  0  0  0
   -8.5180   19.0630  -32.2320 C   0  0  0  0  0  0  0  0  0  0  0  0
   -8.5110   19.8290  -31.0790 F   0  0  0  0  0  0  0  0  0  0  0  0
   -9.3370   19.6860  -33.1590 F   0  0  0  0  0  0  0  0  0  0  0  0
   -9.0370   17.8150  -31.9410 F   0  0  0  0  0  0  0  0  0  0  0  0
   -6.0430   19.5710  -32.1630 C   0  0  0  0  0  0  0  0  0  0  0  0
   -3.7980   21.3840  -31.4030 C   0  0  0  0  0  0  0  0  0  0  0  0
   -2.7090   22.0230  -30.8010 C   0  0  0  0  0  0  0  0  0  0  0  0
   -2.6710   23.2400  -30.2110 N   0  0  0  0  0  0  0  0  0  0  0  0
   -3.7660   24.1650  -30.1020 C   0  0  0  0  0  0  0  0  0  0  0  0
   -3.7210   25.2750  -30.6950 O   0  0  0  0  0  0  0  0  0  0  0  0
   -4.8940   23.8330  -29.3630 O   0  0  0  0  0  0  0  0  0  0  0  0
   -2.6530   25.7590  -29.1190 H   0  0  0  0  0  0  0  0  0  0  0  0
    0.4803   22.1910  -30.0179 H   0  0  0  0  0  0  0  0  0  0  0  0
   -0.2178   19.7557  -31.3403 H   0  0  0  0  0  0  0  0  0  0  0  0
   -2.1408   18.5362  -32.4039 H   0  0  0  0  0  0  0  0  0  0  0  0
   -3.4744   18.3765  -34.0868 H   0  0  0  0  0  0  0  0  0  0  0  0
   -5.3702   17.1519  -35.1404 H   0  0  0  0  0  0  0  0  0  0  0  0
   -7.6929   17.4653  -34.2964 H   0  0  0  0  0  0  0  0  0  0  0  0
   -6.2311   20.2393  -31.3098 H   0  0  0  0  0  0  0  0  0  0  0  0
   -4.7894   21.8602  -31.4223 H   0  0  0  0  0  0  0  0  0  0  0  0
  1  2  1  0
  2  3  2  0
  2  4  1  0
  4  5  2  0
  5  6  1  0
  6  7  2  0
  7  8  1  0
  8  9  2  0
  9 10  1  0
 10 11  2  0
 11 12  1  0
 12 13  2  0
 13 14  1  0
 14 15  1  0
 15 16  1  0
 15 17  1  0
 15 18  1  0
 14 19  2  0
  9 20  1  0
 20 21  2  0
 21 22  1  0
 22 23  1  0
 23 24  2  0
 23 25  1  0
 22  4  1  0
 21  6  1  0
 19 10  1  0
  1 26  1  0
  5 27  1  0
  7 28  1  0
  8 29  1  0
 11 30  1  0
 12 31  1  0
 13 32  1  0
 19 33  1  0
 20 34  1  0
M  CHG  2   1  -1  25  -1
M  END
>  <UniqueID>  (79) 
79

>  <SMILES>  (79) 
[NH-]C(=O)c1cc2ccc(-c3cccc(C(F)(F)F)c3)cc2n1C(=O)[O-]

>  <Energy>  (79) 
82.56989093605365

>  <Genealogy>  (79) 
[NH-]C(=O)c1cc2ccc(-c3cccc(C(F)(F)F)c3)cc2n1C(=O)[O-] (protonated)
[NH-]C(=O)c1cc2ccc(-c3cccc(C(F)(F)F)c3)cc2n1C(=O)[O-] (3D coordinates assigned)
[NH-]C(=O)c1cc2ccc(-c3cccc(C(F)(F)F)c3)cc2n1C(=O)[O-] (optimized conformer: 82.56989093605365 kcal/mol)

>  <smiles>  (79) 
NC(=O)c1cc2ccc(-c3cccc(C(F)(F)F)c3)cc2n1C(=O)O

>  <score_type>  (79) 
oracle

>  <origin>  (79) 
adg

>  <m_score__min__energy>  (79) 
-11.84

>  <m_primary>  (79) 
energy

$$$$
80:0
     RDKit          3D

 50 52  0  0  0  0  0  0  0  0999 V2000
   -7.9650   22.8450  -31.6460 C   0  0  0  0  0  0  0  0  0  0  0  0
   -7.6280   21.6030  -30.8260 C   0  0  0  0  0  0  0  0  0  0  0  0
   -7.2050   20.4990  -31.7190 N   0  0  0  0  0  0  0  0  0  0  0  0
   -8.3740   19.7610  -32.2500 C   0  0  0  0  0  0  0  0  0  0  0  0
   -8.2890   18.2870  -31.8640 C   0  0  0  0  0  0  0  0  0  0  0  0
   -6.3580   21.0060  -32.8210 C   0  0  0  0  0  0  0  0  0  0  0  0
   -5.5990   19.8630  -33.4620 C   0  0  0  0  0  0  0  0  0  0  0  0
   -6.2760   19.0700  -34.4060 C   0  0  0  0  0  0  0  0  0  0  0  0
   -5.6130   18.0450  -35.0810 C   0  0  0  0  0  0  0  0  0  0  0  0
   -4.2640   17.7970  -34.8290 C   0  0  0  0  0  0  0  0  0  0  0  0
   -3.5770   18.5690  -33.8910 C   0  0  0  0  0  0  0  0  0  0  0  0
   -4.2310   19.5960  -33.1910 C   0  0  0  0  0  0  0  0  0  0  0  0
   -3.4620   20.3550  -32.1840 C   0  0  0  0  0  0  0  0  0  0  0  0
   -2.2720   19.8120  -31.6430 C   0  0  0  0  0  0  0  0  0  0  0  0
   -1.5440   20.5140  -30.6660 C   0  0  0  0  0  0  0  0  0  0  0  0
   -2.0300   21.7520  -30.2560 C   0  0  0  0  0  0  0  0  0  0  0  0
   -1.5420   22.6280  -29.3130 C   0  0  0  0  0  0  0  0  0  0  0  0
   -2.4380   23.6960  -29.3010 C   0  0  0  0  0  0  0  0  0  0  0  0
   -2.2620   24.9020  -28.4660 C   0  0  0  0  0  0  0  0  0  0  0  0
   -1.5080   26.0060  -28.9630 N   0  0  0  0  0  0  0  0  0  0  0  0
   -2.7920   24.9820  -27.3260 O   0  0  0  0  0  0  0  0  0  0  0  0
   -3.4390   23.4870  -30.2020 N   0  0  0  0  0  0  0  0  0  0  0  0
   -4.5760   24.3260  -30.4670 C   0  0  0  0  0  0  0  0  0  0  0  0
   -5.0350   25.2510  -29.4820 N   0  0  0  0  0  0  0  0  0  0  0  0
   -5.1690   24.2520  -31.5760 O   0  0  0  0  0  0  0  0  0  0  0  0
   -3.1780   22.2940  -30.7760 C   0  0  0  0  0  0  0  0  0  0  0  0
   -3.9350   21.6060  -31.7290 C   0  0  0  0  0  0  0  0  0  0  0  0
   -8.1919   23.6813  -30.9684 H   0  0  0  0  0  0  0  0  0  0  0  0
   -7.1062   23.1097  -32.2804 H   0  0  0  0  0  0  0  0  0  0  0  0
   -8.8398   22.6393  -32.2804 H   0  0  0  0  0  0  0  0  0  0  0  0
   -6.8111   21.8391  -30.1282 H   0  0  0  0  0  0  0  0  0  0  0  0
   -8.5215   21.2893  -30.2663 H   0  0  0  0  0  0  0  0  0  0  0  0
   -9.2958   20.1928  -31.8331 H   0  0  0  0  0  0  0  0  0  0  0  0
   -8.3818   19.8440  -33.3468 H   0  0  0  0  0  0  0  0  0  0  0  0
   -8.2837   18.1947  -30.7679 H   0  0  0  0  0  0  0  0  0  0  0  0
   -9.1577   17.7502  -32.2729 H   0  0  0  0  0  0  0  0  0  0  0  0
   -7.3644   17.8536  -32.2729 H   0  0  0  0  0  0  0  0  0  0  0  0
   -6.9948   21.4890  -33.5767 H   0  0  0  0  0  0  0  0  0  0  0  0
   -5.6390   21.7339  -32.4169 H   0  0  0  0  0  0  0  0  0  0  0  0
   -7.3393   19.2601  -34.6141 H   0  0  0  0  0  0  0  0  0  0  0  0
   -6.1559   17.4305  -35.8143 H   0  0  0  0  0  0  0  0  0  0  0  0
   -3.7418   16.9935  -35.3691 H   0  0  0  0  0  0  0  0  0  0  0  0
   -2.5123   18.3710  -33.6980 H   0  0  0  0  0  0  0  0  0  0  0  0
   -1.9134   18.8317  -31.9901 H   0  0  0  0  0  0  0  0  0  0  0  0
   -0.6195   20.0978  -30.2392 H   0  0  0  0  0  0  0  0  0  0  0  0
   -0.6369   22.5103  -28.6990 H   0  0  0  0  0  0  0  0  0  0  0  0
   -1.2220   26.0530  -29.9660 H   0  0  0  0  0  0  0  0  0  0  0  0
   -4.5980   25.2770  -28.5330 H   0  0  0  0  0  0  0  0  0  0  0  0
   -5.8390   25.8840  -29.6870 H   0  0  0  0  0  0  0  0  0  0  0  0
   -4.8748   22.0279  -32.1146 H   0  0  0  0  0  0  0  0  0  0  0  0
  1  2  1  0
  2  3  1  0
  3  4  1  0
  4  5  1  0
  3  6  1  0
  6  7  1  0
  7  8  2  0
  8  9  1  0
  9 10  2  0
 10 11  1  0
 11 12  2  0
 12 13  1  0
 13 14  2  0
 14 15  1  0
 15 16  2  0
 16 17  1  0
 17 18  2  0
 18 19  1  0
 19 20  1  0
 19 21  2  0
 18 22  1  0
 22 23  1  0
 23 24  1  0
 23 25  2  0
 22 26  1  0
 26 27  2  0
 12  7  1  0
 27 13  1  0
 26 16  1  0
  1 28  1  0
  1 29  1  0
  1 30  1  0
  2 31  1  0
  2 32  1  0
  4 33  1  0
  4 34  1  0
  5 35  1  0
  5 36  1  0
  5 37  1  0
  6 38  1  0
  6 39  1  0
  8 40  1  0
  9 41  1  0
 10 42  1  0
 11 43  1  0
 14 44  1  0
 15 45  1  0
 17 46  1  0
 20 47  1  0
 24 48  1  0
 24 49  1  0
 27 50  1  0
M  CHG  1  20  -1
M  END
>  <UniqueID>  (80) 
80

>  <SMILES>  (80) 
CCN(CC)Cc1ccccc1-c1ccc2cc(C([NH-])=O)n(C(N)=O)c2c1

>  <Energy>  (80) 
95.62647325347392

>  <Genealogy>  (80) 
CCN(CC)Cc1ccccc1-c1ccc2cc(C([NH-])=O)n(C(N)=O)c2c1 (protonated)
CCN(CC)Cc1ccccc1-c1ccc2cc(C([NH-])=O)n(C(N)=O)c2c1 (3D coordinates assigned)
CCN(CC)Cc1ccccc1-c1ccc2cc(C([NH-])=O)n(C(N)=O)c2c1 (optimized conformer: 95.62647325347392 kcal/mol)

>  <smiles>  (80) 
CCN(CC)Cc1ccccc1-c1ccc2cc(C(N)=O)n(C(N)=O)c2c1

>  <score_type>  (80) 
oracle

>  <origin>  (80) 
adg

>  <m_score__min__energy>  (80) 
-11.699999999999999

>  <m_primary>  (80) 
energy

$$$$
81:0
     RDKit          3D

 37 39  0  0  0  0  0  0  0  0999 V2000
   -6.8770   17.2510  -33.7490 N   0  0  0  0  0  0  0  0  0  0  0  0
   -5.9630   18.2070  -34.2900 C   0  0  0  0  0  0  0  0  0  0  0  0
   -5.7100   18.1890  -35.5230 O   0  0  0  0  0  0  0  0  0  0  0  0
   -5.3640   19.2560  -33.4410 C   0  0  0  0  0  0  0  0  0  0  0  0
   -4.0350   19.6560  -33.5450 C   0  0  0  0  0  0  0  0  0  0  0  0
   -3.8940   20.6840  -32.6430 C   0  0  0  0  0  0  0  0  0  0  0  0
   -2.7730   21.4410  -32.3220 C   0  0  0  0  0  0  0  0  0  0  0  0
   -2.9000   22.4170  -31.3210 C   0  0  0  0  0  0  0  0  0  0  0  0
   -4.1380   22.6150  -30.6520 C   0  0  0  0  0  0  0  0  0  0  0  0
   -4.2720   23.6570  -29.5580 C   0  0  1  0  0  0  0  0  0  0  0  0
   -3.8010   23.0990  -28.2000 C   0  0  0  0  0  0  0  0  0  0  0  0
   -2.5670   22.1970  -28.3650 C   0  0  0  0  0  0  0  0  0  0  0  0
   -2.7340   20.7760  -27.8500 C   0  0  0  0  0  0  0  0  0  0  0  0
   -1.8850   21.7710  -27.0730 C   0  0  0  0  0  0  0  0  0  0  0  0
   -3.5440   24.9170  -29.9500 C   0  0  0  0  0  0  0  0  0  0  0  0
   -4.0000   25.6750  -30.8470 O   0  0  0  0  0  0  0  0  0  0  0  0
   -2.3810   25.2750  -29.2820 O   0  0  0  0  0  0  0  0  0  0  0  0
   -5.2550   21.8210  -31.0080 C   0  0  0  0  0  0  0  0  0  0  0  0
   -5.1040   20.8690  -32.0240 C   0  0  0  0  0  0  0  0  0  0  0  0
   -6.0180   19.9960  -32.5030 N   0  0  0  0  0  0  0  0  0  0  0  0
   -7.3620   19.8020  -32.0250 C   0  0  0  0  0  0  0  0  0  0  0  0
   -8.1920   20.7480  -32.0520 O   0  0  0  0  0  0  0  0  0  0  0  0
   -7.7560   18.5690  -31.5210 O   0  0  0  0  0  0  0  0  0  0  0  0
   -7.2630   16.4940  -34.3550 H   0  0  0  0  0  0  0  0  0  0  0  0
   -7.2340   17.3390  -32.7720 H   0  0  0  0  0  0  0  0  0  0  0  0
   -3.2623   19.2387  -34.2075 H   0  0  0  0  0  0  0  0  0  0  0  0
   -1.8146   21.2799  -32.8373 H   0  0  0  0  0  0  0  0  0  0  0  0
   -2.0313   23.0356  -31.0514 H   0  0  0  0  0  0  0  0  0  0  0  0
   -5.3344   23.9148  -29.4361 H   0  0  0  0  0  0  0  0  0  0  0  0
   -3.5452   23.9385  -27.5368 H   0  0  0  0  0  0  0  0  0  0  0  0
   -4.6157   22.4979  -27.7700 H   0  0  0  0  0  0  0  0  0  0  0  0
   -2.2292   22.6536  -29.3070 H   0  0  0  0  0  0  0  0  0  0  0  0
   -3.7034   20.4475  -27.4469 H   0  0  0  0  0  0  0  0  0  0  0  0
   -2.5680   19.7725  -28.2689 H   0  0  0  0  0  0  0  0  0  0  0  0
   -2.2406   22.1622  -26.1084 H   0  0  0  0  0  0  0  0  0  0  0  0
   -0.8512   21.7853  -26.6976 H   0  0  0  0  0  0  0  0  0  0  0  0
   -6.2208   21.9492  -30.4974 H   0  0  0  0  0  0  0  0  0  0  0  0
  1  2  1  0
  2  3  2  0
  2  4  1  0
  4  5  2  0
  5  6  1  0
  6  7  2  0
  7  8  1  0
  8  9  2  0
  9 10  1  0
 10 11  1  0
 11 12  1  0
 12 13  1  0
 13 14  1  0
 10 15  1  0
 15 16  2  0
 15 17  1  0
  9 18  1  0
 18 19  2  0
 19 20  1  0
 20 21  1  0
 21 22  2  0
 21 23  1  0
 20  4  1  0
 19  6  1  0
 14 12  1  0
  1 24  1  0
  1 25  1  0
  5 26  1  0
  7 27  1  0
  8 28  1  0
 10 29  1  1
 11 30  1  0
 11 31  1  0
 12 32  1  0
 13 33  1  0
 13 34  1  0
 14 35  1  0
 14 36  1  0
 18 37  1  0
M  CHG  2  17  -1  23  -1
M  END
>  <UniqueID>  (81) 
81

>  <SMILES>  (81) 
NC(=O)c1cc2ccc([C@@H](CC3CC3)C(=O)[O-])cc2n1C(=O)[O-]

>  <Energy>  (81) 
340.5790188555014

>  <Genealogy>  (81) 
NC(=O)c1cc2ccc(C(CC3CC3)C(=O)[O-])cc2n1C(=O)[O-] (protonated)
NC(=O)c1cc2ccc([C@@H](CC3CC3)C(=O)[O-])cc2n1C(=O)[O-] (chirality)
NC(=O)c1cc2ccc([C@@H](CC3CC3)C(=O)[O-])cc2n1C(=O)[O-] (3D coordinates assigned)
NC(=O)c1cc2ccc([C@@H](CC3CC3)C(=O)[O-])cc2n1C(=O)[O-] (nonaromatic ring conformer: 340.5790188555014 kcal/mol)

>  <smiles>  (81) 
NC(=O)c1cc2ccc(C(CC3CC3)C(=O)O)cc2n1C(=O)O

>  <score_type>  (81) 
oracle

>  <origin>  (81) 
adg

>  <m_score__min__energy>  (81) 
-10.710000000000001

>  <m_primary>  (81) 
energy

$$$$
82:0
     RDKit          3D

 33 35  0  0  0  0  0  0  0  0999 V2000
   -3.5050   24.6050  -30.4730 N   0  0  0  0  0  0  0  0  0  0  0  0
   -4.0250   23.4490  -31.1240 C   0  0  0  0  0  0  0  0  0  0  0  0
   -3.2350   22.6510  -31.6960 O   0  0  0  0  0  0  0  0  0  0  0  0
   -5.4410   23.1960  -31.1390 N   0  0  0  0  0  0  0  0  0  0  0  0
   -6.4360   24.0440  -30.7510 C   0  0  0  0  0  0  0  0  0  0  0  0
   -6.2500   25.3500  -30.0890 C   0  0  0  0  0  0  0  0  0  0  0  0
   -5.3640   26.3340  -30.6260 N   0  0  0  0  0  0  0  0  0  0  0  0
   -6.8420   25.5820  -29.0010 O   0  0  0  0  0  0  0  0  0  0  0  0
   -7.6840   23.4960  -31.0270 C   0  0  0  0  0  0  0  0  0  0  0  0
   -7.4260   22.2680  -31.5900 C   0  0  0  0  0  0  0  0  0  0  0  0
   -8.3060   21.3050  -32.0730 C   0  0  0  0  0  0  0  0  0  0  0  0
   -7.7620   20.1430  -32.6460 C   0  0  0  0  0  0  0  0  0  0  0  0
   -6.3560   19.9680  -32.7400 C   0  0  0  0  0  0  0  0  0  0  0  0
   -5.7920   18.7440  -33.3620 C   0  0  0  0  0  0  0  0  0  0  0  0
   -6.5350   17.5470  -33.3870 C   0  0  0  0  0  0  0  0  0  0  0  0
   -6.0030   16.3950  -33.9730 C   0  0  0  0  0  0  0  0  0  0  0  0
   -4.7270   16.4220  -34.5400 C   0  0  0  0  0  0  0  0  0  0  0  0
   -4.2120   15.3030  -35.1070 F   0  0  0  0  0  0  0  0  0  0  0  0
   -3.9790   17.6020  -34.5220 C   0  0  0  0  0  0  0  0  0  0  0  0
   -4.5070   18.7580  -33.9370 C   0  0  0  0  0  0  0  0  0  0  0  0
   -5.4950   20.9740  -32.2380 C   0  0  0  0  0  0  0  0  0  0  0  0
   -6.0650   22.1100  -31.6490 C   0  0  0  0  0  0  0  0  0  0  0  0
   -3.1570   25.4210  -31.0230 H   0  0  0  0  0  0  0  0  0  0  0  0
   -4.7290   26.1100  -31.4230 H   0  0  0  0  0  0  0  0  0  0  0  0
   -5.2780   27.2680  -30.1670 H   0  0  0  0  0  0  0  0  0  0  0  0
   -8.6682   23.9485  -30.8357 H   0  0  0  0  0  0  0  0  0  0  0  0
   -9.3946   21.4488  -32.0083 H   0  0  0  0  0  0  0  0  0  0  0  0
   -8.4336   19.3593  -33.0264 H   0  0  0  0  0  0  0  0  0  0  0  0
   -7.5407   17.5190  -32.9422 H   0  0  0  0  0  0  0  0  0  0  0  0
   -6.5906   15.4652  -33.9876 H   0  0  0  0  0  0  0  0  0  0  0  0
   -2.9738   17.6221  -34.9683 H   0  0  0  0  0  0  0  0  0  0  0  0
   -3.9139   19.6844  -33.9262 H   0  0  0  0  0  0  0  0  0  0  0  0
   -4.4026   20.8658  -32.3090 H   0  0  0  0  0  0  0  0  0  0  0  0
  1  2  1  0
  2  3  2  0
  2  4  1  0
  4  5  1  0
  5  6  1  0
  6  7  1  0
  6  8  2  0
  5  9  2  0
  9 10  1  0
 10 11  2  0
 11 12  1  0
 12 13  2  0
 13 14  1  0
 14 15  2  0
 15 16  1  0
 16 17  2  0
 17 18  1  0
 17 19  1  0
 19 20  2  0
 13 21  1  0
 21 22  2  0
 22  4  1  0
 22 10  1  0
 20 14  1  0
  1 23  1  0
  7 24  1  0
  7 25  1  0
  9 26  1  0
 11 27  1  0
 12 28  1  0
 15 29  1  0
 16 30  1  0
 19 31  1  0
 20 32  1  0
 21 33  1  0
M  CHG  1   1  -1
M  END
>  <UniqueID>  (82) 
82

>  <SMILES>  (82) 
[NH-]C(=O)n1c(C(N)=O)cc2ccc(-c3ccc(F)cc3)cc21

>  <Energy>  (82) 
80.80260091319818

>  <Genealogy>  (82) 
[NH-]C(=O)n1c(C(N)=O)cc2ccc(-c3ccc(F)cc3)cc21 (protonated)
[NH-]C(=O)n1c(C(N)=O)cc2ccc(-c3ccc(F)cc3)cc21 (3D coordinates assigned)
[NH-]C(=O)n1c(C(N)=O)cc2ccc(-c3ccc(F)cc3)cc21 (optimized conformer: 80.80260091319818 kcal/mol)

>  <smiles>  (82) 
NC(=O)c1cc2ccc(-c3ccc(F)cc3)cc2n1C(N)=O

>  <score_type>  (82) 
oracle

>  <origin>  (82) 
adg

>  <m_score__min__energy>  (82) 
-9.6699999999999999

>  <m_primary>  (82) 
energy

$$$$
83:0
     RDKit          3D

 37 40  0  0  0  0  0  0  0  0999 V2000
   -6.0000   24.9790  -29.0790 N   0  0  0  0  0  0  0  0  0  0  0  0
   -6.4180   23.7730  -29.7200 C   0  0  0  0  0  0  0  0  0  0  0  0
   -7.5530   23.2930  -29.4530 O   0  0  0  0  0  0  0  0  0  0  0  0
   -5.5200   23.0420  -30.6350 C   0  0  0  0  0  0  0  0  0  0  0  0
   -5.9010   21.8980  -31.3280 C   0  0  0  0  0  0  0  0  0  0  0  0
   -4.7750   21.4920  -32.0060 C   0  0  0  0  0  0  0  0  0  0  0  0
   -4.5880   20.4090  -32.8570 C   0  0  0  0  0  0  0  0  0  0  0  0
   -3.3250   20.2450  -33.4480 C   0  0  0  0  0  0  0  0  0  0  0  0
   -2.2780   21.1700  -33.1990 C   0  0  0  0  0  0  0  0  0  0  0  0
   -0.9550   20.9710  -33.8450 C   0  0  0  0  0  0  0  0  0  0  0  0
   -0.2370   19.7680  -33.7080 C   0  0  0  0  0  0  0  0  0  0  0  0
    1.0020   19.6290  -34.3350 C   0  0  0  0  0  0  0  0  0  0  0  0
    1.5250   20.6870  -35.0810 C   0  0  0  0  0  0  0  0  0  0  0  0
    0.7990   21.8760  -35.1870 C   0  0  0  0  0  0  0  0  0  0  0  0
   -0.4120   21.9860  -34.5750 N   0  0  0  0  0  0  0  0  0  0  0  0
    1.3180   22.9670  -35.9550 N   0  0  0  0  0  0  0  0  0  0  0  0
    2.7030   23.0150  -36.4330 C   0  0  0  0  0  0  0  0  0  0  0  0
    3.3450   21.6530  -36.4700 C   0  0  0  0  0  0  0  0  0  0  0  0
    4.4190   21.4890  -37.1040 O   0  0  0  0  0  0  0  0  0  0  0  0
    2.7800   20.5580  -35.7470 N   0  0  0  0  0  0  0  0  0  0  0  0
   -2.5080   22.2570  -32.3180 C   0  0  0  0  0  0  0  0  0  0  0  0
   -3.7710   22.3830  -31.7250 C   0  0  0  0  0  0  0  0  0  0  0  0
   -4.2150   23.3450  -30.8840 N   0  0  0  0  0  0  0  0  0  0  0  0
   -3.4960   24.5140  -30.4520 C   0  0  0  0  0  0  0  0  0  0  0  0
   -3.8610   25.6620  -30.8190 O   0  0  0  0  0  0  0  0  0  0  0  0
   -2.3910   24.3880  -29.6190 O   0  0  0  0  0  0  0  0  0  0  0  0
   -5.0120   25.3110  -29.1470 H   0  0  0  0  0  0  0  0  0  0  0  0
   -6.6610   25.5010  -28.4620 H   0  0  0  0  0  0  0  0  0  0  0  0
   -6.8916   21.4197  -31.3329 H   0  0  0  0  0  0  0  0  0  0  0  0
   -5.4051   19.7015  -33.0613 H   0  0  0  0  0  0  0  0  0  0  0  0
   -3.1446   19.3877  -34.1132 H   0  0  0  0  0  0  0  0  0  0  0  0
   -0.6502   18.9422  -33.1102 H   0  0  0  0  0  0  0  0  0  0  0  0
    1.5650   18.6886  -34.2417 H   0  0  0  0  0  0  0  0  0  0  0  0
    0.7400   23.8320  -36.0480 H   0  0  0  0  0  0  0  0  0  0  0  0
    2.7118   23.4374  -37.4486 H   0  0  0  0  0  0  0  0  0  0  0  0
    3.2783   23.6381  -35.7324 H   0  0  0  0  0  0  0  0  0  0  0  0
   -1.7119   22.9856  -32.1048 H   0  0  0  0  0  0  0  0  0  0  0  0
  1  2  1  0
  2  3  2  0
  2  4  1  0
  4  5  2  0
  5  6  1  0
  6  7  2  0
  7  8  1  0
  8  9  2  0
  9 10  1  0
 10 11  2  0
 11 12  1  0
 12 13  2  0
 13 14  1  0
 14 15  2  0
 14 16  1  0
 16 17  1  0
 17 18  1  0
 18 19  2  0
 18 20  1  0
  9 21  1  0
 21 22  2  0
 22 23  1  0
 23 24  1  0
 24 25  2  0
 24 26  1  0
 23  4  1  0
 22  6  1  0
 15 10  1  0
 20 13  1  0
  1 27  1  0
  1 28  1  0
  5 29  1  0
  7 30  1  0
  8 31  1  0
 11 32  1  0
 12 33  1  0
 16 34  1  0
 17 35  1  0
 17 36  1  0
 21 37  1  0
M  CHG  2  20  -1  26  -1
M  END
>  <UniqueID>  (83) 
83

>  <SMILES>  (83) 
NC(=O)c1cc2ccc(-c3ccc4c(n3)NCC(=O)[N-]4)cc2n1C(=O)[O-]

>  <Energy>  (83) 
86.1669553949515

>  <Genealogy>  (83) 
NC(=O)c1cc2ccc(-c3ccc4c(n3)NCC(=O)[N-]4)cc2n1C(=O)[O-] (protonated)
NC(=O)c1cc2ccc(-c3ccc4c(n3)NCC(=O)[N-]4)cc2n1C(=O)[O-] (3D coordinates assigned)
NC(=O)c1cc2ccc(-c3ccc4c(n3)NCC(=O)[N-]4)cc2n1C(=O)[O-] (nonaromatic ring conformer: 86.1669553949515 kcal/mol)

>  <smiles>  (83) 
NC(=O)c1cc2ccc(-c3ccc4c(n3)NCC(=O)N4)cc2n1C(=O)O

>  <score_type>  (83) 
oracle

>  <origin>  (83) 
adg

>  <m_score__min__energy>  (83) 
-10.17

>  <m_primary>  (83) 
energy

$$$$
84:0
     RDKit          3D

 62 64  0  0  0  0  0  0  0  0999 V2000
   -2.5340   20.4690  -28.4190 C   0  0  0  0  0  0  0  0  0  0  0  0
   -1.6750   20.8210  -29.6480 C   0  0  0  0  0  0  0  0  0  0  0  0
   -0.7050   21.9510  -29.2690 C   0  0  0  0  0  0  0  0  0  0  0  0
   -0.8580   19.6000  -30.1120 C   0  0  0  0  0  0  0  0  0  0  0  0
   -2.4970   21.3110  -30.7150 O   0  0  0  0  0  0  0  0  0  0  0  0
   -3.1500   22.5520  -30.7630 C   0  0  0  0  0  0  0  0  0  0  0  0
   -2.5440   23.6160  -30.4660 O   0  0  0  0  0  0  0  0  0  0  0  0
   -4.5350   22.6020  -31.1380 N   0  0  0  0  0  0  0  0  0  0  0  0
   -5.4200   23.6240  -30.9530 C   0  0  0  0  0  0  0  0  0  0  0  0
   -5.0990   24.9640  -30.4190 C   0  0  0  0  0  0  0  0  0  0  0  0
   -3.9170   25.6340  -30.8490 N   0  0  0  0  0  0  0  0  0  0  0  0
   -5.8380   25.5100  -29.5580 O   0  0  0  0  0  0  0  0  0  0  0  0
   -6.6810   23.2660  -31.4250 C   0  0  0  0  0  0  0  0  0  0  0  0
   -6.5380   21.9880  -31.9150 C   0  0  0  0  0  0  0  0  0  0  0  0
   -7.4700   21.1510  -32.5130 C   0  0  0  0  0  0  0  0  0  0  0  0
   -7.0470   19.8760  -32.9180 C   0  0  0  0  0  0  0  0  0  0  0  0
   -5.7100   19.4330  -32.7000 C   0  0  0  0  0  0  0  0  0  0  0  0
   -5.2980   18.0290  -33.1730 C   0  0  0  0  0  0  0  0  0  0  0  0
   -6.1040   17.5410  -34.4060 C   0  0  0  0  0  0  0  0  0  0  0  0
   -5.5740   17.0250  -32.0300 C   0  0  0  0  0  0  0  0  0  0  0  0
   -3.8210   18.0590  -33.5760 C   0  0  0  0  0  0  0  0  0  0  0  0
   -3.4990   17.6310  -34.7190 O   0  0  0  0  0  0  0  0  0  0  0  0
   -2.8030   18.6250  -32.7270 N   0  0  0  0  0  0  0  0  0  0  0  0
   -1.4090   18.7650  -33.1500 C   0  0  0  0  0  0  0  0  0  0  0  0
   -1.2660   19.8790  -34.2050 C   0  0  2  0  0  0  0  0  0  0  0  0
   -2.4740   20.0550  -34.8660 F   0  0  0  0  0  0  0  0  0  0  0  0
   -0.1700   19.6140  -35.2190 C   0  0  0  0  0  0  0  0  0  0  0  0
    0.2820   21.0010  -35.6490 C   0  0  0  0  0  0  0  0  0  0  0  0
   -0.1240   21.9600  -34.6160 N   0  0  0  0  0  0  0  0  0  0  0  0
   -0.8450   21.2070  -33.5880 C   0  0  0  0  0  0  0  0  0  0  0  0
   -4.7900   20.3350  -32.0980 C   0  0  0  0  0  0  0  0  0  0  0  0
   -5.2360   21.6100  -31.7290 C   0  0  0  0  0  0  0  0  0  0  0  0
   -1.9727   20.6990  -27.5013 H   0  0  0  0  0  0  0  0  0  0  0  0
   -3.4619   21.0594  -28.4390 H   0  0  0  0  0  0  0  0  0  0  0  0
   -2.7808   19.3972  -28.4390 H   0  0  0  0  0  0  0  0  0  0  0  0
   -0.6402   22.0265  -28.1735 H   0  0  0  0  0  0  0  0  0  0  0  0
    0.2912   21.7327  -29.6811 H   0  0  0  0  0  0  0  0  0  0  0  0
   -1.0717   22.9027  -29.6811 H   0  0  0  0  0  0  0  0  0  0  0  0
   -0.4899   19.0498  -29.2335 H   0  0  0  0  0  0  0  0  0  0  0  0
   -1.4969   18.9397  -30.7169 H   0  0  0  0  0  0  0  0  0  0  0  0
   -0.0040   19.9387  -30.7169 H   0  0  0  0  0  0  0  0  0  0  0  0
   -2.9720   25.2930  -30.5630 H   0  0  0  0  0  0  0  0  0  0  0  0
   -7.5966   23.8755  -31.4093 H   0  0  0  0  0  0  0  0  0  0  0  0
   -8.5094   21.4776  -32.6649 H   0  0  0  0  0  0  0  0  0  0  0  0
   -7.7625   19.2040  -33.4144 H   0  0  0  0  0  0  0  0  0  0  0  0
   -6.9993   16.9989  -34.0676 H   0  0  0  0  0  0  0  0  0  0  0  0
   -6.4072   18.4074  -35.0122 H   0  0  0  0  0  0  0  0  0  0  0  0
   -5.4768   16.8708  -35.0122 H   0  0  0  0  0  0  0  0  0  0  0  0
   -5.4362   17.5262  -31.0605 H   0  0  0  0  0  0  0  0  0  0  0  0
   -6.6071   16.6554  -32.1081 H   0  0  0  0  0  0  0  0  0  0  0  0
   -4.8750   16.1792  -32.1081 H   0  0  0  0  0  0  0  0  0  0  0  0
   -3.0520   19.0440  -31.8060 H   0  0  0  0  0  0  0  0  0  0  0  0
   -0.7903   19.0150  -32.2756 H   0  0  0  0  0  0  0  0  0  0  0  0
   -1.0784   17.8145  -33.5942 H   0  0  0  0  0  0  0  0  0  0  0  0
    0.6605   19.0577  -34.7598 H   0  0  0  0  0  0  0  0  0  0  0  0
   -0.5168   19.0023  -36.0649 H   0  0  0  0  0  0  0  0  0  0  0  0
    1.3761   21.0171  -35.7617 H   0  0  0  0  0  0  0  0  0  0  0  0
   -0.1765   21.2665  -36.6130 H   0  0  0  0  0  0  0  0  0  0  0  0
   -0.7890   22.6470  -35.0450 H   0  0  0  0  0  0  0  0  0  0  0  0
   -0.1887   21.0284  -32.7235 H   0  0  0  0  0  0  0  0  0  0  0  0
   -1.7243   21.7693  -33.2406 H   0  0  0  0  0  0  0  0  0  0  0  0
   -3.7456   20.0361  -31.9251 H   0  0  0  0  0  0  0  0  0  0  0  0
  1  2  1  0
  2  3  1  0
  2  4  1  0
  2  5  1  0
  5  6  1  0
  6  7  2  0
  6  8  1  0
  8  9  1  0
  9 10  1  0
 10 11  1  0
 10 12  2  0
  9 13  2  0
 13 14  1  0
 14 15  2  0
 15 16  1  0
 16 17  2  0
 17 18  1  0
 18 19  1  0
 18 20  1  0
 18 21  1  0
 21 22  2  0
 21 23  1  0
 23 24  1  0
 24 25  1  0
 25 26  1  6
 25 27  1  0
 27 28  1  0
 28 29  1  0
 29 30  1  0
 17 31  1  0
 31 32  2  0
 32  8  1  0
 32 14  1  0
 30 25  1  0
  1 33  1  0
  1 34  1  0
  1 35  1  0
  3 36  1  0
  3 37  1  0
  3 38  1  0
  4 39  1  0
  4 40  1  0
  4 41  1  0
 11 42  1  0
 13 43  1  0
 15 44  1  0
 16 45  1  0
 19 46  1  0
 19 47  1  0
 19 48  1  0
 20 49  1  0
 20 50  1  0
 20 51  1  0
 23 52  1  0
 24 53  1  0
 24 54  1  0
 27 55  1  0
 27 56  1  0
 28 57  1  0
 28 58  1  0
 29 59  1  0
 30 60  1  0
 30 61  1  0
 31 62  1  0
M  CHG  1  11  -1
M  END
>  <UniqueID>  (84) 
84

>  <SMILES>  (84) 
CC(C)(C)OC(=O)n1c(C([NH-])=O)cc2ccc(C(C)(C)C(=O)NC[C@]3(F)CCNC3)cc21

>  <Energy>  (84) 
97.8072296657188

>  <Genealogy>  (84) 
CC(C)(C)OC(=O)n1c(C([NH-])=O)cc2ccc(C(C)(C)C(=O)NC[C@]3(F)CCNC3)cc21 (protonated)
CC(C)(C)OC(=O)n1c(C([NH-])=O)cc2ccc(C(C)(C)C(=O)NC[C@]3(F)CCNC3)cc21 (3D coordinates assigned)
CC(C)(C)OC(=O)n1c(C([NH-])=O)cc2ccc(C(C)(C)C(=O)NC[C@]3(F)CCNC3)cc21 (nonaromatic ring conformer: 97.8072296657188 kcal/mol)

>  <smiles>  (84) 
CC(C)(C)OC(=O)n1c(C(N)=O)cc2ccc(C(C)(C)C(=O)NC[C@]3(F)CCNC3)cc21

>  <score_type>  (84) 
oracle

>  <origin>  (84) 
adg

>  <m_score__min__energy>  (84) 
-11.27

>  <m_primary>  (84) 
energy

$$$$
85:0
     RDKit          3D

 28 29  0  0  0  0  0  0  0  0999 V2000
   -3.5240   21.2580  -30.0840 C   0  0  0  0  0  0  0  0  0  0  0  0
   -4.0580   22.4550  -30.8040 C   0  0  0  0  0  0  0  0  0  0  0  0
   -3.2500   23.2860  -31.2980 O   0  0  0  0  0  0  0  0  0  0  0  0
   -5.4740   22.6800  -30.9230 N   0  0  0  0  0  0  0  0  0  0  0  0
   -6.1360   23.8570  -30.7430 C   0  0  0  0  0  0  0  0  0  0  0  0
   -5.5410   25.1150  -30.2460 C   0  0  0  0  0  0  0  0  0  0  0  0
   -4.2420   25.5390  -30.6630 N   0  0  0  0  0  0  0  0  0  0  0  0
   -6.1710   25.8050  -29.4010 O   0  0  0  0  0  0  0  0  0  0  0  0
   -7.4800   23.7220  -31.0790 C   0  0  0  0  0  0  0  0  0  0  0  0
   -7.6280   22.4110  -31.4680 C   0  0  0  0  0  0  0  0  0  0  0  0
   -8.7530   21.7390  -31.9370 C   0  0  0  0  0  0  0  0  0  0  0  0
   -8.6050   20.3970  -32.3250 C   0  0  0  0  0  0  0  0  0  0  0  0
   -7.3440   19.7570  -32.2390 C   0  0  0  0  0  0  0  0  0  0  0  0
   -7.1870   18.3420  -32.7100 C   0  0  0  0  0  0  0  0  0  0  0  0
   -6.2200   20.4750  -31.7770 C   0  0  0  0  0  0  0  0  0  0  0  0
   -6.4010   21.8030  -31.3720 C   0  0  0  0  0  0  0  0  0  0  0  0
   -3.5965   21.4205  -28.9985 H   0  0  0  0  0  0  0  0  0  0  0  0
   -4.1116   20.3706  -30.3620 H   0  0  0  0  0  0  0  0  0  0  0  0
   -2.4711   21.1024  -30.3620 H   0  0  0  0  0  0  0  0  0  0  0  0
   -3.8630   26.4560  -30.3410 H   0  0  0  0  0  0  0  0  0  0  0  0
   -3.6160   24.9080  -31.2090 H   0  0  0  0  0  0  0  0  0  0  0  0
   -8.2582   24.4985  -31.0414 H   0  0  0  0  0  0  0  0  0  0  0  0
   -9.7284   22.2434  -32.0019 H   0  0  0  0  0  0  0  0  0  0  0  0
   -9.4757   19.8383  -32.6988 H   0  0  0  0  0  0  0  0  0  0  0  0
   -7.1127   17.6723  -31.8406 H   0  0  0  0  0  0  0  0  0  0  0  0
   -8.0592   18.0588  -33.3175 H   0  0  0  0  0  0  0  0  0  0  0  0
   -6.2739   18.2569  -33.3175 H   0  0  0  0  0  0  0  0  0  0  0  0
   -5.2271   20.0032  -31.7362 H   0  0  0  0  0  0  0  0  0  0  0  0
  1  2  1  0
  2  3  2  0
  2  4  1  0
  4  5  1  0
  5  6  1  0
  6  7  1  0
  6  8  2  0
  5  9  2  0
  9 10  1  0
 10 11  2  0
 11 12  1  0
 12 13  2  0
 13 14  1  0
 13 15  1  0
 15 16  2  0
 16  4  1  0
 16 10  1  0
  1 17  1  0
  1 18  1  0
  1 19  1  0
  7 20  1  0
  7 21  1  0
  9 22  1  0
 11 23  1  0
 12 24  1  0
 14 25  1  0
 14 26  1  0
 14 27  1  0
 15 28  1  0
M  END
>  <UniqueID>  (85) 
85

>  <SMILES>  (85) 
CC(=O)n1c(C(N)=O)cc2ccc(C)cc21

>  <Energy>  (85) 
66.78735423011643

>  <Genealogy>  (85) 
CC(=O)n1c(C(N)=O)cc2ccc(C)cc21 (3D coordinates assigned)
CC(=O)n1c(C(N)=O)cc2ccc(C)cc21 (optimized conformer: 66.78735423011643 kcal/mol)

>  <smiles>  (85) 
CC(=O)n1c(C(N)=O)cc2ccc(C)cc21

>  <score_type>  (85) 
oracle

>  <origin>  (85) 
adg

>  <m_score__min__energy>  (85) 
-7.5099999999999998

>  <m_primary>  (85) 
energy

$$$$
86:0
     RDKit          3D

 47 48  0  0  0  0  0  0  0  0999 V2000
   -5.8210   18.5450  -34.5840 C   0  0  0  0  0  0  0  0  0  0  0  0
   -6.2920   17.2370  -33.9490 C   0  0  0  0  0  0  0  0  0  0  0  0
   -6.8730   17.4340  -32.5380 C   0  0  0  0  0  0  0  0  0  0  0  0
   -8.2120   18.1910  -32.5070 C   0  0  0  0  0  0  0  0  0  0  0  0
   -8.0390   19.6390  -32.1270 C   0  0  0  0  0  0  0  0  0  0  0  0
   -9.1050   20.5570  -32.3030 C   0  0  0  0  0  0  0  0  0  0  0  0
   -8.9400   21.9160  -31.9850 C   0  0  0  0  0  0  0  0  0  0  0  0
   -7.7040   22.3240  -31.4920 C   0  0  0  0  0  0  0  0  0  0  0  0
   -7.2670   23.5780  -31.1330 C   0  0  0  0  0  0  0  0  0  0  0  0
   -5.9450   23.4060  -30.7250 C   0  0  0  0  0  0  0  0  0  0  0  0
   -5.1050   24.4900  -30.1660 C   0  0  0  0  0  0  0  0  0  0  0  0
   -5.2770   24.9230  -28.8150 N   0  0  0  0  0  0  0  0  0  0  0  0
   -4.2070   25.0210  -30.8710 O   0  0  0  0  0  0  0  0  0  0  0  0
   -5.5800   22.0970  -30.8320 N   0  0  0  0  0  0  0  0  0  0  0  0
   -4.2920   21.5170  -30.5690 C   0  0  0  0  0  0  0  0  0  0  0  0
   -3.6520   21.8610  -29.5390 O   0  0  0  0  0  0  0  0  0  0  0  0
   -3.7570   20.5890  -31.4740 O   0  0  0  0  0  0  0  0  0  0  0  0
   -3.0270   20.8900  -32.6730 C   0  0  0  0  0  0  0  0  0  0  0  0
   -1.6630   21.5190  -32.3310 C   0  0  0  0  0  0  0  0  0  0  0  0
   -2.8440   19.6220  -33.5280 C   0  0  0  0  0  0  0  0  0  0  0  0
   -3.8600   21.9090  -33.4640 C   0  0  0  0  0  0  0  0  0  0  0  0
   -6.6670   21.4480  -31.3020 C   0  0  0  0  0  0  0  0  0  0  0  0
   -6.7990   20.0920  -31.6270 C   0  0  0  0  0  0  0  0  0  0  0  0
   -5.5620   19.2642  -33.7930 H   0  0  0  0  0  0  0  0  0  0  0  0
   -4.9360   18.3518  -35.2080 H   0  0  0  0  0  0  0  0  0  0  0  0
   -6.6260   18.9604  -35.2080 H   0  0  0  0  0  0  0  0  0  0  0  0
   -7.0687   16.7948  -34.5902 H   0  0  0  0  0  0  0  0  0  0  0  0
   -5.4152   16.5792  -33.8570 H   0  0  0  0  0  0  0  0  0  0  0  0
   -7.0267   16.4426  -32.0868 H   0  0  0  0  0  0  0  0  0  0  0  0
   -6.1498   18.0483  -31.9815 H   0  0  0  0  0  0  0  0  0  0  0  0
   -8.6713   18.1392  -33.5052 H   0  0  0  0  0  0  0  0  0  0  0  0
   -8.8505   17.7166  -31.7472 H   0  0  0  0  0  0  0  0  0  0  0  0
  -10.0707   20.2021  -32.6923 H   0  0  0  0  0  0  0  0  0  0  0  0
   -9.7617   22.6345  -32.1214 H   0  0  0  0  0  0  0  0  0  0  0  0
   -7.8391   24.5171  -31.1617 H   0  0  0  0  0  0  0  0  0  0  0  0
   -6.0460   24.5470  -28.2180 H   0  0  0  0  0  0  0  0  0  0  0  0
   -4.6530   25.6600  -28.4200 H   0  0  0  0  0  0  0  0  0  0  0  0
   -1.5474   21.5723  -31.2384 H   0  0  0  0  0  0  0  0  0  0  0  0
   -0.8577   20.9013  -32.7552 H   0  0  0  0  0  0  0  0  0  0  0  0
   -1.6099   22.5325  -32.7552 H   0  0  0  0  0  0  0  0  0  0  0  0
   -2.7182   18.7504  -32.8689 H   0  0  0  0  0  0  0  0  0  0  0  0
   -3.7305   19.4767  -34.1629 H   0  0  0  0  0  0  0  0  0  0  0  0
   -1.9526   19.7333  -34.1629 H   0  0  0  0  0  0  0  0  0  0  0  0
   -4.3970   22.5659  -32.7640 H   0  0  0  0  0  0  0  0  0  0  0  0
   -3.1945   22.5140  -34.0973 H   0  0  0  0  0  0  0  0  0  0  0  0
   -4.5852   21.3771  -34.0973 H   0  0  0  0  0  0  0  0  0  0  0  0
   -5.9567   19.3968  -31.4958 H   0  0  0  0  0  0  0  0  0  0  0  0
  1  2  1  0
  2  3  1  0
  3  4  1  0
  4  5  1  0
  5  6  2  0
  6  7  1  0
  7  8  2  0
  8  9  1  0
  9 10  2  0
 10 11  1  0
 11 12  1  0
 11 13  2  0
 10 14  1  0
 14 15  1  0
 15 16  2  0
 15 17  1  0
 17 18  1  0
 18 19  1  0
 18 20  1  0
 18 21  1  0
 14 22  1  0
 22 23  2  0
 23  5  1  0
 22  8  1  0
  1 24  1  0
  1 25  1  0
  1 26  1  0
  2 27  1  0
  2 28  1  0
  3 29  1  0
  3 30  1  0
  4 31  1  0
  4 32  1  0
  6 33  1  0
  7 34  1  0
  9 35  1  0
 12 36  1  0
 12 37  1  0
 19 38  1  0
 19 39  1  0
 19 40  1  0
 20 41  1  0
 20 42  1  0
 20 43  1  0
 21 44  1  0
 21 45  1  0
 21 46  1  0
 23 47  1  0
M  END
>  <UniqueID>  (86) 
86

>  <SMILES>  (86) 
CCCCc1ccc2cc(C(N)=O)n(C(=O)OC(C)(C)C)c2c1

>  <Energy>  (86) 
73.68286842132969

>  <Genealogy>  (86) 
CCCCc1ccc2cc(C(N)=O)n(C(=O)OC(C)(C)C)c2c1 (3D coordinates assigned)
CCCCc1ccc2cc(C(N)=O)n(C(=O)OC(C)(C)C)c2c1 (optimized conformer: 73.68286842132969 kcal/mol)

>  <smiles>  (86) 
CCCCc1ccc2cc(C(N)=O)n(C(=O)OC(C)(C)C)c2c1

>  <score_type>  (86) 
oracle

>  <origin>  (86) 
adg

>  <m_score__min__energy>  (86) 
-8.8900000000000006

>  <m_primary>  (86) 
energy

$$$$
87:0
     RDKit          3D

 36 38  0  0  0  0  0  0  0  0999 V2000
   -3.1380   23.9670  -30.5960 N   0  0  0  0  0  0  0  0  0  0  0  0
   -3.8840   23.0550  -31.4010 C   0  0  0  0  0  0  0  0  0  0  0  0
   -3.2750   22.2820  -32.1870 O   0  0  0  0  0  0  0  0  0  0  0  0
   -5.3190   23.0360  -31.3330 N   0  0  0  0  0  0  0  0  0  0  0  0
   -6.1460   24.0290  -30.8980 C   0  0  0  0  0  0  0  0  0  0  0  0
   -5.7110   25.2830  -30.2440 C   0  0  0  0  0  0  0  0  0  0  0  0
   -6.2400   25.6650  -28.9730 N   0  0  0  0  0  0  0  0  0  0  0  0
   -4.8440   26.0140  -30.7920 O   0  0  0  0  0  0  0  0  0  0  0  0
   -7.4800   23.6590  -31.0580 C   0  0  0  0  0  0  0  0  0  0  0  0
   -7.4450   22.3980  -31.6070 C   0  0  0  0  0  0  0  0  0  0  0  0
   -8.4890   21.5570  -31.9830 C   0  0  0  0  0  0  0  0  0  0  0  0
   -8.1620   20.3140  -32.5480 C   0  0  0  0  0  0  0  0  0  0  0  0
   -6.8080   19.9340  -32.7310 C   0  0  0  0  0  0  0  0  0  0  0  0
   -6.4920   18.6610  -33.3280 N   0  0  0  0  0  0  0  0  0  0  0  0
   -7.0690   17.4260  -32.7890 C   0  0  0  0  0  0  0  0  0  0  0  0
   -6.1310   16.2500  -33.0780 C   0  0  0  0  0  0  0  0  0  0  0  0
   -5.8040   16.1940  -34.4540 O   0  0  0  0  0  0  0  0  0  0  0  0
   -5.0620   17.3430  -34.8180 C   0  0  0  0  0  0  0  0  0  0  0  0
   -5.9110   18.6080  -34.6740 C   0  0  0  0  0  0  0  0  0  0  0  0
   -5.7760   20.8190  -32.3400 C   0  0  0  0  0  0  0  0  0  0  0  0
   -6.1310   22.0430  -31.7630 C   0  0  0  0  0  0  0  0  0  0  0  0
   -3.0760   24.9770  -30.8470 H   0  0  0  0  0  0  0  0  0  0  0  0
   -5.8980   26.5330  -28.5030 H   0  0  0  0  0  0  0  0  0  0  0  0
   -6.9990   25.1150  -28.5130 H   0  0  0  0  0  0  0  0  0  0  0  0
   -8.3714   24.2496  -30.8002 H   0  0  0  0  0  0  0  0  0  0  0  0
   -9.5378   21.8572  -31.8417 H   0  0  0  0  0  0  0  0  0  0  0  0
   -8.9653   19.6269  -32.8522 H   0  0  0  0  0  0  0  0  0  0  0  0
   -7.2027   17.5287  -31.7020 H   0  0  0  0  0  0  0  0  0  0  0  0
   -8.0434   17.2408  -33.2647 H   0  0  0  0  0  0  0  0  0  0  0  0
   -5.2078   16.3729  -32.4927 H   0  0  0  0  0  0  0  0  0  0  0  0
   -6.6403   15.3159  -32.7984 H   0  0  0  0  0  0  0  0  0  0  0  0
   -4.1804   17.4244  -34.1652 H   0  0  0  0  0  0  0  0  0  0  0  0
   -4.7531   17.2441  -35.8691 H   0  0  0  0  0  0  0  0  0  0  0  0
   -5.2785   19.4935  -34.8347 H   0  0  0  0  0  0  0  0  0  0  0  0
   -6.7192   18.5921  -35.4200 H   0  0  0  0  0  0  0  0  0  0  0  0
   -4.7192   20.5510  -32.4862 H   0  0  0  0  0  0  0  0  0  0  0  0
  1  2  1  0
  2  3  2  0
  2  4  1  0
  4  5  1  0
  5  6  1  0
  6  7  1  0
  6  8  2  0
  5  9  2  0
  9 10  1  0
 10 11  2  0
 11 12  1  0
 12 13  2  0
 13 14  1  0
 14 15  1  0
 15 16  1  0
 16 17  1  0
 17 18  1  0
 18 19  1  0
 13 20  1  0
 20 21  2  0
 21  4  1  0
 21 10  1  0
 19 14  1  0
  1 22  1  0
  7 23  1  0
  7 24  1  0
  9 25  1  0
 11 26  1  0
 12 27  1  0
 15 28  1  0
 15 29  1  0
 16 30  1  0
 16 31  1  0
 18 32  1  0
 18 33  1  0
 19 34  1  0
 19 35  1  0
 20 36  1  0
M  CHG  1   1  -1
M  END
>  <UniqueID>  (87) 
87

>  <SMILES>  (87) 
[NH-]C(=O)n1c(C(N)=O)cc2ccc(N3CCOCC3)cc21

>  <Energy>  (87) 
81.45440931832532

>  <Genealogy>  (87) 
[NH-]C(=O)n1c(C(N)=O)cc2ccc(N3CCOCC3)cc21 (protonated)
[NH-]C(=O)n1c(C(N)=O)cc2ccc(N3CCOCC3)cc21 (3D coordinates assigned)
[NH-]C(=O)n1c(C(N)=O)cc2ccc(N3CCOCC3)cc21 (nonaromatic ring conformer: 81.45440931832532 kcal/mol)

>  <smiles>  (87) 
NC(=O)c1cc2ccc(N3CCOCC3)cc2n1C(N)=O

>  <score_type>  (87) 
oracle

>  <origin>  (87) 
adg

>  <m_score__min__energy>  (87) 
-9.1400000000000006

>  <m_primary>  (87) 
energy

$$$$
88:0
     RDKit          3D

 66 69  0  0  0  0  0  0  0  0999 V2000
   -3.8680   21.7720  -33.4400 C   0  0  0  0  0  0  0  0  0  0  0  0
   -2.9910   20.7070  -32.7630 C   0  0  0  0  0  0  0  0  0  0  0  0
   -3.7920   20.0540  -31.6210 C   0  0  0  0  0  0  0  0  0  0  0  0
   -2.5830   19.6580  -33.8140 C   0  0  0  0  0  0  0  0  0  0  0  0
   -1.8320   21.3800  -32.2520 O   0  0  0  0  0  0  0  0  0  0  0  0
   -1.0490   20.9750  -31.1610 C   0  0  0  0  0  0  0  0  0  0  0  0
    0.0800   20.4410  -31.3370 O   0  0  0  0  0  0  0  0  0  0  0  0
   -1.5370   21.1810  -29.8250 N   0  0  0  0  0  0  0  0  0  0  0  0
   -1.1080   20.5760  -28.6820 C   0  0  0  0  0  0  0  0  0  0  0  0
   -0.1870   19.4260  -28.6070 C   0  0  0  0  0  0  0  0  0  0  0  0
    1.1410   19.5030  -29.1290 N   0  0  0  0  0  0  0  0  0  0  0  0
   -0.5930   18.3380  -28.1170 O   0  0  0  0  0  0  0  0  0  0  0  0
   -1.6960   21.1640  -27.5640 C   0  0  0  0  0  0  0  0  0  0  0  0
   -2.5140   22.1510  -28.0620 C   0  0  0  0  0  0  0  0  0  0  0  0
   -3.3200   23.0670  -27.3910 C   0  0  0  0  0  0  0  0  0  0  0  0
   -4.0240   24.0110  -28.1580 C   0  0  0  0  0  0  0  0  0  0  0  0
   -3.9010   24.0350  -29.5700 C   0  0  0  0  0  0  0  0  0  0  0  0
   -4.6880   25.0420  -30.3730 C   0  0  0  0  0  0  0  0  0  0  0  0
   -6.1740   24.7950  -30.3010 C   0  0  0  0  0  0  0  0  0  0  0  0
   -6.8930   25.6710  -29.7460 O   0  0  0  0  0  0  0  0  0  0  0  0
   -6.8110   23.5590  -30.8360 C   0  0  0  0  0  0  0  0  0  0  0  0
   -7.6170   22.7340  -30.0270 C   0  0  0  0  0  0  0  0  0  0  0  0
   -8.2100   21.5820  -30.5530 C   0  0  0  0  0  0  0  0  0  0  0  0
   -8.0110   21.2310  -31.8950 C   0  0  0  0  0  0  0  0  0  0  0  0
   -8.5950   19.9530  -32.4410 C   0  0  0  0  0  0  0  0  0  0  0  0
   -7.9640   18.7130  -31.7910 C   0  0  0  0  0  0  0  0  0  0  0  0
   -6.8210   18.1690  -32.6100 C   0  0  0  0  0  0  0  0  0  0  0  0
   -6.1260   17.0260  -32.1830 C   0  0  0  0  0  0  0  0  0  0  0  0
   -5.1010   16.4910  -32.9700 C   0  0  0  0  0  0  0  0  0  0  0  0
   -4.7690   17.0890  -34.1890 C   0  0  0  0  0  0  0  0  0  0  0  0
   -5.4600   18.2220  -34.6240 C   0  0  0  0  0  0  0  0  0  0  0  0
   -6.4860   18.7600  -33.8400 C   0  0  0  0  0  0  0  0  0  0  0  0
   -7.2000   22.0410  -32.7030 C   0  0  0  0  0  0  0  0  0  0  0  0
   -6.6110   23.1950  -32.1810 C   0  0  0  0  0  0  0  0  0  0  0  0
   -3.0870   23.0750  -30.2160 C   0  0  0  0  0  0  0  0  0  0  0  0
   -2.4030   22.1410  -29.4290 C   0  0  0  0  0  0  0  0  0  0  0  0
   -4.3677   22.3788  -32.6705 H   0  0  0  0  0  0  0  0  0  0  0  0
   -3.2387   22.4207  -34.0670 H   0  0  0  0  0  0  0  0  0  0  0  0
   -4.6254   21.2788  -34.0670 H   0  0  0  0  0  0  0  0  0  0  0  0
   -3.3867   20.3844  -30.6533 H   0  0  0  0  0  0  0  0  0  0  0  0
   -4.8482   20.3517  -31.6971 H   0  0  0  0  0  0  0  0  0  0  0  0
   -3.7132   18.9595  -31.6971 H   0  0  0  0  0  0  0  0  0  0  0  0
   -2.2293   18.7486  -33.3062 H   0  0  0  0  0  0  0  0  0  0  0  0
   -3.4512   19.4125  -34.4432 H   0  0  0  0  0  0  0  0  0  0  0  0
   -1.7771   20.0636  -34.4432 H   0  0  0  0  0  0  0  0  0  0  0  0
    1.7910   18.6920  -29.0330 H   0  0  0  0  0  0  0  0  0  0  0  0
    1.4530   20.3270  -29.6880 H   0  0  0  0  0  0  0  0  0  0  0  0
   -1.5394   20.8960  -26.5087 H   0  0  0  0  0  0  0  0  0  0  0  0
   -3.4031   23.0522  -26.2942 H   0  0  0  0  0  0  0  0  0  0  0  0
   -4.6781   24.7397  -27.6568 H   0  0  0  0  0  0  0  0  0  0  0  0
   -4.4773   26.0485  -29.9825 H   0  0  0  0  0  0  0  0  0  0  0  0
   -4.3814   24.9474  -31.4252 H   0  0  0  0  0  0  0  0  0  0  0  0
   -7.7813   22.9984  -28.9720 H   0  0  0  0  0  0  0  0  0  0  0  0
   -8.8367   20.9473  -29.9093 H   0  0  0  0  0  0  0  0  0  0  0  0
   -9.6776   19.9448  -32.2464 H   0  0  0  0  0  0  0  0  0  0  0  0
   -8.3865   19.9161  -33.5204 H   0  0  0  0  0  0  0  0  0  0  0  0
   -7.5885   18.9864  -30.7939 H   0  0  0  0  0  0  0  0  0  0  0  0
   -8.7367   17.9330  -31.7237 H   0  0  0  0  0  0  0  0  0  0  0  0
   -6.3885   16.5500  -31.2267 H   0  0  0  0  0  0  0  0  0  0  0  0
   -4.5555   15.5986  -32.6293 H   0  0  0  0  0  0  0  0  0  0  0  0
   -3.9625   16.6667  -34.8064 H   0  0  0  0  0  0  0  0  0  0  0  0
   -5.1974   18.6915  -35.5835 H   0  0  0  0  0  0  0  0  0  0  0  0
   -7.0326   19.6490  -34.1877 H   0  0  0  0  0  0  0  0  0  0  0  0
   -7.0267   21.7660  -33.7539 H   0  0  0  0  0  0  0  0  0  0  0  0
   -5.9841   23.8262  -32.8280 H   0  0  0  0  0  0  0  0  0  0  0  0
   -2.9937   23.0628  -31.3120 H   0  0  0  0  0  0  0  0  0  0  0  0
  1  2  1  0
  2  3  1  0
  2  4  1  0
  2  5  1  0
  5  6  1  0
  6  7  2  0
  6  8  1  0
  8  9  1  0
  9 10  1  0
 10 11  1  0
 10 12  2  0
  9 13  2  0
 13 14  1  0
 14 15  2  0
 15 16  1  0
 16 17  2  0
 17 18  1  0
 18 19  1  0
 19 20  2  0
 19 21  1  0
 21 22  2  0
 22 23  1  0
 23 24  2  0
 24 25  1  0
 25 26  1  0
 26 27  1  0
 27 28  2  0
 28 29  1  0
 29 30  2  0
 30 31  1  0
 31 32  2  0
 24 33  1  0
 33 34  2  0
 17 35  1  0
 35 36  2  0
 36  8  1  0
 36 14  1  0
 34 21  1  0
 32 27  1  0
  1 37  1  0
  1 38  1  0
  1 39  1  0
  3 40  1  0
  3 41  1  0
  3 42  1  0
  4 43  1  0
  4 44  1  0
  4 45  1  0
 11 46  1  0
 11 47  1  0
 13 48  1  0
 15 49  1  0
 16 50  1  0
 18 51  1  0
 18 52  1  0
 22 53  1  0
 23 54  1  0
 25 55  1  0
 25 56  1  0
 26 57  1  0
 26 58  1  0
 28 59  1  0
 29 60  1  0
 30 61  1  0
 31 62  1  0
 32 63  1  0
 33 64  1  0
 34 65  1  0
 35 66  1  0
M  END
>  <UniqueID>  (88) 
88

>  <SMILES>  (88) 
CC(C)(C)OC(=O)n1c(C(N)=O)cc2ccc(CC(=O)c3ccc(CCc4ccccc4)cc3)cc21

>  <Energy>  (88) 
100.96740646251936

>  <Genealogy>  (88) 
CC(C)(C)OC(=O)n1c(C(N)=O)cc2ccc(CC(=O)c3ccc(CCc4ccccc4)cc3)cc21 (3D coordinates assigned)
CC(C)(C)OC(=O)n1c(C(N)=O)cc2ccc(CC(=O)c3ccc(CCc4ccccc4)cc3)cc21 (optimized conformer: 100.96740646251936 kcal/mol)

>  <smiles>  (88) 
CC(C)(C)OC(=O)n1c(C(N)=O)cc2ccc(CC(=O)c3ccc(CCc4ccccc4)cc3)cc21

>  <score_type>  (88) 
oracle

>  <origin>  (88) 
adg

>  <m_score__min__energy>  (88) 
-10.85

>  <m_primary>  (88) 
energy

$$$$
89:0
     RDKit          3D

 39 41  0  0  0  0  0  0  0  0999 V2000
   -3.0680   20.9140  -33.1410 C   0  0  0  0  0  0  0  0  0  0  0  0
   -3.4260   22.2590  -32.8490 O   0  0  0  0  0  0  0  0  0  0  0  0
   -3.8990   22.6580  -31.5960 C   0  0  0  0  0  0  0  0  0  0  0  0
   -3.1210   22.6930  -30.6030 O   0  0  0  0  0  0  0  0  0  0  0  0
   -5.2830   23.0080  -31.4360 N   0  0  0  0  0  0  0  0  0  0  0  0
   -5.8040   24.1580  -30.9200 C   0  0  0  0  0  0  0  0  0  0  0  0
   -5.0370   25.3610  -30.5330 C   0  0  0  0  0  0  0  0  0  0  0  0
   -3.6150   25.2990  -30.4490 N   0  0  0  0  0  0  0  0  0  0  0  0
   -5.6250   26.4360  -30.2400 O   0  0  0  0  0  0  0  0  0  0  0  0
   -7.1940   24.0900  -30.8780 C   0  0  0  0  0  0  0  0  0  0  0  0
   -7.5140   22.8540  -31.3950 C   0  0  0  0  0  0  0  0  0  0  0  0
   -8.7550   22.2600  -31.5870 C   0  0  0  0  0  0  0  0  0  0  0  0
   -8.7910   20.9630  -32.1240 C   0  0  0  0  0  0  0  0  0  0  0  0
   -7.5890   20.2710  -32.4420 C   0  0  0  0  0  0  0  0  0  0  0  0
   -7.5900   18.8780  -33.0610 C   0  0  0  0  0  0  0  0  0  0  0  0
   -7.7190   17.7950  -31.9740 C   0  0  0  0  0  0  0  0  0  0  0  0
   -6.3800   17.5300  -31.2450 C   0  0  0  0  0  0  0  0  0  0  0  0
   -5.2310   17.9720  -31.9500 O   0  0  0  0  0  0  0  0  0  0  0  0
   -5.3400   17.6790  -33.3270 C   0  0  0  0  0  0  0  0  0  0  0  0
   -6.3840   18.5910  -33.9930 C   0  0  0  0  0  0  0  0  0  0  0  0
   -6.3480   20.9220  -32.2410 C   0  0  0  0  0  0  0  0  0  0  0  0
   -6.3450   22.2220  -31.7230 C   0  0  0  0  0  0  0  0  0  0  0  0
   -2.9209   20.3614  -32.2013 H   0  0  0  0  0  0  0  0  0  0  0  0
   -3.8710   20.4391  -33.7238 H   0  0  0  0  0  0  0  0  0  0  0  0
   -2.1352   20.9011  -33.7238 H   0  0  0  0  0  0  0  0  0  0  0  0
   -3.0560   24.7970  -31.1740 H   0  0  0  0  0  0  0  0  0  0  0  0
   -7.8887   24.8595  -30.5103 H   0  0  0  0  0  0  0  0  0  0  0  0
   -9.6827   22.7903  -31.3259 H   0  0  0  0  0  0  0  0  0  0  0  0
   -9.7611   20.4756  -32.3011 H   0  0  0  0  0  0  0  0  0  0  0  0
   -8.4756   18.8455  -33.7127 H   0  0  0  0  0  0  0  0  0  0  0  0
   -8.4649   18.1230  -31.2350 H   0  0  0  0  0  0  0  0  0  0  0  0
   -8.0242   16.8598  -32.4662 H   0  0  0  0  0  0  0  0  0  0  0  0
   -6.4084   18.0474  -30.2747 H   0  0  0  0  0  0  0  0  0  0  0  0
   -6.2870   16.4384  -31.1466 H   0  0  0  0  0  0  0  0  0  0  0  0
   -4.3634   17.8356  -33.8084 H   0  0  0  0  0  0  0  0  0  0  0  0
   -5.6577   16.6323  -33.4430 H   0  0  0  0  0  0  0  0  0  0  0  0
   -5.9045   19.5454  -34.2561 H   0  0  0  0  0  0  0  0  0  0  0  0
   -6.7632   18.0741  -34.8869 H   0  0  0  0  0  0  0  0  0  0  0  0
   -5.4033   20.4152  -32.4875 H   0  0  0  0  0  0  0  0  0  0  0  0
  1  2  1  0
  2  3  1  0
  3  4  2  0
  3  5  1  0
  5  6  1  0
  6  7  1  0
  7  8  1  0
  7  9  2  0
  6 10  2  0
 10 11  1  0
 11 12  2  0
 12 13  1  0
 13 14  2  0
 14 15  1  0
 15 16  1  0
 16 17  1  0
 17 18  1  0
 18 19  1  0
 19 20  1  0
 14 21  1  0
 21 22  2  0
 22  5  1  0
 22 11  1  0
 20 15  1  0
  1 23  1  0
  1 24  1  0
  1 25  1  0
  8 26  1  0
 10 27  1  0
 12 28  1  0
 13 29  1  0
 15 30  1  0
 16 31  1  0
 16 32  1  0
 17 33  1  0
 17 34  1  0
 19 35  1  0
 19 36  1  0
 20 37  1  0
 20 38  1  0
 21 39  1  0
M  CHG  1   8  -1
M  END
>  <UniqueID>  (89) 
89

>  <SMILES>  (89) 
COC(=O)n1c(C([NH-])=O)cc2ccc(C3CCOCC3)cc21

>  <Energy>  (89) 
87.24319947019642

>  <Genealogy>  (89) 
COC(=O)n1c(C([NH-])=O)cc2ccc(C3CCOCC3)cc21 (protonated)
COC(=O)n1c(C([NH-])=O)cc2ccc(C3CCOCC3)cc21 (3D coordinates assigned)
COC(=O)n1c(C([NH-])=O)cc2ccc(C3CCOCC3)cc21 (nonaromatic ring conformer: 87.24319947019642 kcal/mol)

>  <smiles>  (89) 
COC(=O)n1c(C(N)=O)cc2ccc(C3CCOCC3)cc21

>  <score_type>  (89) 
oracle

>  <origin>  (89) 
adg

>  <m_score__min__energy>  (89) 
-10.49

>  <m_primary>  (89) 
energy

$$$$
90:0
     RDKit          3D

 51 53  0  0  0  0  0  0  0  0999 V2000
   -9.1150   18.1760  -31.7540 C   0  0  0  0  0  0  0  0  0  0  0  0
   -8.1140   18.8470  -32.7070 C   0  0  2  0  0  0  0  0  0  0  0  0
   -6.9080   17.9780  -33.0330 C   0  0  0  0  0  0  0  0  0  0  0  0
   -6.3950   17.0370  -32.1190 C   0  0  0  0  0  0  0  0  0  0  0  0
   -5.2600   16.2870  -32.4390 C   0  0  0  0  0  0  0  0  0  0  0  0
   -4.6180   16.4690  -33.6660 C   0  0  0  0  0  0  0  0  0  0  0  0
   -5.1050   17.4090  -34.5710 C   0  0  0  0  0  0  0  0  0  0  0  0
   -6.2390   18.1630  -34.2570 C   0  0  0  0  0  0  0  0  0  0  0  0
   -7.6700   20.2020  -32.1900 C   0  0  0  0  0  0  0  0  0  0  0  0
   -8.6370   21.2060  -31.9210 C   0  0  0  0  0  0  0  0  0  0  0  0
   -8.2500   22.4700  -31.4450 C   0  0  0  0  0  0  0  0  0  0  0  0
   -6.8930   22.7100  -31.2560 C   0  0  0  0  0  0  0  0  0  0  0  0
   -6.2490   23.8340  -30.7930 C   0  0  0  0  0  0  0  0  0  0  0  0
   -4.8910   23.5140  -30.8060 C   0  0  0  0  0  0  0  0  0  0  0  0
   -3.8120   24.4700  -30.4700 C   0  0  0  0  0  0  0  0  0  0  0  0
   -2.6630   24.0460  -29.7320 N   0  0  0  0  0  0  0  0  0  0  0  0
   -3.9040   25.6790  -30.8120 O   0  0  0  0  0  0  0  0  0  0  0  0
   -4.7090   22.2420  -31.2590 N   0  0  0  0  0  0  0  0  0  0  0  0
   -3.4760   21.5190  -31.3870 C   0  0  0  0  0  0  0  0  0  0  0  0
   -2.8730   21.1190  -30.3530 O   0  0  0  0  0  0  0  0  0  0  0  0
   -2.9620   21.2590  -32.6650 O   0  0  0  0  0  0  0  0  0  0  0  0
   -1.8910   20.3600  -32.9870 C   0  0  0  0  0  0  0  0  0  0  0  0
   -0.6470   20.6810  -32.1410 C   0  0  0  0  0  0  0  0  0  0  0  0
   -2.3720   18.9430  -32.6440 C   0  0  0  0  0  0  0  0  0  0  0  0
   -1.5620   20.4200  -34.4910 C   0  0  0  0  0  0  0  0  0  0  0  0
   -5.9420   21.7630  -31.5310 C   0  0  0  0  0  0  0  0  0  0  0  0
   -6.2980   20.4890  -31.9860 C   0  0  0  0  0  0  0  0  0  0  0  0
   -8.8195   18.3741  -30.7131 H   0  0  0  0  0  0  0  0  0  0  0  0
  -10.1212   18.5828  -31.9333 H   0  0  0  0  0  0  0  0  0  0  0  0
   -9.1210   17.0907  -31.9333 H   0  0  0  0  0  0  0  0  0  0  0  0
   -8.6615   18.9914  -33.6500 H   0  0  0  0  0  0  0  0  0  0  0  0
   -6.8906   16.8916  -31.1478 H   0  0  0  0  0  0  0  0  0  0  0  0
   -4.8705   15.5500  -31.7213 H   0  0  0  0  0  0  0  0  0  0  0  0
   -3.7295   15.8711  -33.9171 H   0  0  0  0  0  0  0  0  0  0  0  0
   -4.5961   17.5582  -35.5347 H   0  0  0  0  0  0  0  0  0  0  0  0
   -6.6125   18.9088  -34.9741 H   0  0  0  0  0  0  0  0  0  0  0  0
   -9.7030   20.9916  -32.0874 H   0  0  0  0  0  0  0  0  0  0  0  0
   -8.9980   23.2468  -31.2282 H   0  0  0  0  0  0  0  0  0  0  0  0
   -6.7074   24.7834  -30.4792 H   0  0  0  0  0  0  0  0  0  0  0  0
   -1.9210   24.7350  -29.4800 H   0  0  0  0  0  0  0  0  0  0  0  0
   -2.5250   23.0480  -29.4620 H   0  0  0  0  0  0  0  0  0  0  0  0
   -0.9028   20.6150  -31.0732 H   0  0  0  0  0  0  0  0  0  0  0  0
    0.1501   19.9591  -32.3724 H   0  0  0  0  0  0  0  0  0  0  0  0
   -0.2987   21.6984  -32.3724 H   0  0  0  0  0  0  0  0  0  0  0  0
   -2.4124   18.8240  -31.5512 H   0  0  0  0  0  0  0  0  0  0  0  0
   -3.3746   18.7836  -33.0675 H   0  0  0  0  0  0  0  0  0  0  0  0
   -1.6736   18.2062  -33.0675 H   0  0  0  0  0  0  0  0  0  0  0  0
   -0.4878   20.6159  -34.6238 H   0  0  0  0  0  0  0  0  0  0  0  0
   -1.8205   19.4599  -34.9615 H   0  0  0  0  0  0  0  0  0  0  0  0
   -2.1428   21.2270  -34.9615 H   0  0  0  0  0  0  0  0  0  0  0  0
   -5.5293   19.7268  -32.1811 H   0  0  0  0  0  0  0  0  0  0  0  0
  1  2  1  0
  2  3  1  0
  3  4  2  0
  4  5  1  0
  5  6  2  0
  6  7  1  0
  7  8  2  0
  2  9  1  0
  9 10  2  0
 10 11  1  0
 11 12  2  0
 12 13  1  0
 13 14  2  0
 14 15  1  0
 15 16  1  0
 15 17  2  0
 14 18  1  0
 18 19  1  0
 19 20  2  0
 19 21  1  0
 21 22  1  0
 22 23  1  0
 22 24  1  0
 22 25  1  0
 18 26  1  0
 26 27  2  0
  8  3  1  0
 27  9  1  0
 26 12  1  0
  1 28  1  0
  1 29  1  0
  1 30  1  0
  2 31  1  6
  4 32  1  0
  5 33  1  0
  6 34  1  0
  7 35  1  0
  8 36  1  0
 10 37  1  0
 11 38  1  0
 13 39  1  0
 16 40  1  0
 16 41  1  0
 23 42  1  0
 23 43  1  0
 23 44  1  0
 24 45  1  0
 24 46  1  0
 24 47  1  0
 25 48  1  0
 25 49  1  0
 25 50  1  0
 27 51  1  0
M  END
>  <UniqueID>  (90) 
90

>  <SMILES>  (90) 
C[C@H](c1ccccc1)c1ccc2cc(C(N)=O)n(C(=O)OC(C)(C)C)c2c1

>  <Energy>  (90) 
85.64549852819034

>  <Genealogy>  (90) 
C[C@H](c1ccccc1)c1ccc2cc(C(N)=O)n(C(=O)OC(C)(C)C)c2c1 (chirality)
C[C@H](c1ccccc1)c1ccc2cc(C(N)=O)n(C(=O)OC(C)(C)C)c2c1 (3D coordinates assigned)
C[C@H](c1ccccc1)c1ccc2cc(C(N)=O)n(C(=O)OC(C)(C)C)c2c1 (optimized conformer: 85.64549852819034 kcal/mol)

>  <smiles>  (90) 
CC(c1ccccc1)c1ccc2cc(C(N)=O)n(C(=O)OC(C)(C)C)c2c1

>  <score_type>  (90) 
oracle

>  <origin>  (90) 
adg

>  <m_score__min__energy>  (90) 
-10.07

>  <m_primary>  (90) 
energy

$$$$
91:0
     RDKit          3D

 42 44  0  0  0  0  0  0  0  0999 V2000
   -9.8630   19.3430  -32.7040 C   0  0  0  0  0  0  0  0  0  0  0  0
   -8.5490   19.8830  -32.3780 N   0  0  0  0  0  0  0  0  0  0  0  0
   -8.2690   21.2790  -32.1100 C   0  0  0  0  0  0  0  0  0  0  0  0
   -6.7780   21.3380  -31.7290 C   0  0  0  0  0  0  0  0  0  0  0  0
   -6.1480   19.9830  -32.1310 C   0  0  2  0  0  0  0  0  0  0  0  0
   -5.2700   20.1280  -33.3960 C   0  0  0  0  0  0  0  0  0  0  0  0
   -3.9140   19.4070  -33.3060 C   0  0  0  0  0  0  0  0  0  0  0  0
   -2.9220   20.1660  -32.4640 C   0  0  0  0  0  0  0  0  0  0  0  0
   -1.5800   19.7210  -32.3760 C   0  0  0  0  0  0  0  0  0  0  0  0
   -0.6390   20.4280  -31.6090 C   0  0  0  0  0  0  0  0  0  0  0  0
   -1.0650   21.5800  -30.9550 C   0  0  0  0  0  0  0  0  0  0  0  0
   -0.3720   22.4400  -30.1340 C   0  0  0  0  0  0  0  0  0  0  0  0
   -1.2940   23.4150  -29.7570 C   0  0  0  0  0  0  0  0  0  0  0  0
   -0.9420   24.5890  -28.9310 C   0  0  0  0  0  0  0  0  0  0  0  0
   -1.7300   25.7760  -28.9660 N   0  0  0  0  0  0  0  0  0  0  0  0
    0.0970   24.5600  -28.2170 O   0  0  0  0  0  0  0  0  0  0  0  0
   -2.5120   23.1650  -30.3170 N   0  0  0  0  0  0  0  0  0  0  0  0
   -3.7370   23.8860  -30.1190 C   0  0  0  0  0  0  0  0  0  0  0  0
   -3.8560   25.2350  -30.5630 N   0  0  0  0  0  0  0  0  0  0  0  0
   -4.7190   23.3250  -29.5620 O   0  0  0  0  0  0  0  0  0  0  0  0
   -2.3540   22.0380  -31.0470 C   0  0  0  0  0  0  0  0  0  0  0  0
   -3.3170   21.3390  -31.7840 C   0  0  0  0  0  0  0  0  0  0  0  0
   -7.3470   19.1400  -32.3790 C   0  0  0  0  0  0  0  0  0  0  0  0
   -7.3160   17.8900  -32.5340 O   0  0  0  0  0  0  0  0  0  0  0  0
  -10.4081   19.1190  -31.7752 H   0  0  0  0  0  0  0  0  0  0  0  0
  -10.4277   20.0820  -33.2914 H   0  0  0  0  0  0  0  0  0  0  0  0
   -9.7449   18.4205  -33.2914 H   0  0  0  0  0  0  0  0  0  0  0  0
   -8.4605   21.8877  -33.0060 H   0  0  0  0  0  0  0  0  0  0  0  0
   -8.9094   21.6754  -31.3083 H   0  0  0  0  0  0  0  0  0  0  0  0
   -6.2833   22.1585  -32.2694 H   0  0  0  0  0  0  0  0  0  0  0  0
   -6.6578   21.5195  -30.6507 H   0  0  0  0  0  0  0  0  0  0  0  0
   -5.4719   19.5620  -31.3723 H   0  0  0  0  0  0  0  0  0  0  0  0
   -5.8250   19.7143  -34.2509 H   0  0  0  0  0  0  0  0  0  0  0  0
   -5.0520   21.2002  -33.5094 H   0  0  0  0  0  0  0  0  0  0  0  0
   -4.0698   18.4133  -32.8608 H   0  0  0  0  0  0  0  0  0  0  0  0
   -3.5041   19.3293  -34.3238 H   0  0  0  0  0  0  0  0  0  0  0  0
   -1.2715   18.8124  -32.9138 H   0  0  0  0  0  0  0  0  0  0  0  0
    0.4019   20.0818  -31.5280 H   0  0  0  0  0  0  0  0  0  0  0  0
    0.6853   22.3723  -29.8381 H   0  0  0  0  0  0  0  0  0  0  0  0
   -2.7700   25.7270  -29.0290 H   0  0  0  0  0  0  0  0  0  0  0  0
   -3.6920   26.0320  -29.9080 H   0  0  0  0  0  0  0  0  0  0  0  0
   -4.3567   21.6949  -31.8324 H   0  0  0  0  0  0  0  0  0  0  0  0
  1  2  1  0
  2  3  1  0
  3  4  1  0
  4  5  1  0
  5  6  1  0
  6  7  1  0
  7  8  1  0
  8  9  2  0
  9 10  1  0
 10 11  2  0
 11 12  1  0
 12 13  2  0
 13 14  1  0
 14 15  1  0
 14 16  2  0
 13 17  1  0
 17 18  1  0
 18 19  1  0
 18 20  2  0
 17 21  1  0
 21 22  2  0
  5 23  1  0
 23 24  2  0
 23  2  1  0
 22  8  1  0
 21 11  1  0
  1 25  1  0
  1 26  1  0
  1 27  1  0
  3 28  1  0
  3 29  1  0
  4 30  1  0
  4 31  1  0
  5 32  1  1
  6 33  1  0
  6 34  1  0
  7 35  1  0
  7 36  1  0
  9 37  1  0
 10 38  1  0
 12 39  1  0
 15 40  1  0
 19 41  1  0
 22 42  1  0
M  CHG  2  15  -1  19  -1
M  END
>  <UniqueID>  (91) 
91

>  <SMILES>  (91) 
CN1CC[C@H](CCc2ccc3cc(C([NH-])=O)n(C([NH-])=O)c3c2)C1=O

>  <Energy>  (91) 
84.20235387317375

>  <Genealogy>  (91) 
CN1CC[C@H](CCc2ccc3cc(C([NH-])=O)n(C([NH-])=O)c3c2)C1=O (protonated)
CN1CC[C@H](CCc2ccc3cc(C([NH-])=O)n(C([NH-])=O)c3c2)C1=O (3D coordinates assigned)
CN1CC[C@H](CCc2ccc3cc(C([NH-])=O)n(C([NH-])=O)c3c2)C1=O (nonaromatic ring conformer: 84.20235387317375 kcal/mol)

>  <smiles>  (91) 
CN1CC[C@H](CCc2ccc3cc(C(N)=O)n(C(N)=O)c3c2)C1=O

>  <score_type>  (91) 
oracle

>  <origin>  (91) 
adg

>  <m_score__min__energy>  (91) 
-12.25

>  <m_primary>  (91) 
energy

$$$$
92:0
     RDKit          3D

 26 27  0  0  0  0  0  0  0  0999 V2000
   -3.6890   25.2690  -30.4710 N   0  0  0  0  0  0  0  0  0  0  0  0
   -5.0870   25.3120  -30.7380 C   0  0  0  0  0  0  0  0  0  0  0  0
   -5.6870   26.4210  -30.7110 O   0  0  0  0  0  0  0  0  0  0  0  0
   -5.8520   24.0750  -30.9960 C   0  0  0  0  0  0  0  0  0  0  0  0
   -7.1960   23.9180  -30.6650 C   0  0  0  0  0  0  0  0  0  0  0  0
   -7.4990   22.6100  -30.9740 C   0  0  0  0  0  0  0  0  0  0  0  0
   -8.7010   21.9190  -30.8640 C   0  0  0  0  0  0  0  0  0  0  0  0
   -8.7310   20.5800  -31.2870 C   0  0  0  0  0  0  0  0  0  0  0  0
   -7.5640   19.9530  -31.7990 C   0  0  0  0  0  0  0  0  0  0  0  0
   -7.6260   18.5340  -32.3050 C   0  0  0  0  0  0  0  0  0  0  0  0
   -8.9450   18.1230  -32.3470 F   0  0  0  0  0  0  0  0  0  0  0  0
   -6.9160   17.6870  -31.4720 F   0  0  0  0  0  0  0  0  0  0  0  0
   -7.0850   18.4440  -33.5760 F   0  0  0  0  0  0  0  0  0  0  0  0
   -6.3680   20.6990  -31.9150 C   0  0  0  0  0  0  0  0  0  0  0  0
   -6.3640   22.0260  -31.4720 C   0  0  0  0  0  0  0  0  0  0  0  0
   -5.3470   22.9120  -31.4980 N   0  0  0  0  0  0  0  0  0  0  0  0
   -4.0340   22.6770  -32.0310 C   0  0  0  0  0  0  0  0  0  0  0  0
   -3.8640   22.2970  -33.3970 N   0  0  0  0  0  0  0  0  0  0  0  0
   -3.0250   22.7730  -31.2830 O   0  0  0  0  0  0  0  0  0  0  0  0
   -3.0140   24.9360  -31.1950 H   0  0  0  0  0  0  0  0  0  0  0  0
   -7.8722   24.6776  -30.2457 H   0  0  0  0  0  0  0  0  0  0  0  0
   -9.6001   22.4059  -30.4584 H   0  0  0  0  0  0  0  0  0  0  0  0
   -9.6696   20.0101  -31.2209 H   0  0  0  0  0  0  0  0  0  0  0  0
   -5.4618   20.2462  -32.3437 H   0  0  0  0  0  0  0  0  0  0  0  0
   -4.6940   22.1390  -34.0100 H   0  0  0  0  0  0  0  0  0  0  0  0
   -2.9080   22.1390  -33.7860 H   0  0  0  0  0  0  0  0  0  0  0  0
  1  2  1  0
  2  3  2  0
  2  4  1  0
  4  5  2  0
  5  6  1  0
  6  7  2  0
  7  8  1  0
  8  9  2  0
  9 10  1  0
 10 11  1  0
 10 12  1  0
 10 13  1  0
  9 14  1  0
 14 15  2  0
 15 16  1  0
 16 17  1  0
 17 18  1  0
 17 19  2  0
 16  4  1  0
 15  6  1  0
  1 20  1  0
  5 21  1  0
  7 22  1  0
  8 23  1  0
 14 24  1  0
 18 25  1  0
 18 26  1  0
M  CHG  1   1  -1
M  END
>  <UniqueID>  (92) 
92

>  <SMILES>  (92) 
[NH-]C(=O)c1cc2ccc(C(F)(F)F)cc2n1C(N)=O

>  <Energy>  (92) 
65.75319717466

>  <Genealogy>  (92) 
[NH-]C(=O)c1cc2ccc(C(F)(F)F)cc2n1C(N)=O (protonated)
[NH-]C(=O)c1cc2ccc(C(F)(F)F)cc2n1C(N)=O (3D coordinates assigned)
[NH-]C(=O)c1cc2ccc(C(F)(F)F)cc2n1C(N)=O (optimized conformer: 65.75319717466 kcal/mol)

>  <smiles>  (92) 
NC(=O)c1cc2ccc(C(F)(F)F)cc2n1C(N)=O

>  <score_type>  (92) 
oracle

>  <origin>  (92) 
adg

>  <m_score__min__energy>  (92) 
-9.3699999999999992

>  <m_primary>  (92) 
energy

$$$$
