0:0
     RDKit          3D

 38 40  0  0  0  0  0  0  0  0999 V2000
   -6.7680   18.4020  -32.4240 C   0  0  0  0  0  0  0  0  0  0  0  0
   -6.9440   19.8540  -32.0900 C   0  0  0  0  0  0  0  0  0  0  0  0
   -8.2150   20.4630  -32.2260 C   0  0  0  0  0  0  0  0  0  0  0  0
   -8.3870   21.8290  -31.9400 C   0  0  0  0  0  0  0  0  0  0  0  0
   -7.2690   22.5580  -31.5430 C   0  0  0  0  0  0  0  0  0  0  0  0
   -7.1580   23.8820  -31.1880 C   0  0  0  0  0  0  0  0  0  0  0  0
   -5.8120   24.0690  -30.8790 C   0  0  0  0  0  0  0  0  0  0  0  0
   -5.2320   25.3810  -30.5280 C   0  0  0  0  0  0  0  0  0  0  0  0
   -3.8690   25.6610  -30.8360 N   0  0  0  0  0  0  0  0  0  0  0  0
   -5.9180   26.2440  -29.9210 O   0  0  0  0  0  0  0  0  0  0  0  0
   -5.1190   22.9060  -31.0310 N   0  0  0  0  0  0  0  0  0  0  0  0
   -3.7360   22.6630  -30.7290 C   0  0  0  0  0  0  0  0  0  0  0  0
   -2.8400   23.0550  -31.5240 O   0  0  0  0  0  0  0  0  0  0  0  0
   -3.3900   21.9650  -29.5670 O   0  0  0  0  0  0  0  0  0  0  0  0
   -3.0380   22.6220  -28.3530 C   0  0  0  0  0  0  0  0  0  0  0  0
   -3.1340   24.0320  -28.5260 O   0  0  0  0  0  0  0  0  0  0  0  0
   -2.1000   24.9120  -28.1950 C   0  0  0  0  0  0  0  0  0  0  0  0
   -1.5920   25.6630  -29.0720 O   0  0  0  0  0  0  0  0  0  0  0  0
   -1.6000   24.9540  -26.8160 C   0  0  0  0  0  0  0  0  0  0  0  0
   -1.7900   25.9880  -25.9060 C   0  0  0  0  0  0  0  0  0  0  0  0
   -1.1960   25.7420  -24.6620 C   0  0  0  0  0  0  0  0  0  0  0  0
   -0.5400   24.5200  -24.5890 C   0  0  0  0  0  0  0  0  0  0  0  0
   -0.6990   23.7440  -26.0740 S   0  0  0  0  0  0  0  0  0  0  0  0
   -6.0250   21.9890  -31.4400 C   0  0  0  0  0  0  0  0  0  0  0  0
   -5.8290   20.6270  -31.7000 C   0  0  0  0  0  0  0  0  0  0  0  0
   -6.6972   17.8179  -31.4946 H   0  0  0  0  0  0  0  0  0  0  0  0
   -7.6305   18.0537  -33.0112 H   0  0  0  0  0  0  0  0  0  0  0  0
   -5.8473   18.2698  -33.0112 H   0  0  0  0  0  0  0  0  0  0  0  0
   -9.0748   19.8627  -32.5581 H   0  0  0  0  0  0  0  0  0  0  0  0
   -9.3740   22.3068  -32.0272 H   0  0  0  0  0  0  0  0  0  0  0  0
   -7.9607   24.6334  -31.1550 H   0  0  0  0  0  0  0  0  0  0  0  0
   -3.1030   25.0390  -30.4930 H   0  0  0  0  0  0  0  0  0  0  0  0
   -3.7230   22.3041  -27.5531 H   0  0  0  0  0  0  0  0  0  0  0  0
   -2.0054   22.3574  -28.0814 H   0  0  0  0  0  0  0  0  0  0  0  0
   -2.3498   26.9057  -26.1395 H   0  0  0  0  0  0  0  0  0  0  0  0
   -1.2444   26.4501  -23.8216 H   0  0  0  0  0  0  0  0  0  0  0  0
   -0.0075   24.1265  -23.7106 H   0  0  0  0  0  0  0  0  0  0  0  0
   -4.8325   20.1715  -31.6029 H   0  0  0  0  0  0  0  0  0  0  0  0
  1  2  1  0
  2  3  2  0
  3  4  1  0
  4  5  2  0
  5  6  1  0
  6  7  2  0
  7  8  1  0
  8  9  1  0
  8 10  2  0
  7 11  1  0
 11 12  1  0
 12 13  2  0
 12 14  1  0
 14 15  1  0
 15 16  1  0
 16 17  1  0
 17 18  2  0
 17 19  1  0
 19 20  2  0
 20 21  1  0
 21 22  2  0
 22 23  1  0
 11 24  1  0
 24 25  2  0
 25  2  1  0
 24  5  1  0
 23 19  1  0
  1 26  1  0
  1 27  1  0
  1 28  1  0
  3 29  1  0
  4 30  1  0
  6 31  1  0
  9 32  1  0
 15 33  1  0
 15 34  1  0
 20 35  1  0
 21 36  1  0
 22 37  1  0
 25 38  1  0
M  CHG  1   9  -1
M  END
>  <UniqueID>  (1) 
1

>  <SMILES>  (1) 
Cc1ccc2cc(C([NH-])=O)n(C(=O)OCOC(=O)c3cccs3)c2c1

>  <Energy>  (1) 
100.02867095182535

>  <Genealogy>  (1) 
Cc1ccc2cc(C([NH-])=O)n(C(=O)OCOC(=O)c3cccs3)c2c1 (protonated)
Cc1ccc2cc(C([NH-])=O)n(C(=O)OCOC(=O)c3cccs3)c2c1 (3D coordinates assigned)
Cc1ccc2cc(C([NH-])=O)n(C(=O)OCOC(=O)c3cccs3)c2c1 (optimized conformer: 100.02867095182535 kcal/mol)

>  <smiles>  (1) 
Cc1ccc2cc(C(N)=O)n(C(=O)OCOC(=O)c3cccs3)c2c1

>  <score_type>  (1) 
oracle

>  <origin>  (1) 
adg

>  <m_score__min__energy>  (1) 
-10.68

>  <m_primary>  (1) 
energy

$$$$
1:0
     RDKit          3D

 39 40  0  0  0  0  0  0  0  0999 V2000
   -7.3470   18.2830  -32.3840 C   0  0  0  0  0  0  0  0  0  0  0  0
   -7.4000   19.7590  -32.1240 C   0  0  0  0  0  0  0  0  0  0  0  0
   -8.6340   20.4520  -32.1980 C   0  0  0  0  0  0  0  0  0  0  0  0
   -8.6960   21.8290  -31.9340 C   0  0  0  0  0  0  0  0  0  0  0  0
   -7.5170   22.4790  -31.5790 C   0  0  0  0  0  0  0  0  0  0  0  0
   -7.2900   23.8070  -31.2950 C   0  0  0  0  0  0  0  0  0  0  0  0
   -5.9290   23.8960  -31.0120 C   0  0  0  0  0  0  0  0  0  0  0  0
   -5.2730   25.1460  -30.5760 C   0  0  0  0  0  0  0  0  0  0  0  0
   -3.8560   25.2910  -30.6340 N   0  0  0  0  0  0  0  0  0  0  0  0
   -5.9690   26.0810  -30.0990 O   0  0  0  0  0  0  0  0  0  0  0  0
   -5.3350   22.6740  -31.1230 N   0  0  0  0  0  0  0  0  0  0  0  0
   -3.9380   22.3630  -31.0010 C   0  0  0  0  0  0  0  0  0  0  0  0
   -3.0820   23.0730  -31.5960 O   0  0  0  0  0  0  0  0  0  0  0  0
   -3.5310   21.2860  -30.2070 O   0  0  0  0  0  0  0  0  0  0  0  0
   -3.1100   21.4390  -28.8560 C   0  0  0  0  0  0  0  0  0  0  0  0
   -2.5690   22.7420  -28.6670 O   0  0  0  0  0  0  0  0  0  0  0  0
   -3.1870   23.7080  -27.8700 C   0  0  0  0  0  0  0  0  0  0  0  0
   -4.3160   24.1740  -28.1840 O   0  0  0  0  0  0  0  0  0  0  0  0
   -2.4790   24.2260  -26.6570 C   0  0  0  0  0  0  0  0  0  0  0  0
   -1.6800   25.4960  -26.9710 C   0  0  0  0  0  0  0  0  0  0  0  0
   -0.9030   25.3550  -28.2450 C   0  0  0  0  0  0  0  0  0  0  0  0
   -1.4310   25.6630  -29.3470 O   0  0  0  0  0  0  0  0  0  0  0  0
    0.4170   24.9270  -28.2130 O   0  0  0  0  0  0  0  0  0  0  0  0
   -6.3210   21.8160  -31.4700 C   0  0  0  0  0  0  0  0  0  0  0  0
   -6.2270   20.4480  -31.7470 C   0  0  0  0  0  0  0  0  0  0  0  0
   -7.3276   17.7424  -31.4262 H   0  0  0  0  0  0  0  0  0  0  0  0
   -8.2348   17.9797  -32.9583 H   0  0  0  0  0  0  0  0  0  0  0  0
   -6.4397   18.0442  -32.9583 H   0  0  0  0  0  0  0  0  0  0  0  0
   -9.5510   19.9060  -32.4646 H   0  0  0  0  0  0  0  0  0  0  0  0
   -9.6467   22.3778  -32.0053 H   0  0  0  0  0  0  0  0  0  0  0  0
   -8.0267   24.6239  -31.2922 H   0  0  0  0  0  0  0  0  0  0  0  0
   -3.2290   24.6730  -30.0730 H   0  0  0  0  0  0  0  0  0  0  0  0
   -3.9717   21.3001  -28.1865 H   0  0  0  0  0  0  0  0  0  0  0  0
   -2.3397   20.6879  -28.6271 H   0  0  0  0  0  0  0  0  0  0  0  0
   -3.2229   24.4550  -25.8797 H   0  0  0  0  0  0  0  0  0  0  0  0
   -1.7763   23.4533  -26.3118 H   0  0  0  0  0  0  0  0  0  0  0  0
   -2.3767   26.3416  -27.0689 H   0  0  0  0  0  0  0  0  0  0  0  0
   -0.9685   25.6680  -26.1499 H   0  0  0  0  0  0  0  0  0  0  0  0
   -5.2635   19.9225  -31.6729 H   0  0  0  0  0  0  0  0  0  0  0  0
  1  2  1  0
  2  3  2  0
  3  4  1  0
  4  5  2  0
  5  6  1  0
  6  7  2  0
  7  8  1  0
  8  9  1  0
  8 10  2  0
  7 11  1  0
 11 12  1  0
 12 13  2  0
 12 14  1  0
 14 15  1  0
 15 16  1  0
 16 17  1  0
 17 18  2  0
 17 19  1  0
 19 20  1  0
 20 21  1  0
 21 22  2  0
 21 23  1  0
 11 24  1  0
 24 25  2  0
 25  2  1  0
 24  5  1  0
  1 26  1  0
  1 27  1  0
  1 28  1  0
  3 29  1  0
  4 30  1  0
  6 31  1  0
  9 32  1  0
 15 33  1  0
 15 34  1  0
 19 35  1  0
 19 36  1  0
 20 37  1  0
 20 38  1  0
 25 39  1  0
M  CHG  2   9  -1  23  -1
M  END
>  <UniqueID>  (2) 
2

>  <SMILES>  (2) 
Cc1ccc2cc(C([NH-])=O)n(C(=O)OCOC(=O)CCC(=O)[O-])c2c1

>  <Energy>  (2) 
70.13874993644755

>  <Genealogy>  (2) 
Cc1ccc2cc(C([NH-])=O)n(C(=O)OCOC(=O)CCC(=O)[O-])c2c1 (protonated)
Cc1ccc2cc(C([NH-])=O)n(C(=O)OCOC(=O)CCC(=O)[O-])c2c1 (3D coordinates assigned)
Cc1ccc2cc(C([NH-])=O)n(C(=O)OCOC(=O)CCC(=O)[O-])c2c1 (optimized conformer: 70.13874993644755 kcal/mol)

>  <smiles>  (2) 
Cc1ccc2cc(C(N)=O)n(C(=O)OCOC(=O)CCC(=O)O)c2c1

>  <score_type>  (2) 
oracle

>  <origin>  (2) 
adg

>  <m_score__min__energy>  (2) 
-12.48

>  <m_primary>  (2) 
energy

$$$$
2:0
     RDKit          3D

 42 43  0  0  0  0  0  0  0  0999 V2000
   -2.7400   21.0580  -29.1390 C   0  0  0  0  0  0  0  0  0  0  0  0
   -2.8070   22.5940  -29.0570 C   0  0  0  0  0  0  0  0  0  0  0  0
   -1.5230   23.1130  -28.3900 C   0  0  0  0  0  0  0  0  0  0  0  0
   -4.0190   23.0440  -28.2200 C   0  0  0  0  0  0  0  0  0  0  0  0
   -2.8610   23.1680  -30.3710 O   0  0  0  0  0  0  0  0  0  0  0  0
   -3.6610   22.7330  -31.4380 C   0  0  0  0  0  0  0  0  0  0  0  0
   -3.1490   22.1780  -32.4470 O   0  0  0  0  0  0  0  0  0  0  0  0
   -5.0850   22.8980  -31.3610 N   0  0  0  0  0  0  0  0  0  0  0  0
   -5.7850   24.0100  -30.9960 C   0  0  0  0  0  0  0  0  0  0  0  0
   -5.2070   25.2620  -30.4630 C   0  0  0  0  0  0  0  0  0  0  0  0
   -3.8900   25.6530  -30.8450 N   0  0  0  0  0  0  0  0  0  0  0  0
   -5.8770   26.0090  -29.7030 O   0  0  0  0  0  0  0  0  0  0  0  0
   -7.1550   23.7840  -31.1110 C   0  0  0  0  0  0  0  0  0  0  0  0
   -7.2760   22.4880  -31.5540 C   0  0  0  0  0  0  0  0  0  0  0  0
   -8.4160   21.7430  -31.8490 C   0  0  0  0  0  0  0  0  0  0  0  0
   -8.2420   20.4290  -32.3160 C   0  0  0  0  0  0  0  0  0  0  0  0
   -6.9430   19.8950  -32.4830 C   0  0  0  0  0  0  0  0  0  0  0  0
   -6.7790   18.5520  -32.9740 C   0  0  0  0  0  0  0  0  0  0  0  0
   -6.6400   17.4270  -33.3840 C   0  0  0  0  0  0  0  0  0  0  0  0
   -6.4710   16.0570  -33.8840 C   0  0  0  0  0  0  0  0  0  0  0  0
   -5.1920   15.5030  -33.4450 N   0  0  0  0  0  0  0  0  0  0  0  0
   -5.8100   20.6740  -32.1780 C   0  0  0  0  0  0  0  0  0  0  0  0
   -6.0130   21.9730  -31.6970 C   0  0  0  0  0  0  0  0  0  0  0  0
   -2.7216   20.6370  -28.1229 H   0  0  0  0  0  0  0  0  0  0  0  0
   -3.6225   20.6807  -29.6763 H   0  0  0  0  0  0  0  0  0  0  0  0
   -1.8280   20.7589  -29.6763 H   0  0  0  0  0  0  0  0  0  0  0  0
   -1.6339   23.0682  -27.2965 H   0  0  0  0  0  0  0  0  0  0  0  0
   -0.6715   22.4884  -28.6981 H   0  0  0  0  0  0  0  0  0  0  0  0
   -1.3447   24.1538  -28.6981 H   0  0  0  0  0  0  0  0  0  0  0  0
   -3.7792   22.9550  -27.1502 H   0  0  0  0  0  0  0  0  0  0  0  0
   -4.2591   24.0912  -28.4560 H   0  0  0  0  0  0  0  0  0  0  0  0
   -4.8844   22.4072  -28.4560 H   0  0  0  0  0  0  0  0  0  0  0  0
   -3.0530   25.2880  -30.3370 H   0  0  0  0  0  0  0  0  0  0  0  0
   -7.9678   24.4925  -30.8934 H   0  0  0  0  0  0  0  0  0  0  0  0
   -9.4214   22.1703  -31.7203 H   0  0  0  0  0  0  0  0  0  0  0  0
   -9.1213   19.8121  -32.5531 H   0  0  0  0  0  0  0  0  0  0  0  0
   -7.2880   15.4286  -33.4998 H   0  0  0  0  0  0  0  0  0  0  0  0
   -6.4903   16.0761  -34.9837 H   0  0  0  0  0  0  0  0  0  0  0  0
   -5.1680   14.4710  -33.6150 H   0  0  0  0  0  0  0  0  0  0  0  0
   -5.0770   15.6800  -32.4200 H   0  0  0  0  0  0  0  0  0  0  0  0
   -4.4040   15.9640  -33.9580 H   0  0  0  0  0  0  0  0  0  0  0  0
   -4.7946   20.2732  -32.3138 H   0  0  0  0  0  0  0  0  0  0  0  0
  1  2  1  0
  2  3  1  0
  2  4  1  0
  2  5  1  0
  5  6  1  0
  6  7  2  0
  6  8  1  0
  8  9  1  0
  9 10  1  0
 10 11  1  0
 10 12  2  0
  9 13  2  0
 13 14  1  0
 14 15  2  0
 15 16  1  0
 16 17  2  0
 17 18  1  0
 18 19  3  0
 19 20  1  0
 20 21  1  0
 17 22  1  0
 22 23  2  0
 23  8  1  0
 23 14  1  0
  1 24  1  0
  1 25  1  0
  1 26  1  0
  3 27  1  0
  3 28  1  0
  3 29  1  0
  4 30  1  0
  4 31  1  0
  4 32  1  0
 11 33  1  0
 13 34  1  0
 15 35  1  0
 16 36  1  0
 20 37  1  0
 20 38  1  0
 21 39  1  0
 21 40  1  0
 21 41  1  0
 22 42  1  0
M  CHG  2  11  -1  21   1
M  END
>  <UniqueID>  (3) 
3

>  <SMILES>  (3) 
CC(C)(C)OC(=O)n1c(C([NH-])=O)cc2ccc(C#CC[NH3+])cc21

>  <Energy>  (3) 
69.8245505619254

>  <Genealogy>  (3) 
CC(C)(C)OC(=O)n1c(C([NH-])=O)cc2ccc(C#CC[NH3+])cc21 (protonated)
CC(C)(C)OC(=O)n1c(C([NH-])=O)cc2ccc(C#CC[NH3+])cc21 (3D coordinates assigned)
CC(C)(C)OC(=O)n1c(C([NH-])=O)cc2ccc(C#CC[NH3+])cc21 (optimized conformer: 69.8245505619254 kcal/mol)

>  <smiles>  (3) 
CC(C)(C)OC(=O)n1c(C(N)=O)cc2ccc(C#CCN)cc21

>  <score_type>  (3) 
oracle

>  <origin>  (3) 
adg

>  <m_score__min__energy>  (3) 
-9.4499999999999993

>  <m_primary>  (3) 
energy

$$$$
3:0
     RDKit          3D

 39 40  0  0  0  0  0  0  0  0999 V2000
   -7.8730   20.0450  -33.4290 N   0  0  0  0  0  0  0  0  0  0  0  0
   -6.5660   19.4720  -33.5090 C   0  0  0  0  0  0  0  0  0  0  0  0
   -6.4200   18.3560  -34.0730 O   0  0  0  0  0  0  0  0  0  0  0  0
   -5.3910   20.1930  -32.9710 C   0  0  0  0  0  0  0  0  0  0  0  0
   -4.1040   20.0780  -33.4930 C   0  0  0  0  0  0  0  0  0  0  0  0
   -3.3020   20.8170  -32.6530 C   0  0  0  0  0  0  0  0  0  0  0  0
   -1.9290   21.0440  -32.6980 C   0  0  0  0  0  0  0  0  0  0  0  0
   -1.3640   21.8620  -31.7060 C   0  0  0  0  0  0  0  0  0  0  0  0
   -2.1780   22.4490  -30.7060 C   0  0  0  0  0  0  0  0  0  0  0  0
   -1.5610   23.3070  -29.6360 C   0  0  0  0  0  0  0  0  0  0  0  0
   -2.5990   24.7680  -29.3250 P   0  0  0  0  0  0  0  0  0  0  0  0
   -3.5210   24.5000  -28.1570 O   0  0  0  0  0  0  0  0  0  0  0  0
   -3.5200   25.1160  -30.7010 O   0  0  0  0  0  0  0  0  0  0  0  0
   -1.6080   26.0890  -28.9660 O   0  0  0  0  0  0  0  0  0  0  0  0
   -3.5660   22.1900  -30.6890 C   0  0  0  0  0  0  0  0  0  0  0  0
   -4.0990   21.3510  -31.6750 C   0  0  0  0  0  0  0  0  0  0  0  0
   -5.3840   20.9770  -31.8550 N   0  0  0  0  0  0  0  0  0  0  0  0
   -6.5060   21.3720  -31.0490 C   0  0  0  0  0  0  0  0  0  0  0  0
   -7.4710   20.5770  -30.8760 O   0  0  0  0  0  0  0  0  0  0  0  0
   -6.5320   22.6450  -30.4730 O   0  0  0  0  0  0  0  0  0  0  0  0
   -6.8980   23.8140  -31.1960 C   0  0  0  0  0  0  0  0  0  0  0  0
   -7.7620   23.4170  -32.3930 C   0  0  0  0  0  0  0  0  0  0  0  0
   -9.1940   23.0700  -31.9800 C   0  0  0  0  0  0  0  0  0  0  0  0
   -9.4840   21.7280  -32.2670 O   0  0  0  0  0  0  0  0  0  0  0  0
   -8.6900   19.5460  -33.8470 H   0  0  0  0  0  0  0  0  0  0  0  0
   -8.0430   20.9410  -32.9210 H   0  0  0  0  0  0  0  0  0  0  0  0
   -3.7947   19.5160  -34.3866 H   0  0  0  0  0  0  0  0  0  0  0  0
   -1.3060   20.5964  -33.4863 H   0  0  0  0  0  0  0  0  0  0  0  0
   -0.2799   22.0486  -31.7054 H   0  0  0  0  0  0  0  0  0  0  0  0
   -1.4700   22.7221  -28.7089 H   0  0  0  0  0  0  0  0  0  0  0  0
   -0.5668   23.6380  -29.9706 H   0  0  0  0  0  0  0  0  0  0  0  0
   -4.2129   22.6367  -29.9196 H   0  0  0  0  0  0  0  0  0  0  0  0
   -7.4670   24.4890  -30.5398 H   0  0  0  0  0  0  0  0  0  0  0  0
   -5.9919   24.3278  -31.5495 H   0  0  0  0  0  0  0  0  0  0  0  0
   -7.7913   24.2565  -33.1032 H   0  0  0  0  0  0  0  0  0  0  0  0
   -7.3154   22.5221  -32.8509 H   0  0  0  0  0  0  0  0  0  0  0  0
   -9.3090   23.2407  -30.8994 H   0  0  0  0  0  0  0  0  0  0  0  0
   -9.8885   23.7093  -32.5448 H   0  0  0  0  0  0  0  0  0  0  0  0
   -9.1380   21.1900  -31.5080 H   0  0  0  0  0  0  0  0  0  0  0  0
  1  2  1  0
  2  3  2  0
  2  4  1  0
  4  5  2  0
  5  6  1  0
  6  7  2  0
  7  8  1  0
  8  9  2  0
  9 10  1  0
 10 11  1  0
 11 12  2  0
 11 13  1  0
 11 14  1  0
  9 15  1  0
 15 16  2  0
 16 17  1  0
 17 18  1  0
 18 19  2  0
 18 20  1  0
 20 21  1  0
 21 22  1  0
 22 23  1  0
 23 24  1  0
 17  4  1  0
 16  6  1  0
  1 25  1  0
  1 26  1  0
  5 27  1  0
  7 28  1  0
  8 29  1  0
 10 30  1  0
 10 31  1  0
 15 32  1  0
 21 33  1  0
 21 34  1  0
 22 35  1  0
 22 36  1  0
 23 37  1  0
 23 38  1  0
 24 39  1  0
M  CHG  2  13  -1  14  -1
M  END
>  <UniqueID>  (4) 
4

>  <SMILES>  (4) 
NC(=O)c1cc2ccc(CP(=O)([O-])[O-])cc2n1C(=O)OCCCO

>  <Energy>  (4) 
66.17511008178592

>  <Genealogy>  (4) 
NC(=O)c1cc2ccc(CP(=O)([O-])[O-])cc2n1C(=O)OCCCO (protonated)
NC(=O)c1cc2ccc(CP(=O)([O-])[O-])cc2n1C(=O)OCCCO (3D coordinates assigned)
NC(=O)c1cc2ccc(CP(=O)([O-])[O-])cc2n1C(=O)OCCCO (optimized conformer: 66.17511008178592 kcal/mol)

>  <smiles>  (4) 
NC(=O)c1cc2ccc(CP(=O)(O)O)cc2n1C(=O)OCCCO

>  <score_type>  (4) 
oracle

>  <origin>  (4) 
adg

>  <m_score__min__energy>  (4) 
-11

>  <m_primary>  (4) 
energy

$$$$
4:0
     RDKit          3D

 55 56  0  0  0  0  0  0  0  0999 V2000
   -1.7850   20.7980  -33.4390 C   0  0  0  0  0  0  0  0  0  0  0  0
   -2.7140   19.6300  -33.1350 C   0  0  0  0  0  0  0  0  0  0  0  0
   -3.7390   19.5360  -34.1200 O   0  0  0  0  0  0  0  0  0  0  0  0
   -4.1790   18.3210  -34.6590 C   0  0  0  0  0  0  0  0  0  0  0  0
   -3.3590   17.3980  -34.9170 O   0  0  0  0  0  0  0  0  0  0  0  0
   -5.6390   18.0950  -34.9050 C   0  0  0  0  0  0  0  0  0  0  0  0
   -6.3740   17.9490  -33.6390 N   0  0  0  0  0  0  0  0  0  0  0  0
   -6.5770   16.5930  -33.1050 C   0  0  0  0  0  0  0  0  0  0  0  0
   -5.2850   15.8340  -33.0640 C   0  0  0  0  0  0  0  0  0  0  0  0
   -4.2930   16.3310  -32.4640 O   0  0  0  0  0  0  0  0  0  0  0  0
   -5.1760   14.6060  -33.7240 O   0  0  0  0  0  0  0  0  0  0  0  0
   -4.8750   13.3930  -33.0440 C   0  0  0  0  0  0  0  0  0  0  0  0
   -4.6070   13.6870  -31.5760 C   0  0  0  0  0  0  0  0  0  0  0  0
   -6.8910   19.1100  -32.9380 C   0  0  0  0  0  0  0  0  0  0  0  0
   -8.2920   19.2830  -32.7560 C   0  0  0  0  0  0  0  0  0  0  0  0
   -8.8030   20.4120  -32.0970 C   0  0  0  0  0  0  0  0  0  0  0  0
   -7.9000   21.3510  -31.6120 C   0  0  0  0  0  0  0  0  0  0  0  0
   -8.1260   22.5500  -30.9760 C   0  0  0  0  0  0  0  0  0  0  0  0
   -6.8610   23.0830  -30.7380 C   0  0  0  0  0  0  0  0  0  0  0  0
   -6.6350   24.3570  -30.0280 C   0  0  0  0  0  0  0  0  0  0  0  0
   -5.5580   24.5090  -29.1010 N   0  0  0  0  0  0  0  0  0  0  0  0
   -7.4350   25.3150  -30.2050 O   0  0  0  0  0  0  0  0  0  0  0  0
   -5.8930   22.2510  -31.2150 N   0  0  0  0  0  0  0  0  0  0  0  0
   -4.4800   22.5000  -31.2680 C   0  0  0  0  0  0  0  0  0  0  0  0
   -3.9250   22.7390  -32.3750 O   0  0  0  0  0  0  0  0  0  0  0  0
   -3.7250   22.4700  -30.0900 O   0  0  0  0  0  0  0  0  0  0  0  0
   -2.4910   23.1630  -29.9320 C   0  0  0  0  0  0  0  0  0  0  0  0
   -2.7880   24.8660  -29.3610 P   0  0  0  0  0  0  0  0  0  0  0  0
   -3.3790   24.8360  -27.9710 O   0  0  0  0  0  0  0  0  0  0  0  0
   -3.8570   25.6550  -30.4070 O   0  0  0  0  0  0  0  0  0  0  0  0
   -1.3200   25.7060  -29.3270 O   0  0  0  0  0  0  0  0  0  0  0  0
   -6.5470   21.1960  -31.7500 C   0  0  0  0  0  0  0  0  0  0  0  0
   -6.0090   20.0960  -32.4270 C   0  0  0  0  0  0  0  0  0  0  0  0
   -1.4325   21.2412  -32.4960 H   0  0  0  0  0  0  0  0  0  0  0  0
   -0.9229   20.4391  -34.0203 H   0  0  0  0  0  0  0  0  0  0  0  0
   -2.3287   21.5573  -34.0203 H   0  0  0  0  0  0  0  0  0  0  0  0
   -2.1316   18.6968  -33.1289 H   0  0  0  0  0  0  0  0  0  0  0  0
   -3.1801   19.7937  -32.1522 H   0  0  0  0  0  0  0  0  0  0  0  0
   -6.0466   18.9528  -35.4600 H   0  0  0  0  0  0  0  0  0  0  0  0
   -5.7557   17.1678  -35.4852 H   0  0  0  0  0  0  0  0  0  0  0  0
   -6.9847   16.6648  -32.0859 H   0  0  0  0  0  0  0  0  0  0  0  0
   -7.2776   16.0580  -33.7630 H   0  0  0  0  0  0  0  0  0  0  0  0
   -5.7276   12.7033  -33.1300 H   0  0  0  0  0  0  0  0  0  0  0  0
   -3.9833   12.9322  -33.4941 H   0  0  0  0  0  0  0  0  0  0  0  0
   -5.2167   13.0181  -30.9508 H   0  0  0  0  0  0  0  0  0  0  0  0
   -3.5415   13.5227  -31.3577 H   0  0  0  0  0  0  0  0  0  0  0  0
   -4.8690   14.7328  -31.3577 H   0  0  0  0  0  0  0  0  0  0  0  0
   -8.9856   18.5195  -33.1380 H   0  0  0  0  0  0  0  0  0  0  0  0
   -9.8867   20.5498  -31.9681 H   0  0  0  0  0  0  0  0  0  0  0  0
   -9.0976   22.9930  -30.7119 H   0  0  0  0  0  0  0  0  0  0  0  0
   -4.9860   23.6900  -28.8000 H   0  0  0  0  0  0  0  0  0  0  0  0
   -5.3870   25.4310  -28.6440 H   0  0  0  0  0  0  0  0  0  0  0  0
   -1.8713   22.6355  -29.1920 H   0  0  0  0  0  0  0  0  0  0  0  0
   -1.9742   23.1971  -30.9024 H   0  0  0  0  0  0  0  0  0  0  0  0
   -4.9216   19.9978  -32.5605 H   0  0  0  0  0  0  0  0  0  0  0  0
  1  2  1  0
  2  3  1  0
  3  4  1  0
  4  5  2  0
  4  6  1  0
  6  7  1  0
  7  8  1  0
  8  9  1  0
  9 10  2  0
  9 11  1  0
 11 12  1  0
 12 13  1  0
  7 14  1  0
 14 15  2  0
 15 16  1  0
 16 17  2  0
 17 18  1  0
 18 19  2  0
 19 20  1  0
 20 21  1  0
 20 22  2  0
 19 23  1  0
 23 24  1  0
 24 25  2  0
 24 26  1  0
 26 27  1  0
 27 28  1  0
 28 29  2  0
 28 30  1  0
 28 31  1  0
 23 32  1  0
 32 33  2  0
 33 14  1  0
 32 17  1  0
  1 34  1  0
  1 35  1  0
  1 36  1  0
  2 37  1  0
  2 38  1  0
  6 39  1  0
  6 40  1  0
  8 41  1  0
  8 42  1  0
 12 43  1  0
 12 44  1  0
 13 45  1  0
 13 46  1  0
 13 47  1  0
 15 48  1  0
 16 49  1  0
 18 50  1  0
 21 51  1  0
 21 52  1  0
 27 53  1  0
 27 54  1  0
 33 55  1  0
M  CHG  2  30  -1  31  -1
M  END
>  <UniqueID>  (5) 
5

>  <SMILES>  (5) 
CCOC(=O)CN(CC(=O)OCC)c1ccc2cc(C(N)=O)n(C(=O)OCP(=O)([O-])[O-])c2c1

>  <Energy>  (5) 
78.82160291938635

>  <Genealogy>  (5) 
CCOC(=O)CN(CC(=O)OCC)c1ccc2cc(C(N)=O)n(C(=O)OCP(=O)([O-])[O-])c2c1 (protonated)
CCOC(=O)CN(CC(=O)OCC)c1ccc2cc(C(N)=O)n(C(=O)OCP(=O)([O-])[O-])c2c1 (3D coordinates assigned)
CCOC(=O)CN(CC(=O)OCC)c1ccc2cc(C(N)=O)n(C(=O)OCP(=O)([O-])[O-])c2c1 (optimized conformer: 78.82160291938635 kcal/mol)

>  <smiles>  (5) 
CCOC(=O)CN(CC(=O)OCC)c1ccc2cc(C(N)=O)n(C(=O)OCP(=O)(O)O)c2c1

>  <score_type>  (5) 
oracle

>  <origin>  (5) 
adg

>  <m_score__min__energy>  (5) 
-11.99

>  <m_primary>  (5) 
energy

$$$$
5:0
     RDKit          3D

 43 44  0  0  0  0  0  0  0  0999 V2000
   -3.9360   24.1510  -27.5960 C   0  0  0  0  0  0  0  0  0  0  0  0
   -2.8400   24.5240  -28.4000 O   0  0  0  0  0  0  0  0  0  0  0  0
   -1.6610   24.5020  -27.6220 C   0  0  0  0  0  0  0  0  0  0  0  0
   -0.8820   23.2220  -27.9190 C   0  0  0  0  0  0  0  0  0  0  0  0
   -1.3790   22.5780  -29.1340 N   0  0  0  0  0  0  0  0  0  0  0  0
   -0.7420   21.4380  -29.7210 C   0  0  0  0  0  0  0  0  0  0  0  0
    0.2780   20.9290  -29.1790 O   0  0  0  0  0  0  0  0  0  0  0  0
   -1.2620   20.8970  -30.9000 O   0  0  0  0  0  0  0  0  0  0  0  0
   -2.6130   20.4600  -31.0220 C   0  0  0  0  0  0  0  0  0  0  0  0
   -3.4860   21.3590  -30.3410 O   0  0  0  0  0  0  0  0  0  0  0  0
   -3.9170   22.5670  -30.9010 C   0  0  0  0  0  0  0  0  0  0  0  0
   -3.0780   23.4340  -31.2700 O   0  0  0  0  0  0  0  0  0  0  0  0
   -5.3230   22.8360  -31.0220 N   0  0  0  0  0  0  0  0  0  0  0  0
   -5.9600   24.0340  -30.8770 C   0  0  0  0  0  0  0  0  0  0  0  0
   -5.3460   25.2860  -30.3930 C   0  0  0  0  0  0  0  0  0  0  0  0
   -4.0490   25.6640  -30.8500 N   0  0  0  0  0  0  0  0  0  0  0  0
   -5.9700   26.0470  -29.6100 O   0  0  0  0  0  0  0  0  0  0  0  0
   -7.3160   23.9030  -31.1650 C   0  0  0  0  0  0  0  0  0  0  0  0
   -7.4960   22.5770  -31.4870 C   0  0  0  0  0  0  0  0  0  0  0  0
   -8.6470   21.9000  -31.8770 C   0  0  0  0  0  0  0  0  0  0  0  0
   -8.5350   20.5340  -32.1840 C   0  0  0  0  0  0  0  0  0  0  0  0
   -7.2860   19.8670  -32.0870 C   0  0  0  0  0  0  0  0  0  0  0  0
   -7.1670   18.4160  -32.4800 C   0  0  0  0  0  0  0  0  0  0  0  0
   -6.2240   17.8020  -31.6770 F   0  0  0  0  0  0  0  0  0  0  0  0
   -8.3830   17.7680  -32.3270 F   0  0  0  0  0  0  0  0  0  0  0  0
   -6.7800   18.2970  -33.8040 F   0  0  0  0  0  0  0  0  0  0  0  0
   -6.1350   20.5980  -31.7110 C   0  0  0  0  0  0  0  0  0  0  0  0
   -6.2790   21.9540  -31.3930 C   0  0  0  0  0  0  0  0  0  0  0  0
   -3.6611   24.2446  -26.5350 H   0  0  0  0  0  0  0  0  0  0  0  0
   -4.7905   24.8089  -27.8128 H   0  0  0  0  0  0  0  0  0  0  0  0
   -4.2118   23.1084  -27.8128 H   0  0  0  0  0  0  0  0  0  0  0  0
   -1.0405   25.3755  -27.8709 H   0  0  0  0  0  0  0  0  0  0  0  0
   -1.9242   24.5330  -26.5544 H   0  0  0  0  0  0  0  0  0  0  0  0
    0.1813   23.4704  -28.0523 H   0  0  0  0  0  0  0  0  0  0  0  0
   -1.0120   22.5281  -27.0754 H   0  0  0  0  0  0  0  0  0  0  0  0
   -2.1920   23.0060  -29.6320 H   0  0  0  0  0  0  0  0  0  0  0  0
   -2.8880   20.4231  -32.0864 H   0  0  0  0  0  0  0  0  0  0  0  0
   -2.7080   19.4598  -30.5741 H   0  0  0  0  0  0  0  0  0  0  0  0
   -3.1880   25.3100  -30.3760 H   0  0  0  0  0  0  0  0  0  0  0  0
   -8.0816   24.6925  -31.1404 H   0  0  0  0  0  0  0  0  0  0  0  0
   -9.6149   22.4185  -31.9429 H   0  0  0  0  0  0  0  0  0  0  0  0
   -9.4264   19.9742  -32.5036 H   0  0  0  0  0  0  0  0  0  0  0  0
   -5.1490   20.1122  -31.6693 H   0  0  0  0  0  0  0  0  0  0  0  0
  1  2  1  0
  2  3  1  0
  3  4  1  0
  4  5  1  0
  5  6  1  0
  6  7  2  0
  6  8  1  0
  8  9  1  0
  9 10  1  0
 10 11  1  0
 11 12  2  0
 11 13  1  0
 13 14  1  0
 14 15  1  0
 15 16  1  0
 15 17  2  0
 14 18  2  0
 18 19  1  0
 19 20  2  0
 20 21  1  0
 21 22  2  0
 22 23  1  0
 23 24  1  0
 23 25  1  0
 23 26  1  0
 22 27  1  0
 27 28  2  0
 28 13  1  0
 28 19  1  0
  1 29  1  0
  1 30  1  0
  1 31  1  0
  3 32  1  0
  3 33  1  0
  4 34  1  0
  4 35  1  0
  5 36  1  0
  9 37  1  0
  9 38  1  0
 16 39  1  0
 18 40  1  0
 20 41  1  0
 21 42  1  0
 27 43  1  0
M  CHG  1  16  -1
M  END
>  <UniqueID>  (6) 
6

>  <SMILES>  (6) 
COCCNC(=O)OCOC(=O)n1c(C([NH-])=O)cc2ccc(C(F)(F)F)cc21

>  <Energy>  (6) 
74.98567272940917

>  <Genealogy>  (6) 
COCCNC(=O)OCOC(=O)n1c(C([NH-])=O)cc2ccc(C(F)(F)F)cc21 (protonated)
COCCNC(=O)OCOC(=O)n1c(C([NH-])=O)cc2ccc(C(F)(F)F)cc21 (3D coordinates assigned)
COCCNC(=O)OCOC(=O)n1c(C([NH-])=O)cc2ccc(C(F)(F)F)cc21 (optimized conformer: 74.98567272940917 kcal/mol)

>  <smiles>  (6) 
COCCNC(=O)OCOC(=O)n1c(C(N)=O)cc2ccc(C(F)(F)F)cc21

>  <score_type>  (6) 
oracle

>  <origin>  (6) 
adg

>  <m_score__min__energy>  (6) 
-9.1099999999999994

>  <m_primary>  (6) 
energy

$$$$
6:0
     RDKit          3D

 42 44  0  0  0  0  0  0  0  0999 V2000
   -5.2510   24.9570  -28.8460 N   0  0  0  0  0  0  0  0  0  0  0  0
   -5.1970   24.6270  -30.2350 C   0  0  0  0  0  0  0  0  0  0  0  0
   -4.3630   25.2140  -30.9740 O   0  0  0  0  0  0  0  0  0  0  0  0
   -6.0810   23.5830  -30.7980 C   0  0  0  0  0  0  0  0  0  0  0  0
   -7.4720   23.6670  -30.8090 C   0  0  0  0  0  0  0  0  0  0  0  0
   -7.9050   22.4650  -31.3200 C   0  0  0  0  0  0  0  0  0  0  0  0
   -9.1970   22.0110  -31.5630 C   0  0  0  0  0  0  0  0  0  0  0  0
   -9.3540   20.7320  -32.1240 C   0  0  0  0  0  0  0  0  0  0  0  0
   -8.2200   19.9320  -32.4370 C   0  0  0  0  0  0  0  0  0  0  0  0
   -8.3550   18.6210  -33.0180 N   0  0  0  0  0  0  0  0  0  0  0  0
   -7.5270   17.4690  -32.6620 C   0  0  0  0  0  0  0  0  0  0  0  0
   -6.1470   17.6220  -33.2220 C   0  0  0  0  0  0  0  0  0  0  0  0
   -4.9990   17.0070  -32.7410 C   0  0  0  0  0  0  0  0  0  0  0  0
   -3.8550   17.3150  -33.4870 C   0  0  0  0  0  0  0  0  0  0  0  0
   -4.1010   18.1640  -34.5600 C   0  0  0  0  0  0  0  0  0  0  0  0
   -5.7430   18.5290  -34.5800 S   0  0  0  0  0  0  0  0  0  0  0  0
   -6.9260   20.4350  -32.1770 C   0  0  0  0  0  0  0  0  0  0  0  0
   -6.8000   21.7040  -31.6010 C   0  0  0  0  0  0  0  0  0  0  0  0
   -5.6710   22.3770  -31.2850 N   0  0  0  0  0  0  0  0  0  0  0  0
   -4.3190   21.9380  -31.4990 C   0  0  0  0  0  0  0  0  0  0  0  0
   -3.7620   22.1370  -32.6130 O   0  0  0  0  0  0  0  0  0  0  0  0
   -3.6200   21.3110  -30.4610 O   0  0  0  0  0  0  0  0  0  0  0  0
   -2.1970   21.2460  -30.3990 C   0  0  0  0  0  0  0  0  0  0  0  0
   -1.6220   22.5490  -29.8430 C   0  0  0  0  0  0  0  0  0  0  0  0
   -2.4870   23.6170  -30.1160 O   0  0  0  0  0  0  0  0  0  0  0  0
   -5.9640   24.5310  -28.2140 H   0  0  0  0  0  0  0  0  0  0  0  0
   -4.5960   25.6690  -28.4520 H   0  0  0  0  0  0  0  0  0  0  0  0
   -8.0918   24.5139  -30.4794 H   0  0  0  0  0  0  0  0  0  0  0  0
  -10.0706   22.6349  -31.3231 H   0  0  0  0  0  0  0  0  0  0  0  0
  -10.3644   20.3454  -32.3232 H   0  0  0  0  0  0  0  0  0  0  0  0
   -9.0710   18.4790  -33.7670 H   0  0  0  0  0  0  0  0  0  0  0  0
   -7.4665   17.3914  -31.5664 H   0  0  0  0  0  0  0  0  0  0  0  0
   -7.9826   16.5601  -33.0820 H   0  0  0  0  0  0  0  0  0  0  0  0
   -4.9892   16.3448  -31.8627 H   0  0  0  0  0  0  0  0  0  0  0  0
   -2.8559   16.9223  -33.2468 H   0  0  0  0  0  0  0  0  0  0  0  0
   -3.3503   18.5339  -35.2739 H   0  0  0  0  0  0  0  0  0  0  0  0
   -6.0339   19.8402  -32.4227 H   0  0  0  0  0  0  0  0  0  0  0  0
   -1.9014   20.4124  -29.7450 H   0  0  0  0  0  0  0  0  0  0  0  0
   -1.8047   21.0905  -31.4148 H   0  0  0  0  0  0  0  0  0  0  0  0
   -1.4945   22.4542  -28.7545 H   0  0  0  0  0  0  0  0  0  0  0  0
   -0.6503   22.7441  -30.3203 H   0  0  0  0  0  0  0  0  0  0  0  0
   -2.9950   23.3690  -30.9320 H   0  0  0  0  0  0  0  0  0  0  0  0
  1  2  1  0
  2  3  2  0
  2  4  1  0
  4  5  2  0
  5  6  1  0
  6  7  2  0
  7  8  1  0
  8  9  2  0
  9 10  1  0
 10 11  1  0
 11 12  1  0
 12 13  2  0
 13 14  1  0
 14 15  2  0
 15 16  1  0
  9 17  1  0
 17 18  2  0
 18 19  1  0
 19 20  1  0
 20 21  2  0
 20 22  1  0
 22 23  1  0
 23 24  1  0
 24 25  1  0
 19  4  1  0
 18  6  1  0
 16 12  1  0
  1 26  1  0
  1 27  1  0
  5 28  1  0
  7 29  1  0
  8 30  1  0
 10 31  1  0
 11 32  1  0
 11 33  1  0
 13 34  1  0
 14 35  1  0
 15 36  1  0
 17 37  1  0
 23 38  1  0
 23 39  1  0
 24 40  1  0
 24 41  1  0
 25 42  1  0
M  END
>  <UniqueID>  (7) 
7

>  <SMILES>  (7) 
NC(=O)c1cc2ccc(NCc3cccs3)cc2n1C(=O)OCCO

>  <Energy>  (7) 
103.24022465481083

>  <Genealogy>  (7) 
NC(=O)c1cc2ccc(NCc3cccs3)cc2n1C(=O)OCCO (3D coordinates assigned)
NC(=O)c1cc2ccc(NCc3cccs3)cc2n1C(=O)OCCO (optimized conformer: 103.24022465481083 kcal/mol)

>  <smiles>  (7) 
NC(=O)c1cc2ccc(NCc3cccs3)cc2n1C(=O)OCCO

>  <score_type>  (7) 
oracle

>  <origin>  (7) 
adg

>  <m_score__min__energy>  (7) 
-9.0399999999999991

>  <m_primary>  (7) 
energy

$$$$
7:0
     RDKit          3D

 38 39  0  0  0  0  0  0  0  0999 V2000
   -9.3530   21.5790  -30.8530 C   0  0  0  0  0  0  0  0  0  0  0  0
   -7.9930   21.4550  -31.4020 N   0  0  0  0  0  0  0  0  0  0  0  0
   -7.5760   22.7480  -31.9730 C   0  0  0  0  0  0  0  0  0  0  0  0
   -7.9500   20.3840  -32.4210 C   0  0  0  0  0  0  0  0  0  0  0  0
   -6.5950   19.6530  -32.4280 C   0  0  0  0  0  0  0  0  0  0  0  0
   -5.5580   20.2830  -33.3740 C   0  0  0  0  0  0  0  0  0  0  0  0
   -4.3350   20.7620  -32.6360 C   0  0  0  0  0  0  0  0  0  0  0  0
   -3.1790   19.9460  -32.5740 C   0  0  0  0  0  0  0  0  0  0  0  0
   -2.0520   20.3550  -31.8410 C   0  0  0  0  0  0  0  0  0  0  0  0
   -2.1110   21.5810  -31.1850 C   0  0  0  0  0  0  0  0  0  0  0  0
   -1.1830   22.1970  -30.3790 C   0  0  0  0  0  0  0  0  0  0  0  0
   -1.7800   23.3880  -29.9710 C   0  0  0  0  0  0  0  0  0  0  0  0
   -1.0900   24.4020  -29.1460 C   0  0  0  0  0  0  0  0  0  0  0  0
   -1.6780   25.6880  -28.9650 N   0  0  0  0  0  0  0  0  0  0  0  0
   -0.0030   24.1350  -28.5690 O   0  0  0  0  0  0  0  0  0  0  0  0
   -3.0320   23.5020  -30.5000 N   0  0  0  0  0  0  0  0  0  0  0  0
   -4.0010   24.5370  -30.2650 C   0  0  0  0  0  0  0  0  0  0  0  0
   -3.8690   25.6680  -30.8040 O   0  0  0  0  0  0  0  0  0  0  0  0
   -5.0800   24.3090  -29.4210 O   0  0  0  0  0  0  0  0  0  0  0  0
   -3.2170   22.3880  -31.2450 C   0  0  0  0  0  0  0  0  0  0  0  0
   -4.3570   22.0000  -31.9580 C   0  0  0  0  0  0  0  0  0  0  0  0
   -9.3066   21.5748  -29.7540 H   0  0  0  0  0  0  0  0  0  0  0  0
   -9.8029   22.5219  -31.1974 H   0  0  0  0  0  0  0  0  0  0  0  0
   -9.9660   20.7330  -31.1974 H   0  0  0  0  0  0  0  0  0  0  0  0
   -7.3489   23.4521  -31.1590 H   0  0  0  0  0  0  0  0  0  0  0  0
   -6.6791   22.6028  -32.5931 H   0  0  0  0  0  0  0  0  0  0  0  0
   -8.3887   23.1542  -32.5931 H   0  0  0  0  0  0  0  0  0  0  0  0
   -8.7459   19.6559  -32.2056 H   0  0  0  0  0  0  0  0  0  0  0  0
   -8.0930   20.8468  -33.4086 H   0  0  0  0  0  0  0  0  0  0  0  0
   -6.1872   19.6673  -31.4065 H   0  0  0  0  0  0  0  0  0  0  0  0
   -6.7824   18.6315  -32.7904 H   0  0  0  0  0  0  0  0  0  0  0  0
   -5.2524   19.5312  -34.1166 H   0  0  0  0  0  0  0  0  0  0  0  0
   -6.0251   21.1540  -33.8569 H   0  0  0  0  0  0  0  0  0  0  0  0
   -3.1632   18.9827  -33.1048 H   0  0  0  0  0  0  0  0  0  0  0  0
   -1.1513   19.7258  -31.7874 H   0  0  0  0  0  0  0  0  0  0  0  0
   -0.1816   21.8279  -30.1127 H   0  0  0  0  0  0  0  0  0  0  0  0
   -2.7160   25.8100  -28.9740 H   0  0  0  0  0  0  0  0  0  0  0  0
   -5.2483   22.6439  -31.9893 H   0  0  0  0  0  0  0  0  0  0  0  0
  1  2  1  0
  2  3  1  0
  2  4  1  0
  4  5  1  0
  5  6  1  0
  6  7  1  0
  7  8  2  0
  8  9  1  0
  9 10  2  0
 10 11  1  0
 11 12  2  0
 12 13  1  0
 13 14  1  0
 13 15  2  0
 12 16  1  0
 16 17  1  0
 17 18  2  0
 17 19  1  0
 16 20  1  0
 20 21  2  0
 21  7  1  0
 20 10  1  0
  1 22  1  0
  1 23  1  0
  1 24  1  0
  3 25  1  0
  3 26  1  0
  3 27  1  0
  4 28  1  0
  4 29  1  0
  5 30  1  0
  5 31  1  0
  6 32  1  0
  6 33  1  0
  8 34  1  0
  9 35  1  0
 11 36  1  0
 14 37  1  0
 21 38  1  0
M  CHG  2  14  -1  19  -1
M  END
>  <UniqueID>  (8) 
8

>  <SMILES>  (8) 
CN(C)CCCc1ccc2cc(C([NH-])=O)n(C(=O)[O-])c2c1

>  <Energy>  (8) 
72.97427154135492

>  <Genealogy>  (8) 
CN(C)CCCc1ccc2cc(C([NH-])=O)n(C(=O)[O-])c2c1 (protonated)
CN(C)CCCc1ccc2cc(C([NH-])=O)n(C(=O)[O-])c2c1 (3D coordinates assigned)
CN(C)CCCc1ccc2cc(C([NH-])=O)n(C(=O)[O-])c2c1 (optimized conformer: 72.97427154135492 kcal/mol)

>  <smiles>  (8) 
CN(C)CCCc1ccc2cc(C(N)=O)n(C(=O)O)c2c1

>  <score_type>  (8) 
oracle

>  <origin>  (8) 
adg

>  <m_score__min__energy>  (8) 
-11.09

>  <m_primary>  (8) 
energy

$$$$
8:0
     RDKit          3D

 41 42  0  0  0  0  0  0  0  0999 V2000
   -2.3473   22.8957  -26.5881 H   0  0  0  0  0  0  0  0  0  0  0  0
   -1.8500   22.5260  -27.4970 C   0  0  0  0  0  0  0  0  0  0  0  0
   -2.3630   22.9800  -28.8090 C   0  0  0  0  0  0  0  0  0  0  0  0
   -1.8140   24.2570  -29.3110 C   0  0  0  0  0  0  0  0  0  0  0  0
   -2.5310   25.2930  -29.3150 O   0  0  0  0  0  0  0  0  0  0  0  0
   -0.4830   24.3550  -29.6970 O   0  0  0  0  0  0  0  0  0  0  0  0
   -3.1570   22.1720  -29.5620 C   0  0  0  0  0  0  0  0  0  0  0  0
   -3.7120   22.5940  -30.8780 C   0  0  0  0  0  0  0  0  0  0  0  0
   -2.9150   22.8830  -31.8110 O   0  0  0  0  0  0  0  0  0  0  0  0
   -5.1300   22.6570  -31.1210 N   0  0  0  0  0  0  0  0  0  0  0  0
   -5.9370   23.7550  -31.0900 C   0  0  0  0  0  0  0  0  0  0  0  0
   -5.5390   25.0970  -30.6210 C   0  0  0  0  0  0  0  0  0  0  0  0
   -6.3810   25.8410  -30.0530 O   0  0  0  0  0  0  0  0  0  0  0  0
   -4.2140   25.5840  -30.8420 N   0  0  0  0  0  0  0  0  0  0  0  0
   -3.9530   26.5480  -30.5380 H   0  0  0  0  0  0  0  0  0  0  0  0
   -3.4760   24.9740  -31.2590 H   0  0  0  0  0  0  0  0  0  0  0  0
   -7.2460   23.4080  -31.4210 C   0  0  0  0  0  0  0  0  0  0  0  0
   -8.1148   24.0786  -31.4952 H   0  0  0  0  0  0  0  0  0  0  0  0
   -7.2210   22.0500  -31.6350 C   0  0  0  0  0  0  0  0  0  0  0  0
   -8.2510   21.1770  -31.9680 C   0  0  0  0  0  0  0  0  0  0  0  0
   -9.2799   21.5407  -32.1066 H   0  0  0  0  0  0  0  0  0  0  0  0
   -7.9370   19.8160  -32.1220 C   0  0  0  0  0  0  0  0  0  0  0  0
   -8.7337   19.0993  -32.3704 H   0  0  0  0  0  0  0  0  0  0  0  0
   -6.6050   19.3550  -31.9610 C   0  0  0  0  0  0  0  0  0  0  0  0
   -6.2880   17.8870  -32.0900 C   0  0  0  0  0  0  0  0  0  0  0  0
   -6.5050   17.2670  -30.8730 F   0  0  0  0  0  0  0  0  0  0  0  0
   -4.9670   17.7030  -32.4610 F   0  0  0  0  0  0  0  0  0  0  0  0
   -7.0920   17.2950  -33.0480 F   0  0  0  0  0  0  0  0  0  0  0  0
   -5.5910   20.2710  -31.5940 C   0  0  0  0  0  0  0  0  0  0  0  0
   -4.5567   19.9319  -31.4350 H   0  0  0  0  0  0  0  0  0  0  0  0
   -5.9350   21.6190  -31.4380 C   0  0  0  0  0  0  0  0  0  0  0  0
   -3.4870   20.7750  -29.0910 C   0  0  0  0  0  0  0  0  0  0  0  0
   -3.4928   20.7506  -27.9913 H   0  0  0  0  0  0  0  0  0  0  0  0
   -4.4783   20.4851  -29.4694 H   0  0  0  0  0  0  0  0  0  0  0  0
   -2.7302   20.0721  -29.4694 H   0  0  0  0  0  0  0  0  0  0  0  0
   -0.8150   21.6910  -27.3560 C   0  0  0  0  0  0  0  0  0  0  0  0
   -0.5255   21.3836  -26.3403 H   0  0  0  0  0  0  0  0  0  0  0  0
   -0.0310   21.1540  -28.5130 C   0  0  0  0  0  0  0  0  0  0  0  0
    0.8222   20.5696  -28.1381 H   0  0  0  0  0  0  0  0  0  0  0  0
   -0.6771   20.5079  -29.1255 H   0  0  0  0  0  0  0  0  0  0  0  0
    0.3379   21.9899  -29.1255 H   0  0  0  0  0  0  0  0  0  0  0  0
  1  2  1  0
  2  3  1  0
  3  4  1  0
  4  5  2  0
  4  6  1  0
  3  7  2  0
  7  8  1  0
  8  9  2  0
  8 10  1  0
 10 11  1  0
 11 12  1  0
 12 13  2  0
 12 14  1  0
 14 15  1  0
 14 16  1  0
 11 17  2  0
 17 18  1  0
 17 19  1  0
 19 20  2  0
 20 21  1  0
 20 22  1  0
 22 23  1  0
 22 24  2  0
 24 25  1  0
 25 26  1  0
 25 27  1  0
 25 28  1  0
 24 29  1  0
 29 30  1  0
 29 31  2  0
  7 32  1  0
 32 33  1  0
 32 34  1  0
 32 35  1  0
  2 36  2  0
 36 37  1  0
 36 38  1  0
 38 39  1  0
 38 40  1  0
 38 41  1  0
 31 10  1  0
 31 19  1  0
M  CHG  1   6  -1
M  END
>  <UniqueID>  (9) 
9

>  <SMILES>  (9) 
C/C=C\C(C(=O)[O-])=C(/C)C(=O)n1c(C(N)=O)cc2ccc(C(F)(F)F)cc21

>  <Energy>  (9) 
93.91966400365219

>  <Genealogy>  (9) 
C/C=C\C(C(=O)[O-])=C(/C)C(=O)n1c(C(N)=O)cc2ccc(C(F)(F)F)cc21 (protonated)
C/C=C\C(C(=O)[O-])=C(/C)C(=O)n1c(C(N)=O)cc2ccc(C(F)(F)F)cc21 (cis-trans isomerization)
C/C=C\C(C(=O)[O-])=C(/C)C(=O)n1c(C(N)=O)cc2ccc(C(F)(F)F)cc21 (3D coordinates assigned)
C/C=C\C(C(=O)[O-])=C(/C)C(=O)n1c(C(N)=O)cc2ccc(C(F)(F)F)cc21 (optimized conformer: 93.91966400365219 kcal/mol)

>  <smiles>  (9) 
C/C=C\C(C(=O)O)=C(/C)C(=O)n1c(C(N)=O)cc2ccc(C(F)(F)F)cc21

>  <score_type>  (9) 
oracle

>  <origin>  (9) 
adg

>  <m_score__min__energy>  (9) 
-11.94

>  <m_primary>  (9) 
energy

$$$$
9:0
     RDKit          3D

 46 48  0  0  0  0  0  0  0  0999 V2000
   -7.0800   24.5930  -30.1910 C   0  0  0  0  0  0  0  0  0  0  0  0
   -7.2970   23.5600  -31.2980 C   0  0  0  0  0  0  0  0  0  0  0  0
   -6.1980   23.6890  -32.3590 C   0  0  0  0  0  0  0  0  0  0  0  0
   -8.5510   23.7940  -31.9040 O   0  0  0  0  0  0  0  0  0  0  0  0
   -9.1830   22.5540  -31.9380 C   0  0  0  0  0  0  0  0  0  0  0  0
   -8.5180   21.7350  -30.8670 C   0  0  1  0  0  0  0  0  0  0  0  0
   -8.4400   20.2390  -31.1990 C   0  0  0  0  0  0  0  0  0  0  0  0
   -7.0960   19.8500  -31.4850 O   0  0  0  0  0  0  0  0  0  0  0  0
   -6.4700   20.0550  -32.7200 C   0  0  0  0  0  0  0  0  0  0  0  0
   -7.1560   20.3050  -33.7500 O   0  0  0  0  0  0  0  0  0  0  0  0
   -5.0360   20.0180  -32.8090 N   0  0  0  0  0  0  0  0  0  0  0  0
   -4.2730   19.2030  -33.5940 C   0  0  0  0  0  0  0  0  0  0  0  0
   -4.7870   18.2860  -34.6350 C   0  0  0  0  0  0  0  0  0  0  0  0
   -6.0860   18.4810  -35.2000 N   0  0  0  0  0  0  0  0  0  0  0  0
   -4.0980   17.3020  -35.0090 O   0  0  0  0  0  0  0  0  0  0  0  0
   -2.9180   19.4210  -33.3520 C   0  0  0  0  0  0  0  0  0  0  0  0
   -2.8720   20.4010  -32.3870 C   0  0  0  0  0  0  0  0  0  0  0  0
   -1.7760   20.9980  -31.7710 C   0  0  0  0  0  0  0  0  0  0  0  0
   -2.0220   21.9650  -30.7810 C   0  0  0  0  0  0  0  0  0  0  0  0
   -3.3500   22.3040  -30.4190 C   0  0  0  0  0  0  0  0  0  0  0  0
   -3.6020   23.3420  -29.3610 C   0  0  0  0  0  0  0  0  0  0  0  0
   -3.1880   24.6920  -29.8500 C   0  0  0  0  0  0  0  0  0  0  0  0
   -3.8690   25.2830  -30.7290 O   0  0  0  0  0  0  0  0  0  0  0  0
   -2.0400   25.2940  -29.3480 O   0  0  0  0  0  0  0  0  0  0  0  0
   -4.4360   21.6880  -31.0780 C   0  0  0  0  0  0  0  0  0  0  0  0
   -4.1610   20.7430  -32.0740 C   0  0  0  0  0  0  0  0  0  0  0  0
   -7.2370   22.2650  -30.7350 O   0  0  0  0  0  0  0  0  0  0  0  0
   -7.1823   24.1061  -29.2100 H   0  0  0  0  0  0  0  0  0  0  0  0
   -6.0719   25.0233  -30.2835 H   0  0  0  0  0  0  0  0  0  0  0  0
   -7.8298   25.3925  -30.2835 H   0  0  0  0  0  0  0  0  0  0  0  0
   -5.2223   23.8035  -31.8642 H   0  0  0  0  0  0  0  0  0  0  0  0
   -6.1869   22.7860  -32.9871 H   0  0  0  0  0  0  0  0  0  0  0  0
   -6.3963   24.5700  -32.9871 H   0  0  0  0  0  0  0  0  0  0  0  0
  -10.2569   22.6639  -31.7268 H   0  0  0  0  0  0  0  0  0  0  0  0
   -9.0979   22.0794  -32.9267 H   0  0  0  0  0  0  0  0  0  0  0  0
   -9.1059   21.7902  -29.9390 H   0  0  0  0  0  0  0  0  0  0  0  0
   -8.8074   19.6596  -30.3392 H   0  0  0  0  0  0  0  0  0  0  0  0
   -9.0591   20.0432  -32.0869 H   0  0  0  0  0  0  0  0  0  0  0  0
   -6.4610   17.7980  -35.8940 H   0  0  0  0  0  0  0  0  0  0  0  0
   -6.6640   19.3150  -34.9570 H   0  0  0  0  0  0  0  0  0  0  0  0
   -2.0658   18.9166  -33.8309 H   0  0  0  0  0  0  0  0  0  0  0  0
   -0.7486   20.7215  -32.0504 H   0  0  0  0  0  0  0  0  0  0  0  0
   -1.1770   22.4629  -30.2830 H   0  0  0  0  0  0  0  0  0  0  0  0
   -4.6743   23.3578  -29.1163 H   0  0  0  0  0  0  0  0  0  0  0  0
   -3.0148   23.0902  -28.4656 H   0  0  0  0  0  0  0  0  0  0  0  0
   -5.4730   21.9442  -30.8154 H   0  0  0  0  0  0  0  0  0  0  0  0
  1  2  1  0
  2  3  1  0
  2  4  1  0
  4  5  1  0
  5  6  1  0
  6  7  1  0
  7  8  1  0
  8  9  1  0
  9 10  2  0
  9 11  1  0
 11 12  1  0
 12 13  1  0
 13 14  1  0
 13 15  2  0
 12 16  2  0
 16 17  1  0
 17 18  2  0
 18 19  1  0
 19 20  2  0
 20 21  1  0
 21 22  1  0
 22 23  2  0
 22 24  1  0
 20 25  1  0
 25 26  2  0
  6 27  1  0
 27  2  1  0
 26 11  1  0
 26 17  1  0
  1 28  1  0
  1 29  1  0
  1 30  1  0
  3 31  1  0
  3 32  1  0
  3 33  1  0
  5 34  1  0
  5 35  1  0
  6 36  1  1
  7 37  1  0
  7 38  1  0
 14 39  1  0
 14 40  1  0
 16 41  1  0
 18 42  1  0
 19 43  1  0
 21 44  1  0
 21 45  1  0
 25 46  1  0
M  CHG  1  24  -1
M  END
>  <UniqueID>  (10) 
10

>  <SMILES>  (10) 
CC1(C)OC[C@@H](COC(=O)n2c(C(N)=O)cc3ccc(CC(=O)[O-])cc32)O1

>  <Energy>  (10) 
74.366554465824

>  <Genealogy>  (10) 
CC1(C)OC[C@@H](COC(=O)n2c(C(N)=O)cc3ccc(CC(=O)[O-])cc32)O1 (protonated)
CC1(C)OC[C@@H](COC(=O)n2c(C(N)=O)cc3ccc(CC(=O)[O-])cc32)O1 (3D coordinates assigned)
CC1(C)OC[C@@H](COC(=O)n2c(C(N)=O)cc3ccc(CC(=O)[O-])cc32)O1 (nonaromatic ring conformer: 74.366554465824 kcal/mol)

>  <smiles>  (10) 
CC1(C)OC[C@@H](COC(=O)n2c(C(N)=O)cc3ccc(CC(=O)O)cc32)O1

>  <score_type>  (10) 
oracle

>  <origin>  (10) 
adg

>  <m_score__min__energy>  (10) 
-10.56

>  <m_primary>  (10) 
energy

$$$$
10:0
     RDKit          3D

 31 32  0  0  0  0  0  0  0  0999 V2000
   -6.8640   17.3090  -33.0340 C   0  0  0  0  0  0  0  0  0  0  0  0
   -6.9710   18.4630  -32.7000 C   0  0  0  0  0  0  0  0  0  0  0  0
   -7.1000   19.8400  -32.3010 C   0  0  0  0  0  0  0  0  0  0  0  0
   -8.3630   20.4730  -32.3550 C   0  0  0  0  0  0  0  0  0  0  0  0
   -8.5030   21.8150  -31.9580 C   0  0  0  0  0  0  0  0  0  0  0  0
   -7.3660   22.4870  -31.5210 C   0  0  0  0  0  0  0  0  0  0  0  0
   -7.2220   23.7780  -31.0640 C   0  0  0  0  0  0  0  0  0  0  0  0
   -5.8680   23.9130  -30.7600 C   0  0  0  0  0  0  0  0  0  0  0  0
   -5.2560   25.1840  -30.3190 C   0  0  0  0  0  0  0  0  0  0  0  0
   -3.8660   25.4150  -30.5410 N   0  0  0  0  0  0  0  0  0  0  0  0
   -5.9360   26.0560  -29.7180 O   0  0  0  0  0  0  0  0  0  0  0  0
   -5.2040   22.7480  -31.0100 N   0  0  0  0  0  0  0  0  0  0  0  0
   -3.8150   22.4590  -30.7880 C   0  0  0  0  0  0  0  0  0  0  0  0
   -3.2050   21.6670  -31.5570 O   0  0  0  0  0  0  0  0  0  0  0  0
   -3.1440   23.0680  -29.7230 O   0  0  0  0  0  0  0  0  0  0  0  0
   -1.7240   23.2090  -29.6770 C   0  0  0  0  0  0  0  0  0  0  0  0
   -1.3570   24.4290  -29.0760 O   0  0  0  0  0  0  0  0  0  0  0  0
   -2.3310   24.6490  -27.6970 P   0  0  0  0  0  0  0  0  0  0  0  0
   -4.0150   24.6120  -27.8380 O   0  0  0  0  0  0  0  0  0  0  0  0
   -1.6000   24.9180  -26.1540 S   0  0  0  0  0  0  0  0  0  0  0  0
   -6.1330   21.8880  -31.4800 C   0  0  0  0  0  0  0  0  0  0  0  0
   -5.9670   20.5490  -31.8550 C   0  0  0  0  0  0  0  0  0  0  0  0
   -6.7664   16.2565  -33.3386 H   0  0  0  0  0  0  0  0  0  0  0  0
   -9.2409   19.9129  -32.7094 H   0  0  0  0  0  0  0  0  0  0  0  0
   -9.4809   22.3175  -31.9920 H   0  0  0  0  0  0  0  0  0  0  0  0
   -8.0080   24.5406  -30.9607 H   0  0  0  0  0  0  0  0  0  0  0  0
   -3.1710   25.2880  -29.7720 H   0  0  0  0  0  0  0  0  0  0  0  0
   -1.2988   22.3786  -29.0942 H   0  0  0  0  0  0  0  0  0  0  0  0
   -1.3369   23.1951  -30.7066 H   0  0  0  0  0  0  0  0  0  0  0  0
   -4.2210   25.2920  -28.5270 H   0  0  0  0  0  0  0  0  0  0  0  0
   -4.9807   20.0648  -31.8029 H   0  0  0  0  0  0  0  0  0  0  0  0
  1  2  3  0
  2  3  1  0
  3  4  2  0
  4  5  1  0
  5  6  2  0
  6  7  1  0
  7  8  2  0
  8  9  1  0
  9 10  1  0
  9 11  2  0
  8 12  1  0
 12 13  1  0
 13 14  2  0
 13 15  1  0
 15 16  1  0
 16 17  1  0
 17 18  1  0
 18 19  1  0
 18 20  2  0
 12 21  1  0
 21 22  2  0
 22  3  1  0
 21  6  1  0
  1 23  1  0
  4 24  1  0
  5 25  1  0
  7 26  1  0
 10 27  1  0
 16 28  1  0
 16 29  1  0
 19 30  1  0
 22 31  1  0
M  CHG  2  10  -1  18   1
M  END
>  <UniqueID>  (11) 
11

>  <SMILES>  (11) 
C#Cc1ccc2cc(C([NH-])=O)n(C(=O)OCO[P+](O)=S)c2c1

>  <Energy>  (11) 
86.33753994774129

>  <Genealogy>  (11) 
C#Cc1ccc2cc(C([NH-])=O)n(C(=O)OCO[P+](O)=S)c2c1 (protonated)
C#Cc1ccc2cc(C([NH-])=O)n(C(=O)OCO[P+](O)=S)c2c1 (chirality)
C#Cc1ccc2cc(C([NH-])=O)n(C(=O)OCO[P+](O)=S)c2c1 (3D coordinates assigned)
C#Cc1ccc2cc(C([NH-])=O)n(C(=O)OCO[P+](O)=S)c2c1 (optimized conformer: 86.33753994774129 kcal/mol)

>  <smiles>  (11) 
C#Cc1ccc2cc(C(N)=O)n(C(=O)OCO[P+]([O-])=S)c2c1

>  <score_type>  (11) 
oracle

>  <origin>  (11) 
adg

>  <m_score__min__energy>  (11) 
-9.3399999999999999

>  <m_primary>  (11) 
energy

$$$$
11:0
     RDKit          3D

 47 48  0  0  0  0  0  0  0  0999 V2000
   -1.6850   17.6460  -33.4120 C   0  0  0  0  0  0  0  0  0  0  0  0
   -2.8830   16.7230  -33.6170 C   0  0  0  0  0  0  0  0  0  0  0  0
   -2.8120   15.6790  -32.7100 F   0  0  0  0  0  0  0  0  0  0  0  0
   -2.8250   16.1830  -34.8930 F   0  0  0  0  0  0  0  0  0  0  0  0
   -4.1730   17.4910  -33.4350 C   0  0  0  0  0  0  0  0  0  0  0  0
   -5.4230   16.8220  -33.4950 C   0  0  0  0  0  0  0  0  0  0  0  0
   -6.6220   17.5220  -33.2860 C   0  0  0  0  0  0  0  0  0  0  0  0
   -6.5430   18.8790  -32.9900 C   0  0  0  0  0  0  0  0  0  0  0  0
   -7.5460   19.7960  -32.7770 C   0  0  0  0  0  0  0  0  0  0  0  0
   -6.8970   21.0080  -32.5440 C   0  0  0  0  0  0  0  0  0  0  0  0
   -7.5930   22.2860  -32.2550 C   0  0  0  0  0  0  0  0  0  0  0  0
   -7.0390   23.5350  -32.6760 N   0  0  0  0  0  0  0  0  0  0  0  0
   -8.6930   22.2830  -31.6440 O   0  0  0  0  0  0  0  0  0  0  0  0
   -5.5430   20.8370  -32.5830 N   0  0  0  0  0  0  0  0  0  0  0  0
   -4.5330   21.8580  -32.4870 C   0  0  0  0  0  0  0  0  0  0  0  0
   -4.1630   22.4540  -33.5330 O   0  0  0  0  0  0  0  0  0  0  0  0
   -3.8910   22.1680  -31.2290 N   0  0  0  0  0  0  0  0  0  0  0  0
   -4.6260   23.0770  -30.3270 C   0  0  0  0  0  0  0  0  0  0  0  0
   -4.5680   24.4940  -30.8130 C   0  0  0  0  0  0  0  0  0  0  0  0
   -5.4820   24.9560  -31.5430 O   0  0  0  0  0  0  0  0  0  0  0  0
   -3.4850   25.2980  -30.4800 O   0  0  0  0  0  0  0  0  0  0  0  0
   -2.5260   21.6610  -30.8830 C   0  0  0  0  0  0  0  0  0  0  0  0
   -1.7870   21.1310  -32.1340 C   0  0  0  0  0  0  0  0  0  0  0  0
   -2.6110   20.4830  -29.8820 C   0  0  0  0  0  0  0  0  0  0  0  0
   -1.6890   22.7870  -30.2460 C   0  0  0  0  0  0  0  0  0  0  0  0
   -5.3460   19.5340  -32.8830 C   0  0  0  0  0  0  0  0  0  0  0  0
   -4.1370   18.8700  -33.1190 C   0  0  0  0  0  0  0  0  0  0  0  0
   -1.5075   17.7827  -32.3351 H   0  0  0  0  0  0  0  0  0  0  0  0
   -0.7938   17.1988  -33.8766 H   0  0  0  0  0  0  0  0  0  0  0  0
   -1.8902   18.6217  -33.8766 H   0  0  0  0  0  0  0  0  0  0  0  0
   -5.4529   15.7432  -33.7076 H   0  0  0  0  0  0  0  0  0  0  0  0
   -7.5946   17.0127  -33.3543 H   0  0  0  0  0  0  0  0  0  0  0  0
   -8.6305   19.6121  -32.7881 H   0  0  0  0  0  0  0  0  0  0  0  0
   -6.0970   23.5950  -33.1210 H   0  0  0  0  0  0  0  0  0  0  0  0
   -7.5590   24.4220  -32.4970 H   0  0  0  0  0  0  0  0  0  0  0  0
   -5.6777   22.7585  -30.2770 H   0  0  0  0  0  0  0  0  0  0  0  0
   -4.1571   23.0323  -29.3329 H   0  0  0  0  0  0  0  0  0  0  0  0
   -0.9301   20.5165  -31.8208 H   0  0  0  0  0  0  0  0  0  0  0  0
   -2.4761   20.5199  -32.7355 H   0  0  0  0  0  0  0  0  0  0  0  0
   -1.4292   21.9796  -32.7355 H   0  0  0  0  0  0  0  0  0  0  0  0
   -2.5829   20.8728  -28.8538 H   0  0  0  0  0  0  0  0  0  0  0  0
   -3.5511   19.9342  -30.0405 H   0  0  0  0  0  0  0  0  0  0  0  0
   -1.7594   19.8050  -30.0405 H   0  0  0  0  0  0  0  0  0  0  0  0
   -1.7456   22.7109  -29.1501 H   0  0  0  0  0  0  0  0  0  0  0  0
   -0.6411   22.6912  -30.5666 H   0  0  0  0  0  0  0  0  0  0  0  0
   -2.0827   23.7628  -30.5666 H   0  0  0  0  0  0  0  0  0  0  0  0
   -3.1795   19.4082  -33.0602 H   0  0  0  0  0  0  0  0  0  0  0  0
  1  2  1  0
  2  3  1  0
  2  4  1  0
  2  5  1  0
  5  6  2  0
  6  7  1  0
  7  8  2  0
  8  9  1  0
  9 10  2  0
 10 11  1  0
 11 12  1  0
 11 13  2  0
 10 14  1  0
 14 15  1  0
 15 16  2  0
 15 17  1  0
 17 18  1  0
 18 19  1  0
 19 20  2  0
 19 21  1  0
 17 22  1  0
 22 23  1  0
 22 24  1  0
 22 25  1  0
 14 26  1  0
 26 27  2  0
 27  5  1  0
 26  8  1  0
  1 28  1  0
  1 29  1  0
  1 30  1  0
  6 31  1  0
  7 32  1  0
  9 33  1  0
 12 34  1  0
 12 35  1  0
 18 36  1  0
 18 37  1  0
 23 38  1  0
 23 39  1  0
 23 40  1  0
 24 41  1  0
 24 42  1  0
 24 43  1  0
 25 44  1  0
 25 45  1  0
 25 46  1  0
 27 47  1  0
M  CHG  1  21  -1
M  END
>  <UniqueID>  (12) 
12

>  <SMILES>  (12) 
CC(F)(F)c1ccc2cc(C(N)=O)n(C(=O)N(CC(=O)[O-])C(C)(C)C)c2c1

>  <Energy>  (12) 
86.16031975840195

>  <Genealogy>  (12) 
CC(F)(F)c1ccc2cc(C(N)=O)n(C(=O)N(CC(=O)[O-])C(C)(C)C)c2c1 (protonated)
CC(F)(F)c1ccc2cc(C(N)=O)n(C(=O)N(CC(=O)[O-])C(C)(C)C)c2c1 (3D coordinates assigned)
CC(F)(F)c1ccc2cc(C(N)=O)n(C(=O)N(CC(=O)[O-])C(C)(C)C)c2c1 (optimized conformer: 86.16031975840195 kcal/mol)

>  <smiles>  (12) 
CC(F)(F)c1ccc2cc(C(N)=O)n(C(=O)N(CC(=O)O)C(C)(C)C)c2c1

>  <score_type>  (12) 
oracle

>  <origin>  (12) 
adg

>  <m_score__min__energy>  (12) 
-10.41

>  <m_primary>  (12) 
energy

$$$$
12:0
     RDKit          3D

 35 37  0  0  0  0  0  0  0  0999 V2000
   -1.6070   25.8600  -28.7350 N   0  0  0  0  0  0  0  0  0  0  0  0
   -0.8640   24.6430  -28.8250 C   0  0  0  0  0  0  0  0  0  0  0  0
    0.2480   24.5530  -28.2390 O   0  0  0  0  0  0  0  0  0  0  0  0
   -1.3430   23.5150  -29.6480 C   0  0  0  0  0  0  0  0  0  0  0  0
   -0.5510   22.4210  -29.9810 C   0  0  0  0  0  0  0  0  0  0  0  0
   -1.3350   21.6400  -30.7990 C   0  0  0  0  0  0  0  0  0  0  0  0
   -1.0510   20.4250  -31.4090 C   0  0  0  0  0  0  0  0  0  0  0  0
   -2.0610   19.8190  -32.1730 C   0  0  0  0  0  0  0  0  0  0  0  0
   -3.3400   20.4260  -32.3110 C   0  0  0  0  0  0  0  0  0  0  0  0
   -4.3770   19.7860  -33.0910 N   0  0  0  0  0  0  0  0  0  0  0  0
   -4.2760   18.4310  -33.6170 C   0  0  0  0  0  0  0  0  0  0  0  0
   -5.4980   18.2320  -34.5050 C   0  0  0  0  0  0  0  0  0  0  0  0
   -6.4850   19.3320  -34.1040 C   0  0  1  0  0  0  0  0  0  0  0  0
   -7.4630   18.8360  -33.2210 O   0  0  0  0  0  0  0  0  0  0  0  0
   -5.6410   20.4190  -33.4380 C   0  0  0  0  0  0  0  0  0  0  0  0
   -3.5830   21.6660  -31.6670 C   0  0  0  0  0  0  0  0  0  0  0  0
   -2.5510   22.2570  -30.9300 C   0  0  0  0  0  0  0  0  0  0  0  0
   -2.5730   23.4130  -30.2240 N   0  0  0  0  0  0  0  0  0  0  0  0
   -3.7040   24.2780  -30.0210 C   0  0  0  0  0  0  0  0  0  0  0  0
   -4.5510   24.0240  -29.1250 O   0  0  0  0  0  0  0  0  0  0  0  0
   -3.8730   25.4080  -30.8120 O   0  0  0  0  0  0  0  0  0  0  0  0
   -2.4430   26.0270  -29.3370 H   0  0  0  0  0  0  0  0  0  0  0  0
   -1.2710   26.6340  -28.1200 H   0  0  0  0  0  0  0  0  0  0  0  0
    0.4819   22.2225  -29.6591 H   0  0  0  0  0  0  0  0  0  0  0  0
   -0.0644   19.9517  -31.2969 H   0  0  0  0  0  0  0  0  0  0  0  0
   -1.8601   18.8598  -32.6727 H   0  0  0  0  0  0  0  0  0  0  0  0
   -3.3536   18.3174  -34.2054 H   0  0  0  0  0  0  0  0  0  0  0  0
   -4.2409   17.6867  -32.8078 H   0  0  0  0  0  0  0  0  0  0  0  0
   -5.2221   18.3320  -35.5651 H   0  0  0  0  0  0  0  0  0  0  0  0
   -5.9333   17.2298  -34.3780 H   0  0  0  0  0  0  0  0  0  0  0  0
   -7.0309   19.7232  -34.9752 H   0  0  0  0  0  0  0  0  0  0  0  0
   -8.3540   19.0290  -33.6140 H   0  0  0  0  0  0  0  0  0  0  0  0
   -5.4725   21.2533  -34.1348 H   0  0  0  0  0  0  0  0  0  0  0  0
   -6.1425   20.8328  -32.5507 H   0  0  0  0  0  0  0  0  0  0  0  0
   -4.5655   22.1545  -31.7456 H   0  0  0  0  0  0  0  0  0  0  0  0
  1  2  1  0
  2  3  2  0
  2  4  1  0
  4  5  2  0
  5  6  1  0
  6  7  2  0
  7  8  1  0
  8  9  2  0
  9 10  1  0
 10 11  1  0
 11 12  1  0
 12 13  1  0
 13 14  1  0
 13 15  1  0
  9 16  1  0
 16 17  2  0
 17 18  1  0
 18 19  1  0
 19 20  2  0
 19 21  1  0
 18  4  1  0
 17  6  1  0
 15 10  1  0
  1 22  1  0
  1 23  1  0
  5 24  1  0
  7 25  1  0
  8 26  1  0
 11 27  1  0
 11 28  1  0
 12 29  1  0
 12 30  1  0
 13 31  1  6
 14 32  1  0
 15 33  1  0
 15 34  1  0
 16 35  1  0
M  CHG  1  21  -1
M  END
>  <UniqueID>  (13) 
13

>  <SMILES>  (13) 
NC(=O)c1cc2ccc(N3CC[C@@H](O)C3)cc2n1C(=O)[O-]

>  <Energy>  (13) 
79.56386173095669

>  <Genealogy>  (13) 
NC(=O)c1cc2ccc(N3CCC(O)C3)cc2n1C(=O)[O-] (protonated)
NC(=O)c1cc2ccc(N3CC[C@@H](O)C3)cc2n1C(=O)[O-] (chirality)
NC(=O)c1cc2ccc(N3CC[C@@H](O)C3)cc2n1C(=O)[O-] (3D coordinates assigned)
NC(=O)c1cc2ccc(N3CC[C@@H](O)C3)cc2n1C(=O)[O-] (nonaromatic ring conformer: 79.56386173095669 kcal/mol)

>  <smiles>  (13) 
NC(=O)c1cc2ccc(N3CCC(O)C3)cc2n1C(=O)O

>  <score_type>  (13) 
oracle

>  <origin>  (13) 
adg

>  <m_score__min__energy>  (13) 
-8.7100000000000009

>  <m_primary>  (13) 
energy

$$$$
13:0
     RDKit          3D

 31 32  0  0  0  0  0  0  0  0999 V2000
   -1.6320   25.6540  -28.9640 N   0  0  0  0  0  0  0  0  0  0  0  0
   -1.0710   24.3930  -29.3170 C   0  0  0  0  0  0  0  0  0  0  0  0
    0.0900   24.1030  -28.9240 O   0  0  0  0  0  0  0  0  0  0  0  0
   -1.8510   23.4020  -30.0870 C   0  0  0  0  0  0  0  0  0  0  0  0
   -1.3260   22.1870  -30.5210 C   0  0  0  0  0  0  0  0  0  0  0  0
   -2.3780   21.5230  -31.1100 C   0  0  0  0  0  0  0  0  0  0  0  0
   -2.4180   20.2730  -31.7180 C   0  0  0  0  0  0  0  0  0  0  0  0
   -3.6370   19.8480  -32.2710 C   0  0  0  0  0  0  0  0  0  0  0  0
   -4.7880   20.6770  -32.2130 C   0  0  0  0  0  0  0  0  0  0  0  0
   -6.0380   20.2300  -32.7800 N   0  0  0  0  0  0  0  0  0  0  0  0
   -7.1580   21.1010  -32.3820 C   0  0  0  0  0  0  0  0  0  0  0  0
   -8.5080   20.3710  -32.3700 C   0  0  0  0  0  0  0  0  0  0  0  0
   -8.3720   19.0900  -32.9220 O   0  0  0  0  0  0  0  0  0  0  0  0
   -4.7050   21.9430  -31.5850 C   0  0  0  0  0  0  0  0  0  0  0  0
   -3.4810   22.3320  -31.0270 C   0  0  0  0  0  0  0  0  0  0  0  0
   -3.1750   23.4910  -30.4040 N   0  0  0  0  0  0  0  0  0  0  0  0
   -4.0550   24.6090  -30.2080 C   0  0  0  0  0  0  0  0  0  0  0  0
   -3.8800   25.6780  -30.8510 O   0  0  0  0  0  0  0  0  0  0  0  0
   -5.1240   24.5140  -29.3260 O   0  0  0  0  0  0  0  0  0  0  0  0
   -2.6520   25.8410  -29.0890 H   0  0  0  0  0  0  0  0  0  0  0  0
   -0.2899   21.8330  -30.4154 H   0  0  0  0  0  0  0  0  0  0  0  0
   -1.5221   19.6364  -31.7644 H   0  0  0  0  0  0  0  0  0  0  0  0
   -3.7006   18.8619  -32.7544 H   0  0  0  0  0  0  0  0  0  0  0  0
   -5.9580   20.2490  -33.8240 H   0  0  0  0  0  0  0  0  0  0  0  0
   -6.2360   19.2390  -32.5090 H   0  0  0  0  0  0  0  0  0  0  0  0
   -6.9595   21.4882  -31.3717 H   0  0  0  0  0  0  0  0  0  0  0  0
   -7.2269   21.9097  -33.1245 H   0  0  0  0  0  0  0  0  0  0  0  0
   -8.8643   20.2835  -31.3330 H   0  0  0  0  0  0  0  0  0  0  0  0
   -9.2307   20.9444  -32.9691 H   0  0  0  0  0  0  0  0  0  0  0  0
   -8.7720   19.1380  -33.8280 H   0  0  0  0  0  0  0  0  0  0  0  0
   -5.5816   22.6057  -31.5365 H   0  0  0  0  0  0  0  0  0  0  0  0
  1  2  1  0
  2  3  2  0
  2  4  1  0
  4  5  2  0
  5  6  1  0
  6  7  2  0
  7  8  1  0
  8  9  2  0
  9 10  1  0
 10 11  1  0
 11 12  1  0
 12 13  1  0
  9 14  1  0
 14 15  2  0
 15 16  1  0
 16 17  1  0
 17 18  2  0
 17 19  1  0
 16  4  1  0
 15  6  1  0
  1 20  1  0
  5 21  1  0
  7 22  1  0
  8 23  1  0
 10 24  1  0
 10 25  1  0
 11 26  1  0
 11 27  1  0
 12 28  1  0
 12 29  1  0
 13 30  1  0
 14 31  1  0
M  CHG  3   1  -1  10   1  19  -1
M  END
>  <UniqueID>  (14) 
14

>  <SMILES>  (14) 
[NH-]C(=O)c1cc2ccc([NH2+]CCO)cc2n1C(=O)[O-]

>  <Energy>  (14) 
70.41108046125993

>  <Genealogy>  (14) 
[NH-]C(=O)c1cc2ccc([NH2+]CCO)cc2n1C(=O)[O-] (protonated)
[NH-]C(=O)c1cc2ccc([NH2+]CCO)cc2n1C(=O)[O-] (3D coordinates assigned)
[NH-]C(=O)c1cc2ccc([NH2+]CCO)cc2n1C(=O)[O-] (optimized conformer: 70.41108046125993 kcal/mol)

>  <smiles>  (14) 
NC(=O)c1cc2ccc(NCCO)cc2n1C(=O)O

>  <score_type>  (14) 
oracle

>  <origin>  (14) 
adg

>  <m_score__min__energy>  (14) 
-9.0500000000000007

>  <m_primary>  (14) 
energy

$$$$
14:0
     RDKit          3D

 55 57  0  0  0  0  0  0  0  0999 V2000
   -7.5450   18.0590  -33.0400 C   0  0  0  0  0  0  0  0  0  0  0  0
   -7.5600   19.4420  -32.4600 C   0  0  0  0  0  0  0  0  0  0  0  0
   -8.7900   20.0520  -32.1110 C   0  0  0  0  0  0  0  0  0  0  0  0
   -8.8130   21.3410  -31.5480 C   0  0  0  0  0  0  0  0  0  0  0  0
   -7.5960   21.9800  -31.3310 C   0  0  0  0  0  0  0  0  0  0  0  0
   -7.3280   23.2330  -30.8260 C   0  0  0  0  0  0  0  0  0  0  0  0
   -5.9380   23.3510  -30.8450 C   0  0  0  0  0  0  0  0  0  0  0  0
   -5.1900   24.5280  -30.3460 C   0  0  0  0  0  0  0  0  0  0  0  0
   -5.1660   24.8480  -28.9530 N   0  0  0  0  0  0  0  0  0  0  0  0
   -4.5470   25.2550  -31.1490 O   0  0  0  0  0  0  0  0  0  0  0  0
   -5.3720   22.2100  -31.3310 N   0  0  0  0  0  0  0  0  0  0  0  0
   -3.9760   21.9590  -31.5510 C   0  0  0  0  0  0  0  0  0  0  0  0
   -3.1750   22.9290  -31.6330 O   0  0  0  0  0  0  0  0  0  0  0  0
   -3.4500   20.5520  -31.5980 C   0  0  0  0  0  0  0  0  0  0  0  0
   -2.0520   20.5160  -32.1310 C   0  0  0  0  0  0  0  0  0  0  0  0
   -1.8470   20.1890  -33.3320 O   0  0  0  0  0  0  0  0  0  0  0  0
   -0.9810   20.8330  -31.2860 O   0  0  0  0  0  0  0  0  0  0  0  0
   -0.4710   19.9320  -30.3070 C   0  0  0  0  0  0  0  0  0  0  0  0
   -0.5400   20.5510  -28.9370 C   0  0  0  0  0  0  0  0  0  0  0  0
    0.4890   20.5060  -28.2070 O   0  0  0  0  0  0  0  0  0  0  0  0
   -1.7550   21.1590  -28.4390 N   0  0  0  0  0  0  0  0  0  0  0  0
   -2.7400   20.3280  -27.7370 C   0  0  0  0  0  0  0  0  0  0  0  0
   -2.0400   22.5980  -28.6330 C   0  0  0  0  0  0  0  0  0  0  0  0
   -0.7520   23.4230  -28.8050 C   0  0  0  0  0  0  0  0  0  0  0  0
   -1.0820   24.9260  -28.9740 C   0  0  0  0  0  0  0  0  0  0  0  0
   -2.4170   25.2590  -28.6200 O   0  0  0  0  0  0  0  0  0  0  0  0
   -2.7510   24.6870  -27.3710 C   0  0  0  0  0  0  0  0  0  0  0  0
   -2.9220   23.1630  -27.5000 C   0  0  0  0  0  0  0  0  0  0  0  0
   -6.3980   21.3860  -31.6300 C   0  0  0  0  0  0  0  0  0  0  0  0
   -6.3450   20.1140  -32.2070 C   0  0  0  0  0  0  0  0  0  0  0  0
   -7.5370   17.3198  -32.2254 H   0  0  0  0  0  0  0  0  0  0  0  0
   -8.4416   17.9117  -33.6600 H   0  0  0  0  0  0  0  0  0  0  0  0
   -6.6454   17.9311  -33.6600 H   0  0  0  0  0  0  0  0  0  0  0  0
   -9.7341   19.5138  -32.2815 H   0  0  0  0  0  0  0  0  0  0  0  0
   -9.7638   21.8288  -31.2873 H   0  0  0  0  0  0  0  0  0  0  0  0
   -8.0558   23.9821  -30.4808 H   0  0  0  0  0  0  0  0  0  0  0  0
   -5.7330   24.3140  -28.2590 H   0  0  0  0  0  0  0  0  0  0  0  0
   -4.6070   25.6630  -28.6130 H   0  0  0  0  0  0  0  0  0  0  0  0
   -3.4577   20.1316  -30.5815 H   0  0  0  0  0  0  0  0  0  0  0  0
   -4.0936   19.9610  -32.2662 H   0  0  0  0  0  0  0  0  0  0  0  0
   -1.0688   19.0087  -30.3180 H   0  0  0  0  0  0  0  0  0  0  0  0
    0.5791   19.7055  -30.5435 H   0  0  0  0  0  0  0  0  0  0  0  0
   -2.6069   20.4403  -26.6509 H   0  0  0  0  0  0  0  0  0  0  0  0
   -3.7549   20.6469  -28.0170 H   0  0  0  0  0  0  0  0  0  0  0  0
   -2.5966   19.2739  -28.0170 H   0  0  0  0  0  0  0  0  0  0  0  0
   -2.6093   22.6854  -29.5702 H   0  0  0  0  0  0  0  0  0  0  0  0
   -0.1173   23.2906  -27.9164 H   0  0  0  0  0  0  0  0  0  0  0  0
   -0.2263   23.0734  -29.7058 H   0  0  0  0  0  0  0  0  0  0  0  0
   -0.3983   25.5059  -28.3365 H   0  0  0  0  0  0  0  0  0  0  0  0
   -0.9625   25.1642  -30.0412 H   0  0  0  0  0  0  0  0  0  0  0  0
   -1.9485   24.9007  -26.6496 H   0  0  0  0  0  0  0  0  0  0  0  0
   -3.7004   25.1218  -27.0250 H   0  0  0  0  0  0  0  0  0  0  0  0
   -2.6348   22.6878  -26.5504 H   0  0  0  0  0  0  0  0  0  0  0  0
   -3.9745   22.9488  -27.7373 H   0  0  0  0  0  0  0  0  0  0  0  0
   -5.3804   19.6484  -32.4576 H   0  0  0  0  0  0  0  0  0  0  0  0
  1  2  1  0
  2  3  2  0
  3  4  1  0
  4  5  2  0
  5  6  1  0
  6  7  2  0
  7  8  1  0
  8  9  1  0
  8 10  2  0
  7 11  1  0
 11 12  1  0
 12 13  2  0
 12 14  1  0
 14 15  1  0
 15 16  2  0
 15 17  1  0
 17 18  1  0
 18 19  1  0
 19 20  2  0
 19 21  1  0
 21 22  1  0
 21 23  1  0
 23 24  1  0
 24 25  1  0
 25 26  1  0
 26 27  1  0
 27 28  1  0
 11 29  1  0
 29 30  2  0
 30  2  1  0
 29  5  1  0
 28 23  1  0
  1 31  1  0
  1 32  1  0
  1 33  1  0
  3 34  1  0
  4 35  1  0
  6 36  1  0
  9 37  1  0
  9 38  1  0
 14 39  1  0
 14 40  1  0
 18 41  1  0
 18 42  1  0
 22 43  1  0
 22 44  1  0
 22 45  1  0
 23 46  1  0
 24 47  1  0
 24 48  1  0
 25 49  1  0
 25 50  1  0
 27 51  1  0
 27 52  1  0
 28 53  1  0
 28 54  1  0
 30 55  1  0
M  END
>  <UniqueID>  (15) 
15

>  <SMILES>  (15) 
Cc1ccc2cc(C(N)=O)n(C(=O)CC(=O)OCC(=O)N(C)C3CCOCC3)c2c1

>  <Energy>  (15) 
97.6349752165697

>  <Genealogy>  (15) 
Cc1ccc2cc(C(N)=O)n(C(=O)CC(=O)OCC(=O)N(C)C3CCOCC3)c2c1 (3D coordinates assigned)
Cc1ccc2cc(C(N)=O)n(C(=O)CC(=O)OCC(=O)N(C)C3CCOCC3)c2c1 (nonaromatic ring conformer: 97.6349752165697 kcal/mol)

>  <smiles>  (15) 
Cc1ccc2cc(C(N)=O)n(C(=O)CC(=O)OCC(=O)N(C)C3CCOCC3)c2c1

>  <score_type>  (15) 
oracle

>  <origin>  (15) 
adg

>  <m_score__min__energy>  (15) 
-9.9900000000000002

>  <m_primary>  (15) 
energy

$$$$
15:0
     RDKit          3D

 46 48  0  0  0  0  0  0  0  0999 V2000
   -6.7290   23.5580  -29.8630 C   0  0  0  0  0  0  0  0  0  0  0  0
   -6.2270   24.4520  -31.0010 C   0  0  0  0  0  0  0  0  0  0  0  0
   -6.4790   23.7840  -32.3510 C   0  0  0  0  0  0  0  0  0  0  0  0
   -4.8270   24.6890  -30.8590 O   0  0  0  0  0  0  0  0  0  0  0  0
   -4.0360   24.1000  -29.8650 C   0  0  0  0  0  0  0  0  0  0  0  0
   -4.2380   24.3640  -28.6490 O   0  0  0  0  0  0  0  0  0  0  0  0
   -3.0080   23.1680  -30.2380 N   0  0  0  0  0  0  0  0  0  0  0  0
   -1.6790   23.2130  -29.9390 C   0  0  0  0  0  0  0  0  0  0  0  0
   -0.9770   24.3250  -29.2640 C   0  0  0  0  0  0  0  0  0  0  0  0
   -1.6180   25.5900  -29.1290 N   0  0  0  0  0  0  0  0  0  0  0  0
    0.1710   24.1610  -28.7730 O   0  0  0  0  0  0  0  0  0  0  0  0
   -1.0290   22.0840  -30.4340 C   0  0  0  0  0  0  0  0  0  0  0  0
   -2.0070   21.3440  -31.0590 C   0  0  0  0  0  0  0  0  0  0  0  0
   -1.9240   20.1200  -31.7150 C   0  0  0  0  0  0  0  0  0  0  0  0
   -3.1050   19.5740  -32.2450 C   0  0  0  0  0  0  0  0  0  0  0  0
   -4.3440   20.2510  -32.1060 C   0  0  0  0  0  0  0  0  0  0  0  0
   -5.5550   19.6740  -32.6360 N   0  0  0  0  0  0  0  0  0  0  0  0
   -6.4610   20.4990  -33.4520 C   0  0  0  0  0  0  0  0  0  0  0  0
   -7.7830   20.7270  -32.7210 C   0  0  0  0  0  0  0  0  0  0  0  0
   -8.5050   19.1570  -32.2820 S   0  0  0  0  0  0  0  0  0  0  0  0
   -8.8080   19.1280  -30.8100 O   0  0  0  0  0  0  0  0  0  0  0  0
   -9.7720   18.9370  -33.0600 O   0  0  0  0  0  0  0  0  0  0  0  0
   -7.3240   17.8830  -32.6830 C   0  0  0  0  0  0  0  0  0  0  0  0
   -5.9180   18.2990  -32.2340 C   0  0  0  0  0  0  0  0  0  0  0  0
   -4.3860   21.4890  -31.4250 C   0  0  0  0  0  0  0  0  0  0  0  0
   -3.1920   22.0200  -30.9260 C   0  0  0  0  0  0  0  0  0  0  0  0
   -6.4719   24.0158  -28.8964 H   0  0  0  0  0  0  0  0  0  0  0  0
   -7.8209   23.4478  -29.9377 H   0  0  0  0  0  0  0  0  0  0  0  0
   -6.2547   22.5683  -29.9377 H   0  0  0  0  0  0  0  0  0  0  0  0
   -6.7721   25.4063  -30.9546 H   0  0  0  0  0  0  0  0  0  0  0  0
   -6.8631   22.7658  -32.1903 H   0  0  0  0  0  0  0  0  0  0  0  0
   -7.2180   24.3695  -32.9176 H   0  0  0  0  0  0  0  0  0  0  0  0
   -5.5374   23.7355  -32.9176 H   0  0  0  0  0  0  0  0  0  0  0  0
   -2.6470   25.6890  -29.2780 H   0  0  0  0  0  0  0  0  0  0  0  0
    0.0391   21.8367  -30.3443 H   0  0  0  0  0  0  0  0  0  0  0  0
   -0.9624   19.5954  -31.8157 H   0  0  0  0  0  0  0  0  0  0  0  0
   -3.0686   18.6102  -32.7740 H   0  0  0  0  0  0  0  0  0  0  0  0
   -5.9852   21.4707  -33.6507 H   0  0  0  0  0  0  0  0  0  0  0  0
   -6.6637   19.9750  -34.3977 H   0  0  0  0  0  0  0  0  0  0  0  0
   -7.5999   21.3133  -31.8084 H   0  0  0  0  0  0  0  0  0  0  0  0
   -8.4737   21.2744  -33.3792 H   0  0  0  0  0  0  0  0  0  0  0  0
   -7.6075   16.9515  -32.1711 H   0  0  0  0  0  0  0  0  0  0  0  0
   -7.3204   17.7289  -33.7721 H   0  0  0  0  0  0  0  0  0  0  0  0
   -5.8685   18.2321  -31.1372 H   0  0  0  0  0  0  0  0  0  0  0  0
   -5.2064   17.6191  -32.7253 H   0  0  0  0  0  0  0  0  0  0  0  0
   -5.3378   22.0237  -31.2903 H   0  0  0  0  0  0  0  0  0  0  0  0
  1  2  1  0
  2  3  1  0
  2  4  1  0
  4  5  1  0
  5  6  2  0
  5  7  1  0
  7  8  1  0
  8  9  1  0
  9 10  1  0
  9 11  2  0
  8 12  2  0
 12 13  1  0
 13 14  2  0
 14 15  1  0
 15 16  2  0
 16 17  1  0
 17 18  1  0
 18 19  1  0
 19 20  1  0
 20 21  2  0
 20 22  2  0
 20 23  1  0
 23 24  1  0
 16 25  1  0
 25 26  2  0
 26  7  1  0
 26 13  1  0
 24 17  1  0
  1 27  1  0
  1 28  1  0
  1 29  1  0
  2 30  1  0
  3 31  1  0
  3 32  1  0
  3 33  1  0
 10 34  1  0
 12 35  1  0
 14 36  1  0
 15 37  1  0
 18 38  1  0
 18 39  1  0
 19 40  1  0
 19 41  1  0
 23 42  1  0
 23 43  1  0
 24 44  1  0
 24 45  1  0
 25 46  1  0
M  CHG  1  10  -1
M  END
>  <UniqueID>  (16) 
16

>  <SMILES>  (16) 
CC(C)OC(=O)n1c(C([NH-])=O)cc2ccc(N3CCS(=O)(=O)CC3)cc21

>  <Energy>  (16) 
78.13147490150249

>  <Genealogy>  (16) 
CC(C)OC(=O)n1c(C([NH-])=O)cc2ccc(N3CCS(=O)(=O)CC3)cc21 (protonated)
CC(C)OC(=O)n1c(C([NH-])=O)cc2ccc(N3CCS(=O)(=O)CC3)cc21 (3D coordinates assigned)
CC(C)OC(=O)n1c(C([NH-])=O)cc2ccc(N3CCS(=O)(=O)CC3)cc21 (nonaromatic ring conformer: 78.13147490150249 kcal/mol)

>  <smiles>  (16) 
CC(C)OC(=O)n1c(C(N)=O)cc2ccc(N3CCS(=O)(=O)CC3)cc21

>  <score_type>  (16) 
oracle

>  <origin>  (16) 
adg

>  <m_score__min__energy>  (16) 
-11.59

>  <m_primary>  (16) 
energy

$$$$
16:0
     RDKit          3D

 36 37  0  0  0  0  0  0  0  0999 V2000
   -2.5829   23.7288  -31.3255 H   0  0  0  0  0  0  0  0  0  0  0  0
   -2.9030   23.1230  -30.4650 C   0  0  0  0  0  0  0  0  0  0  0  0
   -3.9510   22.1050  -30.7120 C   0  0  0  0  0  0  0  0  0  0  0  0
   -3.6790   20.8740  -30.6950 O   0  0  0  0  0  0  0  0  0  0  0  0
   -5.3140   22.5180  -30.9030 N   0  0  0  0  0  0  0  0  0  0  0  0
   -5.9000   23.6650  -30.4570 C   0  0  0  0  0  0  0  0  0  0  0  0
   -5.2030   24.7950  -29.8070 C   0  0  0  0  0  0  0  0  0  0  0  0
   -5.3780   25.0030  -28.5770 O   0  0  0  0  0  0  0  0  0  0  0  0
   -4.3780   25.6880  -30.5560 N   0  0  0  0  0  0  0  0  0  0  0  0
   -4.3570   25.6600  -31.5990 H   0  0  0  0  0  0  0  0  0  0  0  0
   -3.8540   26.4490  -30.0680 H   0  0  0  0  0  0  0  0  0  0  0  0
   -7.2670   23.6530  -30.7170 C   0  0  0  0  0  0  0  0  0  0  0  0
   -8.0009   24.4343  -30.4700 H   0  0  0  0  0  0  0  0  0  0  0  0
   -7.5040   22.4530  -31.3500 C   0  0  0  0  0  0  0  0  0  0  0  0
   -8.6970   21.9070  -31.8130 C   0  0  0  0  0  0  0  0  0  0  0  0
   -9.6429   22.4628  -31.7338 H   0  0  0  0  0  0  0  0  0  0  0  0
   -8.6570   20.6260  -32.3840 C   0  0  0  0  0  0  0  0  0  0  0  0
   -9.5835   20.1741  -32.7679 H   0  0  0  0  0  0  0  0  0  0  0  0
   -7.4390   19.9060  -32.4730 C   0  0  0  0  0  0  0  0  0  0  0  0
   -7.4450   18.5880  -33.0530 N   0  0  0  0  0  0  0  0  0  0  0  0
   -8.1290   18.3740  -33.8140 H   0  0  0  0  0  0  0  0  0  0  0  0
   -6.5320   17.5250  -32.6450 C   0  0  0  0  0  0  0  0  0  0  0  0
   -6.4915   17.4779  -31.5468 H   0  0  0  0  0  0  0  0  0  0  0  0
   -6.8895   16.5628  -33.0404 H   0  0  0  0  0  0  0  0  0  0  0  0
   -5.5268   17.7332  -33.0404 H   0  0  0  0  0  0  0  0  0  0  0  0
   -6.2470   20.4950  -31.9840 C   0  0  0  0  0  0  0  0  0  0  0  0
   -5.2922   19.9506  -32.0273 H   0  0  0  0  0  0  0  0  0  0  0  0
   -6.3110   21.7840  -31.4450 C   0  0  0  0  0  0  0  0  0  0  0  0
   -2.3040   23.3760  -29.2800 C   0  0  0  0  0  0  0  0  0  0  0  0
   -1.2980   24.4670  -29.1850 C   0  0  0  0  0  0  0  0  0  0  0  0
   -1.6360   25.6720  -29.3340 O   0  0  0  0  0  0  0  0  0  0  0  0
    0.0360   24.1760  -28.9230 O   0  0  0  0  0  0  0  0  0  0  0  0
   -2.6320   22.5830  -28.0380 C   0  0  0  0  0  0  0  0  0  0  0  0
   -2.3855   23.1788  -27.1468 H   0  0  0  0  0  0  0  0  0  0  0  0
   -3.7047   22.3395  -28.0311 H   0  0  0  0  0  0  0  0  0  0  0  0
   -2.0448   21.6529  -28.0311 H   0  0  0  0  0  0  0  0  0  0  0  0
  1  2  1  0
  2  3  1  0
  3  4  2  0
  3  5  1  0
  5  6  1  0
  6  7  1  0
  7  8  2  0
  7  9  1  0
  9 10  1  0
  9 11  1  0
  6 12  2  0
 12 13  1  0
 12 14  1  0
 14 15  2  0
 15 16  1  0
 15 17  1  0
 17 18  1  0
 17 19  2  0
 19 20  1  0
 20 21  1  0
 20 22  1  0
 22 23  1  0
 22 24  1  0
 22 25  1  0
 19 26  1  0
 26 27  1  0
 26 28  2  0
  2 29  2  0
 29 30  1  0
 30 31  2  0
 30 32  1  0
 29 33  1  0
 33 34  1  0
 33 35  1  0
 33 36  1  0
 28  5  1  0
 28 14  1  0
M  CHG  1  32  -1
M  END
>  <UniqueID>  (17) 
17

>  <SMILES>  (17) 
CNc1ccc2cc(C(N)=O)n(C(=O)/C=C(\C)C(=O)[O-])c2c1

>  <Energy>  (17) 
77.93672058560126

>  <Genealogy>  (17) 
CNc1ccc2cc(C(N)=O)n(C(=O)C=C(C)C(=O)[O-])c2c1 (protonated)
CNc1ccc2cc(C(N)=O)n(C(=O)/C=C(\C)C(=O)[O-])c2c1 (cis-trans isomerization)
CNc1ccc2cc(C(N)=O)n(C(=O)/C=C(\C)C(=O)[O-])c2c1 (3D coordinates assigned)
CNc1ccc2cc(C(N)=O)n(C(=O)/C=C(\C)C(=O)[O-])c2c1 (optimized conformer: 77.93672058560126 kcal/mol)

>  <smiles>  (17) 
CNc1ccc2cc(C(N)=O)n(C(=O)C=C(C)C(=O)O)c2c1

>  <score_type>  (17) 
oracle

>  <origin>  (17) 
adg

>  <m_score__min__energy>  (17) 
-10.91

>  <m_primary>  (17) 
energy

$$$$
17:0
     RDKit          3D

 32 33  0  0  0  0  0  0  0  0999 V2000
   -1.3440   21.9280  -29.1040 C   0  0  0  0  0  0  0  0  0  0  0  0
   -1.4840   23.1730  -29.9750 C   0  0  1  0  0  0  0  0  0  0  0  0
   -2.8620   23.3730  -30.2900 O   0  0  0  0  0  0  0  0  0  0  0  0
   -3.5700   22.5750  -31.1960 C   0  0  0  0  0  0  0  0  0  0  0  0
   -2.9710   21.6840  -31.8590 O   0  0  0  0  0  0  0  0  0  0  0  0
   -4.9890   22.7440  -31.3420 N   0  0  0  0  0  0  0  0  0  0  0  0
   -5.7540   23.7870  -30.9130 C   0  0  0  0  0  0  0  0  0  0  0  0
   -5.2550   25.0560  -30.3470 C   0  0  0  0  0  0  0  0  0  0  0  0
   -4.0640   25.6600  -30.8390 N   0  0  0  0  0  0  0  0  0  0  0  0
   -5.9150   25.6400  -29.4440 O   0  0  0  0  0  0  0  0  0  0  0  0
   -7.1040   23.5350  -31.1500 C   0  0  0  0  0  0  0  0  0  0  0  0
   -7.1440   22.2970  -31.7490 C   0  0  0  0  0  0  0  0  0  0  0  0
   -8.2340   21.5510  -32.1870 C   0  0  0  0  0  0  0  0  0  0  0  0
   -7.9830   20.2830  -32.7390 C   0  0  0  0  0  0  0  0  0  0  0  0
   -6.6610   19.7890  -32.8370 C   0  0  0  0  0  0  0  0  0  0  0  0
   -6.4190   18.4960  -33.3970 N   0  0  0  0  0  0  0  0  0  0  0  0
   -5.5800   20.5740  -32.3850 C   0  0  0  0  0  0  0  0  0  0  0  0
   -5.8550   21.8410  -31.8560 C   0  0  0  0  0  0  0  0  0  0  0  0
   -0.9250   24.3750  -29.2670 C   0  0  0  0  0  0  0  0  0  0  0  0
    0.1620   24.2970  -28.6360 O   0  0  0  0  0  0  0  0  0  0  0  0
   -1.6100   25.5830  -29.3060 O   0  0  0  0  0  0  0  0  0  0  0  0
   -1.3765   22.2171  -28.0432 H   0  0  0  0  0  0  0  0  0  0  0  0
   -2.1698   21.2343  -29.3205 H   0  0  0  0  0  0  0  0  0  0  0  0
   -0.3848   21.4350  -29.3205 H   0  0  0  0  0  0  0  0  0  0  0  0
   -0.9154   23.0324  -30.9061 H   0  0  0  0  0  0  0  0  0  0  0  0
   -3.1230   25.2990  -30.5640 H   0  0  0  0  0  0  0  0  0  0  0  0
   -7.9564   24.1872  -30.9093 H   0  0  0  0  0  0  0  0  0  0  0  0
   -9.2591   21.9411  -32.1039 H   0  0  0  0  0  0  0  0  0  0  0  0
   -8.8222   19.6691  -33.0981 H   0  0  0  0  0  0  0  0  0  0  0  0
   -6.7790   18.2480  -34.3470 H   0  0  0  0  0  0  0  0  0  0  0  0
   -5.8990   17.7690  -32.8570 H   0  0  0  0  0  0  0  0  0  0  0  0
   -4.5472   20.2005  -32.4465 H   0  0  0  0  0  0  0  0  0  0  0  0
  1  2  1  0
  2  3  1  0
  3  4  1  0
  4  5  2  0
  4  6  1  0
  6  7  1  0
  7  8  1  0
  8  9  1  0
  8 10  2  0
  7 11  2  0
 11 12  1  0
 12 13  2  0
 13 14  1  0
 14 15  2  0
 15 16  1  0
 15 17  1  0
 17 18  2  0
  2 19  1  0
 19 20  2  0
 19 21  1  0
 18  6  1  0
 18 12  1  0
  1 22  1  0
  1 23  1  0
  1 24  1  0
  2 25  1  6
  9 26  1  0
 11 27  1  0
 13 28  1  0
 14 29  1  0
 16 30  1  0
 16 31  1  0
 17 32  1  0
M  CHG  2   9  -1  21  -1
M  END
>  <UniqueID>  (18) 
18

>  <SMILES>  (18) 
C[C@@H](OC(=O)n1c(C([NH-])=O)cc2ccc(N)cc21)C(=O)[O-]

>  <Energy>  (18) 
66.37165610904266

>  <Genealogy>  (18) 
CC(OC(=O)n1c(C([NH-])=O)cc2ccc(N)cc21)C(=O)[O-] (protonated)
C[C@@H](OC(=O)n1c(C([NH-])=O)cc2ccc(N)cc21)C(=O)[O-] (chirality)
C[C@@H](OC(=O)n1c(C([NH-])=O)cc2ccc(N)cc21)C(=O)[O-] (3D coordinates assigned)
C[C@@H](OC(=O)n1c(C([NH-])=O)cc2ccc(N)cc21)C(=O)[O-] (optimized conformer: 66.37165610904266 kcal/mol)

>  <smiles>  (18) 
CC(OC(=O)n1c(C(N)=O)cc2ccc(N)cc21)C(=O)O

>  <score_type>  (18) 
oracle

>  <origin>  (18) 
adg

>  <m_score__min__energy>  (18) 
-11.66

>  <m_primary>  (18) 
energy

$$$$
18:0
     RDKit          3D

 44 45  0  0  0  0  0  0  0  0999 V2000
   -8.3690   18.7510  -32.7490 C   0  0  0  0  0  0  0  0  0  0  0  0
   -8.1070   20.0890  -32.1230 C   0  0  0  0  0  0  0  0  0  0  0  0
   -9.1720   21.0070  -31.9460 C   0  0  0  0  0  0  0  0  0  0  0  0
   -8.9370   22.2860  -31.4110 C   0  0  0  0  0  0  0  0  0  0  0  0
   -7.6290   22.6190  -31.0720 C   0  0  0  0  0  0  0  0  0  0  0  0
   -7.1120   23.7940  -30.5720 C   0  0  0  0  0  0  0  0  0  0  0  0
   -5.7410   23.5740  -30.4510 C   0  0  0  0  0  0  0  0  0  0  0  0
   -4.7840   24.5770  -29.9430 C   0  0  0  0  0  0  0  0  0  0  0  0
   -3.8860   25.2210  -30.8430 N   0  0  0  0  0  0  0  0  0  0  0  0
   -4.7520   24.8710  -28.7190 O   0  0  0  0  0  0  0  0  0  0  0  0
   -5.4270   22.3110  -30.8540 N   0  0  0  0  0  0  0  0  0  0  0  0
   -4.1280   21.7030  -30.8850 C   0  0  0  0  0  0  0  0  0  0  0  0
   -3.9270   20.6340  -30.2490 O   0  0  0  0  0  0  0  0  0  0  0  0
   -3.0370   22.2640  -31.7440 C   0  0  0  0  0  0  0  0  0  0  0  0
   -2.1210   22.9870  -30.9470 O   0  0  0  0  0  0  0  0  0  0  0  0
   -1.2890   22.0930  -30.2420 C   0  0  0  0  0  0  0  0  0  0  0  0
   -1.6720   22.1350  -28.7880 C   0  0  0  0  0  0  0  0  0  0  0  0
   -1.2520   21.2560  -28.0470 O   0  0  0  0  0  0  0  0  0  0  0  0
   -2.4890   23.2150  -28.2610 N   0  0  1  0  0  0  0  0  0  0  0  0
   -3.6540   22.6970  -27.5200 C   0  0  0  0  0  0  0  0  0  0  0  0
   -1.6780   24.1630  -27.4630 C   0  0  0  0  0  0  0  0  0  0  0  0
   -1.0460   25.2600  -28.2780 C   0  0  0  0  0  0  0  0  0  0  0  0
   -1.5950   25.6550  -29.3400 O   0  0  0  0  0  0  0  0  0  0  0  0
    0.1370   25.8500  -27.8570 O   0  0  0  0  0  0  0  0  0  0  0  0
   -6.5890   21.7410  -31.2370 C   0  0  0  0  0  0  0  0  0  0  0  0
   -6.7910   20.4650  -31.7760 C   0  0  0  0  0  0  0  0  0  0  0  0
   -8.5162   17.9993  -31.9595 H   0  0  0  0  0  0  0  0  0  0  0  0
   -9.2729   18.8089  -33.3732 H   0  0  0  0  0  0  0  0  0  0  0  0
   -7.5100   18.4637  -33.3732 H   0  0  0  0  0  0  0  0  0  0  0  0
  -10.1939   20.7158  -32.2303 H   0  0  0  0  0  0  0  0  0  0  0  0
   -9.7606   23.0004  -31.2651 H   0  0  0  0  0  0  0  0  0  0  0  0
   -7.6643   24.7117  -30.3213 H   0  0  0  0  0  0  0  0  0  0  0  0
   -2.8560   25.0700  -30.7730 H   0  0  0  0  0  0  0  0  0  0  0  0
   -2.5105   21.4407  -32.2489 H   0  0  0  0  0  0  0  0  0  0  0  0
   -3.4767   22.9390  -32.4930 H   0  0  0  0  0  0  0  0  0  0  0  0
   -1.4238   21.0735  -30.6325 H   0  0  0  0  0  0  0  0  0  0  0  0
   -0.2346   22.3818  -30.3638 H   0  0  0  0  0  0  0  0  0  0  0  0
   -2.8770   23.7620  -29.0650 H   0  0  0  0  0  0  0  0  0  0  0  0
   -3.4675   22.7799  -26.4391 H   0  0  0  0  0  0  0  0  0  0  0  0
   -4.5467   23.2830  -27.7841 H   0  0  0  0  0  0  0  0  0  0  0  0
   -3.8169   21.6417  -27.7841 H   0  0  0  0  0  0  0  0  0  0  0  0
   -2.3294   24.6248  -26.7064 H   0  0  0  0  0  0  0  0  0  0  0  0
   -0.8570   23.5835  -27.0157 H   0  0  0  0  0  0  0  0  0  0  0  0
   -5.9479   19.7744  -31.9251 H   0  0  0  0  0  0  0  0  0  0  0  0
  1  2  1  0
  2  3  2  0
  3  4  1  0
  4  5  2  0
  5  6  1  0
  6  7  2  0
  7  8  1  0
  8  9  1  0
  8 10  2  0
  7 11  1  0
 11 12  1  0
 12 13  2  0
 12 14  1  0
 14 15  1  0
 15 16  1  0
 16 17  1  0
 17 18  2  0
 17 19  1  0
 19 20  1  0
 19 21  1  0
 21 22  1  0
 22 23  2  0
 22 24  1  0
 11 25  1  0
 25 26  2  0
 26  2  1  0
 25  5  1  0
  1 27  1  0
  1 28  1  0
  1 29  1  0
  3 30  1  0
  4 31  1  0
  6 32  1  0
  9 33  1  0
 14 34  1  0
 14 35  1  0
 16 36  1  0
 16 37  1  0
 19 38  1  6
 20 39  1  0
 20 40  1  0
 20 41  1  0
 21 42  1  0
 21 43  1  0
 26 44  1  0
M  CHG  3   9  -1  19   1  24  -1
M  END
>  <UniqueID>  (19) 
19

>  <SMILES>  (19) 
Cc1ccc2cc(C([NH-])=O)n(C(=O)COCC(=O)[N@@H+](C)CC(=O)[O-])c2c1

>  <Energy>  (19) 
83.00094388352767

>  <Genealogy>  (19) 
Cc1ccc2cc(C([NH-])=O)n(C(=O)COCC(=O)[NH+](C)CC(=O)[O-])c2c1 (protonated)
Cc1ccc2cc(C([NH-])=O)n(C(=O)COCC(=O)[N@@H+](C)CC(=O)[O-])c2c1 (chirality)
Cc1ccc2cc(C([NH-])=O)n(C(=O)COCC(=O)[N@@H+](C)CC(=O)[O-])c2c1 (3D coordinates assigned)
Cc1ccc2cc(C([NH-])=O)n(C(=O)COCC(=O)[N@@H+](C)CC(=O)[O-])c2c1 (optimized conformer: 83.00094388352767 kcal/mol)

>  <smiles>  (19) 
Cc1ccc2cc(C(N)=O)n(C(=O)COCC(=O)N(C)CC(=O)O)c2c1

>  <score_type>  (19) 
oracle

>  <origin>  (19) 
adg

>  <m_score__min__energy>  (19) 
-11.34

>  <m_primary>  (19) 
energy

$$$$
19:0
     RDKit          3D

 37 38  0  0  0  0  0  0  0  0999 V2000
   -6.2160   17.2880  -31.3760 C   0  0  0  0  0  0  0  0  0  0  0  0
   -6.4680   18.2450  -32.4610 N   0  0  0  0  0  0  0  0  0  0  0  0
   -6.4670   17.7620  -33.8480 C   0  0  0  0  0  0  0  0  0  0  0  0
   -6.7160   19.6460  -32.1670 C   0  0  0  0  0  0  0  0  0  0  0  0
   -8.0280   20.1880  -32.2680 C   0  0  0  0  0  0  0  0  0  0  0  0
   -8.2810   21.5380  -31.9710 C   0  0  0  0  0  0  0  0  0  0  0  0
   -7.2100   22.3330  -31.5840 C   0  0  0  0  0  0  0  0  0  0  0  0
   -7.1810   23.6570  -31.2090 C   0  0  0  0  0  0  0  0  0  0  0  0
   -5.8480   23.9240  -30.9040 C   0  0  0  0  0  0  0  0  0  0  0  0
   -5.3520   25.2620  -30.5210 C   0  0  0  0  0  0  0  0  0  0  0  0
   -4.0270   25.6740  -30.8460 N   0  0  0  0  0  0  0  0  0  0  0  0
   -6.1230   26.0700  -29.9370 O   0  0  0  0  0  0  0  0  0  0  0  0
   -5.0850   22.8080  -31.0810 N   0  0  0  0  0  0  0  0  0  0  0  0
   -3.6920   22.6420  -30.7780 C   0  0  0  0  0  0  0  0  0  0  0  0
   -2.8190   23.0440  -31.5950 O   0  0  0  0  0  0  0  0  0  0  0  0
   -3.3130   22.0030  -29.5930 O   0  0  0  0  0  0  0  0  0  0  0  0
   -1.9730   22.0050  -29.1030 C   0  0  0  0  0  0  0  0  0  0  0  0
   -1.1950   22.9740  -29.7690 O   0  0  0  0  0  0  0  0  0  0  0  0
   -0.9100   24.2830  -28.7120 P   0  0  0  0  0  0  0  0  0  0  0  0
   -1.5310   23.9720  -27.3710 O   0  0  0  0  0  0  0  0  0  0  0  0
    0.7520   24.5180  -28.5060 O   0  0  0  0  0  0  0  0  0  0  0  0
   -1.6080   25.6980  -29.3240 O   0  0  0  0  0  0  0  0  0  0  0  0
   -5.9350   21.8430  -31.4970 C   0  0  0  0  0  0  0  0  0  0  0  0
   -5.6540   20.4990  -31.7660 C   0  0  0  0  0  0  0  0  0  0  0  0
   -6.3482   17.7900  -30.4062 H   0  0  0  0  0  0  0  0  0  0  0  0
   -6.9241   16.4499  -31.4545 H   0  0  0  0  0  0  0  0  0  0  0  0
   -5.1870   16.9073  -31.4545 H   0  0  0  0  0  0  0  0  0  0  0  0
   -6.4647   16.6620  -33.8532 H   0  0  0  0  0  0  0  0  0  0  0  0
   -7.3659   18.1293  -34.3648 H   0  0  0  0  0  0  0  0  0  0  0  0
   -5.5696   18.1330  -34.3648 H   0  0  0  0  0  0  0  0  0  0  0  0
   -8.8582   19.5391  -32.5839 H   0  0  0  0  0  0  0  0  0  0  0  0
   -9.2972   21.9528  -32.0429 H   0  0  0  0  0  0  0  0  0  0  0  0
   -8.0294   24.3555  -31.1605 H   0  0  0  0  0  0  0  0  0  0  0  0
   -3.2110   25.0460  -30.6740 H   0  0  0  0  0  0  0  0  0  0  0  0
   -1.9837   22.2297  -28.0262 H   0  0  0  0  0  0  0  0  0  0  0  0
   -1.5310   21.0142  -29.2845 H   0  0  0  0  0  0  0  0  0  0  0  0
   -4.6295   20.1104  -31.6687 H   0  0  0  0  0  0  0  0  0  0  0  0
  1  2  1  0
  2  3  1  0
  2  4  1  0
  4  5  2  0
  5  6  1  0
  6  7  2  0
  7  8  1  0
  8  9  2  0
  9 10  1  0
 10 11  1  0
 10 12  2  0
  9 13  1  0
 13 14  1  0
 14 15  2  0
 14 16  1  0
 16 17  1  0
 17 18  1  0
 18 19  1  0
 19 20  2  0
 19 21  1  0
 19 22  1  0
 13 23  1  0
 23 24  2  0
 24  4  1  0
 23  7  1  0
  1 25  1  0
  1 26  1  0
  1 27  1  0
  3 28  1  0
  3 29  1  0
  3 30  1  0
  5 31  1  0
  6 32  1  0
  8 33  1  0
 11 34  1  0
 17 35  1  0
 17 36  1  0
 24 37  1  0
M  CHG  3  11  -1  21  -1  22  -1
M  END
>  <UniqueID>  (20) 
20

>  <SMILES>  (20) 
CN(C)c1ccc2cc(C([NH-])=O)n(C(=O)OCOP(=O)([O-])[O-])c2c1

>  <Energy>  (20) 
75.47027301257083

>  <Genealogy>  (20) 
CN(C)c1ccc2cc(C([NH-])=O)n(C(=O)OCOP(=O)([O-])[O-])c2c1 (protonated)
CN(C)c1ccc2cc(C([NH-])=O)n(C(=O)OCOP(=O)([O-])[O-])c2c1 (3D coordinates assigned)
CN(C)c1ccc2cc(C([NH-])=O)n(C(=O)OCOP(=O)([O-])[O-])c2c1 (optimized conformer: 75.47027301257083 kcal/mol)

>  <smiles>  (20) 
CN(C)c1ccc2cc(C(N)=O)n(C(=O)OCOP(=O)(O)O)c2c1

>  <score_type>  (20) 
oracle

>  <origin>  (20) 
adg

>  <m_score__min__energy>  (20) 
-13.619999999999999

>  <m_primary>  (20) 
energy

$$$$
20:0
     RDKit          3D

 42 43  0  0  0  0  0  0  0  0999 V2000
   -6.1640   17.2150  -31.2070 C   0  0  0  0  0  0  0  0  0  0  0  0
   -6.6500   18.0810  -32.2890 N   0  0  0  0  0  0  0  0  0  0  0  0
   -6.8940   17.4940  -33.6120 C   0  0  0  0  0  0  0  0  0  0  0  0
   -6.8850   19.4940  -32.0540 C   0  0  0  0  0  0  0  0  0  0  0  0
   -8.1710   20.0630  -32.2730 C   0  0  0  0  0  0  0  0  0  0  0  0
   -8.4050   21.4320  -32.0590 C   0  0  0  0  0  0  0  0  0  0  0  0
   -7.3470   22.2140  -31.6140 C   0  0  0  0  0  0  0  0  0  0  0  0
   -7.2930   23.5640  -31.3590 C   0  0  0  0  0  0  0  0  0  0  0  0
   -5.9840   23.8080  -30.9520 C   0  0  0  0  0  0  0  0  0  0  0  0
   -5.5040   25.1350  -30.5140 C   0  0  0  0  0  0  0  0  0  0  0  0
   -4.1770   25.5740  -30.8040 N   0  0  0  0  0  0  0  0  0  0  0  0
   -6.2600   25.8680  -29.8230 O   0  0  0  0  0  0  0  0  0  0  0  0
   -5.2520   22.6600  -30.9700 N   0  0  0  0  0  0  0  0  0  0  0  0
   -3.8460   22.5140  -30.7140 C   0  0  0  0  0  0  0  0  0  0  0  0
   -3.0090   22.8140  -31.6090 O   0  0  0  0  0  0  0  0  0  0  0  0
   -3.4090   22.0470  -29.4720 O   0  0  0  0  0  0  0  0  0  0  0  0
   -3.1830   22.9070  -28.3590 C   0  0  0  0  0  0  0  0  0  0  0  0
   -1.9180   23.7540  -28.5770 C   0  0  2  0  0  0  0  0  0  0  0  0
   -2.1190   24.6870  -29.6090 O   0  0  0  0  0  0  0  0  0  0  0  0
   -0.6750   22.8940  -28.8560 C   0  0  0  0  0  0  0  0  0  0  0  0
   -0.6680   22.4760  -30.1940 O   0  0  0  0  0  0  0  0  0  0  0  0
   -6.1040   21.6900  -31.3750 C   0  0  0  0  0  0  0  0  0  0  0  0
   -5.8340   20.3360  -31.6050 C   0  0  0  0  0  0  0  0  0  0  0  0
   -6.4166   17.6651  -30.2356 H   0  0  0  0  0  0  0  0  0  0  0  0
   -6.6389   16.2261  -31.2875 H   0  0  0  0  0  0  0  0  0  0  0  0
   -5.0725   17.1052  -31.2875 H   0  0  0  0  0  0  0  0  0  0  0  0
   -7.3138   16.4842  -33.4933 H   0  0  0  0  0  0  0  0  0  0  0  0
   -7.6049   18.1237  -34.1671 H   0  0  0  0  0  0  0  0  0  0  0  0
   -5.9462   17.4342  -34.1671 H   0  0  0  0  0  0  0  0  0  0  0  0
   -8.9955   19.4204  -32.6155 H   0  0  0  0  0  0  0  0  0  0  0  0
   -9.3973   21.8715  -32.2387 H   0  0  0  0  0  0  0  0  0  0  0  0
   -8.1093   24.2949  -31.4558 H   0  0  0  0  0  0  0  0  0  0  0  0
   -3.4730   24.9250  -31.2210 H   0  0  0  0  0  0  0  0  0  0  0  0
   -3.8670   26.5300  -30.5210 H   0  0  0  0  0  0  0  0  0  0  0  0
   -4.0485   23.5748  -28.2367 H   0  0  0  0  0  0  0  0  0  0  0  0
   -3.0465   22.2916  -27.4575 H   0  0  0  0  0  0  0  0  0  0  0  0
   -1.7278   24.2954  -27.6386 H   0  0  0  0  0  0  0  0  0  0  0  0
   -1.8610   24.2530  -30.4640 H   0  0  0  0  0  0  0  0  0  0  0  0
    0.2298   23.4866  -28.6554 H   0  0  0  0  0  0  0  0  0  0  0  0
   -0.6958   22.0092  -28.2028 H   0  0  0  0  0  0  0  0  0  0  0  0
   -1.5720   22.6790  -30.5500 H   0  0  0  0  0  0  0  0  0  0  0  0
   -4.8245   19.9312  -31.4406 H   0  0  0  0  0  0  0  0  0  0  0  0
  1  2  1  0
  2  3  1  0
  2  4  1  0
  4  5  2  0
  5  6  1  0
  6  7  2  0
  7  8  1  0
  8  9  2  0
  9 10  1  0
 10 11  1  0
 10 12  2  0
  9 13  1  0
 13 14  1  0
 14 15  2  0
 14 16  1  0
 16 17  1  0
 17 18  1  0
 18 19  1  0
 18 20  1  0
 20 21  1  0
 13 22  1  0
 22 23  2  0
 23  4  1  0
 22  7  1  0
  1 24  1  0
  1 25  1  0
  1 26  1  0
  3 27  1  0
  3 28  1  0
  3 29  1  0
  5 30  1  0
  6 31  1  0
  8 32  1  0
 11 33  1  0
 11 34  1  0
 17 35  1  0
 17 36  1  0
 18 37  1  1
 19 38  1  0
 20 39  1  0
 20 40  1  0
 21 41  1  0
 23 42  1  0
M  END
>  <UniqueID>  (21) 
21

>  <SMILES>  (21) 
CN(C)c1ccc2cc(C(N)=O)n(C(=O)OC[C@H](O)CO)c2c1

>  <Energy>  (21) 
76.76993748293515

>  <Genealogy>  (21) 
CN(C)c1ccc2cc(C(N)=O)n(C(=O)OC[C@H](O)CO)c2c1 (chirality)
CN(C)c1ccc2cc(C(N)=O)n(C(=O)OC[C@H](O)CO)c2c1 (3D coordinates assigned)
CN(C)c1ccc2cc(C(N)=O)n(C(=O)OC[C@H](O)CO)c2c1 (optimized conformer: 76.76993748293515 kcal/mol)

>  <smiles>  (21) 
CN(C)c1ccc2cc(C(N)=O)n(C(=O)OCC(O)CO)c2c1

>  <score_type>  (21) 
oracle

>  <origin>  (21) 
adg

>  <m_score__min__energy>  (21) 
-8.6899999999999995

>  <m_primary>  (21) 
energy

$$$$
21:0
     RDKit          3D

 31 32  0  0  0  0  0  0  0  0999 V2000
   -4.1510   25.5210  -30.6570 N   0  0  0  0  0  0  0  0  0  0  0  0
   -5.4900   25.0660  -30.4560 C   0  0  0  0  0  0  0  0  0  0  0  0
   -6.3480   25.8610  -29.9870 O   0  0  0  0  0  0  0  0  0  0  0  0
   -5.9030   23.7040  -30.8490 C   0  0  0  0  0  0  0  0  0  0  0  0
   -7.1300   23.4160  -31.4390 C   0  0  0  0  0  0  0  0  0  0  0  0
   -7.0960   22.0670  -31.7050 C   0  0  0  0  0  0  0  0  0  0  0  0
   -8.0570   21.2480  -32.2880 C   0  0  0  0  0  0  0  0  0  0  0  0
   -7.7690   19.8790  -32.4150 C   0  0  0  0  0  0  0  0  0  0  0  0
   -6.5440   19.3490  -31.9340 C   0  0  0  0  0  0  0  0  0  0  0  0
   -6.2310   17.8840  -32.1070 C   0  0  0  0  0  0  0  0  0  0  0  0
   -6.1060   17.2620  -30.8760 F   0  0  0  0  0  0  0  0  0  0  0  0
   -7.2380   17.2480  -32.8120 F   0  0  0  0  0  0  0  0  0  0  0  0
   -5.0430   17.7520  -32.8020 F   0  0  0  0  0  0  0  0  0  0  0  0
   -5.5840   20.2180  -31.3660 C   0  0  0  0  0  0  0  0  0  0  0  0
   -5.8890   21.5820  -31.2730 C   0  0  0  0  0  0  0  0  0  0  0  0
   -5.1430   22.5780  -30.7410 N   0  0  0  0  0  0  0  0  0  0  0  0
   -3.8670   22.4410  -30.0920 C   0  0  0  0  0  0  0  0  0  0  0  0
   -3.7840   21.8350  -28.9890 O   0  0  0  0  0  0  0  0  0  0  0  0
   -2.7230   22.9780  -30.6880 O   0  0  0  0  0  0  0  0  0  0  0  0
   -1.4480   22.9610  -30.0570 C   0  0  0  0  0  0  0  0  0  0  0  0
   -1.2390   24.2510  -29.3380 C   0  0  0  0  0  0  0  0  0  0  0  0
   -0.1680   24.4570  -28.7090 O   0  0  0  0  0  0  0  0  0  0  0  0
   -2.2010   25.2500  -29.4060 O   0  0  0  0  0  0  0  0  0  0  0  0
   -3.4640   24.9520  -31.1980 H   0  0  0  0  0  0  0  0  0  0  0  0
   -3.8680   26.4740  -30.3380 H   0  0  0  0  0  0  0  0  0  0  0  0
   -7.9514   24.1172  -31.6479 H   0  0  0  0  0  0  0  0  0  0  0  0
   -9.0145   21.6601  -32.6393 H   0  0  0  0  0  0  0  0  0  0  0  0
   -8.5009   19.2109  -32.8924 H   0  0  0  0  0  0  0  0  0  0  0  0
   -4.6193   19.8316  -31.0053 H   0  0  0  0  0  0  0  0  0  0  0  0
   -1.4038   22.1285  -29.3393 H   0  0  0  0  0  0  0  0  0  0  0  0
   -0.6622   22.8293  -30.8154 H   0  0  0  0  0  0  0  0  0  0  0  0
  1  2  1  0
  2  3  2  0
  2  4  1  0
  4  5  2  0
  5  6  1  0
  6  7  2  0
  7  8  1  0
  8  9  2  0
  9 10  1  0
 10 11  1  0
 10 12  1  0
 10 13  1  0
  9 14  1  0
 14 15  2  0
 15 16  1  0
 16 17  1  0
 17 18  2  0
 17 19  1  0
 19 20  1  0
 20 21  1  0
 21 22  2  0
 21 23  1  0
 16  4  1  0
 15  6  1  0
  1 24  1  0
  1 25  1  0
  5 26  1  0
  7 27  1  0
  8 28  1  0
 14 29  1  0
 20 30  1  0
 20 31  1  0
M  CHG  1  23  -1
M  END
>  <UniqueID>  (22) 
22

>  <SMILES>  (22) 
NC(=O)c1cc2ccc(C(F)(F)F)cc2n1C(=O)OCC(=O)[O-]

>  <Energy>  (22) 
68.26411433246184

>  <Genealogy>  (22) 
NC(=O)c1cc2ccc(C(F)(F)F)cc2n1C(=O)OCC(=O)[O-] (protonated)
NC(=O)c1cc2ccc(C(F)(F)F)cc2n1C(=O)OCC(=O)[O-] (3D coordinates assigned)
NC(=O)c1cc2ccc(C(F)(F)F)cc2n1C(=O)OCC(=O)[O-] (optimized conformer: 68.26411433246184 kcal/mol)

>  <smiles>  (22) 
NC(=O)c1cc2ccc(C(F)(F)F)cc2n1C(=O)OCC(=O)O

>  <score_type>  (22) 
oracle

>  <origin>  (22) 
adg

>  <m_score__min__energy>  (22) 
-9.7799999999999994

>  <m_primary>  (22) 
energy

$$$$
22:0
     RDKit          3D

 48 49  0  0  0  0  0  0  0  0999 V2000
   -5.3230   17.1060  -34.9520 N   0  0  0  0  0  0  0  0  0  0  0  0
   -6.2460   17.4260  -33.8960 C   0  0  0  0  0  0  0  0  0  0  0  0
   -7.1070   16.5630  -33.5810 O   0  0  0  0  0  0  0  0  0  0  0  0
   -6.2690   18.7460  -33.1760 C   0  0  0  0  0  0  0  0  0  0  0  0
   -7.4600   19.2340  -32.6390 C   0  0  0  0  0  0  0  0  0  0  0  0
   -7.1450   20.4440  -32.0990 C   0  0  0  0  0  0  0  0  0  0  0  0
   -8.0020   21.3330  -31.4440 C   0  0  0  0  0  0  0  0  0  0  0  0
   -7.4500   22.5330  -30.9680 C   0  0  0  0  0  0  0  0  0  0  0  0
   -6.0940   22.8040  -31.1410 C   0  0  0  0  0  0  0  0  0  0  0  0
   -5.5310   24.0260  -30.6290 N   0  0  0  0  0  0  0  0  0  0  0  0
   -5.2460   21.8740  -31.8060 C   0  0  0  0  0  0  0  0  0  0  0  0
   -5.8270   20.6740  -32.2930 C   0  0  0  0  0  0  0  0  0  0  0  0
   -5.2290   19.6250  -32.9710 N   0  0  0  0  0  0  0  0  0  0  0  0
   -3.8560   19.5540  -33.3610 C   0  0  0  0  0  0  0  0  0  0  0  0
   -3.4740   19.0360  -34.4470 O   0  0  0  0  0  0  0  0  0  0  0  0
   -2.9190   20.0520  -32.4600 O   0  0  0  0  0  0  0  0  0  0  0  0
   -1.9900   21.0960  -32.5300 C   0  0  1  0  0  0  0  0  0  0  0  0
   -1.5560   21.2600  -33.9100 O   0  0  0  0  0  0  0  0  0  0  0  0
   -0.1970   21.5570  -34.2670 C   0  0  0  0  0  0  0  0  0  0  0  0
    0.0930   22.4350  -35.1490 O   0  0  0  0  0  0  0  0  0  0  0  0
    1.1670   20.5220  -33.5730 P   0  0  0  0  0  0  0  0  0  0  0  0
   -2.4000   22.3620  -31.9380 O   0  0  0  0  0  0  0  0  0  0  0  0
   -2.3890   22.4040  -30.5260 C   0  0  0  0  0  0  0  0  0  0  0  0
   -3.1560   21.6460  -29.8510 O   0  0  0  0  0  0  0  0  0  0  0  0
   -1.5440   23.3770  -29.8320 C   0  0  0  0  0  0  0  0  0  0  0  0
   -2.5750   24.8010  -29.3490 P   0  0  0  0  0  0  0  0  0  0  0  0
   -3.4880   24.4630  -28.2000 O   0  0  0  0  0  0  0  0  0  0  0  0
   -3.4930   25.2940  -30.6870 O   0  0  0  0  0  0  0  0  0  0  0  0
   -1.5580   26.0790  -28.9000 O   0  0  0  0  0  0  0  0  0  0  0  0
   -0.9010   20.6210  -31.7560 O   0  0  0  0  0  0  0  0  0  0  0  0
   -0.8060   19.2820  -31.4230 C   0  0  0  0  0  0  0  0  0  0  0  0
   -0.8660   18.9360  -30.2350 O   0  0  0  0  0  0  0  0  0  0  0  0
   -0.6030   18.0480  -32.6830 P   0  0  2  0  0  0  0  0  0  0  0  0
   -1.4900   16.8820  -32.3490 O   0  0  0  0  0  0  0  0  0  0  0  0
    1.0110   17.5350  -32.6970 O   0  0  0  0  0  0  0  0  0  0  0  0
   -1.0260   18.6900  -34.1910 O   0  0  0  0  0  0  0  0  0  0  0  0
   -4.9210   17.8700  -35.5340 H   0  0  0  0  0  0  0  0  0  0  0  0
   -8.4453   18.7451  -32.6494 H   0  0  0  0  0  0  0  0  0  0  0  0
   -9.0685   21.1012  -31.3067 H   0  0  0  0  0  0  0  0  0  0  0  0
   -8.0921   23.2641  -30.4551 H   0  0  0  0  0  0  0  0  0  0  0  0
   -4.9950   24.0260  -29.7230 H   0  0  0  0  0  0  0  0  0  0  0  0
   -5.6260   24.9170  -31.1600 H   0  0  0  0  0  0  0  0  0  0  0  0
   -4.1734   22.0790  -31.9384 H   0  0  0  0  0  0  0  0  0  0  0  0
    1.1070   19.2110  -34.1110 H   0  0  0  0  0  0  0  0  0  0  0  0
    1.2880   20.8100  -32.1740 H   0  0  0  0  0  0  0  0  0  0  0  0
   -1.1064   22.9148  -28.9348 H   0  0  0  0  0  0  0  0  0  0  0  0
   -0.7306   23.7088  -30.4941 H   0  0  0  0  0  0  0  0  0  0  0  0
   -1.4750   19.5540  -33.9880 H   0  0  0  0  0  0  0  0  0  0  0  0
  1  2  1  0
  2  3  2  0
  2  4  1  0
  4  5  2  0
  5  6  1  0
  6  7  2  0
  7  8  1  0
  8  9  2  0
  9 10  1  0
  9 11  1  0
 11 12  2  0
 12 13  1  0
 13 14  1  0
 14 15  2  0
 14 16  1  0
 17 16  1  6
 17 18  1  0
 18 19  1  0
 19 20  2  0
 19 21  1  0
 17 22  1  0
 22 23  1  0
 23 24  2  0
 23 25  1  0
 25 26  1  0
 26 27  2  0
 26 28  1  0
 26 29  1  0
 17 30  1  0
 30 31  1  0
 31 32  2  0
 31 33  1  0
 33 34  2  0
 33 35  1  6
 33 36  1  0
 13  4  1  0
 12  6  1  0
  1 37  1  0
  5 38  1  0
  7 39  1  0
  8 40  1  0
 10 41  1  0
 10 42  1  0
 11 43  1  0
 21 44  1  0
 21 45  1  0
 25 46  1  0
 25 47  1  0
 36 48  1  0
M  CHG  4   1  -1  28  -1  29  -1  35  -1
M  END
>  <UniqueID>  (23) 
23

>  <SMILES>  (23) 
[NH-]C(=O)c1cc2ccc(N)cc2n1C(=O)O[C@@](OC(=O)P)(OC(=O)CP(=O)([O-])[O-])OC(=O)[P@](=O)([O-])O

>  <Energy>  (23) 
136.04401515006327

>  <Genealogy>  (23) 
[NH-]C(=O)c1cc2ccc(N)cc2n1C(=O)OC(OC(=O)P)(OC(=O)CP(=O)([O-])[O-])OC(=O)P(=O)([O-])O (protonated)
[NH-]C(=O)c1cc2ccc(N)cc2n1C(=O)O[C@@](OC(=O)P)(OC(=O)CP(=O)([O-])[O-])OC(=O)[P@](=O)([O-])O (chirality)
[NH-]C(=O)c1cc2ccc(N)cc2n1C(=O)O[C@@](OC(=O)P)(OC(=O)CP(=O)([O-])[O-])OC(=O)[P@](=O)([O-])O (3D coordinates assigned)
[NH-]C(=O)c1cc2ccc(N)cc2n1C(=O)O[C@@](OC(=O)P)(OC(=O)CP(=O)([O-])[O-])OC(=O)[P@](=O)([O-])O (optimized conformer: 136.04401515006327 kcal/mol)

>  <smiles>  (23) 
NC(=O)c1cc2ccc(N)cc2n1C(=O)OC(OC(=O)P)(OC(=O)CP(=O)(O)O)OC(=O)P(=O)(O)O

>  <score_type>  (23) 
oracle

>  <origin>  (23) 
adg

>  <m_score__min__energy>  (23) 
-12.42

>  <m_primary>  (23) 
energy

$$$$
23:0
     RDKit          3D

 36 37  0  0  0  0  0  0  0  0999 V2000
   -4.1230   25.6360  -30.8440 N   0  0  0  0  0  0  0  0  0  0  0  0
   -5.2640   25.0850  -30.1890 C   0  0  0  0  0  0  0  0  0  0  0  0
   -5.7510   25.6830  -29.1930 O   0  0  0  0  0  0  0  0  0  0  0  0
   -5.9150   23.8590  -30.6960 C   0  0  0  0  0  0  0  0  0  0  0  0
   -7.2950   23.7260  -30.8320 C   0  0  0  0  0  0  0  0  0  0  0  0
   -7.4870   22.4970  -31.4190 C   0  0  0  0  0  0  0  0  0  0  0  0
   -8.6660   21.8520  -31.7800 C   0  0  0  0  0  0  0  0  0  0  0  0
   -8.5670   20.5740  -32.3530 C   0  0  0  0  0  0  0  0  0  0  0  0
   -7.3060   19.9580  -32.5510 C   0  0  0  0  0  0  0  0  0  0  0  0
   -7.2560   18.6410  -33.1340 N   0  0  0  0  0  0  0  0  0  0  0  0
   -6.4860   17.5170  -32.5930 C   0  0  0  0  0  0  0  0  0  0  0  0
   -5.9250   16.6390  -33.7150 C   0  0  0  0  0  0  0  0  0  0  0  0
   -6.4910   16.9930  -34.9480 O   0  0  0  0  0  0  0  0  0  0  0  0
   -6.1310   20.6440  -32.1580 C   0  0  0  0  0  0  0  0  0  0  0  0
   -6.2570   21.9270  -31.6130 C   0  0  0  0  0  0  0  0  0  0  0  0
   -5.2800   22.7510  -31.1720 N   0  0  0  0  0  0  0  0  0  0  0  0
   -3.8720   22.4610  -31.1590 C   0  0  0  0  0  0  0  0  0  0  0  0
   -3.4470   21.3730  -31.6350 O   0  0  0  0  0  0  0  0  0  0  0  0
   -2.9780   23.4060  -30.6480 O   0  0  0  0  0  0  0  0  0  0  0  0
   -2.3500   23.2670  -29.3800 C   0  0  0  0  0  0  0  0  0  0  0  0
   -1.2870   24.3040  -29.2460 C   0  0  0  0  0  0  0  0  0  0  0  0
   -0.0960   23.9640  -29.0160 O   0  0  0  0  0  0  0  0  0  0  0  0
   -1.6180   25.6500  -29.3160 O   0  0  0  0  0  0  0  0  0  0  0  0
   -3.1620   25.2940  -30.6260 H   0  0  0  0  0  0  0  0  0  0  0  0
   -8.0673   24.4502  -30.5333 H   0  0  0  0  0  0  0  0  0  0  0  0
   -9.6447   22.3284  -31.6214 H   0  0  0  0  0  0  0  0  0  0  0  0
   -9.4823   20.0426  -32.6529 H   0  0  0  0  0  0  0  0  0  0  0  0
   -7.8100   18.4620  -34.0020 H   0  0  0  0  0  0  0  0  0  0  0  0
   -5.6516   17.9094  -31.9932 H   0  0  0  0  0  0  0  0  0  0  0  0
   -7.1551   16.9033  -31.9720 H   0  0  0  0  0  0  0  0  0  0  0  0
   -4.8342   16.7713  -33.7666 H   0  0  0  0  0  0  0  0  0  0  0  0
   -6.1710   15.5886  -33.5002 H   0  0  0  0  0  0  0  0  0  0  0  0
   -6.5430   17.9840  -34.9640 H   0  0  0  0  0  0  0  0  0  0  0  0
   -5.1415   20.1789  -32.2784 H   0  0  0  0  0  0  0  0  0  0  0  0
   -3.0963   23.3993  -28.5828 H   0  0  0  0  0  0  0  0  0  0  0  0
   -1.9034   22.2653  -29.2953 H   0  0  0  0  0  0  0  0  0  0  0  0
  1  2  1  0
  2  3  2  0
  2  4  1  0
  4  5  2  0
  5  6  1  0
  6  7  2  0
  7  8  1  0
  8  9  2  0
  9 10  1  0
 10 11  1  0
 11 12  1  0
 12 13  1  0
  9 14  1  0
 14 15  2  0
 15 16  1  0
 16 17  1  0
 17 18  2  0
 17 19  1  0
 19 20  1  0
 20 21  1  0
 21 22  2  0
 21 23  1  0
 16  4  1  0
 15  6  1  0
  1 24  1  0
  5 25  1  0
  7 26  1  0
  8 27  1  0
 10 28  1  0
 11 29  1  0
 11 30  1  0
 12 31  1  0
 12 32  1  0
 13 33  1  0
 14 34  1  0
 20 35  1  0
 20 36  1  0
M  CHG  2   1  -1  23  -1
M  END
>  <UniqueID>  (24) 
24

>  <SMILES>  (24) 
[NH-]C(=O)c1cc2ccc(NCCO)cc2n1C(=O)OCC(=O)[O-]

>  <Energy>  (24) 
69.08162478228071

>  <Genealogy>  (24) 
[NH-]C(=O)c1cc2ccc(NCCO)cc2n1C(=O)OCC(=O)[O-] (protonated)
[NH-]C(=O)c1cc2ccc(NCCO)cc2n1C(=O)OCC(=O)[O-] (3D coordinates assigned)
[NH-]C(=O)c1cc2ccc(NCCO)cc2n1C(=O)OCC(=O)[O-] (optimized conformer: 69.08162478228071 kcal/mol)

>  <smiles>  (24) 
NC(=O)c1cc2ccc(NCCO)cc2n1C(=O)OCC(=O)O

>  <score_type>  (24) 
oracle

>  <origin>  (24) 
adg

>  <m_score__min__energy>  (24) 
-11.5

>  <m_primary>  (24) 
energy

$$$$
24:0
     RDKit          3D

 42 43  0  0  0  0  0  0  0  0999 V2000
   -4.2050   25.5140  -30.5730 N   0  0  0  0  0  0  0  0  0  0  0  0
   -5.4400   24.9420  -30.1400 C   0  0  0  0  0  0  0  0  0  0  0  0
   -6.0580   25.4660  -29.1750 O   0  0  0  0  0  0  0  0  0  0  0  0
   -5.9730   23.7120  -30.7600 C   0  0  0  0  0  0  0  0  0  0  0  0
   -7.3220   23.5210  -31.0440 C   0  0  0  0  0  0  0  0  0  0  0  0
   -7.4080   22.2440  -31.5510 C   0  0  0  0  0  0  0  0  0  0  0  0
   -8.5160   21.5360  -32.0070 C   0  0  0  0  0  0  0  0  0  0  0  0
   -8.3090   20.2420  -32.5120 C   0  0  0  0  0  0  0  0  0  0  0  0
   -7.0030   19.6890  -32.5790 C   0  0  0  0  0  0  0  0  0  0  0  0
   -6.8000   18.2830  -33.0860 C   0  0  0  0  0  0  0  0  0  0  0  0
   -6.4780   18.2910  -34.4320 F   0  0  0  0  0  0  0  0  0  0  0  0
   -7.9650   17.5620  -32.9050 F   0  0  0  0  0  0  0  0  0  0  0  0
   -5.7720   17.6600  -32.3990 F   0  0  0  0  0  0  0  0  0  0  0  0
   -5.9060   20.4340  -32.0870 C   0  0  0  0  0  0  0  0  0  0  0  0
   -6.1450   21.7130  -31.5700 C   0  0  0  0  0  0  0  0  0  0  0  0
   -5.2490   22.6050  -31.0880 N   0  0  0  0  0  0  0  0  0  0  0  0
   -3.8190   22.4610  -31.0760 C   0  0  0  0  0  0  0  0  0  0  0  0
   -3.0820   23.4750  -31.2110 O   0  0  0  0  0  0  0  0  0  0  0  0
   -3.2340   21.1680  -30.8890 N   0  0  0  0  0  0  0  0  0  0  0  0
   -2.2050   20.8860  -29.8960 C   0  0  0  0  0  0  0  0  0  0  0  0
   -1.5140   22.1470  -29.4860 C   0  0  0  0  0  0  0  0  0  0  0  0
   -0.7330   22.7220  -30.2920 O   0  0  0  0  0  0  0  0  0  0  0  0
   -1.7210   22.6570  -28.1980 O   0  0  0  0  0  0  0  0  0  0  0  0
   -2.9910   23.0720  -27.6960 C   0  0  0  0  0  0  0  0  0  0  0  0
   -2.9390   24.5280  -27.2190 C   0  0  0  0  0  0  0  0  0  0  0  0
   -1.8950   25.3720  -27.9600 C   0  0  0  0  0  0  0  0  0  0  0  0
   -2.0810   25.2810  -29.3470 O   0  0  0  0  0  0  0  0  0  0  0  0
   -3.5880   25.0170  -31.2510 H   0  0  0  0  0  0  0  0  0  0  0  0
   -3.8640   26.4070  -30.1500 H   0  0  0  0  0  0  0  0  0  0  0  0
   -8.1436   24.2371  -30.8952 H   0  0  0  0  0  0  0  0  0  0  0  0
   -9.5233   21.9766  -31.9729 H   0  0  0  0  0  0  0  0  0  0  0  0
   -9.1685   19.6501  -32.8596 H   0  0  0  0  0  0  0  0  0  0  0  0
   -4.8880   20.0179  -32.1100 H   0  0  0  0  0  0  0  0  0  0  0  0
   -2.6709   20.4248  -29.0127 H   0  0  0  0  0  0  0  0  0  0  0  0
   -1.4647   20.2010  -30.3351 H   0  0  0  0  0  0  0  0  0  0  0  0
   -3.7417   22.9809  -28.4948 H   0  0  0  0  0  0  0  0  0  0  0  0
   -3.2593   22.4312  -26.8432 H   0  0  0  0  0  0  0  0  0  0  0  0
   -3.9289   24.9818  -27.3742 H   0  0  0  0  0  0  0  0  0  0  0  0
   -2.6518   24.5130  -26.1572 H   0  0  0  0  0  0  0  0  0  0  0  0
   -1.9936   26.4228  -27.6502 H   0  0  0  0  0  0  0  0  0  0  0  0
   -0.8922   24.9945  -27.7111 H   0  0  0  0  0  0  0  0  0  0  0  0
   -1.9200   24.3340  -29.6000 H   0  0  0  0  0  0  0  0  0  0  0  0
  1  2  1  0
  2  3  2  0
  2  4  1  0
  4  5  2  0
  5  6  1  0
  6  7  2  0
  7  8  1  0
  8  9  2  0
  9 10  1  0
 10 11  1  0
 10 12  1  0
 10 13  1  0
  9 14  1  0
 14 15  2  0
 15 16  1  0
 16 17  1  0
 17 18  2  0
 17 19  1  0
 19 20  1  0
 20 21  1  0
 21 22  2  0
 21 23  1  0
 23 24  1  0
 24 25  1  0
 25 26  1  0
 26 27  1  0
 16  4  1  0
 15  6  1  0
  1 28  1  0
  1 29  1  0
  5 30  1  0
  7 31  1  0
  8 32  1  0
 14 33  1  0
 20 34  1  0
 20 35  1  0
 24 36  1  0
 24 37  1  0
 25 38  1  0
 25 39  1  0
 26 40  1  0
 26 41  1  0
 27 42  1  0
M  CHG  1  19  -1
M  END
>  <UniqueID>  (25) 
25

>  <SMILES>  (25) 
NC(=O)c1cc2ccc(C(F)(F)F)cc2n1C(=O)[N-]CC(=O)OCCCO

>  <Energy>  (25) 
75.67583818341045

>  <Genealogy>  (25) 
NC(=O)c1cc2ccc(C(F)(F)F)cc2n1C(=O)[N-]CC(=O)OCCCO (protonated)
NC(=O)c1cc2ccc(C(F)(F)F)cc2n1C(=O)[N-]CC(=O)OCCCO (3D coordinates assigned)
NC(=O)c1cc2ccc(C(F)(F)F)cc2n1C(=O)[N-]CC(=O)OCCCO (optimized conformer: 75.67583818341045 kcal/mol)

>  <smiles>  (25) 
NC(=O)c1cc2ccc(C(F)(F)F)cc2n1C(=O)NCC(=O)OCCCO

>  <score_type>  (25) 
oracle

>  <origin>  (25) 
adg

>  <m_score__min__energy>  (25) 
-7.8099999999999996

>  <m_primary>  (25) 
energy

$$$$
25:0
     RDKit          3D

 40 41  0  0  0  0  0  0  0  0999 V2000
   -6.3780   17.4620  -32.8680 C   0  0  0  0  0  0  0  0  0  0  0  0
   -6.7610   18.6710  -33.5890 N   0  0  0  0  0  0  0  0  0  0  0  0
   -7.0060   19.9350  -32.9470 C   0  0  0  0  0  0  0  0  0  0  0  0
   -8.3250   20.3860  -32.6670 C   0  0  0  0  0  0  0  0  0  0  0  0
   -8.5430   21.6210  -32.0320 C   0  0  0  0  0  0  0  0  0  0  0  0
   -7.4310   22.3900  -31.7020 C   0  0  0  0  0  0  0  0  0  0  0  0
   -7.3480   23.5920  -31.0360 C   0  0  0  0  0  0  0  0  0  0  0  0
   -5.9840   23.8690  -30.9340 C   0  0  0  0  0  0  0  0  0  0  0  0
   -5.4460   25.0100  -30.1560 C   0  0  0  0  0  0  0  0  0  0  0  0
   -4.2560   25.7020  -30.5370 N   0  0  0  0  0  0  0  0  0  0  0  0
   -6.0710   25.3980  -29.1330 O   0  0  0  0  0  0  0  0  0  0  0  0
   -5.2590   22.8840  -31.5350 N   0  0  0  0  0  0  0  0  0  0  0  0
   -3.8380   22.7030  -31.5320 C   0  0  0  0  0  0  0  0  0  0  0  0
   -3.3360   21.7320  -32.1560 O   0  0  0  0  0  0  0  0  0  0  0  0
   -2.9760   23.6160  -30.8420 N   0  0  0  0  0  0  0  0  0  0  0  0
   -2.0260   23.2430  -29.7930 C   0  0  1  0  0  0  0  0  0  0  0  0
   -1.3400   24.4800  -29.2800 C   0  0  0  0  0  0  0  0  0  0  0  0
   -1.9810   25.5510  -29.1180 O   0  0  0  0  0  0  0  0  0  0  0  0
    0.0080   24.4320  -28.9440 O   0  0  0  0  0  0  0  0  0  0  0  0
   -2.7190   22.4580  -28.6520 C   0  0  2  0  0  0  0  0  0  0  0  0
   -2.8460   20.9600  -28.9450 C   0  0  0  0  0  0  0  0  0  0  0  0
   -3.9980   22.9830  -28.4030 O   0  0  0  0  0  0  0  0  0  0  0  0
   -6.1560   21.9780  -31.9760 C   0  0  0  0  0  0  0  0  0  0  0  0
   -5.9060   20.7440  -32.5840 C   0  0  0  0  0  0  0  0  0  0  0  0
   -6.4365   17.6468  -31.7852 H   0  0  0  0  0  0  0  0  0  0  0  0
   -7.0605   16.6426  -33.1376 H   0  0  0  0  0  0  0  0  0  0  0  0
   -5.3481   17.1851  -33.1376 H   0  0  0  0  0  0  0  0  0  0  0  0
   -6.8740   18.6010  -34.6270 H   0  0  0  0  0  0  0  0  0  0  0  0
   -9.1848   19.7613  -32.9506 H   0  0  0  0  0  0  0  0  0  0  0  0
   -9.5611   21.9689  -31.8030 H   0  0  0  0  0  0  0  0  0  0  0  0
   -8.1815   24.2051  -30.6627 H   0  0  0  0  0  0  0  0  0  0  0  0
   -3.8310   25.5930  -31.4790 H   0  0  0  0  0  0  0  0  0  0  0  0
   -3.8600   26.4350  -29.9060 H   0  0  0  0  0  0  0  0  0  0  0  0
   -1.2686   22.5690  -30.2197 H   0  0  0  0  0  0  0  0  0  0  0  0
   -2.0757   22.5728  -27.7672 H   0  0  0  0  0  0  0  0  0  0  0  0
   -2.8932   20.4037  -27.9972 H   0  0  0  0  0  0  0  0  0  0  0  0
   -3.7630   20.7761  -29.5241 H   0  0  0  0  0  0  0  0  0  0  0  0
   -1.9731   20.6244  -29.5241 H   0  0  0  0  0  0  0  0  0  0  0  0
   -4.0790   23.8110  -28.9460 H   0  0  0  0  0  0  0  0  0  0  0  0
   -4.8755   20.4103  -32.7755 H   0  0  0  0  0  0  0  0  0  0  0  0
  1  2  1  0
  2  3  1  0
  3  4  2  0
  4  5  1  0
  5  6  2  0
  6  7  1  0
  7  8  2  0
  8  9  1  0
  9 10  1  0
  9 11  2  0
  8 12  1  0
 12 13  1  0
 13 14  2  0
 13 15  1  0
 15 16  1  0
 16 17  1  0
 17 18  2  0
 17 19  1  0
 16 20  1  0
 20 21  1  0
 20 22  1  0
 12 23  1  0
 23 24  2  0
 24  3  1  0
 23  6  1  0
  1 25  1  0
  1 26  1  0
  1 27  1  0
  2 28  1  0
  4 29  1  0
  5 30  1  0
  7 31  1  0
 10 32  1  0
 10 33  1  0
 16 34  1  6
 20 35  1  1
 21 36  1  0
 21 37  1  0
 21 38  1  0
 22 39  1  0
 24 40  1  0
M  CHG  2  15  -1  19  -1
M  END
>  <UniqueID>  (26) 
26

>  <SMILES>  (26) 
CNc1ccc2cc(C(N)=O)n(C(=O)[N-][C@@H](C(=O)[O-])[C@H](C)O)c2c1

>  <Energy>  (26) 
76.96058216556241

>  <Genealogy>  (26) 
CNc1ccc2cc(C(N)=O)n(C(=O)[N-]C(C(=O)[O-])C(C)O)c2c1 (protonated)
CNc1ccc2cc(C(N)=O)n(C(=O)[N-][C@@H](C(=O)[O-])[C@H](C)O)c2c1 (chirality)
CNc1ccc2cc(C(N)=O)n(C(=O)[N-][C@@H](C(=O)[O-])[C@H](C)O)c2c1 (3D coordinates assigned)
CNc1ccc2cc(C(N)=O)n(C(=O)[N-][C@@H](C(=O)[O-])[C@H](C)O)c2c1 (optimized conformer: 76.96058216556241 kcal/mol)

>  <smiles>  (26) 
CNc1ccc2cc(C(N)=O)n(C(=O)NC(C(=O)O)C(C)O)c2c1

>  <score_type>  (26) 
oracle

>  <origin>  (26) 
adg

>  <m_score__min__energy>  (26) 
-11.44

>  <m_primary>  (26) 
energy

$$$$
26:0
     RDKit          3D

 46 47  0  0  0  0  0  0  0  0999 V2000
   -7.2530   18.3590  -32.5830 C   0  0  0  0  0  0  0  0  0  0  0  0
   -7.3510   19.7930  -32.1490 C   0  0  0  0  0  0  0  0  0  0  0  0
   -8.6180   20.4170  -32.0280 C   0  0  0  0  0  0  0  0  0  0  0  0
   -8.7170   21.7610  -31.6260 C   0  0  0  0  0  0  0  0  0  0  0  0
   -7.5390   22.4460  -31.3430 C   0  0  0  0  0  0  0  0  0  0  0  0
   -7.3400   23.7570  -30.9670 C   0  0  0  0  0  0  0  0  0  0  0  0
   -5.9600   23.8970  -30.8390 C   0  0  0  0  0  0  0  0  0  0  0  0
   -5.2920   25.1490  -30.4310 C   0  0  0  0  0  0  0  0  0  0  0  0
   -3.8840   25.3060  -30.5880 N   0  0  0  0  0  0  0  0  0  0  0  0
   -5.9690   26.0890  -29.9430 O   0  0  0  0  0  0  0  0  0  0  0  0
   -5.3330   22.7250  -31.1370 N   0  0  0  0  0  0  0  0  0  0  0  0
   -3.9220   22.4700  -31.1940 C   0  0  0  0  0  0  0  0  0  0  0  0
   -3.3520   22.4380  -32.3200 O   0  0  0  0  0  0  0  0  0  0  0  0
   -3.1520   22.2730  -29.9900 N   0  0  0  0  0  0  0  0  0  0  0  0
   -3.5580   22.9700  -28.7640 C   0  0  0  0  0  0  0  0  0  0  0  0
   -1.9910   21.3640  -29.9760 C   0  0  0  0  0  0  0  0  0  0  0  0
   -1.6220   20.9540  -28.5420 C   0  0  0  0  0  0  0  0  0  0  0  0
   -2.7210   20.1110  -27.8860 C   0  0  0  0  0  0  0  0  0  0  0  0
   -2.1830   19.3990  -26.7050 N   0  0  0  0  0  0  0  0  0  0  0  0
   -3.2350   18.5880  -26.0680 C   0  0  0  0  0  0  0  0  0  0  0  0
   -1.0580   18.5270  -27.0910 C   0  0  0  0  0  0  0  0  0  0  0  0
   -6.3110   21.8450  -31.4320 C   0  0  0  0  0  0  0  0  0  0  0  0
   -6.1790   20.5120  -31.8290 C   0  0  0  0  0  0  0  0  0  0  0  0
   -7.2086   17.7097  -31.6962 H   0  0  0  0  0  0  0  0  0  0  0  0
   -8.1353   18.0971  -33.1854 H   0  0  0  0  0  0  0  0  0  0  0  0
   -6.3432   18.2196  -33.1854 H   0  0  0  0  0  0  0  0  0  0  0  0
   -9.5311   19.8454  -32.2503 H   0  0  0  0  0  0  0  0  0  0  0  0
   -9.6955   22.2557  -31.5379 H   0  0  0  0  0  0  0  0  0  0  0  0
   -8.1071   24.5281  -30.8030 H   0  0  0  0  0  0  0  0  0  0  0  0
   -3.4940   26.0320  -31.2290 H   0  0  0  0  0  0  0  0  0  0  0  0
   -3.2234   22.3955  -27.8877 H   0  0  0  0  0  0  0  0  0  0  0  0
   -3.1014   23.9705  -28.7427 H   0  0  0  0  0  0  0  0  0  0  0  0
   -4.6536   23.0664  -28.7427 H   0  0  0  0  0  0  0  0  0  0  0  0
   -2.2353   20.4614  -30.5554 H   0  0  0  0  0  0  0  0  0  0  0  0
   -1.1324   21.8897  -30.4193 H   0  0  0  0  0  0  0  0  0  0  0  0
   -0.6921   20.3670  -28.5684 H   0  0  0  0  0  0  0  0  0  0  0  0
   -1.4964   21.8711  -27.9477 H   0  0  0  0  0  0  0  0  0  0  0  0
   -3.5437   20.7691  -27.5698 H   0  0  0  0  0  0  0  0  0  0  0  0
   -3.0891   19.3724  -28.6134 H   0  0  0  0  0  0  0  0  0  0  0  0
   -3.1417   18.6599  -24.9743 H   0  0  0  0  0  0  0  0  0  0  0  0
   -4.2228   18.9606  -26.3770 H   0  0  0  0  0  0  0  0  0  0  0  0
   -3.1261   17.5379  -26.3770 H   0  0  0  0  0  0  0  0  0  0  0  0
   -0.5638   18.1439  -26.1860 H   0  0  0  0  0  0  0  0  0  0  0  0
   -1.4358   17.6835  -27.6874 H   0  0  0  0  0  0  0  0  0  0  0  0
   -0.3353   19.1032  -27.6874 H   0  0  0  0  0  0  0  0  0  0  0  0
   -5.1893   20.0359  -31.8905 H   0  0  0  0  0  0  0  0  0  0  0  0
  1  2  1  0
  2  3  2  0
  3  4  1  0
  4  5  2  0
  5  6  1  0
  6  7  2  0
  7  8  1  0
  8  9  1  0
  8 10  2  0
  7 11  1  0
 11 12  1  0
 12 13  2  0
 12 14  1  0
 14 15  1  0
 14 16  1  0
 16 17  1  0
 17 18  1  0
 18 19  1  0
 19 20  1  0
 19 21  1  0
 11 22  1  0
 22 23  2  0
 23  2  1  0
 22  5  1  0
  1 24  1  0
  1 25  1  0
  1 26  1  0
  3 27  1  0
  4 28  1  0
  6 29  1  0
  9 30  1  0
 15 31  1  0
 15 32  1  0
 15 33  1  0
 16 34  1  0
 16 35  1  0
 17 36  1  0
 17 37  1  0
 18 38  1  0
 18 39  1  0
 20 40  1  0
 20 41  1  0
 20 42  1  0
 21 43  1  0
 21 44  1  0
 21 45  1  0
 23 46  1  0
M  CHG  1   9  -1
M  END
>  <UniqueID>  (27) 
27

>  <SMILES>  (27) 
Cc1ccc2cc(C([NH-])=O)n(C(=O)N(C)CCCN(C)C)c2c1

>  <Energy>  (27) 
78.02776081071138

>  <Genealogy>  (27) 
Cc1ccc2cc(C([NH-])=O)n(C(=O)N(C)CCCN(C)C)c2c1 (protonated)
Cc1ccc2cc(C([NH-])=O)n(C(=O)N(C)CCCN(C)C)c2c1 (3D coordinates assigned)
Cc1ccc2cc(C([NH-])=O)n(C(=O)N(C)CCCN(C)C)c2c1 (optimized conformer: 78.02776081071138 kcal/mol)

>  <smiles>  (27) 
Cc1ccc2cc(C(N)=O)n(C(=O)N(C)CCCN(C)C)c2c1

>  <score_type>  (27) 
oracle

>  <origin>  (27) 
adg

>  <m_score__min__energy>  (27) 
-10.49

>  <m_primary>  (27) 
energy

$$$$
27:0
     RDKit          3D

 49 50  0  0  0  0  0  0  0  0999 V2000
   -9.0930   18.8740  -32.2720 C   0  0  0  0  0  0  0  0  0  0  0  0
   -7.9290   19.8710  -32.1170 C   0  0  0  0  0  0  0  0  0  0  0  0
   -7.2470   20.0450  -33.4800 C   0  0  0  0  0  0  0  0  0  0  0  0
   -8.4500   21.2430  -31.6380 C   0  0  0  0  0  0  0  0  0  0  0  0
   -6.9340   19.3690  -31.2110 O   0  0  0  0  0  0  0  0  0  0  0  0
   -6.1300   18.2330  -31.4030 C   0  0  0  0  0  0  0  0  0  0  0  0
   -6.3620   17.1580  -30.7860 O   0  0  0  0  0  0  0  0  0  0  0  0
   -5.0270   18.2940  -32.3230 N   0  0  0  0  0  0  0  0  0  0  0  0
   -4.5130   17.2770  -33.0680 C   0  0  0  0  0  0  0  0  0  0  0  0
   -5.0810   15.9220  -33.1930 C   0  0  0  0  0  0  0  0  0  0  0  0
   -4.9870   15.0140  -32.0970 N   0  0  0  0  0  0  0  0  0  0  0  0
   -5.6350   15.5480  -34.2640 O   0  0  0  0  0  0  0  0  0  0  0  0
   -3.3820   17.7050  -33.7570 C   0  0  0  0  0  0  0  0  0  0  0  0
   -3.2200   19.0270  -33.4110 C   0  0  0  0  0  0  0  0  0  0  0  0
   -2.2380   19.9430  -33.7970 C   0  0  0  0  0  0  0  0  0  0  0  0
   -2.2840   21.2280  -33.2320 C   0  0  0  0  0  0  0  0  0  0  0  0
   -3.2820   21.5590  -32.2830 C   0  0  0  0  0  0  0  0  0  0  0  0
   -3.2640   22.8510  -31.6670 N   0  0  0  0  0  0  0  0  0  0  0  0
   -2.5560   23.0970  -30.4060 C   0  0  2  0  0  0  0  0  0  0  0  0
   -2.7930   21.9490  -29.3970 C   0  0  0  0  0  0  0  0  0  0  0  0
   -1.5390   21.8430  -28.0620 P   0  0  1  0  0  0  0  0  0  0  0  0
   -1.9950   20.8380  -27.0330 O   0  0  0  0  0  0  0  0  0  0  0  0
   -0.0620   21.3220  -28.7110 O   0  0  0  0  0  0  0  0  0  0  0  0
   -1.3390   23.3440  -27.3060 O   0  0  0  0  0  0  0  0  0  0  0  0
   -3.0000   24.7370  -29.7120 P   0  0  0  0  0  0  0  0  0  0  0  0
   -3.8170   24.5430  -28.4570 O   0  0  0  0  0  0  0  0  0  0  0  0
   -1.6030   25.6090  -29.3260 O   0  0  0  0  0  0  0  0  0  0  0  0
   -3.9120   25.6070  -30.8320 O   0  0  0  0  0  0  0  0  0  0  0  0
   -4.2720   20.6160  -31.9320 C   0  0  0  0  0  0  0  0  0  0  0  0
   -4.2220   19.3560  -32.5360 C   0  0  0  0  0  0  0  0  0  0  0  0
   -9.4493   18.5688  -31.2771 H   0  0  0  0  0  0  0  0  0  0  0  0
   -9.9147   19.3528  -32.8248 H   0  0  0  0  0  0  0  0  0  0  0  0
   -8.7462   17.9885  -32.8248 H   0  0  0  0  0  0  0  0  0  0  0  0
   -6.1911   20.3144  -33.3299 H   0  0  0  0  0  0  0  0  0  0  0  0
   -7.3084   19.1024  -34.0437 H   0  0  0  0  0  0  0  0  0  0  0  0
   -7.7525   20.8430  -34.0437 H   0  0  0  0  0  0  0  0  0  0  0  0
   -8.4595   21.2680  -30.5383 H   0  0  0  0  0  0  0  0  0  0  0  0
   -7.7912   22.0381  -32.0172 H   0  0  0  0  0  0  0  0  0  0  0  0
   -9.4705   21.4004  -32.0172 H   0  0  0  0  0  0  0  0  0  0  0  0
   -5.3070   15.2970  -31.1470 H   0  0  0  0  0  0  0  0  0  0  0  0
   -2.7508   17.1117  -34.4350 H   0  0  0  0  0  0  0  0  0  0  0  0
   -1.4553   19.6670  -34.5190 H   0  0  0  0  0  0  0  0  0  0  0  0
   -1.5402   21.9822  -33.5284 H   0  0  0  0  0  0  0  0  0  0  0  0
   -3.9690   23.5490  -32.0110 H   0  0  0  0  0  0  0  0  0  0  0  0
   -1.4765   23.1171  -30.6162 H   0  0  0  0  0  0  0  0  0  0  0  0
   -3.7788   22.0975  -28.9321 H   0  0  0  0  0  0  0  0  0  0  0  0
   -2.7249   21.0107  -29.9671 H   0  0  0  0  0  0  0  0  0  0  0  0
   -1.8080   23.9930  -27.8960 H   0  0  0  0  0  0  0  0  0  0  0  0
   -5.0592   20.8650  -31.2051 H   0  0  0  0  0  0  0  0  0  0  0  0
  1  2  1  0
  2  3  1  0
  2  4  1  0
  2  5  1  0
  5  6  1  0
  6  7  2  0
  6  8  1  0
  8  9  1  0
  9 10  1  0
 10 11  1  0
 10 12  2  0
  9 13  2  0
 13 14  1  0
 14 15  2  0
 15 16  1  0
 16 17  2  0
 17 18  1  0
 18 19  1  0
 19 20  1  0
 20 21  1  0
 21 22  2  0
 21 23  1  6
 21 24  1  0
 19 25  1  0
 25 26  2  0
 25 27  1  0
 25 28  1  0
 17 29  1  0
 29 30  2  0
 30  8  1  0
 30 14  1  0
  1 31  1  0
  1 32  1  0
  1 33  1  0
  3 34  1  0
  3 35  1  0
  3 36  1  0
  4 37  1  0
  4 38  1  0
  4 39  1  0
 11 40  1  0
 13 41  1  0
 15 42  1  0
 16 43  1  0
 18 44  1  0
 19 45  1  6
 20 46  1  0
 20 47  1  0
 24 48  1  0
 29 49  1  0
M  CHG  4  11  -1  23  -1  27  -1  28  -1
M  END
>  <UniqueID>  (28) 
28

>  <SMILES>  (28) 
CC(C)(C)OC(=O)n1c(C([NH-])=O)cc2ccc(N[C@H](C[P@@](=O)([O-])O)P(=O)([O-])[O-])cc21

>  <Energy>  (28) 
81.41291544538682

>  <Genealogy>  (28) 
CC(C)(C)OC(=O)n1c(C([NH-])=O)cc2ccc(NC(CP(=O)([O-])O)P(=O)([O-])[O-])cc21 (protonated)
CC(C)(C)OC(=O)n1c(C([NH-])=O)cc2ccc(N[C@H](C[P@@](=O)([O-])O)P(=O)([O-])[O-])cc21 (chirality)
CC(C)(C)OC(=O)n1c(C([NH-])=O)cc2ccc(N[C@H](C[P@@](=O)([O-])O)P(=O)([O-])[O-])cc21 (3D coordinates assigned)
CC(C)(C)OC(=O)n1c(C([NH-])=O)cc2ccc(N[C@H](C[P@@](=O)([O-])O)P(=O)([O-])[O-])cc21 (optimized conformer: 81.41291544538682 kcal/mol)

>  <smiles>  (28) 
CC(C)(C)OC(=O)n1c(C(N)=O)cc2ccc(NC(CP(=O)(O)O)P(=O)(O)O)cc21

>  <score_type>  (28) 
oracle

>  <origin>  (28) 
adg

>  <m_score__min__energy>  (28) 
-13.58

>  <m_primary>  (28) 
energy

$$$$
28:0
     RDKit          3D

 45 46  0  0  0  0  0  0  0  0999 V2000
   -1.9100   22.5790  -27.0880 C   0  0  0  0  0  0  0  0  0  0  0  0
   -1.6050   24.0930  -27.1450 C   0  0  0  0  0  0  0  0  0  0  0  0
   -0.8290   24.4880  -25.8760 C   0  0  0  0  0  0  0  0  0  0  0  0
   -2.9320   24.8990  -27.1940 C   0  0  0  0  0  0  0  0  0  0  0  0
   -3.7380   24.5420  -28.3620 N   0  0  0  0  0  0  0  0  0  0  0  0
   -0.7310   24.3970  -28.3470 C   0  0  0  0  0  0  0  0  0  0  0  0
    0.4860   24.6970  -28.1910 O   0  0  0  0  0  0  0  0  0  0  0  0
   -1.2580   24.2670  -29.6380 O   0  0  0  0  0  0  0  0  0  0  0  0
   -1.5350   23.0050  -30.2400 C   0  0  0  0  0  0  0  0  0  0  0  0
   -2.9370   22.7530  -30.2490 O   0  0  0  0  0  0  0  0  0  0  0  0
   -3.6800   22.6070  -31.4250 C   0  0  0  0  0  0  0  0  0  0  0  0
   -3.1080   22.3000  -32.5050 O   0  0  0  0  0  0  0  0  0  0  0  0
   -5.1060   22.7780  -31.3910 N   0  0  0  0  0  0  0  0  0  0  0  0
   -5.8090   23.9110  -31.1040 C   0  0  0  0  0  0  0  0  0  0  0  0
   -5.2450   25.1820  -30.6040 C   0  0  0  0  0  0  0  0  0  0  0  0
   -3.8780   25.5160  -30.8270 N   0  0  0  0  0  0  0  0  0  0  0  0
   -5.9680   25.9620  -29.9270 O   0  0  0  0  0  0  0  0  0  0  0  0
   -7.1760   23.6940  -31.2680 C   0  0  0  0  0  0  0  0  0  0  0  0
   -7.2920   22.3800  -31.6570 C   0  0  0  0  0  0  0  0  0  0  0  0
   -8.4270   21.6370  -31.9670 C   0  0  0  0  0  0  0  0  0  0  0  0
   -8.2500   20.3030  -32.3720 C   0  0  0  0  0  0  0  0  0  0  0  0
   -6.9520   19.7430  -32.4660 C   0  0  0  0  0  0  0  0  0  0  0  0
   -6.7850   18.3200  -32.9180 C   0  0  0  0  0  0  0  0  0  0  0  0
   -6.4770   18.2940  -34.2650 F   0  0  0  0  0  0  0  0  0  0  0  0
   -7.9590   17.6210  -32.7040 F   0  0  0  0  0  0  0  0  0  0  0  0
   -5.8230   20.5290  -32.1450 C   0  0  0  0  0  0  0  0  0  0  0  0
   -6.0290   21.8490  -31.7250 C   0  0  0  0  0  0  0  0  0  0  0  0
   -1.9748   22.2573  -26.0381 H   0  0  0  0  0  0  0  0  0  0  0  0
   -2.8666   22.3784  -27.5927 H   0  0  0  0  0  0  0  0  0  0  0  0
   -1.1057   22.0237  -27.5927 H   0  0  0  0  0  0  0  0  0  0  0  0
   -1.4062   24.1942  -24.9869 H   0  0  0  0  0  0  0  0  0  0  0  0
    0.1444   23.9757  -25.8670 H   0  0  0  0  0  0  0  0  0  0  0  0
   -0.6705   25.5765  -25.8670 H   0  0  0  0  0  0  0  0  0  0  0  0
   -3.5112   24.6881  -26.2830 H   0  0  0  0  0  0  0  0  0  0  0  0
   -2.6821   25.9680  -27.2630 H   0  0  0  0  0  0  0  0  0  0  0  0
   -3.0830   24.3500  -29.1550 H   0  0  0  0  0  0  0  0  0  0  0  0
   -4.2970   25.3780  -28.6470 H   0  0  0  0  0  0  0  0  0  0  0  0
   -1.1611   23.0077  -31.2745 H   0  0  0  0  0  0  0  0  0  0  0  0
   -1.0357   22.2163  -29.6581 H   0  0  0  0  0  0  0  0  0  0  0  0
   -3.1110   24.9370  -30.4200 H   0  0  0  0  0  0  0  0  0  0  0  0
   -7.9892   24.4195  -31.1182 H   0  0  0  0  0  0  0  0  0  0  0  0
   -9.4314   22.0800  -31.8972 H   0  0  0  0  0  0  0  0  0  0  0  0
   -9.1278   19.6876  -32.6184 H   0  0  0  0  0  0  0  0  0  0  0  0
   -5.9707   17.8528  -32.3446 H   0  0  0  0  0  0  0  0  0  0  0  0
   -4.8071   20.1145  -32.2230 H   0  0  0  0  0  0  0  0  0  0  0  0
  1  2  1  0
  2  3  1  0
  2  4  1  0
  4  5  1  0
  2  6  1  0
  6  7  2  0
  6  8  1  0
  8  9  1  0
  9 10  1  0
 10 11  1  0
 11 12  2  0
 11 13  1  0
 13 14  1  0
 14 15  1  0
 15 16  1  0
 15 17  2  0
 14 18  2  0
 18 19  1  0
 19 20  2  0
 20 21  1  0
 21 22  2  0
 22 23  1  0
 23 24  1  0
 23 25  1  0
 22 26  1  0
 26 27  2  0
 27 13  1  0
 27 19  1  0
  1 28  1  0
  1 29  1  0
  1 30  1  0
  3 31  1  0
  3 32  1  0
  3 33  1  0
  4 34  1  0
  4 35  1  0
  5 36  1  0
  5 37  1  0
  9 38  1  0
  9 39  1  0
 16 40  1  0
 18 41  1  0
 20 42  1  0
 21 43  1  0
 23 44  1  0
 26 45  1  0
M  CHG  1  16  -1
M  END
>  <UniqueID>  (29) 
29

>  <SMILES>  (29) 
CC(C)(CN)C(=O)OCOC(=O)n1c(C([NH-])=O)cc2ccc(C(F)F)cc21

>  <Energy>  (29) 
75.95912494495188

>  <Genealogy>  (29) 
CC(C)(CN)C(=O)OCOC(=O)n1c(C([NH-])=O)cc2ccc(C(F)F)cc21 (protonated)
CC(C)(CN)C(=O)OCOC(=O)n1c(C([NH-])=O)cc2ccc(C(F)F)cc21 (3D coordinates assigned)
CC(C)(CN)C(=O)OCOC(=O)n1c(C([NH-])=O)cc2ccc(C(F)F)cc21 (optimized conformer: 75.95912494495188 kcal/mol)

>  <smiles>  (29) 
CC(C)(CN)C(=O)OCOC(=O)n1c(C(N)=O)cc2ccc(C(F)F)cc21

>  <score_type>  (29) 
oracle

>  <origin>  (29) 
adg

>  <m_score__min__energy>  (29) 
-10.15

>  <m_primary>  (29) 
energy

$$$$
29:0
     RDKit          3D

 32 33  0  0  0  0  0  0  0  0999 V2000
   -3.9250   25.6610  -30.8330 N   0  0  0  0  0  0  0  0  0  0  0  0
   -5.2470   25.3180  -30.4260 C   0  0  0  0  0  0  0  0  0  0  0  0
   -5.9230   26.1480  -29.7610 O   0  0  0  0  0  0  0  0  0  0  0  0
   -5.8470   24.0220  -30.8050 C   0  0  0  0  0  0  0  0  0  0  0  0
   -7.1870   23.8640  -31.1550 C   0  0  0  0  0  0  0  0  0  0  0  0
   -7.3180   22.5390  -31.5080 C   0  0  0  0  0  0  0  0  0  0  0  0
   -8.4390   21.8260  -31.9210 C   0  0  0  0  0  0  0  0  0  0  0  0
   -8.2850   20.4550  -32.1920 C   0  0  0  0  0  0  0  0  0  0  0  0
   -7.0200   19.8260  -32.0610 C   0  0  0  0  0  0  0  0  0  0  0  0
   -6.8810   18.3440  -32.2980 C   0  0  0  0  0  0  0  0  0  0  0  0
   -6.2880   18.1000  -33.5240 F   0  0  0  0  0  0  0  0  0  0  0  0
   -8.1340   17.7600  -32.2790 F   0  0  0  0  0  0  0  0  0  0  0  0
   -6.0980   17.7630  -31.3150 F   0  0  0  0  0  0  0  0  0  0  0  0
   -5.9100   20.5820  -31.6150 C   0  0  0  0  0  0  0  0  0  0  0  0
   -6.0920   21.9440  -31.3640 C   0  0  0  0  0  0  0  0  0  0  0  0
   -5.1820   22.8390  -30.9290 N   0  0  0  0  0  0  0  0  0  0  0  0
   -3.8150   22.5530  -30.5990 C   0  0  0  0  0  0  0  0  0  0  0  0
   -3.0070   22.2330  -31.5100 O   0  0  0  0  0  0  0  0  0  0  0  0
   -3.3660   22.5250  -29.1710 C   0  0  0  0  0  0  0  0  0  0  0  0
   -3.3120   23.8470  -28.6920 O   0  0  0  0  0  0  0  0  0  0  0  0
   -1.6870   24.3640  -28.7240 P   0  0  2  0  0  0  0  0  0  0  0  0
   -1.0030   24.0020  -27.4240 O   0  0  0  0  0  0  0  0  0  0  0  0
   -1.6050   26.0380  -28.9570 O   0  0  0  0  0  0  0  0  0  0  0  0
   -0.8900   23.5890  -29.9980 O   0  0  0  0  0  0  0  0  0  0  0  0
   -3.0930   25.2850  -30.3280 H   0  0  0  0  0  0  0  0  0  0  0  0
   -7.9728   24.6338  -31.1503 H   0  0  0  0  0  0  0  0  0  0  0  0
   -9.4157   22.3197  -32.0321 H   0  0  0  0  0  0  0  0  0  0  0  0
   -9.1559   19.8628  -32.5095 H   0  0  0  0  0  0  0  0  0  0  0  0
   -4.9278   20.1086  -31.4695 H   0  0  0  0  0  0  0  0  0  0  0  0
   -4.0788   21.9417  -28.5697 H   0  0  0  0  0  0  0  0  0  0  0  0
   -2.3728   22.0578  -29.0982 H   0  0  0  0  0  0  0  0  0  0  0  0
   -1.5320   23.6200  -30.7510 H   0  0  0  0  0  0  0  0  0  0  0  0
  1  2  1  0
  2  3  2  0
  2  4  1  0
  4  5  2  0
  5  6  1  0
  6  7  2  0
  7  8  1  0
  8  9  2  0
  9 10  1  0
 10 11  1  0
 10 12  1  0
 10 13  1  0
  9 14  1  0
 14 15  2  0
 15 16  1  0
 16 17  1  0
 17 18  2  0
 17 19  1  0
 19 20  1  0
 20 21  1  0
 21 22  2  0
 21 23  1  6
 21 24  1  0
 16  4  1  0
 15  6  1  0
  1 25  1  0
  5 26  1  0
  7 27  1  0
  8 28  1  0
 14 29  1  0
 19 30  1  0
 19 31  1  0
 24 32  1  0
M  CHG  2   1  -1  23  -1
M  END
>  <UniqueID>  (30) 
30

>  <SMILES>  (30) 
[NH-]C(=O)c1cc2ccc(C(F)(F)F)cc2n1C(=O)CO[P@](=O)([O-])O

>  <Energy>  (30) 
69.81243471794215

>  <Genealogy>  (30) 
[NH-]C(=O)c1cc2ccc(C(F)(F)F)cc2n1C(=O)COP(=O)([O-])O (protonated)
[NH-]C(=O)c1cc2ccc(C(F)(F)F)cc2n1C(=O)CO[P@](=O)([O-])O (chirality)
[NH-]C(=O)c1cc2ccc(C(F)(F)F)cc2n1C(=O)CO[P@](=O)([O-])O (3D coordinates assigned)
[NH-]C(=O)c1cc2ccc(C(F)(F)F)cc2n1C(=O)CO[P@](=O)([O-])O (optimized conformer: 69.81243471794215 kcal/mol)

>  <smiles>  (30) 
NC(=O)c1cc2ccc(C(F)(F)F)cc2n1C(=O)COP(=O)(O)O

>  <score_type>  (30) 
oracle

>  <origin>  (30) 
adg

>  <m_score__min__energy>  (30) 
-12.279999999999999

>  <m_primary>  (30) 
energy

$$$$
30:0
     RDKit          3D

 52 53  0  0  0  0  0  0  0  0999 V2000
   -3.5990   19.4300  -33.8420 C   0  0  0  0  0  0  0  0  0  0  0  0
   -4.9000   18.6520  -34.0350 C   0  0  0  0  0  0  0  0  0  0  0  0
   -5.3890   17.9800  -32.7400 C   0  0  0  0  0  0  0  0  0  0  0  0
   -6.8420   18.3240  -32.3630 C   0  0  0  0  0  0  0  0  0  0  0  0
   -7.0180   19.7860  -32.0430 C   0  0  0  0  0  0  0  0  0  0  0  0
   -8.2800   20.4120  -32.2140 C   0  0  0  0  0  0  0  0  0  0  0  0
   -8.4420   21.7810  -31.9480 C   0  0  0  0  0  0  0  0  0  0  0  0
   -7.3320   22.4960  -31.5120 C   0  0  0  0  0  0  0  0  0  0  0  0
   -7.1930   23.8370  -31.2320 C   0  0  0  0  0  0  0  0  0  0  0  0
   -5.8520   24.0070  -30.8880 C   0  0  0  0  0  0  0  0  0  0  0  0
   -5.2700   25.2990  -30.4690 C   0  0  0  0  0  0  0  0  0  0  0  0
   -3.9510   25.6730  -30.8590 N   0  0  0  0  0  0  0  0  0  0  0  0
   -5.9360   26.0740  -29.7310 O   0  0  0  0  0  0  0  0  0  0  0  0
   -5.1930   22.8170  -30.9460 N   0  0  0  0  0  0  0  0  0  0  0  0
   -3.7920   22.5770  -30.7790 C   0  0  0  0  0  0  0  0  0  0  0  0
   -2.9560   23.3470  -31.3280 O   0  0  0  0  0  0  0  0  0  0  0  0
   -3.3610   21.5350  -29.9490 O   0  0  0  0  0  0  0  0  0  0  0  0
   -3.4860   21.5700  -28.5290 C   0  0  0  0  0  0  0  0  0  0  0  0
   -2.3130   20.9020  -27.8800 C   0  0  0  0  0  0  0  0  0  0  0  0
   -2.5020   20.1130  -26.9150 O   0  0  0  0  0  0  0  0  0  0  0  0
   -1.0190   21.1810  -28.3380 O   0  0  0  0  0  0  0  0  0  0  0  0
    0.0670   21.5160  -27.4750 C   0  0  0  0  0  0  0  0  0  0  0  0
    0.5110   22.9690  -27.6750 C   0  0  0  0  0  0  0  0  0  0  0  0
   -0.3200   23.9480  -26.8440 C   0  0  0  0  0  0  0  0  0  0  0  0
   -1.6980   23.8250  -27.1780 O   0  0  0  0  0  0  0  0  0  0  0  0
   -2.2720   24.5840  -28.1780 N   0  0  0  0  0  0  0  0  0  0  0  0
   -3.5110   24.5720  -28.3250 O   0  0  0  0  0  0  0  0  0  0  0  0
   -1.4950   25.3320  -29.0320 O   0  0  0  0  0  0  0  0  0  0  0  0
   -6.1100   21.9040  -31.3300 C   0  0  0  0  0  0  0  0  0  0  0  0
   -5.9140   20.5470  -31.6000 C   0  0  0  0  0  0  0  0  0  0  0  0
   -3.3992   19.5495  -32.7669 H   0  0  0  0  0  0  0  0  0  0  0  0
   -2.7697   18.8795  -34.3101 H   0  0  0  0  0  0  0  0  0  0  0  0
   -3.6916   20.4211  -34.3101 H   0  0  0  0  0  0  0  0  0  0  0  0
   -5.6769   19.3474  -34.3855 H   0  0  0  0  0  0  0  0  0  0  0  0
   -4.7048   17.8559  -34.7686 H   0  0  0  0  0  0  0  0  0  0  0  0
   -5.3139   16.8899  -32.8668 H   0  0  0  0  0  0  0  0  0  0  0  0
   -4.7523   18.3580  -31.9265 H   0  0  0  0  0  0  0  0  0  0  0  0
   -7.4975   18.0651  -33.2076 H   0  0  0  0  0  0  0  0  0  0  0  0
   -7.1017   17.7483  -31.4624 H   0  0  0  0  0  0  0  0  0  0  0  0
   -9.1399   19.8187  -32.5584 H   0  0  0  0  0  0  0  0  0  0  0  0
   -9.4170   22.2728  -32.0804 H   0  0  0  0  0  0  0  0  0  0  0  0
   -7.9742   24.6105  -31.2713 H   0  0  0  0  0  0  0  0  0  0  0  0
   -3.1160   25.2890  -30.3670 H   0  0  0  0  0  0  0  0  0  0  0  0
   -3.5354   22.6173  -28.1961 H   0  0  0  0  0  0  0  0  0  0  0  0
   -4.4030   21.0354  -28.2404 H   0  0  0  0  0  0  0  0  0  0  0  0
   -0.2501   21.3790  -26.4306 H   0  0  0  0  0  0  0  0  0  0  0  0
    0.9155   20.8582  -27.7142 H   0  0  0  0  0  0  0  0  0  0  0  0
    1.5665   23.0606  -27.3790 H   0  0  0  0  0  0  0  0  0  0  0  0
    0.3687   23.2220  -28.7360 H   0  0  0  0  0  0  0  0  0  0  0  0
   -0.1833   23.7256  -25.7754 H   0  0  0  0  0  0  0  0  0  0  0  0
    0.0123   24.9746  -27.0579 H   0  0  0  0  0  0  0  0  0  0  0  0
   -4.9249   20.0834  -31.4707 H   0  0  0  0  0  0  0  0  0  0  0  0
  1  2  1  0
  2  3  1  0
  3  4  1  0
  4  5  1  0
  5  6  2  0
  6  7  1  0
  7  8  2  0
  8  9  1  0
  9 10  2  0
 10 11  1  0
 11 12  1  0
 11 13  2  0
 10 14  1  0
 14 15  1  0
 15 16  2  0
 15 17  1  0
 17 18  1  0
 18 19  1  0
 19 20  2  0
 19 21  1  0
 21 22  1  0
 22 23  1  0
 23 24  1  0
 24 25  1  0
 25 26  1  0
 26 27  2  0
 26 28  1  0
 14 29  1  0
 29 30  2  0
 30  5  1  0
 29  8  1  0
  1 31  1  0
  1 32  1  0
  1 33  1  0
  2 34  1  0
  2 35  1  0
  3 36  1  0
  3 37  1  0
  4 38  1  0
  4 39  1  0
  6 40  1  0
  7 41  1  0
  9 42  1  0
 12 43  1  0
 18 44  1  0
 18 45  1  0
 22 46  1  0
 22 47  1  0
 23 48  1  0
 23 49  1  0
 24 50  1  0
 24 51  1  0
 30 52  1  0
M  CHG  3  12  -1  26   1  28  -1
M  END
>  <UniqueID>  (31) 
31

>  <SMILES>  (31) 
CCCCc1ccc2cc(C([NH-])=O)n(C(=O)OCC(=O)OCCCO[N+](=O)[O-])c2c1

>  <Energy>  (31) 
73.63602959815448

>  <Genealogy>  (31) 
CCCCc1ccc2cc(C([NH-])=O)n(C(=O)OCC(=O)OCCCO[N+](=O)[O-])c2c1 (protonated)
CCCCc1ccc2cc(C([NH-])=O)n(C(=O)OCC(=O)OCCCO[N+](=O)[O-])c2c1 (3D coordinates assigned)
CCCCc1ccc2cc(C([NH-])=O)n(C(=O)OCC(=O)OCCCO[N+](=O)[O-])c2c1 (optimized conformer: 73.63602959815448 kcal/mol)

>  <smiles>  (31) 
CCCCc1ccc2cc(C(N)=O)n(C(=O)OCC(=O)OCCCO[N+](=O)[O-])c2c1

>  <score_type>  (31) 
oracle

>  <origin>  (31) 
adg

>  <m_score__min__energy>  (31) 
-10.619999999999999

>  <m_primary>  (31) 
energy

$$$$
31:0
     RDKit          3D

 46 48  0  0  0  0  0  0  0  0999 V2000
   -2.7670   20.9050  -30.3430 C   0  0  0  0  0  0  0  0  0  0  0  0
   -3.4240   22.2150  -30.4090 N   0  0  0  0  0  0  0  0  0  0  0  0
   -3.2870   23.1710  -29.3030 C   0  0  0  0  0  0  0  0  0  0  0  0
   -1.9920   23.9110  -29.4250 C   0  0  0  0  0  0  0  0  0  0  0  0
   -0.9160   23.2820  -29.5970 O   0  0  0  0  0  0  0  0  0  0  0  0
   -1.9710   25.2950  -29.3070 O   0  0  0  0  0  0  0  0  0  0  0  0
   -4.2580   22.5350  -31.5400 C   0  0  0  0  0  0  0  0  0  0  0  0
   -3.7860   22.4870  -32.7090 O   0  0  0  0  0  0  0  0  0  0  0  0
   -5.6320   22.9030  -31.3570 N   0  0  0  0  0  0  0  0  0  0  0  0
   -6.1260   24.1060  -30.9530 C   0  0  0  0  0  0  0  0  0  0  0  0
   -5.3170   25.2670  -30.5320 C   0  0  0  0  0  0  0  0  0  0  0  0
   -4.0340   25.4880  -31.1140 N   0  0  0  0  0  0  0  0  0  0  0  0
   -5.7520   26.0770  -29.6710 O   0  0  0  0  0  0  0  0  0  0  0  0
   -7.5200   24.0820  -30.9550 C   0  0  0  0  0  0  0  0  0  0  0  0
   -7.8630   22.8180  -31.3860 C   0  0  0  0  0  0  0  0  0  0  0  0
   -9.1140   22.2460  -31.5890 C   0  0  0  0  0  0  0  0  0  0  0  0
   -9.1650   20.9230  -32.0610 C   0  0  0  0  0  0  0  0  0  0  0  0
   -7.9710   20.2000  -32.3320 C   0  0  0  0  0  0  0  0  0  0  0  0
   -7.9980   18.8470  -32.8250 N   0  0  0  0  0  0  0  0  0  0  0  0
   -7.0840   17.7890  -32.3920 C   0  0  0  0  0  0  0  0  0  0  0  0
   -5.7890   17.8570  -33.1580 C   0  0  0  0  0  0  0  0  0  0  0  0
   -4.6560   18.4680  -32.5940 C   0  0  0  0  0  0  0  0  0  0  0  0
   -3.4590   18.5340  -33.3140 C   0  0  0  0  0  0  0  0  0  0  0  0
   -3.3860   18.0000  -34.6040 C   0  0  0  0  0  0  0  0  0  0  0  0
   -4.5110   17.4000  -35.1760 C   0  0  0  0  0  0  0  0  0  0  0  0
   -5.7100   17.3310  -34.4580 C   0  0  0  0  0  0  0  0  0  0  0  0
   -6.7220   20.8200  -32.1080 C   0  0  0  0  0  0  0  0  0  0  0  0
   -6.7040   22.1300  -31.6240 C   0  0  0  0  0  0  0  0  0  0  0  0
   -2.6237   20.6193  -29.2905 H   0  0  0  0  0  0  0  0  0  0  0  0
   -3.3952   20.1541  -30.8445 H   0  0  0  0  0  0  0  0  0  0  0  0
   -1.7895   20.9594  -30.8445 H   0  0  0  0  0  0  0  0  0  0  0  0
   -4.1208   23.8877  -29.3354 H   0  0  0  0  0  0  0  0  0  0  0  0
   -3.3025   22.6243  -28.3486 H   0  0  0  0  0  0  0  0  0  0  0  0
   -3.1600   25.2970  -30.5740 H   0  0  0  0  0  0  0  0  0  0  0  0
   -8.2014   24.8981  -30.6727 H   0  0  0  0  0  0  0  0  0  0  0  0
  -10.0355   22.8115  -31.3864 H   0  0  0  0  0  0  0  0  0  0  0  0
  -10.1405   20.4411  -32.2227 H   0  0  0  0  0  0  0  0  0  0  0  0
   -8.7440   18.5810  -33.5080 H   0  0  0  0  0  0  0  0  0  0  0  0
   -6.8753   17.9092  -31.3187 H   0  0  0  0  0  0  0  0  0  0  0  0
   -7.5564   16.8140  -32.5824 H   0  0  0  0  0  0  0  0  0  0  0  0
   -4.7110   18.8960  -31.5822 H   0  0  0  0  0  0  0  0  0  0  0  0
   -2.5733   19.0069  -32.8646 H   0  0  0  0  0  0  0  0  0  0  0  0
   -2.4433   18.0521  -35.1685 H   0  0  0  0  0  0  0  0  0  0  0  0
   -4.4539   16.9815  -36.1917 H   0  0  0  0  0  0  0  0  0  0  0  0
   -6.5948   16.8626  -34.9138 H   0  0  0  0  0  0  0  0  0  0  0  0
   -5.7837   20.2828  -32.3103 H   0  0  0  0  0  0  0  0  0  0  0  0
  1  2  1  0
  2  3  1  0
  3  4  1  0
  4  5  2  0
  4  6  1  0
  2  7  1  0
  7  8  2  0
  7  9  1  0
  9 10  1  0
 10 11  1  0
 11 12  1  0
 11 13  2  0
 10 14  2  0
 14 15  1  0
 15 16  2  0
 16 17  1  0
 17 18  2  0
 18 19  1  0
 19 20  1  0
 20 21  1  0
 21 22  2  0
 22 23  1  0
 23 24  2  0
 24 25  1  0
 25 26  2  0
 18 27  1  0
 27 28  2  0
 28  9  1  0
 28 15  1  0
 26 21  1  0
  1 29  1  0
  1 30  1  0
  1 31  1  0
  3 32  1  0
  3 33  1  0
 12 34  1  0
 14 35  1  0
 16 36  1  0
 17 37  1  0
 19 38  1  0
 20 39  1  0
 20 40  1  0
 22 41  1  0
 23 42  1  0
 24 43  1  0
 25 44  1  0
 26 45  1  0
 27 46  1  0
M  CHG  2   6  -1  12  -1
M  END
>  <UniqueID>  (32) 
32

>  <SMILES>  (32) 
CN(CC(=O)[O-])C(=O)n1c(C([NH-])=O)cc2ccc(NCc3ccccc3)cc21

>  <Energy>  (32) 
83.63936452095051

>  <Genealogy>  (32) 
CN(CC(=O)[O-])C(=O)n1c(C([NH-])=O)cc2ccc(NCc3ccccc3)cc21 (protonated)
CN(CC(=O)[O-])C(=O)n1c(C([NH-])=O)cc2ccc(NCc3ccccc3)cc21 (3D coordinates assigned)
CN(CC(=O)[O-])C(=O)n1c(C([NH-])=O)cc2ccc(NCc3ccccc3)cc21 (optimized conformer: 83.63936452095051 kcal/mol)

>  <smiles>  (32) 
CN(CC(=O)O)C(=O)n1c(C(N)=O)cc2ccc(NCc3ccccc3)cc21

>  <score_type>  (32) 
oracle

>  <origin>  (32) 
adg

>  <m_score__min__energy>  (32) 
-12.85

>  <m_primary>  (32) 
energy

$$$$
32:0
     RDKit          3D

 30 31  0  0  0  0  0  0  0  0999 V2000
   -4.3420   25.6760  -30.8380 N   0  0  0  0  0  0  0  0  0  0  0  0
   -5.5160   24.9710  -30.4450 C   0  0  0  0  0  0  0  0  0  0  0  0
   -6.2240   25.4270  -29.5090 O   0  0  0  0  0  0  0  0  0  0  0  0
   -5.8810   23.6880  -31.0810 C   0  0  0  0  0  0  0  0  0  0  0  0
   -7.1930   23.3290  -31.3830 C   0  0  0  0  0  0  0  0  0  0  0  0
   -7.1160   22.0450  -31.8730 C   0  0  0  0  0  0  0  0  0  0  0  0
   -8.1220   21.2000  -32.3320 C   0  0  0  0  0  0  0  0  0  0  0  0
   -7.7510   19.9310  -32.8090 C   0  0  0  0  0  0  0  0  0  0  0  0
   -6.3890   19.5410  -32.8340 C   0  0  0  0  0  0  0  0  0  0  0  0
   -6.0070   18.1750  -33.3240 C   0  0  0  0  0  0  0  0  0  0  0  0
   -6.0460   17.0190  -31.9710 Cl  0  0  0  0  0  0  0  0  0  0  0  0
   -5.3960   20.4210  -32.3480 C   0  0  0  0  0  0  0  0  0  0  0  0
   -5.7970   21.6700  -31.8620 C   0  0  0  0  0  0  0  0  0  0  0  0
   -5.0250   22.6700  -31.3790 N   0  0  0  0  0  0  0  0  0  0  0  0
   -3.5910   22.6790  -31.3060 C   0  0  0  0  0  0  0  0  0  0  0  0
   -2.9220   21.8400  -31.9680 O   0  0  0  0  0  0  0  0  0  0  0  0
   -2.9430   23.6350  -30.5140 O   0  0  0  0  0  0  0  0  0  0  0  0
   -2.0300   23.3000  -29.4730 C   0  0  0  0  0  0  0  0  0  0  0  0
   -1.1440   24.4630  -29.1610 C   0  0  0  0  0  0  0  0  0  0  0  0
   -1.5670   25.6380  -29.3170 O   0  0  0  0  0  0  0  0  0  0  0  0
    0.1580   24.2510  -28.7260 O   0  0  0  0  0  0  0  0  0  0  0  0
   -3.4860   25.6700  -30.2410 H   0  0  0  0  0  0  0  0  0  0  0  0
   -8.0979   23.9415  -31.2567 H   0  0  0  0  0  0  0  0  0  0  0  0
   -9.1757   21.5157  -32.3218 H   0  0  0  0  0  0  0  0  0  0  0  0
   -8.5244   19.2349  -33.1658 H   0  0  0  0  0  0  0  0  0  0  0  0
   -6.7169   17.8533  -34.1002 H   0  0  0  0  0  0  0  0  0  0  0  0
   -4.9909   18.2098  -33.7439 H   0  0  0  0  0  0  0  0  0  0  0  0
   -4.3348   20.1314  -32.3517 H   0  0  0  0  0  0  0  0  0  0  0  0
   -2.5951   23.0229  -28.5709 H   0  0  0  0  0  0  0  0  0  0  0  0
   -1.4069   22.4559  -29.8036 H   0  0  0  0  0  0  0  0  0  0  0  0
  1  2  1  0
  2  3  2  0
  2  4  1  0
  4  5  2  0
  5  6  1  0
  6  7  2  0
  7  8  1  0
  8  9  2  0
  9 10  1  0
 10 11  1  0
  9 12  1  0
 12 13  2  0
 13 14  1  0
 14 15  1  0
 15 16  2  0
 15 17  1  0
 17 18  1  0
 18 19  1  0
 19 20  2  0
 19 21  1  0
 14  4  1  0
 13  6  1  0
  1 22  1  0
  5 23  1  0
  7 24  1  0
  8 25  1  0
 10 26  1  0
 10 27  1  0
 12 28  1  0
 18 29  1  0
 18 30  1  0
M  CHG  2   1  -1  21  -1
M  END
>  <UniqueID>  (33) 
33

>  <SMILES>  (33) 
[NH-]C(=O)c1cc2ccc(CCl)cc2n1C(=O)OCC(=O)[O-]

>  <Energy>  (33) 
66.35756698426341

>  <Genealogy>  (33) 
[NH-]C(=O)c1cc2ccc(CCl)cc2n1C(=O)OCC(=O)[O-] (protonated)
[NH-]C(=O)c1cc2ccc(CCl)cc2n1C(=O)OCC(=O)[O-] (3D coordinates assigned)
[NH-]C(=O)c1cc2ccc(CCl)cc2n1C(=O)OCC(=O)[O-] (optimized conformer: 66.35756698426341 kcal/mol)

>  <smiles>  (33) 
NC(=O)c1cc2ccc(CCl)cc2n1C(=O)OCC(=O)O

>  <score_type>  (33) 
oracle

>  <origin>  (33) 
adg

>  <m_score__min__energy>  (33) 
-12.029999999999999

>  <m_primary>  (33) 
energy

$$$$
33:0
     RDKit          3D

 39 40  0  0  0  0  0  0  0  0999 V2000
   -5.7900   18.5390  -34.3250 C   0  0  0  0  0  0  0  0  0  0  0  0
   -6.7990   18.5130  -33.1820 C   0  0  0  0  0  0  0  0  0  0  0  0
   -6.9550   19.8820  -32.5780 C   0  0  0  0  0  0  0  0  0  0  0  0
   -8.2480   20.4230  -32.3690 C   0  0  0  0  0  0  0  0  0  0  0  0
   -8.4060   21.7180  -31.8470 C   0  0  0  0  0  0  0  0  0  0  0  0
   -7.2580   22.4450  -31.5470 C   0  0  0  0  0  0  0  0  0  0  0  0
   -7.1240   23.7250  -31.0610 C   0  0  0  0  0  0  0  0  0  0  0  0
   -5.7500   23.9420  -30.9690 C   0  0  0  0  0  0  0  0  0  0  0  0
   -5.1580   25.1730  -30.4030 C   0  0  0  0  0  0  0  0  0  0  0  0
   -3.8880   25.6450  -30.8430 N   0  0  0  0  0  0  0  0  0  0  0  0
   -5.7610   25.7900  -29.4840 O   0  0  0  0  0  0  0  0  0  0  0  0
   -5.0620   22.8430  -31.3910 N   0  0  0  0  0  0  0  0  0  0  0  0
   -3.6420   22.6900  -31.5280 C   0  0  0  0  0  0  0  0  0  0  0  0
   -3.1740   21.9460  -32.4320 O   0  0  0  0  0  0  0  0  0  0  0  0
   -2.7860   23.3430  -30.6340 O   0  0  0  0  0  0  0  0  0  0  0  0
   -2.3060   22.7580  -29.4240 C   0  0  0  0  0  0  0  0  0  0  0  0
   -2.1660   23.8220  -28.3240 C   0  0  2  0  0  0  0  0  0  0  0  0
   -3.3050   24.6430  -28.3210 O   0  0  0  0  0  0  0  0  0  0  0  0
   -0.9140   24.6860  -28.5460 C   0  0  0  0  0  0  0  0  0  0  0  0
   -1.2350   25.8710  -29.2250 O   0  0  0  0  0  0  0  0  0  0  0  0
   -6.0000   21.9340  -31.7370 C   0  0  0  0  0  0  0  0  0  0  0  0
   -5.8130   20.6540  -32.2730 C   0  0  0  0  0  0  0  0  0  0  0  0
   -4.7703   18.5653  -33.9134 H   0  0  0  0  0  0  0  0  0  0  0  0
   -5.9128   17.6374  -34.9431 H   0  0  0  0  0  0  0  0  0  0  0  0
   -5.9591   19.4331  -34.9431 H   0  0  0  0  0  0  0  0  0  0  0  0
   -7.7724   18.1755  -33.5675 H   0  0  0  0  0  0  0  0  0  0  0  0
   -6.4356   17.8236  -32.4056 H   0  0  0  0  0  0  0  0  0  0  0  0
   -9.1362   19.8236  -32.6177 H   0  0  0  0  0  0  0  0  0  0  0  0
   -9.4064   22.1440  -31.6806 H   0  0  0  0  0  0  0  0  0  0  0  0
   -7.9294   24.4275  -30.8005 H   0  0  0  0  0  0  0  0  0  0  0  0
   -3.0050   25.3010  -30.4050 H   0  0  0  0  0  0  0  0  0  0  0  0
   -3.0144   21.9853  -29.0908 H   0  0  0  0  0  0  0  0  0  0  0  0
   -1.3178   22.3137  -29.6139 H   0  0  0  0  0  0  0  0  0  0  0  0
   -2.0668   23.3093  -27.3559 H   0  0  0  0  0  0  0  0  0  0  0  0
   -3.3570   25.0660  -29.2190 H   0  0  0  0  0  0  0  0  0  0  0  0
   -0.4735   24.9385  -27.5702 H   0  0  0  0  0  0  0  0  0  0  0  0
   -0.1980   24.1155  -29.1559 H   0  0  0  0  0  0  0  0  0  0  0  0
   -2.0240   25.6670  -29.7940 H   0  0  0  0  0  0  0  0  0  0  0  0
   -4.8017   20.2599  -32.4519 H   0  0  0  0  0  0  0  0  0  0  0  0
  1  2  1  0
  2  3  1  0
  3  4  2  0
  4  5  1  0
  5  6  2  0
  6  7  1  0
  7  8  2  0
  8  9  1  0
  9 10  1  0
  9 11  2  0
  8 12  1  0
 12 13  1  0
 13 14  2  0
 13 15  1  0
 15 16  1  0
 16 17  1  0
 17 18  1  0
 17 19  1  0
 19 20  1  0
 12 21  1  0
 21 22  2  0
 22  3  1  0
 21  6  1  0
  1 23  1  0
  1 24  1  0
  1 25  1  0
  2 26  1  0
  2 27  1  0
  4 28  1  0
  5 29  1  0
  7 30  1  0
 10 31  1  0
 16 32  1  0
 16 33  1  0
 17 34  1  1
 18 35  1  0
 19 36  1  0
 19 37  1  0
 20 38  1  0
 22 39  1  0
M  CHG  1  10  -1
M  END
>  <UniqueID>  (34) 
34

>  <SMILES>  (34) 
CCc1ccc2cc(C([NH-])=O)n(C(=O)OC[C@H](O)CO)c2c1

>  <Energy>  (34) 
70.67145461215779

>  <Genealogy>  (34) 
CCc1ccc2cc(C([NH-])=O)n(C(=O)OCC(O)CO)c2c1 (protonated)
CCc1ccc2cc(C([NH-])=O)n(C(=O)OC[C@H](O)CO)c2c1 (chirality)
CCc1ccc2cc(C([NH-])=O)n(C(=O)OC[C@H](O)CO)c2c1 (3D coordinates assigned)
CCc1ccc2cc(C([NH-])=O)n(C(=O)OC[C@H](O)CO)c2c1 (optimized conformer: 70.67145461215779 kcal/mol)

>  <smiles>  (34) 
CCc1ccc2cc(C(N)=O)n(C(=O)OCC(O)CO)c2c1

>  <score_type>  (34) 
oracle

>  <origin>  (34) 
adg

>  <m_score__min__energy>  (34) 
-10.16

>  <m_primary>  (34) 
energy

$$$$
34:0
     RDKit          3D

 41 42  0  0  0  0  0  0  0  0999 V2000
   -1.8210   24.2560  -26.3160 C   0  0  0  0  0  0  0  0  0  0  0  0
   -1.8580   23.7010  -27.6720 N   0  0  0  0  0  0  0  0  0  0  0  0
   -2.2960   22.3120  -27.8810 C   0  0  0  0  0  0  0  0  0  0  0  0
   -2.1640   21.8950  -29.3550 C   0  0  0  0  0  0  0  0  0  0  0  0
   -3.4990   21.4810  -29.9920 C   0  0  0  0  0  0  0  0  0  0  0  0
   -4.0210   22.5380  -30.9260 C   0  0  0  0  0  0  0  0  0  0  0  0
   -3.2070   23.2840  -31.5310 O   0  0  0  0  0  0  0  0  0  0  0  0
   -5.4330   22.7450  -31.0940 N   0  0  0  0  0  0  0  0  0  0  0  0
   -6.1360   23.9020  -30.9360 C   0  0  0  0  0  0  0  0  0  0  0  0
   -5.5860   25.1730  -30.4160 C   0  0  0  0  0  0  0  0  0  0  0  0
   -4.2420   25.5600  -30.7040 N   0  0  0  0  0  0  0  0  0  0  0  0
   -6.3140   25.9420  -29.7340 O   0  0  0  0  0  0  0  0  0  0  0  0
   -7.4840   23.6940  -31.2290 C   0  0  0  0  0  0  0  0  0  0  0  0
   -7.5820   22.3630  -31.5690 C   0  0  0  0  0  0  0  0  0  0  0  0
   -8.6890   21.6160  -31.9620 C   0  0  0  0  0  0  0  0  0  0  0  0
   -8.4920   20.2610  -32.2770 C   0  0  0  0  0  0  0  0  0  0  0  0
   -7.2010   19.6800  -32.1900 C   0  0  0  0  0  0  0  0  0  0  0  0
   -6.9890   18.2410  -32.5620 C   0  0  0  0  0  0  0  0  0  0  0  0
   -8.1400   17.5220  -32.3010 F   0  0  0  0  0  0  0  0  0  0  0  0
   -6.6820   18.1410  -33.9070 F   0  0  0  0  0  0  0  0  0  0  0  0
   -6.1010   20.4710  -31.7920 C   0  0  0  0  0  0  0  0  0  0  0  0
   -6.3310   21.8140  -31.4740 C   0  0  0  0  0  0  0  0  0  0  0  0
   -1.4520   24.5370  -28.7720 C   0  0  0  0  0  0  0  0  0  0  0  0
   -2.2840   25.2760  -29.3600 O   0  0  0  0  0  0  0  0  0  0  0  0
   -0.1320   24.5260  -29.2090 O   0  0  0  0  0  0  0  0  0  0  0  0
   -1.8756   23.4375  -25.5832 H   0  0  0  0  0  0  0  0  0  0  0  0
   -0.8837   24.8138  -26.1736 H   0  0  0  0  0  0  0  0  0  0  0  0
   -2.6760   24.9333  -26.1736 H   0  0  0  0  0  0  0  0  0  0  0  0
   -1.6759   21.6451  -27.2640 H   0  0  0  0  0  0  0  0  0  0  0  0
   -3.3555   22.2376  -27.5950 H   0  0  0  0  0  0  0  0  0  0  0  0
   -1.7549   22.7438  -29.9225 H   0  0  0  0  0  0  0  0  0  0  0  0
   -1.5021   21.0170  -29.3868 H   0  0  0  0  0  0  0  0  0  0  0  0
   -3.3508   20.5484  -30.5562 H   0  0  0  0  0  0  0  0  0  0  0  0
   -4.2348   21.3415  -29.1863 H   0  0  0  0  0  0  0  0  0  0  0  0
   -3.5890   24.9180  -31.2050 H   0  0  0  0  0  0  0  0  0  0  0  0
   -3.8760   26.4750  -30.3590 H   0  0  0  0  0  0  0  0  0  0  0  0
   -8.2959   24.4354  -31.1956 H   0  0  0  0  0  0  0  0  0  0  0  0
   -9.6878   22.0728  -32.0240 H   0  0  0  0  0  0  0  0  0  0  0  0
   -9.3466   19.6452  -32.5939 H   0  0  0  0  0  0  0  0  0  0  0  0
   -6.1561   17.8358  -31.9687 H   0  0  0  0  0  0  0  0  0  0  0  0
   -5.0896   20.0425  -31.7335 H   0  0  0  0  0  0  0  0  0  0  0  0
  1  2  1  0
  2  3  1  0
  3  4  1  0
  4  5  1  0
  5  6  1  0
  6  7  2  0
  6  8  1  0
  8  9  1  0
  9 10  1  0
 10 11  1  0
 10 12  2  0
  9 13  2  0
 13 14  1  0
 14 15  2  0
 15 16  1  0
 16 17  2  0
 17 18  1  0
 18 19  1  0
 18 20  1  0
 17 21  1  0
 21 22  2  0
  2 23  1  0
 23 24  2  0
 23 25  1  0
 22  8  1  0
 22 14  1  0
  1 26  1  0
  1 27  1  0
  1 28  1  0
  3 29  1  0
  3 30  1  0
  4 31  1  0
  4 32  1  0
  5 33  1  0
  5 34  1  0
 11 35  1  0
 11 36  1  0
 13 37  1  0
 15 38  1  0
 16 39  1  0
 18 40  1  0
 21 41  1  0
M  CHG  1  25  -1
M  END
>  <UniqueID>  (35) 
35

>  <SMILES>  (35) 
CN(CCCC(=O)n1c(C(N)=O)cc2ccc(C(F)F)cc21)C(=O)[O-]

>  <Energy>  (35) 
71.96822825036527

>  <Genealogy>  (35) 
CN(CCCC(=O)n1c(C(N)=O)cc2ccc(C(F)F)cc21)C(=O)[O-] (protonated)
CN(CCCC(=O)n1c(C(N)=O)cc2ccc(C(F)F)cc21)C(=O)[O-] (3D coordinates assigned)
CN(CCCC(=O)n1c(C(N)=O)cc2ccc(C(F)F)cc21)C(=O)[O-] (optimized conformer: 71.96822825036527 kcal/mol)

>  <smiles>  (35) 
CN(CCCC(=O)n1c(C(N)=O)cc2ccc(C(F)F)cc21)C(=O)O

>  <score_type>  (35) 
oracle

>  <origin>  (35) 
adg

>  <m_score__min__energy>  (35) 
-10.34

>  <m_primary>  (35) 
energy

$$$$
35:0
     RDKit          3D

 37 38  0  0  0  0  0  0  0  0999 V2000
   -1.6480   25.8290  -28.7790 N   0  0  0  0  0  0  0  0  0  0  0  0
   -1.2330   24.4700  -28.6760 C   0  0  0  0  0  0  0  0  0  0  0  0
   -0.6040   24.0930  -27.6510 O   0  0  0  0  0  0  0  0  0  0  0  0
   -1.5800   23.4870  -29.7230 C   0  0  0  0  0  0  0  0  0  0  0  0
   -0.7130   22.4810  -30.1460 C   0  0  0  0  0  0  0  0  0  0  0  0
   -1.4320   21.7360  -31.0510 C   0  0  0  0  0  0  0  0  0  0  0  0
   -1.0530   20.6220  -31.7930 C   0  0  0  0  0  0  0  0  0  0  0  0
   -1.9910   20.0720  -32.6830 C   0  0  0  0  0  0  0  0  0  0  0  0
   -3.2800   20.6460  -32.8170 C   0  0  0  0  0  0  0  0  0  0  0  0
   -4.2680   20.0720  -33.8020 C   0  0  0  0  0  0  0  0  0  0  0  0
   -4.6290   18.6150  -33.4770 C   0  0  0  0  0  0  0  0  0  0  0  0
   -5.8490   18.1520  -34.2340 C   0  0  0  0  0  0  0  0  0  0  0  0
   -6.0380   18.5890  -35.3990 O   0  0  0  0  0  0  0  0  0  0  0  0
   -6.8080   17.2370  -33.6850 N   0  0  0  0  0  0  0  0  0  0  0  0
   -7.3450   17.2350  -32.3260 C   0  0  0  0  0  0  0  0  0  0  0  0
   -8.1180   18.5190  -32.0380 C   0  0  0  0  0  0  0  0  0  0  0  0
   -8.0600   19.3580  -33.1570 O   0  0  0  0  0  0  0  0  0  0  0  0
   -3.6280   21.7800  -32.0510 C   0  0  0  0  0  0  0  0  0  0  0  0
   -2.6800   22.2950  -31.1580 C   0  0  0  0  0  0  0  0  0  0  0  0
   -2.7850   23.3740  -30.3510 N   0  0  0  0  0  0  0  0  0  0  0  0
   -3.9140   24.2590  -30.2620 C   0  0  0  0  0  0  0  0  0  0  0  0
   -4.9800   23.8780  -29.7100 O   0  0  0  0  0  0  0  0  0  0  0  0
   -3.8320   25.5530  -30.7610 O   0  0  0  0  0  0  0  0  0  0  0  0
   -2.6470   26.0730  -28.9650 H   0  0  0  0  0  0  0  0  0  0  0  0
    0.3261   22.3176  -29.8241 H   0  0  0  0  0  0  0  0  0  0  0  0
   -0.0493   20.1849  -31.6862 H   0  0  0  0  0  0  0  0  0  0  0  0
   -1.7227   19.1885  -33.2808 H   0  0  0  0  0  0  0  0  0  0  0  0
   -5.1855   20.6784  -33.7781 H   0  0  0  0  0  0  0  0  0  0  0  0
   -3.8023   20.0910  -34.7984 H   0  0  0  0  0  0  0  0  0  0  0  0
   -3.7790   17.9704  -33.7452 H   0  0  0  0  0  0  0  0  0  0  0  0
   -4.8526   18.5524  -32.4018 H   0  0  0  0  0  0  0  0  0  0  0  0
   -8.0206   16.3750  -32.2081 H   0  0  0  0  0  0  0  0  0  0  0  0
   -6.5051   17.1671  -31.6189 H   0  0  0  0  0  0  0  0  0  0  0  0
   -9.1674   18.2738  -31.8172 H   0  0  0  0  0  0  0  0  0  0  0  0
   -7.6716   19.0301  -31.1723 H   0  0  0  0  0  0  0  0  0  0  0  0
   -7.7790   18.7850  -33.9160 H   0  0  0  0  0  0  0  0  0  0  0  0
   -4.6187   22.2471  -32.1531 H   0  0  0  0  0  0  0  0  0  0  0  0
  1  2  1  0
  2  3  2  0
  2  4  1  0
  4  5  2  0
  5  6  1  0
  6  7  2  0
  7  8  1  0
  8  9  2  0
  9 10  1  0
 10 11  1  0
 11 12  1  0
 12 13  2  0
 12 14  1  0
 14 15  1  0
 15 16  1  0
 16 17  1  0
  9 18  1  0
 18 19  2  0
 19 20  1  0
 20 21  1  0
 21 22  2  0
 21 23  1  0
 20  4  1  0
 19  6  1  0
  1 24  1  0
  5 25  1  0
  7 26  1  0
  8 27  1  0
 10 28  1  0
 10 29  1  0
 11 30  1  0
 11 31  1  0
 15 32  1  0
 15 33  1  0
 16 34  1  0
 16 35  1  0
 17 36  1  0
 18 37  1  0
M  CHG  3   1  -1  14  -1  23  -1
M  END
>  <UniqueID>  (36) 
36

>  <SMILES>  (36) 
[NH-]C(=O)c1cc2ccc(CCC(=O)[N-]CCO)cc2n1C(=O)[O-]

>  <Energy>  (36) 
71.12316678788544

>  <Genealogy>  (36) 
[NH-]C(=O)c1cc2ccc(CCC(=O)[N-]CCO)cc2n1C(=O)[O-] (protonated)
[NH-]C(=O)c1cc2ccc(CCC(=O)[N-]CCO)cc2n1C(=O)[O-] (3D coordinates assigned)
[NH-]C(=O)c1cc2ccc(CCC(=O)[N-]CCO)cc2n1C(=O)[O-] (optimized conformer: 71.12316678788544 kcal/mol)

>  <smiles>  (36) 
NC(=O)c1cc2ccc(CCC(=O)NCCO)cc2n1C(=O)O

>  <score_type>  (36) 
oracle

>  <origin>  (36) 
adg

>  <m_score__min__energy>  (36) 
-10.140000000000001

>  <m_primary>  (36) 
energy

$$$$
36:0
     RDKit          3D

 41 42  0  0  0  0  0  0  0  0999 V2000
   -1.5800   20.0950  -30.1310 C   0  0  0  0  0  0  0  0  0  0  0  0
   -2.5630   20.9990  -30.7340 N   0  0  0  0  0  0  0  0  0  0  0  0
   -3.0180   22.1730  -29.9770 C   0  0  0  0  0  0  0  0  0  0  0  0
   -1.8720   23.1720  -29.7850 C   0  0  0  0  0  0  0  0  0  0  0  0
   -2.5160   24.8200  -29.3620 P   0  0  0  0  0  0  0  0  0  0  0  0
   -3.1690   24.7790  -27.9990 O   0  0  0  0  0  0  0  0  0  0  0  0
   -1.2390   25.9270  -29.3370 O   0  0  0  0  0  0  0  0  0  0  0  0
   -3.6540   25.3010  -30.5160 O   0  0  0  0  0  0  0  0  0  0  0  0
   -2.9570   20.7760  -32.1060 C   0  0  0  0  0  0  0  0  0  0  0  0
   -2.2760   19.9880  -32.8180 O   0  0  0  0  0  0  0  0  0  0  0  0
   -4.1410   21.4300  -32.7100 C   0  0  0  0  0  0  0  0  0  0  0  0
   -4.0040   22.3520  -33.5570 O   0  0  0  0  0  0  0  0  0  0  0  0
   -5.4640   21.0280  -32.3260 N   0  0  0  0  0  0  0  0  0  0  0  0
   -6.3660   21.7460  -31.6020 C   0  0  0  0  0  0  0  0  0  0  0  0
   -6.1780   23.1480  -31.1600 C   0  0  0  0  0  0  0  0  0  0  0  0
   -5.6230   24.1290  -32.0390 N   0  0  0  0  0  0  0  0  0  0  0  0
   -6.4990   23.4890  -29.9920 O   0  0  0  0  0  0  0  0  0  0  0  0
   -7.5150   20.9870  -31.3750 C   0  0  0  0  0  0  0  0  0  0  0  0
   -7.2760   19.7710  -31.9770 C   0  0  0  0  0  0  0  0  0  0  0  0
   -8.0660   18.6270  -32.0320 C   0  0  0  0  0  0  0  0  0  0  0  0
   -7.5450   17.4990  -32.6880 C   0  0  0  0  0  0  0  0  0  0  0  0
   -6.2570   17.5340  -33.2820 C   0  0  0  0  0  0  0  0  0  0  0  0
   -5.6850   16.2970  -33.9280 C   0  0  0  0  0  0  0  0  0  0  0  0
   -4.8880   16.6680  -34.9950 F   0  0  0  0  0  0  0  0  0  0  0  0
   -6.6980   15.4730  -34.3860 F   0  0  0  0  0  0  0  0  0  0  0  0
   -4.9220   15.5810  -33.0220 F   0  0  0  0  0  0  0  0  0  0  0  0
   -5.4760   18.7080  -33.1800 C   0  0  0  0  0  0  0  0  0  0  0  0
   -6.0290   19.8210  -32.5390 C   0  0  0  0  0  0  0  0  0  0  0  0
   -1.6482   20.1577  -29.0349 H   0  0  0  0  0  0  0  0  0  0  0  0
   -1.7849   19.0632  -30.4527 H   0  0  0  0  0  0  0  0  0  0  0  0
   -0.5690   20.3854  -30.4527 H   0  0  0  0  0  0  0  0  0  0  0  0
   -3.8353   22.6625  -30.5269 H   0  0  0  0  0  0  0  0  0  0  0  0
   -3.3676   21.8420  -28.9880 H   0  0  0  0  0  0  0  0  0  0  0  0
   -1.2193   22.8203  -28.9724 H   0  0  0  0  0  0  0  0  0  0  0  0
   -1.3065   23.2451  -30.7257 H   0  0  0  0  0  0  0  0  0  0  0  0
   -5.4670   25.1040  -31.7000 H   0  0  0  0  0  0  0  0  0  0  0  0
   -5.4040   23.9110  -33.0360 H   0  0  0  0  0  0  0  0  0  0  0  0
   -8.4200   21.2946  -30.8306 H   0  0  0  0  0  0  0  0  0  0  0  0
   -9.0669   18.6063  -31.5763 H   0  0  0  0  0  0  0  0  0  0  0  0
   -8.1431   16.5774  -32.7417 H   0  0  0  0  0  0  0  0  0  0  0  0
   -4.4579   18.7451  -33.5948 H   0  0  0  0  0  0  0  0  0  0  0  0
  1  2  1  0
  2  3  1  0
  3  4  1  0
  4  5  1  0
  5  6  2  0
  5  7  1  0
  5  8  1  0
  2  9  1  0
  9 10  2  0
  9 11  1  0
 11 12  2  0
 11 13  1  0
 13 14  1  0
 14 15  1  0
 15 16  1  0
 15 17  2  0
 14 18  2  0
 18 19  1  0
 19 20  2  0
 20 21  1  0
 21 22  2  0
 22 23  1  0
 23 24  1  0
 23 25  1  0
 23 26  1  0
 22 27  1  0
 27 28  2  0
 28 13  1  0
 28 19  1  0
  1 29  1  0
  1 30  1  0
  1 31  1  0
  3 32  1  0
  3 33  1  0
  4 34  1  0
  4 35  1  0
 16 36  1  0
 16 37  1  0
 18 38  1  0
 20 39  1  0
 21 40  1  0
 27 41  1  0
M  CHG  2   7  -1   8  -1
M  END
>  <UniqueID>  (37) 
37

>  <SMILES>  (37) 
CN(CCP(=O)([O-])[O-])C(=O)C(=O)n1c(C(N)=O)cc2ccc(C(F)(F)F)cc21

>  <Energy>  (37) 
76.45066132073607

>  <Genealogy>  (37) 
CN(CCP(=O)([O-])[O-])C(=O)C(=O)n1c(C(N)=O)cc2ccc(C(F)(F)F)cc21 (protonated)
CN(CCP(=O)([O-])[O-])C(=O)C(=O)n1c(C(N)=O)cc2ccc(C(F)(F)F)cc21 (3D coordinates assigned)
CN(CCP(=O)([O-])[O-])C(=O)C(=O)n1c(C(N)=O)cc2ccc(C(F)(F)F)cc21 (optimized conformer: 76.45066132073607 kcal/mol)

>  <smiles>  (37) 
CN(CCP(=O)(O)O)C(=O)C(=O)n1c(C(N)=O)cc2ccc(C(F)(F)F)cc21

>  <score_type>  (37) 
oracle

>  <origin>  (37) 
adg

>  <m_score__min__energy>  (37) 
-12.77

>  <m_primary>  (37) 
energy

$$$$
37:0
     RDKit          3D

 35 37  0  0  0  0  0  0  0  0999 V2000
   -5.5530   26.6280  -30.2880 N   0  0  0  0  0  0  0  0  0  0  0  0
   -6.3770   25.5240  -29.9110 C   0  0  0  0  0  0  0  0  0  0  0  0
   -7.2080   25.6650  -28.9750 O   0  0  0  0  0  0  0  0  0  0  0  0
   -6.3180   24.2410  -30.6410 C   0  0  0  0  0  0  0  0  0  0  0  0
   -7.4490   23.5300  -31.0300 C   0  0  0  0  0  0  0  0  0  0  0  0
   -6.9700   22.4430  -31.7250 C   0  0  0  0  0  0  0  0  0  0  0  0
   -7.6600   21.4010  -32.3280 C   0  0  0  0  0  0  0  0  0  0  0  0
   -6.9140   20.3860  -32.9480 C   0  0  0  0  0  0  0  0  0  0  0  0
   -5.4860   20.4070  -32.9520 C   0  0  0  0  0  0  0  0  0  0  0  0
   -4.7190   19.3380  -33.5890 N   0  0  0  0  0  0  0  0  0  0  0  0
   -5.4360   18.2470  -34.2830 C   0  0  0  0  0  0  0  0  0  0  0  0
   -4.5080   17.2370  -34.9630 C   0  0  0  0  0  0  0  0  0  0  0  0
   -3.3630   16.9970  -34.1790 O   0  0  0  0  0  0  0  0  0  0  0  0
   -2.5730   18.1610  -34.1810 C   0  0  0  0  0  0  0  0  0  0  0  0
   -3.2540   19.2870  -33.4000 C   0  0  0  0  0  0  0  0  0  0  0  0
   -4.8330   21.5040  -32.3200 C   0  0  0  0  0  0  0  0  0  0  0  0
   -5.6050   22.5130  -31.7310 C   0  0  0  0  0  0  0  0  0  0  0  0
   -5.1850   23.6140  -31.0660 N   0  0  0  0  0  0  0  0  0  0  0  0
   -3.8250   23.9740  -30.7690 C   0  0  0  0  0  0  0  0  0  0  0  0
   -2.9240   23.0940  -30.7570 O   0  0  0  0  0  0  0  0  0  0  0  0
   -3.4890   25.2920  -30.4900 O   0  0  0  0  0  0  0  0  0  0  0  0
   -5.5800   27.5130  -29.7370 H   0  0  0  0  0  0  0  0  0  0  0  0
   -4.9820   26.6000  -31.1610 H   0  0  0  0  0  0  0  0  0  0  0  0
   -8.5000   23.7824  -30.8259 H   0  0  0  0  0  0  0  0  0  0  0  0
   -8.7596   21.3711  -32.3205 H   0  0  0  0  0  0  0  0  0  0  0  0
   -7.4411   19.5562  -33.4416 H   0  0  0  0  0  0  0  0  0  0  0  0
   -6.0516   17.7114  -33.5453 H   0  0  0  0  0  0  0  0  0  0  0  0
   -6.0410   18.7123  -35.0751 H   0  0  0  0  0  0  0  0  0  0  0  0
   -5.0500   16.2908  -35.1074 H   0  0  0  0  0  0  0  0  0  0  0  0
   -4.1896   17.6501  -35.9315 H   0  0  0  0  0  0  0  0  0  0  0  0
   -1.6015   17.9372  -33.7161 H   0  0  0  0  0  0  0  0  0  0  0  0
   -2.4355   18.4896  -35.2217 H   0  0  0  0  0  0  0  0  0  0  0  0
   -3.0466   19.1422  -32.3295 H   0  0  0  0  0  0  0  0  0  0  0  0
   -2.8470   20.2351  -33.7812 H   0  0  0  0  0  0  0  0  0  0  0  0
   -3.7346   21.5579  -32.2949 H   0  0  0  0  0  0  0  0  0  0  0  0
  1  2  1  0
  2  3  2  0
  2  4  1  0
  4  5  2  0
  5  6  1  0
  6  7  2  0
  7  8  1  0
  8  9  2  0
  9 10  1  0
 10 11  1  0
 11 12  1  0
 12 13  1  0
 13 14  1  0
 14 15  1  0
  9 16  1  0
 16 17  2  0
 17 18  1  0
 18 19  1  0
 19 20  2  0
 19 21  1  0
 18  4  1  0
 17  6  1  0
 15 10  1  0
  1 22  1  0
  1 23  1  0
  5 24  1  0
  7 25  1  0
  8 26  1  0
 11 27  1  0
 11 28  1  0
 12 29  1  0
 12 30  1  0
 14 31  1  0
 14 32  1  0
 15 33  1  0
 15 34  1  0
 16 35  1  0
M  CHG  1  21  -1
M  END
>  <UniqueID>  (38) 
38

>  <SMILES>  (38) 
NC(=O)c1cc2ccc(N3CCOCC3)cc2n1C(=O)[O-]

>  <Energy>  (38) 
84.60996733445712

>  <Genealogy>  (38) 
NC(=O)c1cc2ccc(N3CCOCC3)cc2n1C(=O)[O-] (protonated)
NC(=O)c1cc2ccc(N3CCOCC3)cc2n1C(=O)[O-] (3D coordinates assigned)
NC(=O)c1cc2ccc(N3CCOCC3)cc2n1C(=O)[O-] (nonaromatic ring conformer: 84.60996733445712 kcal/mol)

>  <smiles>  (38) 
NC(=O)c1cc2ccc(N3CCOCC3)cc2n1C(=O)O

>  <score_type>  (38) 
oracle

>  <origin>  (38) 
adg

>  <m_score__min__energy>  (38) 
-8.9600000000000009

>  <m_primary>  (38) 
energy

$$$$
38:0
     RDKit          3D

 42 43  0  0  0  0  0  0  0  0999 V2000
   -9.3560   23.4520  -32.3200 C   0  0  0  0  0  0  0  0  0  0  0  0
   -8.1170   22.7540  -31.9310 N   0  0  0  0  0  0  0  0  0  0  0  0
   -7.0430   23.5270  -31.3050 C   0  0  0  0  0  0  0  0  0  0  0  0
   -7.9640   21.3200  -32.1510 C   0  0  0  0  0  0  0  0  0  0  0  0
   -9.0300   20.4160  -31.8610 C   0  0  0  0  0  0  0  0  0  0  0  0
   -8.8850   19.0330  -32.0580 C   0  0  0  0  0  0  0  0  0  0  0  0
   -7.6720   18.5670  -32.5510 C   0  0  0  0  0  0  0  0  0  0  0  0
   -7.2400   17.2760  -32.7720 C   0  0  0  0  0  0  0  0  0  0  0  0
   -5.9200   17.3980  -33.2070 C   0  0  0  0  0  0  0  0  0  0  0  0
   -5.0190   16.2400  -33.4050 C   0  0  0  0  0  0  0  0  0  0  0  0
   -3.6020   16.3480  -33.1690 N   0  0  0  0  0  0  0  0  0  0  0  0
   -5.5100   15.1330  -33.7500 O   0  0  0  0  0  0  0  0  0  0  0  0
   -5.5580   18.7130  -33.2620 N   0  0  0  0  0  0  0  0  0  0  0  0
   -4.2550   19.2640  -33.5080 C   0  0  0  0  0  0  0  0  0  0  0  0
   -3.6310   18.9270  -34.5490 O   0  0  0  0  0  0  0  0  0  0  0  0
   -3.6830   20.1560  -32.5870 O   0  0  0  0  0  0  0  0  0  0  0  0
   -2.3280   20.5900  -32.6900 C   0  0  0  0  0  0  0  0  0  0  0  0
   -2.2620   21.9940  -32.4460 O   0  0  0  0  0  0  0  0  0  0  0  0
   -3.0040   22.6190  -31.4450 C   0  0  0  0  0  0  0  0  0  0  0  0
   -4.2250   22.8660  -31.6130 O   0  0  0  0  0  0  0  0  0  0  0  0
   -2.3410   23.0150  -30.1660 C   0  0  0  0  0  0  0  0  0  0  0  0
   -2.9340   24.6460  -29.6140 P   0  0  0  0  0  0  0  0  0  0  0  0
   -3.7920   24.4920  -28.3760 O   0  0  0  0  0  0  0  0  0  0  0  0
   -3.8580   25.3470  -30.8500 O   0  0  0  0  0  0  0  0  0  0  0  0
   -1.6110   25.6440  -29.2640 O   0  0  0  0  0  0  0  0  0  0  0  0
   -6.6370   19.4100  -32.8430 C   0  0  0  0  0  0  0  0  0  0  0  0
   -6.7450   20.7920  -32.6520 C   0  0  0  0  0  0  0  0  0  0  0  0
   -9.9025   23.7599  -31.4164 H   0  0  0  0  0  0  0  0  0  0  0  0
   -9.1041   24.3410  -32.9169 H   0  0  0  0  0  0  0  0  0  0  0  0
   -9.9858   22.7759  -32.9169 H   0  0  0  0  0  0  0  0  0  0  0  0
   -7.1339   23.4615  -30.2107 H   0  0  0  0  0  0  0  0  0  0  0  0
   -6.0693   23.1212  -31.6169 H   0  0  0  0  0  0  0  0  0  0  0  0
   -7.1187   24.5791  -31.6169 H   0  0  0  0  0  0  0  0  0  0  0  0
   -9.9823   20.8097  -31.4762 H   0  0  0  0  0  0  0  0  0  0  0  0
   -9.7072   18.3391  -31.8289 H   0  0  0  0  0  0  0  0  0  0  0  0
   -7.8140   16.3477  -32.6346 H   0  0  0  0  0  0  0  0  0  0  0  0
   -3.1050   17.2610  -33.2710 H   0  0  0  0  0  0  0  0  0  0  0  0
   -1.7147   20.0589  -31.9472 H   0  0  0  0  0  0  0  0  0  0  0  0
   -1.9478   20.3734  -33.6992 H   0  0  0  0  0  0  0  0  0  0  0  0
   -2.5703   22.2665  -29.3932 H   0  0  0  0  0  0  0  0  0  0  0  0
   -1.2550   23.0704  -30.3321 H   0  0  0  0  0  0  0  0  0  0  0  0
   -5.9007   21.4573  -32.8858 H   0  0  0  0  0  0  0  0  0  0  0  0
  1  2  1  0
  2  3  1  0
  2  4  1  0
  4  5  2  0
  5  6  1  0
  6  7  2  0
  7  8  1  0
  8  9  2  0
  9 10  1  0
 10 11  1  0
 10 12  2  0
  9 13  1  0
 13 14  1  0
 14 15  2  0
 14 16  1  0
 16 17  1  0
 17 18  1  0
 18 19  1  0
 19 20  2  0
 19 21  1  0
 21 22  1  0
 22 23  2  0
 22 24  1  0
 22 25  1  0
 13 26  1  0
 26 27  2  0
 27  4  1  0
 26  7  1  0
  1 28  1  0
  1 29  1  0
  1 30  1  0
  3 31  1  0
  3 32  1  0
  3 33  1  0
  5 34  1  0
  6 35  1  0
  8 36  1  0
 11 37  1  0
 17 38  1  0
 17 39  1  0
 21 40  1  0
 21 41  1  0
 27 42  1  0
M  CHG  3  11  -1  24  -1  25  -1
M  END
>  <UniqueID>  (39) 
39

>  <SMILES>  (39) 
CN(C)c1ccc2cc(C([NH-])=O)n(C(=O)OCOC(=O)CP(=O)([O-])[O-])c2c1

>  <Energy>  (39) 
75.90668707378562

>  <Genealogy>  (39) 
CN(C)c1ccc2cc(C([NH-])=O)n(C(=O)OCOC(=O)CP(=O)([O-])[O-])c2c1 (protonated)
CN(C)c1ccc2cc(C([NH-])=O)n(C(=O)OCOC(=O)CP(=O)([O-])[O-])c2c1 (3D coordinates assigned)
CN(C)c1ccc2cc(C([NH-])=O)n(C(=O)OCOC(=O)CP(=O)([O-])[O-])c2c1 (optimized conformer: 75.90668707378562 kcal/mol)

>  <smiles>  (39) 
CN(C)c1ccc2cc(C(N)=O)n(C(=O)OCOC(=O)CP(=O)(O)O)c2c1

>  <score_type>  (39) 
oracle

>  <origin>  (39) 
adg

>  <m_score__min__energy>  (39) 
-13.960000000000001

>  <m_primary>  (39) 
energy

$$$$
39:0
     RDKit          3D

 48 49  0  0  0  0  0  0  0  0999 V2000
   -9.0390   23.4200  -32.0690 C   0  0  0  0  0  0  0  0  0  0  0  0
   -7.8780   22.6360  -31.6190 N   0  0  0  0  0  0  0  0  0  0  0  0
   -6.8510   23.3000  -30.7940 C   0  0  0  0  0  0  0  0  0  0  0  0
   -5.9210   24.1740  -31.6460 C   0  0  0  0  0  0  0  0  0  0  0  0
   -5.2420   25.2240  -30.8200 C   0  0  0  0  0  0  0  0  0  0  0  0
   -5.9230   26.0240  -30.1250 O   0  0  0  0  0  0  0  0  0  0  0  0
   -3.8540   25.3170  -30.8140 O   0  0  0  0  0  0  0  0  0  0  0  0
   -7.7750   21.2300  -31.9780 C   0  0  0  0  0  0  0  0  0  0  0  0
   -8.9130   20.3740  -31.9310 C   0  0  0  0  0  0  0  0  0  0  0  0
   -8.8180   19.0190  -32.2860 C   0  0  0  0  0  0  0  0  0  0  0  0
   -7.5820   18.5360  -32.7020 C   0  0  0  0  0  0  0  0  0  0  0  0
   -7.2160   17.2700  -33.0950 C   0  0  0  0  0  0  0  0  0  0  0  0
   -5.8620   17.3590  -33.4120 C   0  0  0  0  0  0  0  0  0  0  0  0
   -5.0740   16.2400  -33.9760 C   0  0  0  0  0  0  0  0  0  0  0  0
   -4.2350   16.4400  -35.1160 N   0  0  0  0  0  0  0  0  0  0  0  0
   -5.1120   15.1020  -33.4370 O   0  0  0  0  0  0  0  0  0  0  0  0
   -5.4080   18.6310  -33.2150 N   0  0  0  0  0  0  0  0  0  0  0  0
   -4.0680   19.1260  -33.3910 C   0  0  0  0  0  0  0  0  0  0  0  0
   -3.4720   18.9450  -34.4870 O   0  0  0  0  0  0  0  0  0  0  0  0
   -3.4330   19.7900  -32.3290 O   0  0  0  0  0  0  0  0  0  0  0  0
   -3.0340   21.1670  -32.2960 C   0  0  0  0  0  0  0  0  0  0  0  0
   -3.4220   21.8170  -30.9540 C   0  0  0  0  0  0  0  0  0  0  0  0
   -3.7900   21.8820  -33.4270 C   0  0  0  0  0  0  0  0  0  0  0  0
   -1.5200   21.2940  -32.5470 C   0  0  0  0  0  0  0  0  0  0  0  0
   -6.4760   19.3380  -32.7790 C   0  0  0  0  0  0  0  0  0  0  0  0
   -6.5330   20.6850  -32.3990 C   0  0  0  0  0  0  0  0  0  0  0  0
   -9.5912   23.7929  -31.1937 H   0  0  0  0  0  0  0  0  0  0  0  0
   -8.6943   24.2709  -32.6748 H   0  0  0  0  0  0  0  0  0  0  0  0
   -9.6995   22.7823  -32.6748 H   0  0  0  0  0  0  0  0  0  0  0  0
   -7.3491   23.9332  -30.0451 H   0  0  0  0  0  0  0  0  0  0  0  0
   -6.2433   22.5220  -30.3087 H   0  0  0  0  0  0  0  0  0  0  0  0
   -5.1557   23.5344  -32.1099 H   0  0  0  0  0  0  0  0  0  0  0  0
   -6.5284   24.6780  -32.4122 H   0  0  0  0  0  0  0  0  0  0  0  0
   -9.8831   20.7820  -31.6109 H   0  0  0  0  0  0  0  0  0  0  0  0
   -9.6961   18.3583  -32.2365 H   0  0  0  0  0  0  0  0  0  0  0  0
   -7.8560   16.3769  -33.1479 H   0  0  0  0  0  0  0  0  0  0  0  0
   -4.1900   17.3630  -35.6000 H   0  0  0  0  0  0  0  0  0  0  0  0
   -3.6830   15.6460  -35.5070 H   0  0  0  0  0  0  0  0  0  0  0  0
   -3.0513   21.1961  -30.1251 H   0  0  0  0  0  0  0  0  0  0  0  0
   -2.9746   22.8198  -30.8894 H   0  0  0  0  0  0  0  0  0  0  0  0
   -4.5170   21.8991  -30.8894 H   0  0  0  0  0  0  0  0  0  0  0  0
   -4.5249   22.5770  -32.9946 H   0  0  0  0  0  0  0  0  0  0  0  0
   -3.0760   22.4429  -34.0479 H   0  0  0  0  0  0  0  0  0  0  0  0
   -4.3103   21.1378  -34.0479 H   0  0  0  0  0  0  0  0  0  0  0  0
   -0.9911   21.3384  -31.5835 H   0  0  0  0  0  0  0  0  0  0  0  0
   -1.1686   20.4222  -33.1184 H   0  0  0  0  0  0  0  0  0  0  0  0
   -1.3188   22.2122  -33.1184 H   0  0  0  0  0  0  0  0  0  0  0  0
   -5.6292   21.3114  -32.4263 H   0  0  0  0  0  0  0  0  0  0  0  0
  1  2  1  0
  2  3  1  0
  3  4  1  0
  4  5  1  0
  5  6  2  0
  5  7  1  0
  2  8  1  0
  8  9  2  0
  9 10  1  0
 10 11  2  0
 11 12  1  0
 12 13  2  0
 13 14  1  0
 14 15  1  0
 14 16  2  0
 13 17  1  0
 17 18  1  0
 18 19  2  0
 18 20  1  0
 20 21  1  0
 21 22  1  0
 21 23  1  0
 21 24  1  0
 17 25  1  0
 25 26  2  0
 26  8  1  0
 25 11  1  0
  1 27  1  0
  1 28  1  0
  1 29  1  0
  3 30  1  0
  3 31  1  0
  4 32  1  0
  4 33  1  0
  9 34  1  0
 10 35  1  0
 12 36  1  0
 15 37  1  0
 15 38  1  0
 22 39  1  0
 22 40  1  0
 22 41  1  0
 23 42  1  0
 23 43  1  0
 23 44  1  0
 24 45  1  0
 24 46  1  0
 24 47  1  0
 26 48  1  0
M  CHG  1   7  -1
M  END
>  <UniqueID>  (40) 
40

>  <SMILES>  (40) 
CN(CCC(=O)[O-])c1ccc2cc(C(N)=O)n(C(=O)OC(C)(C)C)c2c1

>  <Energy>  (40) 
80.41341458740332

>  <Genealogy>  (40) 
CN(CCC(=O)[O-])c1ccc2cc(C(N)=O)n(C(=O)OC(C)(C)C)c2c1 (protonated)
CN(CCC(=O)[O-])c1ccc2cc(C(N)=O)n(C(=O)OC(C)(C)C)c2c1 (3D coordinates assigned)
CN(CCC(=O)[O-])c1ccc2cc(C(N)=O)n(C(=O)OC(C)(C)C)c2c1 (optimized conformer: 80.41341458740332 kcal/mol)

>  <smiles>  (40) 
CN(CCC(=O)O)c1ccc2cc(C(N)=O)n(C(=O)OC(C)(C)C)c2c1

>  <score_type>  (40) 
oracle

>  <origin>  (40) 
adg

>  <m_score__min__energy>  (40) 
-10.039999999999999

>  <m_primary>  (40) 
energy

$$$$
40:0
     RDKit          3D

 47 48  0  0  0  0  0  0  0  0999 V2000
    0.2980   21.8380  -35.3860 C   0  0  0  0  0  0  0  0  0  0  0  0
   -0.1660   20.6000  -34.8620 O   0  0  0  0  0  0  0  0  0  0  0  0
   -0.3500   20.3820  -33.4930 C   0  0  0  0  0  0  0  0  0  0  0  0
    0.4210   20.9320  -32.6550 O   0  0  0  0  0  0  0  0  0  0  0  0
   -1.3920   19.4770  -33.0580 N   0  0  2  0  0  0  0  0  0  0  0  0
   -0.9320   18.5560  -32.0020 C   0  0  0  0  0  0  0  0  0  0  0  0
   -2.0100   18.7760  -34.2080 C   0  0  0  0  0  0  0  0  0  0  0  0
   -2.5960   17.3890  -33.8610 C   0  0  0  0  0  0  0  0  0  0  0  0
   -3.9340   17.4780  -33.1030 C   0  0  0  0  0  0  0  0  0  0  0  0
   -4.9260   18.3100  -33.8100 N   0  0  0  0  0  0  0  0  0  0  0  0
   -5.4740   17.8060  -35.0780 C   0  0  0  0  0  0  0  0  0  0  0  0
   -5.4190   19.5610  -33.2520 C   0  0  0  0  0  0  0  0  0  0  0  0
   -6.8100   19.8690  -33.2530 C   0  0  0  0  0  0  0  0  0  0  0  0
   -7.2910   21.0650  -32.6980 C   0  0  0  0  0  0  0  0  0  0  0  0
   -6.3720   21.9490  -32.1500 C   0  0  0  0  0  0  0  0  0  0  0  0
   -6.5710   23.1580  -31.5260 C   0  0  0  0  0  0  0  0  0  0  0  0
   -5.3000   23.6000  -31.1640 C   0  0  0  0  0  0  0  0  0  0  0  0
   -5.0450   24.9140  -30.5390 C   0  0  0  0  0  0  0  0  0  0  0  0
   -3.8620   25.6500  -30.8350 N   0  0  0  0  0  0  0  0  0  0  0  0
   -5.9080   25.4160  -29.7690 O   0  0  0  0  0  0  0  0  0  0  0  0
   -4.3540   22.6940  -31.5410 N   0  0  0  0  0  0  0  0  0  0  0  0
   -2.9440   22.7340  -31.2670 C   0  0  0  0  0  0  0  0  0  0  0  0
   -2.1320   22.1330  -32.0200 O   0  0  0  0  0  0  0  0  0  0  0  0
   -2.4660   23.4140  -30.1540 O   0  0  0  0  0  0  0  0  0  0  0  0
   -5.0280   21.6890  -32.1460 C   0  0  0  0  0  0  0  0  0  0  0  0
   -4.5200   20.4970  -32.6740 C   0  0  0  0  0  0  0  0  0  0  0  0
    0.5517   22.5150  -34.5570 H   0  0  0  0  0  0  0  0  0  0  0  0
    1.1916   21.6631  -36.0032 H   0  0  0  0  0  0  0  0  0  0  0  0
   -0.4904   22.2935  -36.0032 H   0  0  0  0  0  0  0  0  0  0  0  0
   -2.1410   20.0690  -32.6280 H   0  0  0  0  0  0  0  0  0  0  0  0
   -1.1494   18.9914  -31.0155 H   0  0  0  0  0  0  0  0  0  0  0  0
   -1.4552   17.5935  -32.1014 H   0  0  0  0  0  0  0  0  0  0  0  0
    0.1518   18.3962  -32.1014 H   0  0  0  0  0  0  0  0  0  0  0  0
   -2.8221   19.4057  -34.6005 H   0  0  0  0  0  0  0  0  0  0  0  0
   -1.2098   18.6071  -34.9436 H   0  0  0  0  0  0  0  0  0  0  0  0
   -2.7582   16.8323  -34.7958 H   0  0  0  0  0  0  0  0  0  0  0  0
   -1.8760   16.8810  -33.2026 H   0  0  0  0  0  0  0  0  0  0  0  0
   -4.3424   16.4633  -32.9868 H   0  0  0  0  0  0  0  0  0  0  0  0
   -3.7367   17.9469  -32.1277 H   0  0  0  0  0  0  0  0  0  0  0  0
   -6.2689   17.0749  -34.8691 H   0  0  0  0  0  0  0  0  0  0  0  0
   -5.8895   18.6441  -35.6567 H   0  0  0  0  0  0  0  0  0  0  0  0
   -4.6735   17.3220  -35.6567 H   0  0  0  0  0  0  0  0  0  0  0  0
   -7.5203   19.1561  -33.6971 H   0  0  0  0  0  0  0  0  0  0  0  0
   -8.3666   21.2954  -32.6974 H   0  0  0  0  0  0  0  0  0  0  0  0
   -7.5297   23.6679  -31.3500 H   0  0  0  0  0  0  0  0  0  0  0  0
   -2.9230   25.2970  -30.5470 H   0  0  0  0  0  0  0  0  0  0  0  0
   -3.4406   20.2877  -32.6420 H   0  0  0  0  0  0  0  0  0  0  0  0
  1  2  1  0
  2  3  1  0
  3  4  2  0
  3  5  1  0
  5  6  1  0
  5  7  1  0
  7  8  1  0
  8  9  1  0
  9 10  1  0
 10 11  1  0
 10 12  1  0
 12 13  2  0
 13 14  1  0
 14 15  2  0
 15 16  1  0
 16 17  2  0
 17 18  1  0
 18 19  1  0
 18 20  2  0
 17 21  1  0
 21 22  1  0
 22 23  2  0
 22 24  1  0
 21 25  1  0
 25 26  2  0
 26 12  1  0
 25 15  1  0
  1 27  1  0
  1 28  1  0
  1 29  1  0
  5 30  1  1
  6 31  1  0
  6 32  1  0
  6 33  1  0
  7 34  1  0
  7 35  1  0
  8 36  1  0
  8 37  1  0
  9 38  1  0
  9 39  1  0
 11 40  1  0
 11 41  1  0
 11 42  1  0
 13 43  1  0
 14 44  1  0
 16 45  1  0
 19 46  1  0
 26 47  1  0
M  CHG  3   5   1  19  -1  24  -1
M  END
>  <UniqueID>  (41) 
41

>  <SMILES>  (41) 
COC(=O)[N@H+](C)CCCN(C)c1ccc2cc(C([NH-])=O)n(C(=O)[O-])c2c1

>  <Energy>  (41) 
89.44711012155811

>  <Genealogy>  (41) 
COC(=O)[NH+](C)CCCN(C)c1ccc2cc(C([NH-])=O)n(C(=O)[O-])c2c1 (protonated)
COC(=O)[N@H+](C)CCCN(C)c1ccc2cc(C([NH-])=O)n(C(=O)[O-])c2c1 (chirality)
COC(=O)[N@H+](C)CCCN(C)c1ccc2cc(C([NH-])=O)n(C(=O)[O-])c2c1 (3D coordinates assigned)
COC(=O)[N@H+](C)CCCN(C)c1ccc2cc(C([NH-])=O)n(C(=O)[O-])c2c1 (optimized conformer: 89.44711012155811 kcal/mol)

>  <smiles>  (41) 
COC(=O)N(C)CCCN(C)c1ccc2cc(C(N)=O)n(C(=O)O)c2c1

>  <score_type>  (41) 
oracle

>  <origin>  (41) 
adg

>  <m_score__min__energy>  (41) 
-10.390000000000001

>  <m_primary>  (41) 
energy

$$$$
41:0
     RDKit          3D

 42 43  0  0  0  0  0  0  0  0999 V2000
   -7.3860   18.4880  -32.6300 C   0  0  0  0  0  0  0  0  0  0  0  0
   -7.4120   19.9390  -32.2530 C   0  0  0  0  0  0  0  0  0  0  0  0
   -8.6310   20.6620  -32.2920 C   0  0  0  0  0  0  0  0  0  0  0  0
   -8.6710   22.0210  -31.9290 C   0  0  0  0  0  0  0  0  0  0  0  0
   -7.4830   22.6220  -31.5180 C   0  0  0  0  0  0  0  0  0  0  0  0
   -7.2280   23.9200  -31.1300 C   0  0  0  0  0  0  0  0  0  0  0  0
   -5.8650   23.9550  -30.8370 C   0  0  0  0  0  0  0  0  0  0  0  0
   -5.1630   25.1470  -30.3210 C   0  0  0  0  0  0  0  0  0  0  0  0
   -3.7570   25.2870  -30.5180 N   0  0  0  0  0  0  0  0  0  0  0  0
   -5.7990   26.0600  -29.7300 O   0  0  0  0  0  0  0  0  0  0  0  0
   -5.3020   22.7310  -31.0430 N   0  0  0  0  0  0  0  0  0  0  0  0
   -3.9140   22.3720  -30.9710 C   0  0  0  0  0  0  0  0  0  0  0  0
   -3.0610   23.0600  -31.5910 O   0  0  0  0  0  0  0  0  0  0  0  0
   -3.4640   21.1980  -30.1470 C   0  0  0  0  0  0  0  0  0  0  0  0
   -3.0340   21.6370  -28.8120 N   0  0  0  0  0  0  0  0  0  0  0  0
   -2.9750   20.6840  -27.7000 C   0  0  0  0  0  0  0  0  0  0  0  0
   -2.6850   23.0160  -28.5890 C   0  0  0  0  0  0  0  0  0  0  0  0
   -3.5040   23.7940  -28.0230 O   0  0  0  0  0  0  0  0  0  0  0  0
   -1.4360   23.4940  -29.0060 O   0  0  0  0  0  0  0  0  0  0  0  0
   -0.4920   24.0670  -28.1060 C   0  0  0  0  0  0  0  0  0  0  0  0
   -0.7370   25.5670  -27.9780 C   0  0  0  0  0  0  0  0  0  0  0  0
   -1.6280   26.0100  -28.9670 O   0  0  0  0  0  0  0  0  0  0  0  0
   -6.3040   21.9270  -31.4520 C   0  0  0  0  0  0  0  0  0  0  0  0
   -6.2320   20.5770  -31.8130 C   0  0  0  0  0  0  0  0  0  0  0  0
   -7.3750   17.8725  -31.7184 H   0  0  0  0  0  0  0  0  0  0  0  0
   -8.2800   18.2474  -33.2241 H   0  0  0  0  0  0  0  0  0  0  0  0
   -6.4840   18.2796  -33.2241 H   0  0  0  0  0  0  0  0  0  0  0  0
   -9.5546   20.1556  -32.6091 H   0  0  0  0  0  0  0  0  0  0  0  0
   -9.6109   22.5911  -31.9685 H   0  0  0  0  0  0  0  0  0  0  0  0
   -7.9462   24.7507  -31.0653 H   0  0  0  0  0  0  0  0  0  0  0  0
   -3.0820   24.6890  -29.9940 H   0  0  0  0  0  0  0  0  0  0  0  0
   -4.2982   20.4885  -30.0429 H   0  0  0  0  0  0  0  0  0  0  0  0
   -2.6144   20.7153  -30.6521 H   0  0  0  0  0  0  0  0  0  0  0  0
   -3.0089   21.2309  -26.7462 H   0  0  0  0  0  0  0  0  0  0  0  0
   -3.8324   19.9974  -27.7596 H   0  0  0  0  0  0  0  0  0  0  0  0
   -2.0395   20.1084  -27.7596 H   0  0  0  0  0  0  0  0  0  0  0  0
   -0.5978   23.5950  -27.1180 H   0  0  0  0  0  0  0  0  0  0  0  0
    0.5238   23.8989  -28.4930 H   0  0  0  0  0  0  0  0  0  0  0  0
   -1.1631   25.7800  -26.9865 H   0  0  0  0  0  0  0  0  0  0  0  0
    0.2206   26.0937  -28.1030 H   0  0  0  0  0  0  0  0  0  0  0  0
   -2.4270   25.4230  -28.9100 H   0  0  0  0  0  0  0  0  0  0  0  0
   -5.2809   20.0273  -31.7555 H   0  0  0  0  0  0  0  0  0  0  0  0
  1  2  1  0
  2  3  2  0
  3  4  1  0
  4  5  2  0
  5  6  1  0
  6  7  2  0
  7  8  1  0
  8  9  1  0
  8 10  2  0
  7 11  1  0
 11 12  1  0
 12 13  2  0
 12 14  1  0
 14 15  1  0
 15 16  1  0
 15 17  1  0
 17 18  2  0
 17 19  1  0
 19 20  1  0
 20 21  1  0
 21 22  1  0
 11 23  1  0
 23 24  2  0
 24  2  1  0
 23  5  1  0
  1 25  1  0
  1 26  1  0
  1 27  1  0
  3 28  1  0
  4 29  1  0
  6 30  1  0
  9 31  1  0
 14 32  1  0
 14 33  1  0
 16 34  1  0
 16 35  1  0
 16 36  1  0
 20 37  1  0
 20 38  1  0
 21 39  1  0
 21 40  1  0
 22 41  1  0
 24 42  1  0
M  CHG  1   9  -1
M  END
>  <UniqueID>  (42) 
42

>  <SMILES>  (42) 
Cc1ccc2cc(C([NH-])=O)n(C(=O)CN(C)C(=O)OCCO)c2c1

>  <Energy>  (42) 
69.63382672260411

>  <Genealogy>  (42) 
Cc1ccc2cc(C([NH-])=O)n(C(=O)CN(C)C(=O)OCCO)c2c1 (protonated)
Cc1ccc2cc(C([NH-])=O)n(C(=O)CN(C)C(=O)OCCO)c2c1 (3D coordinates assigned)
Cc1ccc2cc(C([NH-])=O)n(C(=O)CN(C)C(=O)OCCO)c2c1 (optimized conformer: 69.63382672260411 kcal/mol)

>  <smiles>  (42) 
Cc1ccc2cc(C(N)=O)n(C(=O)CN(C)C(=O)OCCO)c2c1

>  <score_type>  (42) 
oracle

>  <origin>  (42) 
adg

>  <m_score__min__energy>  (42) 
-10.289999999999999

>  <m_primary>  (42) 
energy

$$$$
42:0
     RDKit          3D

 51 53  0  0  0  0  0  0  0  0999 V2000
   -4.0270   23.1200  -28.2090 C   0  0  0  0  0  0  0  0  0  0  0  0
   -2.7540   22.6370  -28.9210 C   0  0  0  0  0  0  0  0  0  0  0  0
   -1.5260   23.1050  -28.1170 C   0  0  0  0  0  0  0  0  0  0  0  0
   -2.7890   21.0990  -29.0140 C   0  0  0  0  0  0  0  0  0  0  0  0
   -2.7530   23.2250  -30.2290 O   0  0  0  0  0  0  0  0  0  0  0  0
   -3.4180   22.7310  -31.3630 C   0  0  0  0  0  0  0  0  0  0  0  0
   -2.7730   22.2770  -32.3460 O   0  0  0  0  0  0  0  0  0  0  0  0
   -4.8530   22.7700  -31.4110 N   0  0  0  0  0  0  0  0  0  0  0  0
   -5.6660   23.8310  -31.1440 C   0  0  0  0  0  0  0  0  0  0  0  0
   -5.2440   25.1270  -30.5750 C   0  0  0  0  0  0  0  0  0  0  0  0
   -3.9620   25.6730  -30.8700 N   0  0  0  0  0  0  0  0  0  0  0  0
   -6.0070   25.7370  -29.7790 O   0  0  0  0  0  0  0  0  0  0  0  0
   -6.9950   23.5060  -31.4090 C   0  0  0  0  0  0  0  0  0  0  0  0
   -6.9710   22.2000  -31.8440 C   0  0  0  0  0  0  0  0  0  0  0  0
   -8.0130   21.3780  -32.2620 C   0  0  0  0  0  0  0  0  0  0  0  0
   -7.6940   20.0810  -32.6950 C   0  0  0  0  0  0  0  0  0  0  0  0
   -6.3490   19.6280  -32.7130 C   0  0  0  0  0  0  0  0  0  0  0  0
   -6.0320   18.2970  -33.1760 N   0  0  0  0  0  0  0  0  0  0  0  0
   -4.8180   18.0630  -33.9750 C   0  0  0  0  0  0  0  0  0  0  0  0
   -4.3360   16.6180  -33.8250 C   0  0  0  0  0  0  0  0  0  0  0  0
   -5.4300   15.6050  -34.2340 C   0  0  0  0  0  0  0  0  0  0  0  0
   -5.1550   14.2690  -33.5980 C   0  0  0  0  0  0  0  0  0  0  0  0
   -5.3850   13.2060  -34.2340 O   0  0  0  0  0  0  0  0  0  0  0  0
   -4.6230   14.1990  -32.3160 O   0  0  0  0  0  0  0  0  0  0  0  0
   -6.8660   16.0920  -33.9100 C   0  0  0  0  0  0  0  0  0  0  0  0
   -6.8950   17.1600  -32.8120 C   0  0  0  0  0  0  0  0  0  0  0  0
   -5.3190   20.5000  -32.2840 C   0  0  0  0  0  0  0  0  0  0  0  0
   -5.6690   21.7800  -31.8380 C   0  0  0  0  0  0  0  0  0  0  0  0
   -3.8815   23.0648  -27.1201 H   0  0  0  0  0  0  0  0  0  0  0  0
   -4.2368   24.1602  -28.4986 H   0  0  0  0  0  0  0  0  0  0  0  0
   -4.8741   22.4808  -28.4986 H   0  0  0  0  0  0  0  0  0  0  0  0
   -1.7395   23.0236  -27.0410 H   0  0  0  0  0  0  0  0  0  0  0  0
   -0.6610   22.4735  -28.3680 H   0  0  0  0  0  0  0  0  0  0  0  0
   -1.3007   24.1520  -28.3680 H   0  0  0  0  0  0  0  0  0  0  0  0
   -2.7988   20.6705  -28.0009 H   0  0  0  0  0  0  0  0  0  0  0  0
   -3.6945   20.7848  -29.5537 H   0  0  0  0  0  0  0  0  0  0  0  0
   -1.8987   20.7439  -29.5537 H   0  0  0  0  0  0  0  0  0  0  0  0
   -3.0990   25.2910  -30.4220 H   0  0  0  0  0  0  0  0  0  0  0  0
   -7.8758   24.1549  -31.2949 H   0  0  0  0  0  0  0  0  0  0  0  0
   -9.0540   21.7332  -32.2535 H   0  0  0  0  0  0  0  0  0  0  0  0
   -8.4978   19.4064  -33.0249 H   0  0  0  0  0  0  0  0  0  0  0  0
   -5.0402   18.2605  -35.0341 H   0  0  0  0  0  0  0  0  0  0  0  0
   -4.0259   18.7369  -33.6166 H   0  0  0  0  0  0  0  0  0  0  0  0
   -3.4541   16.4681  -34.4651 H   0  0  0  0  0  0  0  0  0  0  0  0
   -4.0887   16.4471  -32.7669 H   0  0  0  0  0  0  0  0  0  0  0  0
   -5.3863   15.5053  -35.3286 H   0  0  0  0  0  0  0  0  0  0  0  0
   -7.3087   16.5149  -34.8239 H   0  0  0  0  0  0  0  0  0  0  0  0
   -7.4362   15.2250  -33.5450 H   0  0  0  0  0  0  0  0  0  0  0  0
   -7.9273   17.5164  -32.6808 H   0  0  0  0  0  0  0  0  0  0  0  0
   -6.5248   16.7177  -31.8753 H   0  0  0  0  0  0  0  0  0  0  0  0
   -4.2671   20.1787  -32.3008 H   0  0  0  0  0  0  0  0  0  0  0  0
  1  2  1  0
  2  3  1  0
  2  4  1  0
  2  5  1  0
  5  6  1  0
  6  7  2  0
  6  8  1  0
  8  9  1  0
  9 10  1  0
 10 11  1  0
 10 12  2  0
  9 13  2  0
 13 14  1  0
 14 15  2  0
 15 16  1  0
 16 17  2  0
 17 18  1  0
 18 19  1  0
 19 20  1  0
 20 21  1  0
 21 22  1  0
 22 23  2  0
 22 24  1  0
 21 25  1  0
 25 26  1  0
 17 27  1  0
 27 28  2  0
 28  8  1  0
 28 14  1  0
 26 18  1  0
  1 29  1  0
  1 30  1  0
  1 31  1  0
  3 32  1  0
  3 33  1  0
  3 34  1  0
  4 35  1  0
  4 36  1  0
  4 37  1  0
 11 38  1  0
 13 39  1  0
 15 40  1  0
 16 41  1  0
 19 42  1  0
 19 43  1  0
 20 44  1  0
 20 45  1  0
 21 46  1  0
 25 47  1  0
 25 48  1  0
 26 49  1  0
 26 50  1  0
 27 51  1  0
M  CHG  2  11  -1  24  -1
M  END
>  <UniqueID>  (43) 
43

>  <SMILES>  (43) 
CC(C)(C)OC(=O)n1c(C([NH-])=O)cc2ccc(N3CCC(C(=O)[O-])CC3)cc21

>  <Energy>  (43) 
91.03122391774663

>  <Genealogy>  (43) 
CC(C)(C)OC(=O)n1c(C([NH-])=O)cc2ccc(N3CCC(C(=O)[O-])CC3)cc21 (protonated)
CC(C)(C)OC(=O)n1c(C([NH-])=O)cc2ccc(N3CCC(C(=O)[O-])CC3)cc21 (3D coordinates assigned)
CC(C)(C)OC(=O)n1c(C([NH-])=O)cc2ccc(N3CCC(C(=O)[O-])CC3)cc21 (nonaromatic ring conformer: 91.03122391774663 kcal/mol)

>  <smiles>  (43) 
CC(C)(C)OC(=O)n1c(C(N)=O)cc2ccc(N3CCC(C(=O)O)CC3)cc21

>  <score_type>  (43) 
oracle

>  <origin>  (43) 
adg

>  <m_score__min__energy>  (43) 
-10.789999999999999

>  <m_primary>  (43) 
energy

$$$$
43:0
     RDKit          3D

 30 31  0  0  0  0  0  0  0  0999 V2000
   -4.4850   25.6400  -30.8070 N   0  0  0  0  0  0  0  0  0  0  0  0
   -5.7450   25.0870  -30.4380 C   0  0  0  0  0  0  0  0  0  0  0  0
   -6.5150   25.7580  -29.6990 O   0  0  0  0  0  0  0  0  0  0  0  0
   -6.1550   23.7390  -30.8880 C   0  0  0  0  0  0  0  0  0  0  0  0
   -7.4510   23.4280  -31.3010 C   0  0  0  0  0  0  0  0  0  0  0  0
   -7.4250   22.0870  -31.6100 C   0  0  0  0  0  0  0  0  0  0  0  0
   -8.4360   21.2580  -32.0830 C   0  0  0  0  0  0  0  0  0  0  0  0
   -8.1180   19.9140  -32.3460 C   0  0  0  0  0  0  0  0  0  0  0  0
   -6.7960   19.4320  -32.1610 C   0  0  0  0  0  0  0  0  0  0  0  0
   -6.4730   17.9810  -32.4130 C   0  0  0  0  0  0  0  0  0  0  0  0
   -5.4420   17.8630  -33.3280 F   0  0  0  0  0  0  0  0  0  0  0  0
   -7.5940   17.3470  -32.9130 F   0  0  0  0  0  0  0  0  0  0  0  0
   -6.0850   17.3550  -31.2420 F   0  0  0  0  0  0  0  0  0  0  0  0
   -5.8010   20.3040  -31.6580 C   0  0  0  0  0  0  0  0  0  0  0  0
   -6.1540   21.6300  -31.3830 C   0  0  0  0  0  0  0  0  0  0  0  0
   -5.3650   22.6280  -30.9310 N   0  0  0  0  0  0  0  0  0  0  0  0
   -3.9670   22.5270  -30.6200 C   0  0  0  0  0  0  0  0  0  0  0  0
   -3.1390   22.2690  -31.5340 O   0  0  0  0  0  0  0  0  0  0  0  0
   -3.4780   22.7560  -29.2200 C   0  0  0  0  0  0  0  0  0  0  0  0
   -1.8860   23.6300  -29.2420 P   0  0  0  0  0  0  0  0  0  0  0  0
   -1.0520   23.1430  -30.4060 O   0  0  0  0  0  0  0  0  0  0  0  0
   -2.1660   25.2900  -29.4120 O   0  0  0  0  0  0  0  0  0  0  0  0
   -1.0570   23.3490  -27.7960 O   0  0  0  0  0  0  0  0  0  0  0  0
   -3.8560   26.0700  -30.0930 H   0  0  0  0  0  0  0  0  0  0  0  0
   -8.3114   24.1102  -31.3659 H   0  0  0  0  0  0  0  0  0  0  0  0
   -9.4537   21.6420  -32.2465 H   0  0  0  0  0  0  0  0  0  0  0  0
   -8.9025   19.2285  -32.6991 H   0  0  0  0  0  0  0  0  0  0  0  0
   -4.7744   19.9478  -31.4873 H   0  0  0  0  0  0  0  0  0  0  0  0
   -4.2160   23.3605  -28.6724 H   0  0  0  0  0  0  0  0  0  0  0  0
   -3.3447   21.7831  -28.7244 H   0  0  0  0  0  0  0  0  0  0  0  0
  1  2  1  0
  2  3  2  0
  2  4  1  0
  4  5  2  0
  5  6  1  0
  6  7  2  0
  7  8  1  0
  8  9  2  0
  9 10  1  0
 10 11  1  0
 10 12  1  0
 10 13  1  0
  9 14  1  0
 14 15  2  0
 15 16  1  0
 16 17  1  0
 17 18  2  0
 17 19  1  0
 19 20  1  0
 20 21  2  0
 20 22  1  0
 20 23  1  0
 16  4  1  0
 15  6  1  0
  1 24  1  0
  5 25  1  0
  7 26  1  0
  8 27  1  0
 14 28  1  0
 19 29  1  0
 19 30  1  0
M  CHG  3   1  -1  22  -1  23  -1
M  END
>  <UniqueID>  (44) 
44

>  <SMILES>  (44) 
[NH-]C(=O)c1cc2ccc(C(F)(F)F)cc2n1C(=O)CP(=O)([O-])[O-]

>  <Energy>  (44) 
65.69405610925881

>  <Genealogy>  (44) 
[NH-]C(=O)c1cc2ccc(C(F)(F)F)cc2n1C(=O)CP(=O)([O-])[O-] (protonated)
[NH-]C(=O)c1cc2ccc(C(F)(F)F)cc2n1C(=O)CP(=O)([O-])[O-] (3D coordinates assigned)
[NH-]C(=O)c1cc2ccc(C(F)(F)F)cc2n1C(=O)CP(=O)([O-])[O-] (optimized conformer: 65.69405610925881 kcal/mol)

>  <smiles>  (44) 
NC(=O)c1cc2ccc(C(F)(F)F)cc2n1C(=O)CP(=O)(O)O

>  <score_type>  (44) 
oracle

>  <origin>  (44) 
adg

>  <m_score__min__energy>  (44) 
-12.470000000000001

>  <m_primary>  (44) 
energy

$$$$
44:0
     RDKit          3D

 40 41  0  0  0  0  0  0  0  0999 V2000
   -2.9920   24.1750  -27.9090 C   0  0  0  0  0  0  0  0  0  0  0  0
   -1.9520   24.6360  -28.8430 N   0  0  0  0  0  0  0  0  0  0  0  0
   -1.2230   25.7680  -28.2440 C   0  0  0  0  0  0  0  0  0  0  0  0
   -1.0350   23.5210  -29.1640 C   0  0  0  0  0  0  0  0  0  0  0  0
   -1.5690   22.6640  -30.3200 C   0  0  0  0  0  0  0  0  0  0  0  0
   -2.9950   22.6210  -30.3150 O   0  0  0  0  0  0  0  0  0  0  0  0
   -3.7640   22.3470  -31.4510 C   0  0  0  0  0  0  0  0  0  0  0  0
   -3.2100   21.9720  -32.5200 O   0  0  0  0  0  0  0  0  0  0  0  0
   -5.1910   22.5000  -31.4000 N   0  0  0  0  0  0  0  0  0  0  0  0
   -5.8950   23.5120  -30.8180 C   0  0  0  0  0  0  0  0  0  0  0  0
   -5.3230   24.7510  -30.2580 C   0  0  0  0  0  0  0  0  0  0  0  0
   -5.7940   25.2890  -29.0200 N   0  0  0  0  0  0  0  0  0  0  0  0
   -4.3660   25.3160  -30.8510 O   0  0  0  0  0  0  0  0  0  0  0  0
   -7.2620   23.2530  -30.8680 C   0  0  0  0  0  0  0  0  0  0  0  0
   -7.3780   22.0450  -31.5190 C   0  0  0  0  0  0  0  0  0  0  0  0
   -8.5150   21.3050  -31.8320 C   0  0  0  0  0  0  0  0  0  0  0  0
   -8.3390   20.0710  -32.4790 C   0  0  0  0  0  0  0  0  0  0  0  0
   -7.0390   19.5970  -32.7900 C   0  0  0  0  0  0  0  0  0  0  0  0
   -6.8540   18.2680  -33.4640 C   0  0  0  0  0  0  0  0  0  0  0  0
   -6.3500   17.3530  -32.5570 F   0  0  0  0  0  0  0  0  0  0  0  0
   -5.9720   18.3970  -34.5200 F   0  0  0  0  0  0  0  0  0  0  0  0
   -5.9090   20.3750  -32.4530 C   0  0  0  0  0  0  0  0  0  0  0  0
   -6.1140   21.6120  -31.8290 C   0  0  0  0  0  0  0  0  0  0  0  0
   -2.6494   24.3268  -26.8748 H   0  0  0  0  0  0  0  0  0  0  0  0
   -3.9159   24.7479  -28.0771 H   0  0  0  0  0  0  0  0  0  0  0  0
   -3.1879   23.1057  -28.0771 H   0  0  0  0  0  0  0  0  0  0  0  0
   -1.2699   25.6952  -27.1474 H   0  0  0  0  0  0  0  0  0  0  0  0
   -0.1724   25.7406  -28.5687 H   0  0  0  0  0  0  0  0  0  0  0  0
   -1.6826   26.7132  -28.5687 H   0  0  0  0  0  0  0  0  0  0  0  0
   -0.0564   23.9346  -29.4489 H   0  0  0  0  0  0  0  0  0  0  0  0
   -0.9473   22.8810  -28.2737 H   0  0  0  0  0  0  0  0  0  0  0  0
   -1.2264   23.0935  -31.2730 H   0  0  0  0  0  0  0  0  0  0  0  0
   -1.1894   21.6389  -30.1976 H   0  0  0  0  0  0  0  0  0  0  0  0
   -5.4090   26.1890  -28.6580 H   0  0  0  0  0  0  0  0  0  0  0  0
   -6.4590   24.7540  -28.4200 H   0  0  0  0  0  0  0  0  0  0  0  0
   -8.0752   23.8791  -30.4723 H   0  0  0  0  0  0  0  0  0  0  0  0
   -9.5198   21.6753  -31.5804 H   0  0  0  0  0  0  0  0  0  0  0  0
   -9.2179   19.4663  -32.7471 H   0  0  0  0  0  0  0  0  0  0  0  0
   -7.8264   17.9174  -33.8403 H   0  0  0  0  0  0  0  0  0  0  0  0
   -4.8926   20.0179  -32.6753 H   0  0  0  0  0  0  0  0  0  0  0  0
  1  2  1  0
  2  3  1  0
  2  4  1  0
  4  5  1  0
  5  6  1  0
  6  7  1  0
  7  8  2  0
  7  9  1  0
  9 10  1  0
 10 11  1  0
 11 12  1  0
 11 13  2  0
 10 14  2  0
 14 15  1  0
 15 16  2  0
 16 17  1  0
 17 18  2  0
 18 19  1  0
 19 20  1  0
 19 21  1  0
 18 22  1  0
 22 23  2  0
 23  9  1  0
 23 15  1  0
  1 24  1  0
  1 25  1  0
  1 26  1  0
  3 27  1  0
  3 28  1  0
  3 29  1  0
  4 30  1  0
  4 31  1  0
  5 32  1  0
  5 33  1  0
 12 34  1  0
 12 35  1  0
 14 36  1  0
 16 37  1  0
 17 38  1  0
 19 39  1  0
 22 40  1  0
M  END
>  <UniqueID>  (45) 
45

>  <SMILES>  (45) 
CN(C)CCOC(=O)n1c(C(N)=O)cc2ccc(C(F)F)cc21

>  <Energy>  (45) 
75.68889660252069

>  <Genealogy>  (45) 
CN(C)CCOC(=O)n1c(C(N)=O)cc2ccc(C(F)F)cc21 (3D coordinates assigned)
CN(C)CCOC(=O)n1c(C(N)=O)cc2ccc(C(F)F)cc21 (optimized conformer: 75.68889660252069 kcal/mol)

>  <smiles>  (45) 
CN(C)CCOC(=O)n1c(C(N)=O)cc2ccc(C(F)F)cc21

>  <score_type>  (45) 
oracle

>  <origin>  (45) 
adg

>  <m_score__min__energy>  (45) 
-8.1699999999999999

>  <m_primary>  (45) 
energy

$$$$
45:0
     RDKit          3D

 52 56  0  0  0  0  0  0  0  0999 V2000
   -5.9920   25.4710  -28.9700 N   0  0  0  0  0  0  0  0  0  0  0  0
   -5.4820   24.9870  -30.2140 C   0  0  0  0  0  0  0  0  0  0  0  0
   -4.6550   25.6910  -30.8520 O   0  0  0  0  0  0  0  0  0  0  0  0
   -5.9410   23.6940  -30.7690 C   0  0  0  0  0  0  0  0  0  0  0  0
   -7.2800   23.3260  -30.8780 C   0  0  0  0  0  0  0  0  0  0  0  0
   -7.2720   22.1110  -31.5220 C   0  0  0  0  0  0  0  0  0  0  0  0
   -8.3280   21.2830  -31.8750 C   0  0  0  0  0  0  0  0  0  0  0  0
   -8.0320   20.0650  -32.5070 C   0  0  0  0  0  0  0  0  0  0  0  0
   -6.6860   19.6760  -32.7810 C   0  0  0  0  0  0  0  0  0  0  0  0
   -6.3860   18.4020  -33.4300 N   0  0  0  0  0  0  0  0  0  0  0  0
   -5.1650   18.2760  -34.2540 C   0  0  0  0  0  0  0  0  0  0  0  0
   -5.0240   16.9150  -34.9400 C   0  0  0  0  0  0  0  0  0  0  0  0
   -5.4560   15.8770  -34.0930 O   0  0  0  0  0  0  0  0  0  0  0  0
   -6.8520   15.9790  -33.9440 C   0  0  0  0  0  0  0  0  0  0  0  0
   -7.2300   17.2230  -33.1340 C   0  0  0  0  0  0  0  0  0  0  0  0
   -5.6410   20.5630  -32.3900 C   0  0  0  0  0  0  0  0  0  0  0  0
   -5.9710   21.7780  -31.7790 C   0  0  0  0  0  0  0  0  0  0  0  0
   -5.1390   22.7430  -31.3230 N   0  0  0  0  0  0  0  0  0  0  0  0
   -3.7030   22.7270  -31.3510 C   0  0  0  0  0  0  0  0  0  0  0  0
   -3.0940   21.7350  -31.8360 O   0  0  0  0  0  0  0  0  0  0  0  0
   -2.9910   23.7880  -30.7760 O   0  0  0  0  0  0  0  0  0  0  0  0
   -2.2210   23.7100  -29.6050 C   0  0  0  0  0  0  0  0  0  0  0  0
   -1.6090   22.4970  -29.2830 C   0  0  0  0  0  0  0  0  0  0  0  0
   -0.8440   22.3790  -28.1210 C   0  0  0  0  0  0  0  0  0  0  0  0
   -0.7040   23.4910  -27.2650 C   0  0  0  0  0  0  0  0  0  0  0  0
    0.1020   23.4730  -25.9820 C   0  0  0  0  0  0  0  0  0  0  0  0
   -0.4880   24.1910  -24.7760 C   0  0  0  0  0  0  0  0  0  0  0  0
   -0.4550   22.6690  -24.8160 C   0  0  0  0  0  0  0  0  0  0  0  0
   -1.3310   24.6540  -27.5930 N   0  0  0  0  0  0  0  0  0  0  0  0
   -2.0760   24.7910  -28.7210 C   0  0  0  0  0  0  0  0  0  0  0  0
   -5.6890   26.4020  -28.6070 H   0  0  0  0  0  0  0  0  0  0  0  0
   -6.6350   24.8930  -28.3860 H   0  0  0  0  0  0  0  0  0  0  0  0
   -8.1571   23.8877  -30.5242 H   0  0  0  0  0  0  0  0  0  0  0  0
   -9.3682   21.5730  -31.6654 H   0  0  0  0  0  0  0  0  0  0  0  0
   -8.8552   19.3957  -32.7975 H   0  0  0  0  0  0  0  0  0  0  0  0
   -5.1876   19.0554  -35.0299 H   0  0  0  0  0  0  0  0  0  0  0  0
   -4.3062   18.3846  -33.5752 H   0  0  0  0  0  0  0  0  0  0  0  0
   -5.6329   16.9089  -35.8561 H   0  0  0  0  0  0  0  0  0  0  0  0
   -3.9633   16.7521  -35.1817 H   0  0  0  0  0  0  0  0  0  0  0  0
   -7.3159   16.0436  -34.9393 H   0  0  0  0  0  0  0  0  0  0  0  0
   -7.2123   15.0892  -33.4069 H   0  0  0  0  0  0  0  0  0  0  0  0
   -8.2760   17.4792  -33.3580 H   0  0  0  0  0  0  0  0  0  0  0  0
   -7.0777   16.9756  -32.0731 H   0  0  0  0  0  0  0  0  0  0  0  0
   -4.5886   20.2959  -32.5663 H   0  0  0  0  0  0  0  0  0  0  0  0
   -1.7302   21.6296  -29.9485 H   0  0  0  0  0  0  0  0  0  0  0  0
   -0.3540   21.4254  -27.8749 H   0  0  0  0  0  0  0  0  0  0  0  0
    1.0639   23.5065  -26.5145 H   0  0  0  0  0  0  0  0  0  0  0  0
    0.1704   24.7375  -24.0848 H   0  0  0  0  0  0  0  0  0  0  0  0
   -1.2717   24.9486  -24.6282 H   0  0  0  0  0  0  0  0  0  0  0  0
    0.2272   22.1161  -24.1535 H   0  0  0  0  0  0  0  0  0  0  0  0
   -1.2052   21.8717  -24.7090 H   0  0  0  0  0  0  0  0  0  0  0  0
   -2.5664   25.7505  -28.9420 H   0  0  0  0  0  0  0  0  0  0  0  0
  1  2  1  0
  2  3  2  0
  2  4  1  0
  4  5  2  0
  5  6  1  0
  6  7  2  0
  7  8  1  0
  8  9  2  0
  9 10  1  0
 10 11  1  0
 11 12  1  0
 12 13  1  0
 13 14  1  0
 14 15  1  0
  9 16  1  0
 16 17  2  0
 17 18  1  0
 18 19  1  0
 19 20  2  0
 19 21  1  0
 21 22  1  0
 22 23  2  0
 23 24  1  0
 24 25  2  0
 25 26  1  0
 26 27  1  0
 27 28  1  0
 25 29  1  0
 29 30  2  0
 18  4  1  0
 30 22  1  0
 17  6  1  0
 28 26  1  0
 15 10  1  0
  1 31  1  0
  1 32  1  0
  5 33  1  0
  7 34  1  0
  8 35  1  0
 11 36  1  0
 11 37  1  0
 12 38  1  0
 12 39  1  0
 14 40  1  0
 14 41  1  0
 15 42  1  0
 15 43  1  0
 16 44  1  0
 23 45  1  0
 24 46  1  0
 26 47  1  0
 27 48  1  0
 27 49  1  0
 28 50  1  0
 28 51  1  0
 30 52  1  0
M  END
>  <UniqueID>  (46) 
46

>  <SMILES>  (46) 
NC(=O)c1cc2ccc(N3CCOCC3)cc2n1C(=O)Oc1ccc(C2CC2)nc1

>  <Energy>  (46) 
375.4755198998713

>  <Genealogy>  (46) 
NC(=O)c1cc2ccc(N3CCOCC3)cc2n1C(=O)Oc1ccc(C2CC2)nc1 (3D coordinates assigned)
NC(=O)c1cc2ccc(N3CCOCC3)cc2n1C(=O)Oc1ccc(C2CC2)nc1 (nonaromatic ring conformer: 375.4755198998713 kcal/mol)

>  <smiles>  (46) 
NC(=O)c1cc2ccc(N3CCOCC3)cc2n1C(=O)Oc1ccc(C2CC2)nc1

>  <score_type>  (46) 
oracle

>  <origin>  (46) 
adg

>  <m_score__min__energy>  (46) 
-10.44

>  <m_primary>  (46) 
energy

$$$$
46:0
     RDKit          3D

 32 33  0  0  0  0  0  0  0  0999 V2000
   -6.5190   17.6290  -32.2030 C   0  0  0  0  0  0  0  0  0  0  0  0
   -7.1720   18.7060  -32.9380 N   0  0  0  0  0  0  0  0  0  0  0  0
   -7.2390   20.0640  -32.4670 C   0  0  0  0  0  0  0  0  0  0  0  0
   -8.5040   20.6920  -32.3490 C   0  0  0  0  0  0  0  0  0  0  0  0
   -8.6140   22.0120  -31.8830 C   0  0  0  0  0  0  0  0  0  0  0  0
   -7.4430   22.6850  -31.5490 C   0  0  0  0  0  0  0  0  0  0  0  0
   -7.2640   23.9570  -31.0530 C   0  0  0  0  0  0  0  0  0  0  0  0
   -5.8870   24.1010  -30.8950 C   0  0  0  0  0  0  0  0  0  0  0  0
   -5.2440   25.3590  -30.4620 C   0  0  0  0  0  0  0  0  0  0  0  0
   -3.9030   25.6430  -30.8550 N   0  0  0  0  0  0  0  0  0  0  0  0
   -5.8530   26.1730  -29.7190 O   0  0  0  0  0  0  0  0  0  0  0  0
   -5.2410   22.9600  -31.2700 N   0  0  0  0  0  0  0  0  0  0  0  0
   -3.8340   22.6810  -31.2080 C   0  0  0  0  0  0  0  0  0  0  0  0
   -3.2460   22.1820  -32.2060 O   0  0  0  0  0  0  0  0  0  0  0  0
   -3.1170   22.9830  -30.0450 O   0  0  0  0  0  0  0  0  0  0  0  0
   -1.6940   23.0600  -29.9990 C   0  0  0  0  0  0  0  0  0  0  0  0
   -1.2540   24.1520  -29.0710 C   0  0  0  0  0  0  0  0  0  0  0  0
   -1.5990   25.3040  -29.2740 O   0  0  0  0  0  0  0  0  0  0  0  0
   -6.2080   22.1040  -31.6710 C   0  0  0  0  0  0  0  0  0  0  0  0
   -6.0700   20.7840  -32.1150 C   0  0  0  0  0  0  0  0  0  0  0  0
   -6.6258   17.8052  -31.1225 H   0  0  0  0  0  0  0  0  0  0  0  0
   -6.9873   16.6691  -32.4661 H   0  0  0  0  0  0  0  0  0  0  0  0
   -5.4513   17.6004  -32.4661 H   0  0  0  0  0  0  0  0  0  0  0  0
   -7.6100   18.4690  -33.8580 H   0  0  0  0  0  0  0  0  0  0  0  0
   -9.4126   20.1375  -32.6264 H   0  0  0  0  0  0  0  0  0  0  0  0
   -9.5955   22.4989  -31.7851 H   0  0  0  0  0  0  0  0  0  0  0  0
   -8.0425   24.7012  -30.8291 H   0  0  0  0  0  0  0  0  0  0  0  0
   -3.0990   25.1370  -30.4230 H   0  0  0  0  0  0  0  0  0  0  0  0
   -1.2914   22.0999  -29.6440 H   0  0  0  0  0  0  0  0  0  0  0  0
   -1.3181   23.2803  -31.0090 H   0  0  0  0  0  0  0  0  0  0  0  0
   -0.6187   23.9138  -28.2052 H   0  0  0  0  0  0  0  0  0  0  0  0
   -5.0772   20.3161  -32.1891 H   0  0  0  0  0  0  0  0  0  0  0  0
  1  2  1  0
  2  3  1  0
  3  4  2  0
  4  5  1  0
  5  6  2  0
  6  7  1  0
  7  8  2  0
  8  9  1  0
  9 10  1  0
  9 11  2  0
  8 12  1  0
 12 13  1  0
 13 14  2  0
 13 15  1  0
 15 16  1  0
 16 17  1  0
 17 18  2  0
 12 19  1  0
 19 20  2  0
 20  3  1  0
 19  6  1  0
  1 21  1  0
  1 22  1  0
  1 23  1  0
  2 24  1  0
  4 25  1  0
  5 26  1  0
  7 27  1  0
 10 28  1  0
 16 29  1  0
 16 30  1  0
 17 31  1  0
 20 32  1  0
M  CHG  1  10  -1
M  END
>  <UniqueID>  (47) 
47

>  <SMILES>  (47) 
CNc1ccc2cc(C([NH-])=O)n(C(=O)OCC=O)c2c1

>  <Energy>  (47) 
66.77763152294878

>  <Genealogy>  (47) 
CNc1ccc2cc(C([NH-])=O)n(C(=O)OCC=O)c2c1 (protonated)
CNc1ccc2cc(C([NH-])=O)n(C(=O)OCC=O)c2c1 (3D coordinates assigned)
CNc1ccc2cc(C([NH-])=O)n(C(=O)OCC=O)c2c1 (optimized conformer: 66.77763152294878 kcal/mol)

>  <smiles>  (47) 
CNc1ccc2cc(C(N)=O)n(C(=O)OCC=O)c2c1

>  <score_type>  (47) 
oracle

>  <origin>  (47) 
adg

>  <m_score__min__energy>  (47) 
-9.5399999999999991

>  <m_primary>  (47) 
energy

$$$$
47:0
     RDKit          3D

 38 39  0  0  0  0  0  0  0  0999 V2000
   -5.7260   16.7470  -32.4780 C   0  0  0  0  0  0  0  0  0  0  0  0
   -5.5530   18.0390  -33.2870 C   0  0  2  0  0  0  0  0  0  0  0  0
   -6.8690   18.6450  -33.5780 N   0  0  0  0  0  0  0  0  0  0  0  0
   -7.0270   19.9060  -32.8910 C   0  0  0  0  0  0  0  0  0  0  0  0
   -8.3230   20.4310  -32.6450 C   0  0  0  0  0  0  0  0  0  0  0  0
   -8.4860   21.6740  -32.0110 C   0  0  0  0  0  0  0  0  0  0  0  0
   -7.3410   22.3670  -31.6310 C   0  0  0  0  0  0  0  0  0  0  0  0
   -7.2110   23.5980  -31.0290 C   0  0  0  0  0  0  0  0  0  0  0  0
   -5.8390   23.8020  -30.8970 C   0  0  0  0  0  0  0  0  0  0  0  0
   -5.2540   24.9750  -30.2150 C   0  0  0  0  0  0  0  0  0  0  0  0
   -4.1470   25.6750  -30.7760 N   0  0  0  0  0  0  0  0  0  0  0  0
   -5.7080   25.3360  -29.0960 O   0  0  0  0  0  0  0  0  0  0  0  0
   -5.1480   22.7430  -31.4070 N   0  0  0  0  0  0  0  0  0  0  0  0
   -3.7250   22.5990  -31.5380 C   0  0  0  0  0  0  0  0  0  0  0  0
   -3.2480   21.6290  -32.1890 O   0  0  0  0  0  0  0  0  0  0  0  0
   -2.8740   23.5220  -30.9200 O   0  0  0  0  0  0  0  0  0  0  0  0
   -2.3710   23.3600  -29.5970 C   0  0  0  0  0  0  0  0  0  0  0  0
   -1.3280   24.3920  -29.3070 C   0  0  0  0  0  0  0  0  0  0  0  0
   -1.6260   25.6150  -29.3160 O   0  0  0  0  0  0  0  0  0  0  0  0
   -0.0330   24.0000  -28.9990 O   0  0  0  0  0  0  0  0  0  0  0  0
   -6.0820   21.8720  -31.8480 C   0  0  0  0  0  0  0  0  0  0  0  0
   -5.8890   20.6450  -32.4940 C   0  0  0  0  0  0  0  0  0  0  0  0
   -4.7940   17.7400  -34.5570 C   0  0  0  0  0  0  0  0  0  0  0  0
   -5.3750   17.8160  -35.6710 O   0  0  0  0  0  0  0  0  0  0  0  0
   -3.4550   17.3700  -34.5060 O   0  0  0  0  0  0  0  0  0  0  0  0
   -5.6948   16.9803  -31.4035 H   0  0  0  0  0  0  0  0  0  0  0  0
   -6.6938   16.2864  -32.7252 H   0  0  0  0  0  0  0  0  0  0  0  0
   -4.9134   16.0480  -32.7252 H   0  0  0  0  0  0  0  0  0  0  0  0
   -4.9755   18.7662  -32.6974 H   0  0  0  0  0  0  0  0  0  0  0  0
   -7.6290   17.9990  -33.2590 H   0  0  0  0  0  0  0  0  0  0  0  0
   -6.9880   18.7760  -34.6100 H   0  0  0  0  0  0  0  0  0  0  0  0
   -9.2095   19.8580  -32.9543 H   0  0  0  0  0  0  0  0  0  0  0  0
   -9.4878   22.0866  -31.8209 H   0  0  0  0  0  0  0  0  0  0  0  0
   -8.0189   24.2767  -30.7181 H   0  0  0  0  0  0  0  0  0  0  0  0
   -3.1740   25.3090  -30.6790 H   0  0  0  0  0  0  0  0  0  0  0  0
   -3.1974   23.4679  -28.8791 H   0  0  0  0  0  0  0  0  0  0  0  0
   -1.9200   22.3608  -29.5060 H   0  0  0  0  0  0  0  0  0  0  0  0
   -4.8753   20.2647  -32.6882 H   0  0  0  0  0  0  0  0  0  0  0  0
  1  2  1  0
  2  3  1  0
  3  4  1  0
  4  5  2  0
  5  6  1  0
  6  7  2  0
  7  8  1  0
  8  9  2  0
  9 10  1  0
 10 11  1  0
 10 12  2  0
  9 13  1  0
 13 14  1  0
 14 15  2  0
 14 16  1  0
 16 17  1  0
 17 18  1  0
 18 19  2  0
 18 20  1  0
 13 21  1  0
 21 22  2  0
  2 23  1  0
 23 24  2  0
 23 25  1  0
 22  4  1  0
 21  7  1  0
  1 26  1  0
  1 27  1  0
  1 28  1  0
  2 29  1  1
  3 30  1  0
  3 31  1  0
  5 32  1  0
  6 33  1  0
  8 34  1  0
 11 35  1  0
 17 36  1  0
 17 37  1  0
 22 38  1  0
M  CHG  4   3   1  11  -1  20  -1  25  -1
M  END
>  <UniqueID>  (48) 
48

>  <SMILES>  (48) 
C[C@H]([NH2+]c1ccc2cc(C([NH-])=O)n(C(=O)OCC(=O)[O-])c2c1)C(=O)[O-]

>  <Energy>  (48) 
74.57146795918972

>  <Genealogy>  (48) 
CC([NH2+]c1ccc2cc(C([NH-])=O)n(C(=O)OCC(=O)[O-])c2c1)C(=O)[O-] (protonated)
C[C@H]([NH2+]c1ccc2cc(C([NH-])=O)n(C(=O)OCC(=O)[O-])c2c1)C(=O)[O-] (chirality)
C[C@H]([NH2+]c1ccc2cc(C([NH-])=O)n(C(=O)OCC(=O)[O-])c2c1)C(=O)[O-] (3D coordinates assigned)
C[C@H]([NH2+]c1ccc2cc(C([NH-])=O)n(C(=O)OCC(=O)[O-])c2c1)C(=O)[O-] (optimized conformer: 74.57146795918972 kcal/mol)

>  <smiles>  (48) 
CC(Nc1ccc2cc(C(N)=O)n(C(=O)OCC(=O)O)c2c1)C(=O)O

>  <score_type>  (48) 
oracle

>  <origin>  (48) 
adg

>  <m_score__min__energy>  (48) 
-11.779999999999999

>  <m_primary>  (48) 
energy

$$$$
48:0
     RDKit          3D

 47 48  0  0  0  0  0  0  0  0999 V2000
   -2.3800   25.5530  -25.6950 C   0  0  0  0  0  0  0  0  0  0  0  0
   -1.5230   25.7300  -26.8680 N   0  0  0  0  0  0  0  0  0  0  0  0
   -0.2910   26.5150  -26.7890 C   0  0  0  0  0  0  0  0  0  0  0  0
   -1.9280   25.1560  -28.1230 C   0  0  0  0  0  0  0  0  0  0  0  0
   -1.2140   25.3170  -29.1520 O   0  0  0  0  0  0  0  0  0  0  0  0
   -3.1150   24.4160  -28.2010 O   0  0  0  0  0  0  0  0  0  0  0  0
   -3.1930   23.1440  -28.8380 C   0  0  0  0  0  0  0  0  0  0  0  0
   -2.5600   23.2020  -30.1110 O   0  0  0  0  0  0  0  0  0  0  0  0
   -3.1640   22.7150  -31.2730 C   0  0  0  0  0  0  0  0  0  0  0  0
   -2.4570   22.3000  -32.2310 O   0  0  0  0  0  0  0  0  0  0  0  0
   -4.5960   22.6590  -31.3640 N   0  0  0  0  0  0  0  0  0  0  0  0
   -5.4880   23.6110  -30.9720 C   0  0  0  0  0  0  0  0  0  0  0  0
   -5.1560   24.9830  -30.5460 C   0  0  0  0  0  0  0  0  0  0  0  0
   -3.8660   25.5360  -30.8040 N   0  0  0  0  0  0  0  0  0  0  0  0
   -6.0350   25.6950  -29.9940 O   0  0  0  0  0  0  0  0  0  0  0  0
   -6.7920   23.1410  -31.1020 C   0  0  0  0  0  0  0  0  0  0  0  0
   -6.6710   21.8630  -31.5950 C   0  0  0  0  0  0  0  0  0  0  0  0
   -7.6520   20.9230  -31.8830 C   0  0  0  0  0  0  0  0  0  0  0  0
   -7.2420   19.6590  -32.3310 C   0  0  0  0  0  0  0  0  0  0  0  0
   -5.8610   19.3420  -32.5040 C   0  0  0  0  0  0  0  0  0  0  0  0
   -5.4580   17.9260  -32.9620 C   0  0  0  0  0  0  0  0  0  0  0  0
   -5.8980   16.8200  -31.9660 C   0  0  0  0  0  0  0  0  0  0  0  0
   -3.9170   17.8230  -33.0760 C   0  0  0  0  0  0  0  0  0  0  0  0
   -6.0840   17.6610  -34.3230 C   0  0  0  0  0  0  0  0  0  0  0  0
   -6.7420   16.6070  -34.5360 O   0  0  0  0  0  0  0  0  0  0  0  0
   -6.0010   18.6150  -35.3340 O   0  0  0  0  0  0  0  0  0  0  0  0
   -4.8970   20.3390  -32.1770 C   0  0  0  0  0  0  0  0  0  0  0  0
   -5.3380   21.5950  -31.7460 C   0  0  0  0  0  0  0  0  0  0  0  0
   -1.7806   25.6768  -24.7810 H   0  0  0  0  0  0  0  0  0  0  0  0
   -3.1834   26.3042  -25.7112 H   0  0  0  0  0  0  0  0  0  0  0  0
   -2.8201   24.5450  -25.7112 H   0  0  0  0  0  0  0  0  0  0  0  0
   -0.0295   26.6816  -25.7336 H   0  0  0  0  0  0  0  0  0  0  0  0
    0.5240   25.9693  -27.2870 H   0  0  0  0  0  0  0  0  0  0  0  0
   -0.4412   27.4842  -27.2870 H   0  0  0  0  0  0  0  0  0  0  0  0
   -2.6890   22.3916  -28.2136 H   0  0  0  0  0  0  0  0  0  0  0  0
   -4.2497   22.8687  -28.9704 H   0  0  0  0  0  0  0  0  0  0  0  0
   -3.0510   25.2930  -30.1990 H   0  0  0  0  0  0  0  0  0  0  0  0
   -7.7215   23.6778  -30.8615 H   0  0  0  0  0  0  0  0  0  0  0  0
   -8.7188   21.1629  -31.7632 H   0  0  0  0  0  0  0  0  0  0  0  0
   -8.0013   18.8950  -32.5540 H   0  0  0  0  0  0  0  0  0  0  0  0
   -5.7559   17.1771  -30.9353 H   0  0  0  0  0  0  0  0  0  0  0  0
   -6.9595   16.5815  -32.1284 H   0  0  0  0  0  0  0  0  0  0  0  0
   -5.2904   15.9175  -32.1284 H   0  0  0  0  0  0  0  0  0  0  0  0
   -3.4760   17.7935  -32.0687 H   0  0  0  0  0  0  0  0  0  0  0  0
   -3.6501   16.9050  -33.6201 H   0  0  0  0  0  0  0  0  0  0  0  0
   -3.5303   18.6973  -33.6201 H   0  0  0  0  0  0  0  0  0  0  0  0
   -3.8215   20.1243  -32.2622 H   0  0  0  0  0  0  0  0  0  0  0  0
  1  2  1  0
  2  3  1  0
  2  4  1  0
  4  5  2  0
  4  6  1  0
  6  7  1  0
  7  8  1  0
  8  9  1  0
  9 10  2  0
  9 11  1  0
 11 12  1  0
 12 13  1  0
 13 14  1  0
 13 15  2  0
 12 16  2  0
 16 17  1  0
 17 18  2  0
 18 19  1  0
 19 20  2  0
 20 21  1  0
 21 22  1  0
 21 23  1  0
 21 24  1  0
 24 25  2  0
 24 26  1  0
 20 27  1  0
 27 28  2  0
 28 11  1  0
 28 17  1  0
  1 29  1  0
  1 30  1  0
  1 31  1  0
  3 32  1  0
  3 33  1  0
  3 34  1  0
  7 35  1  0
  7 36  1  0
 14 37  1  0
 16 38  1  0
 18 39  1  0
 19 40  1  0
 22 41  1  0
 22 42  1  0
 22 43  1  0
 23 44  1  0
 23 45  1  0
 23 46  1  0
 27 47  1  0
M  CHG  2  14  -1  26  -1
M  END
>  <UniqueID>  (49) 
49

>  <SMILES>  (49) 
CN(C)C(=O)OCOC(=O)n1c(C([NH-])=O)cc2ccc(C(C)(C)C(=O)[O-])cc21

>  <Energy>  (49) 
84.1039016263782

>  <Genealogy>  (49) 
CN(C)C(=O)OCOC(=O)n1c(C([NH-])=O)cc2ccc(C(C)(C)C(=O)[O-])cc21 (protonated)
CN(C)C(=O)OCOC(=O)n1c(C([NH-])=O)cc2ccc(C(C)(C)C(=O)[O-])cc21 (3D coordinates assigned)
CN(C)C(=O)OCOC(=O)n1c(C([NH-])=O)cc2ccc(C(C)(C)C(=O)[O-])cc21 (optimized conformer: 84.1039016263782 kcal/mol)

>  <smiles>  (49) 
CN(C)C(=O)OCOC(=O)n1c(C(N)=O)cc2ccc(C(C)(C)C(=O)O)cc21

>  <score_type>  (49) 
oracle

>  <origin>  (49) 
adg

>  <m_score__min__energy>  (49) 
-10.91

>  <m_primary>  (49) 
energy

$$$$
50:0
     RDKit          3D

 33 35  0  0  0  0  0  0  0  0999 V2000
   -1.2840   25.1500  -29.2890 N   0  0  0  0  0  0  0  0  0  0  0  0
   -1.2920   23.7230  -29.2440 C   0  0  0  0  0  0  0  0  0  0  0  0
   -0.5310   23.1270  -28.4360 O   0  0  0  0  0  0  0  0  0  0  0  0
   -2.2220   22.9360  -30.0800 C   0  0  0  0  0  0  0  0  0  0  0  0
   -1.8990   21.6940  -30.6180 C   0  0  0  0  0  0  0  0  0  0  0  0
   -3.0380   21.2730  -31.2650 C   0  0  0  0  0  0  0  0  0  0  0  0
   -3.2760   20.1060  -31.9850 C   0  0  0  0  0  0  0  0  0  0  0  0
   -4.5380   19.9460  -32.5800 C   0  0  0  0  0  0  0  0  0  0  0  0
   -5.5270   20.9530  -32.4600 C   0  0  0  0  0  0  0  0  0  0  0  0
   -6.8810   20.7590  -33.0910 C   0  0  0  0  0  0  0  0  0  0  0  0
   -7.9180   20.3070  -32.0480 C   0  0  0  0  0  0  0  0  0  0  0  0
   -8.0530   21.1720  -30.9730 F   0  0  0  0  0  0  0  0  0  0  0  0
   -7.7870   18.8660  -31.6130 C   0  0  0  0  0  0  0  0  0  0  0  0
   -9.0400   18.5200  -32.1510 O   0  0  0  0  0  0  0  0  0  0  0  0
   -9.2450   19.8390  -32.6010 C   0  0  0  0  0  0  0  0  0  0  0  0
   -5.2500   22.1250  -31.7190 C   0  0  0  0  0  0  0  0  0  0  0  0
   -3.9920   22.2480  -31.1160 C   0  0  0  0  0  0  0  0  0  0  0  0
   -3.5030   23.2800  -30.3910 N   0  0  0  0  0  0  0  0  0  0  0  0
   -4.1670   24.5260  -30.1140 C   0  0  0  0  0  0  0  0  0  0  0  0
   -5.0150   24.6010  -29.1870 O   0  0  0  0  0  0  0  0  0  0  0  0
   -3.8780   25.6610  -30.8620 O   0  0  0  0  0  0  0  0  0  0  0  0
   -2.0150   25.6770  -29.8170 H   0  0  0  0  0  0  0  0  0  0  0  0
   -0.5940   25.6880  -28.7200 H   0  0  0  0  0  0  0  0  0  0  0  0
   -0.9388   21.1626  -30.5423 H   0  0  0  0  0  0  0  0  0  0  0  0
   -2.4998   19.3330  -32.0849 H   0  0  0  0  0  0  0  0  0  0  0  0
   -4.7608   19.0290  -33.1452 H   0  0  0  0  0  0  0  0  0  0  0  0
   -7.2097   21.7098  -33.5359 H   0  0  0  0  0  0  0  0  0  0  0  0
   -6.7986   19.9794  -33.8627 H   0  0  0  0  0  0  0  0  0  0  0  0
   -6.9457   18.3396  -32.0876 H   0  0  0  0  0  0  0  0  0  0  0  0
   -7.5828   18.6458  -30.5548 H   0  0  0  0  0  0  0  0  0  0  0  0
   -9.3185   19.9228  -33.6953 H   0  0  0  0  0  0  0  0  0  0  0  0
  -10.1629   20.3674  -32.3039 H   0  0  0  0  0  0  0  0  0  0  0  0
   -6.0036   22.9200  -31.6187 H   0  0  0  0  0  0  0  0  0  0  0  0
  1  2  1  0
  2  3  2  0
  2  4  1  0
  4  5  2  0
  5  6  1  0
  6  7  2  0
  7  8  1  0
  8  9  2  0
  9 10  1  0
 10 11  1  0
 11 12  1  0
 11 13  1  0
 13 14  1  0
 14 15  1  0
  9 16  1  0
 16 17  2  0
 17 18  1  0
 18 19  1  0
 19 20  2  0
 19 21  1  0
 18  4  1  0
 17  6  1  0
 15 11  1  0
  1 22  1  0
  1 23  1  0
  5 24  1  0
  7 25  1  0
  8 26  1  0
 10 27  1  0
 10 28  1  0
 13 29  1  0
 13 30  1  0
 15 31  1  0
 15 32  1  0
 16 33  1  0
M  CHG  1  21  -1
M  END
>  <UniqueID>  (50) 
50

>  <SMILES>  (50) 
NC(=O)c1cc2ccc(CC3(F)COC3)cc2n1C(=O)[O-]

>  <Energy>  (50) 
136.8025742902657

>  <Genealogy>  (50) 
NC(=O)c1cc2ccc(CC3(F)COC3)cc2n1C(=O)[O-] (protonated)
NC(=O)c1cc2ccc(CC3(F)COC3)cc2n1C(=O)[O-] (3D coordinates assigned)
NC(=O)c1cc2ccc(CC3(F)COC3)cc2n1C(=O)[O-] (nonaromatic ring conformer: 136.8025742902657 kcal/mol)

>  <smiles>  (50) 
NC(=O)c1cc2ccc(CC3(F)COC3)cc2n1C(=O)O

>  <score_type>  (50) 
oracle

>  <origin>  (50) 
adg

>  <m_score__min__energy>  (50) 
-9.0299999999999994

>  <m_primary>  (50) 
energy

$$$$
51:0
     RDKit          3D

 48 49  0  0  0  0  0  0  0  0999 V2000
   -4.5400   19.4410  -33.1990 C   0  0  0  0  0  0  0  0  0  0  0  0
   -3.4330   20.1540  -32.4790 C   0  0  0  0  0  0  0  0  0  0  0  0
   -2.0980   19.6780  -32.5460 C   0  0  0  0  0  0  0  0  0  0  0  0
   -1.0580   20.3660  -31.8970 C   0  0  0  0  0  0  0  0  0  0  0  0
   -1.3850   21.5190  -31.1860 C   0  0  0  0  0  0  0  0  0  0  0  0
   -0.5860   22.3890  -30.4800 C   0  0  0  0  0  0  0  0  0  0  0  0
   -1.4490   23.3670  -29.9790 C   0  0  0  0  0  0  0  0  0  0  0  0
   -1.0120   24.5010  -29.1350 C   0  0  0  0  0  0  0  0  0  0  0  0
   -1.8440   25.6430  -28.9450 N   0  0  0  0  0  0  0  0  0  0  0  0
    0.1100   24.4530  -28.5600 O   0  0  0  0  0  0  0  0  0  0  0  0
   -2.7280   23.1080  -30.3670 N   0  0  0  0  0  0  0  0  0  0  0  0
   -3.9050   23.8940  -30.1440 C   0  0  0  0  0  0  0  0  0  0  0  0
   -4.0940   24.9260  -30.8450 O   0  0  0  0  0  0  0  0  0  0  0  0
   -4.9150   23.4480  -29.2280 N   0  0  0  0  0  0  0  0  0  0  0  0
   -4.5540   23.2080  -27.8310 C   0  0  0  0  0  0  0  0  0  0  0  0
   -6.2610   23.1140  -29.7150 C   0  0  0  0  0  0  0  0  0  0  0  0
   -6.4050   23.4210  -31.2080 C   0  0  0  0  0  0  0  0  0  0  0  0
   -6.9090   22.2080  -31.9200 C   0  0  0  0  0  0  0  0  0  0  0  0
   -6.3280   21.8020  -32.9600 O   0  0  0  0  0  0  0  0  0  0  0  0
   -8.0870   21.5970  -31.4720 O   0  0  0  0  0  0  0  0  0  0  0  0
   -8.9460   20.8270  -32.3090 C   0  0  0  0  0  0  0  0  0  0  0  0
   -9.1010   19.4100  -31.7520 C   0  0  0  0  0  0  0  0  0  0  0  0
   -7.8570   18.5660  -32.0380 C   0  0  0  0  0  0  0  0  0  0  0  0
   -6.7430   19.1050  -31.3780 O   0  0  0  0  0  0  0  0  0  0  0  0
   -2.6700   21.9840  -31.1090 C   0  0  0  0  0  0  0  0  0  0  0  0
   -3.7240   21.3240  -31.7460 C   0  0  0  0  0  0  0  0  0  0  0  0
   -5.2288   18.9974  -32.4650 H   0  0  0  0  0  0  0  0  0  0  0  0
   -5.0876   20.1566  -33.8299 H   0  0  0  0  0  0  0  0  0  0  0  0
   -4.1150   18.6464  -33.8299 H   0  0  0  0  0  0  0  0  0  0  0  0
   -1.8746   18.7613  -33.1115 H   0  0  0  0  0  0  0  0  0  0  0  0
   -0.0199   20.0059  -31.9487 H   0  0  0  0  0  0  0  0  0  0  0  0
    0.5033   22.3274  -30.3396 H   0  0  0  0  0  0  0  0  0  0  0  0
   -2.8150   25.6690  -29.3290 H   0  0  0  0  0  0  0  0  0  0  0  0
   -5.2884   23.6962  -27.1735 H   0  0  0  0  0  0  0  0  0  0  0  0
   -4.5483   22.1257  -27.6345 H   0  0  0  0  0  0  0  0  0  0  0  0
   -3.5538   23.6216  -27.6345 H   0  0  0  0  0  0  0  0  0  0  0  0
   -6.4459   22.0422  -29.5502 H   0  0  0  0  0  0  0  0  0  0  0  0
   -6.9910   23.7244  -29.1632 H   0  0  0  0  0  0  0  0  0  0  0  0
   -7.1165   24.2486  -31.3451 H   0  0  0  0  0  0  0  0  0  0  0  0
   -5.4258   23.7070  -31.6194 H   0  0  0  0  0  0  0  0  0  0  0  0
   -9.9339   21.3085  -32.3557 H   0  0  0  0  0  0  0  0  0  0  0  0
   -8.5065   20.7693  -33.3157 H   0  0  0  0  0  0  0  0  0  0  0  0
   -9.2544   19.4665  -30.6642 H   0  0  0  0  0  0  0  0  0  0  0  0
   -9.9648   18.9354  -32.2404 H   0  0  0  0  0  0  0  0  0  0  0  0
   -8.0263   17.5381  -31.6847 H   0  0  0  0  0  0  0  0  0  0  0  0
   -7.6660   18.5644  -33.1213 H   0  0  0  0  0  0  0  0  0  0  0  0
   -6.6250   20.0280  -31.7270 H   0  0  0  0  0  0  0  0  0  0  0  0
   -4.7532   21.7063  -31.6779 H   0  0  0  0  0  0  0  0  0  0  0  0
  1  2  1  0
  2  3  2  0
  3  4  1  0
  4  5  2  0
  5  6  1  0
  6  7  2  0
  7  8  1  0
  8  9  1  0
  8 10  2  0
  7 11  1  0
 11 12  1  0
 12 13  2  0
 12 14  1  0
 14 15  1  0
 14 16  1  0
 16 17  1  0
 17 18  1  0
 18 19  2  0
 18 20  1  0
 20 21  1  0
 21 22  1  0
 22 23  1  0
 23 24  1  0
 11 25  1  0
 25 26  2  0
 26  2  1  0
 25  5  1  0
  1 27  1  0
  1 28  1  0
  1 29  1  0
  3 30  1  0
  4 31  1  0
  6 32  1  0
  9 33  1  0
 15 34  1  0
 15 35  1  0
 15 36  1  0
 16 37  1  0
 16 38  1  0
 17 39  1  0
 17 40  1  0
 21 41  1  0
 21 42  1  0
 22 43  1  0
 22 44  1  0
 23 45  1  0
 23 46  1  0
 24 47  1  0
 26 48  1  0
M  CHG  1   9  -1
M  END
>  <UniqueID>  (51) 
51

>  <SMILES>  (51) 
Cc1ccc2cc(C([NH-])=O)n(C(=O)N(C)CCC(=O)OCCCO)c2c1

>  <Energy>  (51) 
77.09861303145505

>  <Genealogy>  (51) 
Cc1ccc2cc(C([NH-])=O)n(C(=O)N(C)CCC(=O)OCCCO)c2c1 (protonated)
Cc1ccc2cc(C([NH-])=O)n(C(=O)N(C)CCC(=O)OCCCO)c2c1 (3D coordinates assigned)
Cc1ccc2cc(C([NH-])=O)n(C(=O)N(C)CCC(=O)OCCCO)c2c1 (optimized conformer: 77.09861303145505 kcal/mol)

>  <smiles>  (51) 
Cc1ccc2cc(C(N)=O)n(C(=O)N(C)CCC(=O)OCCCO)c2c1

>  <score_type>  (51) 
oracle

>  <origin>  (51) 
adg

>  <m_score__min__energy>  (51) 
-10.01

>  <m_primary>  (51) 
energy

$$$$
52:0
     RDKit          3D

 49 51  0  0  0  0  0  0  0  0999 V2000
   -2.8770   20.9010  -28.0190 C   0  0  0  0  0  0  0  0  0  0  0  0
   -2.9770   22.3090  -28.6300 C   0  0  0  0  0  0  0  0  0  0  0  0
   -3.8850   23.1820  -27.7370 C   0  0  0  0  0  0  0  0  0  0  0  0
   -1.5590   22.9170  -28.7190 C   0  0  0  0  0  0  0  0  0  0  0  0
   -3.5540   22.1650  -29.9360 O   0  0  0  0  0  0  0  0  0  0  0  0
   -4.2030   23.1750  -30.6760 C   0  0  0  0  0  0  0  0  0  0  0  0
   -3.5490   24.1620  -31.1190 O   0  0  0  0  0  0  0  0  0  0  0  0
   -5.6210   23.0760  -30.9210 N   0  0  0  0  0  0  0  0  0  0  0  0
   -6.5510   24.0580  -30.7440 C   0  0  0  0  0  0  0  0  0  0  0  0
   -6.3300   25.3400  -30.0490 C   0  0  0  0  0  0  0  0  0  0  0  0
   -5.2880   26.2260  -30.4670 N   0  0  0  0  0  0  0  0  0  0  0  0
   -7.0390   25.6390  -29.0490 O   0  0  0  0  0  0  0  0  0  0  0  0
   -7.7950   23.6570  -31.2180 C   0  0  0  0  0  0  0  0  0  0  0  0
   -7.6130   22.3710  -31.6690 C   0  0  0  0  0  0  0  0  0  0  0  0
   -8.5330   21.4810  -32.2140 C   0  0  0  0  0  0  0  0  0  0  0  0
   -8.0850   20.1960  -32.5620 C   0  0  0  0  0  0  0  0  0  0  0  0
   -6.7300   19.8200  -32.3690 C   0  0  0  0  0  0  0  0  0  0  0  0
   -6.2970   18.4720  -32.6620 N   0  0  0  0  0  0  0  0  0  0  0  0
   -5.9910   18.0700  -34.0400 C   0  0  0  0  0  0  0  0  0  0  0  0
   -6.4120   16.6120  -34.2630 C   0  0  0  0  0  0  0  0  0  0  0  0
   -5.7980   15.6730  -33.3030 N   0  0  0  0  0  0  0  0  0  0  0  0
   -5.3580   16.2790  -32.0310 C   0  0  0  0  0  0  0  0  0  0  0  0
   -6.2470   17.4540  -31.6030 C   0  0  0  0  0  0  0  0  0  0  0  0
   -5.8190   20.7690  -31.8420 C   0  0  0  0  0  0  0  0  0  0  0  0
   -6.2950   22.0390  -31.4800 C   0  0  0  0  0  0  0  0  0  0  0  0
   -2.8823   20.9763  -26.9216 H   0  0  0  0  0  0  0  0  0  0  0  0
   -3.7345   20.2962  -28.3492 H   0  0  0  0  0  0  0  0  0  0  0  0
   -1.9427   20.4235  -28.3492 H   0  0  0  0  0  0  0  0  0  0  0  0
   -3.6682   22.9736  -26.6789 H   0  0  0  0  0  0  0  0  0  0  0  0
   -3.6943   24.2446  -27.9480 H   0  0  0  0  0  0  0  0  0  0  0  0
   -4.9393   22.9497  -27.9480 H   0  0  0  0  0  0  0  0  0  0  0  0
   -1.1677   23.0848  -27.7047 H   0  0  0  0  0  0  0  0  0  0  0  0
   -0.8961   22.2240  -29.2578 H   0  0  0  0  0  0  0  0  0  0  0  0
   -1.6039   23.8750  -29.2578 H   0  0  0  0  0  0  0  0  0  0  0  0
   -4.6250   25.9500  -31.2240 H   0  0  0  0  0  0  0  0  0  0  0  0
   -5.2050   27.1730  -30.0310 H   0  0  0  0  0  0  0  0  0  0  0  0
   -8.7257   24.2432  -31.2297 H   0  0  0  0  0  0  0  0  0  0  0  0
   -9.5816   21.7753  -32.3680 H   0  0  0  0  0  0  0  0  0  0  0  0
   -8.7936   19.4715  -32.9897 H   0  0  0  0  0  0  0  0  0  0  0  0
   -6.5383   18.7189  -34.7395 H   0  0  0  0  0  0  0  0  0  0  0  0
   -4.9090   18.1657  -34.2139 H   0  0  0  0  0  0  0  0  0  0  0  0
   -7.5056   16.5456  -34.1653 H   0  0  0  0  0  0  0  0  0  0  0  0
   -6.0670   16.3234  -35.2668 H   0  0  0  0  0  0  0  0  0  0  0  0
   -4.9620   15.2330  -33.7550 H   0  0  0  0  0  0  0  0  0  0  0  0
   -5.3868   15.5100  -31.2450 H   0  0  0  0  0  0  0  0  0  0  0  0
   -4.3393   16.6666  -32.1795 H   0  0  0  0  0  0  0  0  0  0  0  0
   -7.2646   17.0855  -31.4063 H   0  0  0  0  0  0  0  0  0  0  0  0
   -5.8260   17.9066  -30.6931 H   0  0  0  0  0  0  0  0  0  0  0  0
   -4.7560   20.5145  -31.7186 H   0  0  0  0  0  0  0  0  0  0  0  0
  1  2  1  0
  2  3  1  0
  2  4  1  0
  2  5  1  0
  5  6  1  0
  6  7  2  0
  6  8  1  0
  8  9  1  0
  9 10  1  0
 10 11  1  0
 10 12  2  0
  9 13  2  0
 13 14  1  0
 14 15  2  0
 15 16  1  0
 16 17  2  0
 17 18  1  0
 18 19  1  0
 19 20  1  0
 20 21  1  0
 21 22  1  0
 22 23  1  0
 17 24  1  0
 24 25  2  0
 25  8  1  0
 25 14  1  0
 23 18  1  0
  1 26  1  0
  1 27  1  0
  1 28  1  0
  3 29  1  0
  3 30  1  0
  3 31  1  0
  4 32  1  0
  4 33  1  0
  4 34  1  0
 11 35  1  0
 11 36  1  0
 13 37  1  0
 15 38  1  0
 16 39  1  0
 19 40  1  0
 19 41  1  0
 20 42  1  0
 20 43  1  0
 21 44  1  0
 22 45  1  0
 22 46  1  0
 23 47  1  0
 23 48  1  0
 24 49  1  0
M  END
>  <UniqueID>  (52) 
52

>  <SMILES>  (52) 
CC(C)(C)OC(=O)n1c(C(N)=O)cc2ccc(N3CCNCC3)cc21

>  <Energy>  (52) 
92.8884440215238

>  <Genealogy>  (52) 
CC(C)(C)OC(=O)n1c(C(N)=O)cc2ccc(N3CCNCC3)cc21 (3D coordinates assigned)
CC(C)(C)OC(=O)n1c(C(N)=O)cc2ccc(N3CCNCC3)cc21 (nonaromatic ring conformer: 92.8884440215238 kcal/mol)

>  <smiles>  (52) 
CC(C)(C)OC(=O)n1c(C(N)=O)cc2ccc(N3CCNCC3)cc21

>  <score_type>  (52) 
oracle

>  <origin>  (52) 
adg

>  <m_score__min__energy>  (52) 
-9.2599999999999998

>  <m_primary>  (52) 
energy

$$$$
53:0
     RDKit          3D

 42 44  0  0  0  0  0  0  0  0999 V2000
   -7.5800   17.8950  -32.4320 C   0  0  0  0  0  0  0  0  0  0  0  0
   -7.5930   19.3690  -32.1550 C   0  0  0  0  0  0  0  0  0  0  0  0
   -8.7720   20.1200  -32.3860 C   0  0  0  0  0  0  0  0  0  0  0  0
   -8.8100   21.4960  -32.1040 C   0  0  0  0  0  0  0  0  0  0  0  0
   -7.6650   22.0850  -31.5760 C   0  0  0  0  0  0  0  0  0  0  0  0
   -7.4200   23.3950  -31.2270 C   0  0  0  0  0  0  0  0  0  0  0  0
   -6.1110   23.4100  -30.7520 C   0  0  0  0  0  0  0  0  0  0  0  0
   -5.4470   24.6220  -30.2270 C   0  0  0  0  0  0  0  0  0  0  0  0
   -5.8970   25.2570  -29.0290 N   0  0  0  0  0  0  0  0  0  0  0  0
   -4.4880   25.1280  -30.8690 O   0  0  0  0  0  0  0  0  0  0  0  0
   -5.5610   22.1660  -30.8240 N   0  0  0  0  0  0  0  0  0  0  0  0
   -4.2120   21.7740  -30.5200 C   0  0  0  0  0  0  0  0  0  0  0  0
   -3.8640   21.6560  -29.3130 O   0  0  0  0  0  0  0  0  0  0  0  0
   -3.2310   21.5000  -31.5970 C   0  0  0  0  0  0  0  0  0  0  0  0
   -3.6420   20.9290  -32.8100 C   0  0  0  0  0  0  0  0  0  0  0  0
   -2.7130   20.6630  -33.8160 C   0  0  0  0  0  0  0  0  0  0  0  0
   -1.3560   20.9770  -33.6130 C   0  0  0  0  0  0  0  0  0  0  0  0
   -0.3530   20.7150  -34.6230 N   0  0  0  0  0  0  0  0  0  0  0  0
    0.0270   19.3440  -34.9830 C   0  0  0  0  0  0  0  0  0  0  0  0
    0.2980   21.8490  -35.2910 C   0  0  0  0  0  0  0  0  0  0  0  0
   -0.9860   21.5460  -32.4300 N   0  0  0  0  0  0  0  0  0  0  0  0
   -1.8730   21.8120  -31.4360 C   0  0  0  0  0  0  0  0  0  0  0  0
   -6.5270   21.3640  -31.3210 C   0  0  0  0  0  0  0  0  0  0  0  0
   -6.4550   19.9970  -31.6060 C   0  0  0  0  0  0  0  0  0  0  0  0
   -7.5751   17.3431  -31.4805 H   0  0  0  0  0  0  0  0  0  0  0  0
   -8.4758   17.6225  -33.0093 H   0  0  0  0  0  0  0  0  0  0  0  0
   -6.6796   17.6383  -33.0093 H   0  0  0  0  0  0  0  0  0  0  0  0
   -9.6656   19.6214  -32.7897 H   0  0  0  0  0  0  0  0  0  0  0  0
   -9.7165   22.0892  -32.2946 H   0  0  0  0  0  0  0  0  0  0  0  0
   -8.1109   24.2473  -31.3066 H   0  0  0  0  0  0  0  0  0  0  0  0
   -5.3740   26.0750  -28.6440 H   0  0  0  0  0  0  0  0  0  0  0  0
   -6.7960   24.9860  -28.5750 H   0  0  0  0  0  0  0  0  0  0  0  0
   -4.7037   20.6893  -32.9692 H   0  0  0  0  0  0  0  0  0  0  0  0
   -3.0394   20.2099  -34.7637 H   0  0  0  0  0  0  0  0  0  0  0  0
    0.1899   18.7563  -34.0675 H   0  0  0  0  0  0  0  0  0  0  0  0
   -0.7775   18.8841  -35.5757 H   0  0  0  0  0  0  0  0  0  0  0  0
    0.9535   19.3639  -35.5757 H   0  0  0  0  0  0  0  0  0  0  0  0
    0.6955   22.5414  -34.5343 H   0  0  0  0  0  0  0  0  0  0  0  0
    1.1220   21.4804  -35.9196 H   0  0  0  0  0  0  0  0  0  0  0  0
   -0.4358   22.3747  -35.9196 H   0  0  0  0  0  0  0  0  0  0  0  0
   -1.5246   22.2742  -30.5006 H   0  0  0  0  0  0  0  0  0  0  0  0
   -5.5357   19.4264  -31.4075 H   0  0  0  0  0  0  0  0  0  0  0  0
  1  2  1  0
  2  3  2  0
  3  4  1  0
  4  5  2  0
  5  6  1  0
  6  7  2  0
  7  8  1  0
  8  9  1  0
  8 10  2  0
  7 11  1  0
 11 12  1  0
 12 13  2  0
 12 14  1  0
 14 15  2  0
 15 16  1  0
 16 17  2  0
 17 18  1  0
 18 19  1  0
 18 20  1  0
 17 21  1  0
 21 22  2  0
 11 23  1  0
 23 24  2  0
 24  2  1  0
 23  5  1  0
 22 14  1  0
  1 25  1  0
  1 26  1  0
  1 27  1  0
  3 28  1  0
  4 29  1  0
  6 30  1  0
  9 31  1  0
  9 32  1  0
 15 33  1  0
 16 34  1  0
 19 35  1  0
 19 36  1  0
 19 37  1  0
 20 38  1  0
 20 39  1  0
 20 40  1  0
 22 41  1  0
 24 42  1  0
M  END
>  <UniqueID>  (53) 
53

>  <SMILES>  (53) 
Cc1ccc2cc(C(N)=O)n(C(=O)c3ccc(N(C)C)nc3)c2c1

>  <Energy>  (53) 
84.87829641883823

>  <Genealogy>  (53) 
Cc1ccc2cc(C(N)=O)n(C(=O)c3ccc(N(C)C)nc3)c2c1 (3D coordinates assigned)
Cc1ccc2cc(C(N)=O)n(C(=O)c3ccc(N(C)C)nc3)c2c1 (optimized conformer: 84.87829641883823 kcal/mol)

>  <smiles>  (53) 
Cc1ccc2cc(C(N)=O)n(C(=O)c3ccc(N(C)C)nc3)c2c1

>  <score_type>  (53) 
oracle

>  <origin>  (53) 
adg

>  <m_score__min__energy>  (53) 
-8.9600000000000009

>  <m_primary>  (53) 
energy

$$$$
54:0
     RDKit          3D

 40 41  0  0  0  0  0  0  0  0999 V2000
   -2.2730   16.1990  -34.2400 C   0  0  0  0  0  0  0  0  0  0  0  0
   -2.3700   17.4840  -34.8140 O   0  0  0  0  0  0  0  0  0  0  0  0
   -2.0490   18.4640  -33.8490 C   0  0  0  0  0  0  0  0  0  0  0  0
   -3.1910   18.7460  -33.0460 O   0  0  0  0  0  0  0  0  0  0  0  0
   -3.8660   19.9700  -33.0980 C   0  0  0  0  0  0  0  0  0  0  0  0
   -3.2430   21.0270  -33.3900 O   0  0  0  0  0  0  0  0  0  0  0  0
   -5.2770   20.0240  -32.8240 N   0  0  0  0  0  0  0  0  0  0  0  0
   -6.2540   19.2320  -33.3490 C   0  0  0  0  0  0  0  0  0  0  0  0
   -6.0420   18.0500  -34.2060 C   0  0  0  0  0  0  0  0  0  0  0  0
   -4.8980   17.9460  -35.0570 N   0  0  0  0  0  0  0  0  0  0  0  0
   -6.8550   17.0880  -34.1460 O   0  0  0  0  0  0  0  0  0  0  0  0
   -7.5100   19.6550  -32.9260 C   0  0  0  0  0  0  0  0  0  0  0  0
   -7.2710   20.7320  -32.1040 C   0  0  0  0  0  0  0  0  0  0  0  0
   -8.1650   21.5450  -31.4150 C   0  0  0  0  0  0  0  0  0  0  0  0
   -7.6440   22.6110  -30.6650 C   0  0  0  0  0  0  0  0  0  0  0  0
   -6.2450   22.8620  -30.6210 C   0  0  0  0  0  0  0  0  0  0  0  0
   -5.7220   23.9730  -29.8480 N   0  0  0  0  0  0  0  0  0  0  0  0
   -6.5170   25.2000  -29.7090 C   0  0  0  0  0  0  0  0  0  0  0  0
   -4.4010   23.8980  -29.2000 C   0  0  0  0  0  0  0  0  0  0  0  0
   -3.4720   24.9180  -29.7790 C   0  0  0  0  0  0  0  0  0  0  0  0
   -2.3370   25.1090  -29.2660 O   0  0  0  0  0  0  0  0  0  0  0  0
   -3.8640   25.6690  -30.8800 O   0  0  0  0  0  0  0  0  0  0  0  0
   -5.3720   22.0100  -31.3450 C   0  0  0  0  0  0  0  0  0  0  0  0
   -5.9180   20.9380  -32.0600 C   0  0  0  0  0  0  0  0  0  0  0  0
   -2.2796   16.2858  -33.1435 H   0  0  0  0  0  0  0  0  0  0  0  0
   -3.1275   15.5870  -34.5645 H   0  0  0  0  0  0  0  0  0  0  0  0
   -1.3363   15.7222  -34.5645 H   0  0  0  0  0  0  0  0  0  0  0  0
   -1.2355   18.0925  -33.2085 H   0  0  0  0  0  0  0  0  0  0  0  0
   -1.7293   19.3842  -34.3599 H   0  0  0  0  0  0  0  0  0  0  0  0
   -4.7850   17.1190  -35.6830 H   0  0  0  0  0  0  0  0  0  0  0  0
   -4.1210   18.6400  -35.0020 H   0  0  0  0  0  0  0  0  0  0  0  0
   -8.4853   19.2213  -33.1918 H   0  0  0  0  0  0  0  0  0  0  0  0
   -9.2482   21.3581  -31.4567 H   0  0  0  0  0  0  0  0  0  0  0  0
   -8.3288   23.2626  -30.1024 H   0  0  0  0  0  0  0  0  0  0  0  0
   -6.6621   25.4240  -28.6419 H   0  0  0  0  0  0  0  0  0  0  0  0
   -5.9884   26.0359  -30.1905 H   0  0  0  0  0  0  0  0  0  0  0  0
   -7.4959   25.0592  -30.1905 H   0  0  0  0  0  0  0  0  0  0  0  0
   -4.5160   24.0843  -28.1220 H   0  0  0  0  0  0  0  0  0  0  0  0
   -3.9788   22.8966  -29.3701 H   0  0  0  0  0  0  0  0  0  0  0  0
   -4.2866   22.1885  -31.3444 H   0  0  0  0  0  0  0  0  0  0  0  0
  1  2  1  0
  2  3  1  0
  3  4  1  0
  4  5  1  0
  5  6  2  0
  5  7  1  0
  7  8  1  0
  8  9  1  0
  9 10  1  0
  9 11  2  0
  8 12  2  0
 12 13  1  0
 13 14  2  0
 14 15  1  0
 15 16  2  0
 16 17  1  0
 17 18  1  0
 17 19  1  0
 19 20  1  0
 20 21  2  0
 20 22  1  0
 16 23  1  0
 23 24  2  0
 24  7  1  0
 24 13  1  0
  1 25  1  0
  1 26  1  0
  1 27  1  0
  3 28  1  0
  3 29  1  0
 10 30  1  0
 10 31  1  0
 12 32  1  0
 14 33  1  0
 15 34  1  0
 18 35  1  0
 18 36  1  0
 18 37  1  0
 19 38  1  0
 19 39  1  0
 23 40  1  0
M  CHG  1  22  -1
M  END
>  <UniqueID>  (54) 
54

>  <SMILES>  (54) 
COCOC(=O)n1c(C(N)=O)cc2ccc(N(C)CC(=O)[O-])cc21

>  <Energy>  (54) 
79.56186395941442

>  <Genealogy>  (54) 
COCOC(=O)n1c(C(N)=O)cc2ccc(N(C)CC(=O)[O-])cc21 (protonated)
COCOC(=O)n1c(C(N)=O)cc2ccc(N(C)CC(=O)[O-])cc21 (3D coordinates assigned)
COCOC(=O)n1c(C(N)=O)cc2ccc(N(C)CC(=O)[O-])cc21 (optimized conformer: 79.56186395941442 kcal/mol)

>  <smiles>  (54) 
COCOC(=O)n1c(C(N)=O)cc2ccc(N(C)CC(=O)O)cc21

>  <score_type>  (54) 
oracle

>  <origin>  (54) 
adg

>  <m_score__min__energy>  (54) 
-9.3499999999999996

>  <m_primary>  (54) 
energy

$$$$
55:0
     RDKit          3D

 31 32  0  0  0  0  0  0  0  0999 V2000
   -3.8640   25.6200  -30.8890 N   0  0  0  0  0  0  0  0  0  0  0  0
   -5.1920   25.3240  -30.4660 C   0  0  0  0  0  0  0  0  0  0  0  0
   -5.8180   26.1640  -29.7660 O   0  0  0  0  0  0  0  0  0  0  0  0
   -5.8630   24.0740  -30.8810 C   0  0  0  0  0  0  0  0  0  0  0  0
   -7.2430   23.8910  -30.8290 C   0  0  0  0  0  0  0  0  0  0  0  0
   -7.4680   22.6520  -31.3820 C   0  0  0  0  0  0  0  0  0  0  0  0
   -8.6610   21.9600  -31.5750 C   0  0  0  0  0  0  0  0  0  0  0  0
   -8.5940   20.6780  -32.1470 C   0  0  0  0  0  0  0  0  0  0  0  0
   -7.3460   20.1150  -32.5050 C   0  0  0  0  0  0  0  0  0  0  0  0
   -7.2900   18.8050  -33.0750 N   0  0  0  0  0  0  0  0  0  0  0  0
   -6.1560   20.8440  -32.2950 C   0  0  0  0  0  0  0  0  0  0  0  0
   -6.2530   22.1260  -31.7410 C   0  0  0  0  0  0  0  0  0  0  0  0
   -5.2570   22.9850  -31.4360 N   0  0  0  0  0  0  0  0  0  0  0  0
   -3.8510   22.7450  -31.5960 C   0  0  0  0  0  0  0  0  0  0  0  0
   -3.4230   22.2020  -32.6510 O   0  0  0  0  0  0  0  0  0  0  0  0
   -2.9600   23.1440  -30.5930 O   0  0  0  0  0  0  0  0  0  0  0  0
   -3.2220   22.9990  -29.1970 C   0  0  0  0  0  0  0  0  0  0  0  0
   -2.4820   24.0650  -28.3930 C   0  0  0  0  0  0  0  0  0  0  0  0
   -1.8410   24.9650  -29.2540 O   0  0  0  0  0  0  0  0  0  0  0  0
   -3.0390   25.2970  -30.3370 H   0  0  0  0  0  0  0  0  0  0  0  0
   -7.9935   24.5893  -30.4302 H   0  0  0  0  0  0  0  0  0  0  0  0
   -9.6262   22.4032  -31.2885 H   0  0  0  0  0  0  0  0  0  0  0  0
   -9.5190   20.1077  -32.3178 H   0  0  0  0  0  0  0  0  0  0  0  0
   -7.9630   18.5170  -33.8200 H   0  0  0  0  0  0  0  0  0  0  0  0
   -6.5760   18.1130  -32.7550 H   0  0  0  0  0  0  0  0  0  0  0  0
   -5.1778   20.4161  -32.5597 H   0  0  0  0  0  0  0  0  0  0  0  0
   -4.3031   23.0999  -29.0206 H   0  0  0  0  0  0  0  0  0  0  0  0
   -2.8722   22.0075  -28.8737 H   0  0  0  0  0  0  0  0  0  0  0  0
   -3.2019   24.6121  -27.7666 H   0  0  0  0  0  0  0  0  0  0  0  0
   -1.7271   23.5760  -27.7597 H   0  0  0  0  0  0  0  0  0  0  0  0
   -2.0250   24.6420  -30.1750 H   0  0  0  0  0  0  0  0  0  0  0  0
  1  2  1  0
  2  3  2  0
  2  4  1  0
  4  5  2  0
  5  6  1  0
  6  7  2  0
  7  8  1  0
  8  9  2  0
  9 10  1  0
  9 11  1  0
 11 12  2  0
 12 13  1  0
 13 14  1  0
 14 15  2  0
 14 16  1  0
 16 17  1  0
 17 18  1  0
 18 19  1  0
 13  4  1  0
 12  6  1  0
  1 20  1  0
  5 21  1  0
  7 22  1  0
  8 23  1  0
 10 24  1  0
 10 25  1  0
 11 26  1  0
 17 27  1  0
 17 28  1  0
 18 29  1  0
 18 30  1  0
 19 31  1  0
M  CHG  1   1  -1
M  END
>  <UniqueID>  (55) 
55

>  <SMILES>  (55) 
[NH-]C(=O)c1cc2ccc(N)cc2n1C(=O)OCCO

>  <Energy>  (55) 
66.25369993809002

>  <Genealogy>  (55) 
[NH-]C(=O)c1cc2ccc(N)cc2n1C(=O)OCCO (protonated)
[NH-]C(=O)c1cc2ccc(N)cc2n1C(=O)OCCO (3D coordinates assigned)
[NH-]C(=O)c1cc2ccc(N)cc2n1C(=O)OCCO (optimized conformer: 66.25369993809002 kcal/mol)

>  <smiles>  (55) 
NC(=O)c1cc2ccc(N)cc2n1C(=O)OCCO

>  <score_type>  (55) 
oracle

>  <origin>  (55) 
adg

>  <m_score__min__energy>  (55) 
-8.8000000000000007

>  <m_primary>  (55) 
energy

$$$$
56:0
     RDKit          3D

 52 53  0  0  0  0  0  0  0  0999 V2000
   -2.8000   20.4610  -33.5210 C   0  0  0  0  0  0  0  0  0  0  0  0
   -3.1620   18.9890  -33.3430 C   0  0  0  0  0  0  0  0  0  0  0  0
   -3.5690   18.4130  -34.5830 O   0  0  0  0  0  0  0  0  0  0  0  0
   -3.7910   17.0420  -34.7630 C   0  0  0  0  0  0  0  0  0  0  0  0
   -3.0970   16.3760  -35.5800 O   0  0  0  0  0  0  0  0  0  0  0  0
   -4.8660   16.3650  -33.9800 C   0  0  0  0  0  0  0  0  0  0  0  0
   -6.1250   16.9500  -34.2930 O   0  0  0  0  0  0  0  0  0  0  0  0
   -6.4980   18.2200  -33.8370 C   0  0  0  0  0  0  0  0  0  0  0  0
   -6.3630   19.2320  -34.5790 O   0  0  0  0  0  0  0  0  0  0  0  0
   -7.1160   18.3640  -32.4800 C   0  0  0  0  0  0  0  0  0  0  0  0
   -7.1980   19.8140  -32.0840 C   0  0  0  0  0  0  0  0  0  0  0  0
   -8.4430   20.4910  -32.1170 C   0  0  0  0  0  0  0  0  0  0  0  0
   -8.5230   21.8560  -31.7900 C   0  0  0  0  0  0  0  0  0  0  0  0
   -7.3450   22.5170  -31.4550 C   0  0  0  0  0  0  0  0  0  0  0  0
   -7.1390   23.8280  -31.0930 C   0  0  0  0  0  0  0  0  0  0  0  0
   -5.7670   23.9420  -30.8830 C   0  0  0  0  0  0  0  0  0  0  0  0
   -5.0980   25.2210  -30.5700 C   0  0  0  0  0  0  0  0  0  0  0  0
   -3.6780   25.3000  -30.4570 N   0  0  0  0  0  0  0  0  0  0  0  0
   -5.7860   26.2710  -30.4490 O   0  0  0  0  0  0  0  0  0  0  0  0
   -5.1500   22.7450  -31.0950 N   0  0  0  0  0  0  0  0  0  0  0  0
   -3.7610   22.4240  -30.9120 C   0  0  0  0  0  0  0  0  0  0  0  0
   -2.9080   22.8420  -31.7420 O   0  0  0  0  0  0  0  0  0  0  0  0
   -3.3740   21.6550  -29.8020 O   0  0  0  0  0  0  0  0  0  0  0  0
   -3.0370   22.1520  -28.4980 C   0  0  0  0  0  0  0  0  0  0  0  0
   -2.7480   20.9310  -27.6130 C   0  0  0  0  0  0  0  0  0  0  0  0
   -4.2200   22.9350  -27.8990 C   0  0  0  0  0  0  0  0  0  0  0  0
   -1.7730   23.0330  -28.5600 C   0  0  0  0  0  0  0  0  0  0  0  0
   -6.1290   21.8840  -31.4470 C   0  0  0  0  0  0  0  0  0  0  0  0
   -6.0240   20.5190  -31.7430 C   0  0  0  0  0  0  0  0  0  0  0  0
   -2.6842   20.9321  -32.5337 H   0  0  0  0  0  0  0  0  0  0  0  0
   -1.8553   20.5414  -34.0788 H   0  0  0  0  0  0  0  0  0  0  0  0
   -3.5996   20.9704  -34.0788 H   0  0  0  0  0  0  0  0  0  0  0  0
   -2.2842   18.4452  -32.9638 H   0  0  0  0  0  0  0  0  0  0  0  0
   -3.9962   18.9152  -32.6298 H   0  0  0  0  0  0  0  0  0  0  0  0
   -4.8860   15.2951  -34.2347 H   0  0  0  0  0  0  0  0  0  0  0  0
   -4.6651   16.4838  -32.9051 H   0  0  0  0  0  0  0  0  0  0  0  0
   -8.1294   17.9366  -32.4975 H   0  0  0  0  0  0  0  0  0  0  0  0
   -6.4902   17.8323  -31.7481 H   0  0  0  0  0  0  0  0  0  0  0  0
   -9.3541   19.9438  -32.4008 H   0  0  0  0  0  0  0  0  0  0  0  0
   -9.4872   22.3854  -31.7987 H   0  0  0  0  0  0  0  0  0  0  0  0
   -7.8971   24.6185  -30.9910 H   0  0  0  0  0  0  0  0  0  0  0  0
   -3.0570   24.9350  -31.2140 H   0  0  0  0  0  0  0  0  0  0  0  0
   -2.8167   21.2211  -26.5542 H   0  0  0  0  0  0  0  0  0  0  0  0
   -3.4841   20.1417  -27.8254 H   0  0  0  0  0  0  0  0  0  0  0  0
   -1.7361   20.5554  -27.8254 H   0  0  0  0  0  0  0  0  0  0  0  0
   -4.1653   22.8988  -26.8010 H   0  0  0  0  0  0  0  0  0  0  0  0
   -4.1742   23.9817  -28.2341 H   0  0  0  0  0  0  0  0  0  0  0  0
   -5.1656   22.4838  -28.2341 H   0  0  0  0  0  0  0  0  0  0  0  0
   -1.4382   23.2663  -27.5385 H   0  0  0  0  0  0  0  0  0  0  0  0
   -0.9760   22.4937  -29.0929 H   0  0  0  0  0  0  0  0  0  0  0  0
   -2.0031   23.9674  -29.0929 H   0  0  0  0  0  0  0  0  0  0  0  0
   -5.0500   20.0089  -31.7105 H   0  0  0  0  0  0  0  0  0  0  0  0
  1  2  1  0
  2  3  1  0
  3  4  1  0
  4  5  2  0
  4  6  1  0
  6  7  1  0
  7  8  1  0
  8  9  2  0
  8 10  1  0
 10 11  1  0
 11 12  2  0
 12 13  1  0
 13 14  2  0
 14 15  1  0
 15 16  2  0
 16 17  1  0
 17 18  1  0
 17 19  2  0
 16 20  1  0
 20 21  1  0
 21 22  2  0
 21 23  1  0
 23 24  1  0
 24 25  1  0
 24 26  1  0
 24 27  1  0
 20 28  1  0
 28 29  2  0
 29 11  1  0
 28 14  1  0
  1 30  1  0
  1 31  1  0
  1 32  1  0
  2 33  1  0
  2 34  1  0
  6 35  1  0
  6 36  1  0
 10 37  1  0
 10 38  1  0
 12 39  1  0
 13 40  1  0
 15 41  1  0
 18 42  1  0
 25 43  1  0
 25 44  1  0
 25 45  1  0
 26 46  1  0
 26 47  1  0
 26 48  1  0
 27 49  1  0
 27 50  1  0
 27 51  1  0
 29 52  1  0
M  CHG  1  18  -1
M  END
>  <UniqueID>  (56) 
56

>  <SMILES>  (56) 
CCOC(=O)COC(=O)Cc1ccc2cc(C([NH-])=O)n(C(=O)OC(C)(C)C)c2c1

>  <Energy>  (56) 
76.96419004266161

>  <Genealogy>  (56) 
CCOC(=O)COC(=O)Cc1ccc2cc(C([NH-])=O)n(C(=O)OC(C)(C)C)c2c1 (protonated)
CCOC(=O)COC(=O)Cc1ccc2cc(C([NH-])=O)n(C(=O)OC(C)(C)C)c2c1 (3D coordinates assigned)
CCOC(=O)COC(=O)Cc1ccc2cc(C([NH-])=O)n(C(=O)OC(C)(C)C)c2c1 (optimized conformer: 76.96419004266161 kcal/mol)

>  <smiles>  (56) 
CCOC(=O)COC(=O)Cc1ccc2cc(C(N)=O)n(C(=O)OC(C)(C)C)c2c1

>  <score_type>  (56) 
oracle

>  <origin>  (56) 
adg

>  <m_score__min__energy>  (56) 
-9.6099999999999994

>  <m_primary>  (56) 
energy

$$$$
57:0
     RDKit          3D

 44 45  0  0  0  0  0  0  0  0999 V2000
   -3.1170   25.1200  -30.4770 H   0  0  0  0  0  0  0  0  0  0  0  0
   -3.9360   25.6590  -30.8390 N   0  0  0  0  0  0  0  0  0  0  0  0
   -5.2670   25.3010  -30.4790 C   0  0  0  0  0  0  0  0  0  0  0  0
   -5.9400   26.0800  -29.7540 O   0  0  0  0  0  0  0  0  0  0  0  0
   -5.8260   24.0070  -30.9220 C   0  0  0  0  0  0  0  0  0  0  0  0
   -7.1910   23.7730  -31.0820 C   0  0  0  0  0  0  0  0  0  0  0  0
   -8.0169   24.4620  -30.8516 H   0  0  0  0  0  0  0  0  0  0  0  0
   -7.2860   22.4980  -31.5890 C   0  0  0  0  0  0  0  0  0  0  0  0
   -8.4110   21.7550  -31.9380 C   0  0  0  0  0  0  0  0  0  0  0  0
   -9.4223   22.1763  -31.8385 H   0  0  0  0  0  0  0  0  0  0  0  0
   -8.2140   20.4510  -32.4210 C   0  0  0  0  0  0  0  0  0  0  0  0
   -9.0814   19.8438  -32.7191 H   0  0  0  0  0  0  0  0  0  0  0  0
   -6.9090   19.9100  -32.5280 C   0  0  0  0  0  0  0  0  0  0  0  0
   -6.7110   18.5260  -33.0710 C   0  0  0  0  0  0  0  0  0  0  0  0
   -6.6094   17.8160  -32.2370 H   0  0  0  0  0  0  0  0  0  0  0  0
   -7.5783   18.2463  -33.6871 H   0  0  0  0  0  0  0  0  0  0  0  0
   -5.8001   18.5007  -33.6871 H   0  0  0  0  0  0  0  0  0  0  0  0
   -5.7900   20.6990  -32.1810 C   0  0  0  0  0  0  0  0  0  0  0  0
   -4.7688   20.3005  -32.2720 H   0  0  0  0  0  0  0  0  0  0  0  0
   -6.0140   22.0020  -31.7180 C   0  0  0  0  0  0  0  0  0  0  0  0
   -5.1060   22.9140  -31.3090 N   0  0  0  0  0  0  0  0  0  0  0  0
   -3.6840   22.7290  -31.2500 C   0  0  0  0  0  0  0  0  0  0  0  0
   -3.0650   22.9460  -30.1740 O   0  0  0  0  0  0  0  0  0  0  0  0
   -2.9930   22.2890  -32.3870 O   0  0  0  0  0  0  0  0  0  0  0  0
   -2.3140   21.0380  -32.4520 C   0  0  0  0  0  0  0  0  0  0  0  0
   -2.8945   20.3431  -33.0766 H   0  0  0  0  0  0  0  0  0  0  0  0
   -1.3166   21.1968  -32.8879 H   0  0  0  0  0  0  0  0  0  0  0  0
   -2.1560   20.4530  -31.0770 C   0  0  0  0  0  0  0  0  0  0  0  0
   -2.8750   19.7000  -30.7220 H   0  0  0  0  0  0  0  0  0  0  0  0
   -1.1510   20.8360  -30.2770 C   0  0  0  0  0  0  0  0  0  0  0  0
   -0.4385   21.5934  -30.6358 H   0  0  0  0  0  0  0  0  0  0  0  0
   -0.9730   20.2540  -28.8970 C   0  0  0  0  0  0  0  0  0  0  0  0
   -1.1679   19.1723  -28.9406 H   0  0  0  0  0  0  0  0  0  0  0  0
    0.0573   20.4615  -28.5725 H   0  0  0  0  0  0  0  0  0  0  0  0
   -1.8940   20.8660  -27.9100 N   0  0  0  0  0  0  0  0  0  0  0  0
   -2.5080   21.5670  -28.3890 H   0  0  0  0  0  0  0  0  0  0  0  0
   -2.7520   19.8480  -27.2750 C   0  0  0  0  0  0  0  0  0  0  0  0
   -2.6776   19.9363  -26.1811 H   0  0  0  0  0  0  0  0  0  0  0  0
   -3.7959   20.0031  -27.5852 H   0  0  0  0  0  0  0  0  0  0  0  0
   -2.4224   18.8454  -27.5852 H   0  0  0  0  0  0  0  0  0  0  0  0
   -1.1210   21.5800  -26.8790 C   0  0  0  0  0  0  0  0  0  0  0  0
   -1.4618   21.2652  -25.8816 H   0  0  0  0  0  0  0  0  0  0  0  0
   -0.0526   21.3442  -26.9928 H   0  0  0  0  0  0  0  0  0  0  0  0
   -1.2714   22.6637  -26.9928 H   0  0  0  0  0  0  0  0  0  0  0  0
  1  2  1  0
  2  3  1  0
  3  4  2  0
  3  5  1  0
  5  6  2  0
  6  7  1  0
  6  8  1  0
  8  9  2  0
  9 10  1  0
  9 11  1  0
 11 12  1  0
 11 13  2  0
 13 14  1  0
 14 15  1  0
 14 16  1  0
 14 17  1  0
 13 18  1  0
 18 19  1  0
 18 20  2  0
 20 21  1  0
 21 22  1  0
 22 23  2  0
 22 24  1  0
 24 25  1  0
 25 26  1  0
 25 27  1  0
 25 28  1  0
 28 29  1  0
 28 30  2  0
 30 31  1  0
 30 32  1  0
 32 33  1  0
 32 34  1  0
 32 35  1  0
 35 36  1  0
 35 37  1  0
 37 38  1  0
 37 39  1  0
 37 40  1  0
 35 41  1  0
 41 42  1  0
 41 43  1  0
 41 44  1  0
 21  5  1  0
 20  8  1  0
M  CHG  2   2  -1  35   1
M  END
>  <UniqueID>  (57) 
57

>  <SMILES>  (57) 
Cc1ccc2cc(C([NH-])=O)n(C(=O)OC/C=C/C[NH+](C)C)c2c1

>  <Energy>  (57) 
76.34964723940764

>  <Genealogy>  (57) 
Cc1ccc2cc(C([NH-])=O)n(C(=O)OC/C=C/C[NH+](C)C)c2c1 (protonated)
Cc1ccc2cc(C([NH-])=O)n(C(=O)OC/C=C/C[NH+](C)C)c2c1 (cis-trans isomerization)
Cc1ccc2cc(C([NH-])=O)n(C(=O)OC/C=C/C[NH+](C)C)c2c1 (3D coordinates assigned)
Cc1ccc2cc(C([NH-])=O)n(C(=O)OC/C=C/C[NH+](C)C)c2c1 (optimized conformer: 76.34964723940764 kcal/mol)

>  <smiles>  (57) 
Cc1ccc2cc(C(N)=O)n(C(=O)OC/C=C/CN(C)C)c2c1

>  <score_type>  (57) 
oracle

>  <origin>  (57) 
adg

>  <m_score__min__energy>  (57) 
-9.0800000000000001

>  <m_primary>  (57) 
energy

$$$$
58:0
     RDKit          3D

 31 32  0  0  0  0  0  0  0  0999 V2000
   -2.1040   22.3542  -27.9505 H   0  0  0  0  0  0  0  0  0  0  0  0
   -2.4140   22.8130  -28.9010 C   0  0  0  0  0  0  0  0  0  0  0  0
   -1.6780   24.0120  -29.3360 C   0  0  0  0  0  0  0  0  0  0  0  0
   -0.4610   23.9120  -29.6380 O   0  0  0  0  0  0  0  0  0  0  0  0
   -2.2740   25.2670  -29.3350 O   0  0  0  0  0  0  0  0  0  0  0  0
   -3.4290   22.2280  -29.5580 C   0  0  0  0  0  0  0  0  0  0  0  0
   -3.9715   21.4340  -29.0239 H   0  0  0  0  0  0  0  0  0  0  0  0
   -3.8910   22.5440  -30.9280 C   0  0  0  0  0  0  0  0  0  0  0  0
   -3.0220   22.7360  -31.8190 O   0  0  0  0  0  0  0  0  0  0  0  0
   -5.2830   22.7160  -31.2580 N   0  0  0  0  0  0  0  0  0  0  0  0
   -6.0460   23.8270  -31.0460 C   0  0  0  0  0  0  0  0  0  0  0  0
   -5.5650   25.1340  -30.5480 C   0  0  0  0  0  0  0  0  0  0  0  0
   -6.3930   25.9450  -30.0530 O   0  0  0  0  0  0  0  0  0  0  0  0
   -4.1950   25.5230  -30.6590 N   0  0  0  0  0  0  0  0  0  0  0  0
   -3.8770   26.4310  -30.2540 H   0  0  0  0  0  0  0  0  0  0  0  0
   -3.5120   24.9660  -31.2150 H   0  0  0  0  0  0  0  0  0  0  0  0
   -7.3780   23.5750  -31.3620 C   0  0  0  0  0  0  0  0  0  0  0  0
   -8.2226   24.2770  -31.2988 H   0  0  0  0  0  0  0  0  0  0  0  0
   -7.4140   22.2620  -31.7700 C   0  0  0  0  0  0  0  0  0  0  0  0
   -8.4940   21.4830  -32.1770 C   0  0  0  0  0  0  0  0  0  0  0  0
   -9.5056   21.9092  -32.2481 H   0  0  0  0  0  0  0  0  0  0  0  0
   -8.2520   20.1360  -32.4940 C   0  0  0  0  0  0  0  0  0  0  0  0
   -9.0798   19.4999  -32.8405 H   0  0  0  0  0  0  0  0  0  0  0  0
   -6.9500   19.5900  -32.3710 C   0  0  0  0  0  0  0  0  0  0  0  0
   -6.6970   18.1550  -32.7320 C   0  0  0  0  0  0  0  0  0  0  0  0
   -7.6288   17.7003  -33.0993 H   0  0  0  0  0  0  0  0  0  0  0  0
   -5.9285   18.1062  -33.5175 H   0  0  0  0  0  0  0  0  0  0  0  0
   -6.1310   17.2680  -31.2960 Cl  0  0  0  0  0  0  0  0  0  0  0  0
   -5.8800   20.4110  -31.9580 C   0  0  0  0  0  0  0  0  0  0  0  0
   -4.8643   20.0017  -31.8535 H   0  0  0  0  0  0  0  0  0  0  0  0
   -6.1410   21.7600  -31.6840 C   0  0  0  0  0  0  0  0  0  0  0  0
  1  2  1  0
  2  3  1  0
  3  4  2  0
  3  5  1  0
  2  6  2  0
  6  7  1  0
  6  8  1  0
  8  9  2  0
  8 10  1  0
 10 11  1  0
 11 12  1  0
 12 13  2  0
 12 14  1  0
 14 15  1  0
 14 16  1  0
 11 17  2  0
 17 18  1  0
 17 19  1  0
 19 20  2  0
 20 21  1  0
 20 22  1  0
 22 23  1  0
 22 24  2  0
 24 25  1  0
 25 26  1  0
 25 27  1  0
 25 28  1  0
 24 29  1  0
 29 30  1  0
 29 31  2  0
 31 10  1  0
 31 19  1  0
M  CHG  1   5  -1
M  END
>  <UniqueID>  (58) 
58

>  <SMILES>  (58) 
NC(=O)c1cc2ccc(CCl)cc2n1C(=O)/C=C\C(=O)[O-]

>  <Energy>  (58) 
75.7636885488181

>  <Genealogy>  (58) 
NC(=O)c1cc2ccc(CCl)cc2n1C(=O)/C=C\C(=O)[O-] (protonated)
NC(=O)c1cc2ccc(CCl)cc2n1C(=O)/C=C\C(=O)[O-] (cis-trans isomerization)
NC(=O)c1cc2ccc(CCl)cc2n1C(=O)/C=C\C(=O)[O-] (3D coordinates assigned)
NC(=O)c1cc2ccc(CCl)cc2n1C(=O)/C=C\C(=O)[O-] (optimized conformer: 75.7636885488181 kcal/mol)

>  <smiles>  (58) 
NC(=O)c1cc2ccc(CCl)cc2n1C(=O)/C=C\C(=O)O

>  <score_type>  (58) 
oracle

>  <origin>  (58) 
adg

>  <m_score__min__energy>  (58) 
-11.539999999999999

>  <m_primary>  (58) 
energy

$$$$
59:0
     RDKit          3D

 41 42  0  0  0  0  0  0  0  0999 V2000
   -6.8660   15.5010  -34.1690 C   0  0  0  0  0  0  0  0  0  0  0  0
   -6.5430   16.8340  -34.4970 O   0  0  0  0  0  0  0  0  0  0  0  0
   -5.1390   17.0220  -34.5140 C   0  0  0  0  0  0  0  0  0  0  0  0
   -4.8140   18.5090  -34.6100 C   0  0  0  0  0  0  0  0  0  0  0  0
   -4.2330   18.9370  -33.3950 O   0  0  0  0  0  0  0  0  0  0  0  0
   -3.1930   19.8680  -33.6240 C   0  0  0  0  0  0  0  0  0  0  0  0
   -2.8540   20.6250  -32.3390 C   0  0  0  0  0  0  0  0  0  0  0  0
   -3.2910   21.9750  -32.4540 O   0  0  0  0  0  0  0  0  0  0  0  0
   -3.8030   22.7040  -31.3780 C   0  0  0  0  0  0  0  0  0  0  0  0
   -3.0330   23.1370  -30.4780 O   0  0  0  0  0  0  0  0  0  0  0  0
   -5.2190   22.9250  -31.2810 N   0  0  0  0  0  0  0  0  0  0  0  0
   -5.8580   24.0810  -30.9440 C   0  0  0  0  0  0  0  0  0  0  0  0
   -5.2140   25.3050  -30.4240 C   0  0  0  0  0  0  0  0  0  0  0  0
   -3.8950   25.6460  -30.8440 N   0  0  0  0  0  0  0  0  0  0  0  0
   -5.8300   26.0750  -29.6410 O   0  0  0  0  0  0  0  0  0  0  0  0
   -7.2360   23.9410  -31.0920 C   0  0  0  0  0  0  0  0  0  0  0  0
   -7.4260   22.6530  -31.5350 C   0  0  0  0  0  0  0  0  0  0  0  0
   -8.6010   21.9870  -31.8700 C   0  0  0  0  0  0  0  0  0  0  0  0
   -8.4980   20.6680  -32.3440 C   0  0  0  0  0  0  0  0  0  0  0  0
   -7.2330   20.0490  -32.4800 C   0  0  0  0  0  0  0  0  0  0  0  0
   -7.1400   18.7120  -32.9770 N   0  0  0  0  0  0  0  0  0  0  0  0
   -6.0610   20.7540  -32.1310 C   0  0  0  0  0  0  0  0  0  0  0  0
   -6.1930   22.0600  -31.6420 C   0  0  0  0  0  0  0  0  0  0  0  0
   -6.8932   15.3889  -33.0751 H   0  0  0  0  0  0  0  0  0  0  0  0
   -7.8513   15.2487  -34.5880 H   0  0  0  0  0  0  0  0  0  0  0  0
   -6.1055   14.8257  -34.5880 H   0  0  0  0  0  0  0  0  0  0  0  0
   -4.7053   16.6131  -33.5895 H   0  0  0  0  0  0  0  0  0  0  0  0
   -4.7152   16.5023  -35.3860 H   0  0  0  0  0  0  0  0  0  0  0  0
   -4.1072   18.6786  -35.4356 H   0  0  0  0  0  0  0  0  0  0  0  0
   -5.7366   19.0775  -34.7989 H   0  0  0  0  0  0  0  0  0  0  0  0
   -2.2986   19.3317  -33.9741 H   0  0  0  0  0  0  0  0  0  0  0  0
   -3.5256   20.5908  -34.3836 H   0  0  0  0  0  0  0  0  0  0  0  0
   -3.3603   20.1470  -31.4875 H   0  0  0  0  0  0  0  0  0  0  0  0
   -1.7661   20.6043  -32.1775 H   0  0  0  0  0  0  0  0  0  0  0  0
   -3.0590   25.2910  -30.3290 H   0  0  0  0  0  0  0  0  0  0  0  0
   -8.0082   24.6995  -30.8961 H   0  0  0  0  0  0  0  0  0  0  0  0
   -9.5801   22.4777  -31.7670 H   0  0  0  0  0  0  0  0  0  0  0  0
   -9.4087   20.1121  -32.6116 H   0  0  0  0  0  0  0  0  0  0  0  0
   -6.2740   18.1470  -32.8340 H   0  0  0  0  0  0  0  0  0  0  0  0
   -7.9370   18.2780  -33.4960 H   0  0  0  0  0  0  0  0  0  0  0  0
   -5.0697   20.2899  -32.2402 H   0  0  0  0  0  0  0  0  0  0  0  0
  1  2  1  0
  2  3  1  0
  3  4  1  0
  4  5  1  0
  5  6  1  0
  6  7  1  0
  7  8  1  0
  8  9  1  0
  9 10  2  0
  9 11  1  0
 11 12  1  0
 12 13  1  0
 13 14  1  0
 13 15  2  0
 12 16  2  0
 16 17  1  0
 17 18  2  0
 18 19  1  0
 19 20  2  0
 20 21  1  0
 20 22  1  0
 22 23  2  0
 23 11  1  0
 23 17  1  0
  1 24  1  0
  1 25  1  0
  1 26  1  0
  3 27  1  0
  3 28  1  0
  4 29  1  0
  4 30  1  0
  6 31  1  0
  6 32  1  0
  7 33  1  0
  7 34  1  0
 14 35  1  0
 16 36  1  0
 18 37  1  0
 19 38  1  0
 21 39  1  0
 21 40  1  0
 22 41  1  0
M  CHG  1  14  -1
M  END
>  <UniqueID>  (59) 
59

>  <SMILES>  (59) 
COCCOCCOC(=O)n1c(C([NH-])=O)cc2ccc(N)cc21

>  <Energy>  (59) 
75.51140797994627

>  <Genealogy>  (59) 
COCCOCCOC(=O)n1c(C([NH-])=O)cc2ccc(N)cc21 (protonated)
COCCOCCOC(=O)n1c(C([NH-])=O)cc2ccc(N)cc21 (3D coordinates assigned)
COCCOCCOC(=O)n1c(C([NH-])=O)cc2ccc(N)cc21 (optimized conformer: 75.51140797994627 kcal/mol)

>  <smiles>  (59) 
COCCOCCOC(=O)n1c(C(N)=O)cc2ccc(N)cc21

>  <score_type>  (59) 
oracle

>  <origin>  (59) 
adg

>  <m_score__min__energy>  (59) 
-8.6099999999999994

>  <m_primary>  (59) 
energy

$$$$
61:0
     RDKit          3D

 48 49  0  0  0  0  0  0  0  0999 V2000
    0.8610   22.9270  -27.8390 C   0  0  0  0  0  0  0  0  0  0  0  0
   -0.5070   23.2200  -28.4580 C   0  0  2  0  0  0  0  0  0  0  0  0
   -1.3320   24.1220  -27.5170 C   0  0  0  0  0  0  0  0  0  0  0  0
   -1.6680   25.4760  -28.1450 C   0  0  0  0  0  0  0  0  0  0  0  0
   -2.4920   25.2850  -29.2620 O   0  0  0  0  0  0  0  0  0  0  0  0
   -1.1800   21.9790  -28.6810 O   0  0  0  0  0  0  0  0  0  0  0  0
   -2.5690   21.8580  -28.8270 C   0  0  0  0  0  0  0  0  0  0  0  0
   -3.3570   22.4640  -28.0500 O   0  0  0  0  0  0  0  0  0  0  0  0
   -3.1220   21.0370  -29.9480 C   0  0  0  0  0  0  0  0  0  0  0  0
   -3.2640   21.8610  -31.1570 N   0  0  0  0  0  0  0  0  0  0  0  0
   -2.3480   21.6400  -32.2790 C   0  0  0  0  0  0  0  0  0  0  0  0
   -4.1650   22.9890  -31.1960 C   0  0  0  0  0  0  0  0  0  0  0  0
   -3.7050   24.1620  -31.2020 O   0  0  0  0  0  0  0  0  0  0  0  0
   -5.5890   22.7990  -31.2070 N   0  0  0  0  0  0  0  0  0  0  0  0
   -6.5410   23.5480  -30.5810 C   0  0  0  0  0  0  0  0  0  0  0  0
   -6.2690   24.6980  -29.6840 C   0  0  0  0  0  0  0  0  0  0  0  0
   -5.0110   24.8380  -29.0160 N   0  0  0  0  0  0  0  0  0  0  0  0
   -7.1490   25.5830  -29.5060 O   0  0  0  0  0  0  0  0  0  0  0  0
   -7.8120   23.0430  -30.8700 C   0  0  0  0  0  0  0  0  0  0  0  0
   -7.5990   21.9540  -31.6850 C   0  0  0  0  0  0  0  0  0  0  0  0
   -8.5080   21.0790  -32.2740 C   0  0  0  0  0  0  0  0  0  0  0  0
   -8.0010   20.0340  -33.0640 C   0  0  0  0  0  0  0  0  0  0  0  0
   -6.6060   19.8820  -33.2450 C   0  0  0  0  0  0  0  0  0  0  0  0
   -6.1030   18.7990  -34.0300 N   0  0  0  0  0  0  0  0  0  0  0  0
   -5.7130   20.7920  -32.6400 C   0  0  0  0  0  0  0  0  0  0  0  0
   -6.2480   21.8230  -31.8630 C   0  0  0  0  0  0  0  0  0  0  0  0
    0.7786   22.9447  -26.7422 H   0  0  0  0  0  0  0  0  0  0  0  0
    1.2059   21.9346  -28.1648 H   0  0  0  0  0  0  0  0  0  0  0  0
    1.5821   23.6911  -28.1648 H   0  0  0  0  0  0  0  0  0  0  0  0
   -0.3828   23.7492  -29.4143 H   0  0  0  0  0  0  0  0  0  0  0  0
   -2.2712   23.6062  -27.2684 H   0  0  0  0  0  0  0  0  0  0  0  0
   -0.7240   24.3123  -26.6203 H   0  0  0  0  0  0  0  0  0  0  0  0
   -2.1911   26.1020  -27.4071 H   0  0  0  0  0  0  0  0  0  0  0  0
   -0.7385   25.9741  -28.4579 H   0  0  0  0  0  0  0  0  0  0  0  0
   -2.7890   24.3370  -29.2270 H   0  0  0  0  0  0  0  0  0  0  0  0
   -2.4396   20.1999  -30.1566 H   0  0  0  0  0  0  0  0  0  0  0  0
   -4.1104   20.6515  -29.6576 H   0  0  0  0  0  0  0  0  0  0  0  0
   -1.3467   21.3984  -31.8928 H   0  0  0  0  0  0  0  0  0  0  0  0
   -2.7154   20.8047  -32.8933 H   0  0  0  0  0  0  0  0  0  0  0  0
   -2.2941   22.5509  -32.8933 H   0  0  0  0  0  0  0  0  0  0  0  0
   -4.2560   24.1220  -29.0970 H   0  0  0  0  0  0  0  0  0  0  0  0
   -4.8320   25.6730  -28.4140 H   0  0  0  0  0  0  0  0  0  0  0  0
   -8.7789   23.4335  -30.5199 H   0  0  0  0  0  0  0  0  0  0  0  0
   -9.5909   21.2024  -32.1251 H   0  0  0  0  0  0  0  0  0  0  0  0
   -8.6939   19.3284  -33.5457 H   0  0  0  0  0  0  0  0  0  0  0  0
   -6.4920   18.6030  -34.9800 H   0  0  0  0  0  0  0  0  0  0  0  0
   -5.3510   18.1750  -33.6600 H   0  0  0  0  0  0  0  0  0  0  0  0
   -4.6260   20.6925  -32.7762 H   0  0  0  0  0  0  0  0  0  0  0  0
  1  2  1  0
  2  3  1  0
  3  4  1  0
  4  5  1  0
  2  6  1  0
  6  7  1  0
  7  8  2  0
  7  9  1  0
  9 10  1  0
 10 11  1  0
 10 12  1  0
 12 13  2  0
 12 14  1  0
 14 15  1  0
 15 16  1  0
 16 17  1  0
 16 18  2  0
 15 19  2  0
 19 20  1  0
 20 21  2  0
 21 22  1  0
 22 23  2  0
 23 24  1  0
 23 25  1  0
 25 26  2  0
 26 14  1  0
 26 20  1  0
  1 27  1  0
  1 28  1  0
  1 29  1  0
  2 30  1  6
  3 31  1  0
  3 32  1  0
  4 33  1  0
  4 34  1  0
  5 35  1  0
  9 36  1  0
  9 37  1  0
 11 38  1  0
 11 39  1  0
 11 40  1  0
 17 41  1  0
 17 42  1  0
 19 43  1  0
 21 44  1  0
 22 45  1  0
 24 46  1  0
 24 47  1  0
 25 48  1  0
M  END
>  <UniqueID>  (60) 
60

>  <SMILES>  (60) 
C[C@H](CCO)OC(=O)CN(C)C(=O)n1c(C(N)=O)cc2ccc(N)cc21

>  <Energy>  (60) 
74.01521271836789

>  <Genealogy>  (60) 
C[C@H](CCO)OC(=O)CN(C)C(=O)n1c(C(N)=O)cc2ccc(N)cc21 (chirality)
C[C@H](CCO)OC(=O)CN(C)C(=O)n1c(C(N)=O)cc2ccc(N)cc21 (3D coordinates assigned)
C[C@H](CCO)OC(=O)CN(C)C(=O)n1c(C(N)=O)cc2ccc(N)cc21 (optimized conformer: 74.01521271836789 kcal/mol)

>  <smiles>  (60) 
CC(CCO)OC(=O)CN(C)C(=O)n1c(C(N)=O)cc2ccc(N)cc21

>  <score_type>  (60) 
oracle

>  <origin>  (60) 
adg

>  <m_score__min__energy>  (60) 
-7.7599999999999998

>  <m_primary>  (60) 
energy

$$$$
62:0
     RDKit          3D

 44 45  0  0  0  0  0  0  0  0999 V2000
   -6.1460   19.2220  -34.5930 C   0  0  0  0  0  0  0  0  0  0  0  0
   -5.9380   17.9310  -33.7860 C   0  0  2  0  0  0  0  0  0  0  0  0
   -6.0220   18.1530  -32.3250 N   0  0  0  0  0  0  0  0  0  0  0  0
   -6.3450   19.5160  -31.9600 C   0  0  0  0  0  0  0  0  0  0  0  0
   -7.6990   19.9290  -31.8600 C   0  0  0  0  0  0  0  0  0  0  0  0
   -8.0250   21.2460  -31.4960 C   0  0  0  0  0  0  0  0  0  0  0  0
   -6.9800   22.1310  -31.2530 C   0  0  0  0  0  0  0  0  0  0  0  0
   -7.0110   23.4540  -30.8720 C   0  0  0  0  0  0  0  0  0  0  0  0
   -5.6760   23.8410  -30.7700 C   0  0  0  0  0  0  0  0  0  0  0  0
   -5.2500   25.2250  -30.4720 C   0  0  0  0  0  0  0  0  0  0  0  0
   -3.9450   25.6620  -30.8450 N   0  0  0  0  0  0  0  0  0  0  0  0
   -6.0140   26.0190  -29.8620 O   0  0  0  0  0  0  0  0  0  0  0  0
   -4.8520   22.7970  -31.0690 N   0  0  0  0  0  0  0  0  0  0  0  0
   -3.4160   22.7650  -31.0310 C   0  0  0  0  0  0  0  0  0  0  0  0
   -2.8040   23.1800  -30.0080 O   0  0  0  0  0  0  0  0  0  0  0  0
   -2.7050   22.2510  -32.1210 O   0  0  0  0  0  0  0  0  0  0  0  0
   -1.9940   21.0170  -32.0740 C   0  0  0  0  0  0  0  0  0  0  0  0
   -2.3530   20.0420  -33.5230 Cl  0  0  0  0  0  0  0  0  0  0  0  0
   -5.6650   21.7600  -31.3680 C   0  0  0  0  0  0  0  0  0  0  0  0
   -5.3120   20.4520  -31.7130 C   0  0  0  0  0  0  0  0  0  0  0  0
   -4.6560   17.2390  -34.1790 C   0  0  0  0  0  0  0  0  0  0  0  0
   -4.3860   17.0840  -35.4010 O   0  0  0  0  0  0  0  0  0  0  0  0
   -3.8100   16.7180  -33.1910 O   0  0  0  0  0  0  0  0  0  0  0  0
   -3.6450   15.3220  -32.9500 C   0  0  0  0  0  0  0  0  0  0  0  0
   -4.6880   14.8230  -31.9500 C   0  0  0  0  0  0  0  0  0  0  0  0
   -5.3830   15.8960  -31.3770 O   0  0  0  0  0  0  0  0  0  0  0  0
   -6.2823   20.0678  -33.9030 H   0  0  0  0  0  0  0  0  0  0  0  0
   -5.2656   19.4041  -35.2268 H   0  0  0  0  0  0  0  0  0  0  0  0
   -7.0390   19.1183  -35.2268 H   0  0  0  0  0  0  0  0  0  0  0  0
   -6.7701   17.2583  -34.0409 H   0  0  0  0  0  0  0  0  0  0  0  0
   -6.7390   17.5050  -31.9200 H   0  0  0  0  0  0  0  0  0  0  0  0
   -5.1090   17.8860  -31.8870 H   0  0  0  0  0  0  0  0  0  0  0  0
   -8.5034   19.2087  -32.0702 H   0  0  0  0  0  0  0  0  0  0  0  0
   -9.0732   21.5671  -31.4060 H   0  0  0  0  0  0  0  0  0  0  0  0
   -7.9007   24.0739  -30.6873 H   0  0  0  0  0  0  0  0  0  0  0  0
   -3.0950   25.2930  -30.3620 H   0  0  0  0  0  0  0  0  0  0  0  0
   -0.9140   21.2216  -32.0325 H   0  0  0  0  0  0  0  0  0  0  0  0
   -2.3057   20.4577  -31.1795 H   0  0  0  0  0  0  0  0  0  0  0  0
   -4.2552   20.1567  -31.7908 H   0  0  0  0  0  0  0  0  0  0  0  0
   -3.7614   14.7751  -33.8973 H   0  0  0  0  0  0  0  0  0  0  0  0
   -2.6419   15.1497  -32.5327 H   0  0  0  0  0  0  0  0  0  0  0  0
   -5.4021   14.1680  -32.4707 H   0  0  0  0  0  0  0  0  0  0  0  0
   -4.1729   14.2702  -31.1506 H   0  0  0  0  0  0  0  0  0  0  0  0
   -5.4540   15.7060  -30.4050 H   0  0  0  0  0  0  0  0  0  0  0  0
  1  2  1  0
  2  3  1  0
  3  4  1  0
  4  5  2  0
  5  6  1  0
  6  7  2  0
  7  8  1  0
  8  9  2  0
  9 10  1  0
 10 11  1  0
 10 12  2  0
  9 13  1  0
 13 14  1  0
 14 15  2  0
 14 16  1  0
 16 17  1  0
 17 18  1  0
 13 19  1  0
 19 20  2  0
  2 21  1  0
 21 22  2  0
 21 23  1  0
 23 24  1  0
 24 25  1  0
 25 26  1  0
 20  4  1  0
 19  7  1  0
  1 27  1  0
  1 28  1  0
  1 29  1  0
  2 30  1  6
  3 31  1  0
  3 32  1  0
  5 33  1  0
  6 34  1  0
  8 35  1  0
 11 36  1  0
 17 37  1  0
 17 38  1  0
 20 39  1  0
 24 40  1  0
 24 41  1  0
 25 42  1  0
 25 43  1  0
 26 44  1  0
M  CHG  2   3   1  11  -1
M  END
>  <UniqueID>  (61) 
61

>  <SMILES>  (61) 
C[C@H]([NH2+]c1ccc2cc(C([NH-])=O)n(C(=O)OCCl)c2c1)C(=O)OCCO

>  <Energy>  (61) 
78.43752319364171

>  <Genealogy>  (61) 
CC([NH2+]c1ccc2cc(C([NH-])=O)n(C(=O)OCCl)c2c1)C(=O)OCCO (protonated)
C[C@H]([NH2+]c1ccc2cc(C([NH-])=O)n(C(=O)OCCl)c2c1)C(=O)OCCO (chirality)
C[C@H]([NH2+]c1ccc2cc(C([NH-])=O)n(C(=O)OCCl)c2c1)C(=O)OCCO (3D coordinates assigned)
C[C@H]([NH2+]c1ccc2cc(C([NH-])=O)n(C(=O)OCCl)c2c1)C(=O)OCCO (optimized conformer: 78.43752319364171 kcal/mol)

>  <smiles>  (61) 
CC(Nc1ccc2cc(C(N)=O)n(C(=O)OCCl)c2c1)C(=O)OCCO

>  <score_type>  (61) 
oracle

>  <origin>  (61) 
adg

>  <m_score__min__energy>  (61) 
-8.4299999999999997

>  <m_primary>  (61) 
energy

$$$$
63:0
     RDKit          3D

 41 43  0  0  0  0  0  0  0  0999 V2000
   -2.6430   19.8660  -27.3740 C   0  0  0  0  0  0  0  0  0  0  0  0
   -1.9360   20.1840  -28.6110 N   0  0  0  0  0  0  0  0  0  0  0  0
   -0.8790   19.5070  -29.0330 N   0  0  0  0  0  0  0  0  0  0  0  0
   -0.4660   20.0670  -30.1850 C   0  0  0  0  0  0  0  0  0  0  0  0
   -1.2790   21.1380  -30.4990 C   0  0  0  0  0  0  0  0  0  0  0  0
   -2.2070   21.1890  -29.4720 C   0  0  0  0  0  0  0  0  0  0  0  0
   -3.3670   22.1600  -29.3510 C   0  0  2  0  0  0  0  0  0  0  0  0
   -3.9150   22.5700  -30.7020 C   0  0  0  0  0  0  0  0  0  0  0  0
   -3.1180   22.7270  -31.6670 O   0  0  0  0  0  0  0  0  0  0  0  0
   -5.3250   22.7100  -30.9350 N   0  0  0  0  0  0  0  0  0  0  0  0
   -6.0890   23.8250  -30.7800 C   0  0  0  0  0  0  0  0  0  0  0  0
   -5.5750   25.1590  -30.4000 C   0  0  0  0  0  0  0  0  0  0  0  0
   -4.2220   25.5300  -30.6730 N   0  0  0  0  0  0  0  0  0  0  0  0
   -6.3300   25.9820  -29.8180 O   0  0  0  0  0  0  0  0  0  0  0  0
   -7.4200   23.5470  -31.0890 C   0  0  0  0  0  0  0  0  0  0  0  0
   -7.4390   22.2200  -31.4640 C   0  0  0  0  0  0  0  0  0  0  0  0
   -8.4930   21.4230  -31.8980 C   0  0  0  0  0  0  0  0  0  0  0  0
   -8.2120   20.0900  -32.2450 C   0  0  0  0  0  0  0  0  0  0  0  0
   -6.8900   19.5860  -32.1630 C   0  0  0  0  0  0  0  0  0  0  0  0
   -6.6090   18.1610  -32.5450 C   0  0  0  0  0  0  0  0  0  0  0  0
   -7.7470   17.3960  -32.3600 F   0  0  0  0  0  0  0  0  0  0  0  0
   -5.5890   17.6600  -31.7580 F   0  0  0  0  0  0  0  0  0  0  0  0
   -5.8440   20.4280  -31.7240 C   0  0  0  0  0  0  0  0  0  0  0  0
   -6.1580   21.7430  -31.3720 C   0  0  0  0  0  0  0  0  0  0  0  0
   -3.0000   23.3850  -28.4940 C   0  0  0  0  0  0  0  0  0  0  0  0
   -2.1450   23.0050  -27.4730 F   0  0  0  0  0  0  0  0  0  0  0  0
   -4.1240   23.9670  -27.9380 F   0  0  0  0  0  0  0  0  0  0  0  0
   -2.3530   24.3250  -29.2760 F   0  0  0  0  0  0  0  0  0  0  0  0
   -2.0191   20.1466  -26.5126 H   0  0  0  0  0  0  0  0  0  0  0  0
   -3.5897   20.4250  -27.3387 H   0  0  0  0  0  0  0  0  0  0  0  0
   -2.8529   18.7868  -27.3387 H   0  0  0  0  0  0  0  0  0  0  0  0
    0.3894   19.7236  -30.7853 H   0  0  0  0  0  0  0  0  0  0  0  0
   -1.2059   21.8035  -31.3718 H   0  0  0  0  0  0  0  0  0  0  0  0
   -4.1730   21.6235  -28.8290 H   0  0  0  0  0  0  0  0  0  0  0  0
   -3.8660   26.4640  -30.3730 H   0  0  0  0  0  0  0  0  0  0  0  0
   -3.5840   24.9030  -31.2110 H   0  0  0  0  0  0  0  0  0  0  0  0
   -8.2737   24.2392  -31.0433 H   0  0  0  0  0  0  0  0  0  0  0  0
   -9.5152   21.8234  -31.9676 H   0  0  0  0  0  0  0  0  0  0  0  0
   -9.0259   19.4319  -32.5834 H   0  0  0  0  0  0  0  0  0  0  0  0
   -6.3089   18.1240  -33.6026 H   0  0  0  0  0  0  0  0  0  0  0  0
   -4.8100   20.0581  -31.6610 H   0  0  0  0  0  0  0  0  0  0  0  0
  1  2  1  0
  2  3  1  0
  3  4  2  0
  4  5  1  0
  5  6  2  0
  6  7  1  0
  7  8  1  0
  8  9  2  0
  8 10  1  0
 10 11  1  0
 11 12  1  0
 12 13  1  0
 12 14  2  0
 11 15  2  0
 15 16  1  0
 16 17  2  0
 17 18  1  0
 18 19  2  0
 19 20  1  0
 20 21  1  0
 20 22  1  0
 19 23  1  0
 23 24  2  0
  7 25  1  0
 25 26  1  0
 25 27  1  0
 25 28  1  0
  6  2  1  0
 24 10  1  0
 24 16  1  0
  1 29  1  0
  1 30  1  0
  1 31  1  0
  4 32  1  0
  5 33  1  0
  7 34  1  1
 13 35  1  0
 13 36  1  0
 15 37  1  0
 17 38  1  0
 18 39  1  0
 20 40  1  0
 23 41  1  0
M  END
>  <UniqueID>  (62) 
62

>  <SMILES>  (62) 
Cn1nccc1[C@H](C(=O)n1c(C(N)=O)cc2ccc(C(F)F)cc21)C(F)(F)F

>  <Energy>  (62) 
110.16766122841516

>  <Genealogy>  (62) 
Cn1nccc1[C@H](C(=O)n1c(C(N)=O)cc2ccc(C(F)F)cc21)C(F)(F)F (chirality)
Cn1nccc1[C@H](C(=O)n1c(C(N)=O)cc2ccc(C(F)F)cc21)C(F)(F)F (3D coordinates assigned)
Cn1nccc1[C@H](C(=O)n1c(C(N)=O)cc2ccc(C(F)F)cc21)C(F)(F)F (optimized conformer: 110.16766122841516 kcal/mol)

>  <smiles>  (62) 
Cn1nccc1C(C(=O)n1c(C(N)=O)cc2ccc(C(F)F)cc21)C(F)(F)F

>  <score_type>  (62) 
oracle

>  <origin>  (62) 
adg

>  <m_score__min__energy>  (62) 
-8.2799999999999994

>  <m_primary>  (62) 
energy

$$$$
64:0
     RDKit          3D

 45 48  0  0  0  0  0  0  0  0999 V2000
   -1.8430   25.3190  -27.9950 N   0  0  0  0  0  0  0  0  0  0  0  0
   -1.0460   24.3790  -28.7180 C   0  0  0  0  0  0  0  0  0  0  0  0
    0.1810   24.2760  -28.4520 O   0  0  0  0  0  0  0  0  0  0  0  0
   -1.6480   23.4790  -29.7230 C   0  0  0  0  0  0  0  0  0  0  0  0
   -0.9970   22.3600  -30.2340 C   0  0  0  0  0  0  0  0  0  0  0  0
   -1.9070   21.7690  -31.0800 C   0  0  0  0  0  0  0  0  0  0  0  0
   -1.7840   20.6270  -31.8650 C   0  0  0  0  0  0  0  0  0  0  0  0
   -2.8690   20.2620  -32.6760 C   0  0  0  0  0  0  0  0  0  0  0  0
   -4.0540   21.0490  -32.7020 C   0  0  0  0  0  0  0  0  0  0  0  0
   -5.1780   20.7030  -33.5350 N   0  0  0  0  0  0  0  0  0  0  0  0
   -6.1230   19.6170  -33.2360 C   0  0  2  0  0  0  0  0  0  0  0  0
   -5.9130   19.0600  -31.8230 C   0  0  0  0  0  0  0  0  0  0  0  0
   -6.2180   17.5710  -31.9200 C   0  0  0  0  0  0  0  0  0  0  0  0
   -6.1360   17.2450  -33.3320 N   0  0  0  0  0  0  0  0  0  0  0  0
   -6.1680   15.8950  -33.8270 C   0  0  0  0  0  0  0  0  0  0  0  0
   -7.2440   15.4190  -34.2790 O   0  0  0  0  0  0  0  0  0  0  0  0
   -4.9440   15.0230  -33.7620 C   0  0  0  0  0  0  0  0  0  0  0  0
   -4.5400   14.6210  -32.3520 C   0  0  0  0  0  0  0  0  0  0  0  0
   -3.7220   15.6530  -33.1070 C   0  0  0  0  0  0  0  0  0  0  0  0
   -5.9410   18.4160  -34.1700 C   0  0  0  0  0  0  0  0  0  0  0  0
   -4.1390   22.1980  -31.8840 C   0  0  0  0  0  0  0  0  0  0  0  0
   -3.0490   22.5260  -31.0680 C   0  0  0  0  0  0  0  0  0  0  0  0
   -2.9050   23.5860  -30.2390 N   0  0  0  0  0  0  0  0  0  0  0  0
   -3.8410   24.6600  -30.0480 C   0  0  0  0  0  0  0  0  0  0  0  0
   -3.8590   25.6370  -30.8430 O   0  0  0  0  0  0  0  0  0  0  0  0
   -4.7360   24.6350  -28.9860 O   0  0  0  0  0  0  0  0  0  0  0  0
   -1.3940   25.9720  -27.3160 H   0  0  0  0  0  0  0  0  0  0  0  0
   -2.8840   25.3110  -28.0680 H   0  0  0  0  0  0  0  0  0  0  0  0
    0.0252   22.0210  -30.0097 H   0  0  0  0  0  0  0  0  0  0  0  0
   -0.8620   20.0272  -31.8502 H   0  0  0  0  0  0  0  0  0  0  0  0
   -2.8028   19.3575  -33.2985 H   0  0  0  0  0  0  0  0  0  0  0  0
   -5.3150   21.2610  -34.4090 H   0  0  0  0  0  0  0  0  0  0  0  0
   -7.1184   20.0695  -33.3564 H   0  0  0  0  0  0  0  0  0  0  0  0
   -4.8741   19.2187  -31.4982 H   0  0  0  0  0  0  0  0  0  0  0  0
   -6.5600   19.5609  -31.0878 H   0  0  0  0  0  0  0  0  0  0  0  0
   -5.4791   16.9900  -31.3486 H   0  0  0  0  0  0  0  0  0  0  0  0
   -7.2079   17.3312  -31.5046 H   0  0  0  0  0  0  0  0  0  0  0  0
   -5.1276   14.4968  -34.7104 H   0  0  0  0  0  0  0  0  0  0  0  0
   -5.1568   14.9287  -31.4948 H   0  0  0  0  0  0  0  0  0  0  0  0
   -4.3162   13.6683  -31.8498 H   0  0  0  0  0  0  0  0  0  0  0  0
   -3.7467   16.7082  -32.7972 H   0  0  0  0  0  0  0  0  0  0  0  0
   -2.6611   15.7575  -33.3784 H   0  0  0  0  0  0  0  0  0  0  0  0
   -4.9302   18.4152  -34.6039 H   0  0  0  0  0  0  0  0  0  0  0  0
   -6.6489   18.4403  -35.0116 H   0  0  0  0  0  0  0  0  0  0  0  0
   -5.0441   22.8231  -31.8880 H   0  0  0  0  0  0  0  0  0  0  0  0
  1  2  1  0
  2  3  2  0
  2  4  1  0
  4  5  2  0
  5  6  1  0
  6  7  2  0
  7  8  1  0
  8  9  2  0
  9 10  1  0
 10 11  1  0
 11 12  1  0
 12 13  1  0
 13 14  1  0
 14 15  1  0
 15 16  2  0
 15 17  1  0
 17 18  1  0
 18 19  1  0
 14 20  1  0
  9 21  1  0
 21 22  2  0
 22 23  1  0
 23 24  1  0
 24 25  2  0
 24 26  1  0
 23  4  1  0
 22  6  1  0
 20 11  1  0
 19 17  1  0
  1 27  1  0
  1 28  1  0
  5 29  1  0
  7 30  1  0
  8 31  1  0
 10 32  1  0
 11 33  1  1
 12 34  1  0
 12 35  1  0
 13 36  1  0
 13 37  1  0
 17 38  1  0
 18 39  1  0
 18 40  1  0
 19 41  1  0
 19 42  1  0
 20 43  1  0
 20 44  1  0
 21 45  1  0
M  CHG  1  26  -1
M  END
>  <UniqueID>  (63) 
63

>  <SMILES>  (63) 
NC(=O)c1cc2ccc(N[C@@H]3CCN(C(=O)C4CC4)C3)cc2n1C(=O)[O-]

>  <Energy>  (63) 
350.8615742494649

>  <Genealogy>  (63) 
NC(=O)c1cc2ccc(NC3CCN(C(=O)C4CC4)C3)cc2n1C(=O)[O-] (protonated)
NC(=O)c1cc2ccc(N[C@@H]3CCN(C(=O)C4CC4)C3)cc2n1C(=O)[O-] (chirality)
NC(=O)c1cc2ccc(N[C@@H]3CCN(C(=O)C4CC4)C3)cc2n1C(=O)[O-] (3D coordinates assigned)
NC(=O)c1cc2ccc(N[C@@H]3CCN(C(=O)C4CC4)C3)cc2n1C(=O)[O-] (nonaromatic ring conformer: 350.8615742494649 kcal/mol)

>  <smiles>  (63) 
NC(=O)c1cc2ccc(NC3CCN(C(=O)C4CC4)C3)cc2n1C(=O)O

>  <score_type>  (63) 
oracle

>  <origin>  (63) 
adg

>  <m_score__min__energy>  (63) 
-9.9800000000000004

>  <m_primary>  (63) 
energy

$$$$
65:0
     RDKit          3D

 64 65  0  0  0  0  0  0  0  0999 V2000
   -4.1400   23.0020  -28.1470 C   0  0  0  0  0  0  0  0  0  0  0  0
   -3.0880   22.1610  -28.8910 C   0  0  0  0  0  0  0  0  0  0  0  0
   -1.8150   22.9880  -29.1540 C   0  0  0  0  0  0  0  0  0  0  0  0
   -2.7200   20.9450  -28.0270 C   0  0  0  0  0  0  0  0  0  0  0  0
   -3.6320   21.6570  -30.1190 O   0  0  0  0  0  0  0  0  0  0  0  0
   -4.0600   22.4210  -31.2150 C   0  0  0  0  0  0  0  0  0  0  0  0
   -3.2750   22.7030  -32.1590 O   0  0  0  0  0  0  0  0  0  0  0  0
   -5.4080   22.9120  -31.2420 N   0  0  0  0  0  0  0  0  0  0  0  0
   -5.8610   24.1460  -30.8800 C   0  0  0  0  0  0  0  0  0  0  0  0
   -5.0220   25.3040  -30.5060 C   0  0  0  0  0  0  0  0  0  0  0  0
   -3.6000   25.1990  -30.4760 N   0  0  0  0  0  0  0  0  0  0  0  0
   -5.5650   26.4120  -30.2520 O   0  0  0  0  0  0  0  0  0  0  0  0
   -7.2510   24.2010  -30.9790 C   0  0  0  0  0  0  0  0  0  0  0  0
   -7.6350   22.9540  -31.4220 C   0  0  0  0  0  0  0  0  0  0  0  0
   -8.9040   22.4440  -31.6740 C   0  0  0  0  0  0  0  0  0  0  0  0
   -9.0070   21.1020  -32.0800 C   0  0  0  0  0  0  0  0  0  0  0  0
   -7.8440   20.2950  -32.2200 C   0  0  0  0  0  0  0  0  0  0  0  0
   -7.9260   18.9120  -32.6140 N   0  0  0  0  0  0  0  0  0  0  0  0
   -7.3440   17.8020  -31.8610 C   0  0  0  0  0  0  0  0  0  0  0  0
   -6.4000   17.0060  -32.7160 C   0  0  0  0  0  0  0  0  0  0  0  0
   -6.5940   16.9540  -33.9620 O   0  0  0  0  0  0  0  0  0  0  0  0
   -5.3270   16.2620  -32.1220 N   0  0  0  0  0  0  0  0  0  0  0  0
   -4.3660   15.5280  -32.9440 C   0  0  0  0  0  0  0  0  0  0  0  0
   -3.5840   16.4820  -33.8620 C   0  0  0  0  0  0  0  0  0  0  0  0
   -2.5950   17.4280  -33.1260 C   0  0  0  0  0  0  0  0  0  0  0  0
   -2.7810   18.9050  -33.3070 N   0  0  0  0  0  0  0  0  0  0  0  0
   -4.1380   19.2290  -33.8160 C   0  0  0  0  0  0  0  0  0  0  0  0
   -2.6360   19.5410  -31.9730 C   0  0  0  0  0  0  0  0  0  0  0  0
   -1.7560   19.4850  -34.2080 C   0  0  0  0  0  0  0  0  0  0  0  0
   -6.5760   20.8530  -31.9540 C   0  0  0  0  0  0  0  0  0  0  0  0
   -6.5040   22.1970  -31.5700 C   0  0  0  0  0  0  0  0  0  0  0  0
   -3.9990   22.8893  -27.0619 H   0  0  0  0  0  0  0  0  0  0  0  0
   -4.0257   24.0605  -28.4236 H   0  0  0  0  0  0  0  0  0  0  0  0
   -5.1474   22.6574  -28.4236 H   0  0  0  0  0  0  0  0  0  0  0  0
   -1.3636   23.2813  -28.1947 H   0  0  0  0  0  0  0  0  0  0  0  0
   -1.0970   22.3834  -29.7275 H   0  0  0  0  0  0  0  0  0  0  0  0
   -2.0756   23.8898  -29.7275 H   0  0  0  0  0  0  0  0  0  0  0  0
   -2.8011   21.2130  -26.9632 H   0  0  0  0  0  0  0  0  0  0  0  0
   -3.4074   20.1155  -28.2496 H   0  0  0  0  0  0  0  0  0  0  0  0
   -1.6881   20.6359  -28.2496 H   0  0  0  0  0  0  0  0  0  0  0  0
   -3.0890   24.6460  -31.2010 H   0  0  0  0  0  0  0  0  0  0  0  0
   -7.9024   25.0578  -30.7517 H   0  0  0  0  0  0  0  0  0  0  0  0
   -9.8000   23.0716  -31.5591 H   0  0  0  0  0  0  0  0  0  0  0  0
   -9.9970   20.6717  -32.2916 H   0  0  0  0  0  0  0  0  0  0  0  0
   -8.4800   18.6690  -33.4660 H   0  0  0  0  0  0  0  0  0  0  0  0
   -6.7947   18.2030  -30.9965 H   0  0  0  0  0  0  0  0  0  0  0  0
   -8.1574   17.1403  -31.5285 H   0  0  0  0  0  0  0  0  0  0  0  0
   -5.2500   16.2400  -31.0810 H   0  0  0  0  0  0  0  0  0  0  0  0
   -3.6588   15.0011  -32.2866 H   0  0  0  0  0  0  0  0  0  0  0  0
   -4.9166   14.8112  -33.5710 H   0  0  0  0  0  0  0  0  0  0  0  0
   -3.0093   15.8749  -34.5769 H   0  0  0  0  0  0  0  0  0  0  0  0
   -4.3308   17.1292  -34.3451 H   0  0  0  0  0  0  0  0  0  0  0  0
   -2.6761   17.2157  -32.0497 H   0  0  0  0  0  0  0  0  0  0  0  0
   -1.6151   17.2129  -33.5772 H   0  0  0  0  0  0  0  0  0  0  0  0
   -4.8188   19.3915  -32.9674 H   0  0  0  0  0  0  0  0  0  0  0  0
   -4.0916   20.1413  -34.4288 H   0  0  0  0  0  0  0  0  0  0  0  0
   -4.5088   18.3941  -34.4288 H   0  0  0  0  0  0  0  0  0  0  0  0
   -2.8073   18.7897  -31.1880 H   0  0  0  0  0  0  0  0  0  0  0  0
   -1.6210   19.9526  -31.8714 H   0  0  0  0  0  0  0  0  0  0  0  0
   -3.3723   20.3519  -31.8714 H   0  0  0  0  0  0  0  0  0  0  0  0
   -0.9541   19.9388  -33.6071 H   0  0  0  0  0  0  0  0  0  0  0  0
   -1.3344   18.6916  -34.8426 H   0  0  0  0  0  0  0  0  0  0  0  0
   -2.2191   20.2549  -34.8426 H   0  0  0  0  0  0  0  0  0  0  0  0
   -5.6638   20.2452  -32.0463 H   0  0  0  0  0  0  0  0  0  0  0  0
  1  2  1  0
  2  3  1  0
  2  4  1  0
  2  5  1  0
  5  6  1  0
  6  7  2  0
  6  8  1  0
  8  9  1  0
  9 10  1  0
 10 11  1  0
 10 12  2  0
  9 13  2  0
 13 14  1  0
 14 15  2  0
 15 16  1  0
 16 17  2  0
 17 18  1  0
 18 19  1  0
 19 20  1  0
 20 21  2  0
 20 22  1  0
 22 23  1  0
 23 24  1  0
 24 25  1  0
 25 26  1  0
 26 27  1  0
 26 28  1  0
 26 29  1  0
 17 30  1  0
 30 31  2  0
 31  8  1  0
 31 14  1  0
  1 32  1  0
  1 33  1  0
  1 34  1  0
  3 35  1  0
  3 36  1  0
  3 37  1  0
  4 38  1  0
  4 39  1  0
  4 40  1  0
 11 41  1  0
 13 42  1  0
 15 43  1  0
 16 44  1  0
 18 45  1  0
 19 46  1  0
 19 47  1  0
 22 48  1  0
 23 49  1  0
 23 50  1  0
 24 51  1  0
 24 52  1  0
 25 53  1  0
 25 54  1  0
 27 55  1  0
 27 56  1  0
 27 57  1  0
 28 58  1  0
 28 59  1  0
 28 60  1  0
 29 61  1  0
 29 62  1  0
 29 63  1  0
 30 64  1  0
M  CHG  2  11  -1  26   1
M  END
>  <UniqueID>  (64) 
64

>  <SMILES>  (64) 
CC(C)(C)OC(=O)n1c(C([NH-])=O)cc2ccc(NCC(=O)NCCC[N+](C)(C)C)cc21

>  <Energy>  (64) 
102.48517328955968

>  <Genealogy>  (64) 
CC(C)(C)OC(=O)n1c(C([NH-])=O)cc2ccc(NCC(=O)NCCC[N+](C)(C)C)cc21 (protonated)
CC(C)(C)OC(=O)n1c(C([NH-])=O)cc2ccc(NCC(=O)NCCC[N+](C)(C)C)cc21 (3D coordinates assigned)
CC(C)(C)OC(=O)n1c(C([NH-])=O)cc2ccc(NCC(=O)NCCC[N+](C)(C)C)cc21 (optimized conformer: 102.48517328955968 kcal/mol)

>  <smiles>  (64) 
CC(C)(C)OC(=O)n1c(C(N)=O)cc2ccc(NCC(=O)NCCC[N+](C)(C)C)cc21

>  <score_type>  (64) 
oracle

>  <origin>  (64) 
adg

>  <m_score__min__energy>  (64) 
-9.8699999999999992

>  <m_primary>  (64) 
energy

$$$$
66:0
     RDKit          3D

 36 37  0  0  0  0  0  0  0  0999 V2000
   -2.9370   24.8100  -29.3900 N   0  0  0  0  0  0  0  0  0  0  0  0
   -3.8450   24.6570  -30.4750 C   0  0  0  0  0  0  0  0  0  0  0  0
   -4.4070   25.6760  -30.9580 O   0  0  0  0  0  0  0  0  0  0  0  0
   -4.1030   23.3290  -31.0670 C   0  0  0  0  0  0  0  0  0  0  0  0
   -3.0970   22.4140  -31.3770 C   0  0  0  0  0  0  0  0  0  0  0  0
   -3.7520   21.2900  -31.8280 C   0  0  0  0  0  0  0  0  0  0  0  0
   -3.2460   20.0800  -32.2900 C   0  0  0  0  0  0  0  0  0  0  0  0
   -4.1610   19.1050  -32.7220 C   0  0  0  0  0  0  0  0  0  0  0  0
   -5.5590   19.3490  -32.6830 C   0  0  0  0  0  0  0  0  0  0  0  0
   -6.5130   18.2940  -33.2020 C   0  0  1  0  0  0  0  0  0  0  0  0
   -5.5190   16.4840  -33.8160 I   0  0  0  0  0  0  0  0  0  0  0  0
   -7.6530   18.0130  -32.2150 C   0  0  0  0  0  0  0  0  0  0  0  0
   -8.9950   19.1850  -32.3480 Cl  0  0  0  0  0  0  0  0  0  0  0  0
   -6.0310   20.6000  -32.2190 C   0  0  0  0  0  0  0  0  0  0  0  0
   -5.0970   21.5450  -31.7850 C   0  0  0  0  0  0  0  0  0  0  0  0
   -5.3280   22.7930  -31.3240 N   0  0  0  0  0  0  0  0  0  0  0  0
   -6.6140   23.4240  -31.2290 C   0  0  0  0  0  0  0  0  0  0  0  0
   -7.2400   23.7130  -32.2840 O   0  0  0  0  0  0  0  0  0  0  0  0
   -7.1300   23.8890  -29.8950 C   0  0  0  0  0  0  0  0  0  0  0  0
   -6.9180   25.3950  -29.6830 C   0  0  0  0  0  0  0  0  0  0  0  0
   -5.9520   25.6410  -28.6130 N   0  0  0  0  0  0  0  0  0  0  0  0
   -2.7360   25.7520  -28.9850 H   0  0  0  0  0  0  0  0  0  0  0  0
   -2.0109   22.5595  -31.2815 H   0  0  0  0  0  0  0  0  0  0  0  0
   -2.1625   19.8918  -32.3165 H   0  0  0  0  0  0  0  0  0  0  0  0
   -3.7890   18.1395  -33.0955 H   0  0  0  0  0  0  0  0  0  0  0  0
   -6.9646   18.7175  -34.1113 H   0  0  0  0  0  0  0  0  0  0  0  0
   -8.0469   17.0050  -32.4119 H   0  0  0  0  0  0  0  0  0  0  0  0
   -7.2387   18.1004  -31.1997 H   0  0  0  0  0  0  0  0  0  0  0  0
   -7.1079   20.8234  -32.2004 H   0  0  0  0  0  0  0  0  0  0  0  0
   -8.2066   23.6713  -29.8364 H   0  0  0  0  0  0  0  0  0  0  0  0
   -6.5701   23.3561  -29.1124 H   0  0  0  0  0  0  0  0  0  0  0  0
   -6.5430   25.8407  -30.6161 H   0  0  0  0  0  0  0  0  0  0  0  0
   -7.8792   25.8485  -29.3995 H   0  0  0  0  0  0  0  0  0  0  0  0
   -6.0970   24.9380  -27.8530 H   0  0  0  0  0  0  0  0  0  0  0  0
   -6.0880   26.6000  -28.2170 H   0  0  0  0  0  0  0  0  0  0  0  0
   -4.9760   25.5450  -28.9800 H   0  0  0  0  0  0  0  0  0  0  0  0
  1  2  1  0
  2  3  2  0
  2  4  1  0
  4  5  2  0
  5  6  1  0
  6  7  2  0
  7  8  1  0
  8  9  2  0
  9 10  1  0
 10 11  1  0
 10 12  1  0
 12 13  1  0
  9 14  1  0
 14 15  2  0
 15 16  1  0
 16 17  1  0
 17 18  2  0
 17 19  1  0
 19 20  1  0
 20 21  1  0
 16  4  1  0
 15  6  1  0
  1 22  1  0
  5 23  1  0
  7 24  1  0
  8 25  1  0
 10 26  1  6
 12 27  1  0
 12 28  1  0
 14 29  1  0
 19 30  1  0
 19 31  1  0
 20 32  1  0
 20 33  1  0
 21 34  1  0
 21 35  1  0
 21 36  1  0
M  CHG  2   1  -1  21   1
M  END
>  <UniqueID>  (65) 
65

>  <SMILES>  (65) 
[NH-]C(=O)c1cc2ccc([C@@H](I)CCl)cc2n1C(=O)CC[NH3+]

>  <Energy>  (65) 
72.4892355451578

>  <Genealogy>  (65) 
[NH-]C(=O)c1cc2ccc(C(I)CCl)cc2n1C(=O)CC[NH3+] (protonated)
[NH-]C(=O)c1cc2ccc([C@@H](I)CCl)cc2n1C(=O)CC[NH3+] (chirality)
[NH-]C(=O)c1cc2ccc([C@@H](I)CCl)cc2n1C(=O)CC[NH3+] (3D coordinates assigned)
[NH-]C(=O)c1cc2ccc([C@@H](I)CCl)cc2n1C(=O)CC[NH3+] (optimized conformer: 72.4892355451578 kcal/mol)

>  <smiles>  (65) 
NCCC(=O)n1c(C(N)=O)cc2ccc(C(I)CCl)cc21

>  <score_type>  (65) 
oracle

>  <origin>  (65) 
adg

>  <m_score__min__energy>  (65) 
-10.1

>  <m_primary>  (65) 
energy

$$$$
67:0
     RDKit          3D

 33 34  0  0  0  0  0  0  0  0999 V2000
   -5.6500   18.2110  -34.6610 N   0  0  0  0  0  0  0  0  0  0  0  0
   -6.4450   18.3160  -33.8280 C   0  0  0  0  0  0  0  0  0  0  0  0
   -7.4530   18.4490  -32.7710 C   0  0  0  0  0  0  0  0  0  0  0  0
   -7.4860   19.8640  -32.2690 C   0  0  0  0  0  0  0  0  0  0  0  0
   -8.7260   20.5270  -32.0920 C   0  0  0  0  0  0  0  0  0  0  0  0
   -8.7690   21.8560  -31.6380 C   0  0  0  0  0  0  0  0  0  0  0  0
   -7.5610   22.4990  -31.3880 C   0  0  0  0  0  0  0  0  0  0  0  0
   -7.3160   23.7710  -30.9220 C   0  0  0  0  0  0  0  0  0  0  0  0
   -5.9290   23.8790  -30.8540 C   0  0  0  0  0  0  0  0  0  0  0  0
   -5.2270   25.1230  -30.4770 C   0  0  0  0  0  0  0  0  0  0  0  0
   -3.8890   25.3440  -30.9210 N   0  0  0  0  0  0  0  0  0  0  0  0
   -5.7800   25.9770  -29.7350 O   0  0  0  0  0  0  0  0  0  0  0  0
   -5.3380   22.7180  -31.2560 N   0  0  0  0  0  0  0  0  0  0  0  0
   -3.9360   22.4000  -31.2550 C   0  0  0  0  0  0  0  0  0  0  0  0
   -3.2320   22.6490  -32.2710 O   0  0  0  0  0  0  0  0  0  0  0  0
   -3.3660   21.7920  -30.1340 O   0  0  0  0  0  0  0  0  0  0  0  0
   -2.2130   22.3110  -29.4760 C   0  0  0  0  0  0  0  0  0  0  0  0
   -1.9200   23.6010  -29.9590 O   0  0  0  0  0  0  0  0  0  0  0  0
   -1.2750   24.5350  -28.6850 P   0  0  0  0  0  0  0  0  0  0  0  0
   -1.9410   24.1290  -27.3920 O   0  0  0  0  0  0  0  0  0  0  0  0
   -1.5700   26.1780  -28.9620 O   0  0  0  0  0  0  0  0  0  0  0  0
    0.3920   24.2780  -28.5480 O   0  0  0  0  0  0  0  0  0  0  0  0
   -6.3510   21.8830  -31.5820 C   0  0  0  0  0  0  0  0  0  0  0  0
   -6.2790   20.5540  -32.0140 C   0  0  0  0  0  0  0  0  0  0  0  0
   -8.4411   18.1822  -33.1741 H   0  0  0  0  0  0  0  0  0  0  0  0
   -7.1957   17.7764  -31.9395 H   0  0  0  0  0  0  0  0  0  0  0  0
   -9.6639   19.9960  -32.3122 H   0  0  0  0  0  0  0  0  0  0  0  0
   -9.7283   22.3721  -31.4850 H   0  0  0  0  0  0  0  0  0  0  0  0
   -8.0582   24.5392  -30.6591 H   0  0  0  0  0  0  0  0  0  0  0  0
   -3.0860   25.2830  -30.2560 H   0  0  0  0  0  0  0  0  0  0  0  0
   -2.4038   22.3623  -28.3939 H   0  0  0  0  0  0  0  0  0  0  0  0
   -1.3569   21.6493  -29.6741 H   0  0  0  0  0  0  0  0  0  0  0  0
   -5.3067   20.0583  -32.1518 H   0  0  0  0  0  0  0  0  0  0  0  0
  1  2  3  0
  2  3  1  0
  3  4  1  0
  4  5  2  0
  5  6  1  0
  6  7  2  0
  7  8  1  0
  8  9  2  0
  9 10  1  0
 10 11  1  0
 10 12  2  0
  9 13  1  0
 13 14  1  0
 14 15  2  0
 14 16  1  0
 16 17  1  0
 17 18  1  0
 18 19  1  0
 19 20  2  0
 19 21  1  0
 19 22  1  0
 13 23  1  0
 23 24  2  0
 24  4  1  0
 23  7  1  0
  3 25  1  0
  3 26  1  0
  5 27  1  0
  6 28  1  0
  8 29  1  0
 11 30  1  0
 17 31  1  0
 17 32  1  0
 24 33  1  0
M  CHG  3  11  -1  21  -1  22  -1
M  END
>  <UniqueID>  (66) 
66

>  <SMILES>  (66) 
N#CCc1ccc2cc(C([NH-])=O)n(C(=O)OCOP(=O)([O-])[O-])c2c1

>  <Energy>  (66) 
67.83671666804003

>  <Genealogy>  (66) 
N#CCc1ccc2cc(C([NH-])=O)n(C(=O)OCOP(=O)([O-])[O-])c2c1 (protonated)
N#CCc1ccc2cc(C([NH-])=O)n(C(=O)OCOP(=O)([O-])[O-])c2c1 (3D coordinates assigned)
N#CCc1ccc2cc(C([NH-])=O)n(C(=O)OCOP(=O)([O-])[O-])c2c1 (optimized conformer: 67.83671666804003 kcal/mol)

>  <smiles>  (66) 
N#CCc1ccc2cc(C(N)=O)n(C(=O)OCOP(=O)(O)O)c2c1

>  <score_type>  (66) 
oracle

>  <origin>  (66) 
adg

>  <m_score__min__energy>  (66) 
-13.949999999999999

>  <m_primary>  (66) 
energy

$$$$
68:0
     RDKit          3D

 43 44  0  0  0  0  0  0  0  0999 V2000
   -5.7710   17.9470  -34.6210 C   0  0  0  0  0  0  0  0  0  0  0  0
   -6.5800   18.1620  -33.4150 N   0  0  0  0  0  0  0  0  0  0  0  0
   -7.2220   17.0050  -32.7770 C   0  0  0  0  0  0  0  0  0  0  0  0
   -6.7390   19.4940  -32.8600 C   0  0  0  0  0  0  0  0  0  0  0  0
   -8.0170   20.1250  -32.8340 C   0  0  0  0  0  0  0  0  0  0  0  0
   -8.1780   21.4160  -32.3040 C   0  0  0  0  0  0  0  0  0  0  0  0
   -7.0560   22.0590  -31.7960 C   0  0  0  0  0  0  0  0  0  0  0  0
   -6.9240   23.3180  -31.2530 C   0  0  0  0  0  0  0  0  0  0  0  0
   -5.5730   23.4420  -30.9330 C   0  0  0  0  0  0  0  0  0  0  0  0
   -4.9920   24.6340  -30.2790 C   0  0  0  0  0  0  0  0  0  0  0  0
   -3.8720   25.3110  -30.8450 N   0  0  0  0  0  0  0  0  0  0  0  0
   -5.4730   25.0450  -29.1890 O   0  0  0  0  0  0  0  0  0  0  0  0
   -4.9000   22.3040  -31.2620 N   0  0  0  0  0  0  0  0  0  0  0  0
   -3.4900   22.0570  -31.1590 C   0  0  0  0  0  0  0  0  0  0  0  0
   -2.9390   21.2450  -31.9480 O   0  0  0  0  0  0  0  0  0  0  0  0
   -2.6780   22.7410  -30.1430 C   0  0  0  0  0  0  0  0  0  0  0  0
   -1.7790   23.5530  -30.4950 O   0  0  0  0  0  0  0  0  0  0  0  0
   -2.9070   22.4800  -28.7890 O   0  0  0  0  0  0  0  0  0  0  0  0
   -2.0080   22.8890  -27.7630 C   0  0  0  0  0  0  0  0  0  0  0  0
   -2.0320   24.4160  -27.6110 C   0  0  2  0  0  0  0  0  0  0  0  0
   -3.1970   24.9260  -28.2050 O   0  0  0  0  0  0  0  0  0  0  0  0
   -0.8140   25.0750  -28.2800 C   0  0  0  0  0  0  0  0  0  0  0  0
   -1.2060   25.9680  -29.2880 O   0  0  0  0  0  0  0  0  0  0  0  0
   -5.8210   21.4700  -31.7950 C   0  0  0  0  0  0  0  0  0  0  0  0
   -5.6230   20.1960  -32.3340 C   0  0  0  0  0  0  0  0  0  0  0  0
   -4.7455   17.6745  -34.3309 H   0  0  0  0  0  0  0  0  0  0  0  0
   -6.2113   17.1347  -35.2179 H   0  0  0  0  0  0  0  0  0  0  0  0
   -5.7499   18.8707  -35.2179 H   0  0  0  0  0  0  0  0  0  0  0  0
   -7.1637   17.1101  -31.6836 H   0  0  0  0  0  0  0  0  0  0  0  0
   -8.2769   16.9550  -33.0848 H   0  0  0  0  0  0  0  0  0  0  0  0
   -6.7062   16.0835  -33.0848 H   0  0  0  0  0  0  0  0  0  0  0  0
   -8.8916   19.5922  -33.2356 H   0  0  0  0  0  0  0  0  0  0  0  0
   -9.1639   21.9037  -32.2916 H   0  0  0  0  0  0  0  0  0  0  0  0
   -7.7162   24.0664  -31.1037 H   0  0  0  0  0  0  0  0  0  0  0  0
   -2.9360   25.2800  -30.3840 H   0  0  0  0  0  0  0  0  0  0  0  0
   -2.3077   22.4249  -26.8118 H   0  0  0  0  0  0  0  0  0  0  0  0
   -0.9896   22.5723  -28.0326 H   0  0  0  0  0  0  0  0  0  0  0  0
   -2.0068   24.6443  -26.5352 H   0  0  0  0  0  0  0  0  0  0  0  0
   -3.1820   24.6470  -29.1580 H   0  0  0  0  0  0  0  0  0  0  0  0
   -0.2405   25.6239  -27.5185 H   0  0  0  0  0  0  0  0  0  0  0  0
   -0.1995   24.2850  -28.7364 H   0  0  0  0  0  0  0  0  0  0  0  0
   -2.0150   25.5810  -29.7120 H   0  0  0  0  0  0  0  0  0  0  0  0
   -4.6198   19.7450  -32.3504 H   0  0  0  0  0  0  0  0  0  0  0  0
  1  2  1  0
  2  3  1  0
  2  4  1  0
  4  5  2  0
  5  6  1  0
  6  7  2  0
  7  8  1  0
  8  9  2  0
  9 10  1  0
 10 11  1  0
 10 12  2  0
  9 13  1  0
 13 14  1  0
 14 15  2  0
 14 16  1  0
 16 17  2  0
 16 18  1  0
 18 19  1  0
 19 20  1  0
 20 21  1  0
 20 22  1  0
 22 23  1  0
 13 24  1  0
 24 25  2  0
 25  4  1  0
 24  7  1  0
  1 26  1  0
  1 27  1  0
  1 28  1  0
  3 29  1  0
  3 30  1  0
  3 31  1  0
  5 32  1  0
  6 33  1  0
  8 34  1  0
 11 35  1  0
 19 36  1  0
 19 37  1  0
 20 38  1  1
 21 39  1  0
 22 40  1  0
 22 41  1  0
 23 42  1  0
 25 43  1  0
M  CHG  1  11  -1
M  END
>  <UniqueID>  (67) 
67

>  <SMILES>  (67) 
CN(C)c1ccc2cc(C([NH-])=O)n(C(=O)C(=O)OC[C@H](O)CO)c2c1

>  <Energy>  (67) 
77.9574870328533

>  <Genealogy>  (67) 
CN(C)c1ccc2cc(C([NH-])=O)n(C(=O)C(=O)OCC(O)CO)c2c1 (protonated)
CN(C)c1ccc2cc(C([NH-])=O)n(C(=O)C(=O)OC[C@H](O)CO)c2c1 (chirality)
CN(C)c1ccc2cc(C([NH-])=O)n(C(=O)C(=O)OC[C@H](O)CO)c2c1 (3D coordinates assigned)
CN(C)c1ccc2cc(C([NH-])=O)n(C(=O)C(=O)OC[C@H](O)CO)c2c1 (optimized conformer: 77.9574870328533 kcal/mol)

>  <smiles>  (67) 
CN(C)c1ccc2cc(C(N)=O)n(C(=O)C(=O)OCC(O)CO)c2c1

>  <score_type>  (67) 
oracle

>  <origin>  (67) 
adg

>  <m_score__min__energy>  (67) 
-9.5199999999999996

>  <m_primary>  (67) 
energy

$$$$
69:0
     RDKit          3D

 38 39  0  0  0  0  0  0  0  0999 V2000
   -6.8570   17.2120  -33.4790 C   0  0  0  0  0  0  0  0  0  0  0  0
   -6.2940   18.0880  -32.4360 N   0  0  0  0  0  0  0  0  0  0  0  0
   -6.1270   17.3210  -31.1910 C   0  0  0  0  0  0  0  0  0  0  0  0
   -7.1650   19.2600  -32.1970 C   0  0  0  0  0  0  0  0  0  0  0  0
   -6.5240   20.5690  -32.7040 C   0  0  0  0  0  0  0  0  0  0  0  0
   -5.2330   20.3610  -33.3840 N   0  0  0  0  0  0  0  0  0  0  0  0
   -4.1220   20.8010  -32.5730 C   0  0  0  0  0  0  0  0  0  0  0  0
   -2.9460   20.0140  -32.4860 C   0  0  0  0  0  0  0  0  0  0  0  0
   -1.8530   20.4380  -31.7130 C   0  0  0  0  0  0  0  0  0  0  0  0
   -1.9600   21.6550  -31.0470 C   0  0  0  0  0  0  0  0  0  0  0  0
   -1.0640   22.2900  -30.2170 C   0  0  0  0  0  0  0  0  0  0  0  0
   -1.6950   23.4700  -29.8260 C   0  0  0  0  0  0  0  0  0  0  0  0
   -1.0420   24.5010  -28.9940 C   0  0  0  0  0  0  0  0  0  0  0  0
   -1.5540   25.8300  -28.9390 N   0  0  0  0  0  0  0  0  0  0  0  0
    0.0120   24.2190  -28.3620 O   0  0  0  0  0  0  0  0  0  0  0  0
   -2.9360   23.5570  -30.3840 N   0  0  0  0  0  0  0  0  0  0  0  0
   -3.9340   24.5640  -30.1530 C   0  0  0  0  0  0  0  0  0  0  0  0
   -3.8770   25.6670  -30.7570 O   0  0  0  0  0  0  0  0  0  0  0  0
   -4.9860   24.3210  -29.2790 O   0  0  0  0  0  0  0  0  0  0  0  0
   -3.0810   22.4390  -31.1310 C   0  0  0  0  0  0  0  0  0  0  0  0
   -4.1930   22.0310  -31.8760 C   0  0  0  0  0  0  0  0  0  0  0  0
   -7.3939   16.3767  -33.0057 H   0  0  0  0  0  0  0  0  0  0  0  0
   -7.5542   17.7884  -34.1049 H   0  0  0  0  0  0  0  0  0  0  0  0
   -6.0431   16.8172  -34.1049 H   0  0  0  0  0  0  0  0  0  0  0  0
   -6.2720   17.9871  -30.3277 H   0  0  0  0  0  0  0  0  0  0  0  0
   -6.8697   16.5102  -31.1574 H   0  0  0  0  0  0  0  0  0  0  0  0
   -5.1145   16.8924  -31.1574 H   0  0  0  0  0  0  0  0  0  0  0  0
   -8.1198   19.1058  -32.7211 H   0  0  0  0  0  0  0  0  0  0  0  0
   -7.3178   19.3544  -31.1118 H   0  0  0  0  0  0  0  0  0  0  0  0
   -7.2181   21.0465  -33.4112 H   0  0  0  0  0  0  0  0  0  0  0  0
   -6.3305   21.1993  -31.8235 H   0  0  0  0  0  0  0  0  0  0  0  0
   -5.1250   19.3550  -33.6520 H   0  0  0  0  0  0  0  0  0  0  0  0
   -5.2340   20.9120  -34.2740 H   0  0  0  0  0  0  0  0  0  0  0  0
   -2.8890   19.0599  -33.0305 H   0  0  0  0  0  0  0  0  0  0  0  0
   -0.9412   19.8274  -31.6364 H   0  0  0  0  0  0  0  0  0  0  0  0
   -0.0628   21.9406  -29.9244 H   0  0  0  0  0  0  0  0  0  0  0  0
   -2.5820   26.0110  -28.9710 H   0  0  0  0  0  0  0  0  0  0  0  0
   -5.1005   22.6512  -31.9190 H   0  0  0  0  0  0  0  0  0  0  0  0
  1  2  1  0
  2  3  1  0
  2  4  1  0
  4  5  1  0
  5  6  1  0
  6  7  1  0
  7  8  2  0
  8  9  1  0
  9 10  2  0
 10 11  1  0
 11 12  2  0
 12 13  1  0
 13 14  1  0
 13 15  2  0
 12 16  1  0
 16 17  1  0
 17 18  2  0
 17 19  1  0
 16 20  1  0
 20 21  2  0
 21  7  1  0
 20 10  1  0
  1 22  1  0
  1 23  1  0
  1 24  1  0
  3 25  1  0
  3 26  1  0
  3 27  1  0
  4 28  1  0
  4 29  1  0
  5 30  1  0
  5 31  1  0
  6 32  1  0
  6 33  1  0
  8 34  1  0
  9 35  1  0
 11 36  1  0
 14 37  1  0
 21 38  1  0
M  CHG  3   6   1  14  -1  19  -1
M  END
>  <UniqueID>  (68) 
68

>  <SMILES>  (68) 
CN(C)CC[NH2+]c1ccc2cc(C([NH-])=O)n(C(=O)[O-])c2c1

>  <Energy>  (68) 
77.499922850977

>  <Genealogy>  (68) 
CN(C)CC[NH2+]c1ccc2cc(C([NH-])=O)n(C(=O)[O-])c2c1 (protonated)
CN(C)CC[NH2+]c1ccc2cc(C([NH-])=O)n(C(=O)[O-])c2c1 (3D coordinates assigned)
CN(C)CC[NH2+]c1ccc2cc(C([NH-])=O)n(C(=O)[O-])c2c1 (optimized conformer: 77.499922850977 kcal/mol)

>  <smiles>  (68) 
CN(C)CCNc1ccc2cc(C(N)=O)n(C(=O)O)c2c1

>  <score_type>  (68) 
oracle

>  <origin>  (68) 
adg

>  <m_score__min__energy>  (68) 
-9.9499999999999993

>  <m_primary>  (68) 
energy

$$$$
70:0
     RDKit          3D

 44 46  0  0  0  0  0  0  0  0999 V2000
   -3.4930   25.2980  -30.0910 N   0  0  0  0  0  0  0  0  0  0  0  0
   -4.8650   25.2990  -30.4730 C   0  0  0  0  0  0  0  0  0  0  0  0
   -5.4910   26.3930  -30.5060 O   0  0  0  0  0  0  0  0  0  0  0  0
   -5.5640   24.0450  -30.8340 C   0  0  0  0  0  0  0  0  0  0  0  0
   -6.9330   23.9750  -31.0860 C   0  0  0  0  0  0  0  0  0  0  0  0
   -7.1790   22.6600  -31.4110 C   0  0  0  0  0  0  0  0  0  0  0  0
   -8.3700   22.0290  -31.7550 C   0  0  0  0  0  0  0  0  0  0  0  0
   -8.3300   20.6520  -32.0300 C   0  0  0  0  0  0  0  0  0  0  0  0
   -7.1150   19.9260  -31.9300 C   0  0  0  0  0  0  0  0  0  0  0  0
   -7.0760   18.4560  -32.2620 C   0  0  0  0  0  0  0  0  0  0  0  0
   -6.5620   18.2530  -33.5310 F   0  0  0  0  0  0  0  0  0  0  0  0
   -6.2750   17.8040  -31.3430 F   0  0  0  0  0  0  0  0  0  0  0  0
   -8.3480   17.9130  -32.2180 F   0  0  0  0  0  0  0  0  0  0  0  0
   -5.9220   20.6100  -31.5970 C   0  0  0  0  0  0  0  0  0  0  0  0
   -5.9890   21.9850  -31.3500 C   0  0  0  0  0  0  0  0  0  0  0  0
   -4.9880   22.8220  -31.0030 N   0  0  0  0  0  0  0  0  0  0  0  0
   -3.6000   22.4750  -30.8840 C   0  0  0  0  0  0  0  0  0  0  0  0
   -2.7460   23.0490  -31.6090 O   0  0  0  0  0  0  0  0  0  0  0  0
   -3.1680   21.4000  -29.9190 C   0  0  0  0  0  0  0  0  0  0  0  0
   -2.7680   21.9760  -28.6040 N   0  0  1  0  0  0  0  0  0  0  0  0
   -3.4080   21.2350  -27.4890 C   0  0  0  0  0  0  0  0  0  0  0  0
   -2.7150   19.9270  -27.2030 C   0  0  0  0  0  0  0  0  0  0  0  0
   -3.3280   19.0200  -26.5800 O   0  0  0  0  0  0  0  0  0  0  0  0
   -1.3700   19.7470  -27.5330 O   0  0  0  0  0  0  0  0  0  0  0  0
   -0.6750   20.6230  -28.4180 C   0  0  0  0  0  0  0  0  0  0  0  0
   -1.2910   22.0340  -28.3920 C   0  0  1  0  0  0  0  0  0  0  0  0
   -0.5550   22.9810  -29.3720 C   0  0  0  0  0  0  0  0  0  0  0  0
   -1.2040   24.2190  -29.4750 O   0  0  0  0  0  0  0  0  0  0  0  0
   -2.7420   25.0790  -30.7820 H   0  0  0  0  0  0  0  0  0  0  0  0
   -7.6626   24.7967  -31.0358 H   0  0  0  0  0  0  0  0  0  0  0  0
   -9.3140   22.5910  -31.8100 H   0  0  0  0  0  0  0  0  0  0  0  0
   -9.2519   20.1302  -32.3265 H   0  0  0  0  0  0  0  0  0  0  0  0
   -4.9641   20.0729  -31.5339 H   0  0  0  0  0  0  0  0  0  0  0  0
   -4.0037   20.7017  -29.7641 H   0  0  0  0  0  0  0  0  0  0  0  0
   -2.2982   20.8805  -30.3474 H   0  0  0  0  0  0  0  0  0  0  0  0
   -3.1250   22.9610  -28.5470 H   0  0  0  0  0  0  0  0  0  0  0  0
   -3.3747   21.8590  -26.5837 H   0  0  0  0  0  0  0  0  0  0  0  0
   -4.4441   21.0112  -27.7829 H   0  0  0  0  0  0  0  0  0  0  0  0
    0.3790   20.6846  -28.1093 H   0  0  0  0  0  0  0  0  0  0  0  0
   -0.7538   20.2243  -29.4402 H   0  0  0  0  0  0  0  0  0  0  0  0
   -1.1471   22.4684  -27.3917 H   0  0  0  0  0  0  0  0  0  0  0  0
    0.4705   23.1441  -29.0091 H   0  0  0  0  0  0  0  0  0  0  0  0
   -0.5483   22.5110  -30.3665 H   0  0  0  0  0  0  0  0  0  0  0  0
   -1.6470   24.2340  -30.3640 H   0  0  0  0  0  0  0  0  0  0  0  0
  1  2  1  0
  2  3  2  0
  2  4  1  0
  4  5  2  0
  5  6  1  0
  6  7  2  0
  7  8  1  0
  8  9  2  0
  9 10  1  0
 10 11  1  0
 10 12  1  0
 10 13  1  0
  9 14  1  0
 14 15  2  0
 15 16  1  0
 16 17  1  0
 17 18  2  0
 17 19  1  0
 19 20  1  0
 20 21  1  0
 21 22  1  0
 22 23  2  0
 22 24  1  0
 24 25  1  0
 25 26  1  0
 26 27  1  0
 27 28  1  0
 16  4  1  0
 26 20  1  0
 15  6  1  0
  1 29  1  0
  5 30  1  0
  7 31  1  0
  8 32  1  0
 14 33  1  0
 19 34  1  0
 19 35  1  0
 20 36  1  6
 21 37  1  0
 21 38  1  0
 25 39  1  0
 25 40  1  0
 26 41  1  1
 27 42  1  0
 27 43  1  0
 28 44  1  0
M  CHG  2   1  -1  20   1
M  END
>  <UniqueID>  (69) 
69

>  <SMILES>  (69) 
[NH-]C(=O)c1cc2ccc(C(F)(F)F)cc2n1C(=O)C[N@H+]1CC(=O)OC[C@H]1CO

>  <Energy>  (69) 
92.97033517007183

>  <Genealogy>  (69) 
[NH-]C(=O)c1cc2ccc(C(F)(F)F)cc2n1C(=O)C[NH+]1CC(=O)OCC1CO (protonated)
[NH-]C(=O)c1cc2ccc(C(F)(F)F)cc2n1C(=O)C[N@H+]1CC(=O)OC[C@H]1CO (chirality)
[NH-]C(=O)c1cc2ccc(C(F)(F)F)cc2n1C(=O)C[N@H+]1CC(=O)OC[C@H]1CO (3D coordinates assigned)
[NH-]C(=O)c1cc2ccc(C(F)(F)F)cc2n1C(=O)C[N@H+]1CC(=O)OC[C@H]1CO (nonaromatic ring conformer: 92.97033517007183 kcal/mol)

>  <smiles>  (69) 
NC(=O)c1cc2ccc(C(F)(F)F)cc2n1C(=O)CN1CC(=O)OCC1CO

>  <score_type>  (69) 
oracle

>  <origin>  (69) 
adg

>  <m_score__min__energy>  (69) 
-9.5

>  <m_primary>  (69) 
energy

$$$$
71:0
     RDKit          3D

 38 39  0  0  0  0  0  0  0  0999 V2000
   -6.4610   17.5960  -34.4330 N   0  0  0  0  0  0  0  0  0  0  0  0
   -5.1110   18.0610  -34.4950 C   0  0  0  0  0  0  0  0  0  0  0  0
   -4.3060   17.5010  -35.2840 O   0  0  0  0  0  0  0  0  0  0  0  0
   -4.6710   19.2100  -33.6730 C   0  0  0  0  0  0  0  0  0  0  0  0
   -3.3760   19.7260  -33.6890 C   0  0  0  0  0  0  0  0  0  0  0  0
   -3.3610   20.7070  -32.7260 C   0  0  0  0  0  0  0  0  0  0  0  0
   -2.3270   21.5450  -32.3200 C   0  0  0  0  0  0  0  0  0  0  0  0
   -2.5980   22.4850  -31.3120 C   0  0  0  0  0  0  0  0  0  0  0  0
   -3.8920   22.5810  -30.7430 C   0  0  0  0  0  0  0  0  0  0  0  0
   -4.1640   23.5770  -29.6510 C   0  0  0  0  0  0  0  0  0  0  0  0
   -3.5160   24.8840  -29.9760 C   0  0  0  0  0  0  0  0  0  0  0  0
   -4.0140   25.6370  -30.8540 O   0  0  0  0  0  0  0  0  0  0  0  0
   -2.3330   25.2490  -29.3450 O   0  0  0  0  0  0  0  0  0  0  0  0
   -4.9140   21.7040  -31.1720 C   0  0  0  0  0  0  0  0  0  0  0  0
   -4.6110   20.7650  -32.1650 C   0  0  0  0  0  0  0  0  0  0  0  0
   -5.4270   19.8500  -32.7350 N   0  0  0  0  0  0  0  0  0  0  0  0
   -6.8200   19.6480  -32.4410 C   0  0  0  0  0  0  0  0  0  0  0  0
   -7.1710   18.7050  -31.6800 O   0  0  0  0  0  0  0  0  0  0  0  0
   -7.7790   20.4890  -33.0160 O   0  0  0  0  0  0  0  0  0  0  0  0
   -8.9120   21.0010  -32.3140 C   0  0  0  0  0  0  0  0  0  0  0  0
   -8.4950   22.0800  -31.3070 C   0  0  0  0  0  0  0  0  0  0  0  0
   -8.0700   23.3930  -31.9680 C   0  0  0  0  0  0  0  0  0  0  0  0
   -6.9040   23.2020  -32.7220 O   0  0  0  0  0  0  0  0  0  0  0  0
   -7.1430   17.9970  -33.7530 H   0  0  0  0  0  0  0  0  0  0  0  0
   -6.7720   16.8110  -35.0460 H   0  0  0  0  0  0  0  0  0  0  0  0
   -2.5424   19.4141  -34.3355 H   0  0  0  0  0  0  0  0  0  0  0  0
   -1.3279   21.4735  -32.7745 H   0  0  0  0  0  0  0  0  0  0  0  0
   -1.7978   23.1531  -30.9610 H   0  0  0  0  0  0  0  0  0  0  0  0
   -5.2499   23.7233  -29.5540 H   0  0  0  0  0  0  0  0  0  0  0  0
   -3.7521   23.1959  -28.7049 H   0  0  0  0  0  0  0  0  0  0  0  0
   -5.9226   21.7580  -30.7363 H   0  0  0  0  0  0  0  0  0  0  0  0
   -9.6161   21.4376  -33.0377 H   0  0  0  0  0  0  0  0  0  0  0  0
   -9.3860   20.1743  -31.7646 H   0  0  0  0  0  0  0  0  0  0  0  0
   -9.3465   22.2839  -30.6412 H   0  0  0  0  0  0  0  0  0  0  0  0
   -7.6230   21.6942  -30.7585 H   0  0  0  0  0  0  0  0  0  0  0  0
   -8.8762   23.7444  -32.6288 H   0  0  0  0  0  0  0  0  0  0  0  0
   -7.8721   24.1403  -31.1855 H   0  0  0  0  0  0  0  0  0  0  0  0
   -7.1290   22.5230  -33.4090 H   0  0  0  0  0  0  0  0  0  0  0  0
  1  2  1  0
  2  3  2  0
  2  4  1  0
  4  5  2  0
  5  6  1  0
  6  7  2  0
  7  8  1  0
  8  9  2  0
  9 10  1  0
 10 11  1  0
 11 12  2  0
 11 13  1  0
  9 14  1  0
 14 15  2  0
 15 16  1  0
 16 17  1  0
 17 18  2  0
 17 19  1  0
 19 20  1  0
 20 21  1  0
 21 22  1  0
 22 23  1  0
 16  4  1  0
 15  6  1  0
  1 24  1  0
  1 25  1  0
  5 26  1  0
  7 27  1  0
  8 28  1  0
 10 29  1  0
 10 30  1  0
 14 31  1  0
 20 32  1  0
 20 33  1  0
 21 34  1  0
 21 35  1  0
 22 36  1  0
 22 37  1  0
 23 38  1  0
M  CHG  1  13  -1
M  END
>  <UniqueID>  (70) 
70

>  <SMILES>  (70) 
NC(=O)c1cc2ccc(CC(=O)[O-])cc2n1C(=O)OCCCO

>  <Energy>  (70) 
70.23159850642136

>  <Genealogy>  (70) 
NC(=O)c1cc2ccc(CC(=O)[O-])cc2n1C(=O)OCCCO (protonated)
NC(=O)c1cc2ccc(CC(=O)[O-])cc2n1C(=O)OCCCO (3D coordinates assigned)
NC(=O)c1cc2ccc(CC(=O)[O-])cc2n1C(=O)OCCCO (optimized conformer: 70.23159850642136 kcal/mol)

>  <smiles>  (70) 
NC(=O)c1cc2ccc(CC(=O)O)cc2n1C(=O)OCCCO

>  <score_type>  (70) 
oracle

>  <origin>  (70) 
adg

>  <m_score__min__energy>  (70) 
-9.0800000000000001

>  <m_primary>  (70) 
energy

$$$$
72:0
     RDKit          3D

 34 36  0  0  0  0  0  0  0  0999 V2000
   -5.5240   26.5020  -30.3310 N   0  0  0  0  0  0  0  0  0  0  0  0
   -6.3550   25.4110  -29.9310 C   0  0  0  0  0  0  0  0  0  0  0  0
   -7.1540   25.5650  -28.9690 O   0  0  0  0  0  0  0  0  0  0  0  0
   -6.3410   24.1300  -30.6640 C   0  0  0  0  0  0  0  0  0  0  0  0
   -7.4960   23.4470  -31.0320 C   0  0  0  0  0  0  0  0  0  0  0  0
   -7.0590   22.3510  -31.7400 C   0  0  0  0  0  0  0  0  0  0  0  0
   -7.7850   21.3230  -32.3290 C   0  0  0  0  0  0  0  0  0  0  0  0
   -7.0740   20.2930  -32.9650 C   0  0  0  0  0  0  0  0  0  0  0  0
   -5.6520   20.2950  -32.9960 C   0  0  0  0  0  0  0  0  0  0  0  0
   -4.9290   19.2210  -33.6420 N   0  0  0  0  0  0  0  0  0  0  0  0
   -3.4780   19.1260  -33.6820 C   0  0  0  0  0  0  0  0  0  0  0  0
   -3.1650   17.7730  -34.3050 C   0  0  0  0  0  0  0  0  0  0  0  0
   -4.4460   17.3320  -35.0030 C   0  0  0  0  0  0  0  0  0  0  0  0
   -5.5700   18.1110  -34.3330 C   0  0  0  0  0  0  0  0  0  0  0  0
   -4.9530   21.3640  -32.3790 C   0  0  0  0  0  0  0  0  0  0  0  0
   -5.6890   22.3890  -31.7730 C   0  0  0  0  0  0  0  0  0  0  0  0
   -5.2310   23.4780  -31.1120 N   0  0  0  0  0  0  0  0  0  0  0  0
   -3.8570   23.8030  -30.8400 C   0  0  0  0  0  0  0  0  0  0  0  0
   -2.9660   22.9160  -30.9210 O   0  0  0  0  0  0  0  0  0  0  0  0
   -3.4940   25.0960  -30.4850 O   0  0  0  0  0  0  0  0  0  0  0  0
   -4.9810   26.4660  -31.2210 H   0  0  0  0  0  0  0  0  0  0  0  0
   -5.5200   27.3880  -29.7780 H   0  0  0  0  0  0  0  0  0  0  0  0
   -8.5362   23.7240  -30.8054 H   0  0  0  0  0  0  0  0  0  0  0  0
   -8.8845   21.3164  -32.2979 H   0  0  0  0  0  0  0  0  0  0  0  0
   -7.6251   19.4719  -33.4467 H   0  0  0  0  0  0  0  0  0  0  0  0
   -3.0584   19.9363  -34.2963 H   0  0  0  0  0  0  0  0  0  0  0  0
   -3.0396   19.2189  -32.6774 H   0  0  0  0  0  0  0  0  0  0  0  0
   -2.3450   17.8665  -35.0322 H   0  0  0  0  0  0  0  0  0  0  0  0
   -2.8441   17.0426  -33.5476 H   0  0  0  0  0  0  0  0  0  0  0  0
   -4.4001   17.5712  -36.0757 H   0  0  0  0  0  0  0  0  0  0  0  0
   -4.5998   16.2459  -34.9207 H   0  0  0  0  0  0  0  0  0  0  0  0
   -6.2774   18.4868  -35.0869 H   0  0  0  0  0  0  0  0  0  0  0  0
   -6.1416   17.4784  -33.6380 H   0  0  0  0  0  0  0  0  0  0  0  0
   -3.8532   21.3871  -32.3768 H   0  0  0  0  0  0  0  0  0  0  0  0
  1  2  1  0
  2  3  2  0
  2  4  1  0
  4  5  2  0
  5  6  1  0
  6  7  2  0
  7  8  1  0
  8  9  2  0
  9 10  1  0
 10 11  1  0
 11 12  1  0
 12 13  1  0
 13 14  1  0
  9 15  1  0
 15 16  2  0
 16 17  1  0
 17 18  1  0
 18 19  2  0
 18 20  1  0
 17  4  1  0
 16  6  1  0
 14 10  1  0
  1 21  1  0
  1 22  1  0
  5 23  1  0
  7 24  1  0
  8 25  1  0
 11 26  1  0
 11 27  1  0
 12 28  1  0
 12 29  1  0
 13 30  1  0
 13 31  1  0
 14 32  1  0
 14 33  1  0
 15 34  1  0
M  CHG  1  20  -1
M  END
>  <UniqueID>  (71) 
71

>  <SMILES>  (71) 
NC(=O)c1cc2ccc(N3CCCC3)cc2n1C(=O)[O-]

>  <Energy>  (71) 
76.7410877672051

>  <Genealogy>  (71) 
NC(=O)c1cc2ccc(N3CCCC3)cc2n1C(=O)[O-] (protonated)
NC(=O)c1cc2ccc(N3CCCC3)cc2n1C(=O)[O-] (3D coordinates assigned)
NC(=O)c1cc2ccc(N3CCCC3)cc2n1C(=O)[O-] (nonaromatic ring conformer: 76.7410877672051 kcal/mol)

>  <smiles>  (71) 
NC(=O)c1cc2ccc(N3CCCC3)cc2n1C(=O)O

>  <score_type>  (71) 
oracle

>  <origin>  (71) 
adg

>  <m_score__min__energy>  (71) 
-9.4700000000000006

>  <m_primary>  (71) 
energy

$$$$
73:0
     RDKit          3D

 46 49  0  0  0  0  0  0  0  0999 V2000
   -1.4088   22.2153  -29.4344 H   0  0  0  0  0  0  0  0  0  0  0  0
   -1.8330   23.2220  -29.5630 C   0  0  0  0  0  0  0  0  0  0  0  0
   -1.0350   24.3870  -29.1470 C   0  0  0  0  0  0  0  0  0  0  0  0
    0.1220   24.2440  -28.6600 O   0  0  0  0  0  0  0  0  0  0  0  0
   -1.5500   25.6700  -29.3240 O   0  0  0  0  0  0  0  0  0  0  0  0
   -3.0560   23.3440  -30.0920 C   0  0  0  0  0  0  0  0  0  0  0  0
   -3.4597   24.3489  -30.2847 H   0  0  0  0  0  0  0  0  0  0  0  0
   -3.8760   22.1630  -30.4230 C   0  0  0  0  0  0  0  0  0  0  0  0
   -3.3330   21.0250  -30.3840 O   0  0  0  0  0  0  0  0  0  0  0  0
   -5.2360   22.2940  -30.8960 N   0  0  0  0  0  0  0  0  0  0  0  0
   -6.0210   23.4080  -30.8190 C   0  0  0  0  0  0  0  0  0  0  0  0
   -5.5790   24.7440  -30.4070 C   0  0  0  0  0  0  0  0  0  0  0  0
   -4.9290   25.4650  -31.2110 O   0  0  0  0  0  0  0  0  0  0  0  0
   -5.8240   25.2060  -29.0790 N   0  0  0  0  0  0  0  0  0  0  0  0
   -6.2840   24.5840  -28.3800 H   0  0  0  0  0  0  0  0  0  0  0  0
   -5.5190   26.1600  -28.7870 H   0  0  0  0  0  0  0  0  0  0  0  0
   -7.3050   23.1540  -31.2830 C   0  0  0  0  0  0  0  0  0  0  0  0
   -8.1530   23.8535  -31.3230 H   0  0  0  0  0  0  0  0  0  0  0  0
   -7.2860   21.8400  -31.6810 C   0  0  0  0  0  0  0  0  0  0  0  0
   -8.2890   21.0870  -32.2820 C   0  0  0  0  0  0  0  0  0  0  0  0
   -9.2889   21.5120  -32.4539 H   0  0  0  0  0  0  0  0  0  0  0  0
   -7.9900   19.7700  -32.6630 C   0  0  0  0  0  0  0  0  0  0  0  0
   -8.7719   19.1427  -33.1159 H   0  0  0  0  0  0  0  0  0  0  0  0
   -6.6870   19.2400  -32.4690 C   0  0  0  0  0  0  0  0  0  0  0  0
   -6.3470   17.9100  -32.9240 N   0  0  0  0  0  0  0  0  0  0  0  0
   -5.2700   17.0590  -32.4350 C   0  0  1  0  0  0  0  0  0  0  0  0
   -5.0442   17.0939  -31.3590 H   0  0  0  0  0  0  0  0  0  0  0  0
   -5.7200   15.6650  -32.8960 C   0  0  0  0  0  0  0  0  0  0  0  0
   -4.8603   14.9950  -33.0443 H   0  0  0  0  0  0  0  0  0  0  0  0
   -6.3616   15.1412  -32.1721 H   0  0  0  0  0  0  0  0  0  0  0  0
   -6.4140   15.9850  -34.2240 C   0  0  0  0  0  0  0  0  0  0  0  0
   -5.9288   15.4679  -35.0650 H   0  0  0  0  0  0  0  0  0  0  0  0
   -7.4651   15.6637  -34.2677 H   0  0  0  0  0  0  0  0  0  0  0  0
   -6.2220   17.5070  -34.3160 C   0  0  2  0  0  0  0  0  0  0  0  0
   -6.8980   17.9496  -35.0624 H   0  0  0  0  0  0  0  0  0  0  0  0
   -4.7460   17.8580  -34.6200 C   0  0  2  0  0  0  0  0  0  0  0  0
   -4.5984   18.9022  -34.9330 H   0  0  0  0  0  0  0  0  0  0  0  0
   -4.2000   17.0960  -35.7450 N   0  0  0  0  0  0  0  0  0  0  0  0
   -4.6480   17.4510  -36.6210 H   0  0  0  0  0  0  0  0  0  0  0  0
   -3.1790   17.3230  -35.8260 H   0  0  0  0  0  0  0  0  0  0  0  0
   -4.0650   17.4980  -33.2870 C   0  0  0  0  0  0  0  0  0  0  0  0
   -3.3424   16.6783  -33.4135 H   0  0  0  0  0  0  0  0  0  0  0  0
   -3.4797   18.3186  -32.8466 H   0  0  0  0  0  0  0  0  0  0  0  0
   -5.6880   20.0460  -31.8720 C   0  0  0  0  0  0  0  0  0  0  0  0
   -4.6650   19.6639  -31.7396 H   0  0  0  0  0  0  0  0  0  0  0  0
   -6.0270   21.3420  -31.4520 C   0  0  0  0  0  0  0  0  0  0  0  0
  1  2  1  0
  2  3  1  0
  3  4  2  0
  3  5  1  0
  2  6  2  0
  6  7  1  0
  6  8  1  0
  8  9  2  0
  8 10  1  0
 10 11  1  0
 11 12  1  0
 12 13  2  0
 12 14  1  0
 14 15  1  0
 14 16  1  0
 11 17  2  0
 17 18  1  0
 17 19  1  0
 19 20  2  0
 20 21  1  0
 20 22  1  0
 22 23  1  0
 22 24  2  0
 24 25  1  0
 25 26  1  0
 26 27  1  1
 26 28  1  0
 28 29  1  0
 28 30  1  0
 28 31  1  0
 31 32  1  0
 31 33  1  0
 31 34  1  0
 34 35  1  6
 34 36  1  0
 36 37  1  6
 36 38  1  0
 38 39  1  0
 38 40  1  0
 36 41  1  0
 41 42  1  0
 41 43  1  0
 24 44  1  0
 44 45  1  0
 44 46  2  0
 46 10  1  0
 46 19  1  0
 34 25  1  0
 41 26  1  0
M  CHG  1   5  -1
M  END
>  <UniqueID>  (72) 
72

>  <SMILES>  (72) 
NC(=O)c1cc2ccc(N3[C@H]4CC[C@@H]3C(N)C4)cc2n1C(=O)/C=C/C(=O)[O-]

>  <Energy>  (72) 
132.0599194000271

>  <Genealogy>  (72) 
NC(=O)c1cc2ccc(N3C4CCC3C(N)C4)cc2n1C(=O)C=CC(=O)[O-] (protonated)
NC(=O)c1cc2ccc(N3[C@H]4CC[C@@H]3C(N)C4)cc2n1C(=O)C=CC(=O)[O-] (chirality)
NC(=O)c1cc2ccc(N3[C@H]4CC[C@@H]3C(N)C4)cc2n1C(=O)/C=C/C(=O)[O-] (cis-trans isomerization)
NC(=O)c1cc2ccc(N3[C@H]4CC[C@@H]3C(N)C4)cc2n1C(=O)/C=C/C(=O)[O-] (3D coordinates assigned)
NC(=O)c1cc2ccc(N3[C@H]4CC[C@@H]3C(N)C4)cc2n1C(=O)/C=C/C(=O)[O-] (nonaromatic ring conformer: 132.0599194000271 kcal/mol)

>  <smiles>  (72) 
NC(=O)c1cc2ccc(N3C4CCC3C(N)C4)cc2n1C(=O)C=CC(=O)O

>  <score_type>  (72) 
oracle

>  <origin>  (72) 
adg

>  <m_score__min__energy>  (72) 
-12.23

>  <m_primary>  (72) 
energy

$$$$
74:0
     RDKit          3D

 42 43  0  0  0  0  0  0  0  0999 V2000
   -1.0790   18.5770  -27.0890 C   0  0  0  0  0  0  0  0  0  0  0  0
   -1.9890   19.5490  -26.4630 N   0  0  0  0  0  0  0  0  0  0  0  0
   -3.3040   18.9200  -26.2520 C   0  0  0  0  0  0  0  0  0  0  0  0
   -2.1060   20.7580  -27.3070 C   0  0  0  0  0  0  0  0  0  0  0  0
   -1.7600   20.4380  -28.7650 C   0  0  0  0  0  0  0  0  0  0  0  0
   -1.6460   21.6370  -29.5290 O   0  0  0  0  0  0  0  0  0  0  0  0
   -2.7210   22.4960  -29.7810 C   0  0  0  0  0  0  0  0  0  0  0  0
   -3.4950   22.8440  -28.8460 O   0  0  0  0  0  0  0  0  0  0  0  0
   -2.9200   22.9550  -31.0890 O   0  0  0  0  0  0  0  0  0  0  0  0
   -4.0240   22.6430  -31.8950 C   0  0  0  0  0  0  0  0  0  0  0  0
   -3.8670   22.1230  -33.0330 O   0  0  0  0  0  0  0  0  0  0  0  0
   -5.3500   22.8960  -31.4050 N   0  0  0  0  0  0  0  0  0  0  0  0
   -5.8600   24.0710  -30.9370 C   0  0  0  0  0  0  0  0  0  0  0  0
   -5.0980   25.3120  -30.6840 C   0  0  0  0  0  0  0  0  0  0  0  0
   -3.6740   25.2990  -30.6230 N   0  0  0  0  0  0  0  0  0  0  0  0
   -5.7140   26.3900  -30.4720 O   0  0  0  0  0  0  0  0  0  0  0  0
   -7.2130   23.9310  -30.6390 C   0  0  0  0  0  0  0  0  0  0  0  0
   -7.5180   22.6210  -30.9330 C   0  0  0  0  0  0  0  0  0  0  0  0
   -8.7250   21.9370  -30.8230 C   0  0  0  0  0  0  0  0  0  0  0  0
   -8.7560   20.5890  -31.2190 C   0  0  0  0  0  0  0  0  0  0  0  0
   -7.5970   19.9590  -31.7390 C   0  0  0  0  0  0  0  0  0  0  0  0
   -7.6340   18.5020  -32.1260 C   0  0  0  0  0  0  0  0  0  0  0  0
   -8.9100   17.9880  -31.9760 F   0  0  0  0  0  0  0  0  0  0  0  0
   -6.7650   17.7950  -31.3160 F   0  0  0  0  0  0  0  0  0  0  0  0
   -7.2550   18.3370  -33.4470 F   0  0  0  0  0  0  0  0  0  0  0  0
   -6.3840   20.6830  -31.8130 C   0  0  0  0  0  0  0  0  0  0  0  0
   -6.3770   22.0190  -31.3930 C   0  0  0  0  0  0  0  0  0  0  0  0
   -0.5507   18.0127  -26.3065 H   0  0  0  0  0  0  0  0  0  0  0  0
   -1.6587   17.8820  -27.7143 H   0  0  0  0  0  0  0  0  0  0  0  0
   -0.3474   19.1097  -27.7143 H   0  0  0  0  0  0  0  0  0  0  0  0
   -3.4973   18.8275  -25.1731 H   0  0  0  0  0  0  0  0  0  0  0  0
   -4.0859   19.5416  -26.7127 H   0  0  0  0  0  0  0  0  0  0  0  0
   -3.3108   17.9211  -26.7127 H   0  0  0  0  0  0  0  0  0  0  0  0
   -3.1379   21.1355  -27.2555 H   0  0  0  0  0  0  0  0  0  0  0  0
   -1.4021   21.5173  -26.9356 H   0  0  0  0  0  0  0  0  0  0  0  0
   -0.8037   19.8955  -28.7989 H   0  0  0  0  0  0  0  0  0  0  0  0
   -2.5634   19.8202  -29.1926 H   0  0  0  0  0  0  0  0  0  0  0  0
   -3.1720   24.7390  -29.8980 H   0  0  0  0  0  0  0  0  0  0  0  0
   -7.8937   24.7031  -30.2510 H   0  0  0  0  0  0  0  0  0  0  0  0
   -9.6266   22.4359  -30.4381 H   0  0  0  0  0  0  0  0  0  0  0  0
   -9.6902   20.0160  -31.1245 H   0  0  0  0  0  0  0  0  0  0  0  0
   -5.4672   20.2075  -32.1918 H   0  0  0  0  0  0  0  0  0  0  0  0
  1  2  1  0
  2  3  1  0
  2  4  1  0
  4  5  1  0
  5  6  1  0
  6  7  1  0
  7  8  2  0
  7  9  1  0
  9 10  1  0
 10 11  2  0
 10 12  1  0
 12 13  1  0
 13 14  1  0
 14 15  1  0
 14 16  2  0
 13 17  2  0
 17 18  1  0
 18 19  2  0
 19 20  1  0
 20 21  2  0
 21 22  1  0
 22 23  1  0
 22 24  1  0
 22 25  1  0
 21 26  1  0
 26 27  2  0
 27 12  1  0
 27 18  1  0
  1 28  1  0
  1 29  1  0
  1 30  1  0
  3 31  1  0
  3 32  1  0
  3 33  1  0
  4 34  1  0
  4 35  1  0
  5 36  1  0
  5 37  1  0
 15 38  1  0
 17 39  1  0
 19 40  1  0
 20 41  1  0
 26 42  1  0
M  CHG  1  15  -1
M  END
>  <UniqueID>  (73) 
73

>  <SMILES>  (73) 
CN(C)CCOC(=O)OC(=O)n1c(C([NH-])=O)cc2ccc(C(F)(F)F)cc21

>  <Energy>  (73) 
80.84048975199703

>  <Genealogy>  (73) 
CN(C)CCOC(=O)OC(=O)n1c(C([NH-])=O)cc2ccc(C(F)(F)F)cc21 (protonated)
CN(C)CCOC(=O)OC(=O)n1c(C([NH-])=O)cc2ccc(C(F)(F)F)cc21 (3D coordinates assigned)
CN(C)CCOC(=O)OC(=O)n1c(C([NH-])=O)cc2ccc(C(F)(F)F)cc21 (optimized conformer: 80.84048975199703 kcal/mol)

>  <smiles>  (73) 
CN(C)CCOC(=O)OC(=O)n1c(C(N)=O)cc2ccc(C(F)(F)F)cc21

>  <score_type>  (73) 
oracle

>  <origin>  (73) 
adg

>  <m_score__min__energy>  (73) 
-9.3200000000000003

>  <m_primary>  (73) 
energy

$$$$
75:0
     RDKit          3D

 40 41  0  0  0  0  0  0  0  0999 V2000
   -5.4590   24.7130  -29.0200 N   0  0  0  0  0  0  0  0  0  0  0  0
   -5.4690   24.4480  -30.4220 C   0  0  0  0  0  0  0  0  0  0  0  0
   -5.0020   25.3050  -31.2190 O   0  0  0  0  0  0  0  0  0  0  0  0
   -5.9430   23.1540  -30.9450 C   0  0  0  0  0  0  0  0  0  0  0  0
   -7.2650   22.9330  -31.3110 C   0  0  0  0  0  0  0  0  0  0  0  0
   -7.2920   21.6490  -31.7940 C   0  0  0  0  0  0  0  0  0  0  0  0
   -8.3580   20.9190  -32.3060 C   0  0  0  0  0  0  0  0  0  0  0  0
   -8.1130   19.6050  -32.7330 C   0  0  0  0  0  0  0  0  0  0  0  0
   -6.8210   19.0320  -32.6160 C   0  0  0  0  0  0  0  0  0  0  0  0
   -6.5680   17.6310  -33.1330 C   0  0  0  0  0  0  0  0  0  0  0  0
   -5.3900   17.1480  -32.5770 F   0  0  0  0  0  0  0  0  0  0  0  0
   -6.4520   17.6360  -34.5170 F   0  0  0  0  0  0  0  0  0  0  0  0
   -7.6070   16.7770  -32.7950 F   0  0  0  0  0  0  0  0  0  0  0  0
   -5.7590   19.8080  -32.1010 C   0  0  0  0  0  0  0  0  0  0  0  0
   -6.0230   21.1280  -31.6990 C   0  0  0  0  0  0  0  0  0  0  0  0
   -5.1740   22.0460  -31.1700 N   0  0  0  0  0  0  0  0  0  0  0  0
   -3.7970   21.8530  -30.7840 C   0  0  0  0  0  0  0  0  0  0  0  0
   -2.8740   22.4090  -31.4370 O   0  0  0  0  0  0  0  0  0  0  0  0
   -3.4790   21.0810  -29.6630 O   0  0  0  0  0  0  0  0  0  0  0  0
   -3.1260   21.6410  -28.3990 C   0  0  0  0  0  0  0  0  0  0  0  0
   -3.8650   22.8370  -28.1620 O   0  0  0  0  0  0  0  0  0  0  0  0
   -3.4600   23.8230  -27.2570 C   0  0  0  0  0  0  0  0  0  0  0  0
   -4.2760   24.6880  -26.8350 O   0  0  0  0  0  0  0  0  0  0  0  0
   -2.0200   23.8930  -26.8570 C   0  0  0  0  0  0  0  0  0  0  0  0
   -1.1220   24.1810  -28.0730 C   0  0  0  0  0  0  0  0  0  0  0  0
   -1.7260   25.2170  -28.9720 C   0  0  0  0  0  0  0  0  0  0  0  0
   -2.6950   24.9250  -29.7150 O   0  0  0  0  0  0  0  0  0  0  0  0
   -1.2360   26.5180  -28.9660 O   0  0  0  0  0  0  0  0  0  0  0  0
   -5.7190   23.9710  -28.3240 H   0  0  0  0  0  0  0  0  0  0  0  0
   -5.1770   25.6570  -28.6720 H   0  0  0  0  0  0  0  0  0  0  0  0
   -8.1077   23.6355  -31.2309 H   0  0  0  0  0  0  0  0  0  0  0  0
   -9.3641   21.3583  -32.3745 H   0  0  0  0  0  0  0  0  0  0  0  0
   -8.9332   19.0120  -33.1638 H   0  0  0  0  0  0  0  0  0  0  0  0
   -4.7461   19.3874  -32.0164 H   0  0  0  0  0  0  0  0  0  0  0  0
   -3.3496   20.9133  -27.6049 H   0  0  0  0  0  0  0  0  0  0  0  0
   -2.0521   21.8794  -28.4015 H   0  0  0  0  0  0  0  0  0  0  0  0
   -1.8912   24.6963  -26.1167 H   0  0  0  0  0  0  0  0  0  0  0  0
   -1.7283   22.9228  -26.4285 H   0  0  0  0  0  0  0  0  0  0  0  0
   -0.1454   24.5420  -27.7180 H   0  0  0  0  0  0  0  0  0  0  0  0
   -1.0114   23.2494  -28.6473 H   0  0  0  0  0  0  0  0  0  0  0  0
  1  2  1  0
  2  3  2  0
  2  4  1  0
  4  5  2  0
  5  6  1  0
  6  7  2  0
  7  8  1  0
  8  9  2  0
  9 10  1  0
 10 11  1  0
 10 12  1  0
 10 13  1  0
  9 14  1  0
 14 15  2  0
 15 16  1  0
 16 17  1  0
 17 18  2  0
 17 19  1  0
 19 20  1  0
 20 21  1  0
 21 22  1  0
 22 23  2  0
 22 24  1  0
 24 25  1  0
 25 26  1  0
 26 27  2  0
 26 28  1  0
 16  4  1  0
 15  6  1  0
  1 29  1  0
  1 30  1  0
  5 31  1  0
  7 32  1  0
  8 33  1  0
 14 34  1  0
 20 35  1  0
 20 36  1  0
 24 37  1  0
 24 38  1  0
 25 39  1  0
 25 40  1  0
M  CHG  1  28  -1
M  END
>  <UniqueID>  (74) 
74

>  <SMILES>  (74) 
NC(=O)c1cc2ccc(C(F)(F)F)cc2n1C(=O)OCOC(=O)CCC(=O)[O-]

>  <Energy>  (74) 
72.84391058893733

>  <Genealogy>  (74) 
NC(=O)c1cc2ccc(C(F)(F)F)cc2n1C(=O)OCOC(=O)CCC(=O)[O-] (protonated)
NC(=O)c1cc2ccc(C(F)(F)F)cc2n1C(=O)OCOC(=O)CCC(=O)[O-] (3D coordinates assigned)
NC(=O)c1cc2ccc(C(F)(F)F)cc2n1C(=O)OCOC(=O)CCC(=O)[O-] (optimized conformer: 72.84391058893733 kcal/mol)

>  <smiles>  (74) 
NC(=O)c1cc2ccc(C(F)(F)F)cc2n1C(=O)OCOC(=O)CCC(=O)O

>  <score_type>  (74) 
oracle

>  <origin>  (74) 
adg

>  <m_score__min__energy>  (74) 
-10.43

>  <m_primary>  (74) 
energy

$$$$
76:0
     RDKit          3D

 41 42  0  0  0  0  0  0  0  0999 V2000
   -6.9220   18.3290  -32.3470 C   0  0  0  0  0  0  0  0  0  0  0  0
   -7.0620   19.7990  -32.0870 C   0  0  0  0  0  0  0  0  0  0  0  0
   -8.3170   20.4410  -32.2370 C   0  0  0  0  0  0  0  0  0  0  0  0
   -8.4500   21.8170  -31.9880 C   0  0  0  0  0  0  0  0  0  0  0  0
   -7.3200   22.5190  -31.5790 C   0  0  0  0  0  0  0  0  0  0  0  0
   -7.1620   23.8570  -31.2980 C   0  0  0  0  0  0  0  0  0  0  0  0
   -5.8210   24.0060  -30.9480 C   0  0  0  0  0  0  0  0  0  0  0  0
   -5.2380   25.2840  -30.4890 C   0  0  0  0  0  0  0  0  0  0  0  0
   -3.9120   25.6570  -30.8500 N   0  0  0  0  0  0  0  0  0  0  0  0
   -5.9050   26.0350  -29.7280 O   0  0  0  0  0  0  0  0  0  0  0  0
   -5.1740   22.8070  -31.0160 N   0  0  0  0  0  0  0  0  0  0  0  0
   -3.7760   22.5460  -30.8180 C   0  0  0  0  0  0  0  0  0  0  0  0
   -3.1510   21.8170  -31.6360 O   0  0  0  0  0  0  0  0  0  0  0  0
   -3.1210   23.0860  -29.7070 O   0  0  0  0  0  0  0  0  0  0  0  0
   -1.7050   23.0590  -29.5350 C   0  0  0  0  0  0  0  0  0  0  0  0
   -1.1840   24.4200  -29.0620 C   0  0  0  0  0  0  0  0  0  0  0  0
   -2.2360   25.1940  -28.5150 O   0  0  0  0  0  0  0  0  0  0  0  0
   -2.3430   24.9780  -27.1240 C   0  0  0  0  0  0  0  0  0  0  0  0
   -3.7910   24.6170  -26.7880 C   0  0  0  0  0  0  0  0  0  0  0  0
   -4.5890   24.4530  -28.0030 N   0  0  0  0  0  0  0  0  0  0  0  0
   -6.1060   21.9070  -31.4010 C   0  0  0  0  0  0  0  0  0  0  0  0
   -5.9400   20.5410  -31.6570 C   0  0  0  0  0  0  0  0  0  0  0  0
   -6.8707   17.7905  -31.3892 H   0  0  0  0  0  0  0  0  0  0  0  0
   -7.7904   17.9739  -32.9213 H   0  0  0  0  0  0  0  0  0  0  0  0
   -6.0022   18.1442  -32.9213 H   0  0  0  0  0  0  0  0  0  0  0  0
   -9.1943   19.8565  -32.5511 H   0  0  0  0  0  0  0  0  0  0  0  0
   -9.4180   22.3244  -32.1125 H   0  0  0  0  0  0  0  0  0  0  0  0
   -7.9310   24.6424  -31.3406 H   0  0  0  0  0  0  0  0  0  0  0  0
   -3.0860   25.1650  -30.4430 H   0  0  0  0  0  0  0  0  0  0  0  0
   -1.4480   22.2953  -28.7862 H   0  0  0  0  0  0  0  0  0  0  0  0
   -1.2386   22.8219  -30.5026 H   0  0  0  0  0  0  0  0  0  0  0  0
   -0.4124   24.2645  -28.2936 H   0  0  0  0  0  0  0  0  0  0  0  0
   -0.7603   24.9564  -29.9238 H   0  0  0  0  0  0  0  0  0  0  0  0
   -1.6784   24.1536  -26.8262 H   0  0  0  0  0  0  0  0  0  0  0  0
   -2.0510   25.8896  -26.5820 H   0  0  0  0  0  0  0  0  0  0  0  0
   -3.8038   23.6750  -26.2201 H   0  0  0  0  0  0  0  0  0  0  0  0
   -4.2253   25.4337  -26.1927 H   0  0  0  0  0  0  0  0  0  0  0  0
   -4.6750   23.4340  -28.2200 H   0  0  0  0  0  0  0  0  0  0  0  0
   -5.5450   24.8510  -27.8620 H   0  0  0  0  0  0  0  0  0  0  0  0
   -4.1210   24.9300  -28.8080 H   0  0  0  0  0  0  0  0  0  0  0  0
   -4.9605   20.0577  -31.5266 H   0  0  0  0  0  0  0  0  0  0  0  0
  1  2  1  0
  2  3  2  0
  3  4  1  0
  4  5  2  0
  5  6  1  0
  6  7  2  0
  7  8  1  0
  8  9  1  0
  8 10  2  0
  7 11  1  0
 11 12  1  0
 12 13  2  0
 12 14  1  0
 14 15  1  0
 15 16  1  0
 16 17  1  0
 17 18  1  0
 18 19  1  0
 19 20  1  0
 11 21  1  0
 21 22  2  0
 22  2  1  0
 21  5  1  0
  1 23  1  0
  1 24  1  0
  1 25  1  0
  3 26  1  0
  4 27  1  0
  6 28  1  0
  9 29  1  0
 15 30  1  0
 15 31  1  0
 16 32  1  0
 16 33  1  0
 18 34  1  0
 18 35  1  0
 19 36  1  0
 19 37  1  0
 20 38  1  0
 20 39  1  0
 20 40  1  0
 22 41  1  0
M  CHG  2   9  -1  20   1
M  END
>  <UniqueID>  (75) 
75

>  <SMILES>  (75) 
Cc1ccc2cc(C([NH-])=O)n(C(=O)OCCOCC[NH3+])c2c1

>  <Energy>  (75) 
73.42416789627711

>  <Genealogy>  (75) 
Cc1ccc2cc(C([NH-])=O)n(C(=O)OCCOCC[NH3+])c2c1 (protonated)
Cc1ccc2cc(C([NH-])=O)n(C(=O)OCCOCC[NH3+])c2c1 (3D coordinates assigned)
Cc1ccc2cc(C([NH-])=O)n(C(=O)OCCOCC[NH3+])c2c1 (optimized conformer: 73.42416789627711 kcal/mol)

>  <smiles>  (75) 
Cc1ccc2cc(C(N)=O)n(C(=O)OCCOCCN)c2c1

>  <score_type>  (75) 
oracle

>  <origin>  (75) 
adg

>  <m_score__min__energy>  (75) 
-8.9800000000000004

>  <m_primary>  (75) 
energy

$$$$
78:0
     RDKit          3D

 47 48  0  0  0  0  0  0  0  0999 V2000
   -1.6510   19.4260  -27.3700 C   0  0  0  0  0  0  0  0  0  0  0  0
   -0.1020   20.3790  -27.4700 S   0  0  0  0  0  0  0  0  0  0  0  0
   -0.3320   20.9590  -29.1860 C   0  0  0  0  0  0  0  0  0  0  0  0
   -1.0500   22.2820  -29.2250 C   0  0  0  0  0  0  0  0  0  0  0  0
   -0.5510   23.2120  -29.8400 O   0  0  0  0  0  0  0  0  0  0  0  0
   -2.3810   22.4660  -28.5190 C   0  0  2  0  0  0  0  0  0  0  0  0
   -3.4750   22.0270  -29.3860 N   0  0  0  0  0  0  0  0  0  0  0  0
   -3.8070   22.6360  -30.6380 C   0  0  0  0  0  0  0  0  0  0  0  0
   -2.9020   22.8890  -31.4780 O   0  0  0  0  0  0  0  0  0  0  0  0
   -5.1790   22.9230  -30.9550 N   0  0  0  0  0  0  0  0  0  0  0  0
   -5.8350   24.1120  -30.8270 C   0  0  0  0  0  0  0  0  0  0  0  0
   -5.2210   25.4100  -30.4840 C   0  0  0  0  0  0  0  0  0  0  0  0
   -3.8670   25.6730  -30.8460 N   0  0  0  0  0  0  0  0  0  0  0  0
   -5.8650   26.2750  -29.8360 O   0  0  0  0  0  0  0  0  0  0  0  0
   -7.1830   23.9630  -31.1480 C   0  0  0  0  0  0  0  0  0  0  0  0
   -7.3330   22.6390  -31.4880 C   0  0  0  0  0  0  0  0  0  0  0  0
   -8.4730   21.9380  -31.8680 C   0  0  0  0  0  0  0  0  0  0  0  0
   -8.3450   20.5630  -32.1270 C   0  0  0  0  0  0  0  0  0  0  0  0
   -7.0860   19.9170  -32.0110 C   0  0  0  0  0  0  0  0  0  0  0  0
   -6.9750   18.4300  -32.2290 C   0  0  0  0  0  0  0  0  0  0  0  0
   -6.4860   18.1930  -33.5000 F   0  0  0  0  0  0  0  0  0  0  0  0
   -6.1190   17.8610  -31.3020 F   0  0  0  0  0  0  0  0  0  0  0  0
   -8.2150   17.8250  -32.1030 F   0  0  0  0  0  0  0  0  0  0  0  0
   -5.9570   20.6610  -31.5960 C   0  0  0  0  0  0  0  0  0  0  0  0
   -6.1100   22.0330  -31.3640 C   0  0  0  0  0  0  0  0  0  0  0  0
   -2.6350   23.9380  -28.0630 C   0  0  0  0  0  0  0  0  0  0  0  0
   -4.1180   24.1590  -27.6970 C   0  0  0  0  0  0  0  0  0  0  0  0
   -1.7610   24.3190  -26.8510 C   0  0  0  0  0  0  0  0  0  0  0  0
   -2.2930   24.8130  -29.1140 O   0  0  0  0  0  0  0  0  0  0  0  0
   -1.9143   19.2640  -26.3143 H   0  0  0  0  0  0  0  0  0  0  0  0
   -2.4577   19.9842  -27.8676 H   0  0  0  0  0  0  0  0  0  0  0  0
   -1.5164   18.4543  -27.8676 H   0  0  0  0  0  0  0  0  0  0  0  0
    0.6536   21.0721  -29.6611 H   0  0  0  0  0  0  0  0  0  0  0  0
   -0.9408   20.2177  -29.7243 H   0  0  0  0  0  0  0  0  0  0  0  0
   -2.3414   21.8474  -27.6103 H   0  0  0  0  0  0  0  0  0  0  0  0
   -3.1430   24.9220  -30.7980 H   0  0  0  0  0  0  0  0  0  0  0  0
   -7.9618   24.7397  -31.1326 H   0  0  0  0  0  0  0  0  0  0  0  0
   -9.4448   22.4447  -31.9628 H   0  0  0  0  0  0  0  0  0  0  0  0
   -9.2300   19.9806  -32.4229 H   0  0  0  0  0  0  0  0  0  0  0  0
   -4.9810   20.1727  -31.4587 H   0  0  0  0  0  0  0  0  0  0  0  0
   -4.2271   24.1753  -26.6025 H   0  0  0  0  0  0  0  0  0  0  0  0
   -4.4596   25.1180  -28.1138 H   0  0  0  0  0  0  0  0  0  0  0  0
   -4.7243   23.3413  -28.1138 H   0  0  0  0  0  0  0  0  0  0  0  0
   -2.3004   24.0839  -25.9216 H   0  0  0  0  0  0  0  0  0  0  0  0
   -0.8207   23.7491  -26.8834 H   0  0  0  0  0  0  0  0  0  0  0  0
   -1.5385   25.3958  -26.8834 H   0  0  0  0  0  0  0  0  0  0  0  0
   -2.4060   24.3250  -29.9720 H   0  0  0  0  0  0  0  0  0  0  0  0
  1  2  1  0
  2  3  1  0
  3  4  1  0
  4  5  2  0
  4  6  1  0
  6  7  1  0
  7  8  1  0
  8  9  2  0
  8 10  1  0
 10 11  1  0
 11 12  1  0
 12 13  1  0
 12 14  2  0
 11 15  2  0
 15 16  1  0
 16 17  2  0
 17 18  1  0
 18 19  2  0
 19 20  1  0
 20 21  1  0
 20 22  1  0
 20 23  1  0
 19 24  1  0
 24 25  2  0
  6 26  1  0
 26 27  1  0
 26 28  1  0
 26 29  1  0
 25 10  1  0
 25 16  1  0
  1 30  1  0
  1 31  1  0
  1 32  1  0
  3 33  1  0
  3 34  1  0
  6 35  1  1
 13 36  1  0
 15 37  1  0
 17 38  1  0
 18 39  1  0
 24 40  1  0
 27 41  1  0
 27 42  1  0
 27 43  1  0
 28 44  1  0
 28 45  1  0
 28 46  1  0
 29 47  1  0
M  CHG  2   7  -1  13  -1
M  END
>  <UniqueID>  (76) 
76

>  <SMILES>  (76) 
CSCC(=O)[C@H]([N-]C(=O)n1c(C([NH-])=O)cc2ccc(C(F)(F)F)cc21)C(C)(C)O

>  <Energy>  (76) 
77.52415590628978

>  <Genealogy>  (76) 
CSCC(=O)C([N-]C(=O)n1c(C([NH-])=O)cc2ccc(C(F)(F)F)cc21)C(C)(C)O (protonated)
CSCC(=O)[C@H]([N-]C(=O)n1c(C([NH-])=O)cc2ccc(C(F)(F)F)cc21)C(C)(C)O (chirality)
CSCC(=O)[C@H]([N-]C(=O)n1c(C([NH-])=O)cc2ccc(C(F)(F)F)cc21)C(C)(C)O (3D coordinates assigned)
CSCC(=O)[C@H]([N-]C(=O)n1c(C([NH-])=O)cc2ccc(C(F)(F)F)cc21)C(C)(C)O (optimized conformer: 77.52415590628978 kcal/mol)

>  <smiles>  (76) 
CSCC(=O)C(NC(=O)n1c(C(N)=O)cc2ccc(C(F)(F)F)cc21)C(C)(C)O

>  <score_type>  (76) 
oracle

>  <origin>  (76) 
adg

>  <m_score__min__energy>  (76) 
-11.99

>  <m_primary>  (76) 
energy

$$$$
79:0
     RDKit          3D

 33 34  0  0  0  0  0  0  0  0999 V2000
   -6.7680   16.8270  -34.0800 N   0  0  0  0  0  0  0  0  0  0  0  0
   -5.8760   17.8380  -34.5540 C   0  0  0  0  0  0  0  0  0  0  0  0
   -5.3500   17.7070  -35.6910 O   0  0  0  0  0  0  0  0  0  0  0  0
   -5.5410   19.0070  -33.7110 C   0  0  0  0  0  0  0  0  0  0  0  0
   -4.2820   19.6020  -33.6760 C   0  0  0  0  0  0  0  0  0  0  0  0
   -4.4190   20.7010  -32.8600 C   0  0  0  0  0  0  0  0  0  0  0  0
   -3.4790   21.6500  -32.4730 C   0  0  0  0  0  0  0  0  0  0  0  0
   -3.8920   22.6700  -31.6020 C   0  0  0  0  0  0  0  0  0  0  0  0
   -5.2250   22.7150  -31.1230 C   0  0  0  0  0  0  0  0  0  0  0  0
   -5.6610   23.8260  -30.2040 C   0  0  0  0  0  0  0  0  0  0  0  0
   -4.9050   25.0920  -30.5100 C   0  0  0  0  0  0  0  0  0  0  0  0
   -5.5250   26.0630  -31.0200 O   0  0  0  0  0  0  0  0  0  0  0  0
   -3.5110   25.2550  -30.2060 N   0  0  0  0  0  0  0  0  0  0  0  0
   -2.7690   24.5620  -29.1580 C   0  0  0  0  0  0  0  0  0  0  0  0
   -1.4020   25.1480  -29.0010 C   0  0  0  0  0  0  0  0  0  0  0  0
   -0.3920   24.3980  -28.9400 O   0  0  0  0  0  0  0  0  0  0  0  0
   -1.2370   26.5270  -28.9600 O   0  0  0  0  0  0  0  0  0  0  0  0
   -6.1560   21.7380  -31.5450 C   0  0  0  0  0  0  0  0  0  0  0  0
   -5.7200   20.7430  -32.4300 C   0  0  0  0  0  0  0  0  0  0  0  0
   -6.4230   19.7090  -32.9440 N   0  0  0  0  0  0  0  0  0  0  0  0
   -7.7950   19.3810  -32.6700 C   0  0  0  0  0  0  0  0  0  0  0  0
   -8.7200   20.1630  -33.0160 O   0  0  0  0  0  0  0  0  0  0  0  0
   -8.1170   18.2060  -32.0030 O   0  0  0  0  0  0  0  0  0  0  0  0
   -6.9660   15.9870  -34.6680 H   0  0  0  0  0  0  0  0  0  0  0  0
   -7.2630   16.9260  -33.1670 H   0  0  0  0  0  0  0  0  0  0  0  0
   -3.3709   19.2645  -34.1918 H   0  0  0  0  0  0  0  0  0  0  0  0
   -2.4426   21.6026  -32.8387 H   0  0  0  0  0  0  0  0  0  0  0  0
   -3.1741   23.4420  -31.2881 H   0  0  0  0  0  0  0  0  0  0  0  0
   -6.7377   24.0059  -30.3392 H   0  0  0  0  0  0  0  0  0  0  0  0
   -5.4531   23.5301  -29.1651 H   0  0  0  0  0  0  0  0  0  0  0  0
   -3.3137   24.6569  -28.2071 H   0  0  0  0  0  0  0  0  0  0  0  0
   -2.6693   23.5027  -29.4372 H   0  0  0  0  0  0  0  0  0  0  0  0
   -7.1961   21.7586  -31.1876 H   0  0  0  0  0  0  0  0  0  0  0  0
  1  2  1  0
  2  3  2  0
  2  4  1  0
  4  5  2  0
  5  6  1  0
  6  7  2  0
  7  8  1  0
  8  9  2  0
  9 10  1  0
 10 11  1  0
 11 12  2  0
 11 13  1  0
 13 14  1  0
 14 15  1  0
 15 16  2  0
 15 17  1  0
  9 18  1  0
 18 19  2  0
 19 20  1  0
 20 21  1  0
 21 22  2  0
 21 23  1  0
 20  4  1  0
 19  6  1  0
  1 24  1  0
  1 25  1  0
  5 26  1  0
  7 27  1  0
  8 28  1  0
 10 29  1  0
 10 30  1  0
 14 31  1  0
 14 32  1  0
 18 33  1  0
M  CHG  3  13  -1  17  -1  23  -1
M  END
>  <UniqueID>  (77) 
77

>  <SMILES>  (77) 
NC(=O)c1cc2ccc(CC(=O)[N-]CC(=O)[O-])cc2n1C(=O)[O-]

>  <Energy>  (77) 
69.52855493375083

>  <Genealogy>  (77) 
NC(=O)c1cc2ccc(CC(=O)[N-]CC(=O)[O-])cc2n1C(=O)[O-] (protonated)
NC(=O)c1cc2ccc(CC(=O)[N-]CC(=O)[O-])cc2n1C(=O)[O-] (3D coordinates assigned)
NC(=O)c1cc2ccc(CC(=O)[N-]CC(=O)[O-])cc2n1C(=O)[O-] (optimized conformer: 69.52855493375083 kcal/mol)

>  <smiles>  (77) 
NC(=O)c1cc2ccc(CC(=O)NCC(=O)O)cc2n1C(=O)O

>  <score_type>  (77) 
oracle

>  <origin>  (77) 
adg

>  <m_score__min__energy>  (77) 
-11.300000000000001

>  <m_primary>  (77) 
energy

$$$$
80:0
     RDKit          3D

 45 47  0  0  0  0  0  0  0  0999 V2000
   -3.1160   25.0530  -30.6130 H   0  0  0  0  0  0  0  0  0  0  0  0
   -3.9280   25.6700  -30.8360 N   0  0  0  0  0  0  0  0  0  0  0  0
   -5.2630   25.2600  -30.5480 C   0  0  0  0  0  0  0  0  0  0  0  0
   -6.0120   26.0230  -29.8820 O   0  0  0  0  0  0  0  0  0  0  0  0
   -5.7480   23.9460  -31.0180 C   0  0  0  0  0  0  0  0  0  0  0  0
   -7.0500   23.7030  -31.4570 C   0  0  0  0  0  0  0  0  0  0  0  0
   -7.8845   24.4185  -31.4982 H   0  0  0  0  0  0  0  0  0  0  0  0
   -7.0680   22.3760  -31.8280 C   0  0  0  0  0  0  0  0  0  0  0  0
   -8.1060   21.5960  -32.3300 C   0  0  0  0  0  0  0  0  0  0  0  0
   -9.1042   22.0240  -32.5046 H   0  0  0  0  0  0  0  0  0  0  0  0
   -7.8380   20.2430  -32.6070 C   0  0  0  0  0  0  0  0  0  0  0  0
   -8.6363   19.6022  -33.0097 H   0  0  0  0  0  0  0  0  0  0  0  0
   -6.5500   19.6950  -32.3730 C   0  0  0  0  0  0  0  0  0  0  0  0
   -6.2950   18.3070  -32.6600 N   0  0  0  0  0  0  0  0  0  0  0  0
   -6.4890   17.7960  -34.0220 C   0  0  0  0  0  0  0  0  0  0  0  0
   -7.5433   17.5138  -34.1595 H   0  0  0  0  0  0  0  0  0  0  0  0
   -6.2175   18.5786  -34.7458 H   0  0  0  0  0  0  0  0  0  0  0  0
   -5.6000   16.5680  -34.2470 C   0  0  0  0  0  0  0  0  0  0  0  0
   -5.8517   16.1141  -35.2169 H   0  0  0  0  0  0  0  0  0  0  0  0
   -4.5479   16.8888  -34.2343 H   0  0  0  0  0  0  0  0  0  0  0  0
   -5.7930   15.6100  -33.2230 O   0  0  0  0  0  0  0  0  0  0  0  0
   -5.3610   16.1410  -31.9860 C   0  0  0  0  0  0  0  0  0  0  0  0
   -5.4251   15.3585  -31.2156 H   0  0  0  0  0  0  0  0  0  0  0  0
   -4.3227   16.4875  -32.0945 H   0  0  0  0  0  0  0  0  0  0  0  0
   -6.2340   17.3290  -31.5690 C   0  0  0  0  0  0  0  0  0  0  0  0
   -7.2494   16.9735  -31.3399 H   0  0  0  0  0  0  0  0  0  0  0  0
   -5.7985   17.8050  -30.6781 H   0  0  0  0  0  0  0  0  0  0  0  0
   -5.5230   20.5220  -31.8670 C   0  0  0  0  0  0  0  0  0  0  0  0
   -4.5167   20.1193  -31.6795 H   0  0  0  0  0  0  0  0  0  0  0  0
   -5.8160   21.8650  -31.6100 C   0  0  0  0  0  0  0  0  0  0  0  0
   -4.9960   22.8160  -31.1200 N   0  0  0  0  0  0  0  0  0  0  0  0
   -3.6260   22.6380  -30.7300 C   0  0  0  0  0  0  0  0  0  0  0  0
   -2.7120   23.0540  -31.4920 O   0  0  0  0  0  0  0  0  0  0  0  0
   -3.2680   21.9770  -29.4540 C   0  0  0  0  0  0  0  0  0  0  0  0
   -3.9770   22.5830  -27.9180 S   0  0  0  0  0  0  0  0  0  0  0  0
   -2.6710   23.7900  -27.6920 C   0  0  0  0  0  0  0  0  0  0  0  0
   -2.2017   23.9173  -26.7053 H   0  0  0  0  0  0  0  0  0  0  0  0
   -2.2850   24.5060  -28.6870 N   0  0  0  0  0  0  0  0  0  0  0  0
   -1.2280   25.4790  -28.5590 C   0  0  0  0  0  0  0  0  0  0  0  0
   -1.0270   25.6640  -27.4935 H   0  0  0  0  0  0  0  0  0  0  0  0
   -0.3172   25.0967  -29.0430 H   0  0  0  0  0  0  0  0  0  0  0  0
   -1.5337   26.4183  -29.0430 H   0  0  0  0  0  0  0  0  0  0  0  0
   -2.4080   20.9560  -29.4060 C   0  0  0  0  0  0  0  0  0  0  0  0
   -1.9617   20.5687  -30.3338 H   0  0  0  0  0  0  0  0  0  0  0  0
   -2.1461   20.5025  -28.4387 H   0  0  0  0  0  0  0  0  0  0  0  0
  1  2  1  0
  2  3  1  0
  3  4  2  0
  3  5  1  0
  5  6  2  0
  6  7  1  0
  6  8  1  0
  8  9  2  0
  9 10  1  0
  9 11  1  0
 11 12  1  0
 11 13  2  0
 13 14  1  0
 14 15  1  0
 15 16  1  0
 15 17  1  0
 15 18  1  0
 18 19  1  0
 18 20  1  0
 18 21  1  0
 21 22  1  0
 22 23  1  0
 22 24  1  0
 22 25  1  0
 25 26  1  0
 25 27  1  0
 13 28  1  0
 28 29  1  0
 28 30  2  0
 30 31  1  0
 31 32  1  0
 32 33  2  0
 32 34  1  0
 34 35  1  0
 35 36  1  0
 36 37  1  0
 36 38  2  0
 38 39  1  0
 39 40  1  0
 39 41  1  0
 39 42  1  0
 34 43  2  0
 43 44  1  0
 43 45  1  0
 31  5  1  0
 30  8  1  0
 25 14  1  0
M  CHG  1   2  -1
M  END
>  <UniqueID>  (78) 
78

>  <SMILES>  (78) 
C=C(S/C=N/C)C(=O)n1c(C([NH-])=O)cc2ccc(N3CCOCC3)cc21

>  <Energy>  (78) 
82.8126714113421

>  <Genealogy>  (78) 
C=C(S/C=N/C)C(=O)n1c(C([NH-])=O)cc2ccc(N3CCOCC3)cc21 (protonated)
C=C(S/C=N/C)C(=O)n1c(C([NH-])=O)cc2ccc(N3CCOCC3)cc21 (cis-trans isomerization)
C=C(S/C=N/C)C(=O)n1c(C([NH-])=O)cc2ccc(N3CCOCC3)cc21 (3D coordinates assigned)
C=C(S/C=N/C)C(=O)n1c(C([NH-])=O)cc2ccc(N3CCOCC3)cc21 (nonaromatic ring conformer: 82.8126714113421 kcal/mol)

>  <smiles>  (78) 
C=C(S/C=N/C)C(=O)n1c(C(N)=O)cc2ccc(N3CCOCC3)cc21

>  <score_type>  (78) 
oracle

>  <origin>  (78) 
adg

>  <m_score__min__energy>  (78) 
-11.289999999999999

>  <m_primary>  (78) 
energy

$$$$
81:0
     RDKit          3D

 37 38  0  0  0  0  0  0  0  0999 V2000
   -6.0970   18.1300  -34.3820 C   0  0  0  0  0  0  0  0  0  0  0  0
   -6.4010   18.3840  -32.9690 N   0  0  0  0  0  0  0  0  0  0  0  0
   -6.4770   17.2480  -32.0420 C   0  0  0  0  0  0  0  0  0  0  0  0
   -6.6320   19.7360  -32.4980 C   0  0  0  0  0  0  0  0  0  0  0  0
   -7.9520   20.2610  -32.4230 C   0  0  0  0  0  0  0  0  0  0  0  0
   -8.1870   21.5700  -31.9700 C   0  0  0  0  0  0  0  0  0  0  0  0
   -7.0900   22.3400  -31.6040 C   0  0  0  0  0  0  0  0  0  0  0  0
   -7.0340   23.6250  -31.1150 C   0  0  0  0  0  0  0  0  0  0  0  0
   -5.6810   23.8860  -30.9130 C   0  0  0  0  0  0  0  0  0  0  0  0
   -5.1610   25.1880  -30.4450 C   0  0  0  0  0  0  0  0  0  0  0  0
   -3.8830   25.6630  -30.8600 N   0  0  0  0  0  0  0  0  0  0  0  0
   -5.8700   25.9080  -29.6920 O   0  0  0  0  0  0  0  0  0  0  0  0
   -4.9290   22.8030  -31.2610 N   0  0  0  0  0  0  0  0  0  0  0  0
   -3.5060   22.6530  -31.1350 C   0  0  0  0  0  0  0  0  0  0  0  0
   -2.8220   22.3420  -32.1470 O   0  0  0  0  0  0  0  0  0  0  0  0
   -2.8050   22.8910  -29.8290 C   0  0  0  0  0  0  0  0  0  0  0  0
   -1.5730   23.5330  -30.0590 O   0  0  0  0  0  0  0  0  0  0  0  0
   -1.1920   24.4730  -28.6890 P   0  0  2  0  0  0  0  0  0  0  0  0
   -1.9910   23.9660  -27.5120 O   0  0  0  0  0  0  0  0  0  0  0  0
   -1.5930   26.0940  -28.9670 O   0  0  0  0  0  0  0  0  0  0  0  0
    0.4580   24.3450  -28.3300 O   0  0  0  0  0  0  0  0  0  0  0  0
   -5.8080   21.8650  -31.6800 C   0  0  0  0  0  0  0  0  0  0  0  0
   -5.5460   20.5590  -32.1070 C   0  0  0  0  0  0  0  0  0  0  0  0
   -5.2547   17.4263  -34.4551 H   0  0  0  0  0  0  0  0  0  0  0  0
   -6.9801   17.6974  -34.8750 H   0  0  0  0  0  0  0  0  0  0  0  0
   -5.8283   19.0759  -34.8750 H   0  0  0  0  0  0  0  0  0  0  0  0
   -6.4523   17.6176  -31.0063 H   0  0  0  0  0  0  0  0  0  0  0  0
   -7.4140   16.6976  -32.2126 H   0  0  0  0  0  0  0  0  0  0  0  0
   -5.6217   16.5777  -32.2126 H   0  0  0  0  0  0  0  0  0  0  0  0
   -8.8025   19.6319  -32.7246 H   0  0  0  0  0  0  0  0  0  0  0  0
   -9.2086   21.9730  -31.9070 H   0  0  0  0  0  0  0  0  0  0  0  0
   -7.8791   24.3027  -30.9240 H   0  0  0  0  0  0  0  0  0  0  0  0
   -3.0060   25.2930  -30.4310 H   0  0  0  0  0  0  0  0  0  0  0  0
   -3.4336   23.5261  -29.1876 H   0  0  0  0  0  0  0  0  0  0  0  0
   -2.6246   21.9261  -29.3325 H   0  0  0  0  0  0  0  0  0  0  0  0
    0.8000   23.6430  -28.9390 H   0  0  0  0  0  0  0  0  0  0  0  0
   -4.5149   20.1771  -32.1388 H   0  0  0  0  0  0  0  0  0  0  0  0
  1  2  1  0
  2  3  1  0
  2  4  1  0
  4  5  2  0
  5  6  1  0
  6  7  2  0
  7  8  1  0
  8  9  2  0
  9 10  1  0
 10 11  1  0
 10 12  2  0
  9 13  1  0
 13 14  1  0
 14 15  2  0
 14 16  1  0
 16 17  1  0
 17 18  1  0
 18 19  2  0
 18 20  1  6
 18 21  1  0
 13 22  1  0
 22 23  2  0
 23  4  1  0
 22  7  1  0
  1 24  1  0
  1 25  1  0
  1 26  1  0
  3 27  1  0
  3 28  1  0
  3 29  1  0
  5 30  1  0
  6 31  1  0
  8 32  1  0
 11 33  1  0
 16 34  1  0
 16 35  1  0
 21 36  1  0
 23 37  1  0
M  CHG  2  11  -1  20  -1
M  END
>  <UniqueID>  (79) 
79

>  <SMILES>  (79) 
CN(C)c1ccc2cc(C([NH-])=O)n(C(=O)CO[P@](=O)([O-])O)c2c1

>  <Energy>  (79) 
74.47963427159654

>  <Genealogy>  (79) 
CN(C)c1ccc2cc(C([NH-])=O)n(C(=O)COP(=O)([O-])O)c2c1 (protonated)
CN(C)c1ccc2cc(C([NH-])=O)n(C(=O)CO[P@](=O)([O-])O)c2c1 (chirality)
CN(C)c1ccc2cc(C([NH-])=O)n(C(=O)CO[P@](=O)([O-])O)c2c1 (3D coordinates assigned)
CN(C)c1ccc2cc(C([NH-])=O)n(C(=O)CO[P@](=O)([O-])O)c2c1 (optimized conformer: 74.47963427159654 kcal/mol)

>  <smiles>  (79) 
CN(C)c1ccc2cc(C(N)=O)n(C(=O)COP(=O)(O)O)c2c1

>  <score_type>  (79) 
oracle

>  <origin>  (79) 
adg

>  <m_score__min__energy>  (79) 
-12.57

>  <m_primary>  (79) 
energy

$$$$
82:0
     RDKit          3D

 32 33  0  0  0  0  0  0  0  0999 V2000
   -2.6210   20.8980  -32.6970 C   0  0  0  0  0  0  0  0  0  0  0  0
   -3.2370   22.1790  -32.7140 O   0  0  0  0  0  0  0  0  0  0  0  0
   -3.7820   22.7680  -31.5680 C   0  0  0  0  0  0  0  0  0  0  0  0
   -3.0300   23.1510  -30.6310 O   0  0  0  0  0  0  0  0  0  0  0  0
   -5.2020   22.9600  -31.4720 N   0  0  0  0  0  0  0  0  0  0  0  0
   -5.8620   24.0090  -30.9030 C   0  0  0  0  0  0  0  0  0  0  0  0
   -5.2500   25.2630  -30.4220 C   0  0  0  0  0  0  0  0  0  0  0  0
   -3.9440   25.6500  -30.8430 N   0  0  0  0  0  0  0  0  0  0  0  0
   -5.9050   26.0280  -29.6650 O   0  0  0  0  0  0  0  0  0  0  0  0
   -7.2380   23.7800  -30.9080 C   0  0  0  0  0  0  0  0  0  0  0  0
   -7.4010   22.5530  -31.5090 C   0  0  0  0  0  0  0  0  0  0  0  0
   -8.5610   21.8300  -31.7630 C   0  0  0  0  0  0  0  0  0  0  0  0
   -8.4320   20.5690  -32.3680 C   0  0  0  0  0  0  0  0  0  0  0  0
   -7.1560   20.0470  -32.7010 C   0  0  0  0  0  0  0  0  0  0  0  0
   -7.0730   18.7430  -33.3090 N   0  0  0  0  0  0  0  0  0  0  0  0
   -5.8250   18.1040  -33.7280 C   0  0  0  0  0  0  0  0  0  0  0  0
   -6.0710   16.6770  -34.1080 C   0  0  0  0  0  0  0  0  0  0  0  0
   -7.2300   16.1920  -34.0360 O   0  0  0  0  0  0  0  0  0  0  0  0
   -5.0130   15.8740  -34.5170 O   0  0  0  0  0  0  0  0  0  0  0  0
   -5.9980   20.8180  -32.4270 C   0  0  0  0  0  0  0  0  0  0  0  0
   -6.1580   22.0770  -31.8380 C   0  0  0  0  0  0  0  0  0  0  0  0
   -2.4675   20.5788  -31.6556 H   0  0  0  0  0  0  0  0  0  0  0  0
   -3.2688   20.1728  -33.2111 H   0  0  0  0  0  0  0  0  0  0  0  0
   -1.6500   20.9512  -33.2111 H   0  0  0  0  0  0  0  0  0  0  0  0
   -3.0930   25.2910  -30.3540 H   0  0  0  0  0  0  0  0  0  0  0  0
   -8.0254   24.4400  -30.5150 H   0  0  0  0  0  0  0  0  0  0  0  0
   -9.5496   22.2332  -31.4983 H   0  0  0  0  0  0  0  0  0  0  0  0
   -9.3335   19.9778  -32.5867 H   0  0  0  0  0  0  0  0  0  0  0  0
   -7.9570   18.2100  -33.4690 H   0  0  0  0  0  0  0  0  0  0  0  0
   -5.4143   18.6440  -34.5939 H   0  0  0  0  0  0  0  0  0  0  0  0
   -5.1113   18.1324  -32.8914 H   0  0  0  0  0  0  0  0  0  0  0  0
   -4.9964   20.4349  -32.6720 H   0  0  0  0  0  0  0  0  0  0  0  0
  1  2  1  0
  2  3  1  0
  3  4  2  0
  3  5  1  0
  5  6  1  0
  6  7  1  0
  7  8  1  0
  7  9  2  0
  6 10  2  0
 10 11  1  0
 11 12  2  0
 12 13  1  0
 13 14  2  0
 14 15  1  0
 15 16  1  0
 16 17  1  0
 17 18  2  0
 17 19  1  0
 14 20  1  0
 20 21  2  0
 21  5  1  0
 21 11  1  0
  1 22  1  0
  1 23  1  0
  1 24  1  0
  8 25  1  0
 10 26  1  0
 12 27  1  0
 13 28  1  0
 15 29  1  0
 16 30  1  0
 16 31  1  0
 20 32  1  0
M  CHG  2   8  -1  19  -1
M  END
>  <UniqueID>  (80) 
80

>  <SMILES>  (80) 
COC(=O)n1c(C([NH-])=O)cc2ccc(NCC(=O)[O-])cc21

>  <Energy>  (80) 
68.3160614613753

>  <Genealogy>  (80) 
COC(=O)n1c(C([NH-])=O)cc2ccc(NCC(=O)[O-])cc21 (protonated)
COC(=O)n1c(C([NH-])=O)cc2ccc(NCC(=O)[O-])cc21 (3D coordinates assigned)
COC(=O)n1c(C([NH-])=O)cc2ccc(NCC(=O)[O-])cc21 (optimized conformer: 68.3160614613753 kcal/mol)

>  <smiles>  (80) 
COC(=O)n1c(C(N)=O)cc2ccc(NCC(=O)O)cc21

>  <score_type>  (80) 
oracle

>  <origin>  (80) 
adg

>  <m_score__min__energy>  (80) 
-9.0099999999999998

>  <m_primary>  (80) 
energy

$$$$
83:0
     RDKit          3D

 35 37  0  0  0  0  0  0  0  0999 V2000
   -3.8810   25.6510  -30.8390 N   0  0  0  0  0  0  0  0  0  0  0  0
   -5.1200   25.0990  -30.4030 C   0  0  0  0  0  0  0  0  0  0  0  0
   -5.7350   25.6450  -29.4480 O   0  0  0  0  0  0  0  0  0  0  0  0
   -5.6700   23.8720  -31.0180 C   0  0  0  0  0  0  0  0  0  0  0  0
   -7.0340   23.6110  -31.1130 C   0  0  0  0  0  0  0  0  0  0  0  0
   -7.1310   22.3640  -31.6830 C   0  0  0  0  0  0  0  0  0  0  0  0
   -8.2560   21.6250  -32.0190 C   0  0  0  0  0  0  0  0  0  0  0  0
   -8.0680   20.3760  -32.6300 C   0  0  0  0  0  0  0  0  0  0  0  0
   -6.7620   19.8790  -32.9060 C   0  0  0  0  0  0  0  0  0  0  0  0
   -6.5820   18.5860  -33.5480 N   0  0  0  0  0  0  0  0  0  0  0  0
   -7.0100   17.3450  -32.8780 C   0  0  0  0  0  0  0  0  0  0  0  0
   -6.0700   16.9470  -31.7770 C   0  0  0  0  0  0  0  0  0  0  0  0
   -5.2390   16.0120  -31.9350 O   0  0  0  0  0  0  0  0  0  0  0  0
   -6.1100   17.6240  -30.5660 O   0  0  0  0  0  0  0  0  0  0  0  0
   -5.7330   18.4660  -34.7430 C   0  0  0  0  0  0  0  0  0  0  0  0
   -5.1250   17.0800  -34.9170 C   0  0  0  0  0  0  0  0  0  0  0  0
   -4.2510   18.2380  -34.4710 C   0  0  0  0  0  0  0  0  0  0  0  0
   -5.6430   20.6770  -32.5500 C   0  0  0  0  0  0  0  0  0  0  0  0
   -5.8600   21.9110  -31.9220 C   0  0  0  0  0  0  0  0  0  0  0  0
   -4.9480   22.8270  -31.5180 N   0  0  0  0  0  0  0  0  0  0  0  0
   -3.5190   22.7560  -31.6610 C   0  0  0  0  0  0  0  0  0  0  0  0
   -2.7550   23.1550  -30.7450 O   0  0  0  0  0  0  0  0  0  0  0  0
   -2.9730   25.2900  -30.4700 H   0  0  0  0  0  0  0  0  0  0  0  0
   -7.8604   24.2651  -30.7981 H   0  0  0  0  0  0  0  0  0  0  0  0
   -9.2665   22.0073  -31.8123 H   0  0  0  0  0  0  0  0  0  0  0  0
   -8.9450   19.7697  -32.9007 H   0  0  0  0  0  0  0  0  0  0  0  0
   -8.0119   17.4994  -32.4510 H   0  0  0  0  0  0  0  0  0  0  0  0
   -7.0163   16.5394  -33.6270 H   0  0  0  0  0  0  0  0  0  0  0  0
   -6.3023   19.1668  -35.3714 H   0  0  0  0  0  0  0  0  0  0  0  0
   -5.3765   16.2767  -34.2089 H   0  0  0  0  0  0  0  0  0  0  0  0
   -5.0846   16.3464  -35.7357 H   0  0  0  0  0  0  0  0  0  0  0  0
   -3.8696   18.2735  -33.4399 H   0  0  0  0  0  0  0  0  0  0  0  0
   -3.3159   18.6902  -34.8329 H   0  0  0  0  0  0  0  0  0  0  0  0
   -4.6207   20.3318  -32.7639 H   0  0  0  0  0  0  0  0  0  0  0  0
   -3.0872   22.3463  -32.5860 H   0  0  0  0  0  0  0  0  0  0  0  0
  1  2  1  0
  2  3  2  0
  2  4  1  0
  4  5  2  0
  5  6  1  0
  6  7  2  0
  7  8  1  0
  8  9  2  0
  9 10  1  0
 10 11  1  0
 11 12  1  0
 12 13  2  0
 12 14  1  0
 10 15  1  0
 15 16  1  0
 16 17  1  0
  9 18  1  0
 18 19  2  0
 19 20  1  0
 20 21  1  0
 21 22  2  0
 20  4  1  0
 19  6  1  0
 17 15  1  0
  1 23  1  0
  5 24  1  0
  7 25  1  0
  8 26  1  0
 11 27  1  0
 11 28  1  0
 15 29  1  0
 16 30  1  0
 16 31  1  0
 17 32  1  0
 17 33  1  0
 18 34  1  0
 21 35  1  0
M  CHG  2   1  -1  14  -1
M  END
>  <UniqueID>  (81) 
81

>  <SMILES>  (81) 
[NH-]C(=O)c1cc2ccc(N(CC(=O)[O-])C3CC3)cc2n1C=O

>  <Energy>  (81) 
341.83047530055774

>  <Genealogy>  (81) 
[NH-]C(=O)c1cc2ccc(N(CC(=O)[O-])C3CC3)cc2n1C=O (protonated)
[NH-]C(=O)c1cc2ccc(N(CC(=O)[O-])C3CC3)cc2n1C=O (3D coordinates assigned)
[NH-]C(=O)c1cc2ccc(N(CC(=O)[O-])C3CC3)cc2n1C=O (nonaromatic ring conformer: 341.83047530055774 kcal/mol)

>  <smiles>  (81) 
NC(=O)c1cc2ccc(N(CC(=O)O)C3CC3)cc2n1C=O

>  <score_type>  (81) 
oracle

>  <origin>  (81) 
adg

>  <m_score__min__energy>  (81) 
-9.6300000000000008

>  <m_primary>  (81) 
energy

$$$$
84:0
     RDKit          3D

 41 42  0  0  0  0  0  0  0  0999 V2000
   -7.1990   17.3330  -32.8150 C   0  0  0  0  0  0  0  0  0  0  0  0
   -6.5620   18.5210  -33.3950 N   0  0  0  0  0  0  0  0  0  0  0  0
   -5.7280   18.3650  -34.5940 C   0  0  0  0  0  0  0  0  0  0  0  0
   -6.7500   19.8290  -32.7940 C   0  0  0  0  0  0  0  0  0  0  0  0
   -8.0600   20.3340  -32.5490 C   0  0  0  0  0  0  0  0  0  0  0  0
   -8.2530   21.6030  -31.9770 C   0  0  0  0  0  0  0  0  0  0  0  0
   -7.1290   22.3490  -31.6490 C   0  0  0  0  0  0  0  0  0  0  0  0
   -7.0310   23.6100  -31.1040 C   0  0  0  0  0  0  0  0  0  0  0  0
   -5.6650   23.8610  -30.9970 C   0  0  0  0  0  0  0  0  0  0  0  0
   -5.1080   25.0800  -30.3750 C   0  0  0  0  0  0  0  0  0  0  0  0
   -3.8650   25.6060  -30.8360 N   0  0  0  0  0  0  0  0  0  0  0  0
   -5.7330   25.6840  -29.4650 O   0  0  0  0  0  0  0  0  0  0  0  0
   -4.9470   22.8000  -31.4650 N   0  0  0  0  0  0  0  0  0  0  0  0
   -3.5210   22.6810  -31.5760 C   0  0  0  0  0  0  0  0  0  0  0  0
   -3.0100   22.1530  -32.6020 O   0  0  0  0  0  0  0  0  0  0  0  0
   -2.7040   23.1320  -30.5350 O   0  0  0  0  0  0  0  0  0  0  0  0
   -1.5110   22.4610  -30.1340 C   0  0  0  0  0  0  0  0  0  0  0  0
   -0.5760   23.3790  -29.6050 O   0  0  0  0  0  0  0  0  0  0  0  0
   -0.8160   23.6150  -28.2280 C   0  0  0  0  0  0  0  0  0  0  0  0
   -1.5090   24.9610  -28.0450 C   0  0  0  0  0  0  0  0  0  0  0  0
   -1.5380   25.6510  -29.2640 O   0  0  0  0  0  0  0  0  0  0  0  0
   -5.8590   21.8820  -31.8560 C   0  0  0  0  0  0  0  0  0  0  0  0
   -5.6340   20.6310  -32.4420 C   0  0  0  0  0  0  0  0  0  0  0  0
   -7.1645   17.3974  -31.7174 H   0  0  0  0  0  0  0  0  0  0  0  0
   -8.2465   17.2800  -33.1464 H   0  0  0  0  0  0  0  0  0  0  0  0
   -6.6635   16.4311  -33.1464 H   0  0  0  0  0  0  0  0  0  0  0  0
   -4.6877   18.1704  -34.2942 H   0  0  0  0  0  0  0  0  0  0  0  0
   -6.1010   17.5210  -35.1928 H   0  0  0  0  0  0  0  0  0  0  0  0
   -5.7707   19.2867  -35.1928 H   0  0  0  0  0  0  0  0  0  0  0  0
   -8.9343   19.7204  -32.8119 H   0  0  0  0  0  0  0  0  0  0  0  0
   -9.2649   21.9938  -31.7945 H   0  0  0  0  0  0  0  0  0  0  0  0
   -7.8562   24.2773  -30.8146 H   0  0  0  0  0  0  0  0  0  0  0  0
   -2.9610   25.2850  -30.4250 H   0  0  0  0  0  0  0  0  0  0  0  0
   -1.7578   21.7136  -29.3656 H   0  0  0  0  0  0  0  0  0  0  0  0
   -1.0676   21.9715  -31.0136 H   0  0  0  0  0  0  0  0  0  0  0  0
   -1.4583   22.8167  -27.8277 H   0  0  0  0  0  0  0  0  0  0  0  0
    0.1433   23.6255  -27.6899 H   0  0  0  0  0  0  0  0  0  0  0  0
   -2.5385   24.7967  -27.6941 H   0  0  0  0  0  0  0  0  0  0  0  0
   -0.9549   25.5564  -27.3044 H   0  0  0  0  0  0  0  0  0  0  0  0
   -1.8540   24.9980  -29.9420 H   0  0  0  0  0  0  0  0  0  0  0  0
   -4.6094   20.2758  -32.6264 H   0  0  0  0  0  0  0  0  0  0  0  0
  1  2  1  0
  2  3  1  0
  2  4  1  0
  4  5  2  0
  5  6  1  0
  6  7  2  0
  7  8  1  0
  8  9  2  0
  9 10  1  0
 10 11  1  0
 10 12  2  0
  9 13  1  0
 13 14  1  0
 14 15  2  0
 14 16  1  0
 16 17  1  0
 17 18  1  0
 18 19  1  0
 19 20  1  0
 20 21  1  0
 13 22  1  0
 22 23  2  0
 23  4  1  0
 22  7  1  0
  1 24  1  0
  1 25  1  0
  1 26  1  0
  3 27  1  0
  3 28  1  0
  3 29  1  0
  5 30  1  0
  6 31  1  0
  8 32  1  0
 11 33  1  0
 17 34  1  0
 17 35  1  0
 19 36  1  0
 19 37  1  0
 20 38  1  0
 20 39  1  0
 21 40  1  0
 23 41  1  0
M  CHG  1  11  -1
M  END
>  <UniqueID>  (82) 
82

>  <SMILES>  (82) 
CN(C)c1ccc2cc(C([NH-])=O)n(C(=O)OCOCCO)c2c1

>  <Energy>  (82) 
79.80044772107158

>  <Genealogy>  (82) 
CN(C)c1ccc2cc(C([NH-])=O)n(C(=O)OCOCCO)c2c1 (protonated)
CN(C)c1ccc2cc(C([NH-])=O)n(C(=O)OCOCCO)c2c1 (3D coordinates assigned)
CN(C)c1ccc2cc(C([NH-])=O)n(C(=O)OCOCCO)c2c1 (optimized conformer: 79.80044772107158 kcal/mol)

>  <smiles>  (82) 
CN(C)c1ccc2cc(C(N)=O)n(C(=O)OCOCCO)c2c1

>  <score_type>  (82) 
oracle

>  <origin>  (82) 
adg

>  <m_score__min__energy>  (82) 
-10.029999999999999

>  <m_primary>  (82) 
energy

$$$$
85:0
     RDKit          3D

 43 44  0  0  0  0  0  0  0  0999 V2000
   -3.8700   25.2910  -30.8340 N   0  0  0  0  0  0  0  0  0  0  0  0
   -5.2740   25.1380  -30.6400 C   0  0  0  0  0  0  0  0  0  0  0  0
   -5.9230   26.0590  -30.0750 O   0  0  0  0  0  0  0  0  0  0  0  0
   -5.9680   23.8960  -31.0420 C   0  0  0  0  0  0  0  0  0  0  0  0
   -7.3270   23.6760  -30.8310 C   0  0  0  0  0  0  0  0  0  0  0  0
   -7.5600   22.3910  -31.2630 C   0  0  0  0  0  0  0  0  0  0  0  0
   -8.7430   21.6590  -31.2970 C   0  0  0  0  0  0  0  0  0  0  0  0
   -8.6970   20.3590  -31.8280 C   0  0  0  0  0  0  0  0  0  0  0  0
   -7.4820   19.8200  -32.3170 C   0  0  0  0  0  0  0  0  0  0  0  0
   -7.4590   18.4370  -32.8990 C   0  0  0  0  0  0  0  0  0  0  0  0
   -6.4990   18.3630  -33.8930 F   0  0  0  0  0  0  0  0  0  0  0  0
   -7.1620   17.5200  -31.9090 F   0  0  0  0  0  0  0  0  0  0  0  0
   -6.3010   20.5950  -32.2700 C   0  0  0  0  0  0  0  0  0  0  0  0
   -6.3710   21.8790  -31.7180 C   0  0  0  0  0  0  0  0  0  0  0  0
   -5.3840   22.7930  -31.5920 N   0  0  0  0  0  0  0  0  0  0  0  0
   -4.0280   22.6380  -32.0350 C   0  0  0  0  0  0  0  0  0  0  0  0
   -3.7900   22.1360  -33.1680 O   0  0  0  0  0  0  0  0  0  0  0  0
   -2.9760   23.0200  -31.1960 O   0  0  0  0  0  0  0  0  0  0  0  0
   -1.8090   22.2290  -31.0080 C   0  0  0  0  0  0  0  0  0  0  0  0
   -1.2910   22.4460  -29.7000 O   0  0  0  0  0  0  0  0  0  0  0  0
   -1.8080   21.8110  -28.5690 C   0  0  0  0  0  0  0  0  0  0  0  0
   -1.1160   20.9730  -27.9270 O   0  0  0  0  0  0  0  0  0  0  0  0
   -3.1930   22.1510  -28.1000 C   0  0  0  0  0  0  0  0  0  0  0  0
   -3.6220   23.4740  -28.5780 N   0  0  0  0  0  0  0  0  0  0  0  0
   -3.2510   24.5390  -27.6380 C   0  0  0  0  0  0  0  0  0  0  0  0
   -1.8480   25.0540  -27.9610 C   0  0  0  0  0  0  0  0  0  0  0  0
   -1.7100   25.2540  -29.3410 O   0  0  0  0  0  0  0  0  0  0  0  0
   -3.1880   24.9090  -30.1430 H   0  0  0  0  0  0  0  0  0  0  0  0
   -8.0587   24.3804  -30.4085 H   0  0  0  0  0  0  0  0  0  0  0  0
   -9.6846   22.0848  -30.9200 H   0  0  0  0  0  0  0  0  0  0  0  0
   -9.6145   19.7533  -31.8643 H   0  0  0  0  0  0  0  0  0  0  0  0
   -8.4472   18.2108  -33.3260 H   0  0  0  0  0  0  0  0  0  0  0  0
   -5.3508   20.1989  -32.6575 H   0  0  0  0  0  0  0  0  0  0  0  0
   -2.0639   21.1658  -31.1291 H   0  0  0  0  0  0  0  0  0  0  0  0
   -1.0511   22.5130  -31.7529 H   0  0  0  0  0  0  0  0  0  0  0  0
   -3.8933   21.3916  -28.4779 H   0  0  0  0  0  0  0  0  0  0  0  0
   -3.1865   22.1704  -27.0002 H   0  0  0  0  0  0  0  0  0  0  0  0
   -3.1740   23.6650  -29.5060 H   0  0  0  0  0  0  0  0  0  0  0  0
   -3.9712   25.3662  -27.7216 H   0  0  0  0  0  0  0  0  0  0  0  0
   -3.2622   24.1377  -26.6139 H   0  0  0  0  0  0  0  0  0  0  0  0
   -1.6817   26.0071  -27.4376 H   0  0  0  0  0  0  0  0  0  0  0  0
   -1.1084   24.3095  -27.6312 H   0  0  0  0  0  0  0  0  0  0  0  0
   -2.1120   24.4630  -29.7850 H   0  0  0  0  0  0  0  0  0  0  0  0
  1  2  1  0
  2  3  2  0
  2  4  1  0
  4  5  2  0
  5  6  1  0
  6  7  2  0
  7  8  1  0
  8  9  2  0
  9 10  1  0
 10 11  1  0
 10 12  1  0
  9 13  1  0
 13 14  2  0
 14 15  1  0
 15 16  1  0
 16 17  2  0
 16 18  1  0
 18 19  1  0
 19 20  1  0
 20 21  1  0
 21 22  2  0
 21 23  1  0
 23 24  1  0
 24 25  1  0
 25 26  1  0
 26 27  1  0
 15  4  1  0
 14  6  1  0
  1 28  1  0
  5 29  1  0
  7 30  1  0
  8 31  1  0
 10 32  1  0
 13 33  1  0
 19 34  1  0
 19 35  1  0
 23 36  1  0
 23 37  1  0
 24 38  1  0
 25 39  1  0
 25 40  1  0
 26 41  1  0
 26 42  1  0
 27 43  1  0
M  CHG  1   1  -1
M  END
>  <UniqueID>  (83) 
83

>  <SMILES>  (83) 
[NH-]C(=O)c1cc2ccc(C(F)F)cc2n1C(=O)OCOC(=O)CNCCO

>  <Energy>  (83) 
74.62826986195047

>  <Genealogy>  (83) 
[NH-]C(=O)c1cc2ccc(C(F)F)cc2n1C(=O)OCOC(=O)CNCCO (protonated)
[NH-]C(=O)c1cc2ccc(C(F)F)cc2n1C(=O)OCOC(=O)CNCCO (3D coordinates assigned)
[NH-]C(=O)c1cc2ccc(C(F)F)cc2n1C(=O)OCOC(=O)CNCCO (optimized conformer: 74.62826986195047 kcal/mol)

>  <smiles>  (83) 
NC(=O)c1cc2ccc(C(F)F)cc2n1C(=O)OCOC(=O)CNCCO

>  <score_type>  (83) 
oracle

>  <origin>  (83) 
adg

>  <m_score__min__energy>  (83) 
-8.6699999999999999

>  <m_primary>  (83) 
energy

$$$$
86:0
     RDKit          3D

 43 44  0  0  0  0  0  0  0  0999 V2000
   -4.6230   15.1260  -32.7310 C   0  0  0  0  0  0  0  0  0  0  0  0
   -5.0770   15.5600  -34.0630 N   0  0  0  0  0  0  0  0  0  0  0  0
   -4.1930   16.6060  -34.6040 C   0  0  0  0  0  0  0  0  0  0  0  0
   -6.4960   15.9750  -34.0610 C   0  0  0  0  0  0  0  0  0  0  0  0
   -6.6990   17.3350  -33.5280 C   0  0  0  0  0  0  0  0  0  0  0  0
   -6.8570   18.4480  -33.0910 C   0  0  0  0  0  0  0  0  0  0  0  0
   -7.0510   19.7750  -32.5710 C   0  0  0  0  0  0  0  0  0  0  0  0
   -8.3550   20.3130  -32.4900 C   0  0  0  0  0  0  0  0  0  0  0  0
   -8.5610   21.6020  -31.9700 C   0  0  0  0  0  0  0  0  0  0  0  0
   -7.4450   22.3240  -31.5540 C   0  0  0  0  0  0  0  0  0  0  0  0
   -7.3640   23.5730  -30.9830 C   0  0  0  0  0  0  0  0  0  0  0  0
   -6.0070   23.7860  -30.7570 C   0  0  0  0  0  0  0  0  0  0  0  0
   -5.4620   25.0430  -30.2090 C   0  0  0  0  0  0  0  0  0  0  0  0
   -4.2570   25.6130  -30.7230 N   0  0  0  0  0  0  0  0  0  0  0  0
   -6.0990   25.6530  -29.3090 O   0  0  0  0  0  0  0  0  0  0  0  0
   -5.2770   22.7060  -31.1570 N   0  0  0  0  0  0  0  0  0  0  0  0
   -3.8650   22.4960  -30.9880 C   0  0  0  0  0  0  0  0  0  0  0  0
   -3.0560   23.4310  -31.2390 O   0  0  0  0  0  0  0  0  0  0  0  0
   -3.3950   21.2580  -30.5330 O   0  0  0  0  0  0  0  0  0  0  0  0
   -3.0540   20.9900  -29.1730 C   0  0  0  0  0  0  0  0  0  0  0  0
   -2.3780   22.2000  -28.5330 C   0  0  0  0  0  0  0  0  0  0  0  0
   -1.3790   22.7010  -29.3760 O   0  0  0  0  0  0  0  0  0  0  0  0
   -6.1720   21.8200  -31.6470 C   0  0  0  0  0  0  0  0  0  0  0  0
   -5.9410   20.5290  -32.1390 C   0  0  0  0  0  0  0  0  0  0  0  0
   -5.1880   15.6661  -31.9570 H   0  0  0  0  0  0  0  0  0  0  0  0
   -4.7916   14.0446  -32.6205 H   0  0  0  0  0  0  0  0  0  0  0  0
   -3.5503   15.3431  -32.6205 H   0  0  0  0  0  0  0  0  0  0  0  0
   -3.7269   17.1575  -33.7742 H   0  0  0  0  0  0  0  0  0  0  0  0
   -3.4099   16.1412  -35.2210 H   0  0  0  0  0  0  0  0  0  0  0  0
   -4.7818   17.3007  -35.2210 H   0  0  0  0  0  0  0  0  0  0  0  0
   -6.8715   15.9441  -35.0945 H   0  0  0  0  0  0  0  0  0  0  0  0
   -7.0406   15.2802  -33.4047 H   0  0  0  0  0  0  0  0  0  0  0  0
   -9.2139   19.7193  -32.8360 H   0  0  0  0  0  0  0  0  0  0  0  0
   -9.5724   22.0277  -31.8938 H   0  0  0  0  0  0  0  0  0  0  0  0
   -8.1942   24.2573  -30.7539 H   0  0  0  0  0  0  0  0  0  0  0  0
   -3.8620   26.4790  -30.2940 H   0  0  0  0  0  0  0  0  0  0  0  0
   -3.8030   25.2290  -31.5810 H   0  0  0  0  0  0  0  0  0  0  0  0
   -3.9697   20.7505  -28.6125 H   0  0  0  0  0  0  0  0  0  0  0  0
   -2.3546   20.1414  -29.1464 H   0  0  0  0  0  0  0  0  0  0  0  0
   -3.1293   22.9835  -28.3552 H   0  0  0  0  0  0  0  0  0  0  0  0
   -1.9214   21.8925  -27.5806 H   0  0  0  0  0  0  0  0  0  0  0  0
   -1.5300   22.2820  -30.2620 H   0  0  0  0  0  0  0  0  0  0  0  0
   -4.9228   20.1155  -32.1869 H   0  0  0  0  0  0  0  0  0  0  0  0
  1  2  1  0
  2  3  1  0
  2  4  1  0
  4  5  1  0
  5  6  3  0
  6  7  1  0
  7  8  2  0
  8  9  1  0
  9 10  2  0
 10 11  1  0
 11 12  2  0
 12 13  1  0
 13 14  1  0
 13 15  2  0
 12 16  1  0
 16 17  1  0
 17 18  2  0
 17 19  1  0
 19 20  1  0
 20 21  1  0
 21 22  1  0
 16 23  1  0
 23 24  2  0
 24  7  1  0
 23 10  1  0
  1 25  1  0
  1 26  1  0
  1 27  1  0
  3 28  1  0
  3 29  1  0
  3 30  1  0
  4 31  1  0
  4 32  1  0
  8 33  1  0
  9 34  1  0
 11 35  1  0
 14 36  1  0
 14 37  1  0
 20 38  1  0
 20 39  1  0
 21 40  1  0
 21 41  1  0
 22 42  1  0
 24 43  1  0
M  END
>  <UniqueID>  (84) 
84

>  <SMILES>  (84) 
CN(C)CC#Cc1ccc2cc(C(N)=O)n(C(=O)OCCO)c2c1

>  <Energy>  (84) 
76.20727821588694

>  <Genealogy>  (84) 
CN(C)CC#Cc1ccc2cc(C(N)=O)n(C(=O)OCCO)c2c1 (3D coordinates assigned)
CN(C)CC#Cc1ccc2cc(C(N)=O)n(C(=O)OCCO)c2c1 (optimized conformer: 76.20727821588694 kcal/mol)

>  <smiles>  (84) 
CN(C)CC#Cc1ccc2cc(C(N)=O)n(C(=O)OCCO)c2c1

>  <score_type>  (84) 
oracle

>  <origin>  (84) 
adg

>  <m_score__min__energy>  (84) 
-8.8900000000000006

>  <m_primary>  (84) 
energy

$$$$
87:0
     RDKit          3D

 36 38  0  0  0  0  0  0  0  0999 V2000
   -4.3470   25.6970  -30.8430 N   0  0  0  0  0  0  0  0  0  0  0  0
   -5.5070   24.9720  -30.4420 C   0  0  0  0  0  0  0  0  0  0  0  0
   -6.1990   25.4000  -29.4810 O   0  0  0  0  0  0  0  0  0  0  0  0
   -5.8730   23.7020  -31.1000 C   0  0  0  0  0  0  0  0  0  0  0  0
   -7.1890   23.3260  -31.3600 C   0  0  0  0  0  0  0  0  0  0  0  0
   -7.1090   22.0570  -31.8860 C   0  0  0  0  0  0  0  0  0  0  0  0
   -8.1170   21.2080  -32.3300 C   0  0  0  0  0  0  0  0  0  0  0  0
   -7.7430   19.9590  -32.8540 C   0  0  0  0  0  0  0  0  0  0  0  0
   -6.3770   19.5830  -32.9330 C   0  0  0  0  0  0  0  0  0  0  0  0
   -5.9940   18.2630  -33.4960 C   0  0  0  0  0  0  0  0  0  0  0  0
   -4.7950   18.1100  -34.2150 C   0  0  0  0  0  0  0  0  0  0  0  0
   -4.4530   16.8580  -34.7320 C   0  0  0  0  0  0  0  0  0  0  0  0
   -5.2740   15.7930  -34.5420 N   0  0  0  0  0  0  0  0  0  0  0  0
   -6.4390   15.9070  -33.8530 C   0  0  0  0  0  0  0  0  0  0  0  0
   -6.8210   17.1400  -33.3190 C   0  0  0  0  0  0  0  0  0  0  0  0
   -5.3820   20.4770  -32.4710 C   0  0  0  0  0  0  0  0  0  0  0  0
   -5.7840   21.7060  -31.9360 C   0  0  0  0  0  0  0  0  0  0  0  0
   -5.0110   22.7080  -31.4580 N   0  0  0  0  0  0  0  0  0  0  0  0
   -3.5760   22.7480  -31.4450 C   0  0  0  0  0  0  0  0  0  0  0  0
   -2.9170   21.9750  -32.1940 O   0  0  0  0  0  0  0  0  0  0  0  0
   -2.9150   23.6550  -30.6120 O   0  0  0  0  0  0  0  0  0  0  0  0
   -1.9560   23.2520  -29.6420 C   0  0  0  0  0  0  0  0  0  0  0  0
   -1.1370   24.4320  -29.2430 C   0  0  0  0  0  0  0  0  0  0  0  0
   -1.6100   25.5940  -29.3420 O   0  0  0  0  0  0  0  0  0  0  0  0
    0.1740   24.2570  -28.8190 O   0  0  0  0  0  0  0  0  0  0  0  0
   -3.4740   25.6740  -30.2710 H   0  0  0  0  0  0  0  0  0  0  0  0
   -8.0990   23.9180  -31.1825 H   0  0  0  0  0  0  0  0  0  0  0  0
   -9.1746   21.5051  -32.2728 H   0  0  0  0  0  0  0  0  0  0  0  0
   -8.5189   19.2640  -33.2074 H   0  0  0  0  0  0  0  0  0  0  0  0
   -4.1296   18.9722  -34.3696 H   0  0  0  0  0  0  0  0  0  0  0  0
   -3.5159   16.7345  -35.2947 H   0  0  0  0  0  0  0  0  0  0  0  0
   -7.0833   15.0262  -33.7152 H   0  0  0  0  0  0  0  0  0  0  0  0
   -7.7652   17.2319  -32.7622 H   0  0  0  0  0  0  0  0  0  0  0  0
   -4.3162   20.2117  -32.5311 H   0  0  0  0  0  0  0  0  0  0  0  0
   -2.4730   22.8476  -28.7593 H   0  0  0  0  0  0  0  0  0  0  0  0
   -1.3031   22.4759  -30.0679 H   0  0  0  0  0  0  0  0  0  0  0  0
  1  2  1  0
  2  3  2  0
  2  4  1  0
  4  5  2  0
  5  6  1  0
  6  7  2  0
  7  8  1  0
  8  9  2  0
  9 10  1  0
 10 11  2  0
 11 12  1  0
 12 13  2  0
 13 14  1  0
 14 15  2  0
  9 16  1  0
 16 17  2  0
 17 18  1  0
 18 19  1  0
 19 20  2  0
 19 21  1  0
 21 22  1  0
 22 23  1  0
 23 24  2  0
 23 25  1  0
 18  4  1  0
 17  6  1  0
 15 10  1  0
  1 26  1  0
  5 27  1  0
  7 28  1  0
  8 29  1  0
 11 30  1  0
 12 31  1  0
 14 32  1  0
 15 33  1  0
 16 34  1  0
 22 35  1  0
 22 36  1  0
M  CHG  2   1  -1  25  -1
M  END
>  <UniqueID>  (85) 
85

>  <SMILES>  (85) 
[NH-]C(=O)c1cc2ccc(-c3ccncc3)cc2n1C(=O)OCC(=O)[O-]

>  <Energy>  (85) 
80.90332318623166

>  <Genealogy>  (85) 
[NH-]C(=O)c1cc2ccc(-c3ccncc3)cc2n1C(=O)OCC(=O)[O-] (protonated)
[NH-]C(=O)c1cc2ccc(-c3ccncc3)cc2n1C(=O)OCC(=O)[O-] (3D coordinates assigned)
[NH-]C(=O)c1cc2ccc(-c3ccncc3)cc2n1C(=O)OCC(=O)[O-] (optimized conformer: 80.90332318623166 kcal/mol)

>  <smiles>  (85) 
NC(=O)c1cc2ccc(-c3ccncc3)cc2n1C(=O)OCC(=O)O

>  <score_type>  (85) 
oracle

>  <origin>  (85) 
adg

>  <m_score__min__energy>  (85) 
-13.07

>  <m_primary>  (85) 
energy

$$$$
88:0
     RDKit          3D

 34 35  0  0  0  0  0  0  0  0999 V2000
   -2.9550   21.0490  -29.2950 C   0  0  0  0  0  0  0  0  0  0  0  0
   -2.9070   22.1760  -30.0060 C   0  0  0  0  0  0  0  0  0  0  0  0
   -1.8970   23.6510  -29.3210 Br  0  0  0  0  0  0  0  0  0  0  0  0
   -3.5800   22.3060  -31.3160 C   0  0  0  0  0  0  0  0  0  0  0  0
   -2.8900   22.2790  -32.3690 O   0  0  0  0  0  0  0  0  0  0  0  0
   -5.0060   22.4650  -31.4170 N   0  0  0  0  0  0  0  0  0  0  0  0
   -5.7610   23.4830  -30.9210 C   0  0  0  0  0  0  0  0  0  0  0  0
   -5.2240   24.7070  -30.2780 C   0  0  0  0  0  0  0  0  0  0  0  0
   -5.7350   25.1640  -29.0240 N   0  0  0  0  0  0  0  0  0  0  0  0
   -4.3140   25.3690  -30.8440 O   0  0  0  0  0  0  0  0  0  0  0  0
   -7.1150   23.2400  -31.1540 C   0  0  0  0  0  0  0  0  0  0  0  0
   -7.1600   22.0250  -31.8010 C   0  0  0  0  0  0  0  0  0  0  0  0
   -8.2500   21.2930  -32.2560 C   0  0  0  0  0  0  0  0  0  0  0  0
   -8.0030   20.0530  -32.8690 C   0  0  0  0  0  0  0  0  0  0  0  0
   -6.6760   19.5540  -33.0130 C   0  0  0  0  0  0  0  0  0  0  0  0
   -6.4300   18.2700  -33.6440 N   0  0  0  0  0  0  0  0  0  0  0  0
   -5.7260   18.1930  -34.9300 C   0  0  0  0  0  0  0  0  0  0  0  0
   -6.8820   17.0270  -33.0060 C   0  0  0  0  0  0  0  0  0  0  0  0
   -5.5970   20.3390  -32.5290 C   0  0  0  0  0  0  0  0  0  0  0  0
   -5.8760   21.5770  -31.9410 C   0  0  0  0  0  0  0  0  0  0  0  0
   -3.5288   20.1876  -29.6676 H   0  0  0  0  0  0  0  0  0  0  0  0
   -2.4208   20.9806  -28.3358 H   0  0  0  0  0  0  0  0  0  0  0  0
   -5.3700   26.0470  -28.6020 H   0  0  0  0  0  0  0  0  0  0  0  0
   -6.4410   24.6140  -28.4870 H   0  0  0  0  0  0  0  0  0  0  0  0
   -7.9651   23.8818  -30.8795 H   0  0  0  0  0  0  0  0  0  0  0  0
   -9.2757   21.6730  -32.1398 H   0  0  0  0  0  0  0  0  0  0  0  0
   -8.8483   19.4574  -33.2441 H   0  0  0  0  0  0  0  0  0  0  0  0
   -4.6471   18.0750  -34.7509 H   0  0  0  0  0  0  0  0  0  0  0  0
   -6.0994   17.3303  -35.5013 H   0  0  0  0  0  0  0  0  0  0  0  0
   -5.9041   19.1160  -35.5013 H   0  0  0  0  0  0  0  0  0  0  0  0
   -6.8409   17.1401  -31.9126 H   0  0  0  0  0  0  0  0  0  0  0  0
   -7.9159   16.8118  -33.3137 H   0  0  0  0  0  0  0  0  0  0  0  0
   -6.2278   16.1980  -33.3137 H   0  0  0  0  0  0  0  0  0  0  0  0
   -4.5606   19.9804  -32.6148 H   0  0  0  0  0  0  0  0  0  0  0  0
  1  2  2  0
  2  3  1  0
  2  4  1  0
  4  5  2  0
  4  6  1  0
  6  7  1  0
  7  8  1  0
  8  9  1  0
  8 10  2  0
  7 11  2  0
 11 12  1  0
 12 13  2  0
 13 14  1  0
 14 15  2  0
 15 16  1  0
 16 17  1  0
 16 18  1  0
 15 19  1  0
 19 20  2  0
 20  6  1  0
 20 12  1  0
  1 21  1  0
  1 22  1  0
  9 23  1  0
  9 24  1  0
 11 25  1  0
 13 26  1  0
 14 27  1  0
 17 28  1  0
 17 29  1  0
 17 30  1  0
 18 31  1  0
 18 32  1  0
 18 33  1  0
 19 34  1  0
M  END
>  <UniqueID>  (86) 
86

>  <SMILES>  (86) 
C=C(Br)C(=O)n1c(C(N)=O)cc2ccc(N(C)C)cc21

>  <Energy>  (86) 
73.86764414770516

>  <Genealogy>  (86) 
C=C(Br)C(=O)n1c(C(N)=O)cc2ccc(N(C)C)cc21 (3D coordinates assigned)
C=C(Br)C(=O)n1c(C(N)=O)cc2ccc(N(C)C)cc21 (optimized conformer: 73.86764414770516 kcal/mol)

>  <smiles>  (86) 
C=C(Br)C(=O)n1c(C(N)=O)cc2ccc(N(C)C)cc21

>  <score_type>  (86) 
oracle

>  <origin>  (86) 
adg

>  <m_score__min__energy>  (86) 
-8.6099999999999994

>  <m_primary>  (86) 
energy

$$$$
89:0
     RDKit          3D

 59 60  0  0  0  0  0  0  0  0999 V2000
   -3.2810   21.4010  -33.4700 C   0  0  0  0  0  0  0  0  0  0  0  0
   -2.6700   19.9960  -33.6350 C   0  0  0  0  0  0  0  0  0  0  0  0
   -1.2740   20.1340  -34.2630 C   0  0  0  0  0  0  0  0  0  0  0  0
   -2.5340   19.2990  -32.2670 C   0  0  0  0  0  0  0  0  0  0  0  0
   -3.4620   19.2030  -34.5310 O   0  0  0  0  0  0  0  0  0  0  0  0
   -4.2470   18.0930  -34.1860 C   0  0  0  0  0  0  0  0  0  0  0  0
   -3.8270   17.2310  -33.3670 O   0  0  0  0  0  0  0  0  0  0  0  0
   -5.5410   17.9510  -34.7820 N   0  0  0  0  0  0  0  0  0  0  0  0
   -6.5050   16.9270  -34.3760 C   0  0  0  0  0  0  0  0  0  0  0  0
   -7.0870   17.2550  -32.9980 C   0  0  0  0  0  0  0  0  0  0  0  0
   -6.2060   18.1490  -32.2420 N   0  0  0  0  0  0  0  0  0  0  0  0
   -6.4980   19.5420  -32.0200 C   0  0  0  0  0  0  0  0  0  0  0  0
   -7.7800   20.0900  -32.2950 C   0  0  0  0  0  0  0  0  0  0  0  0
   -8.0430   21.4520  -32.0690 C   0  0  0  0  0  0  0  0  0  0  0  0
   -7.0110   22.2430  -31.5760 C   0  0  0  0  0  0  0  0  0  0  0  0
   -7.0000   23.5810  -31.2530 C   0  0  0  0  0  0  0  0  0  0  0  0
   -5.7060   23.8400  -30.8040 C   0  0  0  0  0  0  0  0  0  0  0  0
   -5.2300   25.1910  -30.4390 C   0  0  0  0  0  0  0  0  0  0  0  0
   -3.9380   25.6440  -30.8360 N   0  0  0  0  0  0  0  0  0  0  0  0
   -5.9930   25.9740  -29.8120 O   0  0  0  0  0  0  0  0  0  0  0  0
   -4.9520   22.7050  -30.8370 N   0  0  0  0  0  0  0  0  0  0  0  0
   -3.6020   22.5290  -30.3800 C   0  0  0  0  0  0  0  0  0  0  0  0
   -2.7000   23.3140  -30.7770 O   0  0  0  0  0  0  0  0  0  0  0  0
   -3.3120   21.4990  -29.4730 O   0  0  0  0  0  0  0  0  0  0  0  0
   -2.4210   21.5770  -28.3520 C   0  0  0  0  0  0  0  0  0  0  0  0
   -2.7230   20.3710  -27.4500 C   0  0  0  0  0  0  0  0  0  0  0  0
   -0.9550   21.4950  -28.8190 C   0  0  0  0  0  0  0  0  0  0  0  0
   -2.6650   22.8700  -27.5500 C   0  0  0  0  0  0  0  0  0  0  0  0
   -5.7640   21.7380  -31.3170 C   0  0  0  0  0  0  0  0  0  0  0  0
   -5.4800   20.3810  -31.5130 C   0  0  0  0  0  0  0  0  0  0  0  0
   -3.3821   21.6335  -32.3996 H   0  0  0  0  0  0  0  0  0  0  0  0
   -2.6249   22.1444  -33.9463 H   0  0  0  0  0  0  0  0  0  0  0  0
   -4.2722   21.4281  -33.9463 H   0  0  0  0  0  0  0  0  0  0  0  0
   -0.5193   20.2086  -33.4663 H   0  0  0  0  0  0  0  0  0  0  0  0
   -1.0635   19.2523  -34.8861 H   0  0  0  0  0  0  0  0  0  0  0  0
   -1.2402   21.0399  -34.8861 H   0  0  0  0  0  0  0  0  0  0  0  0
   -2.6779   20.0366  -31.4637 H   0  0  0  0  0  0  0  0  0  0  0  0
   -3.2950   18.5095  -32.1805 H   0  0  0  0  0  0  0  0  0  0  0  0
   -1.5320   18.8535  -32.1805 H   0  0  0  0  0  0  0  0  0  0  0  0
   -5.8520   18.6770  -35.4660 H   0  0  0  0  0  0  0  0  0  0  0  0
   -7.3206   16.8851  -35.1129 H   0  0  0  0  0  0  0  0  0  0  0  0
   -5.9915   15.9557  -34.3234 H   0  0  0  0  0  0  0  0  0  0  0  0
   -8.0639   17.7431  -33.1296 H   0  0  0  0  0  0  0  0  0  0  0  0
   -7.1912   16.3158  -32.4349 H   0  0  0  0  0  0  0  0  0  0  0  0
   -5.3190   17.7670  -31.8460 H   0  0  0  0  0  0  0  0  0  0  0  0
   -8.5756   19.4407  -32.6893 H   0  0  0  0  0  0  0  0  0  0  0  0
   -9.0352   21.8794  -32.2759 H   0  0  0  0  0  0  0  0  0  0  0  0
   -7.8342   24.2937  -31.3323 H   0  0  0  0  0  0  0  0  0  0  0  0
   -3.0750   25.2710  -30.3820 H   0  0  0  0  0  0  0  0  0  0  0  0
   -2.6472   20.6739  -26.3952 H   0  0  0  0  0  0  0  0  0  0  0  0
   -3.7403   20.0059  -27.6544 H   0  0  0  0  0  0  0  0  0  0  0  0
   -1.9978   19.5695  -27.6544 H   0  0  0  0  0  0  0  0  0  0  0  0
   -0.2923   21.4579  -27.9418 H   0  0  0  0  0  0  0  0  0  0  0  0
   -0.8132   20.5875  -29.4243 H   0  0  0  0  0  0  0  0  0  0  0  0
   -0.7129   22.3810  -29.4243 H   0  0  0  0  0  0  0  0  0  0  0  0
   -2.6230   22.6473  -26.4736 H   0  0  0  0  0  0  0  0  0  0  0  0
   -1.8905   23.6094  -27.8019 H   0  0  0  0  0  0  0  0  0  0  0  0
   -3.6557   23.2763  -27.8019 H   0  0  0  0  0  0  0  0  0  0  0  0
   -4.4848   19.9762  -31.2772 H   0  0  0  0  0  0  0  0  0  0  0  0
  1  2  1  0
  2  3  1  0
  2  4  1  0
  2  5  1  0
  5  6  1  0
  6  7  2  0
  6  8  1  0
  8  9  1  0
  9 10  1  0
 10 11  1  0
 11 12  1  0
 12 13  2  0
 13 14  1  0
 14 15  2  0
 15 16  1  0
 16 17  2  0
 17 18  1  0
 18 19  1  0
 18 20  2  0
 17 21  1  0
 21 22  1  0
 22 23  2  0
 22 24  1  0
 24 25  1  0
 25 26  1  0
 25 27  1  0
 25 28  1  0
 21 29  1  0
 29 30  2  0
 30 12  1  0
 29 15  1  0
  1 31  1  0
  1 32  1  0
  1 33  1  0
  3 34  1  0
  3 35  1  0
  3 36  1  0
  4 37  1  0
  4 38  1  0
  4 39  1  0
  8 40  1  0
  9 41  1  0
  9 42  1  0
 10 43  1  0
 10 44  1  0
 11 45  1  0
 13 46  1  0
 14 47  1  0
 16 48  1  0
 19 49  1  0
 26 50  1  0
 26 51  1  0
 26 52  1  0
 27 53  1  0
 27 54  1  0
 27 55  1  0
 28 56  1  0
 28 57  1  0
 28 58  1  0
 30 59  1  0
M  CHG  1  19  -1
M  END
>  <UniqueID>  (87) 
87

>  <SMILES>  (87) 
CC(C)(C)OC(=O)NCCNc1ccc2cc(C([NH-])=O)n(C(=O)OC(C)(C)C)c2c1

>  <Energy>  (87) 
82.52092534603459

>  <Genealogy>  (87) 
CC(C)(C)OC(=O)NCCNc1ccc2cc(C([NH-])=O)n(C(=O)OC(C)(C)C)c2c1 (protonated)
CC(C)(C)OC(=O)NCCNc1ccc2cc(C([NH-])=O)n(C(=O)OC(C)(C)C)c2c1 (3D coordinates assigned)
CC(C)(C)OC(=O)NCCNc1ccc2cc(C([NH-])=O)n(C(=O)OC(C)(C)C)c2c1 (optimized conformer: 82.52092534603459 kcal/mol)

>  <smiles>  (87) 
CC(C)(C)OC(=O)NCCNc1ccc2cc(C(N)=O)n(C(=O)OC(C)(C)C)c2c1

>  <score_type>  (87) 
oracle

>  <origin>  (87) 
adg

>  <m_score__min__energy>  (87) 
-10.51

>  <m_primary>  (87) 
energy

$$$$
90:0
     RDKit          3D

 38 39  0  0  0  0  0  0  0  0999 V2000
   -3.5090   24.9580  -30.4720 N   0  0  0  0  0  0  0  0  0  0  0  0
   -4.9080   25.1710  -30.6420 C   0  0  0  0  0  0  0  0  0  0  0  0
   -5.3810   26.3250  -30.4680 O   0  0  0  0  0  0  0  0  0  0  0  0
   -5.7880   24.0320  -30.9790 C   0  0  0  0  0  0  0  0  0  0  0  0
   -7.1680   24.0430  -30.7810 C   0  0  0  0  0  0  0  0  0  0  0  0
   -7.6220   22.8540  -31.3000 C   0  0  0  0  0  0  0  0  0  0  0  0
   -8.9140   22.3390  -31.3640 C   0  0  0  0  0  0  0  0  0  0  0  0
   -9.0870   21.0680  -31.9390 C   0  0  0  0  0  0  0  0  0  0  0  0
   -7.9770   20.3390  -32.4240 C   0  0  0  0  0  0  0  0  0  0  0  0
   -8.1660   19.0410  -32.9920 N   0  0  0  0  0  0  0  0  0  0  0  0
   -6.6800   20.8910  -32.3430 C   0  0  0  0  0  0  0  0  0  0  0  0
   -6.5380   22.1660  -31.7830 C   0  0  0  0  0  0  0  0  0  0  0  0
   -5.4030   22.8750  -31.5900 N   0  0  0  0  0  0  0  0  0  0  0  0
   -4.0710   22.4500  -31.9200 C   0  0  0  0  0  0  0  0  0  0  0  0
   -3.7440   22.2990  -33.1300 O   0  0  0  0  0  0  0  0  0  0  0  0
   -3.1450   22.2250  -30.8920 O   0  0  0  0  0  0  0  0  0  0  0  0
   -1.8030   21.8750  -31.0780 C   0  0  0  0  0  0  0  0  0  0  0  0
   -1.0860   21.5150  -30.1030 O   0  0  0  0  0  0  0  0  0  0  0  0
   -1.2740   21.9340  -32.3740 O   0  0  0  0  0  0  0  0  0  0  0  0
   -0.9270   20.8240  -33.1550 C   0  0  0  0  0  0  0  0  0  0  0  0
   -0.5790   19.7370  -32.6170 O   0  0  0  0  0  0  0  0  0  0  0  0
   -0.9770   20.9490  -34.5500 O   0  0  0  0  0  0  0  0  0  0  0  0
    0.0700   21.4170  -35.3550 C   0  0  0  0  0  0  0  0  0  0  0  0
    0.5130   20.7250  -36.3120 O   0  0  0  0  0  0  0  0  0  0  0  0
    0.6230   22.6700  -35.0730 O   0  0  0  0  0  0  0  0  0  0  0  0
    0.3670   23.8340  -35.8560 C   0  0  0  0  0  0  0  0  0  0  0  0
    1.4820   24.0670  -36.8240 C   0  0  0  0  0  0  0  0  0  0  0  0
    1.4190   25.0130  -37.6530 O   0  0  0  0  0  0  0  0  0  0  0  0
    2.6010   23.2440  -36.8020 O   0  0  0  0  0  0  0  0  0  0  0  0
   -2.9700   24.3750  -31.1520 H   0  0  0  0  0  0  0  0  0  0  0  0
   -7.7670   24.8358  -30.3091 H   0  0  0  0  0  0  0  0  0  0  0  0
   -9.7719   22.9085  -30.9770 H   0  0  0  0  0  0  0  0  0  0  0  0
  -10.0961   20.6363  -32.0123 H   0  0  0  0  0  0  0  0  0  0  0  0
   -7.6990   18.2040  -32.5790 H   0  0  0  0  0  0  0  0  0  0  0  0
   -8.7790   18.9080  -33.8270 H   0  0  0  0  0  0  0  0  0  0  0  0
   -5.8051   20.3344  -32.7099 H   0  0  0  0  0  0  0  0  0  0  0  0
   -0.5726   23.6976  -36.4115 H   0  0  0  0  0  0  0  0  0  0  0  0
    0.2880   24.7036  -35.1870 H   0  0  0  0  0  0  0  0  0  0  0  0
  1  2  1  0
  2  3  2  0
  2  4  1  0
  4  5  2  0
  5  6  1  0
  6  7  2  0
  7  8  1  0
  8  9  2  0
  9 10  1  0
  9 11  1  0
 11 12  2  0
 12 13  1  0
 13 14  1  0
 14 15  2  0
 14 16  1  0
 16 17  1  0
 17 18  2  0
 17 19  1  0
 19 20  1  0
 20 21  2  0
 20 22  1  0
 22 23  1  0
 23 24  2  0
 23 25  1  0
 25 26  1  0
 26 27  1  0
 27 28  2  0
 27 29  1  0
 13  4  1  0
 12  6  1  0
  1 30  1  0
  5 31  1  0
  7 32  1  0
  8 33  1  0
 10 34  1  0
 10 35  1  0
 11 36  1  0
 26 37  1  0
 26 38  1  0
M  CHG  2   1  -1  29  -1
M  END
>  <UniqueID>  (88) 
88

>  <SMILES>  (88) 
[NH-]C(=O)c1cc2ccc(N)cc2n1C(=O)OC(=O)OC(=O)OC(=O)OCC(=O)[O-]

>  <Energy>  (88) 
77.63424459379998

>  <Genealogy>  (88) 
[NH-]C(=O)c1cc2ccc(N)cc2n1C(=O)OC(=O)OC(=O)OC(=O)OCC(=O)[O-] (protonated)
[NH-]C(=O)c1cc2ccc(N)cc2n1C(=O)OC(=O)OC(=O)OC(=O)OCC(=O)[O-] (3D coordinates assigned)
[NH-]C(=O)c1cc2ccc(N)cc2n1C(=O)OC(=O)OC(=O)OC(=O)OCC(=O)[O-] (optimized conformer: 77.63424459379998 kcal/mol)

>  <smiles>  (88) 
NC(=O)c1cc2ccc(N)cc2n1C(=O)OC(=O)OC(=O)OC(=O)OCC(=O)O

>  <score_type>  (88) 
oracle

>  <origin>  (88) 
adg

>  <m_score__min__energy>  (88) 
-11.279999999999999

>  <m_primary>  (88) 
energy

$$$$
91:0
     RDKit          3D

 49 51  0  0  0  0  0  0  0  0999 V2000
   -0.8740   26.3970  -28.2340 C   0  0  0  0  0  0  0  0  0  0  0  0
   -1.5110   25.6120  -29.2810 N   0  0  0  0  0  0  0  0  0  0  0  0
   -2.4350   24.5570  -29.0050 C   0  0  0  0  0  0  0  0  0  0  0  0
   -3.0680   24.5320  -27.9150 O   0  0  0  0  0  0  0  0  0  0  0  0
   -2.6900   23.5100  -30.0440 C   0  0  0  0  0  0  0  0  0  0  0  0
   -3.8140   23.8500  -30.8540 O   0  0  0  0  0  0  0  0  0  0  0  0
   -4.5000   22.9230  -31.6500 C   0  0  0  0  0  0  0  0  0  0  0  0
   -3.9410   22.4190  -32.6620 O   0  0  0  0  0  0  0  0  0  0  0  0
   -5.8500   22.5580  -31.3180 N   0  0  0  0  0  0  0  0  0  0  0  0
   -6.7460   23.2840  -30.5910 C   0  0  0  0  0  0  0  0  0  0  0  0
   -6.4430   24.5240  -29.8430 C   0  0  0  0  0  0  0  0  0  0  0  0
   -5.2950   24.6020  -28.9970 N   0  0  0  0  0  0  0  0  0  0  0  0
   -7.1820   25.5340  -29.9740 O   0  0  0  0  0  0  0  0  0  0  0  0
   -7.9860   22.6480  -30.5650 C   0  0  0  0  0  0  0  0  0  0  0  0
   -7.8210   21.4990  -31.3040 C   0  0  0  0  0  0  0  0  0  0  0  0
   -8.7350   20.4960  -31.6120 C   0  0  0  0  0  0  0  0  0  0  0  0
   -8.3010   19.4350  -32.4220 C   0  0  0  0  0  0  0  0  0  0  0  0
   -6.9720   19.4000  -32.9210 C   0  0  0  0  0  0  0  0  0  0  0  0
   -6.5420   18.3120  -33.7620 N   0  0  0  0  0  0  0  0  0  0  0  0
   -5.7270   18.5520  -34.9560 C   0  0  0  0  0  0  0  0  0  0  0  0
   -4.4390   17.7100  -34.9020 C   0  0  0  0  0  0  0  0  0  0  0  0
   -4.5980   16.4080  -34.2020 N   0  0  0  0  0  0  0  0  0  0  0  0
   -3.9850   16.4280  -32.8630 C   0  0  0  0  0  0  0  0  0  0  0  0
   -5.9980   15.9340  -34.1580 C   0  0  0  0  0  0  0  0  0  0  0  0
   -6.9190   16.9330  -33.4380 C   0  0  0  0  0  0  0  0  0  0  0  0
   -6.0710   20.4320  -32.5750 C   0  0  0  0  0  0  0  0  0  0  0  0
   -6.5250   21.4690  -31.7500 C   0  0  0  0  0  0  0  0  0  0  0  0
   -1.1836   26.0154  -27.2499 H   0  0  0  0  0  0  0  0  0  0  0  0
    0.2190   26.3185  -28.3304 H   0  0  0  0  0  0  0  0  0  0  0  0
   -1.1759   27.4504  -28.3304 H   0  0  0  0  0  0  0  0  0  0  0  0
   -1.8010   23.4166  -30.6850 H   0  0  0  0  0  0  0  0  0  0  0  0
   -2.9027   22.5585  -29.5348 H   0  0  0  0  0  0  0  0  0  0  0  0
   -5.0690   25.4940  -28.5030 H   0  0  0  0  0  0  0  0  0  0  0  0
   -4.6950   23.7670  -28.8200 H   0  0  0  0  0  0  0  0  0  0  0  0
   -8.9015   22.9914  -30.0611 H   0  0  0  0  0  0  0  0  0  0  0  0
   -9.7666   20.5335  -31.2321 H   0  0  0  0  0  0  0  0  0  0  0  0
   -8.9979   18.6218  -32.6730 H   0  0  0  0  0  0  0  0  0  0  0  0
   -6.3040   18.2755  -35.8508 H   0  0  0  0  0  0  0  0  0  0  0  0
   -5.4565   19.6175  -34.9963 H   0  0  0  0  0  0  0  0  0  0  0  0
   -4.1122   17.5109  -35.9333 H   0  0  0  0  0  0  0  0  0  0  0  0
   -3.7016   18.2918  -34.3295 H   0  0  0  0  0  0  0  0  0  0  0  0
   -4.7748   16.4022  -32.0978 H   0  0  0  0  0  0  0  0  0  0  0  0
   -3.3319   15.5507  -32.7456 H   0  0  0  0  0  0  0  0  0  0  0  0
   -3.3905   17.3460  -32.7456 H   0  0  0  0  0  0  0  0  0  0  0  0
   -6.3592   15.7957  -35.1878 H   0  0  0  0  0  0  0  0  0  0  0  0
   -6.0198   14.9865  -33.5996 H   0  0  0  0  0  0  0  0  0  0  0  0
   -7.9580   16.7589  -33.7544 H   0  0  0  0  0  0  0  0  0  0  0  0
   -6.8207   16.7854  -32.3524 H   0  0  0  0  0  0  0  0  0  0  0  0
   -5.0353   20.4213  -32.9455 H   0  0  0  0  0  0  0  0  0  0  0  0
  1  2  1  0
  2  3  1  0
  3  4  2  0
  3  5  1  0
  5  6  1  0
  6  7  1  0
  7  8  2  0
  7  9  1  0
  9 10  1  0
 10 11  1  0
 11 12  1  0
 11 13  2  0
 10 14  2  0
 14 15  1  0
 15 16  2  0
 16 17  1  0
 17 18  2  0
 18 19  1  0
 19 20  1  0
 20 21  1  0
 21 22  1  0
 22 23  1  0
 22 24  1  0
 24 25  1  0
 18 26  1  0
 26 27  2  0
 27  9  1  0
 27 15  1  0
 25 19  1  0
  1 28  1  0
  1 29  1  0
  1 30  1  0
  5 31  1  0
  5 32  1  0
 12 33  1  0
 12 34  1  0
 14 35  1  0
 16 36  1  0
 17 37  1  0
 20 38  1  0
 20 39  1  0
 21 40  1  0
 21 41  1  0
 23 42  1  0
 23 43  1  0
 23 44  1  0
 24 45  1  0
 24 46  1  0
 25 47  1  0
 25 48  1  0
 26 49  1  0
M  CHG  1   2  -1
M  END
>  <UniqueID>  (89) 
89

>  <SMILES>  (89) 
C[N-]C(=O)COC(=O)n1c(C(N)=O)cc2ccc(N3CCN(C)CC3)cc21

>  <Energy>  (89) 
94.79076400829037

>  <Genealogy>  (89) 
C[N-]C(=O)COC(=O)n1c(C(N)=O)cc2ccc(N3CCN(C)CC3)cc21 (protonated)
C[N-]C(=O)COC(=O)n1c(C(N)=O)cc2ccc(N3CCN(C)CC3)cc21 (3D coordinates assigned)
C[N-]C(=O)COC(=O)n1c(C(N)=O)cc2ccc(N3CCN(C)CC3)cc21 (nonaromatic ring conformer: 94.79076400829037 kcal/mol)

>  <smiles>  (89) 
CNC(=O)COC(=O)n1c(C(N)=O)cc2ccc(N3CCN(C)CC3)cc21

>  <score_type>  (89) 
oracle

>  <origin>  (89) 
adg

>  <m_score__min__energy>  (89) 
-11.58

>  <m_primary>  (89) 
energy

$$$$
92:0
     RDKit          3D

 43 44  0  0  0  0  0  0  0  0999 V2000
   -0.3000   23.9100  -26.7110 C   0  0  0  0  0  0  0  0  0  0  0  0
   -1.5290   24.3130  -27.5340 C   0  0  1  0  0  0  0  0  0  0  0  0
   -1.4750   25.7930  -27.9380 C   0  0  0  0  0  0  0  0  0  0  0  0
   -1.2140   25.9220  -29.3100 O   0  0  0  0  0  0  0  0  0  0  0  0
   -1.6070   23.4800  -28.7370 N   0  0  0  0  0  0  0  0  0  0  0  0
   -1.6750   22.0500  -28.6860 C   0  0  0  0  0  0  0  0  0  0  0  0
   -1.5710   21.4450  -27.5840 O   0  0  0  0  0  0  0  0  0  0  0  0
   -1.8570   21.3330  -29.8740 O   0  0  0  0  0  0  0  0  0  0  0  0
   -1.7600   21.9320  -31.1610 C   0  0  0  0  0  0  0  0  0  0  0  0
   -2.7910   22.9030  -31.3180 O   0  0  0  0  0  0  0  0  0  0  0  0
   -3.9470   22.6620  -32.0650 C   0  0  0  0  0  0  0  0  0  0  0  0
   -3.8610   22.2500  -33.2540 O   0  0  0  0  0  0  0  0  0  0  0  0
   -5.2360   22.9060  -31.4800 N   0  0  0  0  0  0  0  0  0  0  0  0
   -5.6930   24.0660  -30.9300 C   0  0  0  0  0  0  0  0  0  0  0  0
   -4.8870   25.2750  -30.6610 C   0  0  0  0  0  0  0  0  0  0  0  0
   -3.5630   25.1740  -30.1470 N   0  0  0  0  0  0  0  0  0  0  0  0
   -5.3940   26.4150  -30.8400 O   0  0  0  0  0  0  0  0  0  0  0  0
   -7.0330   23.9430  -30.5720 C   0  0  0  0  0  0  0  0  0  0  0  0
   -7.3850   22.6590  -30.9150 C   0  0  0  0  0  0  0  0  0  0  0  0
   -8.6050   22.0010  -30.7870 C   0  0  0  0  0  0  0  0  0  0  0  0
   -8.6940   20.6800  -31.2570 C   0  0  0  0  0  0  0  0  0  0  0  0
   -7.5790   20.0500  -31.8680 C   0  0  0  0  0  0  0  0  0  0  0  0
   -7.6780   18.6230  -32.3460 C   0  0  0  0  0  0  0  0  0  0  0  0
   -7.1220   18.5250  -33.6070 F   0  0  0  0  0  0  0  0  0  0  0  0
   -7.0050   17.7720  -31.4880 F   0  0  0  0  0  0  0  0  0  0  0  0
   -9.0020   18.2210  -32.4040 F   0  0  0  0  0  0  0  0  0  0  0  0
   -6.3500   20.7450  -31.9560 C   0  0  0  0  0  0  0  0  0  0  0  0
   -6.2840   22.0530  -31.4620 C   0  0  0  0  0  0  0  0  0  0  0  0
   -0.5351   23.9871  -25.6392 H   0  0  0  0  0  0  0  0  0  0  0  0
   -0.0214   22.8734  -26.9516 H   0  0  0  0  0  0  0  0  0  0  0  0
    0.5383   24.5803  -26.9516 H   0  0  0  0  0  0  0  0  0  0  0  0
   -2.4222   24.1617  -26.9101 H   0  0  0  0  0  0  0  0  0  0  0  0
   -2.4412   26.2658  -27.7080 H   0  0  0  0  0  0  0  0  0  0  0  0
   -0.6670   26.2843  -27.3760 H   0  0  0  0  0  0  0  0  0  0  0  0
   -2.0480   25.6750  -29.7880 H   0  0  0  0  0  0  0  0  0  0  0  0
   -1.7730   23.9420  -29.6600 H   0  0  0  0  0  0  0  0  0  0  0  0
   -0.7795   22.4199  -31.2642 H   0  0  0  0  0  0  0  0  0  0  0  0
   -1.8698   21.1561  -31.9330 H   0  0  0  0  0  0  0  0  0  0  0  0
   -2.7370   25.1750  -30.7870 H   0  0  0  0  0  0  0  0  0  0  0  0
   -7.6737   24.7100  -30.1125 H   0  0  0  0  0  0  0  0  0  0  0  0
   -9.4730   22.5002  -30.3317 H   0  0  0  0  0  0  0  0  0  0  0  0
   -9.6392   20.1276  -31.1501 H   0  0  0  0  0  0  0  0  0  0  0  0
   -5.4654   20.2678  -32.4030 H   0  0  0  0  0  0  0  0  0  0  0  0
  1  2  1  0
  2  3  1  0
  3  4  1  0
  2  5  1  0
  5  6  1  0
  6  7  2  0
  6  8  1  0
  8  9  1  0
  9 10  1  0
 10 11  1  0
 11 12  2  0
 11 13  1  0
 13 14  1  0
 14 15  1  0
 15 16  1  0
 15 17  2  0
 14 18  2  0
 18 19  1  0
 19 20  2  0
 20 21  1  0
 21 22  2  0
 22 23  1  0
 23 24  1  0
 23 25  1  0
 23 26  1  0
 22 27  1  0
 27 28  2  0
 28 13  1  0
 28 19  1  0
  1 29  1  0
  1 30  1  0
  1 31  1  0
  2 32  1  1
  3 33  1  0
  3 34  1  0
  4 35  1  0
  5 36  1  0
  9 37  1  0
  9 38  1  0
 16 39  1  0
 18 40  1  0
 20 41  1  0
 21 42  1  0
 27 43  1  0
M  CHG  1  16  -1
M  END
>  <UniqueID>  (90) 
90

>  <SMILES>  (90) 
C[C@@H](CO)NC(=O)OCOC(=O)n1c(C([NH-])=O)cc2ccc(C(F)(F)F)cc21

>  <Energy>  (90) 
74.14191726410476

>  <Genealogy>  (90) 
CC(CO)NC(=O)OCOC(=O)n1c(C([NH-])=O)cc2ccc(C(F)(F)F)cc21 (protonated)
C[C@@H](CO)NC(=O)OCOC(=O)n1c(C([NH-])=O)cc2ccc(C(F)(F)F)cc21 (chirality)
C[C@@H](CO)NC(=O)OCOC(=O)n1c(C([NH-])=O)cc2ccc(C(F)(F)F)cc21 (3D coordinates assigned)
C[C@@H](CO)NC(=O)OCOC(=O)n1c(C([NH-])=O)cc2ccc(C(F)(F)F)cc21 (optimized conformer: 74.14191726410476 kcal/mol)

>  <smiles>  (90) 
CC(CO)NC(=O)OCOC(=O)n1c(C(N)=O)cc2ccc(C(F)(F)F)cc21

>  <score_type>  (90) 
oracle

>  <origin>  (90) 
adg

>  <m_score__min__energy>  (90) 
-9.7599999999999998

>  <m_primary>  (90) 
energy

$$$$
93:0
     RDKit          3D

 32 33  0  0  0  0  0  0  0  0999 V2000
   -3.8910   25.3150  -30.8540 N   0  0  0  0  0  0  0  0  0  0  0  0
   -5.2710   25.1190  -30.5510 C   0  0  0  0  0  0  0  0  0  0  0  0
   -5.9020   26.0210  -29.9410 O   0  0  0  0  0  0  0  0  0  0  0  0
   -5.9520   23.8840  -30.9950 C   0  0  0  0  0  0  0  0  0  0  0  0
   -7.3320   23.7920  -31.1690 C   0  0  0  0  0  0  0  0  0  0  0  0
   -7.5710   22.4750  -31.4880 C   0  0  0  0  0  0  0  0  0  0  0  0
   -8.7710   21.8250  -31.7640 C   0  0  0  0  0  0  0  0  0  0  0  0
   -8.7210   20.4570  -32.0810 C   0  0  0  0  0  0  0  0  0  0  0  0
   -7.4820   19.7740  -32.1350 C   0  0  0  0  0  0  0  0  0  0  0  0
   -7.4440   18.3080  -32.4500 C   0  0  0  0  0  0  0  0  0  0  0  0
   -6.8870   18.1190  -33.7000 F   0  0  0  0  0  0  0  0  0  0  0  0
   -6.2850   20.4630  -31.8350 C   0  0  0  0  0  0  0  0  0  0  0  0
   -6.3660   21.8210  -31.5050 C   0  0  0  0  0  0  0  0  0  0  0  0
   -5.3600   22.6740  -31.2080 N   0  0  0  0  0  0  0  0  0  0  0  0
   -3.9600   22.3580  -31.1800 C   0  0  0  0  0  0  0  0  0  0  0  0
   -3.2530   22.5280  -32.2120 O   0  0  0  0  0  0  0  0  0  0  0  0
   -3.3890   21.8410  -30.0130 O   0  0  0  0  0  0  0  0  0  0  0  0
   -2.2040   22.3770  -29.4300 C   0  0  0  0  0  0  0  0  0  0  0  0
   -1.9610   23.6710  -29.9320 O   0  0  0  0  0  0  0  0  0  0  0  0
   -1.2560   24.6190  -28.7020 P   0  0  0  0  0  0  0  0  0  0  0  0
   -1.8370   24.2050  -27.3700 O   0  0  0  0  0  0  0  0  0  0  0  0
   -1.5850   26.2590  -28.9570 O   0  0  0  0  0  0  0  0  0  0  0  0
    0.4190   24.3780  -28.6700 O   0  0  0  0  0  0  0  0  0  0  0  0
   -3.2980   24.5240  -31.1860 H   0  0  0  0  0  0  0  0  0  0  0  0
   -8.0721   24.6000  -31.0720 H   0  0  0  0  0  0  0  0  0  0  0  0
   -9.7285   22.3657  -31.7348 H   0  0  0  0  0  0  0  0  0  0  0  0
   -9.6533   19.9116  -32.2892 H   0  0  0  0  0  0  0  0  0  0  0  0
   -6.8366   17.7866  -31.6955 H   0  0  0  0  0  0  0  0  0  0  0  0
   -8.4673   17.9046  -32.4402 H   0  0  0  0  0  0  0  0  0  0  0  0
   -5.3147   19.9455  -31.8602 H   0  0  0  0  0  0  0  0  0  0  0  0
   -2.3262   22.4272  -28.3380 H   0  0  0  0  0  0  0  0  0  0  0  0
   -1.3528   21.7271  -29.6814 H   0  0  0  0  0  0  0  0  0  0  0  0
  1  2  1  0
  2  3  2  0
  2  4  1  0
  4  5  2  0
  5  6  1  0
  6  7  2  0
  7  8  1  0
  8  9  2  0
  9 10  1  0
 10 11  1  0
  9 12  1  0
 12 13  2  0
 13 14  1  0
 14 15  1  0
 15 16  2  0
 15 17  1  0
 17 18  1  0
 18 19  1  0
 19 20  1  0
 20 21  2  0
 20 22  1  0
 20 23  1  0
 14  4  1  0
 13  6  1  0
  1 24  1  0
  5 25  1  0
  7 26  1  0
  8 27  1  0
 10 28  1  0
 10 29  1  0
 12 30  1  0
 18 31  1  0
 18 32  1  0
M  CHG  3   1  -1  22  -1  23  -1
M  END
>  <UniqueID>  (91) 
91

>  <SMILES>  (91) 
[NH-]C(=O)c1cc2ccc(CF)cc2n1C(=O)OCOP(=O)([O-])[O-]

>  <Energy>  (91) 
67.99225818849756

>  <Genealogy>  (91) 
[NH-]C(=O)c1cc2ccc(CF)cc2n1C(=O)OCOP(=O)([O-])[O-] (protonated)
[NH-]C(=O)c1cc2ccc(CF)cc2n1C(=O)OCOP(=O)([O-])[O-] (3D coordinates assigned)
[NH-]C(=O)c1cc2ccc(CF)cc2n1C(=O)OCOP(=O)([O-])[O-] (optimized conformer: 67.99225818849756 kcal/mol)

>  <smiles>  (91) 
NC(=O)c1cc2ccc(CF)cc2n1C(=O)OCOP(=O)(O)O

>  <score_type>  (91) 
oracle

>  <origin>  (91) 
adg

>  <m_score__min__energy>  (91) 
-13.1

>  <m_primary>  (91) 
energy

$$$$
94:0
     RDKit          3D

 32 33  0  0  0  0  0  0  0  0999 V2000
   -6.7770   16.4150  -33.8470 C   0  0  0  0  0  0  0  0  0  0  0  0
   -6.9730   17.4570  -33.2650 C   0  0  0  0  0  0  0  0  0  0  0  0
   -7.2080   18.7040  -32.5790 C   0  0  0  0  0  0  0  0  0  0  0  0
   -8.4840   18.9820  -32.0380 C   0  0  0  0  0  0  0  0  0  0  0  0
   -8.7280   20.2020  -31.3800 C   0  0  0  0  0  0  0  0  0  0  0  0
   -7.6860   21.1220  -31.3000 C   0  0  0  0  0  0  0  0  0  0  0  0
   -7.6600   22.3800  -30.7460 C   0  0  0  0  0  0  0  0  0  0  0  0
   -6.3780   22.8620  -30.9920 C   0  0  0  0  0  0  0  0  0  0  0  0
   -5.9610   24.2400  -30.6690 C   0  0  0  0  0  0  0  0  0  0  0  0
   -5.8340   24.6680  -29.3140 N   0  0  0  0  0  0  0  0  0  0  0  0
   -5.6440   25.0260  -31.6030 O   0  0  0  0  0  0  0  0  0  0  0  0
   -5.6300   21.9350  -31.6520 N   0  0  0  0  0  0  0  0  0  0  0  0
   -4.2440   22.0340  -32.0240 C   0  0  0  0  0  0  0  0  0  0  0  0
   -3.7520   21.2170  -32.8480 O   0  0  0  0  0  0  0  0  0  0  0  0
   -3.4410   23.0260  -31.4580 O   0  0  0  0  0  0  0  0  0  0  0  0
   -2.8930   22.9210  -30.1480 C   0  0  0  0  0  0  0  0  0  0  0  0
   -2.7230   24.3180  -29.5530 C   0  0  0  0  0  0  0  0  0  0  0  0
   -3.4840   25.2540  -30.2730 O   0  0  0  0  0  0  0  0  0  0  0  0
   -6.4480   20.8730  -31.8370 C   0  0  0  0  0  0  0  0  0  0  0  0
   -6.1680   19.6530  -32.4690 C   0  0  0  0  0  0  0  0  0  0  0  0
   -6.5987   15.4673  -34.3763 H   0  0  0  0  0  0  0  0  0  0  0  0
   -9.2910   18.2404  -32.1318 H   0  0  0  0  0  0  0  0  0  0  0  0
   -9.7127   20.4221  -30.9419 H   0  0  0  0  0  0  0  0  0  0  0  0
   -8.4777   22.8953  -30.2207 H   0  0  0  0  0  0  0  0  0  0  0  0
   -5.9730   24.0020  -28.5260 H   0  0  0  0  0  0  0  0  0  0  0  0
   -5.5190   25.6360  -29.0970 H   0  0  0  0  0  0  0  0  0  0  0  0
   -3.5713   22.3322  -29.5130 H   0  0  0  0  0  0  0  0  0  0  0  0
   -1.9136   22.4229  -30.1993 H   0  0  0  0  0  0  0  0  0  0  0  0
   -3.0573   24.3086  -28.5051 H   0  0  0  0  0  0  0  0  0  0  0  0
   -1.6619   24.6026  -29.6092 H   0  0  0  0  0  0  0  0  0  0  0  0
   -3.5090   24.9420  -31.2190 H   0  0  0  0  0  0  0  0  0  0  0  0
   -5.1652   19.4409  -32.8684 H   0  0  0  0  0  0  0  0  0  0  0  0
  1  2  3  0
  2  3  1  0
  3  4  2  0
  4  5  1  0
  5  6  2  0
  6  7  1  0
  7  8  2  0
  8  9  1  0
  9 10  1  0
  9 11  2  0
  8 12  1  0
 12 13  1  0
 13 14  2  0
 13 15  1  0
 15 16  1  0
 16 17  1  0
 17 18  1  0
 12 19  1  0
 19 20  2  0
 20  3  1  0
 19  6  1  0
  1 21  1  0
  4 22  1  0
  5 23  1  0
  7 24  1  0
 10 25  1  0
 10 26  1  0
 16 27  1  0
 16 28  1  0
 17 29  1  0
 17 30  1  0
 18 31  1  0
 20 32  1  0
M  END
>  <UniqueID>  (92) 
92

>  <SMILES>  (92) 
C#Cc1ccc2cc(C(N)=O)n(C(=O)OCCO)c2c1

>  <Energy>  (92) 
65.72300991085417

>  <Genealogy>  (92) 
C#Cc1ccc2cc(C(N)=O)n(C(=O)OCCO)c2c1 (3D coordinates assigned)
C#Cc1ccc2cc(C(N)=O)n(C(=O)OCCO)c2c1 (optimized conformer: 65.72300991085417 kcal/mol)

>  <smiles>  (92) 
C#Cc1ccc2cc(C(N)=O)n(C(=O)OCCO)c2c1

>  <score_type>  (92) 
oracle

>  <origin>  (92) 
adg

>  <m_score__min__energy>  (92) 
-9.0700000000000003

>  <m_primary>  (92) 
energy

$$$$
