0:0
     RDKit          3D

 48 49  0  0  1  0  0  0  0  0999 V2000
   -7.5300   17.6900  -32.3380 C   0  0  0  0  0  0  0  0  0  0  0  0
   -8.4080   18.7450  -32.8150 N   0  0  0  0  0  0  0  0  0  0  0  0
   -8.1890   20.0650  -32.3260 C   0  0  0  0  0  0  0  0  0  0  0  0
   -9.2510   20.9360  -32.2110 C   0  0  0  0  0  0  0  0  0  0  0  0
   -9.0130   22.2060  -31.7350 C   0  0  0  0  0  0  0  0  0  0  0  0
   -7.7340   22.5780  -31.3870 C   0  0  0  0  0  0  0  0  0  0  0  0
   -7.2290   23.7600  -30.8980 C   0  0  0  0  0  0  0  0  0  0  0  0
   -5.8650   23.6440  -30.7030 C   0  0  0  0  0  0  0  0  0  0  0  0
   -5.0350   24.7200  -30.1920 C   0  0  0  0  0  0  0  0  0  0  0  0
   -4.7310   24.7220  -28.7780 N   0  0  0  0  0  0  0  0  0  0  0  0
   -4.5510   25.6540  -30.8390 O   0  0  0  0  0  0  0  0  0  0  0  0
   -5.5280   22.3950  -31.0720 N   0  0  0  0  0  0  0  0  0  0  0  0
   -4.2510   21.7970  -31.0540 C   0  0  0  0  0  0  0  0  0  0  0  0
   -4.1410   20.5210  -31.0990 O   0  0  0  0  0  0  0  0  0  0  0  0
   -3.0460   22.4700  -30.9900 O   0  0  0  0  0  0  0  0  0  0  0  0
   -2.4180   22.8990  -29.7990 C   0  0  1  0  0  0  0  0  0  0  0  0
   -2.3640   24.2860  -29.6610 O   0  0  0  0  0  0  0  0  0  0  0  0
   -1.2940   24.8320  -28.9640 C   0  0  0  0  0  0  0  0  0  0  0  0
   -0.2310   24.1770  -28.8030 O   0  0  0  0  0  0  0  0  0  0  0  0
   -1.4580   26.1130  -28.4640 O   0  0  0  0  0  0  0  0  0  0  0  0
   -1.2130   26.4400  -27.1120 C   0  0  0  0  0  0  0  0  0  0  0  0
   -1.9280   25.4910  -26.1530 C   0  0  0  0  0  0  0  0  0  0  0  0
   -0.8910   25.1530  -24.7000 S   0  0  0  0  0  0  0  0  0  0  0  0
   -0.8240   26.6300  -23.6470 C   0  0  0  0  0  0  0  0  0  0  0  0
   -3.0440   22.3000  -28.5940 C   0  0  0  0  0  0  0  0  0  0  0  0
   -3.4980   23.0140  -27.6610 O   0  0  0  0  0  0  0  0  0  0  0  0
   -3.1150   20.9170  -28.5270 O   0  0  0  0  0  0  0  0  0  0  0  0
   -6.6430   21.7370  -31.4870 C   0  0  0  0  0  0  0  0  0  0  0  0
   -6.8980   20.4640  -31.9670 C   0  0  0  0  0  0  0  0  0  0  0  0
   -7.5262   17.6855  -31.2380 H   0  0  0  0  0  0  0  0  0  0  0  0
   -7.8899   16.7184  -32.7074 H   0  0  0  0  0  0  0  0  0  0  0  0
   -6.5092   17.8675  -32.7074 H   0  0  0  0  0  0  0  0  0  0  0  0
   -9.1830   18.5710  -33.4940 H   0  0  0  0  0  0  0  0  0  0  0  0
  -10.2671   20.6233  -32.4935 H   0  0  0  0  0  0  0  0  0  0  0  0
   -9.8425   22.9213  -31.6331 H   0  0  0  0  0  0  0  0  0  0  0  0
   -7.8220   24.6634  -30.6925 H   0  0  0  0  0  0  0  0  0  0  0  0
   -5.3760   24.2070  -28.1140 H   0  0  0  0  0  0  0  0  0  0  0  0
   -3.8950   25.2170  -28.4020 H   0  0  0  0  0  0  0  0  0  0  0  0
   -1.3819   22.5395  -29.8842 H   0  0  0  0  0  0  0  0  0  0  0  0
   -0.1305   26.3849  -26.9243 H   0  0  0  0  0  0  0  0  0  0  0  0
   -1.5977   27.4550  -26.9338 H   0  0  0  0  0  0  0  0  0  0  0  0
   -2.8717   25.9513  -25.8249 H   0  0  0  0  0  0  0  0  0  0  0  0
   -2.1290   24.5435  -26.6744 H   0  0  0  0  0  0  0  0  0  0  0  0
   -0.8377   26.3273  -22.5895 H   0  0  0  0  0  0  0  0  0  0  0  0
    0.1004   27.1882  -23.8567 H   0  0  0  0  0  0  0  0  0  0  0  0
   -1.6941   27.2696  -23.8567 H   0  0  0  0  0  0  0  0  0  0  0  0
   -3.1000   20.3330  -29.3600 H   0  0  0  0  0  0  0  0  0  0  0  0
   -6.0668   19.7507  -32.0682 H   0  0  0  0  0  0  0  0  0  0  0  0
  1  2  1  0
  2  3  1  0
  3  4  2  0
  4  5  1  0
  5  6  2  0
  6  7  1  0
  7  8  2  0
  8  9  1  0
  9 10  1  0
  9 11  2  0
  8 12  1  0
 12 13  1  0
 13 14  2  0
 13 15  1  0
 15 16  1  0
 16 17  1  0
 17 18  1  0
 18 19  2  0
 18 20  1  0
 20 21  1  0
 21 22  1  0
 22 23  1  0
 23 24  1  0
 16 25  1  0
 25 26  2  0
 25 27  1  0
 12 28  1  0
 28 29  2  0
 29  3  1  0
 28  6  1  0
  1 30  1  0
  1 31  1  0
  1 32  1  0
  2 33  1  0
  4 34  1  0
  5 35  1  0
  7 36  1  0
 10 37  1  0
 10 38  1  0
 16 39  1  6
 21 40  1  0
 21 41  1  0
 22 42  1  0
 22 43  1  0
 24 44  1  0
 24 45  1  0
 24 46  1  0
 27 47  1  0
 29 48  1  0
M  END
>  <smiles>  (1) 
CNc1ccc2cc(C(N)=O)n(C(=O)OC(OC(=O)OCCSC)C(=O)O)c2c1

>  <score_type>  (1) 
oracle

>  <origin>  (1) 
adg

>  <m_score__min__energy>  (1) 
-9.4399999999999995

>  <m_primary>  (1) 
energy

$$$$
1:0
     RDKit          3D

 88 92  0  0  0  0  0  0  0  0999 V2000
   -0.6610   20.6350  -34.9710 C   0  0  0  0  0  0  0  0  0  0  0  0
    0.3120   20.9560  -33.8870 C   0  0  0  0  0  0  0  0  0  0  0  0
    0.9360   19.6430  -33.4410 C   0  0  0  0  0  0  0  0  0  0  0  0
   -0.4630   21.4780  -32.6850 C   0  0  0  0  0  0  0  0  0  0  0  0
    1.2540   21.9220  -34.2060 O   0  0  0  0  0  0  0  0  0  0  0  0
    1.8500   22.0840  -35.4460 C   0  0  0  0  0  0  0  0  0  0  0  0
    1.2960   22.7260  -36.3470 O   0  0  0  0  0  0  0  0  0  0  0  0
    3.1110   21.4960  -35.6510 N   0  0  0  0  0  0  0  0  0  0  0  0
    3.7890   20.7310  -34.5900 C   0  0  0  0  0  0  0  0  0  0  0  0
    3.9200   19.2870  -35.1000 C   0  0  0  0  0  0  0  0  0  0  0  0
    3.4810   19.2830  -36.4690 N   0  0  0  0  0  0  0  0  0  0  0  0
    2.6980   18.2200  -36.9020 C   0  0  0  0  0  0  0  0  0  0  0  0
    1.2520   18.4970  -37.2150 C   0  0  0  0  0  0  0  0  0  0  0  0
    0.2990   17.8630  -36.2410 C   0  0  0  0  0  0  0  0  0  0  0  0
    0.5800   16.4700  -35.9920 N   0  0  0  0  0  0  0  0  0  0  0  0
   -0.3110   15.6130  -35.2770 C   0  0  0  0  0  0  0  0  0  0  0  0
    0.0240   14.4170  -35.0980 O   0  0  0  0  0  0  0  0  0  0  0  0
   -1.5710   16.1770  -34.7920 C   0  0  0  0  0  0  0  0  0  0  0  0
   -1.7530   16.6210  -33.4990 C   0  0  0  0  0  0  0  0  0  0  0  0
   -2.9670   17.1740  -33.1410 C   0  0  0  0  0  0  0  0  0  0  0  0
   -4.0220   17.3050  -34.0180 C   0  0  0  0  0  0  0  0  0  0  0  0
   -5.2280   17.9490  -33.5260 C   0  0  0  0  0  0  0  0  0  0  0  0
   -6.3790   17.1520  -33.5400 C   0  0  0  0  0  0  0  0  0  0  0  0
   -7.5600   17.6930  -33.1020 C   0  0  0  0  0  0  0  0  0  0  0  0
   -7.5830   18.9990  -32.6640 C   0  0  0  0  0  0  0  0  0  0  0  0
   -8.6440   19.7240  -32.2000 C   0  0  0  0  0  0  0  0  0  0  0  0
   -8.1450   21.0010  -31.8910 C   0  0  0  0  0  0  0  0  0  0  0  0
   -9.0700   22.0190  -31.4130 C   0  0  0  0  0  0  0  0  0  0  0  0
   -9.0940   23.3340  -32.0390 N   0  0  0  0  0  0  0  0  0  0  0  0
   -9.8640   21.7580  -30.4600 O   0  0  0  0  0  0  0  0  0  0  0  0
   -6.8300   21.0550  -32.1500 N   0  0  0  0  0  0  0  0  0  0  0  0
   -5.8840   22.0600  -31.8880 C   0  0  0  0  0  0  0  0  0  0  0  0
   -6.1840   23.2460  -32.2700 O   0  0  0  0  0  0  0  0  0  0  0  0
   -4.5980   21.9350  -31.2440 C   0  0  0  0  0  0  0  0  0  0  0  0
   -3.9260   20.8830  -31.1330 O   0  0  0  0  0  0  0  0  0  0  0  0
   -3.9730   23.0950  -30.6510 N   0  0  0  0  0  0  0  0  0  0  0  0
   -2.6870   22.8650  -30.0230 C   0  0  0  0  0  0  0  0  0  0  0  0
   -2.0880   24.1220  -29.5210 C   0  0  0  0  0  0  0  0  0  0  0  0
   -0.8740   24.1930  -29.2310 O   0  0  0  0  0  0  0  0  0  0  0  0
   -2.8280   25.3000  -29.3390 O   0  0  0  0  0  0  0  0  0  0  0  0
   -6.4870   19.8220  -32.6300 C   0  0  0  0  0  0  0  0  0  0  0  0
   -5.2930   19.2540  -33.0780 C   0  0  0  0  0  0  0  0  0  0  0  0
   -3.8500   16.8600  -35.3070 C   0  0  0  0  0  0  0  0  0  0  0  0
   -2.6410   16.3040  -35.6910 C   0  0  0  0  0  0  0  0  0  0  0  0
    1.8490   15.9610  -36.5300 C   0  0  0  0  0  0  0  0  0  0  0  0
    2.8780   16.9970  -36.0450 C   0  0  0  0  0  0  0  0  0  0  0  0
    4.2010   20.1350  -37.3100 C   0  0  0  0  0  0  0  0  0  0  0  0
    3.8490   21.5800  -36.9090 C   0  0  0  0  0  0  0  0  0  0  0  0
   -1.6159   20.3200  -34.5251 H   0  0  0  0  0  0  0  0  0  0  0  0
   -0.8237   21.5271  -35.5937 H   0  0  0  0  0  0  0  0  0  0  0  0
   -0.2609   19.8212  -35.5937 H   0  0  0  0  0  0  0  0  0  0  0  0
    0.9559   19.6011  -32.3420 H   0  0  0  0  0  0  0  0  0  0  0  0
    0.3406   18.8035  -33.8292 H   0  0  0  0  0  0  0  0  0  0  0  0
    1.9629   19.5745  -33.8292 H   0  0  0  0  0  0  0  0  0  0  0  0
    0.0295   21.1463  -31.7590 H   0  0  0  0  0  0  0  0  0  0  0  0
   -0.4875   22.5774  -32.7138 H   0  0  0  0  0  0  0  0  0  0  0  0
   -1.4909   21.0875  -32.7138 H   0  0  0  0  0  0  0  0  0  0  0  0
    4.7847   21.1555  -34.3941 H   0  0  0  0  0  0  0  0  0  0  0  0
    3.2187   20.7680  -33.6501 H   0  0  0  0  0  0  0  0  0  0  0  0
    4.9679   18.9583  -35.0384 H   0  0  0  0  0  0  0  0  0  0  0  0
    3.3141   18.5994  -34.4916 H   0  0  0  0  0  0  0  0  0  0  0  0
    3.1099   18.0181  -37.9018 H   0  0  0  0  0  0  0  0  0  0  0  0
    1.0940   19.5855  -37.1992 H   0  0  0  0  0  0  0  0  0  0  0  0
    1.0442   18.0613  -38.2034 H   0  0  0  0  0  0  0  0  0  0  0  0
    0.3609   18.4075  -35.2873 H   0  0  0  0  0  0  0  0  0  0  0  0
   -0.7057   17.9182  -36.6855 H   0  0  0  0  0  0  0  0  0  0  0  0
   -0.9411   16.5357  -32.7617 H   0  0  0  0  0  0  0  0  0  0  0  0
   -3.0979   17.5264  -32.1072 H   0  0  0  0  0  0  0  0  0  0  0  0
   -6.3365   16.1119  -33.8956 H   0  0  0  0  0  0  0  0  0  0  0  0
   -8.4802   17.0903  -33.1003 H   0  0  0  0  0  0  0  0  0  0  0  0
   -9.6821   19.3773  -32.0901 H   0  0  0  0  0  0  0  0  0  0  0  0
  -10.0480   23.7760  -32.1030 H   0  0  0  0  0  0  0  0  0  0  0  0
   -8.2270   23.7880  -32.3900 H   0  0  0  0  0  0  0  0  0  0  0  0
   -4.4160   24.0350  -30.6730 H   0  0  0  0  0  0  0  0  0  0  0  0
   -2.8217   22.1727  -29.1788 H   0  0  0  0  0  0  0  0  0  0  0  0
   -2.0088   22.4406  -30.7779 H   0  0  0  0  0  0  0  0  0  0  0  0
   -3.5280   25.3480  -28.5890 H   0  0  0  0  0  0  0  0  0  0  0  0
   -4.3773   19.8635  -33.0741 H   0  0  0  0  0  0  0  0  0  0  0  0
   -4.6719   16.9454  -36.0331 H   0  0  0  0  0  0  0  0  0  0  0  0
   -2.5165   15.9533  -36.7262 H   0  0  0  0  0  0  0  0  0  0  0  0
    2.0754   14.9624  -36.1282 H   0  0  0  0  0  0  0  0  0  0  0  0
    1.8376   15.8441  -37.6237 H   0  0  0  0  0  0  0  0  0  0  0  0
    2.6974   17.2446  -34.9885 H   0  0  0  0  0  0  0  0  0  0  0  0
    3.9024   16.6046  -36.1261 H   0  0  0  0  0  0  0  0  0  0  0  0
    5.2803   19.9623  -37.1861 H   0  0  0  0  0  0  0  0  0  0  0  0
    3.9446   19.9500  -38.3636 H   0  0  0  0  0  0  0  0  0  0  0  0
    4.7671   22.1702  -36.7718 H   0  0  0  0  0  0  0  0  0  0  0  0
    3.2496   22.0732  -37.6884 H   0  0  0  0  0  0  0  0  0  0  0  0
  1  2  1  0
  2  3  1  0
  2  4  1  0
  2  5  1  0
  5  6  1  0
  6  7  2  0
  6  8  1  0
  8  9  1  0
  9 10  1  0
 10 11  1  0
 11 12  1  0
 12 13  1  0
 13 14  1  0
 14 15  1  0
 15 16  1  0
 16 17  2  0
 16 18  1  0
 18 19  2  0
 19 20  1  0
 20 21  2  0
 21 22  1  0
 22 23  2  0
 23 24  1  0
 24 25  2  0
 25 26  1  0
 26 27  2  0
 27 28  1  0
 28 29  1  0
 28 30  2  0
 27 31  1  0
 31 32  1  0
 32 33  2  0
 32 34  1  0
 34 35  2  0
 34 36  1  0
 36 37  1  0
 37 38  1  0
 38 39  2  0
 38 40  1  0
 31 41  1  0
 41 42  2  0
 21 43  1  0
 43 44  2  0
 15 45  1  0
 45 46  1  0
 11 47  1  0
 47 48  1  0
 48  8  1  0
 46 12  1  0
 44 18  1  0
 42 22  1  0
 41 25  1  0
  1 49  1  0
  1 50  1  0
  1 51  1  0
  3 52  1  0
  3 53  1  0
  3 54  1  0
  4 55  1  0
  4 56  1  0
  4 57  1  0
  9 58  1  0
  9 59  1  0
 10 60  1  0
 10 61  1  0
 12 62  1  0
 13 63  1  0
 13 64  1  0
 14 65  1  0
 14 66  1  0
 19 67  1  0
 20 68  1  0
 23 69  1  0
 24 70  1  0
 26 71  1  0
 29 72  1  0
 29 73  1  0
 36 74  1  0
 37 75  1  0
 37 76  1  0
 40 77  1  0
 42 78  1  0
 43 79  1  0
 44 80  1  0
 45 81  1  0
 45 82  1  0
 46 83  1  0
 46 84  1  0
 47 85  1  0
 47 86  1  0
 48 87  1  0
 48 88  1  0
M  END
>  <smiles>  (2) 
CC(C)(C)OC(=O)N1CCN(C2CCN(C(=O)c3ccc(-c4ccc5cc(C(N)=O)n(C(=O)C(=O)NCC(=O)O)c5c4)cc3)CC2)CC1

>  <score_type>  (2) 
oracle

>  <origin>  (2) 
adg

>  <m_score__min__energy>  (2) 
-10.34

>  <m_primary>  (2) 
energy

$$$$
2:0
     RDKit          3D

 47 49  0  0  0  0  0  0  0  0999 V2000
   -3.1330   21.7100  -27.8600 C   0  0  0  0  0  0  0  0  0  0  0  0
   -3.6320   22.8890  -28.6060 C   0  0  0  0  0  0  0  0  0  0  0  0
   -4.5650   23.6320  -28.1500 O   0  0  0  0  0  0  0  0  0  0  0  0
   -3.1220   23.2620  -29.8400 O   0  0  0  0  0  0  0  0  0  0  0  0
   -3.1680   22.3590  -30.9310 N   0  0  0  0  0  0  0  0  0  0  0  0
   -2.0010   21.5410  -31.0410 C   0  0  0  0  0  0  0  0  0  0  0  0
   -4.3740   22.3840  -31.6310 C   0  0  0  0  0  0  0  0  0  0  0  0
   -4.2250   21.9210  -32.8400 O   0  0  0  0  0  0  0  0  0  0  0  0
   -5.6720   22.8030  -31.3210 N   0  0  0  0  0  0  0  0  0  0  0  0
   -6.2000   23.9720  -30.9480 C   0  0  0  0  0  0  0  0  0  0  0  0
   -5.5420   25.1560  -30.3780 C   0  0  0  0  0  0  0  0  0  0  0  0
   -6.1030   25.7780  -29.2060 N   0  0  0  0  0  0  0  0  0  0  0  0
   -4.5140   25.6850  -30.8310 O   0  0  0  0  0  0  0  0  0  0  0  0
   -7.5910   23.9360  -30.9740 C   0  0  0  0  0  0  0  0  0  0  0  0
   -7.9290   22.6840  -31.3760 C   0  0  0  0  0  0  0  0  0  0  0  0
   -9.1840   22.1350  -31.5640 C   0  0  0  0  0  0  0  0  0  0  0  0
   -9.2970   20.8320  -31.9820 C   0  0  0  0  0  0  0  0  0  0  0  0
   -8.1440   20.0960  -32.2060 C   0  0  0  0  0  0  0  0  0  0  0  0
   -8.3110   18.7240  -32.6990 C   0  0  0  0  0  0  0  0  0  0  0  0
   -7.2740   17.8640  -32.2030 N   0  0  0  0  0  0  0  0  0  0  0  0
   -7.0680   17.7360  -30.8790 N   0  0  0  0  0  0  0  0  0  0  0  0
   -6.1020   16.8800  -30.6580 N   0  0  0  0  0  0  0  0  0  0  0  0
   -5.6770   16.4510  -31.8260 N   0  0  0  0  0  0  0  0  0  0  0  0
   -6.4020   17.0610  -32.8180 C   0  0  0  0  0  0  0  0  0  0  0  0
   -6.1190   16.8010  -34.2340 C   0  0  0  0  0  0  0  0  0  0  0  0
   -5.3130   17.9090  -34.8350 C   0  0  0  0  0  0  0  0  0  0  0  0
   -6.1390   18.9260  -35.3380 F   0  0  0  0  0  0  0  0  0  0  0  0
   -4.4530   18.4430  -33.9260 F   0  0  0  0  0  0  0  0  0  0  0  0
   -4.5750   17.3890  -35.9120 F   0  0  0  0  0  0  0  0  0  0  0  0
   -6.8920   20.6870  -32.0050 C   0  0  0  0  0  0  0  0  0  0  0  0
   -6.7580   22.0020  -31.5830 C   0  0  0  0  0  0  0  0  0  0  0  0
   -3.2130   21.8991  -26.7793 H   0  0  0  0  0  0  0  0  0  0  0  0
   -3.7349   20.8278  -28.1234 H   0  0  0  0  0  0  0  0  0  0  0  0
   -2.0806   21.5279  -28.1234 H   0  0  0  0  0  0  0  0  0  0  0  0
   -1.6363   21.2854  -30.0352 H   0  0  0  0  0  0  0  0  0  0  0  0
   -2.2498   20.6186  -31.5862 H   0  0  0  0  0  0  0  0  0  0  0  0
   -1.2188   22.0895  -31.5862 H   0  0  0  0  0  0  0  0  0  0  0  0
   -6.6180   26.6760  -29.3180 H   0  0  0  0  0  0  0  0  0  0  0  0
   -5.9540   25.2800  -28.3090 H   0  0  0  0  0  0  0  0  0  0  0  0
   -8.2781   24.7566  -30.7200 H   0  0  0  0  0  0  0  0  0  0  0  0
  -10.0855   22.7378  -31.3800 H   0  0  0  0  0  0  0  0  0  0  0  0
  -10.2874   20.3791  -32.1367 H   0  0  0  0  0  0  0  0  0  0  0  0
   -9.2861   18.3392  -32.3657 H   0  0  0  0  0  0  0  0  0  0  0  0
   -8.2548   18.7395  -33.7975 H   0  0  0  0  0  0  0  0  0  0  0  0
   -5.5565   15.8597  -34.3209 H   0  0  0  0  0  0  0  0  0  0  0  0
   -7.0748   16.7318  -34.7741 H   0  0  0  0  0  0  0  0  0  0  0  0
   -5.9857   20.0907  -32.1871 H   0  0  0  0  0  0  0  0  0  0  0  0
  1  2  1  0
  2  3  2  0
  2  4  1  0
  4  5  1  0
  5  6  1  0
  5  7  1  0
  7  8  2  0
  7  9  1  0
  9 10  1  0
 10 11  1  0
 11 12  1  0
 11 13  2  0
 10 14  2  0
 14 15  1  0
 15 16  2  0
 16 17  1  0
 17 18  2  0
 18 19  1  0
 19 20  1  0
 20 21  1  0
 21 22  2  0
 22 23  1  0
 23 24  2  0
 24 25  1  0
 25 26  1  0
 26 27  1  0
 26 28  1  0
 26 29  1  0
 18 30  1  0
 30 31  2  0
 31  9  1  0
 31 15  1  0
 24 20  1  0
  1 32  1  0
  1 33  1  0
  1 34  1  0
  6 35  1  0
  6 36  1  0
  6 37  1  0
 12 38  1  0
 12 39  1  0
 14 40  1  0
 16 41  1  0
 17 42  1  0
 19 43  1  0
 19 44  1  0
 25 45  1  0
 25 46  1  0
 30 47  1  0
M  END
>  <smiles>  (3) 
CC(=O)ON(C)C(=O)n1c(C(N)=O)cc2ccc(Cn3nnnc3CC(F)(F)F)cc21

>  <score_type>  (3) 
oracle

>  <origin>  (3) 
adg

>  <m_score__min__energy>  (3) 
-9.6999999999999993

>  <m_primary>  (3) 
energy

$$$$
3:0
     RDKit          3D

 40 42  0  0  0  0  0  0  0  0999 V2000
   -1.5540   20.0180  -31.8480 C   0  0  0  0  0  0  0  0  0  0  0  0
   -1.8870   21.3900  -31.6110 O   0  0  0  0  0  0  0  0  0  0  0  0
   -3.0220   21.9290  -32.2890 C   0  0  0  0  0  0  0  0  0  0  0  0
   -3.1130   21.5390  -33.4700 O   0  0  0  0  0  0  0  0  0  0  0  0
   -3.8900   22.8170  -31.5690 C   0  0  0  0  0  0  0  0  0  0  0  0
   -3.2810   23.7600  -30.9300 O   0  0  0  0  0  0  0  0  0  0  0  0
   -5.2920   22.8050  -31.4510 N   0  0  0  0  0  0  0  0  0  0  0  0
   -6.1760   23.7550  -31.1360 C   0  0  0  0  0  0  0  0  0  0  0  0
   -6.0020   25.0480  -30.4910 C   0  0  0  0  0  0  0  0  0  0  0  0
   -4.7270   25.7170  -30.6070 N   0  0  0  0  0  0  0  0  0  0  0  0
   -6.8600   25.6630  -29.8260 O   0  0  0  0  0  0  0  0  0  0  0  0
   -7.4880   23.2840  -31.3570 C   0  0  0  0  0  0  0  0  0  0  0  0
   -7.3710   22.0090  -31.8130 C   0  0  0  0  0  0  0  0  0  0  0  0
   -8.3660   21.1160  -32.1710 C   0  0  0  0  0  0  0  0  0  0  0  0
   -8.0330   19.8570  -32.6140 C   0  0  0  0  0  0  0  0  0  0  0  0
   -6.6970   19.5380  -32.6800 C   0  0  0  0  0  0  0  0  0  0  0  0
   -6.3540   18.2020  -33.1500 C   0  0  0  0  0  0  0  0  0  0  0  0
   -5.0680   17.9670  -33.5770 C   0  0  0  0  0  0  0  0  0  0  0  0
   -4.6800   16.7100  -34.0360 C   0  0  0  0  0  0  0  0  0  0  0  0
   -5.6320   15.7110  -34.0490 C   0  0  0  0  0  0  0  0  0  0  0  0
   -5.2010   14.3630  -34.5460 C   0  0  0  0  0  0  0  0  0  0  0  0
   -6.9070   15.9180  -33.6330 N   0  0  0  0  0  0  0  0  0  0  0  0
   -7.2410   17.1630  -33.1920 C   0  0  0  0  0  0  0  0  0  0  0  0
   -5.7020   20.4510  -32.3140 C   0  0  0  0  0  0  0  0  0  0  0  0
   -6.0340   21.7260  -31.8650 C   0  0  0  0  0  0  0  0  0  0  0  0
   -1.4282   19.4998  -30.8859 H   0  0  0  0  0  0  0  0  0  0  0  0
   -2.3618   19.5382  -32.4201 H   0  0  0  0  0  0  0  0  0  0  0  0
   -0.6162   19.9619  -32.4201 H   0  0  0  0  0  0  0  0  0  0  0  0
   -4.3060   26.2370  -29.8050 H   0  0  0  0  0  0  0  0  0  0  0  0
   -4.2570   25.6410  -31.5520 H   0  0  0  0  0  0  0  0  0  0  0  0
   -8.4226   23.8402  -31.1923 H   0  0  0  0  0  0  0  0  0  0  0  0
   -9.4229   21.4130  -32.1013 H   0  0  0  0  0  0  0  0  0  0  0  0
   -8.8072   19.1318  -32.9049 H   0  0  0  0  0  0  0  0  0  0  0  0
   -4.3332   18.7853  -33.5558 H   0  0  0  0  0  0  0  0  0  0  0  0
   -3.6512   16.5206  -34.3760 H   0  0  0  0  0  0  0  0  0  0  0  0
   -4.9910   13.7062  -33.6890 H   0  0  0  0  0  0  0  0  0  0  0  0
   -6.0034   13.9236  -35.1567 H   0  0  0  0  0  0  0  0  0  0  0  0
   -4.2925   14.4707  -35.1567 H   0  0  0  0  0  0  0  0  0  0  0  0
   -8.2727   17.3403  -32.8540 H   0  0  0  0  0  0  0  0  0  0  0  0
   -4.6441   20.1575  -32.3819 H   0  0  0  0  0  0  0  0  0  0  0  0
  1  2  1  0
  2  3  1  0
  3  4  2  0
  3  5  1  0
  5  6  2  0
  5  7  1  0
  7  8  1  0
  8  9  1  0
  9 10  1  0
  9 11  2  0
  8 12  2  0
 12 13  1  0
 13 14  2  0
 14 15  1  0
 15 16  2  0
 16 17  1  0
 17 18  2  0
 18 19  1  0
 19 20  2  0
 20 21  1  0
 20 22  1  0
 22 23  2  0
 16 24  1  0
 24 25  2  0
 25  7  1  0
 25 13  1  0
 23 17  1  0
  1 26  1  0
  1 27  1  0
  1 28  1  0
 10 29  1  0
 10 30  1  0
 12 31  1  0
 14 32  1  0
 15 33  1  0
 18 34  1  0
 19 35  1  0
 21 36  1  0
 21 37  1  0
 21 38  1  0
 23 39  1  0
 24 40  1  0
M  END
>  <smiles>  (4) 
COC(=O)C(=O)n1c(C(N)=O)cc2ccc(-c3ccc(C)nc3)cc21

>  <score_type>  (4) 
oracle

>  <origin>  (4) 
adg

>  <m_score__min__energy>  (4) 
-9.0600000000000005

>  <m_primary>  (4) 
energy

$$$$
4:0
     RDKit          3D

 50 51  0  0  0  0  0  0  0  0999 V2000
   -5.0040   18.9120  -34.2070 C   0  0  0  0  0  0  0  0  0  0  0  0
   -5.3340   17.7560  -35.0610 N   0  0  0  0  0  0  0  0  0  0  0  0
   -4.0690   17.0710  -35.2600 C   0  0  0  0  0  0  0  0  0  0  0  0
   -6.2750   16.9670  -34.2850 C   0  0  0  0  0  0  0  0  0  0  0  0
   -6.0400   17.1020  -32.8170 C   0  0  0  0  0  0  0  0  0  0  0  0
   -7.2510   17.5780  -32.0580 C   0  0  0  0  0  0  0  0  0  0  0  0
   -8.0830   18.5020  -32.7560 N   0  0  0  0  0  0  0  0  0  0  0  0
   -8.0800   19.9010  -32.3890 C   0  0  0  0  0  0  0  0  0  0  0  0
   -9.2550   20.6110  -32.3730 C   0  0  0  0  0  0  0  0  0  0  0  0
   -9.1930   21.9290  -32.0030 C   0  0  0  0  0  0  0  0  0  0  0  0
   -7.9890   22.5130  -31.6620 C   0  0  0  0  0  0  0  0  0  0  0  0
   -7.7320   23.7790  -31.2680 C   0  0  0  0  0  0  0  0  0  0  0  0
   -6.3520   23.8410  -31.0380 C   0  0  0  0  0  0  0  0  0  0  0  0
   -5.7990   25.0910  -30.5250 C   0  0  0  0  0  0  0  0  0  0  0  0
   -5.6940   25.2540  -29.0880 N   0  0  0  0  0  0  0  0  0  0  0  0
   -5.4060   26.0490  -31.2070 O   0  0  0  0  0  0  0  0  0  0  0  0
   -5.7580   22.6720  -31.2810 N   0  0  0  0  0  0  0  0  0  0  0  0
   -4.4330   22.2580  -31.4080 C   0  0  0  0  0  0  0  0  0  0  0  0
   -3.9710   22.4300  -32.6570 O   0  0  0  0  0  0  0  0  0  0  0  0
   -3.3790   21.7060  -30.5970 C   0  0  0  0  0  0  0  0  0  0  0  0
   -2.3380   22.5820  -30.0510 C   0  0  0  0  0  0  0  0  0  0  0  0
   -2.9990   23.8530  -29.4770 C   0  0  0  0  0  0  0  0  0  0  0  0
   -3.4150   23.8280  -28.2770 O   0  0  0  0  0  0  0  0  0  0  0  0
   -3.1240   24.9790  -30.2710 O   0  0  0  0  0  0  0  0  0  0  0  0
   -6.7980   21.8410  -31.6660 C   0  0  0  0  0  0  0  0  0  0  0  0
   -6.8630   20.5050  -32.0410 C   0  0  0  0  0  0  0  0  0  0  0  0
   -5.0868   18.6219  -33.1492 H   0  0  0  0  0  0  0  0  0  0  0  0
   -3.9759   19.2417  -34.4174 H   0  0  0  0  0  0  0  0  0  0  0  0
   -5.7032   19.7347  -34.4174 H   0  0  0  0  0  0  0  0  0  0  0  0
   -3.6247   16.8304  -34.2829 H   0  0  0  0  0  0  0  0  0  0  0  0
   -4.2398   16.1421  -35.8239 H   0  0  0  0  0  0  0  0  0  0  0  0
   -3.3844   17.7217  -35.8239 H   0  0  0  0  0  0  0  0  0  0  0  0
   -7.2962   17.3057  -34.5139 H   0  0  0  0  0  0  0  0  0  0  0  0
   -6.1367   15.9098  -34.5557 H   0  0  0  0  0  0  0  0  0  0  0  0
   -5.7434   16.1201  -32.4197 H   0  0  0  0  0  0  0  0  0  0  0  0
   -5.2542   17.8599  -32.6825 H   0  0  0  0  0  0  0  0  0  0  0  0
   -7.8598   16.6980  -31.8029 H   0  0  0  0  0  0  0  0  0  0  0  0
   -6.8669   18.1177  -31.1798 H   0  0  0  0  0  0  0  0  0  0  0  0
   -8.7140   18.2110  -33.5400 H   0  0  0  0  0  0  0  0  0  0  0  0
  -10.2104   20.1396  -32.6469 H   0  0  0  0  0  0  0  0  0  0  0  0
  -10.1142   22.5296  -31.9773 H   0  0  0  0  0  0  0  0  0  0  0  0
   -8.4593   24.5959  -31.1514 H   0  0  0  0  0  0  0  0  0  0  0  0
   -6.5370   25.1720  -28.4800 H   0  0  0  0  0  0  0  0  0  0  0  0
   -4.7300   25.4500  -28.7560 H   0  0  0  0  0  0  0  0  0  0  0  0
   -3.8624   21.2148  -29.7396 H   0  0  0  0  0  0  0  0  0  0  0  0
   -2.8269   21.0665  -31.3015 H   0  0  0  0  0  0  0  0  0  0  0  0
   -1.7953   22.0558  -29.2519 H   0  0  0  0  0  0  0  0  0  0  0  0
   -1.6308   22.8586  -30.8469 H   0  0  0  0  0  0  0  0  0  0  0  0
   -3.5100   24.9240  -31.2210 H   0  0  0  0  0  0  0  0  0  0  0  0
   -5.9396   19.9077  -32.0655 H   0  0  0  0  0  0  0  0  0  0  0  0
  1  2  1  0
  2  3  1  0
  2  4  1  0
  4  5  1  0
  5  6  1  0
  6  7  1  0
  7  8  1  0
  8  9  2  0
  9 10  1  0
 10 11  2  0
 11 12  1  0
 12 13  2  0
 13 14  1  0
 14 15  1  0
 14 16  2  0
 13 17  1  0
 17 18  1  0
 18 19  2  0
 18 20  1  0
 20 21  1  0
 21 22  1  0
 22 23  2  0
 22 24  1  0
 17 25  1  0
 25 26  2  0
 26  8  1  0
 25 11  1  0
  1 27  1  0
  1 28  1  0
  1 29  1  0
  3 30  1  0
  3 31  1  0
  3 32  1  0
  4 33  1  0
  4 34  1  0
  5 35  1  0
  5 36  1  0
  6 37  1  0
  6 38  1  0
  7 39  1  0
  9 40  1  0
 10 41  1  0
 12 42  1  0
 15 43  1  0
 15 44  1  0
 20 45  1  0
 20 46  1  0
 21 47  1  0
 21 48  1  0
 24 49  1  0
 26 50  1  0
M  END
>  <smiles>  (5) 
CN(C)CCCNc1ccc2cc(C(N)=O)n(C(=O)CCC(=O)O)c2c1

>  <score_type>  (5) 
oracle

>  <origin>  (5) 
adg

>  <m_score__min__energy>  (5) 
-9.3699999999999992

>  <m_primary>  (5) 
energy

$$$$
5:0
     RDKit          3D

 45 46  0  0  1  0  0  0  0  0999 V2000
   -4.0200   25.0180  -29.8200 N   0  0  0  0  0  0  0  0  0  0  0  0
   -5.3070   25.0540  -30.5070 C   0  0  0  0  0  0  0  0  0  0  0  0
   -5.7300   26.2190  -30.6640 O   0  0  0  0  0  0  0  0  0  0  0  0
   -5.9410   23.8190  -30.9210 C   0  0  0  0  0  0  0  0  0  0  0  0
   -7.3250   23.7970  -31.1830 C   0  0  0  0  0  0  0  0  0  0  0  0
   -7.6760   22.5450  -31.5530 C   0  0  0  0  0  0  0  0  0  0  0  0
   -8.9030   22.0270  -31.8950 C   0  0  0  0  0  0  0  0  0  0  0  0
   -9.0230   20.7050  -32.2250 C   0  0  0  0  0  0  0  0  0  0  0  0
   -7.9040   19.9260  -32.2040 C   0  0  0  0  0  0  0  0  0  0  0  0
   -7.9830   18.4670  -32.5590 C   0  0  0  0  0  0  0  0  0  0  0  0
   -9.0750   17.8920  -31.9760 F   0  0  0  0  0  0  0  0  0  0  0  0
   -6.7940   17.9190  -32.0620 F   0  0  0  0  0  0  0  0  0  0  0  0
   -6.6650   20.4660  -31.8540 C   0  0  0  0  0  0  0  0  0  0  0  0
   -6.5110   21.7930  -31.5170 C   0  0  0  0  0  0  0  0  0  0  0  0
   -5.4610   22.5720  -31.1340 N   0  0  0  0  0  0  0  0  0  0  0  0
   -4.1130   22.2280  -31.0200 C   0  0  0  0  0  0  0  0  0  0  0  0
   -3.2210   23.1080  -31.2850 O   0  0  0  0  0  0  0  0  0  0  0  0
   -3.5410   20.9950  -30.6410 N   0  0  0  0  0  0  0  0  0  0  0  0
   -2.0870   20.9260  -30.6060 C   0  0  0  0  0  0  0  0  0  0  0  0
   -1.5060   21.9870  -29.7600 C   0  0  0  0  0  0  0  0  0  0  0  0
   -1.0540   23.0740  -30.1760 O   0  0  0  0  0  0  0  0  0  0  0  0
   -1.4590   21.7550  -28.3580 N   0  0  0  0  0  0  0  0  0  0  0  0
   -0.8930   22.7790  -27.4820 C   0  0  0  0  0  0  0  0  0  0  0  0
   -1.8060   23.9920  -27.5220 C   0  0  2  0  0  0  0  0  0  0  0  0
   -3.0090   23.7030  -28.1260 O   0  0  0  0  0  0  0  0  0  0  0  0
   -1.0640   25.1400  -28.1300 C   0  0  0  0  0  0  0  0  0  0  0  0
   -1.6170   25.4870  -29.3410 O   0  0  0  0  0  0  0  0  0  0  0  0
   -3.3400   24.3390  -30.2260 H   0  0  0  0  0  0  0  0  0  0  0  0
   -3.8340   25.6290  -29.0000 H   0  0  0  0  0  0  0  0  0  0  0  0
   -8.0070   24.6561  -31.1002 H   0  0  0  0  0  0  0  0  0  0  0  0
   -9.7902   22.6773  -31.9032 H   0  0  0  0  0  0  0  0  0  0  0  0
   -9.9994   20.2802  -32.5009 H   0  0  0  0  0  0  0  0  0  0  0  0
   -8.0909   18.2994  -33.6408 H   0  0  0  0  0  0  0  0  0  0  0  0
   -5.7821   19.8099  -31.8471 H   0  0  0  0  0  0  0  0  0  0  0  0
   -4.0650   20.1720  -30.4150 H   0  0  0  0  0  0  0  0  0  0  0  0
   -1.7870   19.9468  -30.2046 H   0  0  0  0  0  0  0  0  0  0  0  0
   -1.7142   21.0652  -31.6315 H   0  0  0  0  0  0  0  0  0  0  0  0
   -1.8310   20.8470  -27.9610 H   0  0  0  0  0  0  0  0  0  0  0  0
   -0.8281   22.3951  -26.4532 H   0  0  0  0  0  0  0  0  0  0  0  0
    0.1180   23.0520  -27.8188 H   0  0  0  0  0  0  0  0  0  0  0  0
   -2.0845   24.2928  -26.5012 H   0  0  0  0  0  0  0  0  0  0  0  0
   -2.9740   23.5370  -29.0890 H   0  0  0  0  0  0  0  0  0  0  0  0
   -1.1129   26.0030  -27.4497 H   0  0  0  0  0  0  0  0  0  0  0  0
   -0.0177   24.8409  -28.2906 H   0  0  0  0  0  0  0  0  0  0  0  0
   -1.9310   24.6920  -29.8050 H   0  0  0  0  0  0  0  0  0  0  0  0
  1  2  1  0
  2  3  2  0
  2  4  1  0
  4  5  2  0
  5  6  1  0
  6  7  2  0
  7  8  1  0
  8  9  2  0
  9 10  1  0
 10 11  1  0
 10 12  1  0
  9 13  1  0
 13 14  2  0
 14 15  1  0
 15 16  1  0
 16 17  2  0
 16 18  1  0
 18 19  1  0
 19 20  1  0
 20 21  2  0
 20 22  1  0
 22 23  1  0
 23 24  1  0
 24 25  1  0
 24 26  1  0
 26 27  1  0
 15  4  1  0
 14  6  1  0
  1 28  1  0
  1 29  1  0
  5 30  1  0
  7 31  1  0
  8 32  1  0
 10 33  1  0
 13 34  1  0
 18 35  1  0
 19 36  1  0
 19 37  1  0
 22 38  1  0
 23 39  1  0
 23 40  1  0
 24 41  1  1
 25 42  1  0
 26 43  1  0
 26 44  1  0
 27 45  1  0
M  END
>  <smiles>  (6) 
NC(=O)c1cc2ccc(C(F)F)cc2n1C(=O)NCC(=O)NCC(O)CO

>  <score_type>  (6) 
oracle

>  <origin>  (6) 
adg

>  <m_score__min__energy>  (6) 
-8.6500000000000004

>  <m_primary>  (6) 
energy

$$$$
6:0
     RDKit          3D

 43 44  0  0  0  0  0  0  0  0999 V2000
   -6.4970   18.9360  -33.6400 C   0  0  0  0  0  0  0  0  0  0  0  0
   -6.7750   20.1840  -32.8750 C   0  0  0  0  0  0  0  0  0  0  0  0
   -8.0820   20.4660  -32.5570 C   0  0  0  0  0  0  0  0  0  0  0  0
   -8.3280   21.6200  -31.8510 C   0  0  0  0  0  0  0  0  0  0  0  0
   -7.2790   22.4470  -31.4880 C   0  0  0  0  0  0  0  0  0  0  0  0
   -7.3110   23.6160  -30.7960 C   0  0  0  0  0  0  0  0  0  0  0  0
   -5.9770   24.0510  -30.6980 C   0  0  0  0  0  0  0  0  0  0  0  0
   -5.7220   25.3470  -30.0750 C   0  0  0  0  0  0  0  0  0  0  0  0
   -6.4710   25.8910  -29.0070 N   0  0  0  0  0  0  0  0  0  0  0  0
   -4.7590   26.0430  -30.5020 O   0  0  0  0  0  0  0  0  0  0  0  0
   -5.1470   23.1920  -31.2920 N   0  0  0  0  0  0  0  0  0  0  0  0
   -3.7590   23.0260  -31.3050 C   0  0  0  0  0  0  0  0  0  0  0  0
   -3.1050   24.0590  -30.8380 O   0  0  0  0  0  0  0  0  0  0  0  0
   -2.9200   22.0000  -31.7230 N   0  0  0  0  0  0  0  0  0  0  0  0
   -2.0950   21.8770  -32.8810 C   0  0  0  0  0  0  0  0  0  0  0  0
   -2.8630   20.8210  -30.8420 C   0  0  0  0  0  0  0  0  0  0  0  0
   -3.3690   19.7200  -31.2510 O   0  0  0  0  0  0  0  0  0  0  0  0
   -2.2910   20.8670  -29.6060 O   0  0  0  0  0  0  0  0  0  0  0  0
   -2.8180   21.5440  -28.5090 C   0  0  0  0  0  0  0  0  0  0  0  0
   -2.2490   22.8940  -28.3820 C   0  0  0  0  0  0  0  0  0  0  0  0
   -1.0900   23.2930  -28.8570 C   0  0  0  0  0  0  0  0  0  0  0  0
   -0.6480   24.6750  -28.6520 C   0  0  0  0  0  0  0  0  0  0  0  0
    0.2980   24.9760  -27.8810 O   0  0  0  0  0  0  0  0  0  0  0  0
   -1.2610   25.7470  -29.3120 O   0  0  0  0  0  0  0  0  0  0  0  0
   -5.9700   22.1970  -31.7860 C   0  0  0  0  0  0  0  0  0  0  0  0
   -5.7220   21.0300  -32.5000 C   0  0  0  0  0  0  0  0  0  0  0  0
   -6.3128   18.1091  -32.9383 H   0  0  0  0  0  0  0  0  0  0  0  0
   -7.3631   18.6935  -34.2732 H   0  0  0  0  0  0  0  0  0  0  0  0
   -5.6098   19.0840  -34.2732 H   0  0  0  0  0  0  0  0  0  0  0  0
   -8.9001   19.7941  -32.8559 H   0  0  0  0  0  0  0  0  0  0  0  0
   -9.3589   21.8861  -31.5745 H   0  0  0  0  0  0  0  0  0  0  0  0
   -8.2015   24.1208  -30.3933 H   0  0  0  0  0  0  0  0  0  0  0  0
   -6.2540   26.8040  -28.5690 H   0  0  0  0  0  0  0  0  0  0  0  0
   -7.3050   25.3800  -28.5970 H   0  0  0  0  0  0  0  0  0  0  0  0
   -1.0507   21.7213  -32.5724 H   0  0  0  0  0  0  0  0  0  0  0  0
   -2.4316   21.0191  -33.4816 H   0  0  0  0  0  0  0  0  0  0  0  0
   -2.1668   22.7958  -33.4816 H   0  0  0  0  0  0  0  0  0  0  0  0
   -3.9082   21.6260  -28.6301 H   0  0  0  0  0  0  0  0  0  0  0  0
   -2.5653   20.9771  -27.6008 H   0  0  0  0  0  0  0  0  0  0  0  0
   -2.8489   23.6392  -27.8391 H   0  0  0  0  0  0  0  0  0  0  0  0
   -0.4509   22.5883  -29.4093 H   0  0  0  0  0  0  0  0  0  0  0  0
   -2.1720   25.6650  -29.7660 H   0  0  0  0  0  0  0  0  0  0  0  0
   -4.6892   20.7680  -32.7733 H   0  0  0  0  0  0  0  0  0  0  0  0
  1  2  1  0
  2  3  2  0
  3  4  1  0
  4  5  2  0
  5  6  1  0
  6  7  2  0
  7  8  1  0
  8  9  1  0
  8 10  2  0
  7 11  1  0
 11 12  1  0
 12 13  2  0
 12 14  1  0
 14 15  1  0
 14 16  1  0
 16 17  2  0
 16 18  1  0
 18 19  1  0
 19 20  1  0
 20 21  2  0
 21 22  1  0
 22 23  2  0
 22 24  1  0
 11 25  1  0
 25 26  2  0
 26  2  1  0
 25  5  1  0
  1 27  1  0
  1 28  1  0
  1 29  1  0
  3 30  1  0
  4 31  1  0
  6 32  1  0
  9 33  1  0
  9 34  1  0
 15 35  1  0
 15 36  1  0
 15 37  1  0
 19 38  1  0
 19 39  1  0
 20 40  1  0
 21 41  1  0
 24 42  1  0
 26 43  1  0
M  END
>  <smiles>  (7) 
Cc1ccc2cc(C(N)=O)n(C(=O)N(C)C(=O)OC/C=C/C(=O)O)c2c1

>  <score_type>  (7) 
oracle

>  <origin>  (7) 
adg

>  <m_score__min__energy>  (7) 
-9.1199999999999992

>  <m_primary>  (7) 
energy

$$$$
7:0
     RDKit          3D

 42 43  0  0  0  0  0  0  0  0999 V2000
   -3.3490   19.6400  -33.7560 C   0  0  0  0  0  0  0  0  0  0  0  0
   -2.9430   20.7630  -32.8410 C   0  0  0  0  0  0  0  0  0  0  0  0
   -1.5290   21.1490  -33.2320 C   0  0  0  0  0  0  0  0  0  0  0  0
   -2.9460   20.2910  -31.4020 C   0  0  0  0  0  0  0  0  0  0  0  0
   -3.7800   21.8810  -32.9160 O   0  0  0  0  0  0  0  0  0  0  0  0
   -4.1520   22.6740  -31.8500 C   0  0  0  0  0  0  0  0  0  0  0  0
   -3.1750   23.2290  -31.2350 O   0  0  0  0  0  0  0  0  0  0  0  0
   -5.4780   22.8990  -31.4160 N   0  0  0  0  0  0  0  0  0  0  0  0
   -5.9730   23.9720  -30.7940 C   0  0  0  0  0  0  0  0  0  0  0  0
   -5.3280   25.2010  -30.3820 C   0  0  0  0  0  0  0  0  0  0  0  0
   -5.9460   26.0130  -29.3570 N   0  0  0  0  0  0  0  0  0  0  0  0
   -4.2560   25.6590  -30.8310 O   0  0  0  0  0  0  0  0  0  0  0  0
   -7.3240   23.7310  -30.5720 C   0  0  0  0  0  0  0  0  0  0  0  0
   -7.6530   22.4910  -31.0660 C   0  0  0  0  0  0  0  0  0  0  0  0
   -8.8460   21.7940  -31.0940 C   0  0  0  0  0  0  0  0  0  0  0  0
   -8.8910   20.5510  -31.6630 C   0  0  0  0  0  0  0  0  0  0  0  0
   -7.7430   20.0080  -32.1990 C   0  0  0  0  0  0  0  0  0  0  0  0
   -7.8290   18.6690  -32.8010 C   0  0  0  0  0  0  0  0  0  0  0  0
   -6.5320   18.1330  -33.2470 C   0  0  0  0  0  0  0  0  0  0  0  0
   -6.1110   18.5040  -34.3880 O   0  0  0  0  0  0  0  0  0  0  0  0
   -5.8130   17.2330  -32.3880 C   0  0  0  0  0  0  0  0  0  0  0  0
   -6.1010   17.0700  -31.1550 O   0  0  0  0  0  0  0  0  0  0  0  0
   -6.5550   20.7310  -32.1580 C   0  0  0  0  0  0  0  0  0  0  0  0
   -6.4810   21.9880  -31.5920 C   0  0  0  0  0  0  0  0  0  0  0  0
   -3.6624   18.7731  -33.1558 H   0  0  0  0  0  0  0  0  0  0  0  0
   -4.1854   19.9683  -34.3906 H   0  0  0  0  0  0  0  0  0  0  0  0
   -2.4961   19.3575  -34.3906 H   0  0  0  0  0  0  0  0  0  0  0  0
   -0.9294   21.3127  -32.3245 H   0  0  0  0  0  0  0  0  0  0  0  0
   -1.0796   20.3407  -33.8275 H   0  0  0  0  0  0  0  0  0  0  0  0
   -1.5527   22.0735  -33.8275 H   0  0  0  0  0  0  0  0  0  0  0  0
   -2.9405   21.1621  -30.7304 H   0  0  0  0  0  0  0  0  0  0  0  0
   -3.8480   19.6897  -31.2152 H   0  0  0  0  0  0  0  0  0  0  0  0
   -2.0517   19.6783  -31.2152 H   0  0  0  0  0  0  0  0  0  0  0  0
   -5.7450   25.8100  -28.3460 H   0  0  0  0  0  0  0  0  0  0  0  0
   -6.5880   26.7940  -29.6620 H   0  0  0  0  0  0  0  0  0  0  0  0
   -8.0209   24.4242  -30.0782 H   0  0  0  0  0  0  0  0  0  0  0  0
   -9.7550   22.2367  -30.6608 H   0  0  0  0  0  0  0  0  0  0  0  0
   -9.8361   19.9890  -31.6926 H   0  0  0  0  0  0  0  0  0  0  0  0
   -8.2509   17.9798  -32.0547 H   0  0  0  0  0  0  0  0  0  0  0  0
   -8.4624   18.7603  -33.6957 H   0  0  0  0  0  0  0  0  0  0  0  0
   -4.9764   16.6584  -32.8121 H   0  0  0  0  0  0  0  0  0  0  0  0
   -5.6461   20.2871  -32.5902 H   0  0  0  0  0  0  0  0  0  0  0  0
  1  2  1  0
  2  3  1  0
  2  4  1  0
  2  5  1  0
  5  6  1  0
  6  7  2  0
  6  8  1  0
  8  9  1  0
  9 10  1  0
 10 11  1  0
 10 12  2  0
  9 13  2  0
 13 14  1  0
 14 15  2  0
 15 16  1  0
 16 17  2  0
 17 18  1  0
 18 19  1  0
 19 20  2  0
 19 21  1  0
 21 22  2  0
 17 23  1  0
 23 24  2  0
 24  8  1  0
 24 14  1  0
  1 25  1  0
  1 26  1  0
  1 27  1  0
  3 28  1  0
  3 29  1  0
  3 30  1  0
  4 31  1  0
  4 32  1  0
  4 33  1  0
 11 34  1  0
 11 35  1  0
 13 36  1  0
 15 37  1  0
 16 38  1  0
 18 39  1  0
 18 40  1  0
 21 41  1  0
 23 42  1  0
M  END
>  <smiles>  (8) 
CC(C)(C)OC(=O)n1c(C(N)=O)cc2ccc(CC(=O)C=O)cc21

>  <score_type>  (8) 
oracle

>  <origin>  (8) 
adg

>  <m_score__min__energy>  (8) 
-8.9299999999999997

>  <m_primary>  (8) 
energy

$$$$
8:0
     RDKit          3D

 38 39  0  0  0  0  0  0  0  0999 V2000
   -3.8580   25.2700  -30.1890 N   0  0  0  0  0  0  0  0  0  0  0  0
   -5.1000   25.0090  -30.7750 C   0  0  0  0  0  0  0  0  0  0  0  0
   -5.7430   26.0980  -31.0900 O   0  0  0  0  0  0  0  0  0  0  0  0
   -5.7760   23.7910  -31.0770 C   0  0  0  0  0  0  0  0  0  0  0  0
   -7.1880   23.7780  -31.2040 C   0  0  0  0  0  0  0  0  0  0  0  0
   -7.5930   22.5070  -31.4910 C   0  0  0  0  0  0  0  0  0  0  0  0
   -8.8520   22.0100  -31.7010 C   0  0  0  0  0  0  0  0  0  0  0  0
   -9.0460   20.6790  -31.9840 C   0  0  0  0  0  0  0  0  0  0  0  0
   -7.9310   19.8790  -32.0450 C   0  0  0  0  0  0  0  0  0  0  0  0
   -8.0970   18.4310  -32.3510 C   0  0  0  0  0  0  0  0  0  0  0  0
   -9.2930   17.9460  -31.8340 F   0  0  0  0  0  0  0  0  0  0  0  0
   -7.0880   17.6630  -31.8140 F   0  0  0  0  0  0  0  0  0  0  0  0
   -6.6550   20.3990  -31.8280 C   0  0  0  0  0  0  0  0  0  0  0  0
   -6.4530   21.7430  -31.5420 C   0  0  0  0  0  0  0  0  0  0  0  0
   -5.3490   22.5210  -31.2930 N   0  0  0  0  0  0  0  0  0  0  0  0
   -4.0600   21.9860  -31.2970 C   0  0  0  0  0  0  0  0  0  0  0  0
   -3.5500   21.8090  -32.4830 O   0  0  0  0  0  0  0  0  0  0  0  0
   -3.1630   21.5860  -30.2320 C   0  0  0  0  0  0  0  0  0  0  0  0
   -2.2000   22.6430  -29.7970 C   0  0  0  0  0  0  0  0  0  0  0  0
   -1.1120   22.7670  -30.4550 O   0  0  0  0  0  0  0  0  0  0  0  0
   -2.4860   23.4570  -28.7160 O   0  0  0  0  0  0  0  0  0  0  0  0
   -1.5150   23.8570  -27.7690 C   0  0  0  0  0  0  0  0  0  0  0  0
   -1.1950   25.3150  -28.0270 C   0  0  0  0  0  0  0  0  0  0  0  0
   -1.4840   25.6150  -29.3360 O   0  0  0  0  0  0  0  0  0  0  0  0
   -3.0850   25.6620  -30.8030 H   0  0  0  0  0  0  0  0  0  0  0  0
   -3.6020   25.1250  -29.1920 H   0  0  0  0  0  0  0  0  0  0  0  0
   -7.8489   24.6499  -31.0898 H   0  0  0  0  0  0  0  0  0  0  0  0
   -9.7188   22.6846  -31.6424 H   0  0  0  0  0  0  0  0  0  0  0  0
  -10.0532   20.2710  -32.1547 H   0  0  0  0  0  0  0  0  0  0  0  0
   -8.0788   18.3564  -33.4483 H   0  0  0  0  0  0  0  0  0  0  0  0
   -5.7860   19.7270  -31.8849 H   0  0  0  0  0  0  0  0  0  0  0  0
   -3.7711   21.2974  -29.3620 H   0  0  0  0  0  0  0  0  0  0  0  0
   -2.5574   20.7585  -30.6301 H   0  0  0  0  0  0  0  0  0  0  0  0
   -1.9122   23.7349  -26.7505 H   0  0  0  0  0  0  0  0  0  0  0  0
   -0.6086   23.2408  -27.8621 H   0  0  0  0  0  0  0  0  0  0  0  0
   -1.8007   25.9481  -27.3619 H   0  0  0  0  0  0  0  0  0  0  0  0
   -0.1284   25.4999  -27.8318 H   0  0  0  0  0  0  0  0  0  0  0  0
   -1.3930   24.8590  -29.9750 H   0  0  0  0  0  0  0  0  0  0  0  0
  1  2  1  0
  2  3  2  0
  2  4  1  0
  4  5  2  0
  5  6  1  0
  6  7  2  0
  7  8  1  0
  8  9  2  0
  9 10  1  0
 10 11  1  0
 10 12  1  0
  9 13  1  0
 13 14  2  0
 14 15  1  0
 15 16  1  0
 16 17  2  0
 16 18  1  0
 18 19  1  0
 19 20  2  0
 19 21  1  0
 21 22  1  0
 22 23  1  0
 23 24  1  0
 15  4  1  0
 14  6  1  0
  1 25  1  0
  1 26  1  0
  5 27  1  0
  7 28  1  0
  8 29  1  0
 10 30  1  0
 13 31  1  0
 18 32  1  0
 18 33  1  0
 22 34  1  0
 22 35  1  0
 23 36  1  0
 23 37  1  0
 24 38  1  0
M  END
>  <smiles>  (9) 
NC(=O)c1cc2ccc(C(F)F)cc2n1C(=O)CC(=O)OCCO

>  <score_type>  (9) 
oracle

>  <origin>  (9) 
adg

>  <m_score__min__energy>  (9) 
-8.3399999999999999

>  <m_primary>  (9) 
energy

$$$$
9:0
     RDKit          3D

 49 50  0  0  1  0  0  0  0  0999 V2000
   -2.0140   21.6590  -26.9210 C   0  0  0  0  0  0  0  0  0  0  0  0
   -2.4970   22.7950  -28.2710 P   0  0  2  0  0  0  0  0  0  0  0  0
   -3.6910   22.1480  -28.9310 O   0  0  0  0  0  0  0  0  0  0  0  0
   -1.2510   23.1000  -29.3350 O   0  0  0  0  0  0  0  0  0  0  0  0
   -0.4410   22.0190  -29.6160 C   0  0  0  0  0  0  0  0  0  0  0  0
   -1.2110   21.1010  -30.5780 C   0  0  0  0  0  0  0  0  0  0  0  0
   -1.7150   21.8650  -31.7590 C   0  0  0  0  0  0  0  0  0  0  0  0
   -2.8890   22.5340  -31.4340 O   0  0  0  0  0  0  0  0  0  0  0  0
   -4.0920   22.4660  -32.0900 C   0  0  0  0  0  0  0  0  0  0  0  0
   -4.0450   22.1690  -33.3170 O   0  0  0  0  0  0  0  0  0  0  0  0
   -5.3630   22.6970  -31.5100 N   0  0  0  0  0  0  0  0  0  0  0  0
   -5.7530   23.7550  -30.7810 C   0  0  0  0  0  0  0  0  0  0  0  0
   -5.0340   24.9430  -30.3730 C   0  0  0  0  0  0  0  0  0  0  0  0
   -3.5880   24.9300  -30.3570 N   0  0  0  0  0  0  0  0  0  0  0  0
   -5.5460   26.0270  -30.0150 O   0  0  0  0  0  0  0  0  0  0  0  0
   -7.0930   23.5480  -30.4230 C   0  0  0  0  0  0  0  0  0  0  0  0
   -7.5070   22.3480  -30.9460 C   0  0  0  0  0  0  0  0  0  0  0  0
   -8.7230   21.6920  -30.8830 C   0  0  0  0  0  0  0  0  0  0  0  0
   -8.8700   20.4800  -31.5060 C   0  0  0  0  0  0  0  0  0  0  0  0
   -7.8220   19.9380  -32.1810 C   0  0  0  0  0  0  0  0  0  0  0  0
   -8.0020   18.6230  -32.8500 C   0  0  0  0  0  0  0  0  0  0  0  0
   -6.8080   17.4710  -32.2630 Cl  0  0  0  0  0  0  0  0  0  0  0  0
   -6.6020   20.6140  -32.2350 C   0  0  0  0  0  0  0  0  0  0  0  0
   -6.4220   21.8380  -31.6150 C   0  0  0  0  0  0  0  0  0  0  0  0
   -3.0190   24.2670  -27.6220 O   0  0  0  0  0  0  0  0  0  0  0  0
   -2.0200   24.9460  -26.9440 C   0  0  0  0  0  0  0  0  0  0  0  0
   -1.1920   25.6520  -27.9640 C   0  0  0  0  0  0  0  0  0  0  0  0
   -0.1710   26.3040  -27.6000 O   0  0  0  0  0  0  0  0  0  0  0  0
   -1.5010   25.6240  -29.3180 O   0  0  0  0  0  0  0  0  0  0  0  0
   -2.2167   22.1356  -25.9506 H   0  0  0  0  0  0  0  0  0  0  0  0
   -2.5940   20.7277  -27.0003 H   0  0  0  0  0  0  0  0  0  0  0  0
   -0.9409   21.4305  -27.0003 H   0  0  0  0  0  0  0  0  0  0  0  0
    0.4911   22.3614  -30.0893 H   0  0  0  0  0  0  0  0  0  0  0  0
   -0.1803   21.4806  -28.6929 H   0  0  0  0  0  0  0  0  0  0  0  0
   -0.5405   20.3015  -30.9262 H   0  0  0  0  0  0  0  0  0  0  0  0
   -2.0724   20.6756  -30.0423 H   0  0  0  0  0  0  0  0  0  0  0  0
   -0.9544   22.5964  -32.0698 H   0  0  0  0  0  0  0  0  0  0  0  0
   -1.9187   21.1620  -32.5802 H   0  0  0  0  0  0  0  0  0  0  0  0
   -3.0330   25.6730  -30.8500 H   0  0  0  0  0  0  0  0  0  0  0  0
   -3.1490   24.1420  -29.8280 H   0  0  0  0  0  0  0  0  0  0  0  0
   -7.7098   24.2332  -29.8229 H   0  0  0  0  0  0  0  0  0  0  0  0
   -9.5662   22.1398  -30.3367 H   0  0  0  0  0  0  0  0  0  0  0  0
   -9.8318   19.9483  -31.4599 H   0  0  0  0  0  0  0  0  0  0  0  0
   -9.0110   18.2414  -32.6347 H   0  0  0  0  0  0  0  0  0  0  0  0
   -7.8716   18.7523  -33.9346 H   0  0  0  0  0  0  0  0  0  0  0  0
   -5.7626   20.1625  -32.7841 H   0  0  0  0  0  0  0  0  0  0  0  0
   -2.4644   25.6747  -26.2501 H   0  0  0  0  0  0  0  0  0  0  0  0
   -1.4040   24.2483  -26.3577 H   0  0  0  0  0  0  0  0  0  0  0  0
   -1.4620   24.7170  -29.8030 H   0  0  0  0  0  0  0  0  0  0  0  0
  1  2  1  0
  2  3  2  0
  2  4  1  6
  4  5  1  0
  5  6  1  0
  6  7  1  0
  7  8  1  0
  8  9  1  0
  9 10  2  0
  9 11  1  0
 11 12  1  0
 12 13  1  0
 13 14  1  0
 13 15  2  0
 12 16  2  0
 16 17  1  0
 17 18  2  0
 18 19  1  0
 19 20  2  0
 20 21  1  0
 21 22  1  0
 20 23  1  0
 23 24  2  0
  2 25  1  0
 25 26  1  0
 26 27  1  0
 27 28  2  0
 27 29  1  0
 24 11  1  0
 24 17  1  0
  1 30  1  0
  1 31  1  0
  1 32  1  0
  5 33  1  0
  5 34  1  0
  6 35  1  0
  6 36  1  0
  7 37  1  0
  7 38  1  0
 14 39  1  0
 14 40  1  0
 16 41  1  0
 18 42  1  0
 19 43  1  0
 21 44  1  0
 21 45  1  0
 23 46  1  0
 26 47  1  0
 26 48  1  0
 29 49  1  0
M  END
>  <smiles>  (10) 
CP(=O)(OCCCOC(=O)n1c(C(N)=O)cc2ccc(CCl)cc21)OCC(=O)O

>  <score_type>  (10) 
oracle

>  <origin>  (10) 
adg

>  <m_score__min__energy>  (10) 
-8.9399999999999995

>  <m_primary>  (10) 
energy

$$$$
10:0
     RDKit          3D

 38 39  0  0  0  0  0  0  0  0999 V2000
   -5.3520   24.9790  -28.9360 N   0  0  0  0  0  0  0  0  0  0  0  0
   -5.0260   24.5510  -30.2790 C   0  0  0  0  0  0  0  0  0  0  0  0
   -4.2470   25.3050  -30.8830 O   0  0  0  0  0  0  0  0  0  0  0  0
   -5.6210   23.3210  -30.7650 C   0  0  0  0  0  0  0  0  0  0  0  0
   -7.0220   23.1720  -30.6680 C   0  0  0  0  0  0  0  0  0  0  0  0
   -7.3360   21.9790  -31.2280 C   0  0  0  0  0  0  0  0  0  0  0  0
   -8.5710   21.3780  -31.3740 C   0  0  0  0  0  0  0  0  0  0  0  0
   -8.6840   20.1470  -31.9710 C   0  0  0  0  0  0  0  0  0  0  0  0
   -7.5260   19.5510  -32.4080 C   0  0  0  0  0  0  0  0  0  0  0  0
   -7.6380   18.2200  -33.0540 C   0  0  0  0  0  0  0  0  0  0  0  0
   -7.4960   17.1960  -32.1220 F   0  0  0  0  0  0  0  0  0  0  0  0
   -6.7570   18.0780  -34.1000 F   0  0  0  0  0  0  0  0  0  0  0  0
   -6.2790   20.1700  -32.2540 C   0  0  0  0  0  0  0  0  0  0  0  0
   -6.1580   21.4170  -31.6510 C   0  0  0  0  0  0  0  0  0  0  0  0
   -5.1000   22.2410  -31.3630 N   0  0  0  0  0  0  0  0  0  0  0  0
   -3.7950   21.8960  -31.7300 C   0  0  0  0  0  0  0  0  0  0  0  0
   -3.6600   21.5440  -32.9730 O   0  0  0  0  0  0  0  0  0  0  0  0
   -2.5770   21.8480  -30.9830 C   0  0  0  0  0  0  0  0  0  0  0  0
   -1.8620   20.8610  -30.7100 O   0  0  0  0  0  0  0  0  0  0  0  0
   -2.0320   23.0890  -30.4310 N   0  0  0  0  0  0  0  0  0  0  0  0
   -0.7950   22.9690  -29.6850 C   0  0  0  0  0  0  0  0  0  0  0  0
   -0.5360   24.0970  -28.7840 C   0  0  0  0  0  0  0  0  0  0  0  0
    0.5850   24.5340  -28.5590 O   0  0  0  0  0  0  0  0  0  0  0  0
   -1.6620   24.7750  -28.0860 C   0  0  0  0  0  0  0  0  0  0  0  0
   -2.5260   25.3040  -29.0300 O   0  0  0  0  0  0  0  0  0  0  0  0
   -6.3480   24.9380  -28.6740 H   0  0  0  0  0  0  0  0  0  0  0  0
   -4.5830   25.3030  -28.3150 H   0  0  0  0  0  0  0  0  0  0  0  0
   -7.7260   23.8897  -30.2216 H   0  0  0  0  0  0  0  0  0  0  0  0
   -9.4729   21.8908  -31.0083 H   0  0  0  0  0  0  0  0  0  0  0  0
   -9.6616   19.6580  -32.0944 H   0  0  0  0  0  0  0  0  0  0  0  0
   -8.6498   18.1482  -33.4796 H   0  0  0  0  0  0  0  0  0  0  0  0
   -5.3758   19.6585  -32.6180 H   0  0  0  0  0  0  0  0  0  0  0  0
   -2.5140   23.9980  -30.5700 H   0  0  0  0  0  0  0  0  0  0  0  0
   -0.8399   22.0485  -29.0844 H   0  0  0  0  0  0  0  0  0  0  0  0
    0.0227   22.9519  -30.4206 H   0  0  0  0  0  0  0  0  0  0  0  0
   -2.1999   24.0471  -27.4609 H   0  0  0  0  0  0  0  0  0  0  0  0
   -1.2713   25.5810  -27.4475 H   0  0  0  0  0  0  0  0  0  0  0  0
   -2.0040   25.6820  -29.7820 H   0  0  0  0  0  0  0  0  0  0  0  0
  1  2  1  0
  2  3  2  0
  2  4  1  0
  4  5  2  0
  5  6  1  0
  6  7  2  0
  7  8  1  0
  8  9  2  0
  9 10  1  0
 10 11  1  0
 10 12  1  0
  9 13  1  0
 13 14  2  0
 14 15  1  0
 15 16  1  0
 16 17  2  0
 16 18  1  0
 18 19  2  0
 18 20  1  0
 20 21  1  0
 21 22  1  0
 22 23  2  0
 22 24  1  0
 24 25  1  0
 15  4  1  0
 14  6  1  0
  1 26  1  0
  1 27  1  0
  5 28  1  0
  7 29  1  0
  8 30  1  0
 10 31  1  0
 13 32  1  0
 20 33  1  0
 21 34  1  0
 21 35  1  0
 24 36  1  0
 24 37  1  0
 25 38  1  0
M  END
>  <smiles>  (11) 
NC(=O)c1cc2ccc(C(F)F)cc2n1C(=O)C(=O)NCC(=O)CO

>  <score_type>  (11) 
oracle

>  <origin>  (11) 
adg

>  <m_score__min__energy>  (11) 
-8.9199999999999999

>  <m_primary>  (11) 
energy

$$$$
11:0
     RDKit          3D

 37 38  0  0  0  0  0  0  0  0999 V2000
   -5.5700   25.1600  -28.9880 N   0  0  0  0  0  0  0  0  0  0  0  0
   -5.8120   24.9980  -30.4140 C   0  0  0  0  0  0  0  0  0  0  0  0
   -5.6170   26.0480  -31.0670 O   0  0  0  0  0  0  0  0  0  0  0  0
   -6.2340   23.7170  -30.9360 C   0  0  0  0  0  0  0  0  0  0  0  0
   -7.5990   23.4360  -31.1360 C   0  0  0  0  0  0  0  0  0  0  0  0
   -7.7340   22.1850  -31.6270 C   0  0  0  0  0  0  0  0  0  0  0  0
   -8.8490   21.4680  -31.9770 C   0  0  0  0  0  0  0  0  0  0  0  0
   -8.7230   20.1890  -32.4610 C   0  0  0  0  0  0  0  0  0  0  0  0
   -7.4670   19.6470  -32.5850 C   0  0  0  0  0  0  0  0  0  0  0  0
   -7.3070   18.3220  -33.0850 N   0  0  0  0  0  0  0  0  0  0  0  0
   -6.1930   17.5540  -32.5580 C   0  0  0  0  0  0  0  0  0  0  0  0
   -5.9330   16.2990  -33.3710 C   0  0  0  0  0  0  0  0  0  0  0  0
   -6.8180   16.1550  -34.4220 O   0  0  0  0  0  0  0  0  0  0  0  0
   -6.3530   20.3950  -32.2240 C   0  0  0  0  0  0  0  0  0  0  0  0
   -6.4400   21.6780  -31.7350 C   0  0  0  0  0  0  0  0  0  0  0  0
   -5.5500   22.6220  -31.3130 N   0  0  0  0  0  0  0  0  0  0  0  0
   -4.1530   22.4800  -31.2780 C   0  0  0  0  0  0  0  0  0  0  0  0
   -3.4720   22.4140  -32.3610 O   0  0  0  0  0  0  0  0  0  0  0  0
   -3.3130   22.3930  -30.0550 C   0  0  0  0  0  0  0  0  0  0  0  0
   -3.0730   23.7980  -29.5360 C   0  0  0  0  0  0  0  0  0  0  0  0
   -2.7890   23.9540  -28.3020 O   0  0  0  0  0  0  0  0  0  0  0  0
   -3.1410   24.9150  -30.3090 O   0  0  0  0  0  0  0  0  0  0  0  0
   -4.6010   25.1650  -28.6400 H   0  0  0  0  0  0  0  0  0  0  0  0
   -6.4010   25.2680  -28.3570 H   0  0  0  0  0  0  0  0  0  0  0  0
   -8.4274   24.1282  -30.9250 H   0  0  0  0  0  0  0  0  0  0  0  0
   -9.8469   21.9183  -31.8699 H   0  0  0  0  0  0  0  0  0  0  0  0
   -9.6131   19.6083  -32.7446 H   0  0  0  0  0  0  0  0  0  0  0  0
   -7.9760   17.9480  -33.7980 H   0  0  0  0  0  0  0  0  0  0  0  0
   -5.2896   18.1814  -32.5745 H   0  0  0  0  0  0  0  0  0  0  0  0
   -6.4461   17.2481  -31.5321 H   0  0  0  0  0  0  0  0  0  0  0  0
   -4.9109   16.3461  -33.7748 H   0  0  0  0  0  0  0  0  0  0  0  0
   -6.0653   15.4353  -32.7028 H   0  0  0  0  0  0  0  0  0  0  0  0
   -6.8310   16.9280  -35.0280 H   0  0  0  0  0  0  0  0  0  0  0  0
   -5.3571   19.9411  -32.3341 H   0  0  0  0  0  0  0  0  0  0  0  0
   -3.8326   21.7982  -29.2894 H   0  0  0  0  0  0  0  0  0  0  0  0
   -2.3537   21.9086  -30.2899 H   0  0  0  0  0  0  0  0  0  0  0  0
   -3.5340   24.9280  -31.2430 H   0  0  0  0  0  0  0  0  0  0  0  0
  1  2  1  0
  2  3  2  0
  2  4  1  0
  4  5  2  0
  5  6  1  0
  6  7  2  0
  7  8  1  0
  8  9  2  0
  9 10  1  0
 10 11  1  0
 11 12  1  0
 12 13  1  0
  9 14  1  0
 14 15  2  0
 15 16  1  0
 16 17  1  0
 17 18  2  0
 17 19  1  0
 19 20  1  0
 20 21  2  0
 20 22  1  0
 16  4  1  0
 15  6  1  0
  1 23  1  0
  1 24  1  0
  5 25  1  0
  7 26  1  0
  8 27  1  0
 10 28  1  0
 11 29  1  0
 11 30  1  0
 12 31  1  0
 12 32  1  0
 13 33  1  0
 14 34  1  0
 19 35  1  0
 19 36  1  0
 22 37  1  0
M  END
>  <smiles>  (12) 
NC(=O)c1cc2ccc(NCCO)cc2n1C(=O)CC(=O)O

>  <score_type>  (12) 
oracle

>  <origin>  (12) 
adg

>  <m_score__min__energy>  (12) 
-8.1899999999999995

>  <m_primary>  (12) 
energy

$$$$
12:0
     RDKit          3D

 44 45  0  0  0  0  0  0  0  0999 V2000
   -4.5300   15.0600  -32.3700 C   0  0  0  0  0  0  0  0  0  0  0  0
   -5.5530   15.0480  -33.3980 N   0  0  0  0  0  0  0  0  0  0  0  0
   -5.7580   13.7790  -34.0900 C   0  0  0  0  0  0  0  0  0  0  0  0
   -6.3260   16.2140  -33.7240 C   0  0  0  0  0  0  0  0  0  0  0  0
   -7.1900   16.1060  -34.6300 O   0  0  0  0  0  0  0  0  0  0  0  0
   -6.0460   17.4490  -32.9700 C   0  0  0  0  0  0  0  0  0  0  0  0
   -6.7920   18.5300  -33.5610 N   0  0  0  0  0  0  0  0  0  0  0  0
   -6.9640   19.7640  -32.8740 C   0  0  0  0  0  0  0  0  0  0  0  0
   -8.2290   20.2270  -32.6170 C   0  0  0  0  0  0  0  0  0  0  0  0
   -8.3790   21.4240  -31.9600 C   0  0  0  0  0  0  0  0  0  0  0  0
   -7.2670   22.1350  -31.5720 C   0  0  0  0  0  0  0  0  0  0  0  0
   -7.1790   23.3290  -30.9150 C   0  0  0  0  0  0  0  0  0  0  0  0
   -5.8400   23.5780  -30.7810 C   0  0  0  0  0  0  0  0  0  0  0  0
   -5.3600   24.8580  -30.2230 C   0  0  0  0  0  0  0  0  0  0  0  0
   -5.7320   25.3300  -28.9400 N   0  0  0  0  0  0  0  0  0  0  0  0
   -4.5830   25.5750  -30.8930 O   0  0  0  0  0  0  0  0  0  0  0  0
   -5.0690   22.6190  -31.3050 N   0  0  0  0  0  0  0  0  0  0  0  0
   -3.7160   22.3030  -31.2670 C   0  0  0  0  0  0  0  0  0  0  0  0
   -3.3050   21.9920  -32.5180 O   0  0  0  0  0  0  0  0  0  0  0  0
   -2.6110   22.1890  -30.4100 C   0  0  0  0  0  0  0  0  0  0  0  0
   -2.1780   22.8560  -29.3940 C   0  0  0  0  0  0  0  0  0  0  0  0
   -2.7970   23.9850  -28.8080 C   0  0  0  0  0  0  0  0  0  0  0  0
   -3.6280   24.0880  -27.8950 O   0  0  0  0  0  0  0  0  0  0  0  0
   -2.4170   25.2510  -29.3380 O   0  0  0  0  0  0  0  0  0  0  0  0
   -5.9920   21.7170  -31.8050 C   0  0  0  0  0  0  0  0  0  0  0  0
   -5.8530   20.5040  -32.4700 C   0  0  0  0  0  0  0  0  0  0  0  0
   -5.0064   15.0544  -31.3785 H   0  0  0  0  0  0  0  0  0  0  0  0
   -3.8933   14.1693  -32.4759 H   0  0  0  0  0  0  0  0  0  0  0  0
   -3.9144   15.9654  -32.4759 H   0  0  0  0  0  0  0  0  0  0  0  0
   -5.8879   12.9750  -33.3506 H   0  0  0  0  0  0  0  0  0  0  0  0
   -6.6569   13.8462  -34.7204 H   0  0  0  0  0  0  0  0  0  0  0  0
   -4.8836   13.5597  -34.7204 H   0  0  0  0  0  0  0  0  0  0  0  0
   -6.3504   17.3193  -31.9210 H   0  0  0  0  0  0  0  0  0  0  0  0
   -4.9697   17.6734  -33.0047 H   0  0  0  0  0  0  0  0  0  0  0  0
   -7.2290   18.4210  -34.5260 H   0  0  0  0  0  0  0  0  0  0  0  0
   -9.1101   19.6487  -32.9321 H   0  0  0  0  0  0  0  0  0  0  0  0
   -9.3852   21.8129  -31.7448 H   0  0  0  0  0  0  0  0  0  0  0  0
   -8.0106   23.9590  -30.5664 H   0  0  0  0  0  0  0  0  0  0  0  0
   -6.0080   26.3130  -28.7340 H   0  0  0  0  0  0  0  0  0  0  0  0
   -5.7400   24.6700  -28.1160 H   0  0  0  0  0  0  0  0  0  0  0  0
   -1.9656   21.3347  -30.6623 H   0  0  0  0  0  0  0  0  0  0  0  0
   -1.2366   22.5137  -28.9395 H   0  0  0  0  0  0  0  0  0  0  0  0
   -3.0720   25.6740  -30.0050 H   0  0  0  0  0  0  0  0  0  0  0  0
   -4.8445   20.1194  -32.6822 H   0  0  0  0  0  0  0  0  0  0  0  0
  1  2  1  0
  2  3  1  0
  2  4  1  0
  4  5  2  0
  4  6  1  0
  6  7  1  0
  7  8  1  0
  8  9  2  0
  9 10  1  0
 10 11  2  0
 11 12  1  0
 12 13  2  0
 13 14  1  0
 14 15  1  0
 14 16  2  0
 13 17  1  0
 17 18  1  0
 18 19  2  0
 18 20  1  0
 20 21  2  0
 21 22  1  0
 22 23  2  0
 22 24  1  0
 17 25  1  0
 25 26  2  0
 26  8  1  0
 25 11  1  0
  1 27  1  0
  1 28  1  0
  1 29  1  0
  3 30  1  0
  3 31  1  0
  3 32  1  0
  6 33  1  0
  6 34  1  0
  7 35  1  0
  9 36  1  0
 10 37  1  0
 12 38  1  0
 15 39  1  0
 15 40  1  0
 20 41  1  0
 21 42  1  0
 24 43  1  0
 26 44  1  0
M  END
>  <smiles>  (13) 
CN(C)C(=O)CNc1ccc2cc(C(N)=O)n(C(=O)/C=C\C(=O)O)c2c1

>  <score_type>  (13) 
oracle

>  <origin>  (13) 
adg

>  <m_score__min__energy>  (13) 
-10.039999999999999

>  <m_primary>  (13) 
energy

$$$$
13:0
     RDKit          3D

 48 49  0  0  0  0  0  0  0  0999 V2000
   -6.1050   22.7670  -30.0590 C   0  0  0  0  0  0  0  0  0  0  0  0
   -6.0720   24.0480  -30.8650 C   0  0  0  0  0  0  0  0  0  0  0  0
   -6.8030   23.7760  -32.1570 C   0  0  0  0  0  0  0  0  0  0  0  0
   -6.8100   25.0950  -30.0980 C   0  0  0  0  0  0  0  0  0  0  0  0
   -4.7050   24.3380  -31.0740 O   0  0  0  0  0  0  0  0  0  0  0  0
   -3.7680   24.2290  -30.0340 C   0  0  0  0  0  0  0  0  0  0  0  0
   -4.0150   24.9140  -29.0260 O   0  0  0  0  0  0  0  0  0  0  0  0
   -2.6470   23.3780  -30.2000 N   0  0  0  0  0  0  0  0  0  0  0  0
   -1.4120   23.5940  -29.7240 C   0  0  0  0  0  0  0  0  0  0  0  0
   -0.8610   24.6830  -28.9440 C   0  0  0  0  0  0  0  0  0  0  0  0
   -1.5230   25.9710  -28.9550 N   0  0  0  0  0  0  0  0  0  0  0  0
    0.1630   24.6350  -28.2350 O   0  0  0  0  0  0  0  0  0  0  0  0
   -0.6340   22.5020  -30.1260 C   0  0  0  0  0  0  0  0  0  0  0  0
   -1.4110   21.6300  -30.8460 C   0  0  0  0  0  0  0  0  0  0  0  0
   -1.0990   20.4290  -31.4430 C   0  0  0  0  0  0  0  0  0  0  0  0
   -2.1260   19.7770  -32.1090 C   0  0  0  0  0  0  0  0  0  0  0  0
   -3.4060   20.2750  -32.1900 C   0  0  0  0  0  0  0  0  0  0  0  0
   -4.4480   19.5960  -32.8550 N   0  0  0  0  0  0  0  0  0  0  0  0
   -5.5010   18.8510  -32.2540 C   0  0  0  0  0  0  0  0  0  0  0  0
   -6.7210   18.7640  -33.1180 C   0  0  2  0  0  0  0  0  0  0  0  0
   -6.5840   19.5940  -34.2400 O   0  0  0  0  0  0  0  0  0  0  0  0
   -7.9800   19.1670  -32.3620 C   0  0  0  0  0  0  0  0  0  0  0  0
   -8.7650   20.0660  -33.0520 O   0  0  0  0  0  0  0  0  0  0  0  0
   -3.6390   21.4890  -31.5630 C   0  0  0  0  0  0  0  0  0  0  0  0
   -2.6700   22.1930  -30.8840 C   0  0  0  0  0  0  0  0  0  0  0  0
   -6.0988   23.0087  -28.9859 H   0  0  0  0  0  0  0  0  0  0  0  0
   -7.0180   22.2039  -30.3027 H   0  0  0  0  0  0  0  0  0  0  0  0
   -5.2223   22.1576  -30.3027 H   0  0  0  0  0  0  0  0  0  0  0  0
   -7.8127   23.4003  -31.9349 H   0  0  0  0  0  0  0  0  0  0  0  0
   -6.8778   24.7065  -32.7389 H   0  0  0  0  0  0  0  0  0  0  0  0
   -6.2513   23.0230  -32.7389 H   0  0  0  0  0  0  0  0  0  0  0  0
   -6.6843   24.9167  -29.0199 H   0  0  0  0  0  0  0  0  0  0  0  0
   -6.4106   26.0873  -30.3545 H   0  0  0  0  0  0  0  0  0  0  0  0
   -7.8788   25.0524  -30.3545 H   0  0  0  0  0  0  0  0  0  0  0  0
   -2.3310   26.0520  -28.3000 H   0  0  0  0  0  0  0  0  0  0  0  0
   -1.1980   26.7430  -29.5790 H   0  0  0  0  0  0  0  0  0  0  0  0
    0.4337   22.3644  -29.8999 H   0  0  0  0  0  0  0  0  0  0  0  0
   -0.0843   20.0072  -31.3940 H   0  0  0  0  0  0  0  0  0  0  0  0
   -1.9066   18.8154  -32.5960 H   0  0  0  0  0  0  0  0  0  0  0  0
   -4.4510   19.6420  -33.9210 H   0  0  0  0  0  0  0  0  0  0  0  0
   -5.1395   17.8316  -32.0536 H   0  0  0  0  0  0  0  0  0  0  0  0
   -5.7883   19.3730  -31.3293 H   0  0  0  0  0  0  0  0  0  0  0  0
   -6.8193   17.7143  -33.4317 H   0  0  0  0  0  0  0  0  0  0  0  0
   -7.4800   19.7310  -34.6460 H   0  0  0  0  0  0  0  0  0  0  0  0
   -8.5745   18.2624  -32.1662 H   0  0  0  0  0  0  0  0  0  0  0  0
   -7.6587   19.6604  -31.4328 H   0  0  0  0  0  0  0  0  0  0  0  0
   -8.7140   19.9800  -34.0210 H   0  0  0  0  0  0  0  0  0  0  0  0
   -4.6529   21.9129  -31.6105 H   0  0  0  0  0  0  0  0  0  0  0  0
  1  2  1  0
  2  3  1  0
  2  4  1  0
  2  5  1  0
  5  6  1  0
  6  7  2  0
  6  8  1  0
  8  9  1  0
  9 10  1  0
 10 11  1  0
 10 12  2  0
  9 13  2  0
 13 14  1  0
 14 15  2  0
 15 16  1  0
 16 17  2  0
 17 18  1  0
 18 19  1  0
 19 20  1  0
 20 21  1  0
 20 22  1  0
 22 23  1  0
 17 24  1  0
 24 25  2  0
 25  8  1  0
 25 14  1  0
  1 26  1  0
  1 27  1  0
  1 28  1  0
  3 29  1  0
  3 30  1  0
  3 31  1  0
  4 32  1  0
  4 33  1  0
  4 34  1  0
 11 35  1  0
 11 36  1  0
 13 37  1  0
 15 38  1  0
 16 39  1  0
 18 40  1  0
 19 41  1  0
 19 42  1  0
 20 43  1  6
 21 44  1  0
 22 45  1  0
 22 46  1  0
 23 47  1  0
 24 48  1  0
M  END
>  <smiles>  (14) 
CC(C)(C)OC(=O)n1c(C(N)=O)cc2ccc(NC[C@H](O)CO)cc21

>  <score_type>  (14) 
oracle

>  <origin>  (14) 
adg

>  <m_score__min__energy>  (14) 
-8.5500000000000007

>  <m_primary>  (14) 
energy

$$$$
14:0
     RDKit          3D

 56 59  0  0  0  0  0  0  0  0999 V2000
   -6.5960   17.3700  -33.5170 C   0  0  0  0  0  0  0  0  0  0  0  0
   -6.8190   18.4770  -33.0790 C   0  0  0  0  0  0  0  0  0  0  0  0
   -7.0660   19.7910  -32.5530 C   0  0  0  0  0  0  0  0  0  0  0  0
   -8.3760   20.2040  -32.4830 C   0  0  0  0  0  0  0  0  0  0  0  0
   -8.6070   21.4640  -31.9780 C   0  0  0  0  0  0  0  0  0  0  0  0
   -7.5680   22.2590  -31.5680 C   0  0  0  0  0  0  0  0  0  0  0  0
   -7.5810   23.5070  -31.0220 C   0  0  0  0  0  0  0  0  0  0  0  0
   -6.2490   23.8940  -30.7450 C   0  0  0  0  0  0  0  0  0  0  0  0
   -5.9980   25.1920  -30.1770 C   0  0  0  0  0  0  0  0  0  0  0  0
   -6.4420   25.7320  -28.9530 N   0  0  0  0  0  0  0  0  0  0  0  0
   -5.2590   26.0010  -30.8550 O   0  0  0  0  0  0  0  0  0  0  0  0
   -5.4340   22.8620  -31.1310 N   0  0  0  0  0  0  0  0  0  0  0  0
   -4.0720   22.8520  -30.8980 C   0  0  0  0  0  0  0  0  0  0  0  0
   -3.5570   24.0800  -30.8360 O   0  0  0  0  0  0  0  0  0  0  0  0
   -3.0550   21.9310  -30.7150 N   0  0  0  0  0  0  0  0  0  0  0  0
   -1.7170   22.5800  -30.4300 C   0  0  0  0  0  0  0  0  0  0  0  0
   -0.9250   21.6300  -29.5580 C   0  0  0  0  0  0  0  0  0  0  0  0
   -0.5080   20.4450  -30.3980 C   0  0  0  0  0  0  0  0  0  0  0  0
    0.0540   19.3990  -29.6370 N   0  0  0  0  0  0  0  0  0  0  0  0
    0.8300   18.4160  -30.2970 C   0  0  0  0  0  0  0  0  0  0  0  0
    0.6030   17.0950  -29.5450 C   0  0  0  0  0  0  0  0  0  0  0  0
    0.6560   17.3790  -28.1430 N   0  0  0  0  0  0  0  0  0  0  0  0
    1.1090   16.2440  -27.3690 C   0  0  0  0  0  0  0  0  0  0  0  0
    1.4000   18.5820  -27.8470 C   0  0  0  0  0  0  0  0  0  0  0  0
    0.5530   19.7420  -28.3440 C   0  0  0  0  0  0  0  0  0  0  0  0
   -1.6000   20.0470  -31.3640 C   0  0  0  0  0  0  0  0  0  0  0  0
   -2.9690   20.5140  -30.8050 C   0  0  0  0  0  0  0  0  0  0  0  0
   -6.2370   21.8780  -31.6260 C   0  0  0  0  0  0  0  0  0  0  0  0
   -6.0330   20.6120  -32.1330 C   0  0  0  0  0  0  0  0  0  0  0  0
   -6.3935   16.3646  -33.9148 H   0  0  0  0  0  0  0  0  0  0  0  0
   -9.2015   19.5573  -32.8153 H   0  0  0  0  0  0  0  0  0  0  0  0
   -9.6388   21.8377  -31.9025 H   0  0  0  0  0  0  0  0  0  0  0  0
   -8.4784   24.1131  -30.8286 H   0  0  0  0  0  0  0  0  0  0  0  0
   -7.0210   26.6230  -28.8810 H   0  0  0  0  0  0  0  0  0  0  0  0
   -6.2240   25.2960  -28.0060 H   0  0  0  0  0  0  0  0  0  0  0  0
   -1.1794   22.7609  -31.3725 H   0  0  0  0  0  0  0  0  0  0  0  0
   -1.8561   23.5459  -29.9224 H   0  0  0  0  0  0  0  0  0  0  0  0
   -0.0325   22.1409  -29.1677 H   0  0  0  0  0  0  0  0  0  0  0  0
   -1.5402   21.2940  -28.7103 H   0  0  0  0  0  0  0  0  0  0  0  0
    0.3323   20.7543  -31.0369 H   0  0  0  0  0  0  0  0  0  0  0  0
    0.5058   18.3169  -31.3435 H   0  0  0  0  0  0  0  0  0  0  0  0
    1.8952   18.6904  -30.3015 H   0  0  0  0  0  0  0  0  0  0  0  0
   -0.3813   16.6793  -29.8063 H   0  0  0  0  0  0  0  0  0  0  0  0
    1.3725   16.3581  -29.8187 H   0  0  0  0  0  0  0  0  0  0  0  0
    1.0181   16.4717  -26.2967 H   0  0  0  0  0  0  0  0  0  0  0  0
    0.4925   15.3657  -27.6109 H   0  0  0  0  0  0  0  0  0  0  0  0
    2.1608   16.0315  -27.6109 H   0  0  0  0  0  0  0  0  0  0  0  0
    1.5669   18.6694  -26.7633 H   0  0  0  0  0  0  0  0  0  0  0  0
    2.3867   18.5710  -28.3331 H   0  0  0  0  0  0  0  0  0  0  0  0
   -0.2857   19.9150  -27.6536 H   0  0  0  0  0  0  0  0  0  0  0  0
    1.1553   20.6609  -28.3972 H   0  0  0  0  0  0  0  0  0  0  0  0
   -1.4194   20.5219  -32.3396 H   0  0  0  0  0  0  0  0  0  0  0  0
   -1.6043   18.9540  -31.4877 H   0  0  0  0  0  0  0  0  0  0  0  0
   -3.7662   20.1519  -31.4708 H   0  0  0  0  0  0  0  0  0  0  0  0
   -3.0787   20.1029  -29.7906 H   0  0  0  0  0  0  0  0  0  0  0  0
   -5.0016   20.2368  -32.2073 H   0  0  0  0  0  0  0  0  0  0  0  0
  1  2  3  0
  2  3  1  0
  3  4  2  0
  4  5  1  0
  5  6  2  0
  6  7  1  0
  7  8  2  0
  8  9  1  0
  9 10  1  0
  9 11  2  0
  8 12  1  0
 12 13  1  0
 13 14  2  0
 13 15  1  0
 15 16  1  0
 16 17  1  0
 17 18  1  0
 18 19  1  0
 19 20  1  0
 20 21  1  0
 21 22  1  0
 22 23  1  0
 22 24  1  0
 24 25  1  0
 18 26  1  0
 26 27  1  0
 12 28  1  0
 28 29  2  0
 29  3  1  0
 28  6  1  0
 27 15  1  0
 25 19  1  0
  1 30  1  0
  4 31  1  0
  5 32  1  0
  7 33  1  0
 10 34  1  0
 10 35  1  0
 16 36  1  0
 16 37  1  0
 17 38  1  0
 17 39  1  0
 18 40  1  0
 20 41  1  0
 20 42  1  0
 21 43  1  0
 21 44  1  0
 23 45  1  0
 23 46  1  0
 23 47  1  0
 24 48  1  0
 24 49  1  0
 25 50  1  0
 25 51  1  0
 26 52  1  0
 26 53  1  0
 27 54  1  0
 27 55  1  0
 29 56  1  0
M  END
>  <smiles>  (15) 
C#Cc1ccc2cc(C(N)=O)n(C(=O)N3CCC(N4CCN(C)CC4)CC3)c2c1

>  <score_type>  (15) 
oracle

>  <origin>  (15) 
adg

>  <m_score__min__energy>  (15) 
-10.630000000000001

>  <m_primary>  (15) 
energy

$$$$
15:0
     RDKit          3D

 40 41  0  0  0  0  0  0  0  0999 V2000
   -2.9610   21.6170  -28.2670 C   0  0  0  0  0  0  0  0  0  0  0  0
   -3.2280   22.9110  -28.9890 C   0  0  0  0  0  0  0  0  0  0  0  0
   -3.9150   23.7440  -28.3510 O   0  0  0  0  0  0  0  0  0  0  0  0
   -2.7090   23.0450  -30.2320 O   0  0  0  0  0  0  0  0  0  0  0  0
   -2.9790   22.0770  -31.2990 N   0  0  0  0  0  0  0  0  0  0  0  0
   -1.9180   21.1790  -31.4490 C   0  0  0  0  0  0  0  0  0  0  0  0
   -1.0370   21.2630  -32.6130 C   0  0  0  0  0  0  0  0  0  0  0  0
   -1.6750   21.5380  -33.8820 N   0  0  0  0  0  0  0  0  0  0  0  0
    0.1980   21.1260  -32.6520 O   0  0  0  0  0  0  0  0  0  0  0  0
   -4.2260   22.3340  -31.8410 C   0  0  0  0  0  0  0  0  0  0  0  0
   -4.1330   22.1770  -33.1620 O   0  0  0  0  0  0  0  0  0  0  0  0
   -5.4970   22.7100  -31.4190 N   0  0  0  0  0  0  0  0  0  0  0  0
   -6.0090   23.8510  -30.9400 C   0  0  0  0  0  0  0  0  0  0  0  0
   -5.3800   25.0390  -30.3950 C   0  0  0  0  0  0  0  0  0  0  0  0
   -5.9210   25.5920  -29.1610 N   0  0  0  0  0  0  0  0  0  0  0  0
   -4.4190   25.6590  -30.8590 O   0  0  0  0  0  0  0  0  0  0  0  0
   -7.4160   23.7590  -30.8520 C   0  0  0  0  0  0  0  0  0  0  0  0
   -7.7530   22.5220  -31.2850 C   0  0  0  0  0  0  0  0  0  0  0  0
   -9.0060   21.9460  -31.3920 C   0  0  0  0  0  0  0  0  0  0  0  0
   -9.1370   20.6780  -31.8580 C   0  0  0  0  0  0  0  0  0  0  0  0
   -8.0030   19.9950  -32.2160 C   0  0  0  0  0  0  0  0  0  0  0  0
   -8.1420   18.6090  -32.7250 C   0  0  0  0  0  0  0  0  0  0  0  0
   -6.9590   17.9210  -32.6490 F   0  0  0  0  0  0  0  0  0  0  0  0
   -9.1110   17.9890  -31.9630 F   0  0  0  0  0  0  0  0  0  0  0  0
   -6.7400   20.5900  -32.1030 C   0  0  0  0  0  0  0  0  0  0  0  0
   -6.5900   21.8870  -31.6280 C   0  0  0  0  0  0  0  0  0  0  0  0
   -2.9965   21.7889  -27.1811 H   0  0  0  0  0  0  0  0  0  0  0  0
   -3.7253   20.8769  -28.5462 H   0  0  0  0  0  0  0  0  0  0  0  0
   -1.9661   21.2398  -28.5462 H   0  0  0  0  0  0  0  0  0  0  0  0
   -1.2794   21.2937  -30.5608 H   0  0  0  0  0  0  0  0  0  0  0  0
   -2.4270   20.2143  -31.5915 H   0  0  0  0  0  0  0  0  0  0  0  0
   -1.2220   22.1560  -34.5940 H   0  0  0  0  0  0  0  0  0  0  0  0
   -2.6120   21.0970  -34.0720 H   0  0  0  0  0  0  0  0  0  0  0  0
   -6.5530   26.4210  -29.1860 H   0  0  0  0  0  0  0  0  0  0  0  0
   -5.6280   25.1010  -28.2910 H   0  0  0  0  0  0  0  0  0  0  0  0
   -8.1043   24.5414  -30.4997 H   0  0  0  0  0  0  0  0  0  0  0  0
   -9.8990   22.5173  -31.0985 H   0  0  0  0  0  0  0  0  0  0  0  0
  -10.1284   20.2097  -31.9463 H   0  0  0  0  0  0  0  0  0  0  0  0
   -8.4265   18.6277  -33.7874 H   0  0  0  0  0  0  0  0  0  0  0  0
   -5.8475   20.0180  -32.3967 H   0  0  0  0  0  0  0  0  0  0  0  0
  1  2  1  0
  2  3  2  0
  2  4  1  0
  4  5  1  0
  5  6  1  0
  6  7  1  0
  7  8  1  0
  7  9  2  0
  5 10  1  0
 10 11  2  0
 10 12  1  0
 12 13  1  0
 13 14  1  0
 14 15  1  0
 14 16  2  0
 13 17  2  0
 17 18  1  0
 18 19  2  0
 19 20  1  0
 20 21  2  0
 21 22  1  0
 22 23  1  0
 22 24  1  0
 21 25  1  0
 25 26  2  0
 26 12  1  0
 26 18  1  0
  1 27  1  0
  1 28  1  0
  1 29  1  0
  6 30  1  0
  6 31  1  0
  8 32  1  0
  8 33  1  0
 15 34  1  0
 15 35  1  0
 17 36  1  0
 19 37  1  0
 20 38  1  0
 22 39  1  0
 25 40  1  0
M  END
>  <smiles>  (16) 
CC(=O)ON(CC(N)=O)C(=O)n1c(C(N)=O)cc2ccc(C(F)F)cc21

>  <score_type>  (16) 
oracle

>  <origin>  (16) 
adg

>  <m_score__min__energy>  (16) 
-8.4900000000000002

>  <m_primary>  (16) 
energy

$$$$
16:0
     RDKit          3D

 37 38  0  0  1  0  0  0  0  0999 V2000
   -9.6250   21.9270  -31.9300 C   0  0  0  0  0  0  0  0  0  0  0  0
   -8.4400   21.7140  -31.9530 C   0  0  0  0  0  0  0  0  0  0  0  0
   -7.0180   21.4400  -31.9870 C   0  0  0  0  0  0  0  0  0  0  0  0
   -6.6190   20.3240  -32.6610 C   0  0  0  0  0  0  0  0  0  0  0  0
   -5.2690   20.0480  -32.7030 C   0  0  0  0  0  0  0  0  0  0  0  0
   -4.3870   20.8990  -32.0710 C   0  0  0  0  0  0  0  0  0  0  0  0
   -3.0210   20.8560  -31.9650 C   0  0  0  0  0  0  0  0  0  0  0  0
   -2.5690   21.9600  -31.2150 C   0  0  0  0  0  0  0  0  0  0  0  0
   -1.1570   22.1570  -31.0140 C   0  0  0  0  0  0  0  0  0  0  0  0
   -0.5160   22.9570  -30.0480 N   0  0  0  0  0  0  0  0  0  0  0  0
   -0.3680   21.5380  -31.8160 O   0  0  0  0  0  0  0  0  0  0  0  0
   -3.6580   22.6570  -30.8710 N   0  0  0  0  0  0  0  0  0  0  0  0
   -3.8000   23.7550  -29.9780 C   0  0  0  0  0  0  0  0  0  0  0  0
   -3.7810   24.8850  -30.4980 O   0  0  0  0  0  0  0  0  0  0  0  0
   -3.9660   23.6210  -28.5710 C   0  0  0  0  0  0  0  0  0  0  0  0
   -3.1800   24.2010  -27.7040 C   0  0  0  0  0  0  0  0  0  0  0  0
   -2.0560   25.0400  -27.9520 C   0  0  0  0  0  0  0  0  0  0  0  0
   -1.6960   25.6680  -28.9590 O   0  0  0  0  0  0  0  0  0  0  0  0
   -1.1590   25.2080  -26.8620 O   0  0  0  0  0  0  0  0  0  0  0  0
   -0.3820   24.0860  -26.4400 C   0  0  0  0  0  0  0  0  0  0  0  0
    0.5710   23.6380  -27.5000 C   0  0  0  0  0  0  0  0  0  0  0  0
    1.1580   22.5270  -27.4700 O   0  0  0  0  0  0  0  0  0  0  0  0
    0.7850   24.5250  -28.5470 O   0  0  0  0  0  0  0  0  0  0  0  0
   -4.7700   22.0300  -31.3860 C   0  0  0  0  0  0  0  0  0  0  0  0
   -6.1270   22.2880  -31.3560 C   0  0  0  0  0  0  0  0  0  0  0  0
  -10.7075   22.1216  -31.9090 H   0  0  0  0  0  0  0  0  0  0  0  0
   -7.3495   19.6662  -33.1545 H   0  0  0  0  0  0  0  0  0  0  0  0
   -4.8995   19.1588  -33.2348 H   0  0  0  0  0  0  0  0  0  0  0  0
   -2.3759   20.0781  -32.3993 H   0  0  0  0  0  0  0  0  0  0  0  0
    0.3180   22.6410  -29.4810 H   0  0  0  0  0  0  0  0  0  0  0  0
   -0.8950   23.9220  -29.8900 H   0  0  0  0  0  0  0  0  0  0  0  0
   -4.7938   23.0008  -28.1967 H   0  0  0  0  0  0  0  0  0  0  0  0
   -3.4167   24.0179  -26.6455 H   0  0  0  0  0  0  0  0  0  0  0  0
    0.1898   24.3665  -25.5432 H   0  0  0  0  0  0  0  0  0  0  0  0
   -1.0706   23.2550  -26.2273 H   0  0  0  0  0  0  0  0  0  0  0  0
    0.2760   25.4190  -28.5980 H   0  0  0  0  0  0  0  0  0  0  0  0
   -6.5016   23.1758  -30.8255 H   0  0  0  0  0  0  0  0  0  0  0  0
  1  2  3  0
  2  3  1  0
  3  4  2  0
  4  5  1  0
  5  6  2  0
  6  7  1  0
  7  8  2  0
  8  9  1  0
  9 10  1  0
  9 11  2  0
  8 12  1  0
 12 13  1  0
 13 14  2  0
 13 15  1  0
 15 16  2  0
 16 17  1  0
 17 18  2  0
 17 19  1  0
 19 20  1  0
 20 21  1  0
 21 22  2  0
 21 23  1  0
 12 24  1  0
 24 25  2  0
 25  3  1  0
 24  6  1  0
  1 26  1  0
  4 27  1  0
  5 28  1  0
  7 29  1  0
 10 30  1  0
 10 31  1  0
 15 32  1  0
 16 33  1  0
 20 34  1  0
 20 35  1  0
 23 36  1  0
 25 37  1  0
M  END
>  <smiles>  (17) 
C#Cc1ccc2cc(C(N)=O)n(C(=O)C=CC(=O)OCC(=O)O)c2c1

>  <score_type>  (17) 
oracle

>  <origin>  (17) 
adg

>  <m_score__min__energy>  (17) 
-10.279999999999999

>  <m_primary>  (17) 
energy

$$$$
17:0
     RDKit          3D

 46 47  0  0  0  0  0  0  0  0999 V2000
   -4.5540   24.7130  -28.4570 N   0  0  0  0  0  0  0  0  0  0  0  0
   -4.5830   24.5440  -29.9100 C   0  0  0  0  0  0  0  0  0  0  0  0
   -3.8500   25.3590  -30.4910 O   0  0  0  0  0  0  0  0  0  0  0  0
   -5.4160   23.5030  -30.4460 C   0  0  0  0  0  0  0  0  0  0  0  0
   -6.7950   23.7380  -30.6530 C   0  0  0  0  0  0  0  0  0  0  0  0
   -7.3560   22.6070  -31.1590 C   0  0  0  0  0  0  0  0  0  0  0  0
   -8.6570   22.3480  -31.5190 C   0  0  0  0  0  0  0  0  0  0  0  0
   -9.0160   21.1180  -32.0160 C   0  0  0  0  0  0  0  0  0  0  0  0
   -8.0290   20.1720  -32.1340 C   0  0  0  0  0  0  0  0  0  0  0  0
   -8.4070   18.8440  -32.6670 C   0  0  0  0  0  0  0  0  0  0  0  0
   -7.2300   17.9890  -32.9340 C   0  0  0  0  0  0  0  0  0  0  0  0
   -6.8730   17.0520  -32.1500 O   0  0  0  0  0  0  0  0  0  0  0  0
   -6.4910   18.2490  -34.1220 N   0  0  0  0  0  0  0  0  0  0  0  0
   -5.3310   17.4130  -34.3950 C   0  0  0  0  0  0  0  0  0  0  0  0
   -4.0930   18.2980  -34.2500 C   0  0  0  0  0  0  0  0  0  0  0  0
   -4.4370   19.6270  -34.1560 O   0  0  0  0  0  0  0  0  0  0  0  0
   -6.7200   20.4470  -31.7650 C   0  0  0  0  0  0  0  0  0  0  0  0
   -6.3390   21.6840  -31.2620 C   0  0  0  0  0  0  0  0  0  0  0  0
   -5.1590   22.2340  -30.8250 N   0  0  0  0  0  0  0  0  0  0  0  0
   -3.9750   21.4850  -30.8260 C   0  0  0  0  0  0  0  0  0  0  0  0
   -3.7560   20.7860  -31.8790 O   0  0  0  0  0  0  0  0  0  0  0  0
   -2.9190   21.3460  -29.8200 C   0  0  0  0  0  0  0  0  0  0  0  0
   -1.9500   22.4600  -29.8700 C   0  0  0  0  0  0  0  0  0  0  0  0
   -1.7780   23.2680  -28.8080 C   0  0  0  0  0  0  0  0  0  0  0  0
   -0.8240   24.3750  -28.8400 C   0  0  0  0  0  0  0  0  0  0  0  0
    0.3630   24.2550  -28.4370 O   0  0  0  0  0  0  0  0  0  0  0  0
   -1.2380   25.6110  -29.3340 O   0  0  0  0  0  0  0  0  0  0  0  0
   -3.8530   24.2000  -27.8820 H   0  0  0  0  0  0  0  0  0  0  0  0
   -5.2710   25.3640  -28.0920 H   0  0  0  0  0  0  0  0  0  0  0  0
   -7.3252   24.6781  -30.4404 H   0  0  0  0  0  0  0  0  0  0  0  0
   -9.4190   23.1336  -31.4081 H   0  0  0  0  0  0  0  0  0  0  0  0
  -10.0540   20.9003  -32.3078 H   0  0  0  0  0  0  0  0  0  0  0  0
   -9.0516   18.3388  -31.9327 H   0  0  0  0  0  0  0  0  0  0  0  0
   -8.9309   19.0018  -33.6212 H   0  0  0  0  0  0  0  0  0  0  0  0
   -6.7890   19.0220  -34.7680 H   0  0  0  0  0  0  0  0  0  0  0  0
   -5.2871   16.5824  -33.6752 H   0  0  0  0  0  0  0  0  0  0  0  0
   -5.3881   16.9833  -35.4060 H   0  0  0  0  0  0  0  0  0  0  0  0
   -3.5468   18.0041  -33.3416 H   0  0  0  0  0  0  0  0  0  0  0  0
   -3.4641   18.1643  -35.1425 H   0  0  0  0  0  0  0  0  0  0  0  0
   -4.0070   20.1070  -33.4130 H   0  0  0  0  0  0  0  0  0  0  0  0
   -5.9596   19.6598  -31.8744 H   0  0  0  0  0  0  0  0  0  0  0  0
   -3.3813   21.3232  -28.8221 H   0  0  0  0  0  0  0  0  0  0  0  0
   -2.3733   20.4143  -30.0300 H   0  0  0  0  0  0  0  0  0  0  0  0
   -1.3632   22.6306  -30.7847 H   0  0  0  0  0  0  0  0  0  0  0  0
   -2.3678   23.0918  -27.8964 H   0  0  0  0  0  0  0  0  0  0  0  0
   -2.1660   25.6740  -29.7370 H   0  0  0  0  0  0  0  0  0  0  0  0
  1  2  1  0
  2  3  2  0
  2  4  1  0
  4  5  2  0
  5  6  1  0
  6  7  2  0
  7  8  1  0
  8  9  2  0
  9 10  1  0
 10 11  1  0
 11 12  2  0
 11 13  1  0
 13 14  1  0
 14 15  1  0
 15 16  1  0
  9 17  1  0
 17 18  2  0
 18 19  1  0
 19 20  1  0
 20 21  2  0
 20 22  1  0
 22 23  1  0
 23 24  2  0
 24 25  1  0
 25 26  2  0
 25 27  1  0
 19  4  1  0
 18  6  1  0
  1 28  1  0
  1 29  1  0
  5 30  1  0
  7 31  1  0
  8 32  1  0
 10 33  1  0
 10 34  1  0
 13 35  1  0
 14 36  1  0
 14 37  1  0
 15 38  1  0
 15 39  1  0
 16 40  1  0
 17 41  1  0
 22 42  1  0
 22 43  1  0
 23 44  1  0
 24 45  1  0
 27 46  1  0
M  END
>  <smiles>  (18) 
NC(=O)c1cc2ccc(CC(=O)NCCO)cc2n1C(=O)C/C=C/C(=O)O

>  <score_type>  (18) 
oracle

>  <origin>  (18) 
adg

>  <m_score__min__energy>  (18) 
-10.109999999999999

>  <m_primary>  (18) 
energy

$$$$
18:0
     RDKit          3D

 47 48  0  0  0  0  0  0  0  0999 V2000
   -5.5670   16.5030  -32.1040 C   0  0  0  0  0  0  0  0  0  0  0  0
   -6.5230   16.9630  -33.1940 C   0  0  0  0  0  0  0  0  0  0  0  0
   -6.8040   15.9090  -34.1940 C   0  0  0  0  0  0  0  0  0  0  0  0
   -6.2670   18.2920  -33.6410 N   0  0  0  0  0  0  0  0  0  0  0  0
   -5.7430   18.4220  -35.0220 C   0  0  0  0  0  0  0  0  0  0  0  0
   -6.5100   19.5060  -32.9610 C   0  0  0  0  0  0  0  0  0  0  0  0
   -7.7460   19.9460  -32.5590 C   0  0  0  0  0  0  0  0  0  0  0  0
   -7.9410   21.1350  -31.8590 C   0  0  0  0  0  0  0  0  0  0  0  0
   -6.8280   21.8880  -31.5670 C   0  0  0  0  0  0  0  0  0  0  0  0
   -6.7400   23.0740  -30.9030 C   0  0  0  0  0  0  0  0  0  0  0  0
   -5.3720   23.4220  -30.8740 C   0  0  0  0  0  0  0  0  0  0  0  0
   -4.9840   24.6850  -30.2810 C   0  0  0  0  0  0  0  0  0  0  0  0
   -5.3030   24.9350  -28.8860 N   0  0  0  0  0  0  0  0  0  0  0  0
   -4.3820   25.6230  -30.8430 O   0  0  0  0  0  0  0  0  0  0  0  0
   -4.6540   22.4720  -31.4960 N   0  0  0  0  0  0  0  0  0  0  0  0
   -3.2800   22.2370  -31.5870 C   0  0  0  0  0  0  0  0  0  0  0  0
   -2.5530   22.7110  -30.6460 O   0  0  0  0  0  0  0  0  0  0  0  0
   -2.5380   21.5320  -32.6170 C   0  0  0  0  0  0  0  0  0  0  0  0
   -2.9520   21.3070  -33.7770 O   0  0  0  0  0  0  0  0  0  0  0  0
   -1.2200   21.0270  -32.3430 N   0  0  0  0  0  0  0  0  0  0  0  0
   -0.3980   20.3150  -33.2540 C   0  0  0  0  0  0  0  0  0  0  0  0
    0.3670   21.1260  -34.2480 C   0  0  0  0  0  0  0  0  0  0  0  0
   -0.2480   22.2690  -34.6840 O   0  0  0  0  0  0  0  0  0  0  0  0
   -5.5600   21.5150  -31.9340 C   0  0  0  0  0  0  0  0  0  0  0  0
   -5.4330   20.3340  -32.6220 C   0  0  0  0  0  0  0  0  0  0  0  0
   -6.0062   16.7144  -31.1179 H   0  0  0  0  0  0  0  0  0  0  0  0
   -5.3911   15.4217  -32.2029 H   0  0  0  0  0  0  0  0  0  0  0  0
   -4.6123   17.0403  -32.2029 H   0  0  0  0  0  0  0  0  0  0  0  0
   -7.5220   17.0959  -32.7532 H   0  0  0  0  0  0  0  0  0  0  0  0
   -7.0542   14.9707  -33.6773 H   0  0  0  0  0  0  0  0  0  0  0  0
   -7.6512   16.2178  -34.8240 H   0  0  0  0  0  0  0  0  0  0  0  0
   -5.9155   15.7551  -34.8240 H   0  0  0  0  0  0  0  0  0  0  0  0
   -4.6759   18.6867  -34.9859 H   0  0  0  0  0  0  0  0  0  0  0  0
   -5.8659   17.4661  -35.5523 H   0  0  0  0  0  0  0  0  0  0  0  0
   -6.2984   19.2096  -35.5523 H   0  0  0  0  0  0  0  0  0  0  0  0
   -8.6251   19.3306  -32.8009 H   0  0  0  0  0  0  0  0  0  0  0  0
   -8.9464   21.4588  -31.5519 H   0  0  0  0  0  0  0  0  0  0  0  0
   -7.5732   23.6491  -30.4728 H   0  0  0  0  0  0  0  0  0  0  0  0
   -6.3100   24.9400  -28.6010 H   0  0  0  0  0  0  0  0  0  0  0  0
   -4.5220   25.1020  -28.2110 H   0  0  0  0  0  0  0  0  0  0  0  0
   -0.8230   21.1990  -31.3680 H   0  0  0  0  0  0  0  0  0  0  0  0
    0.3300   19.7385  -32.6644 H   0  0  0  0  0  0  0  0  0  0  0  0
   -1.0922   19.7070  -33.8526 H   0  0  0  0  0  0  0  0  0  0  0  0
    1.3231   21.4125  -33.7856 H   0  0  0  0  0  0  0  0  0  0  0  0
    0.4737   20.4865  -35.1366 H   0  0  0  0  0  0  0  0  0  0  0  0
   -1.2200   22.1190  -34.7710 H   0  0  0  0  0  0  0  0  0  0  0  0
   -4.4237   20.0189  -32.9255 H   0  0  0  0  0  0  0  0  0  0  0  0
  1  2  1  0
  2  3  1  0
  2  4  1  0
  4  5  1  0
  4  6  1  0
  6  7  2  0
  7  8  1  0
  8  9  2  0
  9 10  1  0
 10 11  2  0
 11 12  1  0
 12 13  1  0
 12 14  2  0
 11 15  1  0
 15 16  1  0
 16 17  2  0
 16 18  1  0
 18 19  2  0
 18 20  1  0
 20 21  1  0
 21 22  1  0
 22 23  1  0
 15 24  1  0
 24 25  2  0
 25  6  1  0
 24  9  1  0
  1 26  1  0
  1 27  1  0
  1 28  1  0
  2 29  1  0
  3 30  1  0
  3 31  1  0
  3 32  1  0
  5 33  1  0
  5 34  1  0
  5 35  1  0
  7 36  1  0
  8 37  1  0
 10 38  1  0
 13 39  1  0
 13 40  1  0
 20 41  1  0
 21 42  1  0
 21 43  1  0
 22 44  1  0
 22 45  1  0
 23 46  1  0
 25 47  1  0
M  END
>  <smiles>  (19) 
CC(C)N(C)c1ccc2cc(C(N)=O)n(C(=O)C(=O)NCCO)c2c1

>  <score_type>  (19) 
oracle

>  <origin>  (19) 
adg

>  <m_score__min__energy>  (19) 
-9.3100000000000005

>  <m_primary>  (19) 
energy

$$$$
19:0
     RDKit          3D

 47 49  0  0  0  0  0  0  0  0999 V2000
   -2.3930   15.4170  -34.9400 C   0  0  0  0  0  0  0  0  0  0  0  0
   -3.0810   16.5810  -35.3570 O   0  0  0  0  0  0  0  0  0  0  0  0
   -4.2740   16.8990  -34.7140 C   0  0  0  0  0  0  0  0  0  0  0  0
   -4.9170   18.0850  -34.9640 C   0  0  0  0  0  0  0  0  0  0  0  0
   -6.1170   18.4340  -34.3340 C   0  0  0  0  0  0  0  0  0  0  0  0
   -6.6980   17.5900  -33.4370 C   0  0  0  0  0  0  0  0  0  0  0  0
   -7.9640   17.8020  -32.7120 C   0  0  0  0  0  0  0  0  0  0  0  0
   -8.5900   19.0570  -32.9350 N   0  0  0  0  0  0  0  0  0  0  0  0
   -8.2890   20.2990  -32.3300 C   0  0  0  0  0  0  0  0  0  0  0  0
   -9.2630   21.1370  -31.8420 C   0  0  0  0  0  0  0  0  0  0  0  0
   -8.9230   22.3270  -31.2400 C   0  0  0  0  0  0  0  0  0  0  0  0
   -7.5980   22.6720  -31.1310 C   0  0  0  0  0  0  0  0  0  0  0  0
   -7.0270   23.7810  -30.5830 C   0  0  0  0  0  0  0  0  0  0  0  0
   -5.6300   23.6640  -30.7200 C   0  0  0  0  0  0  0  0  0  0  0  0
   -4.7570   24.7030  -30.2340 C   0  0  0  0  0  0  0  0  0  0  0  0
   -4.4060   24.6740  -28.8160 N   0  0  0  0  0  0  0  0  0  0  0  0
   -4.2380   25.6390  -30.8390 O   0  0  0  0  0  0  0  0  0  0  0  0
   -5.3660   22.4870  -31.3450 N   0  0  0  0  0  0  0  0  0  0  0  0
   -4.1500   21.8670  -31.6450 C   0  0  0  0  0  0  0  0  0  0  0  0
   -3.9160   21.6380  -32.9020 O   0  0  0  0  0  0  0  0  0  0  0  0
   -3.0660   21.4130  -30.7810 C   0  0  0  0  0  0  0  0  0  0  0  0
   -2.6800   22.3330  -29.7000 C   0  0  0  0  0  0  0  0  0  0  0  0
   -2.7780   22.0400  -28.4620 O   0  0  0  0  0  0  0  0  0  0  0  0
   -2.1730   23.6050  -29.9870 O   0  0  0  0  0  0  0  0  0  0  0  0
   -6.5760   21.8790  -31.5980 C   0  0  0  0  0  0  0  0  0  0  0  0
   -6.9560   20.6950  -32.1950 C   0  0  0  0  0  0  0  0  0  0  0  0
   -6.0380   16.3850  -33.1890 C   0  0  0  0  0  0  0  0  0  0  0  0
   -4.8590   16.0410  -33.8060 C   0  0  0  0  0  0  0  0  0  0  0  0
   -2.3702   15.3785  -33.8409 H   0  0  0  0  0  0  0  0  0  0  0  0
   -2.9101   14.5268  -35.3275 H   0  0  0  0  0  0  0  0  0  0  0  0
   -1.3638   15.4408  -35.3275 H   0  0  0  0  0  0  0  0  0  0  0  0
   -4.4734   18.7868  -35.6856 H   0  0  0  0  0  0  0  0  0  0  0  0
   -6.5946   19.3976  -34.5652 H   0  0  0  0  0  0  0  0  0  0  0  0
   -8.6667   17.0130  -33.0180 H   0  0  0  0  0  0  0  0  0  0  0  0
   -7.7091   17.7759  -31.6423 H   0  0  0  0  0  0  0  0  0  0  0  0
   -9.3880   19.0590  -33.6540 H   0  0  0  0  0  0  0  0  0  0  0  0
  -10.3222   20.8544  -31.9333 H   0  0  0  0  0  0  0  0  0  0  0  0
   -9.7048   22.9953  -30.8499 H   0  0  0  0  0  0  0  0  0  0  0  0
   -7.5628   24.6203  -30.1157 H   0  0  0  0  0  0  0  0  0  0  0  0
   -4.9380   25.3440  -28.2310 H   0  0  0  0  0  0  0  0  0  0  0  0
   -3.6740   24.0170  -28.4670 H   0  0  0  0  0  0  0  0  0  0  0  0
   -3.3765   20.4633  -30.3210 H   0  0  0  0  0  0  0  0  0  0  0  0
   -2.1823   21.3281  -31.4305 H   0  0  0  0  0  0  0  0  0  0  0  0
   -2.6380   24.1700  -30.7090 H   0  0  0  0  0  0  0  0  0  0  0  0
   -6.1709   20.0299  -32.5839 H   0  0  0  0  0  0  0  0  0  0  0  0
   -6.4805   15.6808  -32.4690 H   0  0  0  0  0  0  0  0  0  0  0  0
   -4.3802   15.0780  -33.5749 H   0  0  0  0  0  0  0  0  0  0  0  0
  1  2  1  0
  2  3  1  0
  3  4  2  0
  4  5  1  0
  5  6  2  0
  6  7  1  0
  7  8  1  0
  8  9  1  0
  9 10  2  0
 10 11  1  0
 11 12  2  0
 12 13  1  0
 13 14  2  0
 14 15  1  0
 15 16  1  0
 15 17  2  0
 14 18  1  0
 18 19  1  0
 19 20  2  0
 19 21  1  0
 21 22  1  0
 22 23  2  0
 22 24  1  0
 18 25  1  0
 25 26  2  0
  6 27  1  0
 27 28  2  0
 28  3  1  0
 26  9  1  0
 25 12  1  0
  1 29  1  0
  1 30  1  0
  1 31  1  0
  4 32  1  0
  5 33  1  0
  7 34  1  0
  7 35  1  0
  8 36  1  0
 10 37  1  0
 11 38  1  0
 13 39  1  0
 16 40  1  0
 16 41  1  0
 21 42  1  0
 21 43  1  0
 24 44  1  0
 26 45  1  0
 27 46  1  0
 28 47  1  0
M  END
>  <smiles>  (20) 
COc1ccc(CNc2ccc3cc(C(N)=O)n(C(=O)CC(=O)O)c3c2)cc1

>  <score_type>  (20) 
oracle

>  <origin>  (20) 
adg

>  <m_score__min__energy>  (20) 
-9.2200000000000006

>  <m_primary>  (20) 
energy

$$$$
20:0
     RDKit          3D

 43 44  0  0  0  0  0  0  0  0999 V2000
   -2.3750   20.4390  -27.7830 C   0  0  0  0  0  0  0  0  0  0  0  0
   -2.7820   21.1350  -29.0620 C   0  0  0  0  0  0  0  0  0  0  0  0
   -1.6920   21.2690  -29.9560 O   0  0  0  0  0  0  0  0  0  0  0  0
   -1.7780   22.0060  -31.1300 C   0  0  0  0  0  0  0  0  0  0  0  0
   -2.4750   23.0300  -31.1220 O   0  0  0  0  0  0  0  0  0  0  0  0
   -1.0200   21.4940  -32.3010 C   0  0  0  0  0  0  0  0  0  0  0  0
   -1.8490   21.3510  -33.4790 N   0  0  0  0  0  0  0  0  0  0  0  0
   -3.1090   20.6680  -33.4170 C   0  0  0  0  0  0  0  0  0  0  0  0
   -3.1930   19.3810  -33.8930 C   0  0  0  0  0  0  0  0  0  0  0  0
   -4.4160   18.7580  -33.8090 C   0  0  0  0  0  0  0  0  0  0  0  0
   -5.5000   19.4160  -33.2660 C   0  0  0  0  0  0  0  0  0  0  0  0
   -6.7800   18.9790  -33.0950 C   0  0  0  0  0  0  0  0  0  0  0  0
   -7.5000   20.0330  -32.4940 C   0  0  0  0  0  0  0  0  0  0  0  0
   -8.8960   19.8410  -32.1570 C   0  0  0  0  0  0  0  0  0  0  0  0
   -9.7410   21.0070  -31.9610 N   0  0  0  0  0  0  0  0  0  0  0  0
   -9.4930   18.7580  -32.0040 O   0  0  0  0  0  0  0  0  0  0  0  0
   -6.6820   21.0820  -32.3100 N   0  0  0  0  0  0  0  0  0  0  0  0
   -6.9310   22.3990  -31.8780 C   0  0  0  0  0  0  0  0  0  0  0  0
   -8.0400   22.9120  -32.2660 O   0  0  0  0  0  0  0  0  0  0  0  0
   -6.1330   23.2570  -31.0580 C   0  0  0  0  0  0  0  0  0  0  0  0
   -6.1750   24.5820  -31.3390 C   0  0  0  0  0  0  0  0  0  0  0  0
   -5.3640   25.5090  -30.5160 C   0  0  0  0  0  0  0  0  0  0  0  0
   -5.9000   26.2810  -29.6990 O   0  0  0  0  0  0  0  0  0  0  0  0
   -3.9800   25.5520  -30.6220 O   0  0  0  0  0  0  0  0  0  0  0  0
   -5.4550   20.6970  -32.7820 C   0  0  0  0  0  0  0  0  0  0  0  0
   -4.2140   21.3240  -32.8690 C   0  0  0  0  0  0  0  0  0  0  0  0
   -2.7192   21.0275  -26.9198 H   0  0  0  0  0  0  0  0  0  0  0  0
   -2.8302   19.4382  -27.7493 H   0  0  0  0  0  0  0  0  0  0  0  0
   -1.2795   20.3449  -27.7493 H   0  0  0  0  0  0  0  0  0  0  0  0
   -3.5736   20.5480  -29.5507 H   0  0  0  0  0  0  0  0  0  0  0  0
   -3.1398   22.1428  -28.8046 H   0  0  0  0  0  0  0  0  0  0  0  0
   -0.2039   22.1960  -32.5272 H   0  0  0  0  0  0  0  0  0  0  0  0
   -0.6355   20.4970  -32.0401 H   0  0  0  0  0  0  0  0  0  0  0  0
   -1.5270   21.7530  -34.4030 H   0  0  0  0  0  0  0  0  0  0  0  0
   -2.3184   18.8709  -34.3231 H   0  0  0  0  0  0  0  0  0  0  0  0
   -4.5307   17.7279  -34.1773 H   0  0  0  0  0  0  0  0  0  0  0  0
   -7.1765   17.9913  -33.3731 H   0  0  0  0  0  0  0  0  0  0  0  0
   -9.6430   21.7610  -32.6750 H   0  0  0  0  0  0  0  0  0  0  0  0
  -10.3920   21.0850  -31.1750 H   0  0  0  0  0  0  0  0  0  0  0  0
   -5.5151   22.8606  -30.2389 H   0  0  0  0  0  0  0  0  0  0  0  0
   -6.7988   24.9616  -32.1617 H   0  0  0  0  0  0  0  0  0  0  0  0
   -3.5160   24.9200  -31.2580 H   0  0  0  0  0  0  0  0  0  0  0  0
   -4.1022   22.3541  -32.4996 H   0  0  0  0  0  0  0  0  0  0  0  0
  1  2  1  0
  2  3  1  0
  3  4  1  0
  4  5  2  0
  4  6  1  0
  6  7  1  0
  7  8  1  0
  8  9  2  0
  9 10  1  0
 10 11  2  0
 11 12  1  0
 12 13  2  0
 13 14  1  0
 14 15  1  0
 14 16  2  0
 13 17  1  0
 17 18  1  0
 18 19  2  0
 18 20  1  0
 20 21  2  0
 21 22  1  0
 22 23  2  0
 22 24  1  0
 17 25  1  0
 25 26  2  0
 26  8  1  0
 25 11  1  0
  1 27  1  0
  1 28  1  0
  1 29  1  0
  2 30  1  0
  2 31  1  0
  6 32  1  0
  6 33  1  0
  7 34  1  0
  9 35  1  0
 10 36  1  0
 12 37  1  0
 15 38  1  0
 15 39  1  0
 20 40  1  0
 21 41  1  0
 24 42  1  0
 26 43  1  0
M  END
>  <smiles>  (21) 
CCOC(=O)CNc1ccc2cc(C(N)=O)n(C(=O)/C=C/C(=O)O)c2c1

>  <score_type>  (21) 
oracle

>  <origin>  (21) 
adg

>  <m_score__min__energy>  (21) 
-8.6199999999999992

>  <m_primary>  (21) 
energy

$$$$
21:0
     RDKit          3D

 51 52  0  0  0  0  0  0  0  0999 V2000
   -2.9250   19.8510  -31.9740 C   0  0  0  0  0  0  0  0  0  0  0  0
   -2.7550   21.3770  -31.8980 N   0  0  0  0  0  0  0  0  0  0  0  0
   -1.4400   21.7370  -31.5600 C   0  0  0  0  0  0  0  0  0  0  0  0
   -1.2690   22.3510  -30.2030 C   0  0  0  0  0  0  0  0  0  0  0  0
   -1.7100   23.5180  -30.0680 O   0  0  0  0  0  0  0  0  0  0  0  0
   -0.6380   21.6080  -29.1780 N   0  0  0  0  0  0  0  0  0  0  0  0
   -0.4410   22.1510  -27.8170 C   0  0  0  0  0  0  0  0  0  0  0  0
    0.6370   23.1940  -27.8970 C   0  0  0  0  0  0  0  0  0  0  0  0
    0.1400   24.3650  -28.4140 O   0  0  0  0  0  0  0  0  0  0  0  0
    0.0990   25.3560  -27.4560 C   0  0  0  0  0  0  0  0  0  0  0  0
   -1.2850   26.0220  -27.6460 C   0  0  0  0  0  0  0  0  0  0  0  0
   -1.6270   25.8090  -28.9730 O   0  0  0  0  0  0  0  0  0  0  0  0
   -3.9650   22.0050  -32.1600 C   0  0  0  0  0  0  0  0  0  0  0  0
   -4.0520   22.2110  -33.4610 O   0  0  0  0  0  0  0  0  0  0  0  0
   -5.0630   22.4730  -31.4420 N   0  0  0  0  0  0  0  0  0  0  0  0
   -5.3250   23.6040  -30.7830 C   0  0  0  0  0  0  0  0  0  0  0  0
   -4.4490   24.6540  -30.2790 C   0  0  0  0  0  0  0  0  0  0  0  0
   -3.9530   24.5490  -28.9360 N   0  0  0  0  0  0  0  0  0  0  0  0
   -4.0800   25.6580  -30.9090 O   0  0  0  0  0  0  0  0  0  0  0  0
   -6.6850   23.6610  -30.4070 C   0  0  0  0  0  0  0  0  0  0  0  0
   -7.2530   22.5180  -30.8570 C   0  0  0  0  0  0  0  0  0  0  0  0
   -8.5580   22.0850  -30.7510 C   0  0  0  0  0  0  0  0  0  0  0  0
   -8.9470   20.8790  -31.2810 C   0  0  0  0  0  0  0  0  0  0  0  0
   -7.9840   20.1310  -31.9150 C   0  0  0  0  0  0  0  0  0  0  0  0
   -8.3970   18.8290  -32.4890 C   0  0  0  0  0  0  0  0  0  0  0  0
   -8.4930   17.8700  -31.4920 F   0  0  0  0  0  0  0  0  0  0  0  0
   -7.4970   18.3650  -33.4250 F   0  0  0  0  0  0  0  0  0  0  0  0
   -9.6420   18.9360  -33.0710 F   0  0  0  0  0  0  0  0  0  0  0  0
   -6.6760   20.5790  -32.0140 C   0  0  0  0  0  0  0  0  0  0  0  0
   -6.2710   21.8000  -31.4800 C   0  0  0  0  0  0  0  0  0  0  0  0
   -2.9712   19.4361  -30.9563 H   0  0  0  0  0  0  0  0  0  0  0  0
   -3.8553   19.6119  -32.5100 H   0  0  0  0  0  0  0  0  0  0  0  0
   -2.0701   19.4131  -32.5100 H   0  0  0  0  0  0  0  0  0  0  0  0
   -0.8185   20.8304  -31.6028 H   0  0  0  0  0  0  0  0  0  0  0  0
   -1.1431   22.5117  -32.2823 H   0  0  0  0  0  0  0  0  0  0  0  0
   -0.3000   20.6330  -29.3950 H   0  0  0  0  0  0  0  0  0  0  0  0
   -1.3756   22.6042  -27.4549 H   0  0  0  0  0  0  0  0  0  0  0  0
   -0.1538   21.3507  -27.1191 H   0  0  0  0  0  0  0  0  0  0  0  0
    1.0322   23.3834  -26.8881 H   0  0  0  0  0  0  0  0  0  0  0  0
    1.4370   22.8268  -28.5567 H   0  0  0  0  0  0  0  0  0  0  0  0
    0.1883   24.9258  -26.4476 H   0  0  0  0  0  0  0  0  0  0  0  0
    0.9262   26.0734  -27.5608 H   0  0  0  0  0  0  0  0  0  0  0  0
   -2.0278   25.5589  -26.9798 H   0  0  0  0  0  0  0  0  0  0  0  0
   -1.2556   27.0942  -27.4022 H   0  0  0  0  0  0  0  0  0  0  0  0
   -1.1010   25.0110  -29.2710 H   0  0  0  0  0  0  0  0  0  0  0  0
   -4.2510   25.2690  -28.2540 H   0  0  0  0  0  0  0  0  0  0  0  0
   -3.3150   23.7650  -28.6660 H   0  0  0  0  0  0  0  0  0  0  0  0
   -7.1836   24.4731  -29.8575 H   0  0  0  0  0  0  0  0  0  0  0  0
   -9.2979   22.7143  -30.2347 H   0  0  0  0  0  0  0  0  0  0  0  0
   -9.9860   20.5266  -31.2013 H   0  0  0  0  0  0  0  0  0  0  0  0
   -5.9350   19.9509  -32.5302 H   0  0  0  0  0  0  0  0  0  0  0  0
  1  2  1  0
  2  3  1  0
  3  4  1  0
  4  5  2  0
  4  6  1  0
  6  7  1  0
  7  8  1  0
  8  9  1  0
  9 10  1  0
 10 11  1  0
 11 12  1  0
  2 13  1  0
 13 14  2  0
 13 15  1  0
 15 16  1  0
 16 17  1  0
 17 18  1  0
 17 19  2  0
 16 20  2  0
 20 21  1  0
 21 22  2  0
 22 23  1  0
 23 24  2  0
 24 25  1  0
 25 26  1  0
 25 27  1  0
 25 28  1  0
 24 29  1  0
 29 30  2  0
 30 15  1  0
 30 21  1  0
  1 31  1  0
  1 32  1  0
  1 33  1  0
  3 34  1  0
  3 35  1  0
  6 36  1  0
  7 37  1  0
  7 38  1  0
  8 39  1  0
  8 40  1  0
 10 41  1  0
 10 42  1  0
 11 43  1  0
 11 44  1  0
 12 45  1  0
 18 46  1  0
 18 47  1  0
 20 48  1  0
 22 49  1  0
 23 50  1  0
 29 51  1  0
M  END
>  <smiles>  (22) 
CN(CC(=O)NCCOCCO)C(=O)n1c(C(N)=O)cc2ccc(C(F)(F)F)cc21

>  <score_type>  (22) 
oracle

>  <origin>  (22) 
adg

>  <m_score__min__energy>  (22) 
-8.0099999999999998

>  <m_primary>  (22) 
energy

$$$$
22:0
     RDKit          3D

 51 52  0  0  1  0  0  0  0  0999 V2000
   -0.5670   22.0690  -26.6270 C   0  0  0  0  0  0  0  0  0  0  0  0
   -0.5700   23.0560  -27.6990 N   0  0  0  0  0  0  0  0  0  0  0  0
   -0.3210   24.4530  -27.4240 C   0  0  0  0  0  0  0  0  0  0  0  0
   -1.5530   25.2900  -27.6380 C   0  0  1  0  0  0  0  0  0  0  0  0
   -1.6310   25.6690  -28.9940 O   0  0  0  0  0  0  0  0  0  0  0  0
   -2.7790   24.5050  -27.2690 C   0  0  0  0  0  0  0  0  0  0  0  0
   -3.3830   23.9020  -28.3590 O   0  0  0  0  0  0  0  0  0  0  0  0
   -0.8210   22.6510  -29.0410 C   0  0  0  0  0  0  0  0  0  0  0  0
   -0.8260   23.5090  -29.9860 O   0  0  0  0  0  0  0  0  0  0  0  0
   -1.0830   21.1940  -29.3300 C   0  0  0  0  0  0  0  0  0  0  0  0
   -1.8690   21.1060  -30.5930 C   0  0  0  0  0  0  0  0  0  0  0  0
   -3.0200   22.0160  -30.6290 N   0  0  0  0  0  0  0  0  0  0  0  0
   -4.2930   21.6240  -31.0920 C   0  0  0  0  0  0  0  0  0  0  0  0
   -4.3550   20.3960  -31.4590 O   0  0  0  0  0  0  0  0  0  0  0  0
   -5.4570   22.4060  -31.1810 N   0  0  0  0  0  0  0  0  0  0  0  0
   -5.6940   23.7020  -30.9250 C   0  0  0  0  0  0  0  0  0  0  0  0
   -4.7870   24.8140  -30.7200 C   0  0  0  0  0  0  0  0  0  0  0  0
   -5.3480   26.1090  -30.4170 N   0  0  0  0  0  0  0  0  0  0  0  0
   -3.5400   24.7880  -30.7740 O   0  0  0  0  0  0  0  0  0  0  0  0
   -7.0800   23.9490  -31.0180 C   0  0  0  0  0  0  0  0  0  0  0  0
   -7.6750   22.7660  -31.3430 C   0  0  0  0  0  0  0  0  0  0  0  0
   -9.0150   22.4930  -31.5480 C   0  0  0  0  0  0  0  0  0  0  0  0
   -9.3930   21.2140  -31.8690 C   0  0  0  0  0  0  0  0  0  0  0  0
   -8.4310   20.2570  -31.9770 C   0  0  0  0  0  0  0  0  0  0  0  0
   -8.8480   18.8660  -32.3280 C   0  0  0  0  0  0  0  0  0  0  0  0
   -9.0900   18.2300  -31.1270 F   0  0  0  0  0  0  0  0  0  0  0  0
   -9.9600   18.9210  -33.1130 F   0  0  0  0  0  0  0  0  0  0  0  0
   -7.8150   18.2290  -32.9830 F   0  0  0  0  0  0  0  0  0  0  0  0
   -7.0790   20.5460  -31.7690 C   0  0  0  0  0  0  0  0  0  0  0  0
   -6.6770   21.8400  -31.4400 C   0  0  0  0  0  0  0  0  0  0  0  0
   -0.5686   22.5836  -25.6548 H   0  0  0  0  0  0  0  0  0  0  0  0
   -1.4632   21.4364  -26.7085 H   0  0  0  0  0  0  0  0  0  0  0  0
    0.3331   21.4419  -26.7085 H   0  0  0  0  0  0  0  0  0  0  0  0
    0.0043   24.5581  -26.3785 H   0  0  0  0  0  0  0  0  0  0  0  0
    0.4578   24.8055  -28.1163 H   0  0  0  0  0  0  0  0  0  0  0  0
   -1.4945   26.1865  -27.0032 H   0  0  0  0  0  0  0  0  0  0  0  0
   -1.7900   24.8740  -29.5730 H   0  0  0  0  0  0  0  0  0  0  0  0
   -2.4917   23.7233  -26.5504 H   0  0  0  0  0  0  0  0  0  0  0  0
   -3.5049   25.2109  -26.8391 H   0  0  0  0  0  0  0  0  0  0  0  0
   -2.8290   23.8790  -29.1770 H   0  0  0  0  0  0  0  0  0  0  0  0
   -0.1286   20.6597  -29.4469 H   0  0  0  0  0  0  0  0  0  0  0  0
   -1.6420   20.7358  -28.5008 H   0  0  0  0  0  0  0  0  0  0  0  0
   -1.2046   21.3510  -31.4347 H   0  0  0  0  0  0  0  0  0  0  0  0
   -2.2636   20.0813  -30.6587 H   0  0  0  0  0  0  0  0  0  0  0  0
   -2.8570   22.9570  -30.2530 H   0  0  0  0  0  0  0  0  0  0  0  0
   -5.4630   26.4490  -29.4470 H   0  0  0  0  0  0  0  0  0  0  0  0
   -5.6250   26.6630  -31.2720 H   0  0  0  0  0  0  0  0  0  0  0  0
   -7.5849   24.9132  -30.8585 H   0  0  0  0  0  0  0  0  0  0  0  0
   -9.7672   23.2902  -31.4550 H   0  0  0  0  0  0  0  0  0  0  0  0
  -10.4518   20.9668  -32.0357 H   0  0  0  0  0  0  0  0  0  0  0  0
   -6.3281   19.7480  -31.8654 H   0  0  0  0  0  0  0  0  0  0  0  0
  1  2  1  0
  2  3  1  0
  3  4  1  0
  4  5  1  0
  4  6  1  0
  6  7  1  0
  2  8  1  0
  8  9  2  0
  8 10  1  0
 10 11  1  0
 11 12  1  0
 12 13  1  0
 13 14  2  0
 13 15  1  0
 15 16  1  0
 16 17  1  0
 17 18  1  0
 17 19  2  0
 16 20  2  0
 20 21  1  0
 21 22  2  0
 22 23  1  0
 23 24  2  0
 24 25  1  0
 25 26  1  0
 25 27  1  0
 25 28  1  0
 24 29  1  0
 29 30  2  0
 30 15  1  0
 30 21  1  0
  1 31  1  0
  1 32  1  0
  1 33  1  0
  3 34  1  0
  3 35  1  0
  4 36  1  1
  5 37  1  0
  6 38  1  0
  6 39  1  0
  7 40  1  0
 10 41  1  0
 10 42  1  0
 11 43  1  0
 11 44  1  0
 12 45  1  0
 18 46  1  0
 18 47  1  0
 20 48  1  0
 22 49  1  0
 23 50  1  0
 29 51  1  0
M  END
>  <smiles>  (23) 
CN(CC(O)CO)C(=O)CCNC(=O)n1c(C(N)=O)cc2ccc(C(F)(F)F)cc21

>  <score_type>  (23) 
oracle

>  <origin>  (23) 
adg

>  <m_score__min__energy>  (23) 
-8.6400000000000006

>  <m_primary>  (23) 
energy

$$$$
23:0
     RDKit          3D

 43 44  0  0  0  0  0  0  0  0999 V2000
   -2.1810   20.3340  -31.0740 C   0  0  0  0  0  0  0  0  0  0  0  0
   -2.9910   21.3140  -30.4120 N   0  0  0  0  0  0  0  0  0  0  0  0
   -3.0950   21.0830  -28.9350 C   0  0  0  0  0  0  0  0  0  0  0  0
   -2.0260   21.8350  -28.1990 C   0  0  0  0  0  0  0  0  0  0  0  0
   -2.4050   23.2910  -27.9880 C   0  0  0  0  0  0  0  0  0  0  0  0
   -1.4880   24.2060  -28.7850 C   0  0  0  0  0  0  0  0  0  0  0  0
   -2.2890   25.2240  -29.3330 O   0  0  0  0  0  0  0  0  0  0  0  0
   -3.6840   22.4160  -30.8990 C   0  0  0  0  0  0  0  0  0  0  0  0
   -2.9000   23.4020  -31.2630 O   0  0  0  0  0  0  0  0  0  0  0  0
   -5.0490   22.6840  -31.0920 N   0  0  0  0  0  0  0  0  0  0  0  0
   -5.8530   23.6760  -30.7030 C   0  0  0  0  0  0  0  0  0  0  0  0
   -5.5390   25.0330  -30.2660 C   0  0  0  0  0  0  0  0  0  0  0  0
   -6.2170   25.7330  -29.2450 N   0  0  0  0  0  0  0  0  0  0  0  0
   -4.5750   25.6640  -30.8210 O   0  0  0  0  0  0  0  0  0  0  0  0
   -7.2020   23.3530  -30.9470 C   0  0  0  0  0  0  0  0  0  0  0  0
   -7.1970   22.1210  -31.5120 C   0  0  0  0  0  0  0  0  0  0  0  0
   -8.2710   21.3530  -31.9420 C   0  0  0  0  0  0  0  0  0  0  0  0
   -8.0490   20.1130  -32.4940 C   0  0  0  0  0  0  0  0  0  0  0  0
   -6.7550   19.6830  -32.5960 C   0  0  0  0  0  0  0  0  0  0  0  0
   -6.5120   18.3390  -33.1930 C   0  0  0  0  0  0  0  0  0  0  0  0
   -7.6320   17.5470  -33.0600 F   0  0  0  0  0  0  0  0  0  0  0  0
   -5.4520   17.7140  -32.5290 F   0  0  0  0  0  0  0  0  0  0  0  0
   -6.1470   18.5120  -34.5060 F   0  0  0  0  0  0  0  0  0  0  0  0
   -5.6850   20.4660  -32.1590 C   0  0  0  0  0  0  0  0  0  0  0  0
   -5.8950   21.7230  -31.5990 C   0  0  0  0  0  0  0  0  0  0  0  0
   -1.6687   19.7141  -30.3235 H   0  0  0  0  0  0  0  0  0  0  0  0
   -2.8187   19.6957  -31.7033 H   0  0  0  0  0  0  0  0  0  0  0  0
   -1.4341   20.8401  -31.7033 H   0  0  0  0  0  0  0  0  0  0  0  0
   -4.0807   21.4240  -28.5857 H   0  0  0  0  0  0  0  0  0  0  0  0
   -2.9681   20.0083  -28.7376 H   0  0  0  0  0  0  0  0  0  0  0  0
   -1.8687   21.3621  -27.2183 H   0  0  0  0  0  0  0  0  0  0  0  0
   -1.1078   21.8045  -28.8040 H   0  0  0  0  0  0  0  0  0  0  0  0
   -3.4434   23.4451  -28.3166 H   0  0  0  0  0  0  0  0  0  0  0  0
   -2.3032   23.5317  -26.9195 H   0  0  0  0  0  0  0  0  0  0  0  0
   -0.7242   24.6421  -28.1244 H   0  0  0  0  0  0  0  0  0  0  0  0
   -0.9718   23.6459  -29.5786 H   0  0  0  0  0  0  0  0  0  0  0  0
   -2.6740   24.8880  -30.1670 H   0  0  0  0  0  0  0  0  0  0  0  0
   -6.5730   25.1740  -28.4370 H   0  0  0  0  0  0  0  0  0  0  0  0
   -6.3590   26.7670  -29.2900 H   0  0  0  0  0  0  0  0  0  0  0  0
   -8.0816   23.9748  -30.7241 H   0  0  0  0  0  0  0  0  0  0  0  0
   -9.2974   21.7356  -31.8413 H   0  0  0  0  0  0  0  0  0  0  0  0
   -8.8846   19.4879  -32.8419 H   0  0  0  0  0  0  0  0  0  0  0  0
   -4.6586   20.0832  -32.2589 H   0  0  0  0  0  0  0  0  0  0  0  0
  1  2  1  0
  2  3  1  0
  3  4  1  0
  4  5  1  0
  5  6  1  0
  6  7  1  0
  2  8  1  0
  8  9  2  0
  8 10  1  0
 10 11  1  0
 11 12  1  0
 12 13  1  0
 12 14  2  0
 11 15  2  0
 15 16  1  0
 16 17  2  0
 17 18  1  0
 18 19  2  0
 19 20  1  0
 20 21  1  0
 20 22  1  0
 20 23  1  0
 19 24  1  0
 24 25  2  0
 25 10  1  0
 25 16  1  0
  1 26  1  0
  1 27  1  0
  1 28  1  0
  3 29  1  0
  3 30  1  0
  4 31  1  0
  4 32  1  0
  5 33  1  0
  5 34  1  0
  6 35  1  0
  6 36  1  0
  7 37  1  0
 13 38  1  0
 13 39  1  0
 15 40  1  0
 17 41  1  0
 18 42  1  0
 24 43  1  0
M  END
>  <smiles>  (24) 
CN(CCCCO)C(=O)n1c(C(N)=O)cc2ccc(C(F)(F)F)cc21

>  <score_type>  (24) 
oracle

>  <origin>  (24) 
adg

>  <m_score__min__energy>  (24) 
-8.7599999999999998

>  <m_primary>  (24) 
energy

$$$$
24:0
     RDKit          3D

 46 47  0  0  0  0  0  0  0  0999 V2000
   -6.1350   17.1350  -32.4320 C   0  0  0  0  0  0  0  0  0  0  0  0
   -5.5100   17.7400  -33.6540 C   0  0  0  0  0  0  0  0  0  0  0  0
   -6.3110   18.8460  -34.1380 N   0  0  0  0  0  0  0  0  0  0  0  0
   -6.7740   19.9020  -33.3050 C   0  0  0  0  0  0  0  0  0  0  0  0
   -8.1260   20.0430  -33.0940 C   0  0  0  0  0  0  0  0  0  0  0  0
   -8.5440   21.0740  -32.2910 C   0  0  0  0  0  0  0  0  0  0  0  0
   -7.6410   21.9410  -31.7130 C   0  0  0  0  0  0  0  0  0  0  0  0
   -7.8480   23.0010  -30.9040 C   0  0  0  0  0  0  0  0  0  0  0  0
   -6.5880   23.5530  -30.5900 C   0  0  0  0  0  0  0  0  0  0  0  0
   -6.4930   24.7120  -29.7390 C   0  0  0  0  0  0  0  0  0  0  0  0
   -5.3300   24.8350  -28.8670 N   0  0  0  0  0  0  0  0  0  0  0  0
   -7.2800   25.6670  -29.6290 O   0  0  0  0  0  0  0  0  0  0  0  0
   -5.6300   22.8200  -31.2090 N   0  0  0  0  0  0  0  0  0  0  0  0
   -4.2410   22.8920  -31.1710 C   0  0  0  0  0  0  0  0  0  0  0  0
   -3.7190   24.0790  -31.1720 O   0  0  0  0  0  0  0  0  0  0  0  0
   -3.2180   21.8380  -31.1350 C   0  0  0  0  0  0  0  0  0  0  0  0
   -2.0750   22.1910  -30.2520 C   0  0  0  0  0  0  0  0  0  0  0  0
   -1.0300   22.6330  -30.7720 O   0  0  0  0  0  0  0  0  0  0  0  0
   -2.1070   22.0510  -28.8400 N   0  0  0  0  0  0  0  0  0  0  0  0
   -2.4870   20.7270  -28.3340 C   0  0  0  0  0  0  0  0  0  0  0  0
   -1.7950   23.1160  -27.9130 C   0  0  0  0  0  0  0  0  0  0  0  0
   -2.5420   24.3600  -28.1480 C   0  0  0  0  0  0  0  0  0  0  0  0
   -3.3710   24.8650  -27.3500 O   0  0  0  0  0  0  0  0  0  0  0  0
   -2.3240   25.0360  -29.3360 O   0  0  0  0  0  0  0  0  0  0  0  0
   -6.2940   21.8310  -31.9000 C   0  0  0  0  0  0  0  0  0  0  0  0
   -5.8750   20.7860  -32.7150 C   0  0  0  0  0  0  0  0  0  0  0  0
   -5.6807   17.5748  -31.5319 H   0  0  0  0  0  0  0  0  0  0  0  0
   -7.2160   17.3386  -32.4340 H   0  0  0  0  0  0  0  0  0  0  0  0
   -5.9666   16.0480  -32.4340 H   0  0  0  0  0  0  0  0  0  0  0  0
   -4.5031   18.1047  -33.4029 H   0  0  0  0  0  0  0  0  0  0  0  0
   -5.4500   16.9730  -34.4402 H   0  0  0  0  0  0  0  0  0  0  0  0
   -6.5610   18.8600  -35.1670 H   0  0  0  0  0  0  0  0  0  0  0  0
   -8.8480   19.3521  -33.5538 H   0  0  0  0  0  0  0  0  0  0  0  0
   -9.6194   21.2114  -32.1049 H   0  0  0  0  0  0  0  0  0  0  0  0
   -8.8234   23.3686  -30.5526 H   0  0  0  0  0  0  0  0  0  0  0  0
   -4.5060   25.4020  -29.1560 H   0  0  0  0  0  0  0  0  0  0  0  0
   -5.4150   24.3190  -27.9680 H   0  0  0  0  0  0  0  0  0  0  0  0
   -3.6785   20.9106  -30.7638 H   0  0  0  0  0  0  0  0  0  0  0  0
   -2.8283   21.7123  -32.1559 H   0  0  0  0  0  0  0  0  0  0  0  0
   -2.4833   20.7399  -27.2341 H   0  0  0  0  0  0  0  0  0  0  0  0
   -3.4946   20.4721  -28.6943 H   0  0  0  0  0  0  0  0  0  0  0  0
   -1.7680   19.9765  -28.6943 H   0  0  0  0  0  0  0  0  0  0  0  0
   -2.0219   22.7648  -26.8956 H   0  0  0  0  0  0  0  0  0  0  0  0
   -0.7308   23.3557  -28.0548 H   0  0  0  0  0  0  0  0  0  0  0  0
   -1.9070   24.5650  -30.1110 H   0  0  0  0  0  0  0  0  0  0  0  0
   -4.7988   20.6533  -32.8997 H   0  0  0  0  0  0  0  0  0  0  0  0
  1  2  1  0
  2  3  1  0
  3  4  1  0
  4  5  2  0
  5  6  1  0
  6  7  2  0
  7  8  1  0
  8  9  2  0
  9 10  1  0
 10 11  1  0
 10 12  2  0
  9 13  1  0
 13 14  1  0
 14 15  2  0
 14 16  1  0
 16 17  1  0
 17 18  2  0
 17 19  1  0
 19 20  1  0
 19 21  1  0
 21 22  1  0
 22 23  2  0
 22 24  1  0
 13 25  1  0
 25 26  2  0
 26  4  1  0
 25  7  1  0
  1 27  1  0
  1 28  1  0
  1 29  1  0
  2 30  1  0
  2 31  1  0
  3 32  1  0
  5 33  1  0
  6 34  1  0
  8 35  1  0
 11 36  1  0
 11 37  1  0
 16 38  1  0
 16 39  1  0
 20 40  1  0
 20 41  1  0
 20 42  1  0
 21 43  1  0
 21 44  1  0
 24 45  1  0
 26 46  1  0
M  END
>  <smiles>  (25) 
CCNc1ccc2cc(C(N)=O)n(C(=O)CC(=O)N(C)CC(=O)O)c2c1

>  <score_type>  (25) 
oracle

>  <origin>  (25) 
adg

>  <m_score__min__energy>  (25) 
-9.2799999999999994

>  <m_primary>  (25) 
energy

$$$$
25:0
     RDKit          3D

 44 45  0  0  0  0  0  0  0  0999 V2000
   -7.1130   17.0620  -33.1450 C   0  0  0  0  0  0  0  0  0  0  0  0
   -6.4840   18.2960  -33.7530 N   0  0  0  0  0  0  0  0  0  0  0  0
   -5.7800   18.0090  -34.9380 C   0  0  0  0  0  0  0  0  0  0  0  0
   -4.3620   17.6070  -34.9710 C   0  0  0  0  0  0  0  0  0  0  0  0
   -3.4920   18.4120  -34.2730 F   0  0  0  0  0  0  0  0  0  0  0  0
   -6.7140   19.4710  -33.0380 C   0  0  0  0  0  0  0  0  0  0  0  0
   -7.9370   19.9820  -32.6700 C   0  0  0  0  0  0  0  0  0  0  0  0
   -8.0950   21.1790  -31.9820 C   0  0  0  0  0  0  0  0  0  0  0  0
   -6.9760   21.8910  -31.6480 C   0  0  0  0  0  0  0  0  0  0  0  0
   -6.8580   23.0830  -30.9830 C   0  0  0  0  0  0  0  0  0  0  0  0
   -5.4860   23.3690  -30.9070 C   0  0  0  0  0  0  0  0  0  0  0  0
   -5.0160   24.5620  -30.2370 C   0  0  0  0  0  0  0  0  0  0  0  0
   -5.1170   24.8670  -28.8700 N   0  0  0  0  0  0  0  0  0  0  0  0
   -4.4480   25.4460  -30.9550 O   0  0  0  0  0  0  0  0  0  0  0  0
   -4.8220   22.3740  -31.5150 N   0  0  0  0  0  0  0  0  0  0  0  0
   -3.4380   22.2580  -31.7610 C   0  0  0  0  0  0  0  0  0  0  0  0
   -2.9900   21.5180  -32.6880 O   0  0  0  0  0  0  0  0  0  0  0  0
   -2.4360   22.9220  -31.0480 O   0  0  0  0  0  0  0  0  0  0  0  0
   -1.8200   22.2470  -29.9440 C   0  0  0  0  0  0  0  0  0  0  0  0
   -0.8500   23.1150  -29.4330 O   0  0  0  0  0  0  0  0  0  0  0  0
   -1.1840   23.4710  -28.1140 C   0  0  0  0  0  0  0  0  0  0  0  0
   -2.0600   24.6620  -28.1730 C   0  0  0  0  0  0  0  0  0  0  0  0
   -2.4770   25.1310  -27.0920 O   0  0  0  0  0  0  0  0  0  0  0  0
   -2.4430   25.2870  -29.3470 O   0  0  0  0  0  0  0  0  0  0  0  0
   -5.7220   21.4450  -31.9810 C   0  0  0  0  0  0  0  0  0  0  0  0
   -5.6180   20.2660  -32.6570 C   0  0  0  0  0  0  0  0  0  0  0  0
   -7.0762   17.1343  -32.0480 H   0  0  0  0  0  0  0  0  0  0  0  0
   -8.1603   16.9851  -33.4724 H   0  0  0  0  0  0  0  0  0  0  0  0
   -6.5599   16.1693  -33.4724 H   0  0  0  0  0  0  0  0  0  0  0  0
   -6.3340   17.1931  -35.4253 H   0  0  0  0  0  0  0  0  0  0  0  0
   -5.7286   19.0056  -35.4007 H   0  0  0  0  0  0  0  0  0  0  0  0
   -4.2899   16.5918  -34.5538 H   0  0  0  0  0  0  0  0  0  0  0  0
   -4.0561   17.6824  -36.0249 H   0  0  0  0  0  0  0  0  0  0  0  0
   -8.8396   19.4117  -32.9349 H   0  0  0  0  0  0  0  0  0  0  0  0
   -9.0966   21.5453  -31.7123 H   0  0  0  0  0  0  0  0  0  0  0  0
   -7.6796   23.6971  -30.5855 H   0  0  0  0  0  0  0  0  0  0  0  0
   -6.1020   25.0010  -28.4920 H   0  0  0  0  0  0  0  0  0  0  0  0
   -4.3300   24.9820  -28.2060 H   0  0  0  0  0  0  0  0  0  0  0  0
   -2.5701   22.0200  -29.1721 H   0  0  0  0  0  0  0  0  0  0  0  0
   -1.3705   21.2951  -30.2631 H   0  0  0  0  0  0  0  0  0  0  0  0
   -1.7147   22.6404  -27.6256 H   0  0  0  0  0  0  0  0  0  0  0  0
   -0.2754   23.6917  -27.5346 H   0  0  0  0  0  0  0  0  0  0  0  0
   -2.5090   24.7180  -30.1920 H   0  0  0  0  0  0  0  0  0  0  0  0
   -4.6105   19.9130  -32.9221 H   0  0  0  0  0  0  0  0  0  0  0  0
  1  2  1  0
  2  3  1  0
  3  4  1  0
  4  5  1  0
  2  6  1  0
  6  7  2  0
  7  8  1  0
  8  9  2  0
  9 10  1  0
 10 11  2  0
 11 12  1  0
 12 13  1  0
 12 14  2  0
 11 15  1  0
 15 16  1  0
 16 17  2  0
 16 18  1  0
 18 19  1  0
 19 20  1  0
 20 21  1  0
 21 22  1  0
 22 23  2  0
 22 24  1  0
 15 25  1  0
 25 26  2  0
 26  6  1  0
 25  9  1  0
  1 27  1  0
  1 28  1  0
  1 29  1  0
  3 30  1  0
  3 31  1  0
  4 32  1  0
  4 33  1  0
  7 34  1  0
  8 35  1  0
 10 36  1  0
 13 37  1  0
 13 38  1  0
 19 39  1  0
 19 40  1  0
 21 41  1  0
 21 42  1  0
 24 43  1  0
 26 44  1  0
M  END
>  <smiles>  (26) 
CN(CCF)c1ccc2cc(C(N)=O)n(C(=O)OCOCC(=O)O)c2c1

>  <score_type>  (26) 
oracle

>  <origin>  (26) 
adg

>  <m_score__min__energy>  (26) 
-7.5300000000000002

>  <m_primary>  (26) 
energy

$$$$
26:0
     RDKit          3D

 48 49  0  0  0  0  0  0  0  0999 V2000
   -4.0120   24.1460  -28.0490 C   0  0  0  0  0  0  0  0  0  0  0  0
   -2.8850   23.9080  -28.9190 N   0  0  0  0  0  0  0  0  0  0  0  0
   -1.5510   23.7590  -28.3590 C   0  0  0  0  0  0  0  0  0  0  0  0
   -0.8640   25.1100  -28.2530 C   0  0  0  0  0  0  0  0  0  0  0  0
   -1.6060   26.0460  -28.9690 O   0  0  0  0  0  0  0  0  0  0  0  0
   -3.1480   23.8310  -30.3170 C   0  0  0  0  0  0  0  0  0  0  0  0
   -3.7630   24.8020  -30.8270 O   0  0  0  0  0  0  0  0  0  0  0  0
   -2.7110   22.6450  -31.1370 C   0  0  0  0  0  0  0  0  0  0  0  0
   -3.9850   21.9050  -31.5420 C   0  0  0  0  0  0  0  0  0  0  0  0
   -4.0300   21.6400  -33.0090 C   0  0  0  0  0  0  0  0  0  0  0  0
   -4.3130   20.2540  -33.3610 C   0  0  0  0  0  0  0  0  0  0  0  0
   -3.2860   19.6450  -33.8590 O   0  0  0  0  0  0  0  0  0  0  0  0
   -5.4950   19.5060  -33.2530 N   0  0  0  0  0  0  0  0  0  0  0  0
   -5.7340   18.1890  -33.4430 C   0  0  0  0  0  0  0  0  0  0  0  0
   -4.9190   17.1310  -33.9820 C   0  0  0  0  0  0  0  0  0  0  0  0
   -4.2280   17.3930  -35.2320 N   0  0  0  0  0  0  0  0  0  0  0  0
   -4.7100   15.9970  -33.5330 O   0  0  0  0  0  0  0  0  0  0  0  0
   -7.0810   17.9370  -33.1010 C   0  0  0  0  0  0  0  0  0  0  0  0
   -7.6490   19.1130  -32.7060 C   0  0  0  0  0  0  0  0  0  0  0  0
   -8.9180   19.3840  -32.2850 C   0  0  0  0  0  0  0  0  0  0  0  0
   -9.2960   20.6560  -31.9260 C   0  0  0  0  0  0  0  0  0  0  0  0
   -8.3390   21.6410  -32.0100 C   0  0  0  0  0  0  0  0  0  0  0  0
   -8.7200   23.0270  -31.6300 C   0  0  0  0  0  0  0  0  0  0  0  0
   -7.5910   23.8370  -31.6460 F   0  0  0  0  0  0  0  0  0  0  0  0
   -9.7060   23.5050  -32.4510 F   0  0  0  0  0  0  0  0  0  0  0  0
   -7.0410   21.3530  -32.4440 C   0  0  0  0  0  0  0  0  0  0  0  0
   -6.6650   20.0650  -32.8050 C   0  0  0  0  0  0  0  0  0  0  0  0
   -3.6867   24.0773  -27.0004 H   0  0  0  0  0  0  0  0  0  0  0  0
   -4.4185   25.1498  -28.2418 H   0  0  0  0  0  0  0  0  0  0  0  0
   -4.7896   23.3923  -28.2418 H   0  0  0  0  0  0  0  0  0  0  0  0
   -1.6271   23.3120  -27.3568 H   0  0  0  0  0  0  0  0  0  0  0  0
   -0.9583   23.1096  -29.0201 H   0  0  0  0  0  0  0  0  0  0  0  0
   -0.8053   25.4135  -27.1973 H   0  0  0  0  0  0  0  0  0  0  0  0
    0.1544   25.0457  -28.6638 H   0  0  0  0  0  0  0  0  0  0  0  0
   -2.0240   25.6790  -29.7850 H   0  0  0  0  0  0  0  0  0  0  0  0
   -2.1662   22.9813  -32.0314 H   0  0  0  0  0  0  0  0  0  0  0  0
   -2.0365   21.9918  -30.5640 H   0  0  0  0  0  0  0  0  0  0  0  0
   -4.0250   20.9455  -31.0056 H   0  0  0  0  0  0  0  0  0  0  0  0
   -4.8455   22.5394  -31.2830 H   0  0  0  0  0  0  0  0  0  0  0  0
   -4.8136   22.2740  -33.4495 H   0  0  0  0  0  0  0  0  0  0  0  0
   -3.0269   21.8652  -33.4002 H   0  0  0  0  0  0  0  0  0  0  0  0
   -3.5210   18.1550  -35.2940 H   0  0  0  0  0  0  0  0  0  0  0  0
   -4.4860   16.7800  -36.0390 H   0  0  0  0  0  0  0  0  0  0  0  0
   -7.5854   16.9605  -33.1455 H   0  0  0  0  0  0  0  0  0  0  0  0
   -9.6538   18.5680  -32.2317 H   0  0  0  0  0  0  0  0  0  0  0  0
  -10.3187   20.8767  -31.5865 H   0  0  0  0  0  0  0  0  0  0  0  0
   -9.1305   23.0272  -30.6095 H   0  0  0  0  0  0  0  0  0  0  0  0
   -6.3008   22.1647  -32.5009 H   0  0  0  0  0  0  0  0  0  0  0  0
  1  2  1  0
  2  3  1  0
  3  4  1  0
  4  5  1  0
  2  6  1  0
  6  7  2  0
  6  8  1  0
  8  9  1  0
  9 10  1  0
 10 11  1  0
 11 12  2  0
 11 13  1  0
 13 14  1  0
 14 15  1  0
 15 16  1  0
 15 17  2  0
 14 18  2  0
 18 19  1  0
 19 20  2  0
 20 21  1  0
 21 22  2  0
 22 23  1  0
 23 24  1  0
 23 25  1  0
 22 26  1  0
 26 27  2  0
 27 13  1  0
 27 19  1  0
  1 28  1  0
  1 29  1  0
  1 30  1  0
  3 31  1  0
  3 32  1  0
  4 33  1  0
  4 34  1  0
  5 35  1  0
  8 36  1  0
  8 37  1  0
  9 38  1  0
  9 39  1  0
 10 40  1  0
 10 41  1  0
 16 42  1  0
 16 43  1  0
 18 44  1  0
 20 45  1  0
 21 46  1  0
 23 47  1  0
 26 48  1  0
M  END
>  <smiles>  (27) 
CN(CCO)C(=O)CCCC(=O)n1c(C(N)=O)cc2ccc(C(F)F)cc21

>  <score_type>  (27) 
oracle

>  <origin>  (27) 
adg

>  <m_score__min__energy>  (27) 
-8.4000000000000004

>  <m_primary>  (27) 
energy

$$$$
27:0
     RDKit          3D

 45 46  0  0  0  0  0  0  0  0999 V2000
   -2.5340   20.6280  -31.5160 C   0  0  0  0  0  0  0  0  0  0  0  0
   -3.2020   21.8930  -31.3600 N   0  0  0  0  0  0  0  0  0  0  0  0
   -2.5160   22.7820  -30.3740 C   0  0  0  0  0  0  0  0  0  0  0  0
   -2.9410   22.4540  -28.9760 C   0  0  0  0  0  0  0  0  0  0  0  0
   -3.4920   23.6740  -28.2870 C   0  0  0  0  0  0  0  0  0  0  0  0
   -4.2650   23.6130  -27.3200 O   0  0  0  0  0  0  0  0  0  0  0  0
   -3.1140   24.9130  -28.7610 O   0  0  0  0  0  0  0  0  0  0  0  0
   -4.3370   22.4110  -31.9570 C   0  0  0  0  0  0  0  0  0  0  0  0
   -4.1770   22.6350  -33.2450 O   0  0  0  0  0  0  0  0  0  0  0  0
   -5.6140   22.7580  -31.4930 N   0  0  0  0  0  0  0  0  0  0  0  0
   -6.1290   23.8760  -30.9740 C   0  0  0  0  0  0  0  0  0  0  0  0
   -5.4690   25.0230  -30.3520 C   0  0  0  0  0  0  0  0  0  0  0  0
   -5.9210   25.4870  -29.0610 N   0  0  0  0  0  0  0  0  0  0  0  0
   -4.5190   25.6630  -30.8460 O   0  0  0  0  0  0  0  0  0  0  0  0
   -7.5290   23.7920  -30.8900 C   0  0  0  0  0  0  0  0  0  0  0  0
   -7.8670   22.5700  -31.3730 C   0  0  0  0  0  0  0  0  0  0  0  0
   -9.1200   22.0000  -31.5040 C   0  0  0  0  0  0  0  0  0  0  0  0
   -9.2340   20.7360  -32.0260 C   0  0  0  0  0  0  0  0  0  0  0  0
   -8.0960   20.0610  -32.4090 C   0  0  0  0  0  0  0  0  0  0  0  0
   -8.1860   18.7590  -32.9690 N   0  0  0  0  0  0  0  0  0  0  0  0
   -7.1870   17.7490  -32.9070 C   0  0  0  0  0  0  0  0  0  0  0  0
   -6.1030   17.8430  -33.9410 C   0  0  0  0  0  0  0  0  0  0  0  0
   -6.1340   19.0890  -34.5980 O   0  0  0  0  0  0  0  0  0  0  0  0
   -6.8450   20.6680  -32.2620 C   0  0  0  0  0  0  0  0  0  0  0  0
   -6.7030   21.9420  -31.7370 C   0  0  0  0  0  0  0  0  0  0  0  0
   -2.3113   20.2063  -30.5248 H   0  0  0  0  0  0  0  0  0  0  0  0
   -3.1843   19.9360  -32.0712 H   0  0  0  0  0  0  0  0  0  0  0  0
   -1.5958   20.7748  -32.0712 H   0  0  0  0  0  0  0  0  0  0  0  0
   -1.4280   22.6455  -30.4615 H   0  0  0  0  0  0  0  0  0  0  0  0
   -2.7899   23.8252  -30.5900 H   0  0  0  0  0  0  0  0  0  0  0  0
   -3.7177   21.6757  -29.0080 H   0  0  0  0  0  0  0  0  0  0  0  0
   -2.0651   22.0964  -28.4149 H   0  0  0  0  0  0  0  0  0  0  0  0
   -3.7800   25.6630  -28.8030 H   0  0  0  0  0  0  0  0  0  0  0  0
   -5.8310   24.7720  -28.2820 H   0  0  0  0  0  0  0  0  0  0  0  0
   -6.3000   26.4360  -28.9160 H   0  0  0  0  0  0  0  0  0  0  0  0
   -8.2144   24.5632  -30.5087 H   0  0  0  0  0  0  0  0  0  0  0  0
  -10.0173   22.5548  -31.1926 H   0  0  0  0  0  0  0  0  0  0  0  0
  -10.2229   20.2672  -32.1373 H   0  0  0  0  0  0  0  0  0  0  0  0
   -9.0840   18.5050  -33.4890 H   0  0  0  0  0  0  0  0  0  0  0  0
   -6.7139   17.8017  -31.9153 H   0  0  0  0  0  0  0  0  0  0  0  0
   -7.7071   16.7997  -33.1025 H   0  0  0  0  0  0  0  0  0  0  0  0
   -5.1265   17.7204  -33.4497 H   0  0  0  0  0  0  0  0  0  0  0  0
   -6.2631   17.0509  -34.6873 H   0  0  0  0  0  0  0  0  0  0  0  0
   -7.0790   19.2020  -34.9130 H   0  0  0  0  0  0  0  0  0  0  0  0
   -5.9454   20.1166  -32.5730 H   0  0  0  0  0  0  0  0  0  0  0  0
  1  2  1  0
  2  3  1  0
  3  4  1  0
  4  5  1  0
  5  6  2  0
  5  7  1  0
  2  8  1  0
  8  9  2  0
  8 10  1  0
 10 11  1  0
 11 12  1  0
 12 13  1  0
 12 14  2  0
 11 15  2  0
 15 16  1  0
 16 17  2  0
 17 18  1  0
 18 19  2  0
 19 20  1  0
 20 21  1  0
 21 22  1  0
 22 23  1  0
 19 24  1  0
 24 25  2  0
 25 10  1  0
 25 16  1  0
  1 26  1  0
  1 27  1  0
  1 28  1  0
  3 29  1  0
  3 30  1  0
  4 31  1  0
  4 32  1  0
  7 33  1  0
 13 34  1  0
 13 35  1  0
 15 36  1  0
 17 37  1  0
 18 38  1  0
 20 39  1  0
 21 40  1  0
 21 41  1  0
 22 42  1  0
 22 43  1  0
 23 44  1  0
 24 45  1  0
M  END
>  <smiles>  (28) 
CN(CCC(=O)O)C(=O)n1c(C(N)=O)cc2ccc(NCCO)cc21

>  <score_type>  (28) 
oracle

>  <origin>  (28) 
adg

>  <m_score__min__energy>  (28) 
-10.06

>  <m_primary>  (28) 
energy

$$$$
28:0
     RDKit          3D

 42 43  0  0  0  0  0  0  0  0999 V2000
   -8.4260   18.3120  -31.9700 C   0  0  0  0  0  0  0  0  0  0  0  0
   -7.0030   17.9700  -31.6170 C   0  0  0  0  0  0  0  0  0  0  0  0
   -6.1750   17.8060  -32.7310 O   0  0  0  0  0  0  0  0  0  0  0  0
   -5.9170   18.8280  -33.6110 C   0  0  0  0  0  0  0  0  0  0  0  0
   -6.8040   19.6560  -33.9700 O   0  0  0  0  0  0  0  0  0  0  0  0
   -4.5620   19.0150  -34.1970 C   0  0  0  0  0  0  0  0  0  0  0  0
   -3.6950   19.8320  -33.3080 C   0  0  0  0  0  0  0  0  0  0  0  0
   -2.3380   19.6100  -33.3620 C   0  0  0  0  0  0  0  0  0  0  0  0
   -1.5200   20.3580  -32.5440 C   0  0  0  0  0  0  0  0  0  0  0  0
   -2.0830   21.2980  -31.7040 C   0  0  0  0  0  0  0  0  0  0  0  0
   -1.4640   22.1380  -30.8230 C   0  0  0  0  0  0  0  0  0  0  0  0
   -2.4870   22.8730  -30.2370 C   0  0  0  0  0  0  0  0  0  0  0  0
   -2.1170   23.9620  -29.2990 C   0  0  0  0  0  0  0  0  0  0  0  0
   -3.1200   24.7780  -28.6870 N   0  0  0  0  0  0  0  0  0  0  0  0
   -0.8820   24.1620  -29.0640 O   0  0  0  0  0  0  0  0  0  0  0  0
   -3.6860   22.5370  -30.6920 N   0  0  0  0  0  0  0  0  0  0  0  0
   -4.9990   22.7870  -30.2830 C   0  0  0  0  0  0  0  0  0  0  0  0
   -5.1760   22.7430  -28.9900 O   0  0  0  0  0  0  0  0  0  0  0  0
   -6.1600   23.0890  -31.0000 N   0  0  0  0  0  0  0  0  0  0  0  0
   -7.6920   21.8010  -31.5340 I   0  0  0  0  0  0  0  0  0  0  0  0
   -6.3300   24.4930  -31.4280 C   0  0  0  0  0  0  0  0  0  0  0  0
   -5.5490   25.3490  -30.5080 C   0  0  0  0  0  0  0  0  0  0  0  0
   -5.9950   25.8320  -29.4410 O   0  0  0  0  0  0  0  0  0  0  0  0
   -4.2240   25.6460  -30.8440 O   0  0  0  0  0  0  0  0  0  0  0  0
   -3.4250   21.5480  -31.6210 C   0  0  0  0  0  0  0  0  0  0  0  0
   -4.2420   20.7910  -32.4470 C   0  0  0  0  0  0  0  0  0  0  0  0
   -9.0090   18.4521  -31.0478 H   0  0  0  0  0  0  0  0  0  0  0  0
   -8.4445   19.2402  -32.5601 H   0  0  0  0  0  0  0  0  0  0  0  0
   -8.8642   17.4936  -32.5601 H   0  0  0  0  0  0  0  0  0  0  0  0
   -6.5941   18.7806  -30.9959 H   0  0  0  0  0  0  0  0  0  0  0  0
   -7.0245   17.0069  -31.0860 H   0  0  0  0  0  0  0  0  0  0  0  0
   -4.0963   18.0293  -34.3438 H   0  0  0  0  0  0  0  0  0  0  0  0
   -4.6693   19.5426  -35.1562 H   0  0  0  0  0  0  0  0  0  0  0  0
   -1.9170   18.8542  -34.0413 H   0  0  0  0  0  0  0  0  0  0  0  0
   -0.4304   20.2080  -32.5599 H   0  0  0  0  0  0  0  0  0  0  0  0
   -0.3856   22.2160  -30.6205 H   0  0  0  0  0  0  0  0  0  0  0  0
   -2.8190   25.4640  -27.9790 H   0  0  0  0  0  0  0  0  0  0  0  0
   -4.1070   24.6310  -28.9920 H   0  0  0  0  0  0  0  0  0  0  0  0
   -5.9611   24.6169  -32.4569 H   0  0  0  0  0  0  0  0  0  0  0  0
   -7.3931   24.7744  -31.4021 H   0  0  0  0  0  0  0  0  0  0  0  0
   -3.8650   26.5890  -30.6970 H   0  0  0  0  0  0  0  0  0  0  0  0
   -5.3309   20.9455  -32.4256 H   0  0  0  0  0  0  0  0  0  0  0  0
  1  2  1  0
  2  3  1  0
  3  4  1  0
  4  5  2  0
  4  6  1  0
  6  7  1  0
  7  8  2  0
  8  9  1  0
  9 10  2  0
 10 11  1  0
 11 12  2  0
 12 13  1  0
 13 14  1  0
 13 15  2  0
 12 16  1  0
 16 17  1  0
 17 18  2  0
 17 19  1  0
 19 20  1  0
 19 21  1  0
 21 22  1  0
 22 23  2  0
 22 24  1  0
 16 25  1  0
 25 26  2  0
 26  7  1  0
 25 10  1  0
  1 27  1  0
  1 28  1  0
  1 29  1  0
  2 30  1  0
  2 31  1  0
  6 32  1  0
  6 33  1  0
  8 34  1  0
  9 35  1  0
 11 36  1  0
 14 37  1  0
 14 38  1  0
 21 39  1  0
 21 40  1  0
 24 41  1  0
 26 42  1  0
M  END
>  <smiles>  (29) 
CCOC(=O)Cc1ccc2cc(C(N)=O)n(C(=O)N(I)CC(=O)O)c2c1

>  <score_type>  (29) 
oracle

>  <origin>  (29) 
adg

>  <m_score__min__energy>  (29) 
-9.6199999999999992

>  <m_primary>  (29) 
energy

$$$$
29:0
     RDKit          3D

 44 45  0  0  1  0  0  0  0  0999 V2000
   -1.2320   21.6070  -26.2540 C   0  0  0  0  0  0  0  0  0  0  0  0
   -1.3890   21.3420  -27.7450 C   0  0  0  0  0  0  0  0  0  0  0  0
   -1.2580   22.5700  -28.5060 N   0  0  0  0  0  0  0  0  0  0  0  0
   -1.5210   22.6240  -29.9060 C   0  0  0  0  0  0  0  0  0  0  0  0
   -2.6270   22.1440  -30.4560 C   0  0  0  0  0  0  0  0  0  0  0  0
   -2.9160   22.1760  -31.7880 O   0  0  0  0  0  0  0  0  0  0  0  0
   -4.1540   22.1940  -32.3840 C   0  0  0  0  0  0  0  0  0  0  0  0
   -4.1410   21.9720  -33.6420 O   0  0  0  0  0  0  0  0  0  0  0  0
   -5.3870   22.4270  -31.7480 N   0  0  0  0  0  0  0  0  0  0  0  0
   -5.7790   23.5260  -31.0410 C   0  0  0  0  0  0  0  0  0  0  0  0
   -5.0990   24.7490  -30.7580 C   0  0  0  0  0  0  0  0  0  0  0  0
   -3.9060   24.9450  -30.0300 N   0  0  0  0  0  0  0  0  0  0  0  0
   -5.6140   25.8330  -31.2150 O   0  0  0  0  0  0  0  0  0  0  0  0
   -7.0740   23.2550  -30.6070 C   0  0  0  0  0  0  0  0  0  0  0  0
   -7.4730   22.0140  -31.0380 C   0  0  0  0  0  0  0  0  0  0  0  0
   -8.6420   21.3230  -30.8650 C   0  0  0  0  0  0  0  0  0  0  0  0
   -8.8100   20.0700  -31.4040 C   0  0  0  0  0  0  0  0  0  0  0  0
   -7.7550   19.5480  -32.1210 C   0  0  0  0  0  0  0  0  0  0  0  0
   -7.9400   18.1850  -32.7080 C   0  0  0  0  0  0  0  0  0  0  0  0
   -6.5660   20.2540  -32.2940 C   0  0  0  0  0  0  0  0  0  0  0  0
   -6.4040   21.5160  -31.7480 C   0  0  0  0  0  0  0  0  0  0  0  0
   -0.8390   23.7500  -27.7540 C   0  0  0  0  0  0  0  0  0  0  0  0
   -1.8850   24.7690  -27.8560 C   0  0  0  0  0  0  0  0  0  0  0  0
   -2.8330   24.9430  -27.0700 O   0  0  0  0  0  0  0  0  0  0  0  0
   -1.8210   25.6480  -28.9540 O   0  0  0  0  0  0  0  0  0  0  0  0
   -1.7119   20.7970  -25.6851 H   0  0  0  0  0  0  0  0  0  0  0  0
   -0.1626   21.6499  -25.9998 H   0  0  0  0  0  0  0  0  0  0  0  0
   -1.7081   22.5655  -25.9998 H   0  0  0  0  0  0  0  0  0  0  0  0
   -0.6124   20.6333  -28.0685 H   0  0  0  0  0  0  0  0  0  0  0  0
   -2.3903   20.9230  -27.9238 H   0  0  0  0  0  0  0  0  0  0  0  0
   -0.7690   23.0868  -30.5620 H   0  0  0  0  0  0  0  0  0  0  0  0
   -3.3689   21.6844  -29.7864 H   0  0  0  0  0  0  0  0  0  0  0  0
   -3.8850   25.2100  -29.0010 H   0  0  0  0  0  0  0  0  0  0  0  0
   -3.0020   24.8210  -30.5790 H   0  0  0  0  0  0  0  0  0  0  0  0
   -7.6901   23.9384  -30.0042 H   0  0  0  0  0  0  0  0  0  0  0  0
   -9.4593   21.7775  -30.2858 H   0  0  0  0  0  0  0  0  0  0  0  0
   -9.7459   19.5080  -31.2690 H   0  0  0  0  0  0  0  0  0  0  0  0
   -8.0401   17.4475  -31.8981 H   0  0  0  0  0  0  0  0  0  0  0  0
   -8.8480   18.1733  -33.3289 H   0  0  0  0  0  0  0  0  0  0  0  0
   -7.0680   17.9317  -33.3289 H   0  0  0  0  0  0  0  0  0  0  0  0
   -5.7458   19.8029  -32.8717 H   0  0  0  0  0  0  0  0  0  0  0  0
   -0.6864   23.4810  -26.6984 H   0  0  0  0  0  0  0  0  0  0  0  0
    0.1043   24.1397  -28.1642 H   0  0  0  0  0  0  0  0  0  0  0  0
   -2.3900   26.4910  -28.9720 H   0  0  0  0  0  0  0  0  0  0  0  0
  1  2  1  0
  2  3  1  0
  3  4  1  0
  4  5  2  0
  5  6  1  0
  6  7  1  0
  7  8  2  0
  7  9  1  0
  9 10  1  0
 10 11  1  0
 11 12  1  0
 11 13  2  0
 10 14  2  0
 14 15  1  0
 15 16  2  0
 16 17  1  0
 17 18  2  0
 18 19  1  0
 18 20  1  0
 20 21  2  0
  3 22  1  0
 22 23  1  0
 23 24  2  0
 23 25  1  0
 21  9  1  0
 21 15  1  0
  1 26  1  0
  1 27  1  0
  1 28  1  0
  2 29  1  0
  2 30  1  0
  4 31  1  0
  5 32  1  0
 12 33  1  0
 12 34  1  0
 14 35  1  0
 16 36  1  0
 17 37  1  0
 19 38  1  0
 19 39  1  0
 19 40  1  0
 20 41  1  0
 22 42  1  0
 22 43  1  0
 25 44  1  0
M  END
>  <smiles>  (30) 
CCN(C=COC(=O)n1c(C(N)=O)cc2ccc(C)cc21)CC(=O)O

>  <score_type>  (30) 
oracle

>  <origin>  (30) 
adg

>  <m_score__min__energy>  (30) 
-9.6600000000000001

>  <m_primary>  (30) 
energy

$$$$
30:0
     RDKit          3D

 50 51  0  0  0  0  0  0  0  0999 V2000
   -6.8710   16.9890  -33.6520 C   0  0  0  0  0  0  0  0  0  0  0  0
   -6.9660   18.0500  -33.0670 C   0  0  0  0  0  0  0  0  0  0  0  0
   -7.0700   19.3150  -32.3880 C   0  0  0  0  0  0  0  0  0  0  0  0
   -8.2840   19.6700  -31.8490 C   0  0  0  0  0  0  0  0  0  0  0  0
   -8.3800   20.8760  -31.2010 C   0  0  0  0  0  0  0  0  0  0  0  0
   -7.2630   21.6900  -31.1110 C   0  0  0  0  0  0  0  0  0  0  0  0
   -7.1420   22.9090  -30.5180 C   0  0  0  0  0  0  0  0  0  0  0  0
   -5.8190   23.2840  -30.7150 C   0  0  0  0  0  0  0  0  0  0  0  0
   -5.3980   24.6340  -30.2790 C   0  0  0  0  0  0  0  0  0  0  0  0
   -5.9020   25.2100  -29.0790 N   0  0  0  0  0  0  0  0  0  0  0  0
   -4.5860   25.3320  -30.9340 O   0  0  0  0  0  0  0  0  0  0  0  0
   -5.1180   22.3780  -31.3790 N   0  0  0  0  0  0  0  0  0  0  0  0
   -3.7660   22.1520  -31.6320 C   0  0  0  0  0  0  0  0  0  0  0  0
   -3.4560   22.3000  -32.9100 O   0  0  0  0  0  0  0  0  0  0  0  0
   -2.6620   21.7970  -30.8660 N   0  0  0  0  0  0  0  0  0  0  0  0
   -1.9710   20.5560  -30.6860 C   0  0  0  0  0  0  0  0  0  0  0  0
   -1.6870   19.9400  -32.0790 C   0  0  0  0  0  0  0  0  0  0  0  0
   -0.8300   20.8260  -32.8710 C   0  0  0  0  0  0  0  0  0  0  0  0
    0.2560   21.2670  -32.3930 O   0  0  0  0  0  0  0  0  0  0  0  0
   -1.2150   21.1790  -34.1550 O   0  0  0  0  0  0  0  0  0  0  0  0
   -2.0650   22.8850  -30.0790 C   0  0  0  0  0  0  0  0  0  0  0  0
   -0.8300   23.0760  -30.2220 O   0  0  0  0  0  0  0  0  0  0  0  0
   -2.8280   23.6540  -29.2280 O   0  0  0  0  0  0  0  0  0  0  0  0
   -3.0540   23.3270  -27.8850 C   0  0  0  0  0  0  0  0  0  0  0  0
   -4.2150   22.3500  -27.8600 C   0  0  0  0  0  0  0  0  0  0  0  0
   -3.5420   24.5390  -27.0910 C   0  0  0  0  0  0  0  0  0  0  0  0
   -1.8130   22.7990  -27.2380 C   0  0  0  0  0  0  0  0  0  0  0  0
   -6.0430   21.3740  -31.6320 C   0  0  0  0  0  0  0  0  0  0  0  0
   -5.9530   20.1530  -32.2850 C   0  0  0  0  0  0  0  0  0  0  0  0
   -6.7850   16.0287  -34.1815 H   0  0  0  0  0  0  0  0  0  0  0  0
   -9.1557   19.0047  -31.9349 H   0  0  0  0  0  0  0  0  0  0  0  0
   -9.3352   21.1932  -30.7572 H   0  0  0  0  0  0  0  0  0  0  0  0
   -7.9252   23.4766  -29.9941 H   0  0  0  0  0  0  0  0  0  0  0  0
   -5.4060   25.9490  -28.5700 H   0  0  0  0  0  0  0  0  0  0  0  0
   -6.8110   24.8810  -28.6860 H   0  0  0  0  0  0  0  0  0  0  0  0
   -1.0218   20.7337  -30.1592 H   0  0  0  0  0  0  0  0  0  0  0  0
   -2.5868   19.8668  -30.0895 H   0  0  0  0  0  0  0  0  0  0  0  0
   -1.1830   18.9708  -31.9495 H   0  0  0  0  0  0  0  0  0  0  0  0
   -2.6420   19.8053  -32.6080 H   0  0  0  0  0  0  0  0  0  0  0  0
   -2.0040   21.7860  -34.3470 H   0  0  0  0  0  0  0  0  0  0  0  0
   -4.4824   22.1249  -26.8170 H   0  0  0  0  0  0  0  0  0  0  0  0
   -5.0803   22.7956  -28.3724 H   0  0  0  0  0  0  0  0  0  0  0  0
   -3.9238   21.4212  -28.3724 H   0  0  0  0  0  0  0  0  0  0  0  0
   -3.4579   24.3300  -26.0143 H   0  0  0  0  0  0  0  0  0  0  0  0
   -2.9265   25.4149  -27.3437 H   0  0  0  0  0  0  0  0  0  0  0  0
   -4.5928   24.7440  -27.3437 H   0  0  0  0  0  0  0  0  0  0  0  0
   -1.9216   22.8452  -26.1443 H   0  0  0  0  0  0  0  0  0  0  0  0
   -1.6540   21.7553  -27.5469 H   0  0  0  0  0  0  0  0  0  0  0  0
   -0.9508   23.4082  -27.5469 H   0  0  0  0  0  0  0  0  0  0  0  0
   -4.9950   19.8404  -32.7260 H   0  0  0  0  0  0  0  0  0  0  0  0
  1  2  3  0
  2  3  1  0
  3  4  2  0
  4  5  1  0
  5  6  2  0
  6  7  1  0
  7  8  2  0
  8  9  1  0
  9 10  1  0
  9 11  2  0
  8 12  1  0
 12 13  1  0
 13 14  2  0
 13 15  1  0
 15 16  1  0
 16 17  1  0
 17 18  1  0
 18 19  2  0
 18 20  1  0
 15 21  1  0
 21 22  2  0
 21 23  1  0
 23 24  1  0
 24 25  1  0
 24 26  1  0
 24 27  1  0
 12 28  1  0
 28 29  2  0
 29  3  1  0
 28  6  1  0
  1 30  1  0
  4 31  1  0
  5 32  1  0
  7 33  1  0
 10 34  1  0
 10 35  1  0
 16 36  1  0
 16 37  1  0
 17 38  1  0
 17 39  1  0
 20 40  1  0
 25 41  1  0
 25 42  1  0
 25 43  1  0
 26 44  1  0
 26 45  1  0
 26 46  1  0
 27 47  1  0
 27 48  1  0
 27 49  1  0
 29 50  1  0
M  END
>  <smiles>  (31) 
C#Cc1ccc2cc(C(N)=O)n(C(=O)N(CCC(=O)O)C(=O)OC(C)(C)C)c2c1

>  <score_type>  (31) 
oracle

>  <origin>  (31) 
adg

>  <m_score__min__energy>  (31) 
-10.59

>  <m_primary>  (31) 
energy

$$$$
31:0
     RDKit          3D

 34 35  0  0  0  0  0  0  0  0999 V2000
   -2.7420   20.3290  -33.5370 C   0  0  0  0  0  0  0  0  0  0  0  0
   -3.2530   20.7270  -32.5030 C   0  0  0  0  0  0  0  0  0  0  0  0
   -3.8370   21.1870  -31.3560 O   0  0  0  0  0  0  0  0  0  0  0  0
   -4.2640   22.5200  -31.2210 C   0  0  0  0  0  0  0  0  0  0  0  0
   -3.3310   23.3540  -31.1740 O   0  0  0  0  0  0  0  0  0  0  0  0
   -5.6440   22.8170  -31.1500 N   0  0  0  0  0  0  0  0  0  0  0  0
   -6.2050   23.9680  -30.7470 C   0  0  0  0  0  0  0  0  0  0  0  0
   -5.6460   25.2080  -30.2800 C   0  0  0  0  0  0  0  0  0  0  0  0
   -6.1180   26.0210  -29.2260 N   0  0  0  0  0  0  0  0  0  0  0  0
   -4.5940   25.6660  -30.8600 O   0  0  0  0  0  0  0  0  0  0  0  0
   -7.5930   23.7770  -30.8540 C   0  0  0  0  0  0  0  0  0  0  0  0
   -7.8460   22.5120  -31.3220 C   0  0  0  0  0  0  0  0  0  0  0  0
   -9.0220   21.8560  -31.5930 C   0  0  0  0  0  0  0  0  0  0  0  0
   -9.0170   20.5670  -32.0620 C   0  0  0  0  0  0  0  0  0  0  0  0
   -7.7990   19.9550  -32.2520 C   0  0  0  0  0  0  0  0  0  0  0  0
   -7.7600   18.5600  -32.7580 C   0  0  0  0  0  0  0  0  0  0  0  0
   -6.3610   18.1020  -33.0450 C   0  0  0  0  0  0  0  0  0  0  0  0
   -5.9820   18.5020  -34.4710 C   0  0  0  0  0  0  0  0  0  0  0  0
   -4.6170   17.4410  -34.9170 Cl  0  0  0  0  0  0  0  0  0  0  0  0
   -6.6150   20.6290  -31.9740 C   0  0  0  0  0  0  0  0  0  0  0  0
   -6.6070   21.9330  -31.4990 C   0  0  0  0  0  0  0  0  0  0  0  0
   -2.2813   19.9702  -34.4692 H   0  0  0  0  0  0  0  0  0  0  0  0
   -6.8180   26.8090  -29.3700 H   0  0  0  0  0  0  0  0  0  0  0  0
   -5.7280   25.8140  -28.2570 H   0  0  0  0  0  0  0  0  0  0  0  0
   -8.3584   24.5257  -30.6017 H   0  0  0  0  0  0  0  0  0  0  0  0
   -9.9804   22.3712  -31.4318 H   0  0  0  0  0  0  0  0  0  0  0  0
   -9.9571   20.0389  -32.2795 H   0  0  0  0  0  0  0  0  0  0  0  0
   -8.2022   17.8957  -32.0009 H   0  0  0  0  0  0  0  0  0  0  0  0
   -8.3272   18.5257  -33.6999 H   0  0  0  0  0  0  0  0  0  0  0  0
   -5.6666   18.5736  -32.3340 H   0  0  0  0  0  0  0  0  0  0  0  0
   -6.3021   17.0086  -32.9406 H   0  0  0  0  0  0  0  0  0  0  0  0
   -6.8305   18.3440  -35.1530 H   0  0  0  0  0  0  0  0  0  0  0  0
   -5.7108   19.5659  -34.5381 H   0  0  0  0  0  0  0  0  0  0  0  0
   -5.6567   20.1136  -32.1353 H   0  0  0  0  0  0  0  0  0  0  0  0
  1  2  3  0
  2  3  1  0
  3  4  1  0
  4  5  2  0
  4  6  1  0
  6  7  1  0
  7  8  1  0
  8  9  1  0
  8 10  2  0
  7 11  2  0
 11 12  1  0
 12 13  2  0
 13 14  1  0
 14 15  2  0
 15 16  1  0
 16 17  1  0
 17 18  1  0
 18 19  1  0
 15 20  1  0
 20 21  2  0
 21  6  1  0
 21 12  1  0
  1 22  1  0
  9 23  1  0
  9 24  1  0
 11 25  1  0
 13 26  1  0
 14 27  1  0
 16 28  1  0
 16 29  1  0
 17 30  1  0
 17 31  1  0
 18 32  1  0
 18 33  1  0
 20 34  1  0
M  END
>  <smiles>  (32) 
C#COC(=O)n1c(C(N)=O)cc2ccc(CCCCl)cc21

>  <score_type>  (32) 
oracle

>  <origin>  (32) 
adg

>  <m_score__min__energy>  (32) 
-8.9000000000000004

>  <m_primary>  (32) 
energy

$$$$
32:0
     RDKit          3D

 46 47  0  0  1  0  0  0  0  0999 V2000
   -6.1700   16.4340  -33.3080 C   0  0  0  0  0  0  0  0  0  0  0  0
   -6.1350   17.9210  -33.0070 C   0  0  2  0  0  0  0  0  0  0  0  0
   -7.5640   18.4490  -32.8300 C   0  0  0  0  0  0  0  0  0  0  0  0
   -7.5960   19.8340  -32.3350 C   0  0  0  0  0  0  0  0  0  0  0  0
   -8.8120   20.4510  -32.2050 C   0  0  0  0  0  0  0  0  0  0  0  0
   -8.8170   21.7470  -31.7400 C   0  0  0  0  0  0  0  0  0  0  0  0
   -7.6370   22.3810  -31.4240 C   0  0  0  0  0  0  0  0  0  0  0  0
   -7.4050   23.6470  -30.9750 C   0  0  0  0  0  0  0  0  0  0  0  0
   -6.0150   23.8430  -30.8100 C   0  0  0  0  0  0  0  0  0  0  0  0
   -5.5300   25.1060  -30.3300 C   0  0  0  0  0  0  0  0  0  0  0  0
   -6.0810   25.9950  -29.3970 N   0  0  0  0  0  0  0  0  0  0  0  0
   -4.4020   25.5250  -30.8250 O   0  0  0  0  0  0  0  0  0  0  0  0
   -5.4130   22.6690  -31.1710 N   0  0  0  0  0  0  0  0  0  0  0  0
   -4.0270   22.5180  -31.2300 C   0  0  0  0  0  0  0  0  0  0  0  0
   -3.6320   21.7860  -32.2360 O   0  0  0  0  0  0  0  0  0  0  0  0
   -2.9500   22.9980  -30.4290 C   0  0  0  0  0  0  0  0  0  0  0  0
   -1.7200   22.9380  -30.5940 O   0  0  0  0  0  0  0  0  0  0  0  0
   -3.2880   23.6740  -29.2100 O   0  0  0  0  0  0  0  0  0  0  0  0
   -2.3680   23.6010  -28.1200 C   0  0  1  0  0  0  0  0  0  0  0  0
   -1.6760   22.2690  -28.0530 C   0  0  0  0  0  0  0  0  0  0  0  0
   -1.2970   24.6110  -28.4310 C   0  0  0  0  0  0  0  0  0  0  0  0
   -0.1560   24.5390  -27.8830 O   0  0  0  0  0  0  0  0  0  0  0  0
   -1.5790   25.6440  -29.3420 O   0  0  0  0  0  0  0  0  0  0  0  0
   -6.3930   21.7910  -31.5400 C   0  0  0  0  0  0  0  0  0  0  0  0
   -6.4150   20.4950  -32.0090 C   0  0  0  0  0  0  0  0  0  0  0  0
   -5.5680   18.6030  -34.1920 C   0  0  0  0  0  0  0  0  0  0  0  0
   -6.0860   18.5560  -35.3400 O   0  0  0  0  0  0  0  0  0  0  0  0
   -4.3910   19.3590  -34.0880 O   0  0  0  0  0  0  0  0  0  0  0  0
   -6.1833   15.8691  -32.3642 H   0  0  0  0  0  0  0  0  0  0  0  0
   -7.0739   16.1987  -33.8890 H   0  0  0  0  0  0  0  0  0  0  0  0
   -5.2781   16.1564  -33.8890 H   0  0  0  0  0  0  0  0  0  0  0  0
   -5.5455   18.1013  -32.0960 H   0  0  0  0  0  0  0  0  0  0  0  0
   -8.0774   18.4099  -33.8021 H   0  0  0  0  0  0  0  0  0  0  0  0
   -8.0640   17.8155  -32.0826 H   0  0  0  0  0  0  0  0  0  0  0  0
   -9.7472   19.9319  -32.4618 H   0  0  0  0  0  0  0  0  0  0  0  0
   -9.7718   22.2799  -31.6201 H   0  0  0  0  0  0  0  0  0  0  0  0
   -8.1805   24.4004  -30.7722 H   0  0  0  0  0  0  0  0  0  0  0  0
   -5.6140   26.2540  -28.4740 H   0  0  0  0  0  0  0  0  0  0  0  0
   -7.0100   26.5000  -29.5310 H   0  0  0  0  0  0  0  0  0  0  0  0
   -2.9070   23.7685  -27.1758 H   0  0  0  0  0  0  0  0  0  0  0  0
   -1.5285   21.9850  -27.0006 H   0  0  0  0  0  0  0  0  0  0  0  0
   -2.2935   21.5094  -28.5547 H   0  0  0  0  0  0  0  0  0  0  0  0
   -0.6995   22.3375  -28.5547 H   0  0  0  0  0  0  0  0  0  0  0  0
   -2.4780   25.6740  -29.8180 H   0  0  0  0  0  0  0  0  0  0  0  0
   -5.4608   19.9615  -32.1306 H   0  0  0  0  0  0  0  0  0  0  0  0
   -4.3440   20.0950  -33.3840 H   0  0  0  0  0  0  0  0  0  0  0  0
  1  2  1  0
  2  3  1  0
  3  4  1  0
  4  5  2  0
  5  6  1  0
  6  7  2  0
  7  8  1  0
  8  9  2  0
  9 10  1  0
 10 11  1  0
 10 12  2  0
  9 13  1  0
 13 14  1  0
 14 15  2  0
 14 16  1  0
 16 17  2  0
 16 18  1  0
 18 19  1  0
 19 20  1  0
 19 21  1  0
 21 22  2  0
 21 23  1  0
 13 24  1  0
 24 25  2  0
  2 26  1  0
 26 27  2  0
 26 28  1  0
 25  4  1  0
 24  7  1  0
  1 29  1  0
  1 30  1  0
  1 31  1  0
  2 32  1  1
  3 33  1  0
  3 34  1  0
  5 35  1  0
  6 36  1  0
  8 37  1  0
 11 38  1  0
 11 39  1  0
 19 40  1  1
 20 41  1  0
 20 42  1  0
 20 43  1  0
 23 44  1  0
 25 45  1  0
 28 46  1  0
M  END
>  <smiles>  (33) 
CC(Cc1ccc2cc(C(N)=O)n(C(=O)C(=O)OC(C)C(=O)O)c2c1)C(=O)O

>  <score_type>  (33) 
oracle

>  <origin>  (33) 
adg

>  <m_score__min__energy>  (33) 
-9.8000000000000007

>  <m_primary>  (33) 
energy

$$$$
33:0
     RDKit          3D

 38 39  0  0  0  0  0  0  0  0999 V2000
   -3.9000   25.1690  -30.1220 N   0  0  0  0  0  0  0  0  0  0  0  0
   -5.2720   25.1530  -30.6730 C   0  0  0  0  0  0  0  0  0  0  0  0
   -5.7210   26.2910  -30.8130 O   0  0  0  0  0  0  0  0  0  0  0  0
   -5.8380   23.8610  -30.9420 C   0  0  0  0  0  0  0  0  0  0  0  0
   -7.2560   23.7850  -31.1020 C   0  0  0  0  0  0  0  0  0  0  0  0
   -7.5750   22.4980  -31.3790 C   0  0  0  0  0  0  0  0  0  0  0  0
   -8.8060   21.9240  -31.6020 C   0  0  0  0  0  0  0  0  0  0  0  0
   -8.9270   20.5820  -31.8580 C   0  0  0  0  0  0  0  0  0  0  0  0
   -7.7760   19.8370  -31.8820 C   0  0  0  0  0  0  0  0  0  0  0  0
   -7.9070   18.3810  -32.1550 C   0  0  0  0  0  0  0  0  0  0  0  0
   -7.4910   18.0670  -33.4320 F   0  0  0  0  0  0  0  0  0  0  0  0
   -7.0970   17.7050  -31.2740 F   0  0  0  0  0  0  0  0  0  0  0  0
   -9.2060   17.9460  -31.9570 F   0  0  0  0  0  0  0  0  0  0  0  0
   -6.5390   20.4370  -31.6540 C   0  0  0  0  0  0  0  0  0  0  0  0
   -6.4020   21.7890  -31.3960 C   0  0  0  0  0  0  0  0  0  0  0  0
   -5.3330   22.6290  -31.1280 N   0  0  0  0  0  0  0  0  0  0  0  0
   -4.0310   22.1260  -31.1700 C   0  0  0  0  0  0  0  0  0  0  0  0
   -3.8520   21.2120  -32.0800 O   0  0  0  0  0  0  0  0  0  0  0  0
   -2.8450   22.4070  -30.4170 C   0  0  0  0  0  0  0  0  0  0  0  0
   -1.8490   23.0590  -30.7600 O   0  0  0  0  0  0  0  0  0  0  0  0
   -2.7190   21.8880  -29.0600 N   0  0  0  0  0  0  0  0  0  0  0  0
   -1.6500   22.0470  -28.1780 C   0  0  0  0  0  0  0  0  0  0  0  0
   -1.0430   23.3430  -27.8560 C   0  0  0  0  0  0  0  0  0  0  0  0
   -1.8170   24.5310  -28.2080 C   0  0  0  0  0  0  0  0  0  0  0  0
   -2.7970   24.9020  -27.4610 O   0  0  0  0  0  0  0  0  0  0  0  0
   -1.5630   25.3310  -29.3400 O   0  0  0  0  0  0  0  0  0  0  0  0
   -3.7390   25.5390  -29.1760 H   0  0  0  0  0  0  0  0  0  0  0  0
   -3.1380   24.7840  -30.7530 H   0  0  0  0  0  0  0  0  0  0  0  0
   -7.9632   24.6231  -31.0155 H   0  0  0  0  0  0  0  0  0  0  0  0
   -9.7084   22.5525  -31.5744 H   0  0  0  0  0  0  0  0  0  0  0  0
   -9.9096   20.1210  -32.0372 H   0  0  0  0  0  0  0  0  0  0  0  0
   -5.6354   19.8103  -31.6803 H   0  0  0  0  0  0  0  0  0  0  0  0
   -3.5590   21.3090  -28.7100 H   0  0  0  0  0  0  0  0  0  0  0  0
   -1.9891   21.6290  -27.2187 H   0  0  0  0  0  0  0  0  0  0  0  0
   -0.8370   21.5677  -28.7431 H   0  0  0  0  0  0  0  0  0  0  0  0
   -0.8663   23.3688  -26.7706 H   0  0  0  0  0  0  0  0  0  0  0  0
   -0.1312   23.3976  -28.4689 H   0  0  0  0  0  0  0  0  0  0  0  0
   -0.9760   24.9020  -30.0550 H   0  0  0  0  0  0  0  0  0  0  0  0
  1  2  1  0
  2  3  2  0
  2  4  1  0
  4  5  2  0
  5  6  1  0
  6  7  2  0
  7  8  1  0
  8  9  2  0
  9 10  1  0
 10 11  1  0
 10 12  1  0
 10 13  1  0
  9 14  1  0
 14 15  2  0
 15 16  1  0
 16 17  1  0
 17 18  2  0
 17 19  1  0
 19 20  2  0
 19 21  1  0
 21 22  1  0
 22 23  1  0
 23 24  1  0
 24 25  2  0
 24 26  1  0
 16  4  1  0
 15  6  1  0
  1 27  1  0
  1 28  1  0
  5 29  1  0
  7 30  1  0
  8 31  1  0
 14 32  1  0
 21 33  1  0
 22 34  1  0
 22 35  1  0
 23 36  1  0
 23 37  1  0
 26 38  1  0
M  END
>  <smiles>  (34) 
NC(=O)c1cc2ccc(C(F)(F)F)cc2n1C(=O)C(=O)NCCC(=O)O

>  <score_type>  (34) 
oracle

>  <origin>  (34) 
adg

>  <m_score__min__energy>  (34) 
-8.9000000000000004

>  <m_primary>  (34) 
energy

$$$$
34:0
     RDKit          3D

 45 46  0  0  0  0  0  0  0  0999 V2000
   -1.5990   21.2010  -33.7820 C   0  0  0  0  0  0  0  0  0  0  0  0
   -2.0280   20.6510  -32.5820 O   0  0  0  0  0  0  0  0  0  0  0  0
   -1.4730   19.4130  -32.3210 C   0  0  0  0  0  0  0  0  0  0  0  0
   -2.1440   18.2840  -33.0490 C   0  0  0  0  0  0  0  0  0  0  0  0
   -3.5100   18.7150  -33.3500 N   0  0  0  0  0  0  0  0  0  0  0  0
   -4.2640   17.8430  -34.2170 C   0  0  0  0  0  0  0  0  0  0  0  0
   -3.6630   16.8240  -34.6100 O   0  0  0  0  0  0  0  0  0  0  0  0
   -5.6290   18.2500  -34.5340 C   0  0  0  0  0  0  0  0  0  0  0  0
   -6.6680   18.0160  -33.5060 C   0  0  0  0  0  0  0  0  0  0  0  0
   -7.1310   19.2280  -32.7980 C   0  0  0  0  0  0  0  0  0  0  0  0
   -8.4620   19.5150  -32.6450 C   0  0  0  0  0  0  0  0  0  0  0  0
   -8.8270   20.6690  -31.9950 C   0  0  0  0  0  0  0  0  0  0  0  0
   -7.8410   21.5100  -31.5110 C   0  0  0  0  0  0  0  0  0  0  0  0
   -7.9720   22.6880  -30.8450 C   0  0  0  0  0  0  0  0  0  0  0  0
   -6.6670   23.1490  -30.5750 C   0  0  0  0  0  0  0  0  0  0  0  0
   -6.5040   24.4370  -29.9170 C   0  0  0  0  0  0  0  0  0  0  0  0
   -5.4190   24.6210  -28.9880 N   0  0  0  0  0  0  0  0  0  0  0  0
   -7.2310   25.4410  -30.0790 O   0  0  0  0  0  0  0  0  0  0  0  0
   -5.7670   22.2820  -31.0520 N   0  0  0  0  0  0  0  0  0  0  0  0
   -4.3810   22.1720  -30.9030 C   0  0  0  0  0  0  0  0  0  0  0  0
   -3.9250   20.9680  -30.7810 O   0  0  0  0  0  0  0  0  0  0  0  0
   -3.3630   23.1890  -30.8500 C   0  0  0  0  0  0  0  0  0  0  0  0
   -3.5090   24.4240  -30.8400 O   0  0  0  0  0  0  0  0  0  0  0  0
   -2.0020   22.7830  -30.8040 O   0  0  0  0  0  0  0  0  0  0  0  0
   -6.5000   21.2690  -31.6370 C   0  0  0  0  0  0  0  0  0  0  0  0
   -6.1540   20.0980  -32.2970 C   0  0  0  0  0  0  0  0  0  0  0  0
   -0.9342   22.0533  -33.5778 H   0  0  0  0  0  0  0  0  0  0  0  0
   -1.0532   20.4404  -34.3596 H   0  0  0  0  0  0  0  0  0  0  0  0
   -2.4696   21.5452  -34.3596 H   0  0  0  0  0  0  0  0  0  0  0  0
   -0.4144   19.4375  -32.6188 H   0  0  0  0  0  0  0  0  0  0  0  0
   -1.6027   19.2234  -31.2453 H   0  0  0  0  0  0  0  0  0  0  0  0
   -1.6042   18.0632  -33.9817 H   0  0  0  0  0  0  0  0  0  0  0  0
   -2.1486   17.3712  -32.4351 H   0  0  0  0  0  0  0  0  0  0  0  0
   -3.9210   19.5920  -32.9680 H   0  0  0  0  0  0  0  0  0  0  0  0
   -5.6106   19.3296  -34.7441 H   0  0  0  0  0  0  0  0  0  0  0  0
   -5.9227   17.6110  -35.3799 H   0  0  0  0  0  0  0  0  0  0  0  0
   -7.5373   17.5554  -33.9982 H   0  0  0  0  0  0  0  0  0  0  0  0
   -6.2059   17.3722  -32.7431 H   0  0  0  0  0  0  0  0  0  0  0  0
   -9.2283   18.8304  -33.0375 H   0  0  0  0  0  0  0  0  0  0  0  0
   -9.8894   20.9210  -31.8612 H   0  0  0  0  0  0  0  0  0  0  0  0
   -8.9138   23.1853  -30.5700 H   0  0  0  0  0  0  0  0  0  0  0  0
   -5.4130   24.0660  -28.1020 H   0  0  0  0  0  0  0  0  0  0  0  0
   -4.6660   25.3150  -29.2390 H   0  0  0  0  0  0  0  0  0  0  0  0
   -1.7490   21.8010  -30.8700 H   0  0  0  0  0  0  0  0  0  0  0  0
   -5.0910   19.8480  -32.4294 H   0  0  0  0  0  0  0  0  0  0  0  0
  1  2  1  0
  2  3  1  0
  3  4  1  0
  4  5  1  0
  5  6  1  0
  6  7  2  0
  6  8  1  0
  8  9  1  0
  9 10  1  0
 10 11  2  0
 11 12  1  0
 12 13  2  0
 13 14  1  0
 14 15  2  0
 15 16  1  0
 16 17  1  0
 16 18  2  0
 15 19  1  0
 19 20  1  0
 20 21  2  0
 20 22  1  0
 22 23  2  0
 22 24  1  0
 19 25  1  0
 25 26  2  0
 26 10  1  0
 25 13  1  0
  1 27  1  0
  1 28  1  0
  1 29  1  0
  3 30  1  0
  3 31  1  0
  4 32  1  0
  4 33  1  0
  5 34  1  0
  8 35  1  0
  8 36  1  0
  9 37  1  0
  9 38  1  0
 11 39  1  0
 12 40  1  0
 14 41  1  0
 17 42  1  0
 17 43  1  0
 24 44  1  0
 26 45  1  0
M  END
>  <smiles>  (35) 
COCCNC(=O)CCc1ccc2cc(C(N)=O)n(C(=O)C(=O)O)c2c1

>  <score_type>  (35) 
oracle

>  <origin>  (35) 
adg

>  <m_score__min__energy>  (35) 
-8.5999999999999996

>  <m_primary>  (35) 
energy

$$$$
35:0
     RDKit          3D

 40 41  0  0  0  0  0  0  0  0999 V2000
   -5.6050   26.5210  -30.3320 N   0  0  0  0  0  0  0  0  0  0  0  0
   -5.0210   25.2630  -30.5620 C   0  0  0  0  0  0  0  0  0  0  0  0
   -3.7440   25.2380  -30.4710 O   0  0  0  0  0  0  0  0  0  0  0  0
   -5.6770   24.0230  -30.8810 C   0  0  0  0  0  0  0  0  0  0  0  0
   -7.0680   23.9570  -31.0680 C   0  0  0  0  0  0  0  0  0  0  0  0
   -7.4230   22.6600  -31.3590 C   0  0  0  0  0  0  0  0  0  0  0  0
   -8.6460   22.0820  -31.6230 C   0  0  0  0  0  0  0  0  0  0  0  0
   -8.7450   20.7350  -31.8920 C   0  0  0  0  0  0  0  0  0  0  0  0
   -7.5900   19.9960  -31.8870 C   0  0  0  0  0  0  0  0  0  0  0  0
   -7.6880   18.5500  -32.1750 C   0  0  0  0  0  0  0  0  0  0  0  0
   -7.2120   18.2460  -33.4490 F   0  0  0  0  0  0  0  0  0  0  0  0
   -9.0110   18.1940  -32.1380 F   0  0  0  0  0  0  0  0  0  0  0  0
   -6.9820   17.7820  -31.2640 F   0  0  0  0  0  0  0  0  0  0  0  0
   -6.3650   20.5900  -31.6210 C   0  0  0  0  0  0  0  0  0  0  0  0
   -6.2360   21.9370  -31.3480 C   0  0  0  0  0  0  0  0  0  0  0  0
   -5.2090   22.7760  -31.0600 N   0  0  0  0  0  0  0  0  0  0  0  0
   -3.8690   22.3340  -30.9760 C   0  0  0  0  0  0  0  0  0  0  0  0
   -2.9750   23.1450  -31.3560 O   0  0  0  0  0  0  0  0  0  0  0  0
   -3.4350   21.1170  -30.5260 O   0  0  0  0  0  0  0  0  0  0  0  0
   -2.4030   20.9980  -29.6050 C   0  0  0  0  0  0  0  0  0  0  0  0
   -1.1400   21.6580  -30.0360 C   0  0  0  0  0  0  0  0  0  0  0  0
   -0.5680   22.7110  -28.6500 S   0  0  0  0  0  0  0  0  0  0  0  0
   -2.0290   23.4360  -27.8710 C   0  0  0  0  0  0  0  0  0  0  0  0
   -2.0510   24.9320  -28.0530 C   0  0  0  0  0  0  0  0  0  0  0  0
   -1.6160   25.2490  -29.3410 O   0  0  0  0  0  0  0  0  0  0  0  0
   -5.8920   26.8400  -29.3680 H   0  0  0  0  0  0  0  0  0  0  0  0
   -5.7370   27.1400  -31.1840 H   0  0  0  0  0  0  0  0  0  0  0  0
   -7.7625   24.8068  -30.9936 H   0  0  0  0  0  0  0  0  0  0  0  0
   -9.5534   22.7037  -31.6188 H   0  0  0  0  0  0  0  0  0  0  0  0
   -9.7180   20.2676  -32.1038 H   0  0  0  0  0  0  0  0  0  0  0  0
   -5.4611   19.9632  -31.6279 H   0  0  0  0  0  0  0  0  0  0  0  0
   -2.7278   21.4537  -28.6580 H   0  0  0  0  0  0  0  0  0  0  0  0
   -2.1864   19.9246  -29.5003 H   0  0  0  0  0  0  0  0  0  0  0  0
   -0.3796   20.8980  -30.2689 H   0  0  0  0  0  0  0  0  0  0  0  0
   -1.3079   22.2635  -30.9389 H   0  0  0  0  0  0  0  0  0  0  0  0
   -2.9319   23.0046  -28.3279 H   0  0  0  0  0  0  0  0  0  0  0  0
   -1.9988   23.2141  -26.7940 H   0  0  0  0  0  0  0  0  0  0  0  0
   -3.0763   25.3040  -27.9100 H   0  0  0  0  0  0  0  0  0  0  0  0
   -1.3849   25.4018  -27.3143 H   0  0  0  0  0  0  0  0  0  0  0  0
   -1.9170   24.5350  -29.9530 H   0  0  0  0  0  0  0  0  0  0  0  0
  1  2  1  0
  2  3  2  0
  2  4  1  0
  4  5  2  0
  5  6  1  0
  6  7  2  0
  7  8  1  0
  8  9  2  0
  9 10  1  0
 10 11  1  0
 10 12  1  0
 10 13  1  0
  9 14  1  0
 14 15  2  0
 15 16  1  0
 16 17  1  0
 17 18  2  0
 17 19  1  0
 19 20  1  0
 20 21  1  0
 21 22  1  0
 22 23  1  0
 23 24  1  0
 24 25  1  0
 16  4  1  0
 15  6  1  0
  1 26  1  0
  1 27  1  0
  5 28  1  0
  7 29  1  0
  8 30  1  0
 14 31  1  0
 20 32  1  0
 20 33  1  0
 21 34  1  0
 21 35  1  0
 23 36  1  0
 23 37  1  0
 24 38  1  0
 24 39  1  0
 25 40  1  0
M  END
>  <smiles>  (36) 
NC(=O)c1cc2ccc(C(F)(F)F)cc2n1C(=O)OCCSCCO

>  <score_type>  (36) 
oracle

>  <origin>  (36) 
adg

>  <m_score__min__energy>  (36) 
-7.6399999999999997

>  <m_primary>  (36) 
energy

$$$$
37:0
     RDKit          3D

 40 41  0  0  1  0  0  0  0  0999 V2000
   -2.2780   24.7210  -27.4500 C   0  0  0  0  0  0  0  0  0  0  0  0
   -2.3110   23.8440  -28.6810 C   0  0  1  0  0  0  0  0  0  0  0  0
   -2.7130   24.7500  -29.7160 O   0  0  0  0  0  0  0  0  0  0  0  0
   -0.9330   23.3670  -29.0510 C   0  0  0  0  0  0  0  0  0  0  0  0
   -0.8730   22.9570  -30.3810 O   0  0  0  0  0  0  0  0  0  0  0  0
   -3.3390   22.7840  -28.6350 C   0  0  0  0  0  0  0  0  0  0  0  0
   -3.6850   22.0850  -29.7510 O   0  0  0  0  0  0  0  0  0  0  0  0
   -4.1720   22.4200  -30.9700 C   0  0  0  0  0  0  0  0  0  0  0  0
   -3.3820   22.4350  -31.9390 O   0  0  0  0  0  0  0  0  0  0  0  0
   -5.5580   22.7370  -31.0900 N   0  0  0  0  0  0  0  0  0  0  0  0
   -6.1380   23.9400  -30.8160 C   0  0  0  0  0  0  0  0  0  0  0  0
   -5.5610   25.1700  -30.3570 C   0  0  0  0  0  0  0  0  0  0  0  0
   -6.1770   25.8270  -29.2240 N   0  0  0  0  0  0  0  0  0  0  0  0
   -4.5700   25.7650  -30.8170 O   0  0  0  0  0  0  0  0  0  0  0  0
   -7.5020   23.7790  -31.0770 C   0  0  0  0  0  0  0  0  0  0  0  0
   -7.7530   22.5010  -31.5000 C   0  0  0  0  0  0  0  0  0  0  0  0
   -8.9190   21.8660  -31.8730 C   0  0  0  0  0  0  0  0  0  0  0  0
   -8.8850   20.5570  -32.2620 C   0  0  0  0  0  0  0  0  0  0  0  0
   -7.6870   19.8800  -32.2810 C   0  0  0  0  0  0  0  0  0  0  0  0
   -7.6870   18.4620  -32.7070 C   0  0  0  0  0  0  0  0  0  0  0  0
   -6.5050   17.8560  -32.3720 F   0  0  0  0  0  0  0  0  0  0  0  0
   -8.6920   17.7890  -32.0300 F   0  0  0  0  0  0  0  0  0  0  0  0
   -6.5210   20.5440  -31.9000 C   0  0  0  0  0  0  0  0  0  0  0  0
   -6.5290   21.8690  -31.5010 C   0  0  0  0  0  0  0  0  0  0  0  0
   -2.3017   24.0898  -26.5494 H   0  0  0  0  0  0  0  0  0  0  0  0
   -1.3566   25.3219  -27.4525 H   0  0  0  0  0  0  0  0  0  0  0  0
   -3.1516   25.3894  -27.4525 H   0  0  0  0  0  0  0  0  0  0  0  0
   -2.9700   24.1640  -30.4760 H   0  0  0  0  0  0  0  0  0  0  0  0
   -0.2176   24.1885  -28.8979 H   0  0  0  0  0  0  0  0  0  0  0  0
   -0.6839   22.5058  -28.4136 H   0  0  0  0  0  0  0  0  0  0  0  0
   -1.7730   22.9030  -30.7690 H   0  0  0  0  0  0  0  0  0  0  0  0
   -2.9902   22.0438  -27.8998 H   0  0  0  0  0  0  0  0  0  0  0  0
   -4.2559   23.3504  -28.4145 H   0  0  0  0  0  0  0  0  0  0  0  0
   -6.1720   25.3060  -28.3120 H   0  0  0  0  0  0  0  0  0  0  0  0
   -6.5960   26.7730  -29.3430 H   0  0  0  0  0  0  0  0  0  0  0  0
   -8.2629   24.5646  -30.9596 H   0  0  0  0  0  0  0  0  0  0  0  0
   -9.8737   22.4121  -31.8573 H   0  0  0  0  0  0  0  0  0  0  0  0
   -9.8124   20.0456  -32.5592 H   0  0  0  0  0  0  0  0  0  0  0  0
   -7.8341   18.4302  -33.7967 H   0  0  0  0  0  0  0  0  0  0  0  0
   -5.5663   19.9979  -31.9172 H   0  0  0  0  0  0  0  0  0  0  0  0
  1  2  1  0
  2  3  1  6
  2  4  1  0
  4  5  1  0
  2  6  1  0
  6  7  1  0
  7  8  1  0
  8  9  2  0
  8 10  1  0
 10 11  1  0
 11 12  1  0
 12 13  1  0
 12 14  2  0
 11 15  2  0
 15 16  1  0
 16 17  2  0
 17 18  1  0
 18 19  2  0
 19 20  1  0
 20 21  1  0
 20 22  1  0
 19 23  1  0
 23 24  2  0
 24 10  1  0
 24 16  1  0
  1 25  1  0
  1 26  1  0
  1 27  1  0
  3 28  1  0
  4 29  1  0
  4 30  1  0
  5 31  1  0
  6 32  1  0
  6 33  1  0
 13 34  1  0
 13 35  1  0
 15 36  1  0
 17 37  1  0
 18 38  1  0
 20 39  1  0
 23 40  1  0
M  END
>  <smiles>  (37) 
CC(O)(CO)COC(=O)n1c(C(N)=O)cc2ccc(C(F)F)cc21

>  <score_type>  (37) 
oracle

>  <origin>  (37) 
adg

>  <m_score__min__energy>  (37) 
-8.6400000000000006

>  <m_primary>  (37) 
energy

$$$$
38:0
     RDKit          3D

 46 47  0  0  1  0  0  0  0  0999 V2000
   -5.3470   18.1090  -34.3690 C   0  0  0  0  0  0  0  0  0  0  0  0
   -5.7130   19.4930  -33.8380 C   0  0  2  0  0  0  0  0  0  0  0  0
   -4.5910   19.9090  -33.0240 N   0  0  0  0  0  0  0  0  0  0  0  0
   -4.5300   21.2460  -32.4530 C   0  0  0  0  0  0  0  0  0  0  0  0
   -5.5190   21.9550  -32.7390 O   0  0  0  0  0  0  0  0  0  0  0  0
   -3.3930   21.6090  -31.6510 C   0  0  0  0  0  0  0  0  0  0  0  0
   -2.2500   21.3350  -32.1840 O   0  0  0  0  0  0  0  0  0  0  0  0
   -3.3450   22.2220  -30.3900 N   0  0  0  0  0  0  0  0  0  0  0  0
   -3.7240   23.4350  -29.9630 C   0  0  0  0  0  0  0  0  0  0  0  0
   -4.6070   24.4240  -30.5580 C   0  0  0  0  0  0  0  0  0  0  0  0
   -5.9710   24.0450  -30.8690 N   0  0  0  0  0  0  0  0  0  0  0  0
   -4.3160   25.6040  -30.8430 O   0  0  0  0  0  0  0  0  0  0  0  0
   -3.2710   23.6390  -28.6420 C   0  0  0  0  0  0  0  0  0  0  0  0
   -2.6120   22.5140  -28.2770 C   0  0  0  0  0  0  0  0  0  0  0  0
   -1.9830   22.2150  -27.0780 C   0  0  0  0  0  0  0  0  0  0  0  0
   -1.3640   20.9960  -26.9130 C   0  0  0  0  0  0  0  0  0  0  0  0
   -1.3950   20.1180  -27.9530 C   0  0  0  0  0  0  0  0  0  0  0  0
   -0.7230   18.7980  -27.7720 C   0  0  0  0  0  0  0  0  0  0  0  0
   -1.3950   18.1740  -26.7190 F   0  0  0  0  0  0  0  0  0  0  0  0
    0.6170   18.9650  -27.4750 F   0  0  0  0  0  0  0  0  0  0  0  0
   -2.0310   20.4290  -29.1610 C   0  0  0  0  0  0  0  0  0  0  0  0
   -2.6610   21.6550  -29.3430 C   0  0  0  0  0  0  0  0  0  0  0  0
   -6.9970   19.4560  -33.0930 C   0  0  0  0  0  0  0  0  0  0  0  0
   -7.4530   18.3200  -32.8060 O   0  0  0  0  0  0  0  0  0  0  0  0
   -7.6670   20.6530  -32.7310 N   0  0  0  0  0  0  0  0  0  0  0  0
   -8.9050   20.7280  -32.0190 C   0  0  0  0  0  0  0  0  0  0  0  0
   -9.1300   21.9540  -31.2090 C   0  0  0  0  0  0  0  0  0  0  0  0
   -8.1320   22.8910  -31.2240 O   0  0  0  0  0  0  0  0  0  0  0  0
   -5.1669   17.4280  -33.5242 H   0  0  0  0  0  0  0  0  0  0  0  0
   -6.1735   17.7214  -34.9827 H   0  0  0  0  0  0  0  0  0  0  0  0
   -4.4369   18.1806  -34.9827 H   0  0  0  0  0  0  0  0  0  0  0  0
   -5.8826   20.2195  -34.6463 H   0  0  0  0  0  0  0  0  0  0  0  0
   -3.8400   19.2150  -32.8700 H   0  0  0  0  0  0  0  0  0  0  0  0
   -6.0970   23.5720  -31.7740 H   0  0  0  0  0  0  0  0  0  0  0  0
   -6.7250   24.2650  -30.1810 H   0  0  0  0  0  0  0  0  0  0  0  0
   -3.4238   24.5385  -28.0275 H   0  0  0  0  0  0  0  0  0  0  0  0
   -1.9785   22.9504  -26.2599 H   0  0  0  0  0  0  0  0  0  0  0  0
   -0.8598   20.7395  -25.9696 H   0  0  0  0  0  0  0  0  0  0  0  0
   -0.7637   18.1932  -28.6899 H   0  0  0  0  0  0  0  0  0  0  0  0
   -2.0322   19.6925  -29.9781 H   0  0  0  0  0  0  0  0  0  0  0  0
   -7.1710   21.5490  -33.0350 H   0  0  0  0  0  0  0  0  0  0  0  0
   -9.7191   20.6599  -32.7557 H   0  0  0  0  0  0  0  0  0  0  0  0
   -8.8750   19.9011  -31.2942 H   0  0  0  0  0  0  0  0  0  0  0  0
  -10.0460   22.4362  -31.5811 H   0  0  0  0  0  0  0  0  0  0  0  0
   -9.1855   21.6065  -30.1668 H   0  0  0  0  0  0  0  0  0  0  0  0
   -7.3410   22.5330  -31.6740 H   0  0  0  0  0  0  0  0  0  0  0  0
  1  2  1  0
  2  3  1  0
  3  4  1  0
  4  5  2  0
  4  6  1  0
  6  7  2  0
  6  8  1  0
  8  9  1  0
  9 10  1  0
 10 11  1  0
 10 12  2  0
  9 13  2  0
 13 14  1  0
 14 15  2  0
 15 16  1  0
 16 17  2  0
 17 18  1  0
 18 19  1  0
 18 20  1  0
 17 21  1  0
 21 22  2  0
  2 23  1  0
 23 24  2  0
 23 25  1  0
 25 26  1  0
 26 27  1  0
 27 28  1  0
 22  8  1  0
 22 14  1  0
  1 29  1  0
  1 30  1  0
  1 31  1  0
  2 32  1  6
  3 33  1  0
 11 34  1  0
 11 35  1  0
 13 36  1  0
 15 37  1  0
 16 38  1  0
 18 39  1  0
 21 40  1  0
 25 41  1  0
 26 42  1  0
 26 43  1  0
 27 44  1  0
 27 45  1  0
 28 46  1  0
M  END
>  <smiles>  (38) 
CC(NC(=O)C(=O)n1c(C(N)=O)cc2ccc(C(F)F)cc21)C(=O)NCCO

>  <score_type>  (38) 
oracle

>  <origin>  (38) 
adg

>  <m_score__min__energy>  (38) 
-9.1799999999999997

>  <m_primary>  (38) 
energy

$$$$
39:0
     RDKit          3D

 40 41  0  0  0  0  0  0  0  0999 V2000
   -3.3170   22.1850  -27.8530 C   0  0  0  0  0  0  0  0  0  0  0  0
   -2.7930   22.9800  -28.9280 N   0  0  0  0  0  0  0  0  0  0  0  0
   -2.7510   24.4220  -28.6150 C   0  0  0  0  0  0  0  0  0  0  0  0
   -3.4450   24.8870  -27.6770 O   0  0  0  0  0  0  0  0  0  0  0  0
   -1.9670   25.2870  -29.3260 O   0  0  0  0  0  0  0  0  0  0  0  0
   -2.3290   22.6340  -30.1730 C   0  0  0  0  0  0  0  0  0  0  0  0
   -1.0220   22.8560  -30.3390 O   0  0  0  0  0  0  0  0  0  0  0  0
   -2.8550   22.0970  -31.3650 N   0  0  0  0  0  0  0  0  0  0  0  0
   -1.8340   21.2020  -32.0250 C   0  0  0  0  0  0  0  0  0  0  0  0
   -4.1090   22.3020  -31.9400 C   0  0  0  0  0  0  0  0  0  0  0  0
   -4.1470   22.1710  -33.2200 O   0  0  0  0  0  0  0  0  0  0  0  0
   -5.3490   22.6400  -31.3600 N   0  0  0  0  0  0  0  0  0  0  0  0
   -5.8910   23.7630  -30.9140 C   0  0  0  0  0  0  0  0  0  0  0  0
   -5.2430   25.0030  -30.4650 C   0  0  0  0  0  0  0  0  0  0  0  0
   -5.7360   25.6920  -29.3060 N   0  0  0  0  0  0  0  0  0  0  0  0
   -4.2610   25.5270  -31.0330 O   0  0  0  0  0  0  0  0  0  0  0  0
   -7.2670   23.6180  -30.6760 C   0  0  0  0  0  0  0  0  0  0  0  0
   -7.5600   22.3270  -30.9920 C   0  0  0  0  0  0  0  0  0  0  0  0
   -8.7710   21.6640  -30.9360 C   0  0  0  0  0  0  0  0  0  0  0  0
   -8.8530   20.3410  -31.3070 C   0  0  0  0  0  0  0  0  0  0  0  0
   -7.7030   19.7190  -31.7250 C   0  0  0  0  0  0  0  0  0  0  0  0
   -7.7730   18.2810  -32.1310 C   0  0  0  0  0  0  0  0  0  0  0  0
   -7.3930   18.1260  -33.4580 F   0  0  0  0  0  0  0  0  0  0  0  0
   -9.0510   17.8330  -31.9920 F   0  0  0  0  0  0  0  0  0  0  0  0
   -6.8900   17.5670  -31.3460 F   0  0  0  0  0  0  0  0  0  0  0  0
   -6.4840   20.4070  -31.7750 C   0  0  0  0  0  0  0  0  0  0  0  0
   -6.3940   21.7400  -31.4030 C   0  0  0  0  0  0  0  0  0  0  0  0
   -3.0235   22.6302  -26.8909 H   0  0  0  0  0  0  0  0  0  0  0  0
   -4.4143   22.1522  -27.9223 H   0  0  0  0  0  0  0  0  0  0  0  0
   -2.9145   21.1636  -27.9223 H   0  0  0  0  0  0  0  0  0  0  0  0
   -1.1490   24.9820  -29.8590 H   0  0  0  0  0  0  0  0  0  0  0  0
   -1.2451   20.6857  -31.2526 H   0  0  0  0  0  0  0  0  0  0  0  0
   -2.3485   20.4587  -32.6517 H   0  0  0  0  0  0  0  0  0  0  0  0
   -1.1645   21.8094  -32.6517 H   0  0  0  0  0  0  0  0  0  0  0  0
   -6.3050   26.5640  -29.3680 H   0  0  0  0  0  0  0  0  0  0  0  0
   -5.4730   25.2380  -28.3880 H   0  0  0  0  0  0  0  0  0  0  0  0
   -7.9631   24.3873  -30.3104 H   0  0  0  0  0  0  0  0  0  0  0  0
   -9.6718   22.1948  -30.5941 H   0  0  0  0  0  0  0  0  0  0  0  0
   -9.8097   19.7994  -31.2697 H   0  0  0  0  0  0  0  0  0  0  0  0
   -5.5807   19.8799  -32.1159 H   0  0  0  0  0  0  0  0  0  0  0  0
  1  2  1  0
  2  3  1  0
  3  4  2  0
  3  5  1  0
  2  6  1  0
  6  7  2  0
  6  8  1  0
  8  9  1  0
  8 10  1  0
 10 11  2  0
 10 12  1  0
 12 13  1  0
 13 14  1  0
 14 15  1  0
 14 16  2  0
 13 17  2  0
 17 18  1  0
 18 19  2  0
 19 20  1  0
 20 21  2  0
 21 22  1  0
 22 23  1  0
 22 24  1  0
 22 25  1  0
 21 26  1  0
 26 27  2  0
 27 12  1  0
 27 18  1  0
  1 28  1  0
  1 29  1  0
  1 30  1  0
  5 31  1  0
  9 32  1  0
  9 33  1  0
  9 34  1  0
 15 35  1  0
 15 36  1  0
 17 37  1  0
 19 38  1  0
 20 39  1  0
 26 40  1  0
M  END
>  <smiles>  (39) 
CN(C(=O)O)C(=O)N(C)C(=O)n1c(C(N)=O)cc2ccc(C(F)(F)F)cc21

>  <score_type>  (39) 
oracle

>  <origin>  (39) 
adg

>  <m_score__min__energy>  (39) 
-8.9900000000000002

>  <m_primary>  (39) 
energy

$$$$
40:0
     RDKit          3D

 49 51  0  0  1  0  0  0  0  0999 V2000
   -5.2330   25.8090  -30.2430 N   0  0  0  0  0  0  0  0  0  0  0  0
   -6.4820   25.0940  -30.0910 C   0  0  0  0  0  0  0  0  0  0  0  0
   -7.3320   25.6780  -29.3990 O   0  0  0  0  0  0  0  0  0  0  0  0
   -6.6200   23.8050  -30.7380 C   0  0  0  0  0  0  0  0  0  0  0  0
   -7.8410   23.3080  -31.1690 C   0  0  0  0  0  0  0  0  0  0  0  0
   -7.6640   22.0800  -31.7390 C   0  0  0  0  0  0  0  0  0  0  0  0
   -8.5620   21.1960  -32.3090 C   0  0  0  0  0  0  0  0  0  0  0  0
   -8.0830   20.0060  -32.8140 C   0  0  0  0  0  0  0  0  0  0  0  0
   -6.7470   19.6990  -32.7550 C   0  0  0  0  0  0  0  0  0  0  0  0
   -6.2660   18.4660  -33.2830 N   0  0  0  0  0  0  0  0  0  0  0  0
   -6.4610   17.1880  -32.6600 C   0  0  0  0  0  0  0  0  0  0  0  0
   -6.5310   16.1520  -33.7810 C   0  0  0  0  0  0  0  0  0  0  0  0
   -5.3630   16.0570  -34.4890 O   0  0  0  0  0  0  0  0  0  0  0  0
   -4.6630   17.2270  -34.6100 C   0  0  0  0  0  0  0  0  0  0  0  0
   -5.5210   18.4790  -34.5440 C   0  0  0  0  0  0  0  0  0  0  0  0
   -5.8870   20.6120  -32.1760 C   0  0  0  0  0  0  0  0  0  0  0  0
   -6.3170   21.8180  -31.6570 C   0  0  0  0  0  0  0  0  0  0  0  0
   -5.6930   22.8730  -31.0460 N   0  0  0  0  0  0  0  0  0  0  0  0
   -4.2890   22.9620  -30.7860 C   0  0  0  0  0  0  0  0  0  0  0  0
   -3.5510   23.8750  -31.2100 O   0  0  0  0  0  0  0  0  0  0  0  0
   -3.7220   21.9780  -30.0220 O   0  0  0  0  0  0  0  0  0  0  0  0
   -2.8270   22.1380  -28.9700 C   0  0  0  0  0  0  0  0  0  0  0  0
   -3.2520   23.1220  -27.9170 C   0  0  2  0  0  0  0  0  0  0  0  0
   -4.2660   23.9560  -28.2700 O   0  0  0  0  0  0  0  0  0  0  0  0
   -2.0440   23.8480  -27.3590 C   0  0  0  0  0  0  0  0  0  0  0  0
   -1.5100   24.8410  -28.3350 C   0  0  0  0  0  0  0  0  0  0  0  0
   -0.3440   25.3100  -28.2660 O   0  0  0  0  0  0  0  0  0  0  0  0
   -2.3710   25.2370  -29.3500 O   0  0  0  0  0  0  0  0  0  0  0  0
   -4.4600   25.6840  -29.5700 H   0  0  0  0  0  0  0  0  0  0  0  0
   -5.1740   26.4470  -31.0660 H   0  0  0  0  0  0  0  0  0  0  0  0
   -8.8065   23.8252  -31.0670 H   0  0  0  0  0  0  0  0  0  0  0  0
   -9.6342   21.4370  -32.3583 H   0  0  0  0  0  0  0  0  0  0  0  0
   -8.7829   19.2913  -33.2715 H   0  0  0  0  0  0  0  0  0  0  0  0
   -5.6193   16.9623  -31.9888 H   0  0  0  0  0  0  0  0  0  0  0  0
   -7.3825   17.1800  -32.0593 H   0  0  0  0  0  0  0  0  0  0  0  0
   -6.7548   15.1700  -33.3386 H   0  0  0  0  0  0  0  0  0  0  0  0
   -7.3171   16.4731  -34.4802 H   0  0  0  0  0  0  0  0  0  0  0  0
   -3.9245   17.2723  -33.7960 H   0  0  0  0  0  0  0  0  0  0  0  0
   -4.1998   17.2150  -35.6076 H   0  0  0  0  0  0  0  0  0  0  0  0
   -4.8792   19.3713  -34.5866 H   0  0  0  0  0  0  0  0  0  0  0  0
   -6.2190   18.5028  -35.3939 H   0  0  0  0  0  0  0  0  0  0  0  0
   -4.8154   20.3687  -32.1261 H   0  0  0  0  0  0  0  0  0  0  0  0
   -2.6903   21.1593  -28.4868 H   0  0  0  0  0  0  0  0  0  0  0  0
   -1.9035   22.5408  -29.4114 H   0  0  0  0  0  0  0  0  0  0  0  0
   -3.7063   22.5268  -27.1112 H   0  0  0  0  0  0  0  0  0  0  0  0
   -4.2950   24.2550  -29.2090 H   0  0  0  0  0  0  0  0  0  0  0  0
   -2.3355   24.3727  -26.4372 H   0  0  0  0  0  0  0  0  0  0  0  0
   -1.2580   23.1066  -27.1528 H   0  0  0  0  0  0  0  0  0  0  0  0
   -2.9330   24.5550  -29.8770 H   0  0  0  0  0  0  0  0  0  0  0  0
  1  2  1  0
  2  3  2  0
  2  4  1  0
  4  5  2  0
  5  6  1  0
  6  7  2  0
  7  8  1  0
  8  9  2  0
  9 10  1  0
 10 11  1  0
 11 12  1  0
 12 13  1  0
 13 14  1  0
 14 15  1  0
  9 16  1  0
 16 17  2  0
 17 18  1  0
 18 19  1  0
 19 20  2  0
 19 21  1  0
 21 22  1  0
 22 23  1  0
 23 24  1  0
 23 25  1  0
 25 26  1  0
 26 27  2  0
 26 28  1  0
 18  4  1  0
 17  6  1  0
 15 10  1  0
  1 29  1  0
  1 30  1  0
  5 31  1  0
  7 32  1  0
  8 33  1  0
 11 34  1  0
 11 35  1  0
 12 36  1  0
 12 37  1  0
 14 38  1  0
 14 39  1  0
 15 40  1  0
 15 41  1  0
 16 42  1  0
 22 43  1  0
 22 44  1  0
 23 45  1  1
 24 46  1  0
 25 47  1  0
 25 48  1  0
 28 49  1  0
M  END
>  <smiles>  (40) 
NC(=O)c1cc2ccc(N3CCOCC3)cc2n1C(=O)OCC(O)CC(=O)O

>  <score_type>  (40) 
oracle

>  <origin>  (40) 
adg

>  <m_score__min__energy>  (40) 
-9.1899999999999995

>  <m_primary>  (40) 
energy

$$$$
41:0
     RDKit          3D

 44 45  0  0  0  0  0  0  0  0999 V2000
   -1.5030   20.0870  -28.8050 C   0  0  0  0  0  0  0  0  0  0  0  0
   -1.9090   21.4800  -28.9310 N   0  0  0  0  0  0  0  0  0  0  0  0
   -2.2050   22.1990  -27.7130 C   0  0  0  0  0  0  0  0  0  0  0  0
   -1.4090   23.4920  -27.6390 C   0  0  0  0  0  0  0  0  0  0  0  0
   -2.2740   24.5950  -28.1170 C   0  0  0  0  0  0  0  0  0  0  0  0
   -3.2400   24.9190  -27.3540 O   0  0  0  0  0  0  0  0  0  0  0  0
   -2.0810   25.2620  -29.3180 O   0  0  0  0  0  0  0  0  0  0  0  0
   -1.9820   22.0200  -30.2270 C   0  0  0  0  0  0  0  0  0  0  0  0
   -1.0650   22.8120  -30.5800 O   0  0  0  0  0  0  0  0  0  0  0  0
   -3.0410   21.7380  -31.2140 C   0  0  0  0  0  0  0  0  0  0  0  0
   -4.0830   22.7450  -31.0780 C   0  0  0  0  0  0  0  0  0  0  0  0
   -3.5930   23.9390  -30.8870 O   0  0  0  0  0  0  0  0  0  0  0  0
   -5.4690   22.6650  -31.1130 N   0  0  0  0  0  0  0  0  0  0  0  0
   -6.4170   23.4800  -30.5940 C   0  0  0  0  0  0  0  0  0  0  0  0
   -6.3220   24.6940  -29.8280 C   0  0  0  0  0  0  0  0  0  0  0  0
   -5.1980   24.8400  -28.9020 N   0  0  0  0  0  0  0  0  0  0  0  0
   -7.0650   25.6850  -29.8150 O   0  0  0  0  0  0  0  0  0  0  0  0
   -7.6820   22.9430  -30.9190 C   0  0  0  0  0  0  0  0  0  0  0  0
   -7.4870   21.8030  -31.6360 C   0  0  0  0  0  0  0  0  0  0  0  0
   -8.3930   20.9300  -32.1750 C   0  0  0  0  0  0  0  0  0  0  0  0
   -7.9840   19.8220  -32.8740 C   0  0  0  0  0  0  0  0  0  0  0  0
   -6.6310   19.6220  -33.0100 C   0  0  0  0  0  0  0  0  0  0  0  0
   -6.1340   18.4200  -33.7660 C   0  0  0  0  0  0  0  0  0  0  0  0
   -5.8820   18.7180  -35.0810 F   0  0  0  0  0  0  0  0  0  0  0  0
   -7.0370   17.3910  -33.7220 F   0  0  0  0  0  0  0  0  0  0  0  0
   -5.7190   20.5200  -32.4540 C   0  0  0  0  0  0  0  0  0  0  0  0
   -6.1310   21.6410  -31.7480 C   0  0  0  0  0  0  0  0  0  0  0  0
   -1.4259   19.8224  -27.7401 H   0  0  0  0  0  0  0  0  0  0  0  0
   -2.2505   19.4419  -29.2899 H   0  0  0  0  0  0  0  0  0  0  0  0
   -0.5260   19.9445  -29.2899 H   0  0  0  0  0  0  0  0  0  0  0  0
   -3.2790   22.4353  -27.6862 H   0  0  0  0  0  0  0  0  0  0  0  0
   -1.9291   21.5670  -26.8560 H   0  0  0  0  0  0  0  0  0  0  0  0
   -1.1031   23.6822  -26.5996 H   0  0  0  0  0  0  0  0  0  0  0  0
   -0.5061   23.4190  -28.2631 H   0  0  0  0  0  0  0  0  0  0  0  0
   -1.7400   24.7810  -30.1440 H   0  0  0  0  0  0  0  0  0  0  0  0
   -2.6203   21.7750  -32.2297 H   0  0  0  0  0  0  0  0  0  0  0  0
   -3.4611   20.7366  -31.0385 H   0  0  0  0  0  0  0  0  0  0  0  0
   -4.2820   25.2210  -29.2540 H   0  0  0  0  0  0  0  0  0  0  0  0
   -5.3420   24.5560  -27.9000 H   0  0  0  0  0  0  0  0  0  0  0  0
   -8.6560   23.3718  -30.6408 H   0  0  0  0  0  0  0  0  0  0  0  0
   -9.4687   21.1200  -32.0455 H   0  0  0  0  0  0  0  0  0  0  0  0
   -8.7114   19.1207  -33.3089 H   0  0  0  0  0  0  0  0  0  0  0  0
   -5.1993   18.1127  -33.2742 H   0  0  0  0  0  0  0  0  0  0  0  0
   -4.6421   20.3337  -32.5791 H   0  0  0  0  0  0  0  0  0  0  0  0
  1  2  1  0
  2  3  1  0
  3  4  1  0
  4  5  1  0
  5  6  2  0
  5  7  1  0
  2  8  1  0
  8  9  2  0
  8 10  1  0
 10 11  1  0
 11 12  2  0
 11 13  1  0
 13 14  1  0
 14 15  1  0
 15 16  1  0
 15 17  2  0
 14 18  2  0
 18 19  1  0
 19 20  2  0
 20 21  1  0
 21 22  2  0
 22 23  1  0
 23 24  1  0
 23 25  1  0
 22 26  1  0
 26 27  2  0
 27 13  1  0
 27 19  1  0
  1 28  1  0
  1 29  1  0
  1 30  1  0
  3 31  1  0
  3 32  1  0
  4 33  1  0
  4 34  1  0
  7 35  1  0
 10 36  1  0
 10 37  1  0
 16 38  1  0
 16 39  1  0
 18 40  1  0
 20 41  1  0
 21 42  1  0
 23 43  1  0
 26 44  1  0
M  END
>  <smiles>  (41) 
CN(CCC(=O)O)C(=O)CC(=O)n1c(C(N)=O)cc2ccc(C(F)F)cc21

>  <score_type>  (41) 
oracle

>  <origin>  (41) 
adg

>  <m_score__min__energy>  (41) 
-9.6300000000000008

>  <m_primary>  (41) 
energy

$$$$
42:0
     RDKit          3D

 43 44  0  0  0  0  0  0  0  0999 V2000
   -3.3490   20.8400  -33.3290 C   0  0  0  0  0  0  0  0  0  0  0  0
   -3.3350   21.5030  -32.0600 N   0  0  0  0  0  0  0  0  0  0  0  0
   -2.3620   20.8940  -31.1020 C   0  0  0  0  0  0  0  0  0  0  0  0
   -2.5420   21.4230  -29.7430 C   0  0  0  0  0  0  0  0  0  0  0  0
   -3.1300   20.7220  -28.8710 O   0  0  0  0  0  0  0  0  0  0  0  0
   -2.0610   22.7190  -29.3940 N   0  0  0  0  0  0  0  0  0  0  0  0
   -2.2650   23.1910  -28.0430 C   0  0  0  0  0  0  0  0  0  0  0  0
   -2.7900   24.5680  -27.9920 C   0  0  0  0  0  0  0  0  0  0  0  0
   -2.3160   25.5280  -28.6650 O   0  0  0  0  0  0  0  0  0  0  0  0
   -3.8810   24.8940  -27.1670 O   0  0  0  0  0  0  0  0  0  0  0  0
   -4.0610   22.5940  -31.5900 C   0  0  0  0  0  0  0  0  0  0  0  0
   -3.3020   23.6540  -31.4000 O   0  0  0  0  0  0  0  0  0  0  0  0
   -5.4010   22.8040  -31.2670 N   0  0  0  0  0  0  0  0  0  0  0  0
   -6.0950   23.8450  -30.8050 C   0  0  0  0  0  0  0  0  0  0  0  0
   -5.6230   25.0470  -30.0980 C   0  0  0  0  0  0  0  0  0  0  0  0
   -4.4570   25.7420  -30.5760 N   0  0  0  0  0  0  0  0  0  0  0  0
   -6.1660   25.5310  -29.0860 O   0  0  0  0  0  0  0  0  0  0  0  0
   -7.4730   23.6240  -30.8740 C   0  0  0  0  0  0  0  0  0  0  0  0
   -7.6180   22.3850  -31.3980 C   0  0  0  0  0  0  0  0  0  0  0  0
   -8.7890   21.6850  -31.6720 C   0  0  0  0  0  0  0  0  0  0  0  0
   -8.7260   20.4250  -32.2120 C   0  0  0  0  0  0  0  0  0  0  0  0
   -7.4840   19.8980  -32.4620 C   0  0  0  0  0  0  0  0  0  0  0  0
   -7.4120   18.5330  -33.0460 C   0  0  0  0  0  0  0  0  0  0  0  0
   -7.0790   17.6330  -32.0370 F   0  0  0  0  0  0  0  0  0  0  0  0
   -6.3870   18.5040  -33.9910 F   0  0  0  0  0  0  0  0  0  0  0  0
   -6.3180   20.6140  -32.1790 C   0  0  0  0  0  0  0  0  0  0  0  0
   -6.3730   21.8930  -31.6310 C   0  0  0  0  0  0  0  0  0  0  0  0
   -3.3720   19.7513  -33.1736 H   0  0  0  0  0  0  0  0  0  0  0  0
   -4.2408   21.1487  -33.8941 H   0  0  0  0  0  0  0  0  0  0  0  0
   -2.4449   21.1107  -33.8941 H   0  0  0  0  0  0  0  0  0  0  0  0
   -2.5121   19.8044  -31.0843 H   0  0  0  0  0  0  0  0  0  0  0  0
   -1.3447   21.1436  -31.4377 H   0  0  0  0  0  0  0  0  0  0  0  0
   -1.5760   23.2850  -30.1310 H   0  0  0  0  0  0  0  0  0  0  0  0
   -2.9810   22.5231  -27.5417 H   0  0  0  0  0  0  0  0  0  0  0  0
   -1.2863   23.1909  -27.5408 H   0  0  0  0  0  0  0  0  0  0  0  0
   -4.6600   25.4600  -27.5240 H   0  0  0  0  0  0  0  0  0  0  0  0
   -4.1600   25.6630  -31.5930 H   0  0  0  0  0  0  0  0  0  0  0  0
   -3.8750   26.3330  -29.9590 H   0  0  0  0  0  0  0  0  0  0  0  0
   -8.2730   24.3135  -30.5665 H   0  0  0  0  0  0  0  0  0  0  0  0
   -9.7659   22.1420  -31.4556 H   0  0  0  0  0  0  0  0  0  0  0  0
   -9.6405   19.8566  -32.4369 H   0  0  0  0  0  0  0  0  0  0  0  0
   -8.3770   18.2712  -33.5045 H   0  0  0  0  0  0  0  0  0  0  0  0
   -5.3394   20.1594  -32.3928 H   0  0  0  0  0  0  0  0  0  0  0  0
  1  2  1  0
  2  3  1  0
  3  4  1  0
  4  5  2  0
  4  6  1  0
  6  7  1  0
  7  8  1  0
  8  9  2  0
  8 10  1  0
  2 11  1  0
 11 12  2  0
 11 13  1  0
 13 14  1  0
 14 15  1  0
 15 16  1  0
 15 17  2  0
 14 18  2  0
 18 19  1  0
 19 20  2  0
 20 21  1  0
 21 22  2  0
 22 23  1  0
 23 24  1  0
 23 25  1  0
 22 26  1  0
 26 27  2  0
 27 13  1  0
 27 19  1  0
  1 28  1  0
  1 29  1  0
  1 30  1  0
  3 31  1  0
  3 32  1  0
  6 33  1  0
  7 34  1  0
  7 35  1  0
 10 36  1  0
 16 37  1  0
 16 38  1  0
 18 39  1  0
 20 40  1  0
 21 41  1  0
 23 42  1  0
 26 43  1  0
M  END
>  <smiles>  (42) 
CN(CC(=O)NCC(=O)O)C(=O)n1c(C(N)=O)cc2ccc(C(F)F)cc21

>  <score_type>  (42) 
oracle

>  <origin>  (42) 
adg

>  <m_score__min__energy>  (42) 
-9.0899999999999999

>  <m_primary>  (42) 
energy

$$$$
43:0
     RDKit          3D

 45 46  0  0  0  0  0  0  0  0999 V2000
   -4.6070   17.4210  -35.3280 C   0  0  0  0  0  0  0  0  0  0  0  0
   -5.1360   17.1700  -34.0190 N   0  0  0  0  0  0  0  0  0  0  0  0
   -4.7210   15.9810  -33.2690 C   0  0  0  0  0  0  0  0  0  0  0  0
   -6.0660   18.0610  -33.4210 C   0  0  0  0  0  0  0  0  0  0  0  0
   -6.4310   19.0870  -34.0530 O   0  0  0  0  0  0  0  0  0  0  0  0
   -6.6140   17.8060  -32.0670 C   0  0  0  0  0  0  0  0  0  0  0  0
   -8.0520   18.2700  -31.9170 C   0  0  0  0  0  0  0  0  0  0  0  0
   -8.0210   19.7630  -31.7630 C   0  0  0  0  0  0  0  0  0  0  0  0
   -9.1070   20.5090  -32.1030 C   0  0  0  0  0  0  0  0  0  0  0  0
   -9.0670   21.8800  -31.9580 C   0  0  0  0  0  0  0  0  0  0  0  0
   -7.9200   22.4720  -31.4680 C   0  0  0  0  0  0  0  0  0  0  0  0
   -7.6030   23.7870  -31.2230 C   0  0  0  0  0  0  0  0  0  0  0  0
   -6.2950   23.8640  -30.7210 C   0  0  0  0  0  0  0  0  0  0  0  0
   -5.6800   25.1250  -30.3680 C   0  0  0  0  0  0  0  0  0  0  0  0
   -4.2920   25.3480  -30.6910 N   0  0  0  0  0  0  0  0  0  0  0  0
   -6.2420   26.0830  -29.7900 O   0  0  0  0  0  0  0  0  0  0  0  0
   -5.8330   22.6070  -30.6650 N   0  0  0  0  0  0  0  0  0  0  0  0
   -4.5550   22.1940  -30.2210 C   0  0  0  0  0  0  0  0  0  0  0  0
   -4.0130   21.0970  -30.4840 O   0  0  0  0  0  0  0  0  0  0  0  0
   -3.7820   23.0510  -29.4130 O   0  0  0  0  0  0  0  0  0  0  0  0
   -2.4020   22.7930  -29.2010 C   0  0  0  0  0  0  0  0  0  0  0  0
   -1.6670   24.0650  -29.1370 C   0  0  0  0  0  0  0  0  0  0  0  0
   -0.4210   24.1830  -29.2550 O   0  0  0  0  0  0  0  0  0  0  0  0
   -2.3750   25.2540  -28.9290 O   0  0  0  0  0  0  0  0  0  0  0  0
   -6.7940   21.7550  -31.1100 C   0  0  0  0  0  0  0  0  0  0  0  0
   -6.8780   20.3830  -31.2720 C   0  0  0  0  0  0  0  0  0  0  0  0
   -3.6164   17.8910  -35.2392 H   0  0  0  0  0  0  0  0  0  0  0  0
   -4.5144   16.4708  -35.8744 H   0  0  0  0  0  0  0  0  0  0  0  0
   -5.2844   18.0937  -35.8744 H   0  0  0  0  0  0  0  0  0  0  0  0
   -4.7921   16.1846  -32.1903 H   0  0  0  0  0  0  0  0  0  0  0  0
   -5.3777   15.1371  -33.5269 H   0  0  0  0  0  0  0  0  0  0  0  0
   -3.6818   15.7290  -33.5269 H   0  0  0  0  0  0  0  0  0  0  0  0
   -6.5710   16.7249  -31.8684 H   0  0  0  0  0  0  0  0  0  0  0  0
   -6.0054   18.3771  -31.3505 H   0  0  0  0  0  0  0  0  0  0  0  0
   -8.6322   17.9949  -32.8101 H   0  0  0  0  0  0  0  0  0  0  0  0
   -8.5269   17.7965  -31.0451 H   0  0  0  0  0  0  0  0  0  0  0  0
  -10.0128   20.0208  -32.4918 H   0  0  0  0  0  0  0  0  0  0  0  0
   -9.9382   22.4942  -32.2294 H   0  0  0  0  0  0  0  0  0  0  0  0
   -8.2703   24.6446  -31.3938 H   0  0  0  0  0  0  0  0  0  0  0  0
   -4.0000   25.7610  -31.5930 H   0  0  0  0  0  0  0  0  0  0  0  0
   -3.6040   25.0700  -29.9650 H   0  0  0  0  0  0  0  0  0  0  0  0
   -2.2727   22.2473  -28.2547 H   0  0  0  0  0  0  0  0  0  0  0  0
   -2.0117   22.1867  -30.0317 H   0  0  0  0  0  0  0  0  0  0  0  0
   -3.3190   25.2190  -28.5600 H   0  0  0  0  0  0  0  0  0  0  0  0
   -6.0107   19.7622  -31.0030 H   0  0  0  0  0  0  0  0  0  0  0  0
  1  2  1  0
  2  3  1  0
  2  4  1  0
  4  5  2  0
  4  6  1  0
  6  7  1  0
  7  8  1  0
  8  9  2  0
  9 10  1  0
 10 11  2  0
 11 12  1  0
 12 13  2  0
 13 14  1  0
 14 15  1  0
 14 16  2  0
 13 17  1  0
 17 18  1  0
 18 19  2  0
 18 20  1  0
 20 21  1  0
 21 22  1  0
 22 23  2  0
 22 24  1  0
 17 25  1  0
 25 26  2  0
 26  8  1  0
 25 11  1  0
  1 27  1  0
  1 28  1  0
  1 29  1  0
  3 30  1  0
  3 31  1  0
  3 32  1  0
  6 33  1  0
  6 34  1  0
  7 35  1  0
  7 36  1  0
  9 37  1  0
 10 38  1  0
 12 39  1  0
 15 40  1  0
 15 41  1  0
 21 42  1  0
 21 43  1  0
 24 44  1  0
 26 45  1  0
M  END
>  <smiles>  (43) 
CN(C)C(=O)CCc1ccc2cc(C(N)=O)n(C(=O)OCC(=O)O)c2c1

>  <score_type>  (43) 
oracle

>  <origin>  (43) 
adg

>  <m_score__min__energy>  (43) 
-9.7599999999999998

>  <m_primary>  (43) 
energy

$$$$
44:0
     RDKit          3D

 41 43  0  0  1  0  0  0  0  0999 V2000
   -6.5980   25.7880  -28.9660 N   0  0  0  0  0  0  0  0  0  0  0  0
   -6.1010   25.2120  -30.1530 C   0  0  0  0  0  0  0  0  0  0  0  0
   -5.3550   25.9820  -30.8470 O   0  0  0  0  0  0  0  0  0  0  0  0
   -6.3300   23.8960  -30.6600 C   0  0  0  0  0  0  0  0  0  0  0  0
   -7.6210   23.4030  -30.8950 C   0  0  0  0  0  0  0  0  0  0  0  0
   -7.5500   22.1200  -31.3800 C   0  0  0  0  0  0  0  0  0  0  0  0
   -8.5290   21.2250  -31.7550 C   0  0  0  0  0  0  0  0  0  0  0  0
   -8.1940   19.9830  -32.2130 C   0  0  0  0  0  0  0  0  0  0  0  0
   -6.8600   19.6400  -32.2920 C   0  0  0  0  0  0  0  0  0  0  0  0
   -6.4870   18.3320  -32.7800 N   0  0  0  0  0  0  0  0  0  0  0  0
   -7.5600   17.4090  -33.0660 C   0  0  0  0  0  0  0  0  0  0  0  0
   -7.1870   16.1600  -33.7530 C   0  0  0  0  0  0  0  0  0  0  0  0
   -5.7440   15.7780  -33.6930 C   0  0  0  0  0  0  0  0  0  0  0  0
   -4.9660   16.5210  -32.6430 C   0  0  0  0  0  0  0  0  0  0  0  0
   -5.0870   18.0150  -32.9520 C   0  0  1  0  0  0  0  0  0  0  0  0
   -4.7010   18.3350  -34.3290 C   0  0  0  0  0  0  0  0  0  0  0  0
   -3.4620   18.4880  -34.6010 O   0  0  0  0  0  0  0  0  0  0  0  0
   -5.6510   18.4690  -35.3100 O   0  0  0  0  0  0  0  0  0  0  0  0
   -5.8880   20.5600  -31.9080 C   0  0  0  0  0  0  0  0  0  0  0  0
   -6.2050   21.8230  -31.4420 C   0  0  0  0  0  0  0  0  0  0  0  0
   -5.4950   22.8970  -31.0070 N   0  0  0  0  0  0  0  0  0  0  0  0
   -4.0830   22.9070  -30.9510 C   0  0  0  0  0  0  0  0  0  0  0  0
   -3.4880   21.7730  -30.9640 O   0  0  0  0  0  0  0  0  0  0  0  0
   -3.2650   23.9960  -30.8820 O   0  0  0  0  0  0  0  0  0  0  0  0
   -6.0490   25.7080  -28.0580 H   0  0  0  0  0  0  0  0  0  0  0  0
   -7.5260   26.3070  -28.9950 H   0  0  0  0  0  0  0  0  0  0  0  0
   -8.5524   23.9607  -30.7174 H   0  0  0  0  0  0  0  0  0  0  0  0
   -9.5882   21.5135  -31.6848 H   0  0  0  0  0  0  0  0  0  0  0  0
   -8.9742   19.2683  -32.5138 H   0  0  0  0  0  0  0  0  0  0  0  0
   -8.0305   17.1368  -32.1097 H   0  0  0  0  0  0  0  0  0  0  0  0
   -8.2219   17.9399  -33.7660 H   0  0  0  0  0  0  0  0  0  0  0  0
   -7.7692   15.3427  -33.3024 H   0  0  0  0  0  0  0  0  0  0  0  0
   -7.4003   16.3355  -34.8178 H   0  0  0  0  0  0  0  0  0  0  0  0
   -5.6783   14.7014  -33.4772 H   0  0  0  0  0  0  0  0  0  0  0  0
   -5.3015   16.0385  -34.6658 H   0  0  0  0  0  0  0  0  0  0  0  0
   -5.3817   16.3086  -31.6470 H   0  0  0  0  0  0  0  0  0  0  0  0
   -3.9114   16.2084  -32.6485 H   0  0  0  0  0  0  0  0  0  0  0  0
   -4.4197   18.5891  -32.2924 H   0  0  0  0  0  0  0  0  0  0  0  0
   -6.5500   18.8740  -35.0670 H   0  0  0  0  0  0  0  0  0  0  0  0
   -4.8288   20.2716  -31.9778 H   0  0  0  0  0  0  0  0  0  0  0  0
   -3.4910   24.9290  -31.2220 H   0  0  0  0  0  0  0  0  0  0  0  0
  1  2  1  0
  2  3  2  0
  2  4  1  0
  4  5  2  0
  5  6  1  0
  6  7  2  0
  7  8  1  0
  8  9  2  0
  9 10  1  0
 10 11  1  0
 11 12  1  0
 12 13  1  0
 13 14  1  0
 14 15  1  0
 15 16  1  0
 16 17  2  0
 16 18  1  0
  9 19  1  0
 19 20  2  0
 20 21  1  0
 21 22  1  0
 22 23  2  0
 22 24  1  0
 21  4  1  0
 20  6  1  0
 15 10  1  0
  1 25  1  0
  1 26  1  0
  5 27  1  0
  7 28  1  0
  8 29  1  0
 11 30  1  0
 11 31  1  0
 12 32  1  0
 12 33  1  0
 13 34  1  0
 13 35  1  0
 14 36  1  0
 14 37  1  0
 15 38  1  1
 18 39  1  0
 19 40  1  0
 24 41  1  0
M  END
>  <smiles>  (44) 
NC(=O)c1cc2ccc(N3CCCCC3C(=O)O)cc2n1C(=O)O

>  <score_type>  (44) 
oracle

>  <origin>  (44) 
adg

>  <m_score__min__energy>  (44) 
-8.3499999999999996

>  <m_primary>  (44) 
energy

$$$$
45:0
     RDKit          3D

 51 52  0  0  0  0  0  0  0  0999 V2000
   -1.6200   20.1300  -26.3300 C   0  0  0  0  0  0  0  0  0  0  0  0
   -1.4850   21.1780  -27.3200 N   0  0  0  0  0  0  0  0  0  0  0  0
   -1.6160   20.9120  -28.7540 C   0  0  0  0  0  0  0  0  0  0  0  0
   -2.9420   21.3900  -29.2840 C   0  0  0  0  0  0  0  0  0  0  0  0
   -2.8020   22.6660  -29.7980 O   0  0  0  0  0  0  0  0  0  0  0  0
   -2.5770   22.7630  -31.1370 C   0  0  0  0  0  0  0  0  0  0  0  0
   -3.6310   22.3190  -32.0410 C   0  0  0  0  0  0  0  0  0  0  0  0
   -3.2030   21.8270  -33.1590 O   0  0  0  0  0  0  0  0  0  0  0  0
   -5.0270   22.3400  -31.8740 N   0  0  0  0  0  0  0  0  0  0  0  0
   -5.8350   23.1950  -31.2260 C   0  0  0  0  0  0  0  0  0  0  0  0
   -5.5870   24.5480  -30.7480 C   0  0  0  0  0  0  0  0  0  0  0  0
   -4.3030   25.1220  -30.5630 N   0  0  0  0  0  0  0  0  0  0  0  0
   -6.5690   25.2970  -30.4780 O   0  0  0  0  0  0  0  0  0  0  0  0
   -7.1430   22.6790  -31.1820 C   0  0  0  0  0  0  0  0  0  0  0  0
   -7.1110   21.4790  -31.8330 C   0  0  0  0  0  0  0  0  0  0  0  0
   -8.1350   20.5850  -32.0630 C   0  0  0  0  0  0  0  0  0  0  0  0
   -7.8850   19.4170  -32.7490 C   0  0  0  0  0  0  0  0  0  0  0  0
   -6.5990   19.1860  -33.1860 C   0  0  0  0  0  0  0  0  0  0  0  0
   -6.3020   17.9160  -33.9390 C   0  0  0  0  0  0  0  0  0  0  0  0
   -5.1610   17.3680  -33.3890 F   0  0  0  0  0  0  0  0  0  0  0  0
   -6.1020   18.1760  -35.2790 F   0  0  0  0  0  0  0  0  0  0  0  0
   -7.3270   16.9990  -33.8090 F   0  0  0  0  0  0  0  0  0  0  0  0
   -5.5760   20.1060  -32.9410 C   0  0  0  0  0  0  0  0  0  0  0  0
   -5.8170   21.2860  -32.2500 C   0  0  0  0  0  0  0  0  0  0  0  0
   -1.2170   22.5110  -26.8960 C   0  0  0  0  0  0  0  0  0  0  0  0
   -0.4970   22.7590  -25.8870 O   0  0  0  0  0  0  0  0  0  0  0  0
   -1.7500   23.6140  -27.5990 N   0  0  0  0  0  0  0  0  0  0  0  0
   -1.4240   24.9420  -27.0970 C   0  0  0  0  0  0  0  0  0  0  0  0
   -1.2560   25.8400  -28.3230 C   0  0  0  0  0  0  0  0  0  0  0  0
   -2.0610   25.3000  -29.3250 O   0  0  0  0  0  0  0  0  0  0  0  0
   -1.5636   20.5679  -25.3225 H   0  0  0  0  0  0  0  0  0  0  0  0
   -2.5903   19.6277  -26.4577 H   0  0  0  0  0  0  0  0  0  0  0  0
   -0.8087   19.3982  -26.4577 H   0  0  0  0  0  0  0  0  0  0  0  0
   -0.8082   21.4323  -29.2895 H   0  0  0  0  0  0  0  0  0  0  0  0
   -1.5525   19.8251  -28.9111 H   0  0  0  0  0  0  0  0  0  0  0  0
   -3.2854   20.7108  -30.0782 H   0  0  0  0  0  0  0  0  0  0  0  0
   -3.6790   21.4033  -28.4675 H   0  0  0  0  0  0  0  0  0  0  0  0
   -2.3792   23.8219  -31.3598 H   0  0  0  0  0  0  0  0  0  0  0  0
   -1.7425   22.0719  -31.3266 H   0  0  0  0  0  0  0  0  0  0  0  0
   -4.1090   25.7770  -29.7730 H   0  0  0  0  0  0  0  0  0  0  0  0
   -3.4940   24.9240  -31.1970 H   0  0  0  0  0  0  0  0  0  0  0  0
   -8.0202   23.1501  -30.7145 H   0  0  0  0  0  0  0  0  0  0  0  0
   -9.1498   20.8040  -31.6994 H   0  0  0  0  0  0  0  0  0  0  0  0
   -8.6880   18.6905  -32.9421 H   0  0  0  0  0  0  0  0  0  0  0  0
   -4.5597   19.8911  -33.3028 H   0  0  0  0  0  0  0  0  0  0  0  0
   -2.3470   23.4520  -28.4370 H   0  0  0  0  0  0  0  0  0  0  0  0
   -2.2378   25.3176  -26.4594 H   0  0  0  0  0  0  0  0  0  0  0  0
   -0.5077   24.9236  -26.4887 H   0  0  0  0  0  0  0  0  0  0  0  0
   -1.5775   26.8657  -28.0892 H   0  0  0  0  0  0  0  0  0  0  0  0
   -0.2038   25.8854  -28.6406 H   0  0  0  0  0  0  0  0  0  0  0  0
   -1.6420   24.4980  -29.7280 H   0  0  0  0  0  0  0  0  0  0  0  0
  1  2  1  0
  2  3  1  0
  3  4  1  0
  4  5  1  0
  5  6  1  0
  6  7  1  0
  7  8  2  0
  7  9  1  0
  9 10  1  0
 10 11  1  0
 11 12  1  0
 11 13  2  0
 10 14  2  0
 14 15  1  0
 15 16  2  0
 16 17  1  0
 17 18  2  0
 18 19  1  0
 19 20  1  0
 19 21  1  0
 19 22  1  0
 18 23  1  0
 23 24  2  0
  2 25  1  0
 25 26  2  0
 25 27  1  0
 27 28  1  0
 28 29  1  0
 29 30  1  0
 24  9  1  0
 24 15  1  0
  1 31  1  0
  1 32  1  0
  1 33  1  0
  3 34  1  0
  3 35  1  0
  4 36  1  0
  4 37  1  0
  6 38  1  0
  6 39  1  0
 12 40  1  0
 12 41  1  0
 14 42  1  0
 16 43  1  0
 17 44  1  0
 23 45  1  0
 27 46  1  0
 28 47  1  0
 28 48  1  0
 29 49  1  0
 29 50  1  0
 30 51  1  0
M  END
>  <smiles>  (45) 
CN(CCOCC(=O)n1c(C(N)=O)cc2ccc(C(F)(F)F)cc21)C(=O)NCCO

>  <score_type>  (45) 
oracle

>  <origin>  (45) 
adg

>  <m_score__min__energy>  (45) 
-8.1699999999999999

>  <m_primary>  (45) 
energy

$$$$
46:0
     RDKit          3D

 41 42  0  0  0  0  0  0  0  0999 V2000
   -0.6710   23.7680  -28.6070 C   0  0  0  0  0  0  0  0  0  0  0  0
   -2.0930   24.1540  -28.8120 C   0  0  0  0  0  0  0  0  0  0  0  0
   -2.3170   25.2980  -29.3110 O   0  0  0  0  0  0  0  0  0  0  0  0
   -3.1350   23.2560  -28.4540 N   0  0  0  0  0  0  0  0  0  0  0  0
   -4.2120   23.6790  -27.5770 C   0  0  0  0  0  0  0  0  0  0  0  0
   -3.0640   21.9070  -29.0100 C   0  0  0  0  0  0  0  0  0  0  0  0
   -3.2220   22.0460  -30.4910 C   0  0  0  0  0  0  0  0  0  0  0  0
   -4.2080   23.0280  -30.9330 C   0  0  0  0  0  0  0  0  0  0  0  0
   -3.7130   24.1820  -31.2060 O   0  0  0  0  0  0  0  0  0  0  0  0
   -5.5980   22.8880  -31.0970 N   0  0  0  0  0  0  0  0  0  0  0  0
   -6.5210   23.8140  -30.7360 C   0  0  0  0  0  0  0  0  0  0  0  0
   -6.4160   25.1020  -30.0940 C   0  0  0  0  0  0  0  0  0  0  0  0
   -5.2260   25.9200  -30.3030 N   0  0  0  0  0  0  0  0  0  0  0  0
   -7.2470   25.6520  -29.3400 O   0  0  0  0  0  0  0  0  0  0  0  0
   -7.7790   23.2970  -31.0970 C   0  0  0  0  0  0  0  0  0  0  0  0
   -7.6200   22.0800  -31.6660 C   0  0  0  0  0  0  0  0  0  0  0  0
   -8.5380   21.1910  -32.1790 C   0  0  0  0  0  0  0  0  0  0  0  0
   -8.1270   20.0060  -32.7170 C   0  0  0  0  0  0  0  0  0  0  0  0
   -6.7940   19.7250  -32.7340 C   0  0  0  0  0  0  0  0  0  0  0  0
   -6.3190   18.4450  -33.3140 C   0  0  0  0  0  0  0  0  0  0  0  0
   -5.1330   18.0200  -32.7400 F   0  0  0  0  0  0  0  0  0  0  0  0
   -6.0980   18.6160  -34.6790 F   0  0  0  0  0  0  0  0  0  0  0  0
   -7.3120   17.4690  -33.1970 F   0  0  0  0  0  0  0  0  0  0  0  0
   -5.8780   20.6300  -32.2130 C   0  0  0  0  0  0  0  0  0  0  0  0
   -6.2490   21.8370  -31.6580 C   0  0  0  0  0  0  0  0  0  0  0  0
   -0.4584   23.7103  -27.5293 H   0  0  0  0  0  0  0  0  0  0  0  0
   -0.4868   22.7874  -29.0701 H   0  0  0  0  0  0  0  0  0  0  0  0
   -0.0163   24.5209  -29.0701 H   0  0  0  0  0  0  0  0  0  0  0  0
   -3.9009   23.5568  -26.5290 H   0  0  0  0  0  0  0  0  0  0  0  0
   -4.4472   24.7363  -27.7688 H   0  0  0  0  0  0  0  0  0  0  0  0
   -5.1039   23.0644  -27.7688 H   0  0  0  0  0  0  0  0  0  0  0  0
   -2.0920   21.4497  -28.7733 H   0  0  0  0  0  0  0  0  0  0  0  0
   -3.8477   21.2617  -28.5864 H   0  0  0  0  0  0  0  0  0  0  0  0
   -2.2465   22.3346  -30.9094 H   0  0  0  0  0  0  0  0  0  0  0  0
   -3.5890   21.0717  -30.8462 H   0  0  0  0  0  0  0  0  0  0  0  0
   -5.2400   26.6850  -31.0290 H   0  0  0  0  0  0  0  0  0  0  0  0
   -4.4010   25.7020  -29.7080 H   0  0  0  0  0  0  0  0  0  0  0  0
   -8.7426   23.8040  -30.9407 H   0  0  0  0  0  0  0  0  0  0  0  0
   -9.6097   21.4376  -32.1550 H   0  0  0  0  0  0  0  0  0  0  0  0
   -8.8566   19.2928  -33.1282 H   0  0  0  0  0  0  0  0  0  0  0  0
   -4.8090   20.3726  -32.2444 H   0  0  0  0  0  0  0  0  0  0  0  0
  1  2  1  0
  2  3  2  0
  2  4  1  0
  4  5  1  0
  4  6  1  0
  6  7  1  0
  7  8  1  0
  8  9  2  0
  8 10  1  0
 10 11  1  0
 11 12  1  0
 12 13  1  0
 12 14  2  0
 11 15  2  0
 15 16  1  0
 16 17  2  0
 17 18  1  0
 18 19  2  0
 19 20  1  0
 20 21  1  0
 20 22  1  0
 20 23  1  0
 19 24  1  0
 24 25  2  0
 25 10  1  0
 25 16  1  0
  1 26  1  0
  1 27  1  0
  1 28  1  0
  5 29  1  0
  5 30  1  0
  5 31  1  0
  6 32  1  0
  6 33  1  0
  7 34  1  0
  7 35  1  0
 13 36  1  0
 13 37  1  0
 15 38  1  0
 17 39  1  0
 18 40  1  0
 24 41  1  0
M  END
>  <smiles>  (46) 
CC(=O)N(C)CCC(=O)n1c(C(N)=O)cc2ccc(C(F)(F)F)cc21

>  <score_type>  (46) 
oracle

>  <origin>  (46) 
adg

>  <m_score__min__energy>  (46) 
-8.5899999999999999

>  <m_primary>  (46) 
energy

$$$$
47:0
     RDKit          3D

 42 44  0  0  0  0  0  0  0  0999 V2000
   -2.5570   21.0250  -29.6870 C   0  0  0  0  0  0  0  0  0  0  0  0
   -3.3230   22.2190  -29.9110 N   0  0  0  0  0  0  0  0  0  0  0  0
   -3.1030   23.2540  -28.8360 C   0  0  0  0  0  0  0  0  0  0  0  0
   -2.6190   24.4900  -29.4990 C   0  0  0  0  0  0  0  0  0  0  0  0
   -1.4530   24.9560  -29.2920 O   0  0  0  0  0  0  0  0  0  0  0  0
   -3.4870   25.1310  -30.3640 O   0  0  0  0  0  0  0  0  0  0  0  0
   -4.2120   22.5740  -30.9030 C   0  0  0  0  0  0  0  0  0  0  0  0
   -3.6160   22.9900  -32.0030 O   0  0  0  0  0  0  0  0  0  0  0  0
   -5.6120   22.5800  -31.0060 N   0  0  0  0  0  0  0  0  0  0  0  0
   -6.5710   23.3180  -30.4490 C   0  0  0  0  0  0  0  0  0  0  0  0
   -6.4960   24.6370  -29.8100 C   0  0  0  0  0  0  0  0  0  0  0  0
   -5.5110   24.8740  -28.7810 N   0  0  0  0  0  0  0  0  0  0  0  0
   -7.2280   25.6070  -30.0840 O   0  0  0  0  0  0  0  0  0  0  0  0
   -7.8430   22.7770  -30.6940 C   0  0  0  0  0  0  0  0  0  0  0  0
   -7.6310   21.6680  -31.4390 C   0  0  0  0  0  0  0  0  0  0  0  0
   -8.5660   20.7690  -31.9490 C   0  0  0  0  0  0  0  0  0  0  0  0
   -8.1320   19.6950  -32.6850 C   0  0  0  0  0  0  0  0  0  0  0  0
   -6.8000   19.5450  -32.8930 C   0  0  0  0  0  0  0  0  0  0  0  0
   -6.3410   18.4350  -33.6560 N   0  0  0  0  0  0  0  0  0  0  0  0
   -5.6980   18.2140  -34.9530 C   0  0  0  0  0  0  0  0  0  0  0  0
   -4.9660   17.0680  -34.2410 C   0  0  0  0  0  0  0  0  0  0  0  0
   -3.9760   17.5980  -33.4670 F   0  0  0  0  0  0  0  0  0  0  0  0
   -6.3020   16.9930  -33.4920 C   0  0  0  0  0  0  0  0  0  0  0  0
   -5.8770   20.4530  -32.3770 C   0  0  0  0  0  0  0  0  0  0  0  0
   -6.2910   21.5530  -31.6250 C   0  0  0  0  0  0  0  0  0  0  0  0
   -2.4488   20.8563  -28.6054 H   0  0  0  0  0  0  0  0  0  0  0  0
   -3.0737   20.1671  -30.1420 H   0  0  0  0  0  0  0  0  0  0  0  0
   -1.5618   21.1371  -30.1420 H   0  0  0  0  0  0  0  0  0  0  0  0
   -4.0477   23.4554  -28.3097 H   0  0  0  0  0  0  0  0  0  0  0  0
   -2.3687   22.8969  -28.0989 H   0  0  0  0  0  0  0  0  0  0  0  0
   -3.5040   24.9310  -31.3720 H   0  0  0  0  0  0  0  0  0  0  0  0
   -5.6830   24.3740  -27.8740 H   0  0  0  0  0  0  0  0  0  0  0  0
   -4.6900   25.5030  -28.9400 H   0  0  0  0  0  0  0  0  0  0  0  0
   -8.8106   23.1725  -30.3515 H   0  0  0  0  0  0  0  0  0  0  0  0
   -9.6399   20.9186  -31.7637 H   0  0  0  0  0  0  0  0  0  0  0  0
   -8.8496   18.9707  -33.0978 H   0  0  0  0  0  0  0  0  0  0  0  0
   -6.3736   17.9059  -35.7645 H   0  0  0  0  0  0  0  0  0  0  0  0
   -5.1757   19.0076  -35.5074 H   0  0  0  0  0  0  0  0  0  0  0  0
   -4.4718   16.2051  -34.7113 H   0  0  0  0  0  0  0  0  0  0  0  0
   -7.0990   16.4422  -34.0131 H   0  0  0  0  0  0  0  0  0  0  0  0
   -6.4110   16.5006  -32.5144 H   0  0  0  0  0  0  0  0  0  0  0  0
   -4.8042   20.2998  -32.5658 H   0  0  0  0  0  0  0  0  0  0  0  0
  1  2  1  0
  2  3  1  0
  3  4  1  0
  4  5  2  0
  4  6  1  0
  2  7  1  0
  7  8  2  0
  7  9  1  0
  9 10  1  0
 10 11  1  0
 11 12  1  0
 11 13  2  0
 10 14  2  0
 14 15  1  0
 15 16  2  0
 16 17  1  0
 17 18  2  0
 18 19  1  0
 19 20  1  0
 20 21  1  0
 21 22  1  0
 21 23  1  0
 18 24  1  0
 24 25  2  0
 25  9  1  0
 25 15  1  0
 23 19  1  0
  1 26  1  0
  1 27  1  0
  1 28  1  0
  3 29  1  0
  3 30  1  0
  6 31  1  0
 12 32  1  0
 12 33  1  0
 14 34  1  0
 16 35  1  0
 17 36  1  0
 20 37  1  0
 20 38  1  0
 21 39  1  0
 23 40  1  0
 23 41  1  0
 24 42  1  0
M  END
>  <smiles>  (47) 
CN(CC(=O)O)C(=O)n1c(C(N)=O)cc2ccc(N3CC(F)C3)cc21

>  <score_type>  (47) 
oracle

>  <origin>  (47) 
adg

>  <m_score__min__energy>  (47) 
-8.9600000000000009

>  <m_primary>  (47) 
energy

$$$$
48:0
     RDKit          3D

 40 41  0  0  1  0  0  0  0  0999 V2000
   -9.5460   19.6990  -33.0800 N   0  0  0  0  0  0  0  0  0  0  0  0
   -8.5240   18.9890  -32.3080 C   0  0  0  0  0  0  0  0  0  0  0  0
   -9.0020   18.1320  -31.5540 O   0  0  0  0  0  0  0  0  0  0  0  0
   -7.1390   19.3440  -32.4970 C   0  0  0  0  0  0  0  0  0  0  0  0
   -6.1980   18.3930  -32.9020 C   0  0  0  0  0  0  0  0  0  0  0  0
   -4.9760   18.9940  -32.9970 C   0  0  0  0  0  0  0  0  0  0  0  0
   -3.7630   18.4740  -33.3880 C   0  0  0  0  0  0  0  0  0  0  0  0
   -2.6480   19.2780  -33.4580 C   0  0  0  0  0  0  0  0  0  0  0  0
   -2.8100   20.6030  -33.1230 C   0  0  0  0  0  0  0  0  0  0  0  0
   -1.6160   21.5050  -33.1930 C   0  0  0  0  0  0  0  0  0  0  0  0
   -0.7600   21.5340  -31.6610 Cl  0  0  0  0  0  0  0  0  0  0  0  0
   -4.0460   21.1190  -32.7280 C   0  0  0  0  0  0  0  0  0  0  0  0
   -5.1750   20.3090  -32.6510 C   0  0  0  0  0  0  0  0  0  0  0  0
   -6.4840   20.5400  -32.3400 N   0  0  0  0  0  0  0  0  0  0  0  0
   -7.0520   21.6930  -31.8100 C   0  0  0  0  0  0  0  0  0  0  0  0
   -8.2400   21.9930  -32.2520 O   0  0  0  0  0  0  0  0  0  0  0  0
   -6.5690   22.6540  -30.8260 C   0  0  0  0  0  0  0  0  0  0  0  0
   -5.4370   23.2910  -31.2520 O   0  0  0  0  0  0  0  0  0  0  0  0
   -4.7870   24.3430  -30.1050 P   0  0  1  0  0  0  0  0  0  0  0  0
   -3.8800   25.3050  -30.8380 O   0  0  0  0  0  0  0  0  0  0  0  0
   -5.9990   25.1580  -29.2570 O   0  0  0  0  0  0  0  0  0  0  0  0
   -3.8880   23.4480  -29.0130 O   0  0  0  0  0  0  0  0  0  0  0  0
   -2.5810   23.2570  -29.3990 C   0  0  0  0  0  0  0  0  0  0  0  0
   -1.7250   24.4400  -29.1430 C   0  0  0  0  0  0  0  0  0  0  0  0
   -0.4660   24.3090  -29.1310 O   0  0  0  0  0  0  0  0  0  0  0  0
   -2.3540   25.6580  -28.9230 O   0  0  0  0  0  0  0  0  0  0  0  0
   -9.8870   20.6080  -32.6750 H   0  0  0  0  0  0  0  0  0  0  0  0
   -9.8930   19.3000  -33.9750 H   0  0  0  0  0  0  0  0  0  0  0  0
   -6.4079   17.3335  -33.1101 H   0  0  0  0  0  0  0  0  0  0  0  0
   -3.6841   17.4077  -33.6465 H   0  0  0  0  0  0  0  0  0  0  0  0
   -1.6708   18.8792  -33.7679 H   0  0  0  0  0  0  0  0  0  0  0  0
   -0.9364   21.1421  -33.9781 H   0  0  0  0  0  0  0  0  0  0  0  0
   -1.9595   22.5245  -33.4222 H   0  0  0  0  0  0  0  0  0  0  0  0
   -4.1288   22.1858  -32.4729 H   0  0  0  0  0  0  0  0  0  0  0  0
   -7.3533   23.4040  -30.6459 H   0  0  0  0  0  0  0  0  0  0  0  0
   -6.3266   22.1063  -29.9034 H   0  0  0  0  0  0  0  0  0  0  0  0
   -6.1290   24.6310  -28.4180 H   0  0  0  0  0  0  0  0  0  0  0  0
   -2.1722   22.4009  -28.8423 H   0  0  0  0  0  0  0  0  0  0  0  0
   -2.5802   23.0777  -30.4843 H   0  0  0  0  0  0  0  0  0  0  0  0
   -3.3660   25.6110  -28.7250 H   0  0  0  0  0  0  0  0  0  0  0  0
  1  2  1  0
  2  3  2  0
  2  4  1  0
  4  5  2  0
  5  6  1  0
  6  7  2  0
  7  8  1  0
  8  9  2  0
  9 10  1  0
 10 11  1  0
  9 12  1  0
 12 13  2  0
 13 14  1  0
 14 15  1  0
 15 16  2  0
 15 17  1  0
 17 18  1  0
 19 18  1  1
 19 20  2  0
 19 21  1  0
 19 22  1  0
 22 23  1  0
 23 24  1  0
 24 25  2  0
 24 26  1  0
 14  4  1  0
 13  6  1  0
  1 27  1  0
  1 28  1  0
  5 29  1  0
  7 30  1  0
  8 31  1  0
 10 32  1  0
 10 33  1  0
 12 34  1  0
 17 35  1  0
 17 36  1  0
 21 37  1  0
 23 38  1  0
 23 39  1  0
 26 40  1  0
M  END
>  <smiles>  (48) 
NC(=O)c1cc2ccc(CCl)cc2n1C(=O)COP(=O)(O)OCC(=O)O

>  <score_type>  (48) 
oracle

>  <origin>  (48) 
adg

>  <m_score__min__energy>  (48) 
-9.0199999999999996

>  <m_primary>  (48) 
energy

$$$$
49:0
     RDKit          3D

 47 48  0  0  0  0  0  0  0  0999 V2000
   -4.8220   25.0410  -29.6140 N   0  0  0  0  0  0  0  0  0  0  0  0
   -6.1340   24.6350  -30.0600 C   0  0  0  0  0  0  0  0  0  0  0  0
   -7.1470   25.3510  -29.9030 O   0  0  0  0  0  0  0  0  0  0  0  0
   -6.3240   23.3500  -30.7180 C   0  0  0  0  0  0  0  0  0  0  0  0
   -7.6420   22.9870  -31.0450 C   0  0  0  0  0  0  0  0  0  0  0  0
   -7.5570   21.7770  -31.6480 C   0  0  0  0  0  0  0  0  0  0  0  0
   -8.5680   20.9860  -32.1570 C   0  0  0  0  0  0  0  0  0  0  0  0
   -8.2840   19.7730  -32.7360 C   0  0  0  0  0  0  0  0  0  0  0  0
   -6.9790   19.3870  -32.7890 C   0  0  0  0  0  0  0  0  0  0  0  0
   -6.6540   18.0790  -33.4120 C   0  0  0  0  0  0  0  0  0  0  0  0
   -7.0720   17.0930  -32.5370 F   0  0  0  0  0  0  0  0  0  0  0  0
   -5.2740   17.9410  -33.5280 F   0  0  0  0  0  0  0  0  0  0  0  0
   -5.9680   20.1950  -32.2720 C   0  0  0  0  0  0  0  0  0  0  0  0
   -6.2260   21.4230  -31.6810 C   0  0  0  0  0  0  0  0  0  0  0  0
   -5.4550   22.4060  -31.0990 N   0  0  0  0  0  0  0  0  0  0  0  0
   -4.0720   22.2850  -31.0110 C   0  0  0  0  0  0  0  0  0  0  0  0
   -3.4530   23.4160  -31.3330 O   0  0  0  0  0  0  0  0  0  0  0  0
   -3.1490   21.3080  -30.6830 N   0  0  0  0  0  0  0  0  0  0  0  0
   -1.9120   20.8900  -31.2530 C   0  0  0  0  0  0  0  0  0  0  0  0
   -0.7270   21.7080  -31.1190 C   0  0  0  0  0  0  0  0  0  0  0  0
    0.3510   21.2500  -31.6730 O   0  0  0  0  0  0  0  0  0  0  0  0
   -0.5700   22.9120  -30.4810 O   0  0  0  0  0  0  0  0  0  0  0  0
   -3.4700   20.5800  -29.3960 C   0  0  0  0  0  0  0  0  0  0  0  0
   -3.0190   21.3620  -28.2330 C   0  0  0  0  0  0  0  0  0  0  0  0
   -3.0270   20.9690  -27.0660 O   0  0  0  0  0  0  0  0  0  0  0  0
   -2.5360   22.6800  -28.4890 N   0  0  0  0  0  0  0  0  0  0  0  0
   -2.0460   23.6010  -27.5220 C   0  0  0  0  0  0  0  0  0  0  0  0
   -1.8190   25.0090  -28.0010 C   0  0  0  0  0  0  0  0  0  0  0  0
   -2.1500   25.2170  -29.3230 O   0  0  0  0  0  0  0  0  0  0  0  0
   -4.6640   26.0480  -29.3860 H   0  0  0  0  0  0  0  0  0  0  0  0
   -4.0880   24.3060  -29.5410 H   0  0  0  0  0  0  0  0  0  0  0  0
   -8.5561   23.5672  -30.8508 H   0  0  0  0  0  0  0  0  0  0  0  0
   -9.6110   21.3306  -32.0983 H   0  0  0  0  0  0  0  0  0  0  0  0
   -9.0829   19.1356  -33.1427 H   0  0  0  0  0  0  0  0  0  0  0  0
   -7.1335   18.0089  -34.3995 H   0  0  0  0  0  0  0  0  0  0  0  0
   -4.9268   19.8459  -32.3350 H   0  0  0  0  0  0  0  0  0  0  0  0
   -1.6730   19.9139  -30.8056 H   0  0  0  0  0  0  0  0  0  0  0  0
   -2.1143   20.9240  -32.3337 H   0  0  0  0  0  0  0  0  0  0  0  0
   -1.2500   23.6750  -30.5300 H   0  0  0  0  0  0  0  0  0  0  0  0
   -4.5571   20.4263  -29.3289 H   0  0  0  0  0  0  0  0  0  0  0  0
   -2.9485   19.6115  -29.3964 H   0  0  0  0  0  0  0  0  0  0  0  0
   -2.5480   22.9870  -29.4970 H   0  0  0  0  0  0  0  0  0  0  0  0
   -2.7728   23.6401  -26.6973 H   0  0  0  0  0  0  0  0  0  0  0  0
   -1.0535   23.2246  -27.2334 H   0  0  0  0  0  0  0  0  0  0  0  0
   -2.4269   25.6858  -27.3827 H   0  0  0  0  0  0  0  0  0  0  0  0
   -0.7400   25.2030  -27.9113 H   0  0  0  0  0  0  0  0  0  0  0  0
   -2.1080   24.4340  -29.8930 H   0  0  0  0  0  0  0  0  0  0  0  0
  1  2  1  0
  2  3  2  0
  2  4  1  0
  4  5  2  0
  5  6  1  0
  6  7  2  0
  7  8  1  0
  8  9  2  0
  9 10  1  0
 10 11  1  0
 10 12  1  0
  9 13  1  0
 13 14  2  0
 14 15  1  0
 15 16  1  0
 16 17  2  0
 16 18  1  0
 18 19  1  0
 19 20  1  0
 20 21  2  0
 20 22  1  0
 18 23  1  0
 23 24  1  0
 24 25  2  0
 24 26  1  0
 26 27  1  0
 27 28  1  0
 28 29  1  0
 15  4  1  0
 14  6  1  0
  1 30  1  0
  1 31  1  0
  5 32  1  0
  7 33  1  0
  8 34  1  0
 10 35  1  0
 13 36  1  0
 19 37  1  0
 19 38  1  0
 22 39  1  0
 23 40  1  0
 23 41  1  0
 26 42  1  0
 27 43  1  0
 27 44  1  0
 28 45  1  0
 28 46  1  0
 29 47  1  0
M  END
>  <smiles>  (49) 
NC(=O)c1cc2ccc(C(F)F)cc2n1C(=O)N(CC(=O)O)CC(=O)NCCO

>  <score_type>  (49) 
oracle

>  <origin>  (49) 
adg

>  <m_score__min__energy>  (49) 
-8.3800000000000008

>  <m_primary>  (49) 
energy

$$$$
50:0
     RDKit          3D

 45 46  0  0  0  0  0  0  0  0999 V2000
   -1.8910   20.3080  -32.3050 C   0  0  0  0  0  0  0  0  0  0  0  0
   -3.0300   21.1940  -32.1560 N   0  0  0  0  0  0  0  0  0  0  0  0
   -3.9690   21.2890  -33.3060 C   0  0  0  0  0  0  0  0  0  0  0  0
   -5.3660   21.3660  -32.7530 C   0  0  0  0  0  0  0  0  0  0  0  0
   -5.6510   22.5580  -32.3870 O   0  0  0  0  0  0  0  0  0  0  0  0
   -6.2570   20.2950  -32.6400 N   0  0  0  0  0  0  0  0  0  0  0  0
   -7.4730   20.3620  -32.0600 C   0  0  0  0  0  0  0  0  0  0  0  0
   -8.2260   21.4240  -31.4510 C   0  0  0  0  0  0  0  0  0  0  0  0
   -7.7650   22.5080  -30.6770 N   0  0  0  0  0  0  0  0  0  0  0  0
   -9.5170   21.4400  -31.6030 O   0  0  0  0  0  0  0  0  0  0  0  0
   -8.0150   19.0620  -32.1510 C   0  0  0  0  0  0  0  0  0  0  0  0
   -7.1330   18.2320  -32.7780 C   0  0  0  0  0  0  0  0  0  0  0  0
   -7.2200   16.8970  -33.0900 C   0  0  0  0  0  0  0  0  0  0  0  0
   -6.1730   16.2830  -33.7360 C   0  0  0  0  0  0  0  0  0  0  0  0
   -5.0610   17.0170  -34.0570 C   0  0  0  0  0  0  0  0  0  0  0  0
   -3.9080   16.3660  -34.7620 C   0  0  0  0  0  0  0  0  0  0  0  0
   -4.0390   14.9890  -34.7770 F   0  0  0  0  0  0  0  0  0  0  0  0
   -3.8760   16.7970  -36.0760 F   0  0  0  0  0  0  0  0  0  0  0  0
   -2.7420   16.7490  -34.1130 F   0  0  0  0  0  0  0  0  0  0  0  0
   -5.0040   18.3740  -33.7260 C   0  0  0  0  0  0  0  0  0  0  0  0
   -6.0320   19.0210  -33.0800 C   0  0  0  0  0  0  0  0  0  0  0  0
   -3.2760   21.9550  -30.9790 C   0  0  0  0  0  0  0  0  0  0  0  0
   -3.7940   21.4210  -29.9490 O   0  0  0  0  0  0  0  0  0  0  0  0
   -2.9250   23.2970  -31.0180 O   0  0  0  0  0  0  0  0  0  0  0  0
   -3.1630   24.1680  -29.9170 C   0  0  0  0  0  0  0  0  0  0  0  0
   -3.8940   25.2450  -30.3730 O   0  0  0  0  0  0  0  0  0  0  0  0
   -5.5560   24.9660  -30.3380 P   0  0  0  0  0  0  0  0  0  0  0  0
   -6.2520   26.0450  -29.5190 O   0  0  0  0  0  0  0  0  0  0  0  0
   -6.1820   24.9190  -31.9220 O   0  0  0  0  0  0  0  0  0  0  0  0
   -5.7800   23.4250  -29.6700 O   0  0  0  0  0  0  0  0  0  0  0  0
   -1.5190   20.0187  -31.3111 H   0  0  0  0  0  0  0  0  0  0  0  0
   -2.1966   19.4078  -32.8585 H   0  0  0  0  0  0  0  0  0  0  0  0
   -1.0937   20.8257  -32.8585 H   0  0  0  0  0  0  0  0  0  0  0  0
   -3.7493   22.1916  -33.8950 H   0  0  0  0  0  0  0  0  0  0  0  0
   -3.8630   20.4127  -33.9623 H   0  0  0  0  0  0  0  0  0  0  0  0
   -7.7750   22.4930  -29.6120 H   0  0  0  0  0  0  0  0  0  0  0  0
   -7.4100   23.3650  -31.2000 H   0  0  0  0  0  0  0  0  0  0  0  0
   -9.0032   18.7624  -31.7720 H   0  0  0  0  0  0  0  0  0  0  0  0
   -8.1205   16.3235  -32.8250 H   0  0  0  0  0  0  0  0  0  0  0  0
   -6.2273   15.2147  -33.9923 H   0  0  0  0  0  0  0  0  0  0  0  0
   -4.1030   18.9462  -33.9922 H   0  0  0  0  0  0  0  0  0  0  0  0
   -3.7284   23.6370  -29.1370 H   0  0  0  0  0  0  0  0  0  0  0  0
   -2.2094   24.5090  -29.4877 H   0  0  0  0  0  0  0  0  0  0  0  0
   -5.7740   24.1840  -32.4390 H   0  0  0  0  0  0  0  0  0  0  0  0
   -5.3820   22.7170  -30.2390 H   0  0  0  0  0  0  0  0  0  0  0  0
  1  2  1  0
  2  3  1  0
  3  4  1  0
  4  5  2  0
  4  6  1  0
  6  7  1  0
  7  8  1  0
  8  9  1  0
  8 10  2  0
  7 11  2  0
 11 12  1  0
 12 13  2  0
 13 14  1  0
 14 15  2  0
 15 16  1  0
 16 17  1  0
 16 18  1  0
 16 19  1  0
 15 20  1  0
 20 21  2  0
  2 22  1  0
 22 23  2  0
 22 24  1  0
 24 25  1  0
 25 26  1  0
 26 27  1  0
 27 28  2  0
 27 29  1  0
 27 30  1  0
 21  6  1  0
 21 12  1  0
  1 31  1  0
  1 32  1  0
  1 33  1  0
  3 34  1  0
  3 35  1  0
  9 36  1  0
  9 37  1  0
 11 38  1  0
 13 39  1  0
 14 40  1  0
 20 41  1  0
 25 42  1  0
 25 43  1  0
 29 44  1  0
 30 45  1  0
M  END
>  <smiles>  (50) 
CN(CC(=O)n1c(C(N)=O)cc2ccc(C(F)(F)F)cc21)C(=O)OCOP(=O)(O)O

>  <score_type>  (50) 
oracle

>  <origin>  (50) 
adg

>  <m_score__min__energy>  (50) 
-7.0899999999999999

>  <m_primary>  (50) 
energy

$$$$
51:0
     RDKit          3D

 49 50  0  0  1  0  0  0  0  0999 V2000
   -7.5050   20.1430  -32.7520 C   0  0  0  0  0  0  0  0  0  0  0  0
   -7.3220   21.1550  -31.6900 N   0  0  0  0  0  0  0  0  0  0  0  0
   -8.4960   21.8720  -31.2970 C   0  0  0  0  0  0  0  0  0  0  0  0
   -8.6690   23.1890  -31.9640 C   0  0  0  0  0  0  0  0  0  0  0  0
   -7.3510   23.7770  -32.3540 C   0  0  0  0  0  0  0  0  0  0  0  0
   -6.7610   24.3210  -31.2070 O   0  0  0  0  0  0  0  0  0  0  0  0
   -6.0070   21.3100  -31.2160 C   0  0  0  0  0  0  0  0  0  0  0  0
   -5.8660   22.0870  -30.2160 O   0  0  0  0  0  0  0  0  0  0  0  0
   -4.7890   20.6890  -31.7390 C   0  0  0  0  0  0  0  0  0  0  0  0
   -3.8450   21.7610  -32.2650 C   0  0  1  0  0  0  0  0  0  0  0  0
   -4.6270   22.8850  -32.4780 O   0  0  0  0  0  0  0  0  0  0  0  0
   -2.6830   21.9440  -31.3950 C   0  0  0  0  0  0  0  0  0  0  0  0
   -1.5560   21.9310  -32.0300 O   0  0  0  0  0  0  0  0  0  0  0  0
   -2.6020   22.1210  -30.0160 N   0  0  0  0  0  0  0  0  0  0  0  0
   -3.2560   23.0790  -29.3150 C   0  0  0  0  0  0  0  0  0  0  0  0
   -4.0630   24.2060  -29.7290 C   0  0  0  0  0  0  0  0  0  0  0  0
   -5.2430   24.5740  -28.9590 N   0  0  0  0  0  0  0  0  0  0  0  0
   -3.8700   24.9470  -30.7160 O   0  0  0  0  0  0  0  0  0  0  0  0
   -2.9950   22.8550  -27.9520 C   0  0  0  0  0  0  0  0  0  0  0  0
   -2.1870   21.7650  -27.8300 C   0  0  0  0  0  0  0  0  0  0  0  0
   -1.6830   21.1480  -26.7060 C   0  0  0  0  0  0  0  0  0  0  0  0
   -0.9040   20.0270  -26.8230 C   0  0  0  0  0  0  0  0  0  0  0  0
   -0.6500   19.5480  -28.0800 C   0  0  0  0  0  0  0  0  0  0  0  0
    0.1940   18.3260  -28.2580 C   0  0  0  0  0  0  0  0  0  0  0  0
   -0.0660   17.7390  -29.4800 F   0  0  0  0  0  0  0  0  0  0  0  0
    1.5100   18.7140  -28.1200 F   0  0  0  0  0  0  0  0  0  0  0  0
   -0.1010   17.3800  -27.2900 F   0  0  0  0  0  0  0  0  0  0  0  0
   -1.1690   20.1880  -29.2130 C   0  0  0  0  0  0  0  0  0  0  0  0
   -1.9540   21.3200  -29.1170 C   0  0  0  0  0  0  0  0  0  0  0  0
   -7.6830   19.1589  -32.2939 H   0  0  0  0  0  0  0  0  0  0  0  0
   -8.3679   20.4184  -33.3761 H   0  0  0  0  0  0  0  0  0  0  0  0
   -6.6003   20.0987  -33.3761 H   0  0  0  0  0  0  0  0  0  0  0  0
   -9.3725   21.2504  -31.5324 H   0  0  0  0  0  0  0  0  0  0  0  0
   -8.3898   22.0786  -30.2218 H   0  0  0  0  0  0  0  0  0  0  0  0
   -9.2832   23.0556  -32.8668 H   0  0  0  0  0  0  0  0  0  0  0  0
   -9.1599   23.8745  -31.2575 H   0  0  0  0  0  0  0  0  0  0  0  0
   -6.7018   22.9931  -32.7712 H   0  0  0  0  0  0  0  0  0  0  0  0
   -7.4924   24.5572  -33.1164 H   0  0  0  0  0  0  0  0  0  0  0  0
   -5.8200   24.0520  -31.1220 H   0  0  0  0  0  0  0  0  0  0  0  0
   -4.2914   20.1279  -30.9343 H   0  0  0  0  0  0  0  0  0  0  0  0
   -5.0545   20.0063  -32.5596 H   0  0  0  0  0  0  0  0  0  0  0  0
   -3.3723   21.4800  -33.2177 H   0  0  0  0  0  0  0  0  0  0  0  0
   -4.8830   23.2620  -31.6110 H   0  0  0  0  0  0  0  0  0  0  0  0
   -5.2000   25.3750  -28.2800 H   0  0  0  0  0  0  0  0  0  0  0  0
   -6.1150   24.0110  -29.1140 H   0  0  0  0  0  0  0  0  0  0  0  0
   -3.3806   23.4614  -27.1192 H   0  0  0  0  0  0  0  0  0  0  0  0
   -1.9071   21.5573  -25.7099 H   0  0  0  0  0  0  0  0  0  0  0  0
   -0.4947   19.5266  -25.9330 H   0  0  0  0  0  0  0  0  0  0  0  0
   -0.9446   19.7767  -30.2082 H   0  0  0  0  0  0  0  0  0  0  0  0
  1  2  1  0
  2  3  1  0
  3  4  1  0
  4  5  1  0
  5  6  1  0
  2  7  1  0
  7  8  2  0
  7  9  1  0
  9 10  1  0
 10 11  1  0
 10 12  1  0
 12 13  2  0
 12 14  1  0
 14 15  1  0
 15 16  1  0
 16 17  1  0
 16 18  2  0
 15 19  2  0
 19 20  1  0
 20 21  2  0
 21 22  1  0
 22 23  2  0
 23 24  1  0
 24 25  1  0
 24 26  1  0
 24 27  1  0
 23 28  1  0
 28 29  2  0
 29 14  1  0
 29 20  1  0
  1 30  1  0
  1 31  1  0
  1 32  1  0
  3 33  1  0
  3 34  1  0
  4 35  1  0
  4 36  1  0
  5 37  1  0
  5 38  1  0
  6 39  1  0
  9 40  1  0
  9 41  1  0
 10 42  1  6
 11 43  1  0
 17 44  1  0
 17 45  1  0
 19 46  1  0
 21 47  1  0
 22 48  1  0
 28 49  1  0
M  END
>  <smiles>  (51) 
CN(CCCO)C(=O)CC(O)C(=O)n1c(C(N)=O)cc2ccc(C(F)(F)F)cc21

>  <score_type>  (51) 
oracle

>  <origin>  (51) 
adg

>  <m_score__min__energy>  (51) 
-8.5600000000000005

>  <m_primary>  (51) 
energy

$$$$
52:0
     RDKit          3D

 41 43  0  0  0  0  0  0  0  0999 V2000
   -6.7430   15.4930  -34.1330 C   0  0  0  0  0  0  0  0  0  0  0  0
   -5.6730   16.5450  -33.9990 C   0  0  0  0  0  0  0  0  0  0  0  0
   -4.5330   16.4480  -34.8060 C   0  0  0  0  0  0  0  0  0  0  0  0
   -3.5640   17.4240  -34.6730 C   0  0  0  0  0  0  0  0  0  0  0  0
   -3.6650   18.4780  -33.7940 C   0  0  0  0  0  0  0  0  0  0  0  0
   -4.8050   18.5550  -33.0030 C   0  0  0  0  0  0  0  0  0  0  0  0
   -5.7910   17.5950  -33.1130 C   0  0  0  0  0  0  0  0  0  0  0  0
   -6.9910   17.7130  -32.2430 C   0  0  0  0  0  0  0  0  0  0  0  0
   -7.9050   18.7020  -32.7810 N   0  0  0  0  0  0  0  0  0  0  0  0
   -7.8960   20.0570  -32.3060 C   0  0  0  0  0  0  0  0  0  0  0  0
   -9.0880   20.7400  -32.2270 C   0  0  0  0  0  0  0  0  0  0  0  0
   -9.0960   22.0480  -31.7790 C   0  0  0  0  0  0  0  0  0  0  0  0
   -7.8980   22.6340  -31.4210 C   0  0  0  0  0  0  0  0  0  0  0  0
   -7.6130   23.8970  -30.9490 C   0  0  0  0  0  0  0  0  0  0  0  0
   -6.2330   24.0210  -30.7260 C   0  0  0  0  0  0  0  0  0  0  0  0
   -5.6490   25.2340  -30.2330 C   0  0  0  0  0  0  0  0  0  0  0  0
   -6.0810   26.0460  -29.1830 N   0  0  0  0  0  0  0  0  0  0  0  0
   -4.5820   25.6380  -30.8290 O   0  0  0  0  0  0  0  0  0  0  0  0
   -5.7030   22.8360  -31.0640 N   0  0  0  0  0  0  0  0  0  0  0  0
   -4.3560   22.4630  -31.0110 C   0  0  0  0  0  0  0  0  0  0  0  0
   -3.9270   21.2690  -31.0600 O   0  0  0  0  0  0  0  0  0  0  0  0
   -3.3310   23.4170  -30.8960 O   0  0  0  0  0  0  0  0  0  0  0  0
   -6.6860   21.9860  -31.4840 C   0  0  0  0  0  0  0  0  0  0  0  0
   -6.7080   20.6800  -31.9370 C   0  0  0  0  0  0  0  0  0  0  0  0
   -7.0692   15.1723  -33.1326 H   0  0  0  0  0  0  0  0  0  0  0  0
   -7.6002   15.9097  -34.6821 H   0  0  0  0  0  0  0  0  0  0  0  0
   -6.3409   14.6288  -34.6821 H   0  0  0  0  0  0  0  0  0  0  0  0
   -4.4127   15.6220  -35.5224 H   0  0  0  0  0  0  0  0  0  0  0  0
   -2.6647   17.3549  -35.3027 H   0  0  0  0  0  0  0  0  0  0  0  0
   -2.8698   19.2344  -33.7200 H   0  0  0  0  0  0  0  0  0  0  0  0
   -4.9220   19.3825  -32.2878 H   0  0  0  0  0  0  0  0  0  0  0  0
   -7.4993   16.7389  -32.1911 H   0  0  0  0  0  0  0  0  0  0  0  0
   -6.6752   18.0262  -31.2369 H   0  0  0  0  0  0  0  0  0  0  0  0
   -8.5790   18.4180  -33.5240 H   0  0  0  0  0  0  0  0  0  0  0  0
  -10.0281   20.2487  -32.5183 H   0  0  0  0  0  0  0  0  0  0  0  0
  -10.0385   22.6109  -31.7091 H   0  0  0  0  0  0  0  0  0  0  0  0
   -8.3558   24.6891  -30.7734 H   0  0  0  0  0  0  0  0  0  0  0  0
   -6.7180   26.8770  -29.3730 H   0  0  0  0  0  0  0  0  0  0  0  0
   -5.7600   25.8290  -28.1910 H   0  0  0  0  0  0  0  0  0  0  0  0
   -3.2420   24.1950  -31.5440 H   0  0  0  0  0  0  0  0  0  0  0  0
   -5.7638   20.1201  -32.0074 H   0  0  0  0  0  0  0  0  0  0  0  0
  1  2  1  0
  2  3  2  0
  3  4  1  0
  4  5  2  0
  5  6  1  0
  6  7  2  0
  7  8  1  0
  8  9  1  0
  9 10  1  0
 10 11  2  0
 11 12  1  0
 12 13  2  0
 13 14  1  0
 14 15  2  0
 15 16  1  0
 16 17  1  0
 16 18  2  0
 15 19  1  0
 19 20  1  0
 20 21  2  0
 20 22  1  0
 19 23  1  0
 23 24  2  0
  7  2  1  0
 24 10  1  0
 23 13  1  0
  1 25  1  0
  1 26  1  0
  1 27  1  0
  3 28  1  0
  4 29  1  0
  5 30  1  0
  6 31  1  0
  8 32  1  0
  8 33  1  0
  9 34  1  0
 11 35  1  0
 12 36  1  0
 14 37  1  0
 17 38  1  0
 17 39  1  0
 22 40  1  0
 24 41  1  0
M  END
>  <smiles>  (52) 
Cc1ccccc1CNc1ccc2cc(C(N)=O)n(C(=O)O)c2c1

>  <score_type>  (52) 
oracle

>  <origin>  (52) 
adg

>  <m_score__min__energy>  (52) 
-9.6300000000000008

>  <m_primary>  (52) 
energy

$$$$
53:0
     RDKit          3D

 37 38  0  0  1  0  0  0  0  0999 V2000
   -3.9780   25.4030  -30.4540 N   0  0  0  0  0  0  0  0  0  0  0  0
   -5.3940   25.1390  -30.3640 C   0  0  0  0  0  0  0  0  0  0  0  0
   -6.0700   26.0910  -29.9000 O   0  0  0  0  0  0  0  0  0  0  0  0
   -5.9140   23.8620  -30.7910 C   0  0  0  0  0  0  0  0  0  0  0  0
   -7.2570   23.6780  -31.1280 C   0  0  0  0  0  0  0  0  0  0  0  0
   -7.4640   22.3860  -31.4910 C   0  0  0  0  0  0  0  0  0  0  0  0
   -8.5990   21.7230  -31.9000 C   0  0  0  0  0  0  0  0  0  0  0  0
   -8.5500   20.3840  -32.2210 C   0  0  0  0  0  0  0  0  0  0  0  0
   -7.3350   19.7460  -32.1150 C   0  0  0  0  0  0  0  0  0  0  0  0
   -7.2970   18.3000  -32.4650 C   0  0  0  0  0  0  0  0  0  0  0  0
   -8.5820   17.8080  -32.3110 F   0  0  0  0  0  0  0  0  0  0  0  0
   -6.4320   17.6320  -31.6100 F   0  0  0  0  0  0  0  0  0  0  0  0
   -6.8600   18.2030  -33.7860 F   0  0  0  0  0  0  0  0  0  0  0  0
   -6.2030   20.4210  -31.7040 C   0  0  0  0  0  0  0  0  0  0  0  0
   -6.2260   21.7610  -31.3780 C   0  0  0  0  0  0  0  0  0  0  0  0
   -5.3120   22.6730  -30.9550 N   0  0  0  0  0  0  0  0  0  0  0  0
   -3.9420   22.3710  -30.7330 C   0  0  0  0  0  0  0  0  0  0  0  0
   -3.1320   22.8090  -31.6150 O   0  0  0  0  0  0  0  0  0  0  0  0
   -3.4170   21.6790  -29.7010 O   0  0  0  0  0  0  0  0  0  0  0  0
   -2.9780   22.0510  -28.4520 C   0  0  0  0  0  0  0  0  0  0  0  0
   -1.6630   22.7550  -28.4330 C   0  0  1  0  0  0  0  0  0  0  0  0
   -0.8930   22.5410  -29.5620 O   0  0  0  0  0  0  0  0  0  0  0  0
   -1.8840   24.2570  -28.3050 C   0  0  0  0  0  0  0  0  0  0  0  0
   -1.8160   24.7830  -29.5890 O   0  0  0  0  0  0  0  0  0  0  0  0
   -3.3940   24.9460  -31.2050 H   0  0  0  0  0  0  0  0  0  0  0  0
   -3.4930   26.0430  -29.7920 H   0  0  0  0  0  0  0  0  0  0  0  0
   -8.0295   24.4607  -31.1031 H   0  0  0  0  0  0  0  0  0  0  0  0
   -9.5527   22.2666  -31.9711 H   0  0  0  0  0  0  0  0  0  0  0  0
   -9.4500   19.8440  -32.5503 H   0  0  0  0  0  0  0  0  0  0  0  0
   -5.2521   19.8725  -31.6343 H   0  0  0  0  0  0  0  0  0  0  0  0
   -3.7307   22.7208  -28.0106 H   0  0  0  0  0  0  0  0  0  0  0  0
   -2.8378   21.1195  -27.8839 H   0  0  0  0  0  0  0  0  0  0  0  0
   -1.1196   22.3396  -27.5715 H   0  0  0  0  0  0  0  0  0  0  0  0
   -1.4390   22.6760  -30.3710 H   0  0  0  0  0  0  0  0  0  0  0  0
   -2.8718   24.4584  -27.8650 H   0  0  0  0  0  0  0  0  0  0  0  0
   -1.1266   24.7133  -27.6507 H   0  0  0  0  0  0  0  0  0  0  0  0
   -2.0330   24.0630  -30.2280 H   0  0  0  0  0  0  0  0  0  0  0  0
  1  2  1  0
  2  3  2  0
  2  4  1  0
  4  5  2  0
  5  6  1  0
  6  7  2  0
  7  8  1  0
  8  9  2  0
  9 10  1  0
 10 11  1  0
 10 12  1  0
 10 13  1  0
  9 14  1  0
 14 15  2  0
 15 16  1  0
 16 17  1  0
 17 18  2  0
 17 19  1  0
 19 20  1  0
 20 21  1  0
 21 22  1  0
 21 23  1  0
 23 24  1  0
 16  4  1  0
 15  6  1  0
  1 25  1  0
  1 26  1  0
  5 27  1  0
  7 28  1  0
  8 29  1  0
 14 30  1  0
 20 31  1  0
 20 32  1  0
 21 33  1  1
 22 34  1  0
 23 35  1  0
 23 36  1  0
 24 37  1  0
M  END
>  <smiles>  (53) 
NC(=O)c1cc2ccc(C(F)(F)F)cc2n1C(=O)OCC(O)CO

>  <score_type>  (53) 
oracle

>  <origin>  (53) 
adg

>  <m_score__min__energy>  (53) 
-8.1099999999999994

>  <m_primary>  (53) 
energy

$$$$
54:0
     RDKit          3D

 46 48  0  0  1  0  0  0  0  0999 V2000
   -1.7940   17.8500  -33.9650 C   0  0  0  0  0  0  0  0  0  0  0  0
   -2.4420   19.1640  -34.1030 N   0  0  0  0  0  0  0  0  0  0  0  0
   -3.8160   19.2970  -33.7800 C   0  0  0  0  0  0  0  0  0  0  0  0
   -4.7530   18.3070  -33.9760 C   0  0  0  0  0  0  0  0  0  0  0  0
   -6.0840   18.4630  -33.6480 C   0  0  0  0  0  0  0  0  0  0  0  0
   -6.4680   19.6560  -33.1090 C   0  0  0  0  0  0  0  0  0  0  0  0
   -7.6930   20.1040  -32.6900 C   0  0  0  0  0  0  0  0  0  0  0  0
   -7.5840   21.4020  -32.2090 C   0  0  0  0  0  0  0  0  0  0  0  0
   -8.7200   22.1400  -31.6960 C   0  0  0  0  0  0  0  0  0  0  0  0
   -9.0400   23.4180  -32.2600 N   0  0  0  0  0  0  0  0  0  0  0  0
   -9.4820   21.7640  -30.7750 O   0  0  0  0  0  0  0  0  0  0  0  0
   -6.2910   21.7410  -32.3370 N   0  0  0  0  0  0  0  0  0  0  0  0
   -5.6930   22.9750  -31.9790 C   0  0  0  0  0  0  0  0  0  0  0  0
   -6.2950   24.0790  -31.9470 O   0  0  0  0  0  0  0  0  0  0  0  0
   -4.3470   23.0320  -31.6290 O   0  0  0  0  0  0  0  0  0  0  0  0
   -3.9030   23.1500  -30.2980 C   0  0  0  0  0  0  0  0  0  0  0  0
   -3.8210   24.5590  -29.8010 C   0  0  0  0  0  0  0  0  0  0  0  0
   -3.8910   25.4880  -30.8220 O   0  0  0  0  0  0  0  0  0  0  0  0
   -5.5930   20.6980  -32.8810 C   0  0  0  0  0  0  0  0  0  0  0  0
   -4.2770   20.4860  -33.2270 C   0  0  0  0  0  0  0  0  0  0  0  0
   -1.6000   20.2340  -34.5760 C   0  0  1  0  0  0  0  0  0  0  0  0
   -1.1310   21.1740  -33.4570 C   0  0  0  0  0  0  0  0  0  0  0  0
    0.2280   21.1820  -34.1200 C   0  0  2  0  0  0  0  0  0  0  0  0
    0.3620   22.2440  -35.0250 O   0  0  0  0  0  0  0  0  0  0  0  0
   -0.1450   19.8910  -34.8110 C   0  0  0  0  0  0  0  0  0  0  0  0
   -1.6756   17.6098  -32.8981 H   0  0  0  0  0  0  0  0  0  0  0  0
   -2.4166   17.0817  -34.4469 H   0  0  0  0  0  0  0  0  0  0  0  0
   -0.8055   17.8762  -34.4469 H   0  0  0  0  0  0  0  0  0  0  0  0
   -4.4265   17.3516  -34.4125 H   0  0  0  0  0  0  0  0  0  0  0  0
   -6.8101   17.6538  -33.8152 H   0  0  0  0  0  0  0  0  0  0  0  0
   -8.6253   19.5215  -32.7289 H   0  0  0  0  0  0  0  0  0  0  0  0
   -9.8930   23.5810  -32.8430 H   0  0  0  0  0  0  0  0  0  0  0  0
   -8.4260   24.2550  -32.1120 H   0  0  0  0  0  0  0  0  0  0  0  0
   -4.5998   22.5963  -29.6516 H   0  0  0  0  0  0  0  0  0  0  0  0
   -2.8808   22.7447  -30.2688 H   0  0  0  0  0  0  0  0  0  0  0  0
   -4.6547   24.7363  -29.1057 H   0  0  0  0  0  0  0  0  0  0  0  0
   -2.8464   24.6813  -29.3058 H   0  0  0  0  0  0  0  0  0  0  0  0
   -4.3540   25.0640  -31.5840 H   0  0  0  0  0  0  0  0  0  0  0  0
   -3.5547   21.2981  -33.0573 H   0  0  0  0  0  0  0  0  0  0  0  0
   -2.2333   20.5647  -35.4124 H   0  0  0  0  0  0  0  0  0  0  0  0
   -1.6368   22.1506  -33.4367 H   0  0  0  0  0  0  0  0  0  0  0  0
   -1.2542   20.9146  -32.3951 H   0  0  0  0  0  0  0  0  0  0  0  0
    1.1544   21.2720  -33.5337 H   0  0  0  0  0  0  0  0  0  0  0  0
   -0.4850   22.4460  -35.4550 H   0  0  0  0  0  0  0  0  0  0  0  0
    0.1456   19.8415  -35.8708 H   0  0  0  0  0  0  0  0  0  0  0  0
    0.2739   18.9276  -34.4848 H   0  0  0  0  0  0  0  0  0  0  0  0
  1  2  1  0
  2  3  1  0
  3  4  2  0
  4  5  1  0
  5  6  2  0
  6  7  1  0
  7  8  2  0
  8  9  1  0
  9 10  1  0
  9 11  2  0
  8 12  1  0
 12 13  1  0
 13 14  2  0
 13 15  1  0
 15 16  1  0
 16 17  1  0
 17 18  1  0
 12 19  1  0
 19 20  2  0
  2 21  1  0
 21 22  1  0
 22 23  1  0
 23 24  1  0
 23 25  1  0
 20  3  1  0
 25 21  1  0
 19  6  1  0
  1 26  1  0
  1 27  1  0
  1 28  1  0
  4 29  1  0
  5 30  1  0
  7 31  1  0
 10 32  1  0
 10 33  1  0
 16 34  1  0
 16 35  1  0
 17 36  1  0
 17 37  1  0
 18 38  1  0
 20 39  1  0
 21 40  1  6
 22 41  1  0
 22 42  1  0
 23 43  1  1
 24 44  1  0
 25 45  1  0
 25 46  1  0
M  END
>  <smiles>  (54) 
CN(c1ccc2cc(C(N)=O)n(C(=O)OCCO)c2c1)C1CC(O)C1

>  <score_type>  (54) 
oracle

>  <origin>  (54) 
adg

>  <m_score__min__energy>  (54) 
-9.0999999999999996

>  <m_primary>  (54) 
energy

$$$$
55:0
     RDKit          3D

 35 36  0  0  1  0  0  0  0  0999 V2000
   -7.5570   17.9400  -32.7530 C   0  0  0  0  0  0  0  0  0  0  0  0
   -7.6550   19.3640  -32.3210 C   0  0  0  0  0  0  0  0  0  0  0  0
   -8.8720   19.9540  -32.2390 C   0  0  0  0  0  0  0  0  0  0  0  0
   -8.9760   21.2680  -31.8420 C   0  0  0  0  0  0  0  0  0  0  0  0
   -7.8290   21.9630  -31.5330 C   0  0  0  0  0  0  0  0  0  0  0  0
   -7.6440   23.2530  -31.1190 C   0  0  0  0  0  0  0  0  0  0  0  0
   -6.2680   23.4860  -30.9340 C   0  0  0  0  0  0  0  0  0  0  0  0
   -5.7920   24.7790  -30.4950 C   0  0  0  0  0  0  0  0  0  0  0  0
   -5.6700   25.0570  -29.0730 N   0  0  0  0  0  0  0  0  0  0  0  0
   -5.4520   25.7390  -31.2170 O   0  0  0  0  0  0  0  0  0  0  0  0
   -5.6330   22.3400  -31.2350 N   0  0  0  0  0  0  0  0  0  0  0  0
   -4.2370   22.1470  -31.1800 C   0  0  0  0  0  0  0  0  0  0  0  0
   -3.4490   22.6900  -32.0330 O   0  0  0  0  0  0  0  0  0  0  0  0
   -3.5050   21.3260  -30.1750 C   0  0  0  0  0  0  0  0  0  0  0  0
   -2.1270   22.4050  -29.6130 P   0  0  1  0  0  0  0  0  0  0  0  0
   -1.5390   21.7290  -28.3950 O   0  0  0  0  0  0  0  0  0  0  0  0
   -0.9400   22.5040  -30.7890 O   0  0  0  0  0  0  0  0  0  0  0  0
   -2.6990   24.0030  -29.1270 C   0  0  0  0  0  0  0  0  0  0  0  0
   -2.7650   24.3630  -27.9030 O   0  0  0  0  0  0  0  0  0  0  0  0
   -3.0970   24.9220  -30.0730 O   0  0  0  0  0  0  0  0  0  0  0  0
   -6.5600   21.4100  -31.5990 C   0  0  0  0  0  0  0  0  0  0  0  0
   -6.5140   20.0920  -32.0030 C   0  0  0  0  0  0  0  0  0  0  0  0
   -7.5123   17.2902  -31.8666 H   0  0  0  0  0  0  0  0  0  0  0  0
   -8.4392   17.6781  -33.3555 H   0  0  0  0  0  0  0  0  0  0  0  0
   -6.6472   17.8014  -33.3555 H   0  0  0  0  0  0  0  0  0  0  0  0
   -9.7778   19.3825  -32.4899 H   0  0  0  0  0  0  0  0  0  0  0  0
   -9.9601   21.7547  -31.7728 H   0  0  0  0  0  0  0  0  0  0  0  0
   -8.4431   23.9912  -30.9564 H   0  0  0  0  0  0  0  0  0  0  0  0
   -6.4880   25.4630  -28.5690 H   0  0  0  0  0  0  0  0  0  0  0  0
   -4.7520   24.8400  -28.5880 H   0  0  0  0  0  0  0  0  0  0  0  0
   -4.1628   21.0653  -29.3328 H   0  0  0  0  0  0  0  0  0  0  0  0
   -3.1463   20.3744  -30.5942 H   0  0  0  0  0  0  0  0  0  0  0  0
   -1.3050   22.6290  -31.7170 H   0  0  0  0  0  0  0  0  0  0  0  0
   -3.5570   24.5740  -30.9150 H   0  0  0  0  0  0  0  0  0  0  0  0
   -5.5346   19.5967  -32.0766 H   0  0  0  0  0  0  0  0  0  0  0  0
  1  2  1  0
  2  3  2  0
  3  4  1  0
  4  5  2  0
  5  6  1  0
  6  7  2  0
  7  8  1  0
  8  9  1  0
  8 10  2  0
  7 11  1  0
 11 12  1  0
 12 13  2  0
 12 14  1  0
 14 15  1  0
 15 16  2  0
 15 17  1  1
 15 18  1  0
 18 19  2  0
 18 20  1  0
 11 21  1  0
 21 22  2  0
 22  2  1  0
 21  5  1  0
  1 23  1  0
  1 24  1  0
  1 25  1  0
  3 26  1  0
  4 27  1  0
  6 28  1  0
  9 29  1  0
  9 30  1  0
 14 31  1  0
 14 32  1  0
 17 33  1  0
 20 34  1  0
 22 35  1  0
M  END
>  <smiles>  (55) 
Cc1ccc2cc(C(N)=O)n(C(=O)CP(=O)(O)C(=O)O)c2c1

>  <score_type>  (55) 
oracle

>  <origin>  (55) 
adg

>  <m_score__min__energy>  (55) 
-8.2200000000000006

>  <m_primary>  (55) 
energy

$$$$
56:0
     RDKit          3D

 44 46  0  0  1  0  0  0  0  0999 V2000
   -5.9300   25.2450  -28.9670 N   0  0  0  0  0  0  0  0  0  0  0  0
   -5.2610   24.8450  -30.2050 C   0  0  0  0  0  0  0  0  0  0  0  0
   -4.5050   25.7380  -30.6410 O   0  0  0  0  0  0  0  0  0  0  0  0
   -5.5260   23.5430  -30.7610 C   0  0  0  0  0  0  0  0  0  0  0  0
   -6.7870   23.2330  -31.2960 C   0  0  0  0  0  0  0  0  0  0  0  0
   -6.7850   21.9610  -31.7520 C   0  0  0  0  0  0  0  0  0  0  0  0
   -7.7800   21.2200  -32.3520 C   0  0  0  0  0  0  0  0  0  0  0  0
   -7.5500   19.9220  -32.7420 C   0  0  0  0  0  0  0  0  0  0  0  0
   -6.3040   19.4010  -32.5120 C   0  0  0  0  0  0  0  0  0  0  0  0
   -6.0280   18.0620  -32.9030 N   0  0  0  0  0  0  0  0  0  0  0  0
   -6.1680   17.5910  -34.2680 C   0  0  0  0  0  0  0  0  0  0  0  0
   -5.2180   16.4090  -34.3530 C   0  0  0  0  0  0  0  0  0  0  0  0
   -4.5230   16.3400  -33.0160 C   0  0  2  0  0  0  0  0  0  0  0  0
   -4.1110   14.6580  -32.5390 S   0  0  0  0  0  0  0  0  0  0  0  0
   -2.6130   14.5380  -32.3050 O   0  0  0  0  0  0  0  0  0  0  0  0
   -5.0190   14.2470  -31.1780 O   0  0  0  0  0  0  0  0  0  0  0  0
   -5.5790   16.9380  -32.1030 C   0  0  0  0  0  0  0  0  0  0  0  0
   -5.3120   20.1660  -31.9050 C   0  0  0  0  0  0  0  0  0  0  0  0
   -5.5140   21.4660  -31.5050 C   0  0  0  0  0  0  0  0  0  0  0  0
   -4.7500   22.4270  -30.9030 N   0  0  0  0  0  0  0  0  0  0  0  0
   -3.4120   22.3250  -30.4910 C   0  0  0  0  0  0  0  0  0  0  0  0
   -3.0240   21.1480  -30.1430 O   0  0  0  0  0  0  0  0  0  0  0  0
   -2.3850   23.3200  -30.3890 C   0  0  0  0  0  0  0  0  0  0  0  0
   -2.0330   23.7010  -29.1380 C   0  0  0  0  0  0  0  0  0  0  0  0
   -0.9730   24.7290  -28.9890 C   0  0  0  0  0  0  0  0  0  0  0  0
    0.1790   24.4420  -28.5960 O   0  0  0  0  0  0  0  0  0  0  0  0
   -1.2350   26.0510  -29.2880 O   0  0  0  0  0  0  0  0  0  0  0  0
   -5.3560   25.6540  -28.1820 H   0  0  0  0  0  0  0  0  0  0  0  0
   -6.9680   25.1130  -28.8940 H   0  0  0  0  0  0  0  0  0  0  0  0
   -7.6448   23.9203  -31.3375 H   0  0  0  0  0  0  0  0  0  0  0  0
   -8.7686   21.6719  -32.5206 H   0  0  0  0  0  0  0  0  0  0  0  0
   -8.3382   19.3231  -33.2216 H   0  0  0  0  0  0  0  0  0  0  0  0
   -7.2026   17.2752  -34.4677 H   0  0  0  0  0  0  0  0  0  0  0  0
   -5.9378   18.3709  -35.0088 H   0  0  0  0  0  0  0  0  0  0  0  0
   -5.7778   15.4810  -34.5416 H   0  0  0  0  0  0  0  0  0  0  0  0
   -4.4984   16.5277  -35.1765 H   0  0  0  0  0  0  0  0  0  0  0  0
   -3.5537   16.8597  -32.9955 H   0  0  0  0  0  0  0  0  0  0  0  0
   -4.8720   14.8960  -30.4420 H   0  0  0  0  0  0  0  0  0  0  0  0
   -6.3959   16.2272  -31.9096 H   0  0  0  0  0  0  0  0  0  0  0  0
   -5.2133   17.2098  -31.1018 H   0  0  0  0  0  0  0  0  0  0  0  0
   -4.3244   19.7112  -31.7382 H   0  0  0  0  0  0  0  0  0  0  0  0
   -1.9075   23.7518  -31.2809 H   0  0  0  0  0  0  0  0  0  0  0  0
   -2.5199   23.2602  -28.2556 H   0  0  0  0  0  0  0  0  0  0  0  0
   -1.2460   26.4300  -30.2240 H   0  0  0  0  0  0  0  0  0  0  0  0
  1  2  1  0
  2  3  2  0
  2  4  1  0
  4  5  2  0
  5  6  1  0
  6  7  2  0
  7  8  1  0
  8  9  2  0
  9 10  1  0
 10 11  1  0
 11 12  1  0
 12 13  1  0
 13 14  1  0
 14 15  2  0
 14 16  1  6
 13 17  1  0
  9 18  1  0
 18 19  2  0
 19 20  1  0
 20 21  1  0
 21 22  2  0
 21 23  1  0
 23 24  2  0
 24 25  1  0
 25 26  2  0
 25 27  1  0
 20  4  1  0
 19  6  1  0
 17 10  1  0
  1 28  1  0
  1 29  1  0
  5 30  1  0
  7 31  1  0
  8 32  1  0
 11 33  1  0
 11 34  1  0
 12 35  1  0
 12 36  1  0
 13 37  1  6
 16 38  1  0
 17 39  1  0
 17 40  1  0
 18 41  1  0
 23 42  1  0
 24 43  1  0
 27 44  1  0
M  END
>  <smiles>  (56) 
NC(=O)c1cc2ccc(N3CCC(S(=O)O)C3)cc2n1C(=O)C=CC(=O)O

>  <score_type>  (56) 
oracle

>  <origin>  (56) 
adg

>  <m_score__min__energy>  (56) 
-10.470000000000001

>  <m_primary>  (56) 
energy

$$$$
58:0
     RDKit          3D

 40 41  0  0  0  0  0  0  0  0999 V2000
   -3.8420   24.1300  -27.6140 C   0  0  0  0  0  0  0  0  0  0  0  0
   -3.6470   23.2610  -28.6000 C   0  0  0  0  0  0  0  0  0  0  0  0
   -2.6300   23.4090  -29.6520 C   0  0  0  0  0  0  0  0  0  0  0  0
   -3.1830   23.7810  -30.9020 O   0  0  0  0  0  0  0  0  0  0  0  0
   -4.1390   23.0510  -31.5560 C   0  0  0  0  0  0  0  0  0  0  0  0
   -3.6910   22.2140  -32.4170 O   0  0  0  0  0  0  0  0  0  0  0  0
   -5.5380   23.1440  -31.3630 N   0  0  0  0  0  0  0  0  0  0  0  0
   -6.2200   24.1550  -30.8000 C   0  0  0  0  0  0  0  0  0  0  0  0
   -5.7610   25.4100  -30.2380 C   0  0  0  0  0  0  0  0  0  0  0  0
   -4.4480   25.8940  -30.5920 N   0  0  0  0  0  0  0  0  0  0  0  0
   -6.3970   26.1430  -29.4570 O   0  0  0  0  0  0  0  0  0  0  0  0
   -7.5750   23.8030  -30.8280 C   0  0  0  0  0  0  0  0  0  0  0  0
   -7.7050   22.5680  -31.4160 C   0  0  0  0  0  0  0  0  0  0  0  0
   -8.8160   21.7880  -31.6780 C   0  0  0  0  0  0  0  0  0  0  0  0
   -8.6610   20.5710  -32.2860 C   0  0  0  0  0  0  0  0  0  0  0  0
   -7.3980   20.1380  -32.6290 C   0  0  0  0  0  0  0  0  0  0  0  0
   -7.2270   18.8810  -33.2580 N   0  0  0  0  0  0  0  0  0  0  0  0
   -6.0170   18.1330  -33.1080 C   0  0  0  0  0  0  0  0  0  0  0  0
   -5.1720   18.1750  -34.3390 C   0  0  0  0  0  0  0  0  0  0  0  0
   -3.8950   17.8520  -34.2360 C   0  0  0  0  0  0  0  0  0  0  0  0
   -5.7750   18.5540  -35.5290 O   0  0  0  0  0  0  0  0  0  0  0  0
   -6.3000   20.9430  -32.3540 C   0  0  0  0  0  0  0  0  0  0  0  0
   -6.4240   22.1780  -31.7400 C   0  0  0  0  0  0  0  0  0  0  0  0
   -4.6260   23.9451  -26.8649 H   0  0  0  0  0  0  0  0  0  0  0  0
   -3.2194   25.0344  -27.5468 H   0  0  0  0  0  0  0  0  0  0  0  0
   -4.2906   22.3695  -28.6316 H   0  0  0  0  0  0  0  0  0  0  0  0
   -1.9126   24.1827  -29.3409 H   0  0  0  0  0  0  0  0  0  0  0  0
   -2.1442   22.4308  -29.7828 H   0  0  0  0  0  0  0  0  0  0  0  0
   -4.1130   25.6780  -31.5760 H   0  0  0  0  0  0  0  0  0  0  0  0
   -3.8670   26.4260  -29.9070 H   0  0  0  0  0  0  0  0  0  0  0  0
   -8.4022   24.4164  -30.4415 H   0  0  0  0  0  0  0  0  0  0  0  0
   -9.8191   22.1432  -31.3995 H   0  0  0  0  0  0  0  0  0  0  0  0
   -9.5385   19.9429  -32.4993 H   0  0  0  0  0  0  0  0  0  0  0  0
   -7.9870   18.4780  -33.8450 H   0  0  0  0  0  0  0  0  0  0  0  0
   -5.4424   18.5530  -32.2693 H   0  0  0  0  0  0  0  0  0  0  0  0
   -6.2893   17.0838  -32.9207 H   0  0  0  0  0  0  0  0  0  0  0  0
   -3.2486   17.8739  -35.1258 H   0  0  0  0  0  0  0  0  0  0  0  0
   -3.4782   17.5612  -33.2605 H   0  0  0  0  0  0  0  0  0  0  0  0
   -6.7100   18.9460  -35.4860 H   0  0  0  0  0  0  0  0  0  0  0  0
   -5.2974   20.5872  -32.6336 H   0  0  0  0  0  0  0  0  0  0  0  0
  1  2  2  0
  2  3  1  0
  3  4  1  0
  4  5  1  0
  5  6  2  0
  5  7  1  0
  7  8  1  0
  8  9  1  0
  9 10  1  0
  9 11  2  0
  8 12  2  0
 12 13  1  0
 13 14  2  0
 14 15  1  0
 15 16  2  0
 16 17  1  0
 17 18  1  0
 18 19  1  0
 19 20  2  0
 19 21  1  0
 16 22  1  0
 22 23  2  0
 23  7  1  0
 23 13  1  0
  1 24  1  0
  1 25  1  0
  2 26  1  0
  3 27  1  0
  3 28  1  0
 10 29  1  0
 10 30  1  0
 12 31  1  0
 14 32  1  0
 15 33  1  0
 17 34  1  0
 18 35  1  0
 18 36  1  0
 20 37  1  0
 20 38  1  0
 21 39  1  0
 22 40  1  0
M  END
>  <smiles>  (57) 
C=CCOC(=O)n1c(C(N)=O)cc2ccc(NCC(=C)O)cc21

>  <score_type>  (57) 
oracle

>  <origin>  (57) 
adg

>  <m_score__min__energy>  (57) 
-8.9299999999999997

>  <m_primary>  (57) 
energy

$$$$
59:0
     RDKit          3D

 44 45  0  0  1  0  0  0  0  0999 V2000
   -3.3930   24.2140  -27.3560 C   0  0  0  0  0  0  0  0  0  0  0  0
   -2.5810   24.3850  -28.6040 C   0  0  2  0  0  0  0  0  0  0  0  0
   -1.2440   25.0520  -28.3890 C   0  0  0  0  0  0  0  0  0  0  0  0
   -1.1170   26.0680  -29.3490 O   0  0  0  0  0  0  0  0  0  0  0  0
   -3.3200   24.9260  -29.7170 N   0  0  0  0  0  0  0  0  0  0  0  0
   -4.6410   24.5400  -30.0730 C   0  0  0  0  0  0  0  0  0  0  0  0
   -5.7450   25.3170  -29.8360 C   0  0  0  0  0  0  0  0  0  0  0  0
   -7.0370   24.9190  -30.1950 C   0  0  0  0  0  0  0  0  0  0  0  0
   -7.1700   23.6930  -30.8090 C   0  0  0  0  0  0  0  0  0  0  0  0
   -8.2740   23.0530  -31.2620 C   0  0  0  0  0  0  0  0  0  0  0  0
   -7.9060   21.8180  -31.8160 C   0  0  0  0  0  0  0  0  0  0  0  0
   -8.8720   20.9050  -32.3850 C   0  0  0  0  0  0  0  0  0  0  0  0
   -8.4430   19.9430  -33.3770 N   0  0  0  0  0  0  0  0  0  0  0  0
  -10.0920   20.8500  -32.1080 O   0  0  0  0  0  0  0  0  0  0  0  0
   -6.5740   21.7410  -31.6830 N   0  0  0  0  0  0  0  0  0  0  0  0
   -5.7460   20.6660  -32.1010 C   0  0  0  0  0  0  0  0  0  0  0  0
   -4.6660   20.7970  -32.7290 O   0  0  0  0  0  0  0  0  0  0  0  0
   -6.1070   19.3480  -31.8200 O   0  0  0  0  0  0  0  0  0  0  0  0
   -5.5610   18.2250  -32.4620 C   0  0  1  0  0  0  0  0  0  0  0  0
   -6.1200   17.0150  -31.7000 C   0  0  0  0  0  0  0  0  0  0  0  0
   -5.8470   18.1400  -33.9020 C   0  0  0  0  0  0  0  0  0  0  0  0
   -5.8420   16.9750  -34.4250 O   0  0  0  0  0  0  0  0  0  0  0  0
   -6.1170   19.2550  -34.7020 O   0  0  0  0  0  0  0  0  0  0  0  0
   -6.0990   22.8640  -31.0760 C   0  0  0  0  0  0  0  0  0  0  0  0
   -4.8560   23.3170  -30.6960 C   0  0  0  0  0  0  0  0  0  0  0  0
   -2.7466   24.3501  -26.4764 H   0  0  0  0  0  0  0  0  0  0  0  0
   -4.1993   24.9620  -27.3378 H   0  0  0  0  0  0  0  0  0  0  0  0
   -3.8291   23.2043  -27.3378 H   0  0  0  0  0  0  0  0  0  0  0  0
   -2.3338   23.3552  -28.9013 H   0  0  0  0  0  0  0  0  0  0  0  0
   -1.1983   25.4833  -27.3781 H   0  0  0  0  0  0  0  0  0  0  0  0
   -0.4275   24.3217  -28.4893 H   0  0  0  0  0  0  0  0  0  0  0  0
   -0.5220   25.6640  -30.0530 H   0  0  0  0  0  0  0  0  0  0  0  0
   -2.8570   25.6700  -30.3240 H   0  0  0  0  0  0  0  0  0  0  0  0
   -5.6097   26.2916  -29.3443 H   0  0  0  0  0  0  0  0  0  0  0  0
   -7.9099   25.5579  -29.9955 H   0  0  0  0  0  0  0  0  0  0  0  0
   -9.3014   23.4418  -31.2044 H   0  0  0  0  0  0  0  0  0  0  0  0
   -9.0450   19.7900  -34.2180 H   0  0  0  0  0  0  0  0  0  0  0  0
   -7.5460   19.4260  -33.2310 H   0  0  0  0  0  0  0  0  0  0  0  0
   -4.4627   18.2784  -32.4323 H   0  0  0  0  0  0  0  0  0  0  0  0
   -6.0376   17.1933  -30.6177 H   0  0  0  0  0  0  0  0  0  0  0  0
   -7.1768   16.8691  -31.9682 H   0  0  0  0  0  0  0  0  0  0  0  0
   -5.5461   16.1157  -31.9682 H   0  0  0  0  0  0  0  0  0  0  0  0
   -5.9920   20.2050  -34.3290 H   0  0  0  0  0  0  0  0  0  0  0  0
   -3.9852   22.6755  -30.8966 H   0  0  0  0  0  0  0  0  0  0  0  0
  1  2  1  0
  2  3  1  0
  3  4  1  0
  2  5  1  0
  5  6  1  0
  6  7  2  0
  7  8  1  0
  8  9  2  0
  9 10  1  0
 10 11  2  0
 11 12  1  0
 12 13  1  0
 12 14  2  0
 11 15  1  0
 15 16  1  0
 16 17  2  0
 16 18  1  0
 18 19  1  0
 19 20  1  0
 19 21  1  0
 21 22  2  0
 21 23  1  0
 15 24  1  0
 24 25  2  0
 25  6  1  0
 24  9  1  0
  1 26  1  0
  1 27  1  0
  1 28  1  0
  2 29  1  6
  3 30  1  0
  3 31  1  0
  4 32  1  0
  5 33  1  0
  7 34  1  0
  8 35  1  0
 10 36  1  0
 13 37  1  0
 13 38  1  0
 19 39  1  6
 20 40  1  0
 20 41  1  0
 20 42  1  0
 23 43  1  0
 25 44  1  0
M  END
>  <smiles>  (58) 
CC(CO)Nc1ccc2cc(C(N)=O)n(C(=O)OC(C)C(=O)O)c2c1

>  <score_type>  (58) 
oracle

>  <origin>  (58) 
adg

>  <m_score__min__energy>  (58) 
-10.06

>  <m_primary>  (58) 
energy

$$$$
60:0
     RDKit          3D

 42 43  0  0  1  0  0  0  0  0999 V2000
   -2.6840   23.7420  -29.0620 C   0  0  0  0  0  0  0  0  0  0  0  0
   -4.1270   23.4370  -28.8210 C   0  0  1  0  0  0  0  0  0  0  0  0
   -4.5440   24.3400  -27.8230 O   0  0  0  0  0  0  0  0  0  0  0  0
   -5.0230   23.6180  -29.9980 C   0  0  2  0  0  0  0  0  0  0  0  0
   -4.5380   23.0980  -31.2500 N   0  0  0  0  0  0  0  0  0  0  0  0
   -4.4360   21.6750  -31.5050 C   0  0  0  0  0  0  0  0  0  0  0  0
   -4.8060   20.9660  -30.5480 O   0  0  0  0  0  0  0  0  0  0  0  0
   -3.9420   21.2250  -32.7820 C   0  0  0  0  0  0  0  0  0  0  0  0
   -3.4990   22.1560  -33.5430 O   0  0  0  0  0  0  0  0  0  0  0  0
   -3.8700   19.9240  -33.2950 N   0  0  0  0  0  0  0  0  0  0  0  0
   -2.9520   19.2710  -34.0060 C   0  0  0  0  0  0  0  0  0  0  0  0
   -1.5280   19.5780  -34.2200 C   0  0  0  0  0  0  0  0  0  0  0  0
   -1.0970   20.9510  -34.1330 N   0  0  0  0  0  0  0  0  0  0  0  0
   -0.6460   18.7510  -34.4730 O   0  0  0  0  0  0  0  0  0  0  0  0
   -3.4400   18.0430  -34.4560 C   0  0  0  0  0  0  0  0  0  0  0  0
   -4.7030   17.9480  -33.9910 C   0  0  0  0  0  0  0  0  0  0  0  0
   -5.6270   16.9200  -34.1560 C   0  0  0  0  0  0  0  0  0  0  0  0
   -6.8730   17.0220  -33.5950 C   0  0  0  0  0  0  0  0  0  0  0  0
   -7.1630   18.1570  -32.8810 C   0  0  0  0  0  0  0  0  0  0  0  0
   -8.5250   18.3000  -32.2510 C   0  0  0  0  0  0  0  0  0  0  0  0
   -9.1390   19.4600  -32.6560 F   0  0  0  0  0  0  0  0  0  0  0  0
   -8.2770   18.3040  -30.8820 F   0  0  0  0  0  0  0  0  0  0  0  0
   -6.2300   19.1820  -32.7220 C   0  0  0  0  0  0  0  0  0  0  0  0
   -4.9620   19.0890  -33.2860 C   0  0  0  0  0  0  0  0  0  0  0  0
   -5.3730   25.0430  -30.1730 C   0  0  0  0  0  0  0  0  0  0  0  0
   -4.9820   25.6690  -31.1950 O   0  0  0  0  0  0  0  0  0  0  0  0
   -6.1330   25.7610  -29.2530 O   0  0  0  0  0  0  0  0  0  0  0  0
   -2.1663   23.8514  -28.0976 H   0  0  0  0  0  0  0  0  0  0  0  0
   -2.2260   22.9208  -29.6329 H   0  0  0  0  0  0  0  0  0  0  0  0
   -2.5975   24.6783  -29.6329 H   0  0  0  0  0  0  0  0  0  0  0  0
   -4.2023   22.3726  -28.5536 H   0  0  0  0  0  0  0  0  0  0  0  0
   -5.5310   24.3670  -27.8380 H   0  0  0  0  0  0  0  0  0  0  0  0
   -5.9060   23.0114  -29.7484 H   0  0  0  0  0  0  0  0  0  0  0  0
   -4.2580   23.8020  -31.9740 H   0  0  0  0  0  0  0  0  0  0  0  0
   -0.2380   21.2310  -33.6200 H   0  0  0  0  0  0  0  0  0  0  0  0
   -1.6430   21.7150  -34.5900 H   0  0  0  0  0  0  0  0  0  0  0  0
   -2.9031   17.3021  -35.0666 H   0  0  0  0  0  0  0  0  0  0  0  0
   -5.3569   16.0257  -34.7368 H   0  0  0  0  0  0  0  0  0  0  0  0
   -7.6165   16.2200  -33.7133 H   0  0  0  0  0  0  0  0  0  0  0  0
   -9.2088   17.4894  -32.5431 H   0  0  0  0  0  0  0  0  0  0  0  0
   -6.5011   20.0766  -32.1422 H   0  0  0  0  0  0  0  0  0  0  0  0
   -5.7720   26.0480  -28.3560 H   0  0  0  0  0  0  0  0  0  0  0  0
  1  2  1  0
  2  3  1  0
  2  4  1  0
  4  5  1  0
  5  6  1  0
  6  7  2  0
  6  8  1  0
  8  9  2  0
  8 10  1  0
 10 11  1  0
 11 12  1  0
 12 13  1  0
 12 14  2  0
 11 15  2  0
 15 16  1  0
 16 17  2  0
 17 18  1  0
 18 19  2  0
 19 20  1  0
 20 21  1  0
 20 22  1  0
 19 23  1  0
 23 24  2  0
  4 25  1  0
 25 26  2  0
 25 27  1  0
 24 10  1  0
 24 16  1  0
  1 28  1  0
  1 29  1  0
  1 30  1  0
  2 31  1  1
  3 32  1  0
  4 33  1  1
  5 34  1  0
 13 35  1  0
 13 36  1  0
 15 37  1  0
 17 38  1  0
 18 39  1  0
 20 40  1  0
 23 41  1  0
 27 42  1  0
M  END
>  <smiles>  (59) 
CC(O)[C@H](NC(=O)C(=O)n1c(C(N)=O)cc2ccc(C(F)F)cc21)C(=O)O

>  <score_type>  (59) 
oracle

>  <origin>  (59) 
adg

>  <m_score__min__energy>  (59) 
-8.8599999999999994

>  <m_primary>  (59) 
energy

$$$$
62:0
     RDKit          3D

 43 44  0  0  0  0  0  0  0  0999 V2000
   -2.3300   23.8880  -27.6030 C   0  0  0  0  0  0  0  0  0  0  0  0
   -1.7230   24.7600  -28.5940 N   0  0  0  0  0  0  0  0  0  0  0  0
   -1.2450   25.9410  -27.9000 C   0  0  0  0  0  0  0  0  0  0  0  0
   -0.6030   24.1200  -29.2420 C   0  0  0  0  0  0  0  0  0  0  0  0
   -0.8100   22.6420  -29.2100 C   0  0  0  0  0  0  0  0  0  0  0  0
   -1.4300   22.1200  -30.4990 C   0  0  0  0  0  0  0  0  0  0  0  0
   -2.7890   22.5090  -30.4650 O   0  0  0  0  0  0  0  0  0  0  0  0
   -3.6890   22.2270  -31.4650 C   0  0  0  0  0  0  0  0  0  0  0  0
   -3.1840   21.6560  -32.4970 O   0  0  0  0  0  0  0  0  0  0  0  0
   -5.0740   22.5120  -31.4390 N   0  0  0  0  0  0  0  0  0  0  0  0
   -5.6610   23.6740  -31.1060 C   0  0  0  0  0  0  0  0  0  0  0  0
   -5.1050   24.9380  -30.6920 C   0  0  0  0  0  0  0  0  0  0  0  0
   -3.8680   24.9520  -29.9620 N   0  0  0  0  0  0  0  0  0  0  0  0
   -5.6020   26.0670  -30.9070 O   0  0  0  0  0  0  0  0  0  0  0  0
   -7.0410   23.4650  -31.2300 C   0  0  0  0  0  0  0  0  0  0  0  0
   -7.2770   22.1730  -31.6390 C   0  0  0  0  0  0  0  0  0  0  0  0
   -8.4560   21.5000  -31.8980 C   0  0  0  0  0  0  0  0  0  0  0  0
   -8.4060   20.1810  -32.3020 C   0  0  0  0  0  0  0  0  0  0  0  0
   -7.1810   19.5650  -32.4380 C   0  0  0  0  0  0  0  0  0  0  0  0
   -7.1310   18.1370  -32.8750 C   0  0  0  0  0  0  0  0  0  0  0  0
   -6.1030   18.0350  -34.3250 Cl  0  0  0  0  0  0  0  0  0  0  0  0
   -6.0050   20.2750  -32.1680 C   0  0  0  0  0  0  0  0  0  0  0  0
   -6.0330   21.5950  -31.7630 C   0  0  0  0  0  0  0  0  0  0  0  0
   -2.0790   24.2485  -26.5945 H   0  0  0  0  0  0  0  0  0  0  0  0
   -3.4224   23.8908  -27.7321 H   0  0  0  0  0  0  0  0  0  0  0  0
   -1.9481   22.8645  -27.7321 H   0  0  0  0  0  0  0  0  0  0  0  0
   -1.3103   25.7796  -26.8139 H   0  0  0  0  0  0  0  0  0  0  0  0
   -0.1986   26.1324  -28.1800 H   0  0  0  0  0  0  0  0  0  0  0  0
   -1.8637   26.8064  -28.1800 H   0  0  0  0  0  0  0  0  0  0  0  0
   -0.5349   24.4614  -30.2855 H   0  0  0  0  0  0  0  0  0  0  0  0
    0.3295   24.3785  -28.7189 H   0  0  0  0  0  0  0  0  0  0  0  0
    0.1631   22.1512  -29.0608 H   0  0  0  0  0  0  0  0  0  0  0  0
   -1.5030   22.4158  -28.3862 H   0  0  0  0  0  0  0  0  0  0  0  0
   -0.9275   22.5633  -31.3714 H   0  0  0  0  0  0  0  0  0  0  0  0
   -1.3261   21.0281  -30.5819 H   0  0  0  0  0  0  0  0  0  0  0  0
   -2.9930   24.6650  -30.4230 H   0  0  0  0  0  0  0  0  0  0  0  0
   -3.8330   25.2500  -28.9580 H   0  0  0  0  0  0  0  0  0  0  0  0
   -7.8169   24.2188  -31.0308 H   0  0  0  0  0  0  0  0  0  0  0  0
   -9.4239   22.0100  -31.7834 H   0  0  0  0  0  0  0  0  0  0  0  0
   -9.3333   19.6281  -32.5129 H   0  0  0  0  0  0  0  0  0  0  0  0
   -6.7055   17.5166  -32.0724 H   0  0  0  0  0  0  0  0  0  0  0  0
   -8.1441   17.7730  -33.1010 H   0  0  0  0  0  0  0  0  0  0  0  0
   -5.0349   19.7690  -32.2812 H   0  0  0  0  0  0  0  0  0  0  0  0
  1  2  1  0
  2  3  1  0
  2  4  1  0
  4  5  1  0
  5  6  1  0
  6  7  1  0
  7  8  1  0
  8  9  2  0
  8 10  1  0
 10 11  1  0
 11 12  1  0
 12 13  1  0
 12 14  2  0
 11 15  2  0
 15 16  1  0
 16 17  2  0
 17 18  1  0
 18 19  2  0
 19 20  1  0
 20 21  1  0
 19 22  1  0
 22 23  2  0
 23 10  1  0
 23 16  1  0
  1 24  1  0
  1 25  1  0
  1 26  1  0
  3 27  1  0
  3 28  1  0
  3 29  1  0
  4 30  1  0
  4 31  1  0
  5 32  1  0
  5 33  1  0
  6 34  1  0
  6 35  1  0
 13 36  1  0
 13 37  1  0
 15 38  1  0
 17 39  1  0
 18 40  1  0
 20 41  1  0
 20 42  1  0
 22 43  1  0
M  END
>  <smiles>  (60) 
CN(C)CCCOC(=O)n1c(C(N)=O)cc2ccc(CCl)cc21

>  <score_type>  (60) 
oracle

>  <origin>  (60) 
adg

>  <m_score__min__energy>  (60) 
-8.4499999999999993

>  <m_primary>  (60) 
energy

$$$$
63:0
     RDKit          3D

 47 48  0  0  0  0  0  0  0  0999 V2000
   -0.5780   26.0200  -26.6970 C   0  0  0  0  0  0  0  0  0  0  0  0
   -1.5050   25.7950  -27.8390 C   0  0  0  0  0  0  0  0  0  0  0  0
   -1.2180   26.4280  -28.9090 O   0  0  0  0  0  0  0  0  0  0  0  0
   -2.5960   24.9590  -27.7400 O   0  0  0  0  0  0  0  0  0  0  0  0
   -2.4350   23.5720  -27.6110 C   0  0  0  0  0  0  0  0  0  0  0  0
   -1.8590   22.9860  -28.8440 C   0  0  0  0  0  0  0  0  0  0  0  0
   -1.4600   23.7920  -29.7310 O   0  0  0  0  0  0  0  0  0  0  0  0
   -1.7570   21.5910  -29.0240 N   0  0  0  0  0  0  0  0  0  0  0  0
   -1.4130   20.7530  -27.9020 C   0  0  0  0  0  0  0  0  0  0  0  0
   -2.0000   21.0260  -30.3370 C   0  0  0  0  0  0  0  0  0  0  0  0
   -3.4790   20.9820  -30.6550 C   0  0  0  0  0  0  0  0  0  0  0  0
   -4.0250   22.2280  -31.1960 C   0  0  0  0  0  0  0  0  0  0  0  0
   -3.1500   22.9860  -31.7630 O   0  0  0  0  0  0  0  0  0  0  0  0
   -5.3430   22.6840  -31.1760 N   0  0  0  0  0  0  0  0  0  0  0  0
   -5.7400   23.9590  -30.9190 C   0  0  0  0  0  0  0  0  0  0  0  0
   -5.0070   25.1640  -30.6380 C   0  0  0  0  0  0  0  0  0  0  0  0
   -3.5640   25.0970  -30.4350 N   0  0  0  0  0  0  0  0  0  0  0  0
   -5.4540   26.3280  -30.5350 O   0  0  0  0  0  0  0  0  0  0  0  0
   -7.1480   23.9700  -30.9800 C   0  0  0  0  0  0  0  0  0  0  0  0
   -7.5910   22.7120  -31.2690 C   0  0  0  0  0  0  0  0  0  0  0  0
   -8.8660   22.2260  -31.4260 C   0  0  0  0  0  0  0  0  0  0  0  0
   -9.0810   20.8970  -31.7160 C   0  0  0  0  0  0  0  0  0  0  0  0
   -7.9730   20.0950  -31.8370 C   0  0  0  0  0  0  0  0  0  0  0  0
   -8.1730   18.6430  -32.1520 C   0  0  0  0  0  0  0  0  0  0  0  0
   -7.5550   17.8610  -31.1910 F   0  0  0  0  0  0  0  0  0  0  0  0
   -9.5220   18.3620  -32.0750 F   0  0  0  0  0  0  0  0  0  0  0  0
   -7.6490   18.3560  -33.3880 F   0  0  0  0  0  0  0  0  0  0  0  0
   -6.6970   20.5950  -31.6770 C   0  0  0  0  0  0  0  0  0  0  0  0
   -6.4500   21.9360  -31.3850 C   0  0  0  0  0  0  0  0  0  0  0  0
   -1.1231   25.8877  -25.7507 H   0  0  0  0  0  0  0  0  0  0  0  0
    0.2490   25.2965  -26.7480 H   0  0  0  0  0  0  0  0  0  0  0  0
   -0.1747   27.0421  -26.7480 H   0  0  0  0  0  0  0  0  0  0  0  0
   -1.7615   23.3653  -26.7662 H   0  0  0  0  0  0  0  0  0  0  0  0
   -3.4226   23.1198  -27.4370 H   0  0  0  0  0  0  0  0  0  0  0  0
   -1.6320   21.2864  -26.9652 H   0  0  0  0  0  0  0  0  0  0  0  0
   -2.0032   19.8256  -27.9424 H   0  0  0  0  0  0  0  0  0  0  0  0
   -0.3415   20.5078  -27.9424 H   0  0  0  0  0  0  0  0  0  0  0  0
   -1.4900   21.6426  -31.0918 H   0  0  0  0  0  0  0  0  0  0  0  0
   -1.6132   19.9963  -30.3474 H   0  0  0  0  0  0  0  0  0  0  0  0
   -3.6472   20.1847  -31.3940 H   0  0  0  0  0  0  0  0  0  0  0  0
   -3.9970   20.8037  -29.7011 H   0  0  0  0  0  0  0  0  0  0  0  0
   -3.0340   24.4450  -31.0750 H   0  0  0  0  0  0  0  0  0  0  0  0
   -3.1050   25.6710  -29.6950 H   0  0  0  0  0  0  0  0  0  0  0  0
   -7.7871   24.8509  -30.8203 H   0  0  0  0  0  0  0  0  0  0  0  0
   -9.7244   22.9055  -31.3190 H   0  0  0  0  0  0  0  0  0  0  0  0
  -10.0968   20.4952  -31.8452 H   0  0  0  0  0  0  0  0  0  0  0  0
   -5.8427   19.9103  -31.7838 H   0  0  0  0  0  0  0  0  0  0  0  0
  1  2  1  0
  2  3  2  0
  2  4  1  0
  4  5  1  0
  5  6  1  0
  6  7  2  0
  6  8  1  0
  8  9  1  0
  8 10  1  0
 10 11  1  0
 11 12  1  0
 12 13  2  0
 12 14  1  0
 14 15  1  0
 15 16  1  0
 16 17  1  0
 16 18  2  0
 15 19  2  0
 19 20  1  0
 20 21  2  0
 21 22  1  0
 22 23  2  0
 23 24  1  0
 24 25  1  0
 24 26  1  0
 24 27  1  0
 23 28  1  0
 28 29  2  0
 29 14  1  0
 29 20  1  0
  1 30  1  0
  1 31  1  0
  1 32  1  0
  5 33  1  0
  5 34  1  0
  9 35  1  0
  9 36  1  0
  9 37  1  0
 10 38  1  0
 10 39  1  0
 11 40  1  0
 11 41  1  0
 17 42  1  0
 17 43  1  0
 19 44  1  0
 21 45  1  0
 22 46  1  0
 28 47  1  0
M  END
>  <smiles>  (61) 
CC(=O)OCC(=O)N(C)CCC(=O)n1c(C(N)=O)cc2ccc(C(F)(F)F)cc21

>  <score_type>  (61) 
oracle

>  <origin>  (61) 
adg

>  <m_score__min__energy>  (61) 
-8.7100000000000009

>  <m_primary>  (61) 
energy

$$$$
64:0
     RDKit          3D

 45 46  0  0  0  0  0  0  0  0999 V2000
   -1.8090   20.9430  -31.1220 C   0  0  0  0  0  0  0  0  0  0  0  0
   -2.5410   20.8330  -32.3590 N   0  0  0  0  0  0  0  0  0  0  0  0
   -1.9510   19.9900  -33.4000 C   0  0  0  0  0  0  0  0  0  0  0  0
   -2.8070   18.7930  -33.6300 C   0  0  0  0  0  0  0  0  0  0  0  0
   -2.6380   18.0030  -34.5950 O   0  0  0  0  0  0  0  0  0  0  0  0
   -3.8500   18.5050  -32.7600 O   0  0  0  0  0  0  0  0  0  0  0  0
   -3.7970   21.5050  -32.5980 C   0  0  0  0  0  0  0  0  0  0  0  0
   -4.4330   21.0500  -33.5920 O   0  0  0  0  0  0  0  0  0  0  0  0
   -4.2360   22.5870  -31.7530 C   0  0  0  0  0  0  0  0  0  0  0  0
   -3.2920   23.3260  -31.2910 O   0  0  0  0  0  0  0  0  0  0  0  0
   -5.5420   22.9320  -31.3620 N   0  0  0  0  0  0  0  0  0  0  0  0
   -6.0590   24.0570  -30.8580 C   0  0  0  0  0  0  0  0  0  0  0  0
   -5.4240   25.2020  -30.2220 C   0  0  0  0  0  0  0  0  0  0  0  0
   -6.1200   25.8800  -29.1450 N   0  0  0  0  0  0  0  0  0  0  0  0
   -4.3110   25.6860  -30.5100 O   0  0  0  0  0  0  0  0  0  0  0  0
   -7.4660   23.9700  -30.8310 C   0  0  0  0  0  0  0  0  0  0  0  0
   -7.7880   22.7440  -31.3330 C   0  0  0  0  0  0  0  0  0  0  0  0
   -9.0330   22.1770  -31.5140 C   0  0  0  0  0  0  0  0  0  0  0  0
   -9.1270   20.9090  -32.0450 C   0  0  0  0  0  0  0  0  0  0  0  0
   -7.9720   20.2420  -32.3810 C   0  0  0  0  0  0  0  0  0  0  0  0
   -8.0280   18.9450  -32.9440 N   0  0  0  0  0  0  0  0  0  0  0  0
   -7.1680   17.8470  -32.5750 C   0  0  0  0  0  0  0  0  0  0  0  0
   -6.3600   17.3250  -33.7260 C   0  0  0  0  0  0  0  0  0  0  0  0
   -5.7450   18.4920  -34.3840 N   0  0  0  0  0  0  0  0  0  0  0  0
   -6.7270   20.8430  -32.1860 C   0  0  0  0  0  0  0  0  0  0  0  0
   -6.6080   22.1240  -31.6510 C   0  0  0  0  0  0  0  0  0  0  0  0
   -2.5029   20.8387  -30.2748 H   0  0  0  0  0  0  0  0  0  0  0  0
   -1.0493   20.1489  -31.0736 H   0  0  0  0  0  0  0  0  0  0  0  0
   -1.3163   21.9253  -31.0736 H   0  0  0  0  0  0  0  0  0  0  0  0
   -1.8712   20.5660  -34.3338 H   0  0  0  0  0  0  0  0  0  0  0  0
   -0.9514   19.6633  -33.0775 H   0  0  0  0  0  0  0  0  0  0  0  0
   -4.6630   19.1090  -32.6570 H   0  0  0  0  0  0  0  0  0  0  0  0
   -5.9820   25.4420  -28.2070 H   0  0  0  0  0  0  0  0  0  0  0  0
   -6.6990   26.7290  -29.3210 H   0  0  0  0  0  0  0  0  0  0  0  0
   -8.1663   24.7400  -30.4749 H   0  0  0  0  0  0  0  0  0  0  0  0
   -9.9415   22.7319  -31.2371 H   0  0  0  0  0  0  0  0  0  0  0  0
  -10.1093   20.4381  -32.1976 H   0  0  0  0  0  0  0  0  0  0  0  0
   -8.7440   18.7330  -33.6950 H   0  0  0  0  0  0  0  0  0  0  0  0
   -6.4787   18.1900  -31.7894 H   0  0  0  0  0  0  0  0  0  0  0  0
   -7.8121   17.0267  -32.2254 H   0  0  0  0  0  0  0  0  0  0  0  0
   -5.5790   16.6421  -33.3605 H   0  0  0  0  0  0  0  0  0  0  0  0
   -6.9942   16.7660  -34.4298 H   0  0  0  0  0  0  0  0  0  0  0  0
   -5.6770   19.2700  -33.7180 H   0  0  0  0  0  0  0  0  0  0  0  0
   -4.8010   18.1610  -34.6890 H   0  0  0  0  0  0  0  0  0  0  0  0
   -5.8165   20.2909  -32.4619 H   0  0  0  0  0  0  0  0  0  0  0  0
  1  2  1  0
  2  3  1  0
  3  4  1  0
  4  5  2  0
  4  6  1  0
  2  7  1  0
  7  8  2  0
  7  9  1  0
  9 10  2  0
  9 11  1  0
 11 12  1  0
 12 13  1  0
 13 14  1  0
 13 15  2  0
 12 16  2  0
 16 17  1  0
 17 18  2  0
 18 19  1  0
 19 20  2  0
 20 21  1  0
 21 22  1  0
 22 23  1  0
 23 24  1  0
 20 25  1  0
 25 26  2  0
 26 11  1  0
 26 17  1  0
  1 27  1  0
  1 28  1  0
  1 29  1  0
  3 30  1  0
  3 31  1  0
  6 32  1  0
 14 33  1  0
 14 34  1  0
 16 35  1  0
 18 36  1  0
 19 37  1  0
 21 38  1  0
 22 39  1  0
 22 40  1  0
 23 41  1  0
 23 42  1  0
 24 43  1  0
 24 44  1  0
 25 45  1  0
M  END
>  <smiles>  (62) 
CN(CC(=O)O)C(=O)C(=O)n1c(C(N)=O)cc2ccc(NCCN)cc21

>  <score_type>  (62) 
oracle

>  <origin>  (62) 
adg

>  <m_score__min__energy>  (62) 
-7.8300000000000001

>  <m_primary>  (62) 
energy

$$$$
66:0
     RDKit          3D

 44 45  0  0  0  0  0  0  0  0999 V2000
   -1.2910   21.7240  -26.7710 C   0  0  0  0  0  0  0  0  0  0  0  0
   -1.5620   22.4970  -27.9790 N   0  0  0  0  0  0  0  0  0  0  0  0
   -2.4350   23.6450  -27.8270 C   0  0  0  0  0  0  0  0  0  0  0  0
   -1.6270   24.9200  -28.0050 C   0  0  0  0  0  0  0  0  0  0  0  0
   -1.5900   25.3220  -29.3390 O   0  0  0  0  0  0  0  0  0  0  0  0
   -1.0020   22.1510  -29.2420 C   0  0  0  0  0  0  0  0  0  0  0  0
   -0.1780   22.9310  -29.8220 O   0  0  0  0  0  0  0  0  0  0  0  0
   -1.3770   20.9620  -29.8070 O   0  0  0  0  0  0  0  0  0  0  0  0
   -1.5670   20.9410  -31.2130 C   0  0  0  0  0  0  0  0  0  0  0  0
   -2.9230   21.1620  -31.5540 O   0  0  0  0  0  0  0  0  0  0  0  0
   -3.5550   22.3780  -31.3980 C   0  0  0  0  0  0  0  0  0  0  0  0
   -2.7520   23.3590  -31.2110 O   0  0  0  0  0  0  0  0  0  0  0  0
   -4.9460   22.6070  -31.4260 N   0  0  0  0  0  0  0  0  0  0  0  0
   -5.6070   23.7360  -31.1370 C   0  0  0  0  0  0  0  0  0  0  0  0
   -5.1480   25.0380  -30.7190 C   0  0  0  0  0  0  0  0  0  0  0  0
   -3.8970   25.3830  -30.1720 N   0  0  0  0  0  0  0  0  0  0  0  0
   -5.9560   26.0340  -30.8480 O   0  0  0  0  0  0  0  0  0  0  0  0
   -6.9560   23.4470  -31.3140 C   0  0  0  0  0  0  0  0  0  0  0  0
   -7.1070   22.1410  -31.7120 C   0  0  0  0  0  0  0  0  0  0  0  0
   -8.2170   21.3860  -32.0120 C   0  0  0  0  0  0  0  0  0  0  0  0
   -8.0970   20.0690  -32.3930 C   0  0  0  0  0  0  0  0  0  0  0  0
   -6.8330   19.5300  -32.4660 C   0  0  0  0  0  0  0  0  0  0  0  0
   -6.7100   18.1080  -32.8780 C   0  0  0  0  0  0  0  0  0  0  0  0
   -6.4120   17.9650  -34.2040 F   0  0  0  0  0  0  0  0  0  0  0  0
   -5.6300   17.5990  -32.1450 F   0  0  0  0  0  0  0  0  0  0  0  0
   -7.8400   17.4240  -32.5360 F   0  0  0  0  0  0  0  0  0  0  0  0
   -5.7200   20.3090  -32.1590 C   0  0  0  0  0  0  0  0  0  0  0  0
   -5.8320   21.6270  -31.7760 C   0  0  0  0  0  0  0  0  0  0  0  0
   -1.5069   22.3398  -25.8855 H   0  0  0  0  0  0  0  0  0  0  0  0
   -1.9285   20.8277  -26.7585 H   0  0  0  0  0  0  0  0  0  0  0  0
   -0.2334   21.4219  -26.7585 H   0  0  0  0  0  0  0  0  0  0  0  0
   -3.2297   23.6050  -28.5865 H   0  0  0  0  0  0  0  0  0  0  0  0
   -2.8869   23.6331  -26.8242 H   0  0  0  0  0  0  0  0  0  0  0  0
   -2.0846   25.7195  -27.4038 H   0  0  0  0  0  0  0  0  0  0  0  0
   -0.5959   24.7226  -27.6765 H   0  0  0  0  0  0  0  0  0  0  0  0
   -1.4620   24.5730  -29.9580 H   0  0  0  0  0  0  0  0  0  0  0  0
   -0.9501   21.7291  -31.6694 H   0  0  0  0  0  0  0  0  0  0  0  0
   -1.2729   19.9494  -31.5874 H   0  0  0  0  0  0  0  0  0  0  0  0
   -3.1120   25.6700  -30.8300 H   0  0  0  0  0  0  0  0  0  0  0  0
   -3.7430   25.3680  -29.1190 H   0  0  0  0  0  0  0  0  0  0  0  0
   -7.7800   24.1589  -31.1583 H   0  0  0  0  0  0  0  0  0  0  0  0
   -9.2159   21.8419  -31.9464 H   0  0  0  0  0  0  0  0  0  0  0  0
   -8.9849   19.4653  -32.6320 H   0  0  0  0  0  0  0  0  0  0  0  0
   -4.7193   19.8569  -32.2246 H   0  0  0  0  0  0  0  0  0  0  0  0
  1  2  1  0
  2  3  1  0
  3  4  1  0
  4  5  1  0
  2  6  1  0
  6  7  2  0
  6  8  1  0
  8  9  1  0
  9 10  1  0
 10 11  1  0
 11 12  2  0
 11 13  1  0
 13 14  1  0
 14 15  1  0
 15 16  1  0
 15 17  2  0
 14 18  2  0
 18 19  1  0
 19 20  2  0
 20 21  1  0
 21 22  2  0
 22 23  1  0
 23 24  1  0
 23 25  1  0
 23 26  1  0
 22 27  1  0
 27 28  2  0
 28 13  1  0
 28 19  1  0
  1 29  1  0
  1 30  1  0
  1 31  1  0
  3 32  1  0
  3 33  1  0
  4 34  1  0
  4 35  1  0
  5 36  1  0
  9 37  1  0
  9 38  1  0
 16 39  1  0
 16 40  1  0
 18 41  1  0
 20 42  1  0
 21 43  1  0
 27 44  1  0
M  END
>  <smiles>  (63) 
CN(CCO)C(=O)OCOC(=O)n1c(C(N)=O)cc2ccc(C(F)(F)F)cc21

>  <score_type>  (63) 
oracle

>  <origin>  (63) 
adg

>  <m_score__min__energy>  (63) 
-8

>  <m_primary>  (63) 
energy

$$$$
67:0
     RDKit          3D

 36 37  0  0  0  0  0  0  0  0999 V2000
   -3.7000   25.0420  -30.2650 N   0  0  0  0  0  0  0  0  0  0  0  0
   -5.1180   25.0880  -30.5480 C   0  0  0  0  0  0  0  0  0  0  0  0
   -5.6160   26.2370  -30.5160 O   0  0  0  0  0  0  0  0  0  0  0  0
   -5.8370   23.8640  -30.8380 C   0  0  0  0  0  0  0  0  0  0  0  0
   -7.2380   23.8270  -30.8650 C   0  0  0  0  0  0  0  0  0  0  0  0
   -7.6510   22.5530  -31.1620 C   0  0  0  0  0  0  0  0  0  0  0  0
   -8.9060   22.0000  -31.3050 C   0  0  0  0  0  0  0  0  0  0  0  0
   -9.0450   20.6690  -31.6120 C   0  0  0  0  0  0  0  0  0  0  0  0
   -7.9130   19.9100  -31.7710 C   0  0  0  0  0  0  0  0  0  0  0  0
   -8.0350   18.4530  -32.1060 C   0  0  0  0  0  0  0  0  0  0  0  0
   -7.1830   17.7610  -31.2740 F   0  0  0  0  0  0  0  0  0  0  0  0
   -9.3460   18.0270  -31.9690 F   0  0  0  0  0  0  0  0  0  0  0  0
   -7.6510   18.2390  -33.4020 F   0  0  0  0  0  0  0  0  0  0  0  0
   -6.6550   20.4840  -31.6220 C   0  0  0  0  0  0  0  0  0  0  0  0
   -6.4820   21.8200  -31.3140 C   0  0  0  0  0  0  0  0  0  0  0  0
   -5.4120   22.6310  -31.1140 N   0  0  0  0  0  0  0  0  0  0  0  0
   -4.0850   22.1940  -31.1970 C   0  0  0  0  0  0  0  0  0  0  0  0
   -3.7480   21.5500  -32.2490 O   0  0  0  0  0  0  0  0  0  0  0  0
   -3.0890   22.3750  -30.2720 O   0  0  0  0  0  0  0  0  0  0  0  0
   -1.7980   22.7730  -30.6540 C   0  0  0  0  0  0  0  0  0  0  0  0
   -1.0170   23.2530  -29.5790 O   0  0  0  0  0  0  0  0  0  0  0  0
   -1.3980   24.2790  -28.7530 C   0  0  0  0  0  0  0  0  0  0  0  0
   -1.4620   25.4570  -29.1960 O   0  0  0  0  0  0  0  0  0  0  0  0
   -1.7260   23.9360  -27.3320 C   0  0  0  0  0  0  0  0  0  0  0  0
   -2.2130   22.1750  -27.1760 S   0  0  0  0  0  0  0  0  0  0  0  0
   -3.0570   25.6710  -30.8100 H   0  0  0  0  0  0  0  0  0  0  0  0
   -3.3390   24.3890  -29.5250 H   0  0  0  0  0  0  0  0  0  0  0  0
   -7.9015   24.6842  -30.6776 H   0  0  0  0  0  0  0  0  0  0  0  0
   -9.7995   22.6278  -31.1726 H   0  0  0  0  0  0  0  0  0  0  0  0
  -10.0427   20.2206  -31.7280 H   0  0  0  0  0  0  0  0  0  0  0  0
   -5.7650   19.8513  -31.7542 H   0  0  0  0  0  0  0  0  0  0  0  0
   -1.2842   21.9083  -31.0993 H   0  0  0  0  0  0  0  0  0  0  0  0
   -1.9120   23.6022  -31.3677 H   0  0  0  0  0  0  0  0  0  0  0  0
   -0.8422   24.1217  -26.7040 H   0  0  0  0  0  0  0  0  0  0  0  0
   -2.5692   24.5628  -27.0061 H   0  0  0  0  0  0  0  0  0  0  0  0
   -2.1180   21.6230  -28.4830 H   0  0  0  0  0  0  0  0  0  0  0  0
  1  2  1  0
  2  3  2  0
  2  4  1  0
  4  5  2  0
  5  6  1  0
  6  7  2  0
  7  8  1  0
  8  9  2  0
  9 10  1  0
 10 11  1  0
 10 12  1  0
 10 13  1  0
  9 14  1  0
 14 15  2  0
 15 16  1  0
 16 17  1  0
 17 18  2  0
 17 19  1  0
 19 20  1  0
 20 21  1  0
 21 22  1  0
 22 23  2  0
 22 24  1  0
 24 25  1  0
 16  4  1  0
 15  6  1  0
  1 26  1  0
  1 27  1  0
  5 28  1  0
  7 29  1  0
  8 30  1  0
 14 31  1  0
 20 32  1  0
 20 33  1  0
 24 34  1  0
 24 35  1  0
 25 36  1  0
M  END
>  <smiles>  (64) 
NC(=O)c1cc2ccc(C(F)(F)F)cc2n1C(=O)OCOC(=O)CS

>  <score_type>  (64) 
oracle

>  <origin>  (64) 
adg

>  <m_score__min__energy>  (64) 
-7.29

>  <m_primary>  (64) 
energy

$$$$
68:0
     RDKit          3D

 48 49  0  0  0  0  0  0  0  0999 V2000
   -1.3810   21.2770  -27.6980 C   0  0  0  0  0  0  0  0  0  0  0  0
   -0.8430   22.1140  -28.8080 C   0  0  0  0  0  0  0  0  0  0  0  0
   -1.9200   22.5540  -29.7470 N   0  0  0  0  0  0  0  0  0  0  0  0
   -2.1640   21.8100  -30.9210 C   0  0  0  0  0  0  0  0  0  0  0  0
   -1.3530   20.9160  -31.2190 O   0  0  0  0  0  0  0  0  0  0  0  0
   -3.2850   21.9950  -31.8240 C   0  0  0  0  0  0  0  0  0  0  0  0
   -3.7900   23.1390  -31.8760 O   0  0  0  0  0  0  0  0  0  0  0  0
   -3.8680   21.0000  -32.6450 N   0  0  0  0  0  0  0  0  0  0  0  0
   -3.3440   20.0520  -33.4240 C   0  0  0  0  0  0  0  0  0  0  0  0
   -2.0190   19.9050  -34.0060 C   0  0  0  0  0  0  0  0  0  0  0  0
   -1.1770   21.0800  -34.1040 N   0  0  0  0  0  0  0  0  0  0  0  0
   -1.5110   18.8550  -34.4440 O   0  0  0  0  0  0  0  0  0  0  0  0
   -4.3660   19.1710  -33.8510 C   0  0  0  0  0  0  0  0  0  0  0  0
   -5.5280   19.6260  -33.3040 C   0  0  0  0  0  0  0  0  0  0  0  0
   -6.8070   19.1130  -33.4220 C   0  0  0  0  0  0  0  0  0  0  0  0
   -7.8570   19.7310  -32.7830 C   0  0  0  0  0  0  0  0  0  0  0  0
   -7.5720   20.8550  -32.0410 C   0  0  0  0  0  0  0  0  0  0  0  0
   -8.7000   21.5410  -31.3390 C   0  0  0  0  0  0  0  0  0  0  0  0
   -9.6720   21.9970  -32.1910 F   0  0  0  0  0  0  0  0  0  0  0  0
   -9.2850   20.6250  -30.4730 F   0  0  0  0  0  0  0  0  0  0  0  0
   -8.2500   22.5950  -30.5740 F   0  0  0  0  0  0  0  0  0  0  0  0
   -6.2760   21.3630  -31.9280 C   0  0  0  0  0  0  0  0  0  0  0  0
   -5.2160   20.7410  -32.5720 C   0  0  0  0  0  0  0  0  0  0  0  0
   -2.5890   23.6920  -29.2900 C   0  0  0  0  0  0  0  0  0  0  0  0
   -1.8940   24.7940  -29.6120 O   0  0  0  0  0  0  0  0  0  0  0  0
   -3.7440   24.0210  -28.6080 N   0  0  0  0  0  0  0  0  0  0  0  0
   -3.4800   24.2430  -27.1230 C   0  0  0  0  0  0  0  0  0  0  0  0
   -5.0880   24.2280  -28.9780 C   0  0  0  0  0  0  0  0  0  0  0  0
   -5.3040   25.1740  -30.1140 C   0  0  0  0  0  0  0  0  0  0  0  0
   -6.4630   25.6160  -30.3970 O   0  0  0  0  0  0  0  0  0  0  0  0
   -4.2220   25.5970  -30.8970 O   0  0  0  0  0  0  0  0  0  0  0  0
   -1.0958   21.7207  -26.7327 H   0  0  0  0  0  0  0  0  0  0  0  0
   -2.4776   21.2319  -27.7711 H   0  0  0  0  0  0  0  0  0  0  0  0
   -0.9666   20.2607  -27.7711 H   0  0  0  0  0  0  0  0  0  0  0  0
   -0.3590   23.0042  -28.3798 H   0  0  0  0  0  0  0  0  0  0  0  0
   -0.1234   21.5058  -29.3756 H   0  0  0  0  0  0  0  0  0  0  0  0
   -0.7990   21.4990  -33.2260 H   0  0  0  0  0  0  0  0  0  0  0  0
   -0.9700   21.4780  -35.0630 H   0  0  0  0  0  0  0  0  0  0  0  0
   -4.2456   18.2901  -34.4987 H   0  0  0  0  0  0  0  0  0  0  0  0
   -6.9846   18.2113  -34.0265 H   0  0  0  0  0  0  0  0  0  0  0  0
   -8.8831   19.3426  -32.8618 H   0  0  0  0  0  0  0  0  0  0  0  0
   -6.0941   22.2638  -31.3234 H   0  0  0  0  0  0  0  0  0  0  0  0
   -4.1897   23.6462  -26.5312 H   0  0  0  0  0  0  0  0  0  0  0  0
   -2.4519   23.9341  -26.8832 H   0  0  0  0  0  0  0  0  0  0  0  0
   -3.6080   25.3089  -26.8832 H   0  0  0  0  0  0  0  0  0  0  0  0
   -5.5152   23.2548  -29.2615 H   0  0  0  0  0  0  0  0  0  0  0  0
   -5.5741   24.6883  -28.1051 H   0  0  0  0  0  0  0  0  0  0  0  0
   -3.4820   24.9460  -31.1900 H   0  0  0  0  0  0  0  0  0  0  0  0
  1  2  1  0
  2  3  1  0
  3  4  1  0
  4  5  2  0
  4  6  1  0
  6  7  2  0
  6  8  1  0
  8  9  1  0
  9 10  1  0
 10 11  1  0
 10 12  2  0
  9 13  2  0
 13 14  1  0
 14 15  2  0
 15 16  1  0
 16 17  2  0
 17 18  1  0
 18 19  1  0
 18 20  1  0
 18 21  1  0
 17 22  1  0
 22 23  2  0
  3 24  1  0
 24 25  2  0
 24 26  1  0
 26 27  1  0
 26 28  1  0
 28 29  1  0
 29 30  2  0
 29 31  1  0
 23  8  1  0
 23 14  1  0
  1 32  1  0
  1 33  1  0
  1 34  1  0
  2 35  1  0
  2 36  1  0
 11 37  1  0
 11 38  1  0
 13 39  1  0
 15 40  1  0
 16 41  1  0
 22 42  1  0
 27 43  1  0
 27 44  1  0
 27 45  1  0
 28 46  1  0
 28 47  1  0
 31 48  1  0
M  END
>  <smiles>  (65) 
CCN(C(=O)C(=O)n1c(C(N)=O)cc2ccc(C(F)(F)F)cc21)C(=O)N(C)CC(=O)O

>  <score_type>  (65) 
oracle

>  <origin>  (65) 
adg

>  <m_score__min__energy>  (65) 
-9.1600000000000001

>  <m_primary>  (65) 
energy

$$$$
69:0
     RDKit          3D

 33 34  0  0  0  0  0  0  0  0999 V2000
   -6.1180   25.7840  -29.2110 N   0  0  0  0  0  0  0  0  0  0  0  0
   -5.4740   25.0830  -30.3120 C   0  0  0  0  0  0  0  0  0  0  0  0
   -4.5000   25.7030  -30.7760 O   0  0  0  0  0  0  0  0  0  0  0  0
   -6.0080   23.8090  -30.7260 C   0  0  0  0  0  0  0  0  0  0  0  0
   -7.3630   23.6700  -31.0790 C   0  0  0  0  0  0  0  0  0  0  0  0
   -7.5870   22.3760  -31.4240 C   0  0  0  0  0  0  0  0  0  0  0  0
   -8.7410   21.7510  -31.8390 C   0  0  0  0  0  0  0  0  0  0  0  0
   -8.7460   20.4100  -32.1430 C   0  0  0  0  0  0  0  0  0  0  0  0
   -7.5610   19.7280  -32.0150 C   0  0  0  0  0  0  0  0  0  0  0  0
   -7.5370   18.2650  -32.3390 C   0  0  0  0  0  0  0  0  0  0  0  0
   -8.8140   17.7740  -32.2570 F   0  0  0  0  0  0  0  0  0  0  0  0
   -6.7510   17.5460  -31.4890 F   0  0  0  0  0  0  0  0  0  0  0  0
   -7.0750   18.1160  -33.6520 F   0  0  0  0  0  0  0  0  0  0  0  0
   -6.3990   20.3730  -31.5930 C   0  0  0  0  0  0  0  0  0  0  0  0
   -6.3790   21.7230  -31.2850 C   0  0  0  0  0  0  0  0  0  0  0  0
   -5.4220   22.6010  -30.8600 N   0  0  0  0  0  0  0  0  0  0  0  0
   -4.0980   22.2060  -30.6340 C   0  0  0  0  0  0  0  0  0  0  0  0
   -3.9410   21.0300  -30.1300 O   0  0  0  0  0  0  0  0  0  0  0  0
   -2.8420   22.9050  -30.8750 C   0  0  0  0  0  0  0  0  0  0  0  0
   -2.2920   23.6000  -29.2350 P   0  0  0  0  0  0  0  0  0  0  0  0
   -0.8900   23.0750  -29.0490 O   0  0  0  0  0  0  0  0  0  0  0  0
   -2.2870   25.2700  -29.3170 O   0  0  0  0  0  0  0  0  0  0  0  0
   -3.3290   23.0690  -28.0340 O   0  0  0  0  0  0  0  0  0  0  0  0
   -6.3270   25.2690  -28.3100 H   0  0  0  0  0  0  0  0  0  0  0  0
   -6.3560   26.7940  -29.3530 H   0  0  0  0  0  0  0  0  0  0  0  0
   -8.1139   24.4738  -31.0760 H   0  0  0  0  0  0  0  0  0  0  0  0
   -9.6710   22.3316  -31.9286 H   0  0  0  0  0  0  0  0  0  0  0  0
   -9.6638   19.9031  -32.4759 H   0  0  0  0  0  0  0  0  0  0  0  0
   -5.4696   19.7916  -31.5019 H   0  0  0  0  0  0  0  0  0  0  0  0
   -2.0870   22.2051  -31.2625 H   0  0  0  0  0  0  0  0  0  0  0  0
   -2.9706   23.7040  -31.6200 H   0  0  0  0  0  0  0  0  0  0  0  0
   -3.0920   25.6740  -29.7270 H   0  0  0  0  0  0  0  0  0  0  0  0
   -3.7980   22.2250  -28.2670 H   0  0  0  0  0  0  0  0  0  0  0  0
  1  2  1  0
  2  3  2  0
  2  4  1  0
  4  5  2  0
  5  6  1  0
  6  7  2  0
  7  8  1  0
  8  9  2  0
  9 10  1  0
 10 11  1  0
 10 12  1  0
 10 13  1  0
  9 14  1  0
 14 15  2  0
 15 16  1  0
 16 17  1  0
 17 18  2  0
 17 19  1  0
 19 20  1  0
 20 21  2  0
 20 22  1  0
 20 23  1  0
 16  4  1  0
 15  6  1  0
  1 24  1  0
  1 25  1  0
  5 26  1  0
  7 27  1  0
  8 28  1  0
 14 29  1  0
 19 30  1  0
 19 31  1  0
 22 32  1  0
 23 33  1  0
M  END
>  <smiles>  (66) 
NC(=O)c1cc2ccc(C(F)(F)F)cc2n1C(=O)CP(=O)(O)O

>  <score_type>  (66) 
oracle

>  <origin>  (66) 
adg

>  <m_score__min__energy>  (66) 
-8.4600000000000009

>  <m_primary>  (66) 
energy

$$$$
70:0
     RDKit          3D

 34 35  0  0  0  0  0  0  0  0999 V2000
   -5.6260   18.2290  -35.3610 N   0  0  0  0  0  0  0  0  0  0  0  0
   -5.9290   18.0760  -34.2550 C   0  0  0  0  0  0  0  0  0  0  0  0
   -6.2960   17.8810  -32.8310 C   0  0  0  0  0  0  0  0  0  0  0  0
   -6.8130   19.1450  -32.2620 C   0  0  0  0  0  0  0  0  0  0  0  0
   -8.1750   19.2900  -32.1380 C   0  0  0  0  0  0  0  0  0  0  0  0
   -8.6450   20.4620  -31.6120 C   0  0  0  0  0  0  0  0  0  0  0  0
   -7.7800   21.4580  -31.2210 C   0  0  0  0  0  0  0  0  0  0  0  0
   -8.0280   22.6870  -30.6800 C   0  0  0  0  0  0  0  0  0  0  0  0
   -6.7980   23.3320  -30.4560 C   0  0  0  0  0  0  0  0  0  0  0  0
   -6.7300   24.6510  -29.8910 C   0  0  0  0  0  0  0  0  0  0  0  0
   -5.6650   24.9130  -28.9330 N   0  0  0  0  0  0  0  0  0  0  0  0
   -7.4480   25.6310  -30.0900 O   0  0  0  0  0  0  0  0  0  0  0  0
   -5.8090   22.4870  -30.8660 N   0  0  0  0  0  0  0  0  0  0  0  0
   -4.4220   22.6360  -30.8610 C   0  0  0  0  0  0  0  0  0  0  0  0
   -3.8500   22.9460  -31.9640 O   0  0  0  0  0  0  0  0  0  0  0  0
   -3.4580   22.4900  -29.7510 C   0  0  0  0  0  0  0  0  0  0  0  0
   -2.9300   24.2400  -29.3320 P   0  0  0  0  0  0  0  0  0  0  0  0
   -1.4230   24.2140  -29.4200 O   0  0  0  0  0  0  0  0  0  0  0  0
   -3.5590   25.2950  -30.4810 O   0  0  0  0  0  0  0  0  0  0  0  0
   -3.5090   24.5510  -27.7910 O   0  0  0  0  0  0  0  0  0  0  0  0
   -6.4180   21.3540  -31.3270 C   0  0  0  0  0  0  0  0  0  0  0  0
   -5.9470   20.1560  -31.8650 C   0  0  0  0  0  0  0  0  0  0  0  0
   -7.0721   17.1049  -32.7582 H   0  0  0  0  0  0  0  0  0  0  0  0
   -5.4032   17.5712  -32.2681 H   0  0  0  0  0  0  0  0  0  0  0  0
   -8.8629   18.4908  -32.4511 H   0  0  0  0  0  0  0  0  0  0  0  0
   -9.7292   20.6102  -31.5001 H   0  0  0  0  0  0  0  0  0  0  0  0
   -9.0218   23.1025  -30.4570 H   0  0  0  0  0  0  0  0  0  0  0  0
   -5.7170   24.4790  -27.9890 H   0  0  0  0  0  0  0  0  0  0  0  0
   -4.8990   25.5330  -29.2560 H   0  0  0  0  0  0  0  0  0  0  0  0
   -3.9370   22.0126  -28.8834 H   0  0  0  0  0  0  0  0  0  0  0  0
   -2.6028   21.8558  -30.0276 H   0  0  0  0  0  0  0  0  0  0  0  0
   -3.4730   24.9210  -31.4070 H   0  0  0  0  0  0  0  0  0  0  0  0
   -3.9600   25.4150  -27.7110 H   0  0  0  0  0  0  0  0  0  0  0  0
   -4.8628   20.0083  -31.9776 H   0  0  0  0  0  0  0  0  0  0  0  0
  1  2  3  0
  2  3  1  0
  3  4  1  0
  4  5  2  0
  5  6  1  0
  6  7  2  0
  7  8  1  0
  8  9  2  0
  9 10  1  0
 10 11  1  0
 10 12  2  0
  9 13  1  0
 13 14  1  0
 14 15  2  0
 14 16  1  0
 16 17  1  0
 17 18  2  0
 17 19  1  0
 17 20  1  0
 13 21  1  0
 21 22  2  0
 22  4  1  0
 21  7  1  0
  3 23  1  0
  3 24  1  0
  5 25  1  0
  6 26  1  0
  8 27  1  0
 11 28  1  0
 11 29  1  0
 16 30  1  0
 16 31  1  0
 19 32  1  0
 20 33  1  0
 22 34  1  0
M  END
>  <smiles>  (67) 
N#CCc1ccc2cc(C(N)=O)n(C(=O)CP(=O)(O)O)c2c1

>  <score_type>  (67) 
oracle

>  <origin>  (67) 
adg

>  <m_score__min__energy>  (67) 
-8.7699999999999996

>  <m_primary>  (67) 
energy

$$$$
72:0
     RDKit          3D

 45 47  0  0  0  0  0  0  0  0999 V2000
   -1.9030   23.4220  -29.0600 C   0  0  0  0  0  0  0  0  0  0  0  0
   -3.1440   22.9940  -29.8150 N   0  0  0  0  0  0  0  0  0  0  0  0
   -4.2950   23.6710  -29.3870 C   0  0  0  0  0  0  0  0  0  0  0  0
   -4.9620   24.6800  -30.2260 C   0  0  0  0  0  0  0  0  0  0  0  0
   -4.0660   25.5970  -30.8170 O   0  0  0  0  0  0  0  0  0  0  0  0
   -6.1350   25.4280  -29.6070 C   0  0  0  0  0  0  0  0  0  0  0  0
   -6.2890   24.5050  -30.7920 C   0  0  0  0  0  0  0  0  0  0  0  0
   -2.9040   22.0250  -30.7910 C   0  0  0  0  0  0  0  0  0  0  0  0
   -1.6770   21.5280  -31.1690 C   0  0  0  0  0  0  0  0  0  0  0  0
   -1.5090   20.5290  -32.1170 C   0  0  0  0  0  0  0  0  0  0  0  0
   -2.6200   19.9960  -32.7220 C   0  0  0  0  0  0  0  0  0  0  0  0
   -2.7060   19.0140  -33.6720 C   0  0  0  0  0  0  0  0  0  0  0  0
   -4.0780   18.8650  -33.9260 C   0  0  0  0  0  0  0  0  0  0  0  0
   -4.5520   17.8950  -34.8980 C   0  0  0  0  0  0  0  0  0  0  0  0
   -5.7420   18.1750  -35.6750 N   0  0  0  0  0  0  0  0  0  0  0  0
   -4.0230   16.7900  -35.1520 O   0  0  0  0  0  0  0  0  0  0  0  0
   -4.7640   19.7280  -33.1540 N   0  0  0  0  0  0  0  0  0  0  0  0
   -6.1720   19.8960  -33.0950 C   0  0  0  0  0  0  0  0  0  0  0  0
   -6.9260   18.8560  -33.0760 O   0  0  0  0  0  0  0  0  0  0  0  0
   -6.8440   21.0870  -33.0530 O   0  0  0  0  0  0  0  0  0  0  0  0
   -7.6460   21.5680  -32.0090 C   0  0  0  0  0  0  0  0  0  0  0  0
   -9.0380   21.0540  -32.0710 C   0  0  0  0  0  0  0  0  0  0  0  0
   -9.9220   21.4520  -31.2390 O   0  0  0  0  0  0  0  0  0  0  0  0
   -9.3350   20.1290  -33.0670 O   0  0  0  0  0  0  0  0  0  0  0  0
   -3.8710   20.4460  -32.3920 C   0  0  0  0  0  0  0  0  0  0  0  0
   -3.9910   21.4260  -31.4590 C   0  0  0  0  0  0  0  0  0  0  0  0
   -2.0913   23.3571  -27.9782 H   0  0  0  0  0  0  0  0  0  0  0  0
   -1.0653   22.7609  -29.3267 H   0  0  0  0  0  0  0  0  0  0  0  0
   -1.6510   24.4590  -29.3267 H   0  0  0  0  0  0  0  0  0  0  0  0
   -5.0482   22.8970  -29.1783 H   0  0  0  0  0  0  0  0  0  0  0  0
   -3.9102   24.2791  -28.5550 H   0  0  0  0  0  0  0  0  0  0  0  0
   -4.2050   25.6820  -31.7850 H   0  0  0  0  0  0  0  0  0  0  0  0
   -6.5231   25.1371  -28.6197 H   0  0  0  0  0  0  0  0  0  0  0  0
   -6.3771   26.4771  -29.3815 H   0  0  0  0  0  0  0  0  0  0  0  0
   -6.8110   23.5444  -30.6703 H   0  0  0  0  0  0  0  0  0  0  0  0
   -6.7134   24.6161  -31.8007 H   0  0  0  0  0  0  0  0  0  0  0  0
   -0.7786   21.9469  -30.6922 H   0  0  0  0  0  0  0  0  0  0  0  0
   -0.5028   20.1702  -32.3793 H   0  0  0  0  0  0  0  0  0  0  0  0
   -1.8770   18.4602  -34.1368 H   0  0  0  0  0  0  0  0  0  0  0  0
   -6.6480   18.2520  -35.1240 H   0  0  0  0  0  0  0  0  0  0  0  0
   -5.6980   18.2900  -36.7100 H   0  0  0  0  0  0  0  0  0  0  0  0
   -7.1996   21.2601  -31.0520 H   0  0  0  0  0  0  0  0  0  0  0  0
   -7.6920   22.6630  -32.1033 H   0  0  0  0  0  0  0  0  0  0  0  0
   -8.6460   19.9500  -33.8110 H   0  0  0  0  0  0  0  0  0  0  0  0
   -5.0035   21.7752  -31.2082 H   0  0  0  0  0  0  0  0  0  0  0  0
  1  2  1  0
  2  3  1  0
  3  4  1  0
  4  5  1  0
  4  6  1  0
  6  7  1  0
  2  8  1  0
  8  9  2  0
  9 10  1  0
 10 11  2  0
 11 12  1  0
 12 13  2  0
 13 14  1  0
 14 15  1  0
 14 16  2  0
 13 17  1  0
 17 18  1  0
 18 19  2  0
 18 20  1  0
 20 21  1  0
 21 22  1  0
 22 23  2  0
 22 24  1  0
 17 25  1  0
 25 26  2  0
  7  4  1  0
 26  8  1  0
 25 11  1  0
  1 27  1  0
  1 28  1  0
  1 29  1  0
  3 30  1  0
  3 31  1  0
  5 32  1  0
  6 33  1  0
  6 34  1  0
  7 35  1  0
  7 36  1  0
  9 37  1  0
 10 38  1  0
 12 39  1  0
 15 40  1  0
 15 41  1  0
 21 42  1  0
 21 43  1  0
 24 44  1  0
 26 45  1  0
M  END
>  <smiles>  (68) 
CN(CC1(O)CC1)c1ccc2cc(C(N)=O)n(C(=O)OCC(=O)O)c2c1

>  <score_type>  (68) 
oracle

>  <origin>  (68) 
adg

>  <m_score__min__energy>  (68) 
-8.8900000000000006

>  <m_primary>  (68) 
energy

$$$$
73:0
     RDKit          3D

 46 49  0  0  1  0  0  0  0  0999 V2000
   -1.3520   22.1420  -28.3350 C   0  0  0  0  0  0  0  0  0  0  0  0
   -1.3740   23.1440  -29.4450 C   0  0  1  0  0  0  0  0  0  0  0  0
   -2.7280   23.5150  -29.8310 N   0  0  0  0  0  0  0  0  0  0  0  0
   -3.5940   22.6050  -30.4750 C   0  0  0  0  0  0  0  0  0  0  0  0
   -3.0830   21.4440  -30.6560 O   0  0  0  0  0  0  0  0  0  0  0  0
   -4.9120   22.8360  -30.9100 N   0  0  0  0  0  0  0  0  0  0  0  0
   -5.7390   23.8810  -30.7630 C   0  0  0  0  0  0  0  0  0  0  0  0
   -5.4820   25.2440  -30.3350 C   0  0  0  0  0  0  0  0  0  0  0  0
   -6.5500   25.9670  -29.6720 N   0  0  0  0  0  0  0  0  0  0  0  0
   -4.4260   25.8900  -30.4670 O   0  0  0  0  0  0  0  0  0  0  0  0
   -7.0100   23.5350  -31.2480 C   0  0  0  0  0  0  0  0  0  0  0  0
   -6.9410   22.2540  -31.7010 C   0  0  0  0  0  0  0  0  0  0  0  0
   -7.9240   21.4710  -32.2680 C   0  0  0  0  0  0  0  0  0  0  0  0
   -7.6260   20.1890  -32.6560 C   0  0  0  0  0  0  0  0  0  0  0  0
   -6.3440   19.7250  -32.4650 C   0  0  0  0  0  0  0  0  0  0  0  0
   -6.0520   18.3580  -32.8860 C   0  0  0  0  0  0  0  0  0  0  0  0
   -6.1790   17.9650  -34.2180 C   0  0  0  0  0  0  0  0  0  0  0  0
   -5.8910   16.6580  -34.5650 C   0  0  0  0  0  0  0  0  0  0  0  0
   -5.4790   15.7100  -33.6520 C   0  0  0  0  0  0  0  0  0  0  0  0
   -5.3570   16.1130  -32.3380 C   0  0  0  0  0  0  0  0  0  0  0  0
   -5.6410   17.4140  -31.9680 C   0  0  0  0  0  0  0  0  0  0  0  0
   -4.9360   15.0130  -31.6010 O   0  0  0  0  0  0  0  0  0  0  0  0
   -4.5220   14.0030  -32.4950 C   0  0  0  0  0  0  0  0  0  0  0  0
   -5.1280   14.3690  -33.6950 O   0  0  0  0  0  0  0  0  0  0  0  0
   -5.3590   20.5380  -31.8870 C   0  0  0  0  0  0  0  0  0  0  0  0
   -5.6510   21.8380  -31.4900 C   0  0  0  0  0  0  0  0  0  0  0  0
   -0.5830   24.3470  -29.0630 C   0  0  0  0  0  0  0  0  0  0  0  0
    0.5590   24.2800  -28.5360 O   0  0  0  0  0  0  0  0  0  0  0  0
   -1.1560   25.5880  -29.3120 O   0  0  0  0  0  0  0  0  0  0  0  0
   -1.3635   22.6659  -27.3678 H   0  0  0  0  0  0  0  0  0  0  0  0
   -2.2361   21.4918  -28.4104 H   0  0  0  0  0  0  0  0  0  0  0  0
   -0.4402   21.5313  -28.4104 H   0  0  0  0  0  0  0  0  0  0  0  0
   -0.9128   22.6729  -30.3256 H   0  0  0  0  0  0  0  0  0  0  0  0
   -3.0310   24.4600  -29.5690 H   0  0  0  0  0  0  0  0  0  0  0  0
   -6.3500   26.6640  -28.9210 H   0  0  0  0  0  0  0  0  0  0  0  0
   -7.5480   25.7990  -29.9410 H   0  0  0  0  0  0  0  0  0  0  0  0
   -7.8997   24.1818  -31.2597 H   0  0  0  0  0  0  0  0  0  0  0  0
   -8.9391   21.8708  -32.4082 H   0  0  0  0  0  0  0  0  0  0  0  0
   -8.3946   19.5461  -33.1097 H   0  0  0  0  0  0  0  0  0  0  0  0
   -6.5042   18.6857  -34.9828 H   0  0  0  0  0  0  0  0  0  0  0  0
   -5.9954   16.3603  -35.6188 H   0  0  0  0  0  0  0  0  0  0  0  0
   -5.5364   17.7047  -30.9123 H   0  0  0  0  0  0  0  0  0  0  0  0
   -3.4266   13.9898  -32.5947 H   0  0  0  0  0  0  0  0  0  0  0  0
   -4.8016   12.9925  -32.1622 H   0  0  0  0  0  0  0  0  0  0  0  0
   -4.3424   20.1424  -31.7458 H   0  0  0  0  0  0  0  0  0  0  0  0
   -2.0220   25.6890  -29.8400 H   0  0  0  0  0  0  0  0  0  0  0  0
  1  2  1  0
  2  3  1  0
  3  4  1  0
  4  5  2  0
  4  6  1  0
  6  7  1  0
  7  8  1  0
  8  9  1  0
  8 10  2  0
  7 11  2  0
 11 12  1  0
 12 13  2  0
 13 14  1  0
 14 15  2  0
 15 16  1  0
 16 17  2  0
 17 18  1  0
 18 19  2  0
 19 20  1  0
 20 21  2  0
 20 22  1  0
 22 23  1  0
 23 24  1  0
 15 25  1  0
 25 26  2  0
  2 27  1  0
 27 28  2  0
 27 29  1  0
 26  6  1  0
 26 12  1  0
 21 16  1  0
 24 19  1  0
  1 30  1  0
  1 31  1  0
  1 32  1  0
  2 33  1  6
  3 34  1  0
  9 35  1  0
  9 36  1  0
 11 37  1  0
 13 38  1  0
 14 39  1  0
 17 40  1  0
 18 41  1  0
 21 42  1  0
 23 43  1  0
 23 44  1  0
 25 45  1  0
 29 46  1  0
M  END
>  <smiles>  (69) 
CC(NC(=O)n1c(C(N)=O)cc2ccc(-c3ccc4c(c3)OCO4)cc21)C(=O)O

>  <score_type>  (69) 
oracle

>  <origin>  (69) 
adg

>  <m_score__min__energy>  (69) 
-10.210000000000001

>  <m_primary>  (69) 
energy

$$$$
74:0
     RDKit          3D

 40 42  0  0  0  0  0  0  0  0999 V2000
   -4.8860   14.6180  -32.3720 C   0  0  0  0  0  0  0  0  0  0  0  0
   -5.4550   15.9130  -32.7010 N   0  0  0  0  0  0  0  0  0  0  0  0
   -5.4570   17.0580  -32.0260 C   0  0  0  0  0  0  0  0  0  0  0  0
   -6.1240   18.0070  -32.7620 C   0  0  0  0  0  0  0  0  0  0  0  0
   -6.3770   19.4240  -32.4450 C   0  0  0  0  0  0  0  0  0  0  0  0
   -7.5630   20.0420  -32.7560 C   0  0  0  0  0  0  0  0  0  0  0  0
   -7.7020   21.3620  -32.4100 C   0  0  0  0  0  0  0  0  0  0  0  0
   -6.6810   22.0370  -31.7720 C   0  0  0  0  0  0  0  0  0  0  0  0
   -6.6210   23.3170  -31.3520 C   0  0  0  0  0  0  0  0  0  0  0  0
   -5.3580   23.5220  -30.7530 C   0  0  0  0  0  0  0  0  0  0  0  0
   -5.0260   24.8190  -30.2160 C   0  0  0  0  0  0  0  0  0  0  0  0
   -5.7890   25.3090  -29.0770 N   0  0  0  0  0  0  0  0  0  0  0  0
   -4.1530   25.6180  -30.5920 O   0  0  0  0  0  0  0  0  0  0  0  0
   -4.6670   22.3680  -30.8220 N   0  0  0  0  0  0  0  0  0  0  0  0
   -3.3530   22.0480  -30.4490 C   0  0  0  0  0  0  0  0  0  0  0  0
   -3.2080   20.9270  -29.8020 O   0  0  0  0  0  0  0  0  0  0  0  0
   -2.0870   22.7360  -30.6530 C   0  0  0  0  0  0  0  0  0  0  0  0
   -1.4720   23.6520  -29.2290 P   0  0  0  0  0  0  0  0  0  0  0  0
    0.0250   23.6300  -29.1000 O   0  0  0  0  0  0  0  0  0  0  0  0
   -2.0330   25.2440  -29.1840 O   0  0  0  0  0  0  0  0  0  0  0  0
   -2.0820   22.8860  -27.8260 O   0  0  0  0  0  0  0  0  0  0  0  0
   -5.4820   21.4540  -31.4470 C   0  0  0  0  0  0  0  0  0  0  0  0
   -5.3460   20.1200  -31.8000 C   0  0  0  0  0  0  0  0  0  0  0  0
   -6.5270   17.3820  -33.9220 C   0  0  0  0  0  0  0  0  0  0  0  0
   -6.1030   16.1110  -33.8500 N   0  0  0  0  0  0  0  0  0  0  0  0
   -4.8369   14.5061  -31.2788 H   0  0  0  0  0  0  0  0  0  0  0  0
   -5.5174   13.8222  -32.7940 H   0  0  0  0  0  0  0  0  0  0  0  0
   -3.8728   14.5448  -32.7940 H   0  0  0  0  0  0  0  0  0  0  0  0
   -4.9992   17.2194  -31.0389 H   0  0  0  0  0  0  0  0  0  0  0  0
   -8.3727   19.4980  -33.2644 H   0  0  0  0  0  0  0  0  0  0  0  0
   -8.6387   21.8891  -32.6439 H   0  0  0  0  0  0  0  0  0  0  0  0
   -7.4162   24.0697  -31.4573 H   0  0  0  0  0  0  0  0  0  0  0  0
   -5.8570   24.7260  -28.1990 H   0  0  0  0  0  0  0  0  0  0  0  0
   -6.2330   26.2280  -29.2070 H   0  0  0  0  0  0  0  0  0  0  0  0
   -1.3316   21.9844  -30.9259 H   0  0  0  0  0  0  0  0  0  0  0  0
   -2.2693   23.4826  -31.4400 H   0  0  0  0  0  0  0  0  0  0  0  0
   -2.0570   25.6750  -30.0520 H   0  0  0  0  0  0  0  0  0  0  0  0
   -2.5830   22.0750  -28.0500 H   0  0  0  0  0  0  0  0  0  0  0  0
   -4.4070   19.5960  -31.5683 H   0  0  0  0  0  0  0  0  0  0  0  0
   -7.0895   17.8384  -34.7499 H   0  0  0  0  0  0  0  0  0  0  0  0
  1  2  1  0
  2  3  1  0
  3  4  2  0
  4  5  1  0
  5  6  2  0
  6  7  1  0
  7  8  2  0
  8  9  1  0
  9 10  2  0
 10 11  1  0
 11 12  1  0
 11 13  2  0
 10 14  1  0
 14 15  1  0
 15 16  2  0
 15 17  1  0
 17 18  1  0
 18 19  2  0
 18 20  1  0
 18 21  1  0
 14 22  1  0
 22 23  2  0
  4 24  1  0
 24 25  2  0
 25  2  1  0
 23  5  1  0
 22  8  1  0
  1 26  1  0
  1 27  1  0
  1 28  1  0
  3 29  1  0
  6 30  1  0
  7 31  1  0
  9 32  1  0
 12 33  1  0
 12 34  1  0
 17 35  1  0
 17 36  1  0
 20 37  1  0
 21 38  1  0
 23 39  1  0
 24 40  1  0
M  END
>  <smiles>  (70) 
Cn1cc(-c2ccc3cc(C(N)=O)n(C(=O)CP(=O)(O)O)c3c2)cn1

>  <score_type>  (70) 
oracle

>  <origin>  (70) 
adg

>  <m_score__min__energy>  (70) 
-9.2300000000000004

>  <m_primary>  (70) 
energy

$$$$
75:0
     RDKit          3D

 45 46  0  0  1  0  0  0  0  0999 V2000
   -0.7550   25.6830  -27.7610 C   0  0  0  0  0  0  0  0  0  0  0  0
   -1.4080   24.9140  -28.8720 C   0  0  0  0  0  0  0  0  0  0  0  0
   -0.6570   24.1890  -29.5750 O   0  0  0  0  0  0  0  0  0  0  0  0
   -2.7720   25.0320  -29.0710 O   0  0  0  0  0  0  0  0  0  0  0  0
   -3.6710   24.1870  -28.4250 C   0  0  1  0  0  0  0  0  0  0  0  0
   -3.9350   24.5830  -26.9940 C   0  0  0  0  0  0  0  0  0  0  0  0
   -4.9170   24.0460  -29.2340 C   0  0  2  0  0  0  0  0  0  0  0  0
   -4.9450   22.8720  -30.0820 N   0  0  0  0  0  0  0  0  0  0  0  0
   -3.9650   22.6480  -31.0530 C   0  0  0  0  0  0  0  0  0  0  0  0
   -3.0500   23.5540  -31.0950 O   0  0  0  0  0  0  0  0  0  0  0  0
   -3.8640   21.5700  -31.9560 N   0  0  0  0  0  0  0  0  0  0  0  0
   -2.8500   21.1370  -32.7190 C   0  0  0  0  0  0  0  0  0  0  0  0
   -1.4340   21.4450  -32.6960 C   0  0  0  0  0  0  0  0  0  0  0  0
   -0.8440   21.8700  -31.4590 N   0  0  0  0  0  0  0  0  0  0  0  0
   -0.6410   21.3820  -33.6610 O   0  0  0  0  0  0  0  0  0  0  0  0
   -3.3210   20.1120  -33.5740 C   0  0  0  0  0  0  0  0  0  0  0  0
   -4.6470   19.9380  -33.3010 C   0  0  0  0  0  0  0  0  0  0  0  0
   -5.5440   19.0600  -33.8670 C   0  0  0  0  0  0  0  0  0  0  0  0
   -6.8500   19.0530  -33.4350 C   0  0  0  0  0  0  0  0  0  0  0  0
   -7.2130   19.9340  -32.4430 C   0  0  0  0  0  0  0  0  0  0  0  0
   -8.6290   19.9060  -31.9970 C   0  0  0  0  0  0  0  0  0  0  0  0
   -9.1760   21.1560  -32.3110 F   0  0  0  0  0  0  0  0  0  0  0  0
   -9.3580   18.9970  -32.7470 F   0  0  0  0  0  0  0  0  0  0  0  0
   -6.2860   20.8190  -31.8810 C   0  0  0  0  0  0  0  0  0  0  0  0
   -4.9610   20.8340  -32.3110 C   0  0  0  0  0  0  0  0  0  0  0  0
   -5.0780   25.2990  -30.0360 C   0  0  0  0  0  0  0  0  0  0  0  0
   -6.1210   26.0100  -29.9700 O   0  0  0  0  0  0  0  0  0  0  0  0
   -4.0360   25.6770  -30.8720 O   0  0  0  0  0  0  0  0  0  0  0  0
   -1.0924   25.2856  -26.7924 H   0  0  0  0  0  0  0  0  0  0  0  0
    0.3376   25.5822  -27.8381 H   0  0  0  0  0  0  0  0  0  0  0  0
   -1.0316   26.7449  -27.8381 H   0  0  0  0  0  0  0  0  0  0  0  0
   -3.2038   23.1938  -28.3518 H   0  0  0  0  0  0  0  0  0  0  0  0
   -3.4533   23.8605  -26.3188 H   0  0  0  0  0  0  0  0  0  0  0  0
   -3.5248   25.5869  -26.8097 H   0  0  0  0  0  0  0  0  0  0  0  0
   -5.0194   24.5905  -26.8097 H   0  0  0  0  0  0  0  0  0  0  0  0
   -5.7610   23.9013  -28.5435 H   0  0  0  0  0  0  0  0  0  0  0  0
   -5.6950   22.1940  -29.9080 H   0  0  0  0  0  0  0  0  0  0  0  0
   -1.3130   22.5590  -30.8420 H   0  0  0  0  0  0  0  0  0  0  0  0
    0.0960   21.4570  -31.1850 H   0  0  0  0  0  0  0  0  0  0  0  0
   -2.7294   19.5594  -34.3187 H   0  0  0  0  0  0  0  0  0  0  0  0
   -5.2187   18.3692  -34.6588 H   0  0  0  0  0  0  0  0  0  0  0  0
   -7.5850   18.3608  -33.8716 H   0  0  0  0  0  0  0  0  0  0  0  0
   -8.6660   19.6496  -30.9279 H   0  0  0  0  0  0  0  0  0  0  0  0
   -6.6077   21.5118  -31.0895 H   0  0  0  0  0  0  0  0  0  0  0  0
   -3.0590   25.6680  -30.5400 H   0  0  0  0  0  0  0  0  0  0  0  0
  1  2  1  0
  2  3  2  0
  2  4  1  0
  4  5  1  0
  5  6  1  0
  5  7  1  0
  7  8  1  0
  8  9  1  0
  9 10  2  0
  9 11  1  0
 11 12  1  0
 12 13  1  0
 13 14  1  0
 13 15  2  0
 12 16  2  0
 16 17  1  0
 17 18  2  0
 18 19  1  0
 19 20  2  0
 20 21  1  0
 21 22  1  0
 21 23  1  0
 20 24  1  0
 24 25  2  0
  7 26  1  0
 26 27  2  0
 26 28  1  0
 25 11  1  0
 25 17  1  0
  1 29  1  0
  1 30  1  0
  1 31  1  0
  5 32  1  1
  6 33  1  0
  6 34  1  0
  6 35  1  0
  7 36  1  1
  8 37  1  0
 14 38  1  0
 14 39  1  0
 16 40  1  0
 18 41  1  0
 19 42  1  0
 21 43  1  0
 24 44  1  0
 28 45  1  0
M  END
>  <smiles>  (71) 
CC(=O)OC(C)[C@H](NC(=O)n1c(C(N)=O)cc2ccc(C(F)F)cc21)C(=O)O

>  <score_type>  (71) 
oracle

>  <origin>  (71) 
adg

>  <m_score__min__energy>  (71) 
-9.1899999999999995

>  <m_primary>  (71) 
energy

$$$$
76:0
     RDKit          3D

 38 40  0  0  0  0  0  0  0  0999 V2000
   -3.0930   20.7180  -28.2790 C   0  0  0  0  0  0  0  0  0  0  0  0
   -3.2640   22.1890  -28.1040 C   0  0  0  0  0  0  0  0  0  0  0  0
   -3.9180   22.7540  -27.1040 O   0  0  0  0  0  0  0  0  0  0  0  0
   -3.8510   24.0450  -27.2950 C   0  0  0  0  0  0  0  0  0  0  0  0
   -4.3400   24.9810  -26.5810 O   0  0  0  0  0  0  0  0  0  0  0  0
   -3.1670   24.3150  -28.3990 O   0  0  0  0  0  0  0  0  0  0  0  0
   -2.7740   23.1680  -28.9470 C   0  0  0  0  0  0  0  0  0  0  0  0
   -1.9810   23.0100  -30.1950 C   0  0  0  0  0  0  0  0  0  0  0  0
   -2.7540   23.1910  -31.3420 O   0  0  0  0  0  0  0  0  0  0  0  0
   -3.6600   22.2860  -31.8580 C   0  0  0  0  0  0  0  0  0  0  0  0
   -3.1420   21.3700  -32.5850 O   0  0  0  0  0  0  0  0  0  0  0  0
   -5.0520   22.3030  -31.6490 N   0  0  0  0  0  0  0  0  0  0  0  0
   -5.7850   23.2900  -31.0940 C   0  0  0  0  0  0  0  0  0  0  0  0
   -5.4050   24.5650  -30.5700 C   0  0  0  0  0  0  0  0  0  0  0  0
   -5.7880   24.9090  -29.2150 N   0  0  0  0  0  0  0  0  0  0  0  0
   -4.7570   25.4590  -31.1600 O   0  0  0  0  0  0  0  0  0  0  0  0
   -7.1120   22.8390  -31.1070 C   0  0  0  0  0  0  0  0  0  0  0  0
   -7.1730   21.5860  -31.6680 C   0  0  0  0  0  0  0  0  0  0  0  0
   -8.2410   20.7390  -31.8990 C   0  0  0  0  0  0  0  0  0  0  0  0
   -8.0200   19.5180  -32.4860 C   0  0  0  0  0  0  0  0  0  0  0  0
   -6.7350   19.1600  -32.8350 C   0  0  0  0  0  0  0  0  0  0  0  0
   -6.4750   17.8450  -33.4710 C   0  0  0  0  0  0  0  0  0  0  0  0
   -7.5990   17.0680  -33.3480 F   0  0  0  0  0  0  0  0  0  0  0  0
   -6.1890   17.9550  -34.8280 F   0  0  0  0  0  0  0  0  0  0  0  0
   -5.4100   17.1750  -32.9110 F   0  0  0  0  0  0  0  0  0  0  0  0
   -5.6720   20.0370  -32.5900 C   0  0  0  0  0  0  0  0  0  0  0  0
   -5.8740   21.2700  -32.0000 C   0  0  0  0  0  0  0  0  0  0  0  0
   -3.0369   20.2354  -27.2921 H   0  0  0  0  0  0  0  0  0  0  0  0
   -3.9501   20.3130  -28.8370 H   0  0  0  0  0  0  0  0  0  0  0  0
   -2.1658   20.5205  -28.8370 H   0  0  0  0  0  0  0  0  0  0  0  0
   -1.1698   23.7529  -30.1947 H   0  0  0  0  0  0  0  0  0  0  0  0
   -1.5868   21.9833  -30.2145 H   0  0  0  0  0  0  0  0  0  0  0  0
   -5.0720   25.3850  -28.5940 H   0  0  0  0  0  0  0  0  0  0  0  0
   -6.7530   24.6850  -28.8800 H   0  0  0  0  0  0  0  0  0  0  0  0
   -7.9754   23.4036  -30.7253 H   0  0  0  0  0  0  0  0  0  0  0  0
   -9.2598   21.0411  -31.6147 H   0  0  0  0  0  0  0  0  0  0  0  0
   -8.8591   18.8325  -32.6759 H   0  0  0  0  0  0  0  0  0  0  0  0
   -4.6522   19.7377  -32.8737 H   0  0  0  0  0  0  0  0  0  0  0  0
  1  2  1  0
  2  3  1  0
  3  4  1  0
  4  5  2  0
  4  6  1  0
  6  7  1  0
  7  8  1  0
  8  9  1  0
  9 10  1  0
 10 11  2  0
 10 12  1  0
 12 13  1  0
 13 14  1  0
 14 15  1  0
 14 16  2  0
 13 17  2  0
 17 18  1  0
 18 19  2  0
 19 20  1  0
 20 21  2  0
 21 22  1  0
 22 23  1  0
 22 24  1  0
 22 25  1  0
 21 26  1  0
 26 27  2  0
  7  2  2  0
 27 12  1  0
 27 18  1  0
  1 28  1  0
  1 29  1  0
  1 30  1  0
  8 31  1  0
  8 32  1  0
 15 33  1  0
 15 34  1  0
 17 35  1  0
 19 36  1  0
 20 37  1  0
 26 38  1  0
M  END
>  <smiles>  (72) 
Cc1oc(=O)oc1COC(=O)n1c(C(N)=O)cc2ccc(C(F)(F)F)cc21

>  <score_type>  (72) 
oracle

>  <origin>  (72) 
adg

>  <m_score__min__energy>  (72) 
-8.0600000000000005

>  <m_primary>  (72) 
energy

$$$$
77:0
     RDKit          3D

 37 38  0  0  0  0  0  0  0  0999 V2000
   -0.1470   22.4440  -28.0120 C   0  0  0  0  0  0  0  0  0  0  0  0
   -0.5090   23.8650  -27.9590 N   0  0  0  0  0  0  0  0  0  0  0  0
   -0.0230   24.6290  -26.8310 C   0  0  0  0  0  0  0  0  0  0  0  0
   -1.3080   24.4640  -28.9820 C   0  0  0  0  0  0  0  0  0  0  0  0
   -1.6310   25.6820  -28.9560 O   0  0  0  0  0  0  0  0  0  0  0  0
   -1.7340   23.6630  -30.0290 O   0  0  0  0  0  0  0  0  0  0  0  0
   -2.9260   22.4110  -29.8790 S   0  0  0  0  0  0  0  0  0  0  0  0
   -4.0680   22.3980  -31.2400 C   0  0  0  0  0  0  0  0  0  0  0  0
   -3.6120   21.9070  -32.3170 O   0  0  0  0  0  0  0  0  0  0  0  0
   -5.3870   22.8690  -31.2230 N   0  0  0  0  0  0  0  0  0  0  0  0
   -5.8620   24.0900  -30.9220 C   0  0  0  0  0  0  0  0  0  0  0  0
   -5.1870   25.3030  -30.5240 C   0  0  0  0  0  0  0  0  0  0  0  0
   -3.7760   25.2410  -30.1850 N   0  0  0  0  0  0  0  0  0  0  0  0
   -5.6710   26.4460  -30.4280 O   0  0  0  0  0  0  0  0  0  0  0  0
   -7.2600   24.0470  -31.0580 C   0  0  0  0  0  0  0  0  0  0  0  0
   -7.6210   22.7840  -31.4420 C   0  0  0  0  0  0  0  0  0  0  0  0
   -8.8610   22.2420  -31.7020 C   0  0  0  0  0  0  0  0  0  0  0  0
   -8.9710   20.9240  -32.0810 C   0  0  0  0  0  0  0  0  0  0  0  0
   -7.8290   20.1770  -32.1910 C   0  0  0  0  0  0  0  0  0  0  0  0
   -7.9260   18.7410  -32.6020 C   0  0  0  0  0  0  0  0  0  0  0  0
   -8.9630   18.1710  -31.8960 F   0  0  0  0  0  0  0  0  0  0  0  0
   -6.5780   20.7440  -31.9230 C   0  0  0  0  0  0  0  0  0  0  0  0
   -6.4510   22.0700  -31.5400 C   0  0  0  0  0  0  0  0  0  0  0  0
   -0.0473   22.0526  -26.9888 H   0  0  0  0  0  0  0  0  0  0  0  0
   -0.9315   21.8853  -28.5435 H   0  0  0  0  0  0  0  0  0  0  0  0
    0.8092   22.3288  -28.5435 H   0  0  0  0  0  0  0  0  0  0  0  0
   -0.3339   24.1403  -25.8959 H   0  0  0  0  0  0  0  0  0  0  0  0
    1.0751   24.6818  -26.8697 H   0  0  0  0  0  0  0  0  0  0  0  0
   -0.4406   25.6459  -26.8697 H   0  0  0  0  0  0  0  0  0  0  0  0
   -3.5540   24.7420  -29.2920 H   0  0  0  0  0  0  0  0  0  0  0  0
   -3.0620   25.6730  -30.8090 H   0  0  0  0  0  0  0  0  0  0  0  0
   -7.9485   24.8873  -30.8849 H   0  0  0  0  0  0  0  0  0  0  0  0
   -9.7635   22.8636  -31.6065 H   0  0  0  0  0  0  0  0  0  0  0  0
   -9.9552   20.4800  -32.2911 H   0  0  0  0  0  0  0  0  0  0  0  0
   -8.1262   18.6732  -33.6815 H   0  0  0  0  0  0  0  0  0  0  0  0
   -6.9827   18.2159  -32.3911 H   0  0  0  0  0  0  0  0  0  0  0  0
   -5.6749   20.1232  -32.0185 H   0  0  0  0  0  0  0  0  0  0  0  0
  1  2  1  0
  2  3  1  0
  2  4  1  0
  4  5  2  0
  4  6  1  0
  6  7  1  0
  7  8  1  0
  8  9  2  0
  8 10  1  0
 10 11  1  0
 11 12  1  0
 12 13  1  0
 12 14  2  0
 11 15  2  0
 15 16  1  0
 16 17  2  0
 17 18  1  0
 18 19  2  0
 19 20  1  0
 20 21  1  0
 19 22  1  0
 22 23  2  0
 23 10  1  0
 23 16  1  0
  1 24  1  0
  1 25  1  0
  1 26  1  0
  3 27  1  0
  3 28  1  0
  3 29  1  0
 13 30  1  0
 13 31  1  0
 15 32  1  0
 17 33  1  0
 18 34  1  0
 20 35  1  0
 20 36  1  0
 22 37  1  0
M  END
>  <smiles>  (73) 
CN(C)C(=O)OSC(=O)n1c(C(N)=O)cc2ccc(CF)cc21

>  <score_type>  (73) 
oracle

>  <origin>  (73) 
adg

>  <m_score__min__energy>  (73) 
-7.9000000000000004

>  <m_primary>  (73) 
energy

$$$$
78:0
     RDKit          3D

 49 50  0  0  1  0  0  0  0  0999 V2000
   -3.4250   24.2460  -29.3900 N   0  0  0  0  0  0  0  0  0  0  0  0
   -4.3780   24.5400  -30.4390 C   0  0  0  0  0  0  0  0  0  0  0  0
   -4.2570   25.6720  -30.9480 O   0  0  0  0  0  0  0  0  0  0  0  0
   -5.3620   23.5430  -30.8070 C   0  0  0  0  0  0  0  0  0  0  0  0
   -6.7090   23.8720  -31.0000 C   0  0  0  0  0  0  0  0  0  0  0  0
   -7.4010   22.7390  -31.3420 C   0  0  0  0  0  0  0  0  0  0  0  0
   -8.7270   22.5350  -31.6300 C   0  0  0  0  0  0  0  0  0  0  0  0
   -9.1900   21.2790  -31.9520 C   0  0  0  0  0  0  0  0  0  0  0  0
   -8.2890   20.2450  -31.9740 C   0  0  0  0  0  0  0  0  0  0  0  0
   -8.7780   18.8720  -32.3230 C   0  0  0  0  0  0  0  0  0  0  0  0
   -9.9140   18.9450  -33.1080 F   0  0  0  0  0  0  0  0  0  0  0  0
   -7.7910   18.1530  -32.9750 F   0  0  0  0  0  0  0  0  0  0  0  0
   -9.0820   18.1650  -31.1680 F   0  0  0  0  0  0  0  0  0  0  0  0
   -6.9450   20.4670  -31.6800 C   0  0  0  0  0  0  0  0  0  0  0  0
   -6.4560   21.7150  -31.3540 C   0  0  0  0  0  0  0  0  0  0  0  0
   -5.2470   22.2310  -31.0290 N   0  0  0  0  0  0  0  0  0  0  0  0
   -4.0790   21.4540  -30.9570 C   0  0  0  0  0  0  0  0  0  0  0  0
   -4.0710   20.3530  -31.6120 O   0  0  0  0  0  0  0  0  0  0  0  0
   -2.9340   21.7320  -30.2640 O   0  0  0  0  0  0  0  0  0  0  0  0
   -1.6860   21.1840  -30.6530 C   0  0  0  0  0  0  0  0  0  0  0  0
   -0.5820   22.0980  -30.1740 C   0  0  1  0  0  0  0  0  0  0  0  0
   -1.0090   23.4230  -30.0900 O   0  0  0  0  0  0  0  0  0  0  0  0
   -0.0870   21.6000  -28.8500 C   0  0  0  0  0  0  0  0  0  0  0  0
   -1.0640   21.8720  -27.8770 O   0  0  0  0  0  0  0  0  0  0  0  0
   -0.6400   23.3650  -27.2100 P   0  0  1  0  0  0  0  0  0  0  0  0
   -0.1460   23.2790  -25.8040 O   0  0  0  0  0  0  0  0  0  0  0  0
    0.5390   24.0790  -28.2140 O   0  0  0  0  0  0  0  0  0  0  0  0
   -1.9860   24.4120  -27.2510 O   0  0  0  0  0  0  0  0  0  0  0  0
   -1.5010   25.6530  -26.8760 C   0  0  0  0  0  0  0  0  0  0  0  0
   -0.9810   26.4490  -28.0510 C   0  0  0  0  0  0  0  0  0  0  0  0
   -1.2230   25.8300  -29.2600 O   0  0  0  0  0  0  0  0  0  0  0  0
   -3.0800   23.2650  -29.2340 H   0  0  0  0  0  0  0  0  0  0  0  0
   -3.0560   24.9900  -28.7640 H   0  0  0  0  0  0  0  0  0  0  0  0
   -7.1423   24.8775  -30.8943 H   0  0  0  0  0  0  0  0  0  0  0  0
   -9.4269   23.3832  -31.6034 H   0  0  0  0  0  0  0  0  0  0  0  0
  -10.2516   21.1096  -32.1849 H   0  0  0  0  0  0  0  0  0  0  0  0
   -6.2486   19.6160  -31.7089 H   0  0  0  0  0  0  0  0  0  0  0  0
   -1.5630   20.1881  -30.2024 H   0  0  0  0  0  0  0  0  0  0  0  0
   -1.6443   21.0898  -31.7482 H   0  0  0  0  0  0  0  0  0  0  0  0
    0.2408   22.0829  -30.9039 H   0  0  0  0  0  0  0  0  0  0  0  0
   -1.4130   23.5670  -29.1820 H   0  0  0  0  0  0  0  0  0  0  0  0
    0.0906   20.5158  -28.9043 H   0  0  0  0  0  0  0  0  0  0  0  0
    0.8560   22.1019  -28.5875 H   0  0  0  0  0  0  0  0  0  0  0  0
    0.1930   24.1930  -29.1270 H   0  0  0  0  0  0  0  0  0  0  0  0
   -2.3134   26.2197  -26.3976 H   0  0  0  0  0  0  0  0  0  0  0  0
   -0.6613   25.4893  -26.1846 H   0  0  0  0  0  0  0  0  0  0  0  0
   -1.4720   27.4333  -28.0547 H   0  0  0  0  0  0  0  0  0  0  0  0
    0.1091   26.5398  -27.9356 H   0  0  0  0  0  0  0  0  0  0  0  0
   -1.1760   24.8410  -29.2130 H   0  0  0  0  0  0  0  0  0  0  0  0
  1  2  1  0
  2  3  2  0
  2  4  1  0
  4  5  2  0
  5  6  1  0
  6  7  2  0
  7  8  1  0
  8  9  2  0
  9 10  1  0
 10 11  1  0
 10 12  1  0
 10 13  1  0
  9 14  1  0
 14 15  2  0
 15 16  1  0
 16 17  1  0
 17 18  2  0
 17 19  1  0
 19 20  1  0
 20 21  1  0
 21 22  1  0
 21 23  1  0
 23 24  1  0
 25 24  1  1
 25 26  2  0
 25 27  1  0
 25 28  1  0
 28 29  1  0
 29 30  1  0
 30 31  1  0
 16  4  1  0
 15  6  1  0
  1 32  1  0
  1 33  1  0
  5 34  1  0
  7 35  1  0
  8 36  1  0
 14 37  1  0
 20 38  1  0
 20 39  1  0
 21 40  1  6
 22 41  1  0
 23 42  1  0
 23 43  1  0
 27 44  1  0
 29 45  1  0
 29 46  1  0
 30 47  1  0
 30 48  1  0
 31 49  1  0
M  END
>  <smiles>  (74) 
NC(=O)c1cc2ccc(C(F)(F)F)cc2n1C(=O)OCC(O)COP(=O)(O)OCCO

>  <score_type>  (74) 
oracle

>  <origin>  (74) 
adg

>  <m_score__min__energy>  (74) 
-7.4800000000000004

>  <m_primary>  (74) 
energy

$$$$
79:0
     RDKit          3D

 44 45  0  0  1  0  0  0  0  0999 V2000
   -6.4150   25.1780  -30.1410 C   0  0  0  0  0  0  0  0  0  0  0  0
   -4.9370   24.9160  -29.9070 C   0  0  2  0  0  0  0  0  0  0  0  0
   -4.2340   25.8810  -30.6410 O   0  0  0  0  0  0  0  0  0  0  0  0
   -4.6650   23.5210  -30.3840 C   0  0  0  0  0  0  0  0  0  0  0  0
   -3.7640   23.4650  -31.4970 N   0  0  0  0  0  0  0  0  0  0  0  0
   -3.0170   22.2190  -31.5360 C   0  0  0  0  0  0  0  0  0  0  0  0
   -3.8710   21.2570  -32.3260 C   0  0  0  0  0  0  0  0  0  0  0  0
   -3.3460   20.0760  -32.7310 C   0  0  0  0  0  0  0  0  0  0  0  0
   -4.2040   19.2000  -33.4790 C   0  0  0  0  0  0  0  0  0  0  0  0
   -3.6790   18.7890  -34.5760 O   0  0  0  0  0  0  0  0  0  0  0  0
   -5.4890   18.7310  -33.2130 N   0  0  0  0  0  0  0  0  0  0  0  0
   -5.8640   17.4290  -33.3470 C   0  0  0  0  0  0  0  0  0  0  0  0
   -5.1570   16.2310  -33.7210 C   0  0  0  0  0  0  0  0  0  0  0  0
   -3.7100   16.1510  -33.5020 N   0  0  0  0  0  0  0  0  0  0  0  0
   -5.6120   15.1890  -34.2320 O   0  0  0  0  0  0  0  0  0  0  0  0
   -7.2330   17.3680  -33.0150 C   0  0  0  0  0  0  0  0  0  0  0  0
   -7.6780   18.6140  -32.6850 C   0  0  0  0  0  0  0  0  0  0  0  0
   -8.9260   19.0470  -32.3010 C   0  0  0  0  0  0  0  0  0  0  0  0
   -9.1510   20.3740  -32.0170 C   0  0  0  0  0  0  0  0  0  0  0  0
   -8.0830   21.2350  -32.1350 C   0  0  0  0  0  0  0  0  0  0  0  0
   -8.2650   22.6920  -31.8430 C   0  0  0  0  0  0  0  0  0  0  0  0
   -7.2450   23.3410  -32.5510 F   0  0  0  0  0  0  0  0  0  0  0  0
   -8.0170   22.9080  -30.5100 F   0  0  0  0  0  0  0  0  0  0  0  0
   -9.5000   23.1290  -32.2310 F   0  0  0  0  0  0  0  0  0  0  0  0
   -6.8240   20.7750  -32.5260 C   0  0  0  0  0  0  0  0  0  0  0  0
   -6.5830   19.4490  -32.8140 C   0  0  0  0  0  0  0  0  0  0  0  0
   -6.9290   25.2691  -29.1728 H   0  0  0  0  0  0  0  0  0  0  0  0
   -6.5363   26.1117  -30.7098 H   0  0  0  0  0  0  0  0  0  0  0  0
   -6.8499   24.3429  -30.7098 H   0  0  0  0  0  0  0  0  0  0  0  0
   -4.6303   24.9895  -28.8532 H   0  0  0  0  0  0  0  0  0  0  0  0
   -4.1340   25.6220  -31.5960 H   0  0  0  0  0  0  0  0  0  0  0  0
   -4.2286   22.9474  -29.5530 H   0  0  0  0  0  0  0  0  0  0  0  0
   -5.6239   23.1007  -30.7214 H   0  0  0  0  0  0  0  0  0  0  0  0
   -3.1230   24.2800  -31.5700 H   0  0  0  0  0  0  0  0  0  0  0  0
   -2.0471   22.3684  -32.0330 H   0  0  0  0  0  0  0  0  0  0  0  0
   -2.8060   21.8397  -30.5253 H   0  0  0  0  0  0  0  0  0  0  0  0
   -4.9123   21.5134  -32.5710 H   0  0  0  0  0  0  0  0  0  0  0  0
   -2.3073   19.7996  -32.4972 H   0  0  0  0  0  0  0  0  0  0  0  0
   -3.3240   15.4480  -32.8320 H   0  0  0  0  0  0  0  0  0  0  0  0
   -3.0710   16.7990  -34.0190 H   0  0  0  0  0  0  0  0  0  0  0  0
   -7.8475   16.4557  -33.0212 H   0  0  0  0  0  0  0  0  0  0  0  0
   -9.7520   18.3251  -32.2203 H   0  0  0  0  0  0  0  0  0  0  0  0
  -10.1439   20.7328  -31.7081 H   0  0  0  0  0  0  0  0  0  0  0  0
   -5.9966   21.4953  -32.6069 H   0  0  0  0  0  0  0  0  0  0  0  0
  1  2  1  0
  2  3  1  0
  2  4  1  0
  4  5  1  0
  5  6  1  0
  6  7  1  0
  7  8  2  0
  8  9  1  0
  9 10  2  0
  9 11  1  0
 11 12  1  0
 12 13  1  0
 13 14  1  0
 13 15  2  0
 12 16  2  0
 16 17  1  0
 17 18  2  0
 18 19  1  0
 19 20  2  0
 20 21  1  0
 21 22  1  0
 21 23  1  0
 21 24  1  0
 20 25  1  0
 25 26  2  0
 26 11  1  0
 26 17  1  0
  1 27  1  0
  1 28  1  0
  1 29  1  0
  2 30  1  1
  3 31  1  0
  4 32  1  0
  4 33  1  0
  5 34  1  0
  6 35  1  0
  6 36  1  0
  7 37  1  0
  8 38  1  0
 14 39  1  0
 14 40  1  0
 16 41  1  0
 18 42  1  0
 19 43  1  0
 25 44  1  0
M  END
>  <smiles>  (75) 
CC(O)CNC/C=C/C(=O)n1c(C(N)=O)cc2ccc(C(F)(F)F)cc21

>  <score_type>  (75) 
oracle

>  <origin>  (75) 
adg

>  <m_score__min__energy>  (75) 
-9.2200000000000006

>  <m_primary>  (75) 
energy

$$$$
80:0
     RDKit          3D

 34 35  0  0  0  0  0  0  0  0999 V2000
   -6.1040   25.9680  -29.3230 N   0  0  0  0  0  0  0  0  0  0  0  0
   -5.5000   25.1870  -30.3690 C   0  0  0  0  0  0  0  0  0  0  0  0
   -4.4360   25.6650  -30.8320 O   0  0  0  0  0  0  0  0  0  0  0  0
   -6.1300   23.9580  -30.7990 C   0  0  0  0  0  0  0  0  0  0  0  0
   -7.5200   23.8430  -30.9360 C   0  0  0  0  0  0  0  0  0  0  0  0
   -7.8310   22.5860  -31.3500 C   0  0  0  0  0  0  0  0  0  0  0  0
   -9.0470   21.9870  -31.6260 C   0  0  0  0  0  0  0  0  0  0  0  0
   -9.0710   20.6730  -32.0380 C   0  0  0  0  0  0  0  0  0  0  0  0
   -7.8950   19.9720  -32.1710 C   0  0  0  0  0  0  0  0  0  0  0  0
   -7.9490   18.5550  -32.6170 C   0  0  0  0  0  0  0  0  0  0  0  0
   -6.5870   18.0810  -33.0020 C   0  0  0  0  0  0  0  0  0  0  0  0
   -5.8550   17.4910  -32.1810 O   0  0  0  0  0  0  0  0  0  0  0  0
   -6.1290   18.2970  -34.2820 O   0  0  0  0  0  0  0  0  0  0  0  0
   -6.6920   20.6080  -31.8850 C   0  0  0  0  0  0  0  0  0  0  0  0
   -6.6250   21.9190  -31.4710 C   0  0  0  0  0  0  0  0  0  0  0  0
   -5.6070   22.7660  -31.1320 N   0  0  0  0  0  0  0  0  0  0  0  0
   -4.2390   22.4090  -31.1430 C   0  0  0  0  0  0  0  0  0  0  0  0
   -3.2810   23.1940  -31.3060 O   0  0  0  0  0  0  0  0  0  0  0  0
   -3.8760   21.0640  -30.9600 O   0  0  0  0  0  0  0  0  0  0  0  0
   -3.1250   20.4010  -31.9160 C   0  0  0  0  0  0  0  0  0  0  0  0
   -1.9260   20.0960  -31.6920 O   0  0  0  0  0  0  0  0  0  0  0  0
   -3.7410   20.0500  -33.2090 C   0  0  0  0  0  0  0  0  0  0  0  0
   -4.4670   20.9060  -33.8170 O   0  0  0  0  0  0  0  0  0  0  0  0
   -3.5240   18.7930  -33.7500 O   0  0  0  0  0  0  0  0  0  0  0  0
   -5.5990   26.0150  -28.4210 H   0  0  0  0  0  0  0  0  0  0  0  0
   -7.0080   26.4370  -29.5370 H   0  0  0  0  0  0  0  0  0  0  0  0
   -8.2465   24.6452  -30.7391 H   0  0  0  0  0  0  0  0  0  0  0  0
   -9.9837   22.5535  -31.5177 H   0  0  0  0  0  0  0  0  0  0  0  0
  -10.0308   20.1840  -32.2607 H   0  0  0  0  0  0  0  0  0  0  0  0
   -8.3320   17.9306  -31.7964 H   0  0  0  0  0  0  0  0  0  0  0  0
   -8.6142   18.4796  -33.4899 H   0  0  0  0  0  0  0  0  0  0  0  0
   -5.5360   19.1240  -34.4450 H   0  0  0  0  0  0  0  0  0  0  0  0
   -5.7560   20.0405  -31.9940 H   0  0  0  0  0  0  0  0  0  0  0  0
   -4.1820   18.0750  -33.4100 H   0  0  0  0  0  0  0  0  0  0  0  0
  1  2  1  0
  2  3  2  0
  2  4  1  0
  4  5  2  0
  5  6  1  0
  6  7  2  0
  7  8  1  0
  8  9  2  0
  9 10  1  0
 10 11  1  0
 11 12  2  0
 11 13  1  0
  9 14  1  0
 14 15  2  0
 15 16  1  0
 16 17  1  0
 17 18  2  0
 17 19  1  0
 19 20  1  0
 20 21  2  0
 20 22  1  0
 22 23  2  0
 22 24  1  0
 16  4  1  0
 15  6  1  0
  1 25  1  0
  1 26  1  0
  5 27  1  0
  7 28  1  0
  8 29  1  0
 10 30  1  0
 10 31  1  0
 13 32  1  0
 14 33  1  0
 24 34  1  0
M  END
>  <smiles>  (76) 
NC(=O)c1cc2ccc(CC(=O)O)cc2n1C(=O)OC(=O)C(=O)O

>  <score_type>  (76) 
oracle

>  <origin>  (76) 
adg

>  <m_score__min__energy>  (76) 
-8.1899999999999995

>  <m_primary>  (76) 
energy

$$$$
81:0
     RDKit          3D

 41 42  0  0  1  0  0  0  0  0999 V2000
   -1.5750   20.9330  -34.5350 N   0  0  0  0  0  0  0  0  0  0  0  0
   -1.8500   19.7570  -33.7230 C   0  0  0  0  0  0  0  0  0  0  0  0
   -0.8100   19.1640  -33.3690 O   0  0  0  0  0  0  0  0  0  0  0  0
   -3.2180   19.4040  -33.4190 C   0  0  0  0  0  0  0  0  0  0  0  0
   -3.7740   18.2200  -33.9460 C   0  0  0  0  0  0  0  0  0  0  0  0
   -5.0620   18.1170  -33.5170 C   0  0  0  0  0  0  0  0  0  0  0  0
   -5.9970   17.1380  -33.7560 C   0  0  0  0  0  0  0  0  0  0  0  0
   -7.2360   17.2340  -33.2060 C   0  0  0  0  0  0  0  0  0  0  0  0
   -7.5130   18.3250  -32.4140 C   0  0  0  0  0  0  0  0  0  0  0  0
   -8.8630   18.4950  -31.7730 C   0  0  0  0  0  0  0  0  0  0  0  0
   -8.7340   19.4970  -30.8090 F   0  0  0  0  0  0  0  0  0  0  0  0
   -9.8150   18.9180  -32.6510 F   0  0  0  0  0  0  0  0  0  0  0  0
   -6.5570   19.3040  -32.1820 C   0  0  0  0  0  0  0  0  0  0  0  0
   -5.2940   19.2270  -32.7340 C   0  0  0  0  0  0  0  0  0  0  0  0
   -4.1770   20.0130  -32.6720 N   0  0  0  0  0  0  0  0  0  0  0  0
   -4.0070   21.2560  -32.0370 C   0  0  0  0  0  0  0  0  0  0  0  0
   -3.5710   22.2350  -32.7430 O   0  0  0  0  0  0  0  0  0  0  0  0
   -4.2510   21.6140  -30.7050 N   0  0  0  0  0  0  0  0  0  0  0  0
   -4.0000   22.9770  -30.2340 C   0  0  1  0  0  0  0  0  0  0  0  0
   -5.2220   23.6230  -29.6990 C   0  0  0  0  0  0  0  0  0  0  0  0
   -5.2630   25.0440  -30.1080 C   0  0  0  0  0  0  0  0  0  0  0  0
   -6.2120   25.8290  -29.8340 O   0  0  0  0  0  0  0  0  0  0  0  0
   -4.2060   25.6070  -30.8450 O   0  0  0  0  0  0  0  0  0  0  0  0
   -2.8870   22.9050  -29.2620 C   0  0  0  0  0  0  0  0  0  0  0  0
   -2.4490   21.7600  -28.8900 O   0  0  0  0  0  0  0  0  0  0  0  0
   -2.2350   24.0670  -28.6810 C   0  0  0  0  0  0  0  0  0  0  0  0
   -1.6530   24.0490  -27.5550 O   0  0  0  0  0  0  0  0  0  0  0  0
   -2.2120   25.2970  -29.3420 O   0  0  0  0  0  0  0  0  0  0  0  0
   -2.0360   21.8220  -34.2190 H   0  0  0  0  0  0  0  0  0  0  0  0
   -0.9620   20.8770  -35.3670 H   0  0  0  0  0  0  0  0  0  0  0  0
   -3.2540   17.5001  -34.5951 H   0  0  0  0  0  0  0  0  0  0  0  0
   -5.7424   16.2774  -34.3921 H   0  0  0  0  0  0  0  0  0  0  0  0
   -7.9968   16.4608  -33.3888 H   0  0  0  0  0  0  0  0  0  0  0  0
   -9.1731   17.5204  -31.3680 H   0  0  0  0  0  0  0  0  0  0  0  0
   -6.8119   20.1621  -31.5427 H   0  0  0  0  0  0  0  0  0  0  0  0
   -4.6310   20.9680  -30.0230 H   0  0  0  0  0  0  0  0  0  0  0  0
   -3.7076   23.6299  -31.0696 H   0  0  0  0  0  0  0  0  0  0  0  0
   -6.1095   23.1051  -30.0915 H   0  0  0  0  0  0  0  0  0  0  0  0
   -5.2108   23.5634  -28.6007 H   0  0  0  0  0  0  0  0  0  0  0  0
   -3.4750   25.0160  -31.2390 H   0  0  0  0  0  0  0  0  0  0  0  0
   -3.0790   25.7000  -29.7320 H   0  0  0  0  0  0  0  0  0  0  0  0
  1  2  1  0
  2  3  2  0
  2  4  1  0
  4  5  2  0
  5  6  1  0
  6  7  2  0
  7  8  1  0
  8  9  2  0
  9 10  1  0
 10 11  1  0
 10 12  1  0
  9 13  1  0
 13 14  2  0
 14 15  1  0
 15 16  1  0
 16 17  2  0
 16 18  1  0
 18 19  1  0
 19 20  1  0
 20 21  1  0
 21 22  2  0
 21 23  1  0
 19 24  1  0
 24 25  2  0
 24 26  1  0
 26 27  2  0
 26 28  1  0
 15  4  1  0
 14  6  1  0
  1 29  1  0
  1 30  1  0
  5 31  1  0
  7 32  1  0
  8 33  1  0
 10 34  1  0
 13 35  1  0
 18 36  1  0
 19 37  1  6
 20 38  1  0
 20 39  1  0
 23 40  1  0
 28 41  1  0
M  END
>  <smiles>  (77) 
NC(=O)c1cc2ccc(C(F)F)cc2n1C(=O)NC(CC(=O)O)C(=O)C(=O)O

>  <score_type>  (77) 
oracle

>  <origin>  (77) 
adg

>  <m_score__min__energy>  (77) 
-8.8399999999999999

>  <m_primary>  (77) 
energy

$$$$
83:0
     RDKit          3D

 42 43  0  0  0  0  0  0  0  0999 V2000
   -2.8680   21.0040  -29.5510 C   0  0  0  0  0  0  0  0  0  0  0  0
   -3.1140   21.2010  -30.9500 N   0  0  0  0  0  0  0  0  0  0  0  0
   -2.1910   20.3940  -31.8210 C   0  0  0  0  0  0  0  0  0  0  0  0
   -3.0310   19.7940  -32.8870 C   0  0  0  0  0  0  0  0  0  0  0  0
   -3.8450   18.8460  -32.6340 O   0  0  0  0  0  0  0  0  0  0  0  0
   -2.9760   20.2340  -34.2190 O   0  0  0  0  0  0  0  0  0  0  0  0
   -4.0380   21.9820  -31.6240 C   0  0  0  0  0  0  0  0  0  0  0  0
   -3.6000   22.4200  -32.7820 O   0  0  0  0  0  0  0  0  0  0  0  0
   -5.3420   22.4150  -31.3230 N   0  0  0  0  0  0  0  0  0  0  0  0
   -5.8620   23.5820  -30.9510 C   0  0  0  0  0  0  0  0  0  0  0  0
   -5.2120   24.7580  -30.3530 C   0  0  0  0  0  0  0  0  0  0  0  0
   -5.7160   25.2750  -29.1090 N   0  0  0  0  0  0  0  0  0  0  0  0
   -4.2430   25.3600  -30.8420 O   0  0  0  0  0  0  0  0  0  0  0  0
   -7.2610   23.5620  -31.0010 C   0  0  0  0  0  0  0  0  0  0  0  0
   -7.6020   22.3160  -31.4170 C   0  0  0  0  0  0  0  0  0  0  0  0
   -8.8600   21.7820  -31.6310 C   0  0  0  0  0  0  0  0  0  0  0  0
   -8.9870   20.4800  -32.0610 C   0  0  0  0  0  0  0  0  0  0  0  0
   -7.8440   19.7610  -32.2640 C   0  0  0  0  0  0  0  0  0  0  0  0
   -7.9750   18.3570  -32.7300 C   0  0  0  0  0  0  0  0  0  0  0  0
   -6.6370   17.6550  -32.6440 C   0  0  0  0  0  0  0  0  0  0  0  0
   -6.1290   17.5210  -34.0380 C   0  0  0  0  0  0  0  0  0  0  0  0
   -6.1210   16.4060  -34.6030 O   0  0  0  0  0  0  0  0  0  0  0  0
   -5.6470   18.6040  -34.7650 O   0  0  0  0  0  0  0  0  0  0  0  0
   -6.5770   20.3120  -32.0450 C   0  0  0  0  0  0  0  0  0  0  0  0
   -6.4330   21.6270  -31.6100 C   0  0  0  0  0  0  0  0  0  0  0  0
   -3.5948   21.5860  -28.9654 H   0  0  0  0  0  0  0  0  0  0  0  0
   -2.9717   19.9364  -29.3073 H   0  0  0  0  0  0  0  0  0  0  0  0
   -1.8488   21.3385  -29.3073 H   0  0  0  0  0  0  0  0  0  0  0  0
   -1.4224   21.0442  -32.2643 H   0  0  0  0  0  0  0  0  0  0  0  0
   -1.6743   19.6170  -31.2386 H   0  0  0  0  0  0  0  0  0  0  0  0
   -2.7520   21.2240  -34.3710 H   0  0  0  0  0  0  0  0  0  0  0  0
   -6.3730   24.6630  -28.5330 H   0  0  0  0  0  0  0  0  0  0  0  0
   -5.4640   26.2220  -28.7480 H   0  0  0  0  0  0  0  0  0  0  0  0
   -7.9444   24.3877  -30.7536 H   0  0  0  0  0  0  0  0  0  0  0  0
   -9.7564   22.3957  -31.4582 H   0  0  0  0  0  0  0  0  0  0  0  0
   -9.9771   20.0336  -32.2353 H   0  0  0  0  0  0  0  0  0  0  0  0
   -8.7041   17.8298  -32.0971 H   0  0  0  0  0  0  0  0  0  0  0  0
   -8.3171   18.3544  -33.7755 H   0  0  0  0  0  0  0  0  0  0  0  0
   -5.9354   18.2503  -32.0412 H   0  0  0  0  0  0  0  0  0  0  0  0
   -6.7390   16.6698  -32.1654 H   0  0  0  0  0  0  0  0  0  0  0  0
   -4.7560   19.0580  -34.5230 H   0  0  0  0  0  0  0  0  0  0  0  0
   -5.6813   19.6975  -32.2189 H   0  0  0  0  0  0  0  0  0  0  0  0
  1  2  1  0
  2  3  1  0
  3  4  1  0
  4  5  2  0
  4  6  1  0
  2  7  1  0
  7  8  2  0
  7  9  1  0
  9 10  1  0
 10 11  1  0
 11 12  1  0
 11 13  2  0
 10 14  2  0
 14 15  1  0
 15 16  2  0
 16 17  1  0
 17 18  2  0
 18 19  1  0
 19 20  1  0
 20 21  1  0
 21 22  2  0
 21 23  1  0
 18 24  1  0
 24 25  2  0
 25  9  1  0
 25 15  1  0
  1 26  1  0
  1 27  1  0
  1 28  1  0
  3 29  1  0
  3 30  1  0
  6 31  1  0
 12 32  1  0
 12 33  1  0
 14 34  1  0
 16 35  1  0
 17 36  1  0
 19 37  1  0
 19 38  1  0
 20 39  1  0
 20 40  1  0
 23 41  1  0
 24 42  1  0
M  END
>  <smiles>  (78) 
CN(CC(=O)O)C(=O)n1c(C(N)=O)cc2ccc(CCC(=O)O)cc21

>  <score_type>  (78) 
oracle

>  <origin>  (78) 
adg

>  <m_score__min__energy>  (78) 
-9.5

>  <m_primary>  (78) 
energy

$$$$
85:0
     RDKit          3D

 53 55  0  0  0  0  0  0  0  0999 V2000
   -4.0910   14.1720  -34.7920 N   0  0  0  0  0  0  0  0  0  0  0  0
   -5.3450   14.3850  -34.1150 C   0  0  0  0  0  0  0  0  0  0  0  0
   -6.1020   13.4080  -33.9350 O   0  0  0  0  0  0  0  0  0  0  0  0
   -5.6170   15.7470  -33.6910 C   0  0  0  0  0  0  0  0  0  0  0  0
   -6.9610   16.0970  -33.4540 C   0  0  0  0  0  0  0  0  0  0  0  0
   -6.9510   17.3930  -33.0560 C   0  0  0  0  0  0  0  0  0  0  0  0
   -7.9890   18.2140  -32.7070 C   0  0  0  0  0  0  0  0  0  0  0  0
   -7.7880   19.5150  -32.3270 C   0  0  0  0  0  0  0  0  0  0  0  0
   -6.4960   19.9790  -32.3070 C   0  0  0  0  0  0  0  0  0  0  0  0
   -6.2560   21.3360  -31.9220 N   0  0  0  0  0  0  0  0  0  0  0  0
   -7.0050   22.0110  -30.8840 C   0  0  0  0  0  0  0  0  0  0  0  0
   -7.0650   23.4930  -31.2870 C   0  0  0  0  0  0  0  0  0  0  0  0
   -5.7180   24.0050  -31.1450 N   0  0  0  0  0  0  0  0  0  0  0  0
   -5.4350   25.2450  -30.5090 C   0  0  0  0  0  0  0  0  0  0  0  0
   -6.3630   25.9310  -30.0530 O   0  0  0  0  0  0  0  0  0  0  0  0
   -4.1130   25.6580  -30.4170 O   0  0  0  0  0  0  0  0  0  0  0  0
   -4.6470   23.1780  -31.6920 C   0  0  0  0  0  0  0  0  0  0  0  0
   -5.2070   22.0910  -32.5850 C   0  0  0  0  0  0  0  0  0  0  0  0
   -5.4530   19.1330  -32.6650 C   0  0  0  0  0  0  0  0  0  0  0  0
   -5.6420   17.8190  -33.0490 C   0  0  0  0  0  0  0  0  0  0  0  0
   -4.8110   16.7900  -33.4440 N   0  0  0  0  0  0  0  0  0  0  0  0
   -3.4370   16.9450  -33.4930 C   0  0  0  0  0  0  0  0  0  0  0  0
   -2.7660   15.8640  -33.1140 O   0  0  0  0  0  0  0  0  0  0  0  0
   -2.5170   17.9320  -33.8340 N   0  0  0  0  0  0  0  0  0  0  0  0
   -1.0970   17.4460  -33.6850 C   0  0  0  0  0  0  0  0  0  0  0  0
   -0.6210   16.7190  -34.8530 C   0  0  0  0  0  0  0  0  0  0  0  0
    0.3450   17.0080  -35.5890 O   0  0  0  0  0  0  0  0  0  0  0  0
   -1.3270   15.5510  -35.2090 O   0  0  0  0  0  0  0  0  0  0  0  0
   -2.6380   19.2940  -34.2090 C   0  0  0  0  0  0  0  0  0  0  0  0
   -2.2740   20.3150  -33.2170 C   0  0  0  0  0  0  0  0  0  0  0  0
   -2.4300   19.9930  -31.9890 O   0  0  0  0  0  0  0  0  0  0  0  0
   -1.7890   21.5750  -33.4550 O   0  0  0  0  0  0  0  0  0  0  0  0
   -3.8450   13.2070  -35.1680 H   0  0  0  0  0  0  0  0  0  0  0  0
   -3.3910   14.9120  -34.9410 H   0  0  0  0  0  0  0  0  0  0  0  0
   -7.8421   15.4485  -33.5689 H   0  0  0  0  0  0  0  0  0  0  0  0
   -9.0148   17.8177  -32.7323 H   0  0  0  0  0  0  0  0  0  0  0  0
   -8.6311   20.1641  -32.0481 H   0  0  0  0  0  0  0  0  0  0  0  0
   -8.0205   21.5940  -30.8151 H   0  0  0  0  0  0  0  0  0  0  0  0
   -6.5282   21.8838  -29.9009 H   0  0  0  0  0  0  0  0  0  0  0  0
   -7.4025   23.5914  -32.3293 H   0  0  0  0  0  0  0  0  0  0  0  0
   -7.7743   24.0510  -30.6582 H   0  0  0  0  0  0  0  0  0  0  0  0
   -3.8710   26.4310  -29.8140 H   0  0  0  0  0  0  0  0  0  0  0  0
   -3.9666   23.8119  -32.2795 H   0  0  0  0  0  0  0  0  0  0  0  0
   -4.1072   22.7050  -30.8584 H   0  0  0  0  0  0  0  0  0  0  0  0
   -5.6209   22.5540  -33.4929 H   0  0  0  0  0  0  0  0  0  0  0  0
   -4.3902   21.3970  -32.8326 H   0  0  0  0  0  0  0  0  0  0  0  0
   -4.4269   19.5287  -32.6415 H   0  0  0  0  0  0  0  0  0  0  0  0
   -0.4436   18.3159  -33.5228 H   0  0  0  0  0  0  0  0  0  0  0  0
   -1.0738   16.7516  -32.8322 H   0  0  0  0  0  0  0  0  0  0  0  0
   -1.7670   15.0440  -34.4540 H   0  0  0  0  0  0  0  0  0  0  0  0
   -1.9972   19.4496  -35.0895 H   0  0  0  0  0  0  0  0  0  0  0  0
   -3.7158   19.4404  -34.3728 H   0  0  0  0  0  0  0  0  0  0  0  0
   -1.9260   22.0490  -34.3500 H   0  0  0  0  0  0  0  0  0  0  0  0
  1  2  1  0
  2  3  2  0
  2  4  1  0
  4  5  2  0
  5  6  1  0
  6  7  2  0
  7  8  1  0
  8  9  2  0
  9 10  1  0
 10 11  1  0
 11 12  1  0
 12 13  1  0
 13 14  1  0
 14 15  2  0
 14 16  1  0
 13 17  1  0
 17 18  1  0
  9 19  1  0
 19 20  2  0
 20 21  1  0
 21 22  1  0
 22 23  2  0
 22 24  1  0
 24 25  1  0
 25 26  1  0
 26 27  2  0
 26 28  1  0
 24 29  1  0
 29 30  1  0
 30 31  2  0
 30 32  1  0
 21  4  1  0
 20  6  1  0
 18 10  1  0
  1 33  1  0
  1 34  1  0
  5 35  1  0
  7 36  1  0
  8 37  1  0
 11 38  1  0
 11 39  1  0
 12 40  1  0
 12 41  1  0
 16 42  1  0
 17 43  1  0
 17 44  1  0
 18 45  1  0
 18 46  1  0
 19 47  1  0
 25 48  1  0
 25 49  1  0
 28 50  1  0
 29 51  1  0
 29 52  1  0
 32 53  1  0
M  END
>  <smiles>  (79) 
NC(=O)c1cc2ccc(N3CCN(C(=O)O)CC3)cc2n1C(=O)N(CC(=O)O)CC(=O)O

>  <score_type>  (79) 
oracle

>  <origin>  (79) 
adg

>  <m_score__min__energy>  (79) 
-9.2300000000000004

>  <m_primary>  (79) 
energy

$$$$
86:0
     RDKit          3D

 46 47  0  0  0  0  0  0  0  0999 V2000
   -0.2890   21.9740  -26.8460 C   0  0  0  0  0  0  0  0  0  0  0  0
   -0.6760   22.9880  -27.8340 N   0  0  0  0  0  0  0  0  0  0  0  0
   -0.9180   24.3390  -27.3320 C   0  0  0  0  0  0  0  0  0  0  0  0
   -2.2280   24.8540  -27.8160 C   0  0  0  0  0  0  0  0  0  0  0  0
   -3.2030   24.8970  -27.0220 O   0  0  0  0  0  0  0  0  0  0  0  0
   -2.3610   25.2810  -29.1390 O   0  0  0  0  0  0  0  0  0  0  0  0
   -0.8140   22.6960  -29.2100 C   0  0  0  0  0  0  0  0  0  0  0  0
   -0.6360   23.5770  -30.0920 O   0  0  0  0  0  0  0  0  0  0  0  0
   -1.1780   21.3050  -29.5820 C   0  0  0  0  0  0  0  0  0  0  0  0
   -2.6770   21.1770  -29.4330 N   0  0  0  0  0  0  0  0  0  0  0  0
   -3.0650   20.5600  -28.2100 C   0  0  0  0  0  0  0  0  0  0  0  0
   -3.3830   21.7410  -30.4840 C   0  0  0  0  0  0  0  0  0  0  0  0
   -2.5260   22.2200  -31.3760 O   0  0  0  0  0  0  0  0  0  0  0  0
   -4.6990   21.9440  -30.8510 N   0  0  0  0  0  0  0  0  0  0  0  0
   -5.3030   23.1750  -30.7900 C   0  0  0  0  0  0  0  0  0  0  0  0
   -4.9090   24.4380  -30.2130 C   0  0  0  0  0  0  0  0  0  0  0  0
   -5.1570   24.9130  -28.9040 N   0  0  0  0  0  0  0  0  0  0  0  0
   -4.2460   25.2960  -30.9350 O   0  0  0  0  0  0  0  0  0  0  0  0
   -6.5900   23.0480  -31.3560 C   0  0  0  0  0  0  0  0  0  0  0  0
   -6.7670   21.7640  -31.7510 C   0  0  0  0  0  0  0  0  0  0  0  0
   -7.8410   21.1620  -32.3680 C   0  0  0  0  0  0  0  0  0  0  0  0
   -7.7850   19.8320  -32.7060 C   0  0  0  0  0  0  0  0  0  0  0  0
   -6.6520   19.1410  -32.4180 C   0  0  0  0  0  0  0  0  0  0  0  0
   -6.5930   17.7020  -32.7870 C   0  0  0  0  0  0  0  0  0  0  0  0
   -7.8240   17.1300  -32.6690 F   0  0  0  0  0  0  0  0  0  0  0  0
   -5.7570   17.0880  -31.8600 F   0  0  0  0  0  0  0  0  0  0  0  0
   -6.0610   17.5760  -34.0620 F   0  0  0  0  0  0  0  0  0  0  0  0
   -5.5850   19.7660  -31.7980 C   0  0  0  0  0  0  0  0  0  0  0  0
   -5.5960   21.0960  -31.4360 C   0  0  0  0  0  0  0  0  0  0  0  0
   -0.4413   22.3729  -25.8323 H   0  0  0  0  0  0  0  0  0  0  0  0
   -0.9070   21.0743  -26.9826 H   0  0  0  0  0  0  0  0  0  0  0  0
    0.7713   21.7148  -26.9826 H   0  0  0  0  0  0  0  0  0  0  0  0
   -0.9216   24.3202  -26.2322 H   0  0  0  0  0  0  0  0  0  0  0  0
   -0.1203   25.0009  -27.7001 H   0  0  0  0  0  0  0  0  0  0  0  0
   -2.4520   24.6080  -29.8890 H   0  0  0  0  0  0  0  0  0  0  0  0
   -0.8848   21.1049  -30.6232 H   0  0  0  0  0  0  0  0  0  0  0  0
   -0.6594   20.5810  -28.9364 H   0  0  0  0  0  0  0  0  0  0  0  0
   -2.6907   21.1553  -27.3641 H   0  0  0  0  0  0  0  0  0  0  0  0
   -4.1624   20.5021  -28.1605 H   0  0  0  0  0  0  0  0  0  0  0  0
   -2.6417   19.5459  -28.1605 H   0  0  0  0  0  0  0  0  0  0  0  0
   -6.1340   24.9820  -28.4880 H   0  0  0  0  0  0  0  0  0  0  0  0
   -4.3840   25.2380  -28.2490 H   0  0  0  0  0  0  0  0  0  0  0  0
   -7.3274   23.8577  -31.4593 H   0  0  0  0  0  0  0  0  0  0  0  0
   -8.7453   21.7474  -32.5905 H   0  0  0  0  0  0  0  0  0  0  0  0
   -8.6365   19.3389  -33.1977 H   0  0  0  0  0  0  0  0  0  0  0  0
   -4.6839   19.1728  -31.5834 H   0  0  0  0  0  0  0  0  0  0  0  0
  1  2  1  0
  2  3  1  0
  3  4  1  0
  4  5  2  0
  4  6  1  0
  2  7  1  0
  7  8  2  0
  7  9  1  0
  9 10  1  0
 10 11  1  0
 10 12  1  0
 12 13  2  0
 12 14  1  0
 14 15  1  0
 15 16  1  0
 16 17  1  0
 16 18  2  0
 15 19  2  0
 19 20  1  0
 20 21  2  0
 21 22  1  0
 22 23  2  0
 23 24  1  0
 24 25  1  0
 24 26  1  0
 24 27  1  0
 23 28  1  0
 28 29  2  0
 29 14  1  0
 29 20  1  0
  1 30  1  0
  1 31  1  0
  1 32  1  0
  3 33  1  0
  3 34  1  0
  6 35  1  0
  9 36  1  0
  9 37  1  0
 11 38  1  0
 11 39  1  0
 11 40  1  0
 17 41  1  0
 17 42  1  0
 19 43  1  0
 21 44  1  0
 22 45  1  0
 28 46  1  0
M  END
>  <smiles>  (80) 
CN(CC(=O)O)C(=O)CN(C)C(=O)n1c(C(N)=O)cc2ccc(C(F)(F)F)cc21

>  <score_type>  (80) 
oracle

>  <origin>  (80) 
adg

>  <m_score__min__energy>  (80) 
-9.5600000000000005

>  <m_primary>  (80) 
energy

$$$$
87:0
     RDKit          3D

 46 47  0  0  1  0  0  0  0  0999 V2000
   -2.3060   21.4320  -27.1020 C   0  0  0  0  0  0  0  0  0  0  0  0
   -2.1060   22.4710  -28.1330 C   0  0  2  0  0  0  0  0  0  0  0  0
   -3.2480   23.3000  -28.2130 O   0  0  0  0  0  0  0  0  0  0  0  0
   -1.6590   22.0850  -29.4950 C   0  0  0  0  0  0  0  0  0  0  0  0
   -2.0920   22.7870  -30.5880 O   0  0  0  0  0  0  0  0  0  0  0  0
   -3.3880   23.1490  -30.9010 C   0  0  0  0  0  0  0  0  0  0  0  0
   -3.5750   24.3700  -31.0750 O   0  0  0  0  0  0  0  0  0  0  0  0
   -4.3790   22.1040  -30.9900 C   0  0  0  0  0  0  0  0  0  0  0  0
   -3.8710   20.9130  -31.0410 O   0  0  0  0  0  0  0  0  0  0  0  0
   -5.7720   22.1280  -31.0410 N   0  0  0  0  0  0  0  0  0  0  0  0
   -6.4990   23.2350  -30.7010 C   0  0  0  0  0  0  0  0  0  0  0  0
   -6.1310   24.5020  -30.1080 C   0  0  0  0  0  0  0  0  0  0  0  0
   -5.1740   24.5360  -29.0010 N   0  0  0  0  0  0  0  0  0  0  0  0
   -6.5370   25.6390  -30.4240 O   0  0  0  0  0  0  0  0  0  0  0  0
   -7.8530   22.9550  -30.9650 C   0  0  0  0  0  0  0  0  0  0  0  0
   -7.9480   21.6950  -31.4590 C   0  0  0  0  0  0  0  0  0  0  0  0
   -9.0510   20.9860  -31.8790 C   0  0  0  0  0  0  0  0  0  0  0  0
   -8.9160   19.7170  -32.3780 C   0  0  0  0  0  0  0  0  0  0  0  0
   -7.6500   19.1920  -32.4390 C   0  0  0  0  0  0  0  0  0  0  0  0
   -7.4960   17.8160  -32.9800 C   0  0  0  0  0  0  0  0  0  0  0  0
   -6.1630   17.7360  -34.1710 Cl  0  0  0  0  0  0  0  0  0  0  0  0
   -6.5500   19.9220  -32.0090 C   0  0  0  0  0  0  0  0  0  0  0  0
   -6.6550   21.2030  -31.5000 C   0  0  0  0  0  0  0  0  0  0  0  0
   -0.9540   23.3760  -27.5570 C   0  0  0  0  0  0  0  0  0  0  0  0
   -1.3640   25.1070  -27.8130 P   0  0  0  0  0  0  0  0  0  0  0  0
   -0.1640   26.0140  -27.6630 O   0  0  0  0  0  0  0  0  0  0  0  0
   -2.5740   25.5850  -26.7020 O   0  0  0  0  0  0  0  0  0  0  0  0
   -2.0230   25.3030  -29.3420 O   0  0  0  0  0  0  0  0  0  0  0  0
   -2.2188   21.8848  -26.1033 H   0  0  0  0  0  0  0  0  0  0  0  0
   -3.3060   20.9885  -27.2175 H   0  0  0  0  0  0  0  0  0  0  0  0
   -1.5421   20.6490  -27.2175 H   0  0  0  0  0  0  0  0  0  0  0  0
   -3.1960   23.9020  -28.9840 H   0  0  0  0  0  0  0  0  0  0  0  0
   -0.5606   22.1439  -29.4960 H   0  0  0  0  0  0  0  0  0  0  0  0
   -2.1160   21.0945  -29.6368 H   0  0  0  0  0  0  0  0  0  0  0  0
   -5.4640   24.0690  -28.1140 H   0  0  0  0  0  0  0  0  0  0  0  0
   -4.2470   25.0160  -29.1310 H   0  0  0  0  0  0  0  0  0  0  0  0
   -8.6945   23.6436  -30.7984 H   0  0  0  0  0  0  0  0  0  0  0  0
  -10.0497   21.4424  -31.8134 H   0  0  0  0  0  0  0  0  0  0  0  0
   -9.7897   19.1410  -32.7169 H   0  0  0  0  0  0  0  0  0  0  0  0
   -7.2786   17.1265  -32.1509 H   0  0  0  0  0  0  0  0  0  0  0  0
   -8.4317   17.5326  -33.4841 H   0  0  0  0  0  0  0  0  0  0  0  0
   -5.5532   19.4617  -32.0762 H   0  0  0  0  0  0  0  0  0  0  0  0
   -0.8395   23.1820  -26.4803 H   0  0  0  0  0  0  0  0  0  0  0  0
   -0.0120   23.1427  -28.0748 H   0  0  0  0  0  0  0  0  0  0  0  0
   -3.4290   25.2180  -27.0720 H   0  0  0  0  0  0  0  0  0  0  0  0
   -2.0930   24.4400  -29.8160 H   0  0  0  0  0  0  0  0  0  0  0  0
  1  2  1  0
  2  3  1  6
  2  4  1  0
  4  5  1  0
  5  6  1  0
  6  7  2  0
  6  8  1  0
  8  9  2  0
  8 10  1  0
 10 11  1  0
 11 12  1  0
 12 13  1  0
 12 14  2  0
 11 15  2  0
 15 16  1  0
 16 17  2  0
 17 18  1  0
 18 19  2  0
 19 20  1  0
 20 21  1  0
 19 22  1  0
 22 23  2  0
  2 24  1  0
 24 25  1  0
 25 26  2  0
 25 27  1  0
 25 28  1  0
 23 10  1  0
 23 16  1  0
  1 29  1  0
  1 30  1  0
  1 31  1  0
  3 32  1  0
  4 33  1  0
  4 34  1  0
 13 35  1  0
 13 36  1  0
 15 37  1  0
 17 38  1  0
 18 39  1  0
 20 40  1  0
 20 41  1  0
 22 42  1  0
 24 43  1  0
 24 44  1  0
 27 45  1  0
 28 46  1  0
M  END
>  <smiles>  (81) 
CC(O)(COC(=O)C(=O)n1c(C(N)=O)cc2ccc(CCl)cc21)CP(=O)(O)O

>  <score_type>  (81) 
oracle

>  <origin>  (81) 
adg

>  <m_score__min__energy>  (81) 
-9.2300000000000004

>  <m_primary>  (81) 
energy

$$$$
88:0
     RDKit          3D

 40 41  0  0  0  0  0  0  0  0999 V2000
   -6.8860   16.9720  -33.4190 C   0  0  0  0  0  0  0  0  0  0  0  0
   -6.9480   18.0960  -32.9880 C   0  0  0  0  0  0  0  0  0  0  0  0
   -6.9990   19.4410  -32.4840 C   0  0  0  0  0  0  0  0  0  0  0  0
   -8.2150   20.0830  -32.4850 C   0  0  0  0  0  0  0  0  0  0  0  0
   -8.2450   21.3700  -31.9990 C   0  0  0  0  0  0  0  0  0  0  0  0
   -7.0990   21.9730  -31.5360 C   0  0  0  0  0  0  0  0  0  0  0  0
   -6.9010   23.2200  -31.0440 C   0  0  0  0  0  0  0  0  0  0  0  0
   -5.5370   23.3820  -30.7170 C   0  0  0  0  0  0  0  0  0  0  0  0
   -5.0790   24.6310  -30.1580 C   0  0  0  0  0  0  0  0  0  0  0  0
   -5.1210   24.8380  -28.7120 N   0  0  0  0  0  0  0  0  0  0  0  0
   -4.6230   25.6260  -30.7630 O   0  0  0  0  0  0  0  0  0  0  0  0
   -4.9120   22.2060  -31.0240 N   0  0  0  0  0  0  0  0  0  0  0  0
   -3.5280   22.0450  -30.9040 C   0  0  0  0  0  0  0  0  0  0  0  0
   -2.8700   22.5360  -31.9150 O   0  0  0  0  0  0  0  0  0  0  0  0
   -2.6720   21.4700  -29.9170 C   0  0  0  0  0  0  0  0  0  0  0  0
   -2.5130   20.2280  -29.6850 O   0  0  0  0  0  0  0  0  0  0  0  0
   -1.8360   22.2420  -29.0250 N   0  0  0  0  0  0  0  0  0  0  0  0
   -0.5860   22.7050  -29.6910 C   0  0  0  0  0  0  0  0  0  0  0  0
   -1.9650   22.5360  -27.6650 C   0  0  0  0  0  0  0  0  0  0  0  0
   -2.1520   23.9800  -27.2960 C   0  0  0  0  0  0  0  0  0  0  0  0
   -1.6300   25.0000  -28.1840 C   0  0  0  0  0  0  0  0  0  0  0  0
   -0.6120   25.6920  -28.0980 O   0  0  0  0  0  0  0  0  0  0  0  0
   -2.4150   25.2530  -29.3500 O   0  0  0  0  0  0  0  0  0  0  0  0
   -5.8580   21.3550  -31.5200 C   0  0  0  0  0  0  0  0  0  0  0  0
   -5.8540   20.0710  -32.0110 C   0  0  0  0  0  0  0  0  0  0  0  0
   -6.8294   15.9463  -33.8123 H   0  0  0  0  0  0  0  0  0  0  0  0
   -9.1243   19.5892  -32.8581 H   0  0  0  0  0  0  0  0  0  0  0  0
   -9.1960   21.9225  -31.9806 H   0  0  0  0  0  0  0  0  0  0  0  0
   -7.6806   23.9859  -30.9190 H   0  0  0  0  0  0  0  0  0  0  0  0
   -4.2490   25.1940  -28.2400 H   0  0  0  0  0  0  0  0  0  0  0  0
   -5.9880   24.6390  -28.1750 H   0  0  0  0  0  0  0  0  0  0  0  0
    0.1562   22.9799  -28.9271 H   0  0  0  0  0  0  0  0  0  0  0  0
   -0.1838   21.8962  -30.3188 H   0  0  0  0  0  0  0  0  0  0  0  0
   -0.8077   23.5807  -30.3188 H   0  0  0  0  0  0  0  0  0  0  0  0
   -2.8359   21.9809  -27.2863 H   0  0  0  0  0  0  0  0  0  0  0  0
   -1.0024   22.2482  -27.2172 H   0  0  0  0  0  0  0  0  0  0  0  0
   -3.2345   24.1532  -27.2054 H   0  0  0  0  0  0  0  0  0  0  0  0
   -1.5600   24.0989  -26.3765 H   0  0  0  0  0  0  0  0  0  0  0  0
   -3.0560   26.0520  -29.3310 H   0  0  0  0  0  0  0  0  0  0  0  0
   -4.9032   19.5181  -32.0304 H   0  0  0  0  0  0  0  0  0  0  0  0
  1  2  3  0
  2  3  1  0
  3  4  2  0
  4  5  1  0
  5  6  2  0
  6  7  1  0
  7  8  2  0
  8  9  1  0
  9 10  1  0
  9 11  2  0
  8 12  1  0
 12 13  1  0
 13 14  2  0
 13 15  1  0
 15 16  2  0
 15 17  1  0
 17 18  1  0
 17 19  1  0
 19 20  1  0
 20 21  1  0
 21 22  2  0
 21 23  1  0
 12 24  1  0
 24 25  2  0
 25  3  1  0
 24  6  1  0
  1 26  1  0
  4 27  1  0
  5 28  1  0
  7 29  1  0
 10 30  1  0
 10 31  1  0
 18 32  1  0
 18 33  1  0
 18 34  1  0
 19 35  1  0
 19 36  1  0
 20 37  1  0
 20 38  1  0
 23 39  1  0
 25 40  1  0
M  END
>  <smiles>  (82) 
C#Cc1ccc2cc(C(N)=O)n(C(=O)C(=O)N(C)CCC(=O)O)c2c1

>  <score_type>  (82) 
oracle

>  <origin>  (82) 
adg

>  <m_score__min__energy>  (82) 
-10.140000000000001

>  <m_primary>  (82) 
energy

$$$$
89:0
     RDKit          3D

 36 37  0  0  0  0  0  0  0  0999 V2000
   -6.7560   17.0010  -33.8100 C   0  0  0  0  0  0  0  0  0  0  0  0
   -6.8600   18.1110  -33.3240 C   0  0  0  0  0  0  0  0  0  0  0  0
   -6.9900   19.4230  -32.7250 C   0  0  0  0  0  0  0  0  0  0  0  0
   -8.2350   19.9290  -32.4550 C   0  0  0  0  0  0  0  0  0  0  0  0
   -8.3300   21.1800  -31.8840 C   0  0  0  0  0  0  0  0  0  0  0  0
   -7.1910   21.9030  -31.5940 C   0  0  0  0  0  0  0  0  0  0  0  0
   -7.0120   23.1300  -31.0430 C   0  0  0  0  0  0  0  0  0  0  0  0
   -5.6540   23.4080  -30.9620 C   0  0  0  0  0  0  0  0  0  0  0  0
   -5.1450   24.6490  -30.4150 C   0  0  0  0  0  0  0  0  0  0  0  0
   -5.2710   24.9030  -28.9980 N   0  0  0  0  0  0  0  0  0  0  0  0
   -4.5860   25.5650  -31.0580 O   0  0  0  0  0  0  0  0  0  0  0  0
   -5.0060   22.3430  -31.4660 N   0  0  0  0  0  0  0  0  0  0  0  0
   -3.6030   22.1680  -31.5910 C   0  0  0  0  0  0  0  0  0  0  0  0
   -3.1710   21.2780  -32.4090 O   0  0  0  0  0  0  0  0  0  0  0  0
   -2.6380   22.8610  -30.9210 O   0  0  0  0  0  0  0  0  0  0  0  0
   -1.4290   22.3050  -30.4480 C   0  0  0  0  0  0  0  0  0  0  0  0
   -0.9790   22.8070  -29.1220 C   0  0  0  0  0  0  0  0  0  0  0  0
   -2.2090   23.8890  -28.3270 P   0  0  0  0  0  0  0  0  0  0  0  0
   -1.7680   24.2990  -26.9360 O   0  0  0  0  0  0  0  0  0  0  0  0
   -2.4110   25.2280  -29.3450 O   0  0  0  0  0  0  0  0  0  0  0  0
   -3.6530   23.0050  -28.2040 O   0  0  0  0  0  0  0  0  0  0  0  0
   -5.9130   21.4200  -31.8550 C   0  0  0  0  0  0  0  0  0  0  0  0
   -5.8560   20.1640  -32.4260 C   0  0  0  0  0  0  0  0  0  0  0  0
   -6.6619   15.9970  -34.2496 H   0  0  0  0  0  0  0  0  0  0  0  0
   -9.1397   19.3487  -32.6892 H   0  0  0  0  0  0  0  0  0  0  0  0
   -9.3194   21.6044  -31.6582 H   0  0  0  0  0  0  0  0  0  0  0  0
   -7.8183   23.8009  -30.7116 H   0  0  0  0  0  0  0  0  0  0  0  0
   -4.3970   25.0170  -28.4380 H   0  0  0  0  0  0  0  0  0  0  0  0
   -6.2380   24.9670  -28.5700 H   0  0  0  0  0  0  0  0  0  0  0  0
   -1.5615   21.2156  -30.3727 H   0  0  0  0  0  0  0  0  0  0  0  0
   -0.6526   22.6035  -31.1678 H   0  0  0  0  0  0  0  0  0  0  0  0
   -0.7909   21.9453  -28.4646 H   0  0  0  0  0  0  0  0  0  0  0  0
   -0.0677   23.4016  -29.2832 H   0  0  0  0  0  0  0  0  0  0  0  0
   -2.6900   24.9060  -30.2350 H   0  0  0  0  0  0  0  0  0  0  0  0
   -3.7990   22.5690  -29.0980 H   0  0  0  0  0  0  0  0  0  0  0  0
   -4.8699   19.7329  -32.6533 H   0  0  0  0  0  0  0  0  0  0  0  0
  1  2  3  0
  2  3  1  0
  3  4  2  0
  4  5  1  0
  5  6  2  0
  6  7  1  0
  7  8  2  0
  8  9  1  0
  9 10  1  0
  9 11  2  0
  8 12  1  0
 12 13  1  0
 13 14  2  0
 13 15  1  0
 15 16  1  0
 16 17  1  0
 17 18  1  0
 18 19  2  0
 18 20  1  0
 18 21  1  0
 12 22  1  0
 22 23  2  0
 23  3  1  0
 22  6  1  0
  1 24  1  0
  4 25  1  0
  5 26  1  0
  7 27  1  0
 10 28  1  0
 10 29  1  0
 16 30  1  0
 16 31  1  0
 17 32  1  0
 17 33  1  0
 20 34  1  0
 21 35  1  0
 23 36  1  0
M  END
>  <smiles>  (83) 
C#Cc1ccc2cc(C(N)=O)n(C(=O)OCCP(=O)(O)O)c2c1

>  <score_type>  (83) 
oracle

>  <origin>  (83) 
adg

>  <m_score__min__energy>  (83) 
-8.6400000000000006

>  <m_primary>  (83) 
energy

$$$$
90:0
     RDKit          3D

 52 54  0  0  1  0  0  0  0  0999 V2000
    0.1430   20.2620  -36.1560 C   0  0  0  0  0  0  0  0  0  0  0  0
    0.2950   19.5110  -34.8350 C   0  0  2  0  0  0  0  0  0  0  0  0
   -1.0010   18.9160  -34.3890 C   0  0  0  0  0  0  0  0  0  0  0  0
   -1.8940   19.9160  -33.8300 N   0  0  0  0  0  0  0  0  0  0  0  0
   -3.2620   19.5690  -33.6490 C   0  0  0  0  0  0  0  0  0  0  0  0
   -3.6100   18.2610  -33.9100 C   0  0  0  0  0  0  0  0  0  0  0  0
   -4.9260   17.8850  -33.7480 C   0  0  0  0  0  0  0  0  0  0  0  0
   -5.8520   18.8160  -33.3330 C   0  0  0  0  0  0  0  0  0  0  0  0
   -7.1910   18.6700  -33.1090 C   0  0  0  0  0  0  0  0  0  0  0  0
   -7.6910   19.9190  -32.6980 C   0  0  0  0  0  0  0  0  0  0  0  0
   -9.0990   20.0740  -32.4290 C   0  0  0  0  0  0  0  0  0  0  0  0
   -9.7830   21.1920  -31.9550 N   0  0  0  0  0  0  0  0  0  0  0  0
   -9.8340   19.0430  -32.6660 O   0  0  0  0  0  0  0  0  0  0  0  0
   -6.6710   20.8100  -32.6680 N   0  0  0  0  0  0  0  0  0  0  0  0
   -6.6100   22.1280  -32.2010 C   0  0  0  0  0  0  0  0  0  0  0  0
   -7.6540   22.8470  -32.3880 O   0  0  0  0  0  0  0  0  0  0  0  0
   -5.5340   22.8170  -31.5390 C   0  0  0  0  0  0  0  0  0  0  0  0
   -5.8600   23.8430  -30.7240 C   0  0  0  0  0  0  0  0  0  0  0  0
   -4.7730   24.5720  -30.0290 C   0  0  0  0  0  0  0  0  0  0  0  0
   -4.6070   24.4710  -28.7820 O   0  0  0  0  0  0  0  0  0  0  0  0
   -3.9110   25.3840  -30.7190 O   0  0  0  0  0  0  0  0  0  0  0  0
   -5.5580   20.1280  -33.0600 C   0  0  0  0  0  0  0  0  0  0  0  0
   -4.2180   20.4840  -33.2310 C   0  0  0  0  0  0  0  0  0  0  0  0
   -1.3260   21.1940  -33.4960 C   0  0  0  0  0  0  0  0  0  0  0  0
    0.0710   20.9960  -32.9540 C   0  0  1  0  0  0  0  0  0  0  0  0
    0.1130   20.4230  -31.5750 C   0  0  0  0  0  0  0  0  0  0  0  0
    0.9400   20.3000  -33.8370 N   0  0  0  0  0  0  0  0  0  0  0  0
    2.0210   21.0930  -34.3210 C   0  0  0  0  0  0  0  0  0  0  0  0
   -0.0715   21.3216  -35.9528 H   0  0  0  0  0  0  0  0  0  0  0  0
    1.0758   20.1808  -36.7333 H   0  0  0  0  0  0  0  0  0  0  0  0
   -0.6848   19.8245  -36.7333 H   0  0  0  0  0  0  0  0  0  0  0  0
    0.9713   18.6613  -35.0099 H   0  0  0  0  0  0  0  0  0  0  0  0
   -1.4918   18.4448  -35.2534 H   0  0  0  0  0  0  0  0  0  0  0  0
   -0.7837   18.1770  -33.6038 H   0  0  0  0  0  0  0  0  0  0  0  0
   -2.8540   17.5334  -34.2403 H   0  0  0  0  0  0  0  0  0  0  0  0
   -5.2345   16.8484  -33.9488 H   0  0  0  0  0  0  0  0  0  0  0  0
   -7.7729   17.7441  -33.2282 H   0  0  0  0  0  0  0  0  0  0  0  0
  -10.4600   21.1880  -31.1730 H   0  0  0  0  0  0  0  0  0  0  0  0
   -9.6130   22.1180  -32.4150 H   0  0  0  0  0  0  0  0  0  0  0  0
   -4.4860   22.5192  -31.6911 H   0  0  0  0  0  0  0  0  0  0  0  0
   -6.9114   24.1319  -30.5788 H   0  0  0  0  0  0  0  0  0  0  0  0
   -4.1610   25.6760  -31.6550 H   0  0  0  0  0  0  0  0  0  0  0  0
   -3.9114   21.5208  -33.0282 H   0  0  0  0  0  0  0  0  0  0  0  0
   -1.2843   21.8239  -34.3968 H   0  0  0  0  0  0  0  0  0  0  0  0
   -1.9494   21.6856  -32.7346 H   0  0  0  0  0  0  0  0  0  0  0  0
    0.4638   22.0205  -32.8755 H   0  0  0  0  0  0  0  0  0  0  0  0
    0.0533   21.2371  -30.8377 H   0  0  0  0  0  0  0  0  0  0  0  0
   -0.7374   19.7393  -31.4360 H   0  0  0  0  0  0  0  0  0  0  0  0
    1.0540   19.8706  -31.4360 H   0  0  0  0  0  0  0  0  0  0  0  0
    2.5830   21.5053  -33.4700 H   0  0  0  0  0  0  0  0  0  0  0  0
    2.6884   20.4687  -34.9332 H   0  0  0  0  0  0  0  0  0  0  0  0
    1.6259   21.9170  -34.9332 H   0  0  0  0  0  0  0  0  0  0  0  0
  1  2  1  0
  2  3  1  0
  3  4  1  0
  4  5  1  0
  5  6  2  0
  6  7  1  0
  7  8  2  0
  8  9  1  0
  9 10  2  0
 10 11  1  0
 11 12  1  0
 11 13  2  0
 10 14  1  0
 14 15  1  0
 15 16  2  0
 15 17  1  0
 17 18  2  0
 18 19  1  0
 19 20  2  0
 19 21  1  0
 14 22  1  0
 22 23  2  0
  4 24  1  0
 24 25  1  0
 25 26  1  0
 25 27  1  0
 27 28  1  0
 27  2  1  0
 23  5  1  0
 22  8  1  0
  1 29  1  0
  1 30  1  0
  1 31  1  0
  2 32  1  6
  3 33  1  0
  3 34  1  0
  6 35  1  0
  7 36  1  0
  9 37  1  0
 12 38  1  0
 12 39  1  0
 17 40  1  0
 18 41  1  0
 21 42  1  0
 23 43  1  0
 24 44  1  0
 24 45  1  0
 25 46  1  1
 26 47  1  0
 26 48  1  0
 26 49  1  0
 28 50  1  0
 28 51  1  0
 28 52  1  0
M  END
>  <smiles>  (84) 
CC1CN(c2ccc3cc(C(N)=O)n(C(=O)/C=C/C(=O)O)c3c2)CC(C)N1C

>  <score_type>  (84) 
oracle

>  <origin>  (84) 
adg

>  <m_score__min__energy>  (84) 
-10.69

>  <m_primary>  (84) 
energy

$$$$
91:0
     RDKit          3D

 46 47  0  0  0  0  0  0  0  0999 V2000
    0.5910   24.2940  -27.6260 C   0  0  0  0  0  0  0  0  0  0  0  0
   -0.7150   23.6650  -27.6560 N   0  0  0  0  0  0  0  0  0  0  0  0
   -1.8340   24.5850  -27.8790 C   0  0  0  0  0  0  0  0  0  0  0  0
   -3.0560   24.2260  -27.0970 C   0  0  0  0  0  0  0  0  0  0  0  0
   -4.1690   24.1440  -27.9440 O   0  0  0  0  0  0  0  0  0  0  0  0
   -0.9780   22.2980  -27.4820 C   0  0  0  0  0  0  0  0  0  0  0  0
   -1.1610   21.9190  -26.2570 O   0  0  0  0  0  0  0  0  0  0  0  0
   -1.0750   21.2360  -28.4710 C   0  0  0  0  0  0  0  0  0  0  0  0
   -1.8830   21.4940  -29.6690 C   0  0  0  0  0  0  0  0  0  0  0  0
   -1.3410   21.2900  -30.8060 O   0  0  0  0  0  0  0  0  0  0  0  0
   -3.2530   21.9640  -29.5960 N   0  0  0  0  0  0  0  0  0  0  0  0
   -3.9950   22.2080  -30.7580 C   0  0  0  0  0  0  0  0  0  0  0  0
   -3.3420   22.0210  -31.8510 O   0  0  0  0  0  0  0  0  0  0  0  0
   -5.3330   22.6330  -30.8590 N   0  0  0  0  0  0  0  0  0  0  0  0
   -5.8910   23.8530  -30.7330 C   0  0  0  0  0  0  0  0  0  0  0  0
   -5.3790   25.0860  -30.2010 C   0  0  0  0  0  0  0  0  0  0  0  0
   -6.1430   25.7250  -29.1360 N   0  0  0  0  0  0  0  0  0  0  0  0
   -4.3570   25.7040  -30.5230 O   0  0  0  0  0  0  0  0  0  0  0  0
   -7.2500   23.7460  -31.1040 C   0  0  0  0  0  0  0  0  0  0  0  0
   -7.5000   22.4500  -31.4480 C   0  0  0  0  0  0  0  0  0  0  0  0
   -8.6740   21.8680  -31.8730 C   0  0  0  0  0  0  0  0  0  0  0  0
   -8.6690   20.5210  -32.1610 C   0  0  0  0  0  0  0  0  0  0  0  0
   -7.5200   19.8100  -32.0210 C   0  0  0  0  0  0  0  0  0  0  0  0
   -7.5490   18.3570  -32.3360 C   0  0  0  0  0  0  0  0  0  0  0  0
   -7.0430   18.1580  -33.6030 F   0  0  0  0  0  0  0  0  0  0  0  0
   -8.8160   17.8420  -32.2420 F   0  0  0  0  0  0  0  0  0  0  0  0
   -6.7140   17.6930  -31.4530 F   0  0  0  0  0  0  0  0  0  0  0  0
   -6.3470   20.4210  -31.5910 C   0  0  0  0  0  0  0  0  0  0  0  0
   -6.3140   21.7780  -31.2920 C   0  0  0  0  0  0  0  0  0  0  0  0
    0.9019   24.4438  -26.5815 H   0  0  0  0  0  0  0  0  0  0  0  0
    1.3207   23.6485  -28.1368 H   0  0  0  0  0  0  0  0  0  0  0  0
    0.5412   25.2669  -28.1368 H   0  0  0  0  0  0  0  0  0  0  0  0
   -1.5175   25.5975  -27.5879 H   0  0  0  0  0  0  0  0  0  0  0  0
   -2.0988   24.5254  -28.9450 H   0  0  0  0  0  0  0  0  0  0  0  0
   -2.9005   23.2535  -26.6071 H   0  0  0  0  0  0  0  0  0  0  0  0
   -3.2383   25.0041  -26.3411 H   0  0  0  0  0  0  0  0  0  0  0  0
   -4.2650   24.9900  -28.4440 H   0  0  0  0  0  0  0  0  0  0  0  0
   -0.0533   21.0048  -28.8068 H   0  0  0  0  0  0  0  0  0  0  0  0
   -1.5977   20.4187  -27.9525 H   0  0  0  0  0  0  0  0  0  0  0  0
   -3.6190   22.1040  -28.6630 H   0  0  0  0  0  0  0  0  0  0  0  0
   -6.0720   25.2200  -28.2200 H   0  0  0  0  0  0  0  0  0  0  0  0
   -6.6880   26.5790  -29.2870 H   0  0  0  0  0  0  0  0  0  0  0  0
   -7.9815   24.5675  -31.1138 H   0  0  0  0  0  0  0  0  0  0  0  0
   -9.5924   22.4640  -31.9797 H   0  0  0  0  0  0  0  0  0  0  0  0
   -9.5893   20.0244  -32.5021 H   0  0  0  0  0  0  0  0  0  0  0  0
   -5.4311   19.8210  -31.4859 H   0  0  0  0  0  0  0  0  0  0  0  0
  1  2  1  0
  2  3  1  0
  3  4  1  0
  4  5  1  0
  2  6  1  0
  6  7  2  0
  6  8  1  0
  8  9  1  0
  9 10  2  0
  9 11  1  0
 11 12  1  0
 12 13  2  0
 12 14  1  0
 14 15  1  0
 15 16  1  0
 16 17  1  0
 16 18  2  0
 15 19  2  0
 19 20  1  0
 20 21  2  0
 21 22  1  0
 22 23  2  0
 23 24  1  0
 24 25  1  0
 24 26  1  0
 24 27  1  0
 23 28  1  0
 28 29  2  0
 29 14  1  0
 29 20  1  0
  1 30  1  0
  1 31  1  0
  1 32  1  0
  3 33  1  0
  3 34  1  0
  4 35  1  0
  4 36  1  0
  5 37  1  0
  8 38  1  0
  8 39  1  0
 11 40  1  0
 17 41  1  0
 17 42  1  0
 19 43  1  0
 21 44  1  0
 22 45  1  0
 28 46  1  0
M  END
>  <smiles>  (85) 
CN(CCO)C(=O)CC(=O)NC(=O)n1c(C(N)=O)cc2ccc(C(F)(F)F)cc21

>  <score_type>  (85) 
oracle

>  <origin>  (85) 
adg

>  <m_score__min__energy>  (85) 
-9.2100000000000009

>  <m_primary>  (85) 
energy

$$$$
92:0
     RDKit          3D

 43 45  0  0  0  0  0  0  0  0999 V2000
   -6.1020   25.7630  -29.2380 N   0  0  0  0  0  0  0  0  0  0  0  0
   -5.4520   25.0900  -30.3280 C   0  0  0  0  0  0  0  0  0  0  0  0
   -4.4040   25.5490  -30.8680 O   0  0  0  0  0  0  0  0  0  0  0  0
   -6.0750   23.8400  -30.7630 C   0  0  0  0  0  0  0  0  0  0  0  0
   -7.4710   23.7850  -30.8620 C   0  0  0  0  0  0  0  0  0  0  0  0
   -7.7610   22.5260  -31.3000 C   0  0  0  0  0  0  0  0  0  0  0  0
   -8.9910   21.9600  -31.5610 C   0  0  0  0  0  0  0  0  0  0  0  0
   -9.0840   20.6690  -31.9970 C   0  0  0  0  0  0  0  0  0  0  0  0
   -7.9180   19.9610  -32.1660 C   0  0  0  0  0  0  0  0  0  0  0  0
   -8.0040   18.5520  -32.6410 C   0  0  0  0  0  0  0  0  0  0  0  0
   -8.9570   17.8380  -31.9380 F   0  0  0  0  0  0  0  0  0  0  0  0
   -6.7400   18.0140  -32.5220 F   0  0  0  0  0  0  0  0  0  0  0  0
   -6.6770   20.5460  -31.8990 C   0  0  0  0  0  0  0  0  0  0  0  0
   -6.5680   21.8550  -31.4560 C   0  0  0  0  0  0  0  0  0  0  0  0
   -5.5260   22.6730  -31.1190 N   0  0  0  0  0  0  0  0  0  0  0  0
   -4.1920   22.2450  -31.1930 C   0  0  0  0  0  0  0  0  0  0  0  0
   -3.6450   22.3170  -32.3500 O   0  0  0  0  0  0  0  0  0  0  0  0
   -3.3450   21.7300  -30.1520 C   0  0  0  0  0  0  0  0  0  0  0  0
   -3.3220   20.5430  -29.7300 O   0  0  0  0  0  0  0  0  0  0  0  0
   -2.3910   22.5780  -29.4600 N   0  0  0  0  0  0  0  0  0  0  0  0
   -1.6090   21.8980  -28.4410 C   0  0  0  0  0  0  0  0  0  0  0  0
   -0.2180   22.4950  -28.4720 C   0  0  0  0  0  0  0  0  0  0  0  0
   -0.3810   23.8990  -27.9410 C   0  0  0  0  0  0  0  0  0  0  0  0
    0.8480   24.5260  -27.7490 O   0  0  0  0  0  0  0  0  0  0  0  0
   -1.2230   24.6830  -28.8750 C   0  0  0  0  0  0  0  0  0  0  0  0
   -2.1960   23.9530  -29.7110 C   0  0  0  0  0  0  0  0  0  0  0  0
   -6.4360   25.1720  -28.4310 H   0  0  0  0  0  0  0  0  0  0  0  0
   -6.2330   26.7990  -29.2570 H   0  0  0  0  0  0  0  0  0  0  0  0
   -8.1853   24.5899  -30.6339 H   0  0  0  0  0  0  0  0  0  0  0  0
   -9.9057   22.5537  -31.4167 H   0  0  0  0  0  0  0  0  0  0  0  0
  -10.0615   20.2101  -32.2064 H   0  0  0  0  0  0  0  0  0  0  0  0
   -8.3316   18.5066  -33.6901 H   0  0  0  0  0  0  0  0  0  0  0  0
   -5.7627   19.9520  -32.0442 H   0  0  0  0  0  0  0  0  0  0  0  0
   -2.0636   22.0527  -27.4513 H   0  0  0  0  0  0  0  0  0  0  0  0
   -1.5738   20.8155  -28.6332 H   0  0  0  0  0  0  0  0  0  0  0  0
    0.4648   21.9169  -27.8320 H   0  0  0  0  0  0  0  0  0  0  0  0
    0.2127   22.4844  -29.4841 H   0  0  0  0  0  0  0  0  0  0  0  0
   -0.8722   23.8416  -26.9585 H   0  0  0  0  0  0  0  0  0  0  0  0
    1.1760   24.9160  -28.5980 H   0  0  0  0  0  0  0  0  0  0  0  0
   -1.7889   25.4097  -28.2736 H   0  0  0  0  0  0  0  0  0  0  0  0
   -0.5094   25.1108  -29.5946 H   0  0  0  0  0  0  0  0  0  0  0  0
   -3.1700   24.4487  -29.5863 H   0  0  0  0  0  0  0  0  0  0  0  0
   -1.7660   23.9873  -30.7229 H   0  0  0  0  0  0  0  0  0  0  0  0
  1  2  1  0
  2  3  2  0
  2  4  1  0
  4  5  2  0
  5  6  1  0
  6  7  2  0
  7  8  1  0
  8  9  2  0
  9 10  1  0
 10 11  1  0
 10 12  1  0
  9 13  1  0
 13 14  2  0
 14 15  1  0
 15 16  1  0
 16 17  2  0
 16 18  1  0
 18 19  2  0
 18 20  1  0
 20 21  1  0
 21 22  1  0
 22 23  1  0
 23 24  1  0
 23 25  1  0
 25 26  1  0
 15  4  1  0
 26 20  1  0
 14  6  1  0
  1 27  1  0
  1 28  1  0
  5 29  1  0
  7 30  1  0
  8 31  1  0
 10 32  1  0
 13 33  1  0
 21 34  1  0
 21 35  1  0
 22 36  1  0
 22 37  1  0
 23 38  1  0
 24 39  1  0
 25 40  1  0
 25 41  1  0
 26 42  1  0
 26 43  1  0
M  END
>  <smiles>  (86) 
NC(=O)c1cc2ccc(C(F)F)cc2n1C(=O)C(=O)N1CCC(O)CC1

>  <score_type>  (86) 
oracle

>  <origin>  (86) 
adg

>  <m_score__min__energy>  (86) 
-9.1300000000000008

>  <m_primary>  (86) 
energy

$$$$
95:0
     RDKit          3D

 48 49  0  0  0  0  0  0  0  0999 V2000
   -3.9140   18.4180  -34.1860 N   0  0  0  0  0  0  0  0  0  0  0  0
   -5.2540   18.9200  -34.0250 C   0  0  0  0  0  0  0  0  0  0  0  0
   -6.1440   18.2170  -34.5570 O   0  0  0  0  0  0  0  0  0  0  0  0
   -5.4720   20.1520  -33.2900 C   0  0  0  0  0  0  0  0  0  0  0  0
   -6.7460   20.6500  -33.0390 C   0  0  0  0  0  0  0  0  0  0  0  0
   -6.6430   21.8090  -32.3370 C   0  0  0  0  0  0  0  0  0  0  0  0
   -7.5960   22.6840  -31.8460 C   0  0  0  0  0  0  0  0  0  0  0  0
   -7.2130   23.7970  -31.1610 C   0  0  0  0  0  0  0  0  0  0  0  0
   -5.8910   24.0420  -30.9650 C   0  0  0  0  0  0  0  0  0  0  0  0
   -5.4880   25.2660  -30.2120 C   0  0  0  0  0  0  0  0  0  0  0  0
   -4.2000   25.6450  -30.5190 F   0  0  0  0  0  0  0  0  0  0  0  0
   -4.9440   23.1630  -31.4590 C   0  0  0  0  0  0  0  0  0  0  0  0
   -5.2810   22.0180  -32.1610 C   0  0  0  0  0  0  0  0  0  0  0  0
   -4.5950   21.0100  -32.7420 N   0  0  0  0  0  0  0  0  0  0  0  0
   -3.1810   20.9140  -32.7460 C   0  0  0  0  0  0  0  0  0  0  0  0
   -2.4000   21.6990  -33.3300 O   0  0  0  0  0  0  0  0  0  0  0  0
   -2.5560   19.8690  -32.0500 O   0  0  0  0  0  0  0  0  0  0  0  0
   -1.7400   20.1600  -30.9030 C   0  0  0  0  0  0  0  0  0  0  0  0
   -0.4380   19.4500  -30.9610 C   0  0  0  0  0  0  0  0  0  0  0  0
    0.0600   19.1180  -29.8310 O   0  0  0  0  0  0  0  0  0  0  0  0
    0.2170   19.1530  -32.1490 O   0  0  0  0  0  0  0  0  0  0  0  0
    0.0430   17.9310  -32.8410 C   0  0  0  0  0  0  0  0  0  0  0  0
   -0.4900   18.1570  -34.2400 C   0  0  1  0  0  0  0  0  0  0  0  0
   -1.4750   19.1350  -34.1680 O   0  0  0  0  0  0  0  0  0  0  0  0
    0.6090   18.7260  -35.1190 C   0  0  0  0  0  0  0  0  0  0  0  0
    1.3270   19.7060  -34.4750 O   0  0  0  0  0  0  0  0  0  0  0  0
    0.4990   21.1800  -34.4420 P   0  0  0  0  0  0  0  0  0  0  0  0
    1.4080   22.3010  -34.9270 O   0  0  0  0  0  0  0  0  0  0  0  0
   -0.0160   21.5660  -32.8790 O   0  0  0  0  0  0  0  0  0  0  0  0
   -0.8250   21.1480  -35.5070 O   0  0  0  0  0  0  0  0  0  0  0  0
   -3.5470   18.1330  -35.1350 H   0  0  0  0  0  0  0  0  0  0  0  0
   -3.3020   18.3390  -33.3390 H   0  0  0  0  0  0  0  0  0  0  0  0
   -7.6880   20.1801  -33.3582 H   0  0  0  0  0  0  0  0  0  0  0  0
   -8.6646   22.4802  -32.0092 H   0  0  0  0  0  0  0  0  0  0  0  0
   -7.9691   24.4932  -30.7689 H   0  0  0  0  0  0  0  0  0  0  0  0
   -6.1735   26.0867  -30.4702 H   0  0  0  0  0  0  0  0  0  0  0  0
   -5.5350   25.0411  -29.1363 H   0  0  0  0  0  0  0  0  0  0  0  0
   -3.8799   23.3825  -31.2872 H   0  0  0  0  0  0  0  0  0  0  0  0
   -1.5538   21.2434  -30.8637 H   0  0  0  0  0  0  0  0  0  0  0  0
   -2.2766   19.8193  -30.0052 H   0  0  0  0  0  0  0  0  0  0  0  0
    1.0129   17.4162  -32.9068 H   0  0  0  0  0  0  0  0  0  0  0  0
   -0.6868   17.3217  -32.2877 H   0  0  0  0  0  0  0  0  0  0  0  0
   -0.8659   17.2062  -34.6459 H   0  0  0  0  0  0  0  0  0  0  0  0
   -1.1290   19.9190  -33.6760 H   0  0  0  0  0  0  0  0  0  0  0  0
    1.2933   17.9130  -35.4033 H   0  0  0  0  0  0  0  0  0  0  0  0
    0.1372   19.1764  -36.0047 H   0  0  0  0  0  0  0  0  0  0  0  0
   -0.8050   20.9620  -32.7080 H   0  0  0  0  0  0  0  0  0  0  0  0
   -1.6700   21.1230  -35.0130 H   0  0  0  0  0  0  0  0  0  0  0  0
  1  2  1  0
  2  3  2  0
  2  4  1  0
  4  5  2  0
  5  6  1  0
  6  7  2  0
  7  8  1  0
  8  9  2  0
  9 10  1  0
 10 11  1  0
  9 12  1  0
 12 13  2  0
 13 14  1  0
 14 15  1  0
 15 16  2  0
 15 17  1  0
 17 18  1  0
 18 19  1  0
 19 20  2  0
 19 21  1  0
 21 22  1  0
 22 23  1  0
 23 24  1  0
 23 25  1  0
 25 26  1  0
 26 27  1  0
 27 28  2  0
 27 29  1  0
 27 30  1  0
 14  4  1  0
 13  6  1  0
  1 31  1  0
  1 32  1  0
  5 33  1  0
  7 34  1  0
  8 35  1  0
 10 36  1  0
 10 37  1  0
 12 38  1  0
 18 39  1  0
 18 40  1  0
 22 41  1  0
 22 42  1  0
 23 43  1  6
 24 44  1  0
 25 45  1  0
 25 46  1  0
 29 47  1  0
 30 48  1  0
M  END
>  <smiles>  (87) 
NC(=O)c1cc2ccc(CF)cc2n1C(=O)OCC(=O)OC[C@@H](O)COP(=O)(O)O

>  <score_type>  (87) 
oracle

>  <origin>  (87) 
adg

>  <m_score__min__energy>  (87) 
-7.7199999999999998

>  <m_primary>  (87) 
energy

$$$$
96:0
     RDKit          3D

 48 50  0  0  1  0  0  0  0  0999 V2000
   -6.0400   25.8030  -29.3630 N   0  0  0  0  0  0  0  0  0  0  0  0
   -5.6940   25.0370  -30.4890 C   0  0  0  0  0  0  0  0  0  0  0  0
   -4.7730   25.5310  -31.2240 O   0  0  0  0  0  0  0  0  0  0  0  0
   -6.2480   23.7750  -30.9100 C   0  0  0  0  0  0  0  0  0  0  0  0
   -7.6070   23.4940  -30.8150 C   0  0  0  0  0  0  0  0  0  0  0  0
   -7.8580   22.2230  -31.2860 C   0  0  0  0  0  0  0  0  0  0  0  0
   -9.0270   21.5000  -31.3980 C   0  0  0  0  0  0  0  0  0  0  0  0
   -9.0070   20.2270  -31.9100 C   0  0  0  0  0  0  0  0  0  0  0  0
   -7.7970   19.7000  -32.3060 C   0  0  0  0  0  0  0  0  0  0  0  0
   -7.7440   18.3230  -32.8650 C   0  0  0  0  0  0  0  0  0  0  0  0
   -6.7870   17.4120  -32.1010 C   0  0  0  0  0  0  0  0  0  0  0  0
   -6.5520   17.7850  -33.5360 C   0  0  0  0  0  0  0  0  0  0  0  0
   -6.6200   20.4490  -32.1860 C   0  0  0  0  0  0  0  0  0  0  0  0
   -6.6350   21.7290  -31.6710 C   0  0  0  0  0  0  0  0  0  0  0  0
   -5.6760   22.6760  -31.4370 N   0  0  0  0  0  0  0  0  0  0  0  0
   -4.3050   22.4700  -31.7300 C   0  0  0  0  0  0  0  0  0  0  0  0
   -3.8460   21.5240  -32.4140 O   0  0  0  0  0  0  0  0  0  0  0  0
   -3.3460   23.3590  -31.2440 O   0  0  0  0  0  0  0  0  0  0  0  0
   -2.6510   23.1810  -30.0420 C   0  0  1  0  0  0  0  0  0  0  0  0
   -1.2730   22.9150  -30.2190 O   0  0  0  0  0  0  0  0  0  0  0  0
   -0.7440   21.8260  -30.8540 C   0  0  0  0  0  0  0  0  0  0  0  0
    0.2030   21.2000  -30.2780 O   0  0  0  0  0  0  0  0  0  0  0  0
   -1.2600   21.4310  -32.1190 N   0  0  0  0  0  0  0  0  0  0  0  0
   -0.7330   20.2930  -32.8210 C   0  0  0  0  0  0  0  0  0  0  0  0
   -1.7030   19.7180  -33.8350 C   0  0  0  0  0  0  0  0  0  0  0  0
   -2.6520   20.6110  -34.2610 O   0  0  0  0  0  0  0  0  0  0  0  0
   -2.7300   24.3640  -29.1460 C   0  0  0  0  0  0  0  0  0  0  0  0
   -3.6430   24.5270  -28.2930 O   0  0  0  0  0  0  0  0  0  0  0  0
   -1.7290   25.3210  -29.2870 O   0  0  0  0  0  0  0  0  0  0  0  0
   -5.5220   25.6320  -28.4490 H   0  0  0  0  0  0  0  0  0  0  0  0
   -6.8010   26.5430  -29.4230 H   0  0  0  0  0  0  0  0  0  0  0  0
   -8.3685   24.1838  -30.4222 H   0  0  0  0  0  0  0  0  0  0  0  0
   -9.9796   21.9457  -31.0755 H   0  0  0  0  0  0  0  0  0  0  0  0
   -9.9339   19.6418  -32.0020 H   0  0  0  0  0  0  0  0  0  0  0  0
   -8.7974   18.3507  -33.1805 H   0  0  0  0  0  0  0  0  0  0  0  0
   -6.1440   17.8221  -31.3083 H   0  0  0  0  0  0  0  0  0  0  0  0
   -6.8749   16.4735  -31.5341 H   0  0  0  0  0  0  0  0  0  0  0  0
   -5.7218   18.4586  -33.7950 H   0  0  0  0  0  0  0  0  0  0  0  0
   -6.3849   17.2120  -34.4600 H   0  0  0  0  0  0  0  0  0  0  0  0
   -5.6651   20.0085  -32.5085 H   0  0  0  0  0  0  0  0  0  0  0  0
   -3.1529   22.3119  -29.5917 H   0  0  0  0  0  0  0  0  0  0  0  0
   -2.0490   22.0000  -32.5390 H   0  0  0  0  0  0  0  0  0  0  0  0
    0.1828   20.5997  -33.3475 H   0  0  0  0  0  0  0  0  0  0  0  0
   -0.5361   19.5094  -32.0745 H   0  0  0  0  0  0  0  0  0  0  0  0
   -1.1292   19.3780  -34.7098 H   0  0  0  0  0  0  0  0  0  0  0  0
   -2.2375   18.8958  -33.3366 H   0  0  0  0  0  0  0  0  0  0  0  0
   -2.4580   21.5590  -34.1200 H   0  0  0  0  0  0  0  0  0  0  0  0
   -0.8580   25.1350  -29.7630 H   0  0  0  0  0  0  0  0  0  0  0  0
  1  2  1  0
  2  3  2  0
  2  4  1  0
  4  5  2  0
  5  6  1  0
  6  7  2  0
  7  8  1  0
  8  9  2  0
  9 10  1  0
 10 11  1  0
 11 12  1  0
  9 13  1  0
 13 14  2  0
 14 15  1  0
 15 16  1  0
 16 17  2  0
 16 18  1  0
 18 19  1  0
 19 20  1  0
 20 21  1  0
 21 22  2  0
 21 23  1  0
 23 24  1  0
 24 25  1  0
 25 26  1  0
 19 27  1  0
 27 28  2  0
 27 29  1  0
 15  4  1  0
 14  6  1  0
 12 10  1  0
  1 30  1  0
  1 31  1  0
  5 32  1  0
  7 33  1  0
  8 34  1  0
 10 35  1  0
 11 36  1  0
 11 37  1  0
 12 38  1  0
 12 39  1  0
 13 40  1  0
 19 41  1  1
 23 42  1  0
 24 43  1  0
 24 44  1  0
 25 45  1  0
 25 46  1  0
 26 47  1  0
 29 48  1  0
M  END
>  <smiles>  (88) 
NC(=O)c1cc2ccc(C3CC3)cc2n1C(=O)OC(OC(=O)NCCO)C(=O)O

>  <score_type>  (88) 
oracle

>  <origin>  (88) 
adg

>  <m_score__min__energy>  (88) 
-9.5600000000000005

>  <m_primary>  (88) 
energy

$$$$
97:0
     RDKit          3D

 47 49  0  0  1  0  0  0  0  0999 V2000
   -2.4830   17.7970  -34.6430 N   0  0  0  0  0  0  0  0  0  0  0  0
   -3.9120   17.5530  -34.4980 C   0  0  0  0  0  0  0  0  0  0  0  0
   -4.2820   16.4740  -34.9870 O   0  0  0  0  0  0  0  0  0  0  0  0
   -4.7390   18.5370  -33.8280 C   0  0  0  0  0  0  0  0  0  0  0  0
   -6.1350   18.5290  -33.9850 C   0  0  0  0  0  0  0  0  0  0  0  0
   -6.6740   19.5520  -33.2540 C   0  0  0  0  0  0  0  0  0  0  0  0
   -7.9800   19.9510  -33.0850 C   0  0  0  0  0  0  0  0  0  0  0  0
   -8.2530   21.0220  -32.2860 C   0  0  0  0  0  0  0  0  0  0  0  0
   -7.2250   21.6870  -31.6600 C   0  0  0  0  0  0  0  0  0  0  0  0
   -7.5320   22.8530  -30.7910 C   0  0  0  0  0  0  0  0  0  0  0  0
   -6.3380   23.6620  -30.6140 N   0  0  0  0  0  0  0  0  0  0  0  0
   -5.7440   24.5070  -31.4570 C   0  0  0  0  0  0  0  0  0  0  0  0
   -4.6690   25.0190  -30.8410 N   0  0  0  0  0  0  0  0  0  0  0  0
   -4.5840   24.4940  -29.6040 C   0  0  0  0  0  0  0  0  0  0  0  0
   -5.6370   23.6480  -29.4810 N   0  0  0  0  0  0  0  0  0  0  0  0
   -5.9190   21.2620  -31.8510 C   0  0  0  0  0  0  0  0  0  0  0  0
   -5.6000   20.1820  -32.6510 C   0  0  0  0  0  0  0  0  0  0  0  0
   -4.4370   19.5590  -33.0070 N   0  0  0  0  0  0  0  0  0  0  0  0
   -3.1470   19.9170  -32.5980 C   0  0  0  0  0  0  0  0  0  0  0  0
   -2.2650   19.0430  -32.2650 O   0  0  0  0  0  0  0  0  0  0  0  0
   -2.6200   21.3100  -32.4920 C   0  0  0  0  0  0  0  0  0  0  0  0
   -2.1500   21.5890  -33.8040 O   0  0  0  0  0  0  0  0  0  0  0  0
   -0.6130   20.9070  -34.0340 P   0  0  1  0  0  0  0  0  0  0  0  0
    0.2470   21.9310  -34.7300 O   0  0  0  0  0  0  0  0  0  0  0  0
    0.0330   20.4590  -32.5380 O   0  0  0  0  0  0  0  0  0  0  0  0
   -0.8620   19.5400  -35.0380 O   0  0  0  0  0  0  0  0  0  0  0  0
    0.2190   18.7250  -35.3080 C   0  0  0  0  0  0  0  0  0  0  0  0
    1.3110   19.1340  -35.7520 O   0  0  0  0  0  0  0  0  0  0  0  0
    0.0800   17.3640  -35.0690 O   0  0  0  0  0  0  0  0  0  0  0  0
    0.3060   16.8090  -33.7950 C   0  0  0  0  0  0  0  0  0  0  0  0
   -0.1620   17.6710  -32.8130 O   0  0  0  0  0  0  0  0  0  0  0  0
   -2.0160   17.6750  -35.5720 H   0  0  0  0  0  0  0  0  0  0  0  0
   -1.9740   18.0950  -33.7770 H   0  0  0  0  0  0  0  0  0  0  0  0
   -6.7038   17.8143  -34.5979 H   0  0  0  0  0  0  0  0  0  0  0  0
   -8.7955   19.4117  -33.5892 H   0  0  0  0  0  0  0  0  0  0  0  0
   -9.2923   21.3528  -32.1428 H   0  0  0  0  0  0  0  0  0  0  0  0
   -8.3191   23.4613  -31.2605 H   0  0  0  0  0  0  0  0  0  0  0  0
   -7.8768   22.4944  -29.8099 H   0  0  0  0  0  0  0  0  0  0  0  0
   -6.0774   24.7426  -32.4784 H   0  0  0  0  0  0  0  0  0  0  0  0
   -3.8158   24.7080  -28.8463 H   0  0  0  0  0  0  0  0  0  0  0  0
   -5.1064   21.8053  -31.3465 H   0  0  0  0  0  0  0  0  0  0  0  0
   -3.4171   22.0107  -32.2028 H   0  0  0  0  0  0  0  0  0  0  0  0
   -1.8375   21.4143  -31.7259 H   0  0  0  0  0  0  0  0  0  0  0  0
   -0.4920   19.7090  -32.1830 H   0  0  0  0  0  0  0  0  0  0  0  0
   -0.2221   15.8472  -33.7175 H   0  0  0  0  0  0  0  0  0  0  0  0
    1.3859   16.6534  -33.6548 H   0  0  0  0  0  0  0  0  0  0  0  0
   -0.5780   18.4820  -33.1500 H   0  0  0  0  0  0  0  0  0  0  0  0
  1  2  1  0
  2  3  2  0
  2  4  1  0
  4  5  2  0
  5  6  1  0
  6  7  2  0
  7  8  1  0
  8  9  2  0
  9 10  1  0
 10 11  1  0
 11 12  1  0
 12 13  2  0
 13 14  1  0
 14 15  2  0
  9 16  1  0
 16 17  2  0
 17 18  1  0
 18 19  1  0
 19 20  2  0
 19 21  1  0
 21 22  1  0
 23 22  1  6
 23 24  2  0
 23 25  1  0
 23 26  1  0
 26 27  1  0
 27 28  2  0
 27 29  1  0
 29 30  1  0
 30 31  1  0
 18  4  1  0
 17  6  1  0
 15 11  1  0
  1 32  1  0
  1 33  1  0
  5 34  1  0
  7 35  1  0
  8 36  1  0
 10 37  1  0
 10 38  1  0
 12 39  1  0
 14 40  1  0
 16 41  1  0
 21 42  1  0
 21 43  1  0
 25 44  1  0
 30 45  1  0
 30 46  1  0
 31 47  1  0
M  END
>  <smiles>  (89) 
NC(=O)c1cc2ccc(Cn3cncn3)cc2n1C(=O)COP(=O)(O)OC(=O)OCO

>  <score_type>  (89) 
oracle

>  <origin>  (89) 
adg

>  <m_score__min__energy>  (89) 
-8.1600000000000001

>  <m_primary>  (89) 
energy

$$$$
98:0
     RDKit          3D

 39 40  0  0  0  0  0  0  0  0999 V2000
   -7.2060   17.6460  -33.2910 N   0  0  0  0  0  0  0  0  0  0  0  0
   -6.0420   17.6220  -34.1370 C   0  0  0  0  0  0  0  0  0  0  0  0
   -6.1130   18.0900  -35.2960 O   0  0  0  0  0  0  0  0  0  0  0  0
   -4.8220   17.0240  -33.5440 C   0  0  0  0  0  0  0  0  0  0  0  0
   -3.6260   17.7950  -33.7600 N   0  0  0  0  0  0  0  0  0  0  0  0
   -3.4030   19.0480  -33.1050 C   0  0  0  0  0  0  0  0  0  0  0  0
   -2.1040   19.4180  -32.8150 C   0  0  0  0  0  0  0  0  0  0  0  0
   -1.8890   20.6180  -32.1770 C   0  0  0  0  0  0  0  0  0  0  0  0
   -2.9680   21.4260  -31.8420 C   0  0  0  0  0  0  0  0  0  0  0  0
   -2.9860   22.6260  -31.2300 C   0  0  0  0  0  0  0  0  0  0  0  0
   -4.3320   23.0170  -31.1340 C   0  0  0  0  0  0  0  0  0  0  0  0
   -4.6740   24.2510  -30.4420 C   0  0  0  0  0  0  0  0  0  0  0  0
   -5.8790   24.3020  -29.6490 N   0  0  0  0  0  0  0  0  0  0  0  0
   -4.0170   25.3070  -30.4580 O   0  0  0  0  0  0  0  0  0  0  0  0
   -5.1220   22.0830  -31.6810 N   0  0  0  0  0  0  0  0  0  0  0  0
   -6.4800   22.0650  -32.0170 C   0  0  0  0  0  0  0  0  0  0  0  0
   -7.0820   23.2090  -31.9530 O   0  0  0  0  0  0  0  0  0  0  0  0
   -7.3370   20.9770  -32.4120 C   0  0  0  0  0  0  0  0  0  0  0  0
   -7.3730   20.4100  -33.5180 O   0  0  0  0  0  0  0  0  0  0  0  0
   -8.3260   20.4260  -31.4020 C   0  0  0  0  0  0  0  0  0  0  0  0
   -9.0160   19.2340  -31.9360 C   0  0  0  0  0  0  0  0  0  0  0  0
   -8.8540   18.1280  -31.3390 O   0  0  0  0  0  0  0  0  0  0  0  0
   -9.8370   19.2810  -33.0740 O   0  0  0  0  0  0  0  0  0  0  0  0
   -4.2690   21.0910  -32.1160 C   0  0  0  0  0  0  0  0  0  0  0  0
   -4.4620   19.8780  -32.7580 C   0  0  0  0  0  0  0  0  0  0  0  0
   -7.3150   17.0200  -32.4650 H   0  0  0  0  0  0  0  0  0  0  0  0
   -7.9800   18.3260  -33.5190 H   0  0  0  0  0  0  0  0  0  0  0  0
   -4.9779   16.9245  -32.4597 H   0  0  0  0  0  0  0  0  0  0  0  0
   -4.6693   16.0549  -34.0415 H   0  0  0  0  0  0  0  0  0  0  0  0
   -2.8610   17.4580  -34.4210 H   0  0  0  0  0  0  0  0  0  0  0  0
   -1.2600   18.7675  -33.0881 H   0  0  0  0  0  0  0  0  0  0  0  0
   -0.8649   20.9367  -31.9328 H   0  0  0  0  0  0  0  0  0  0  0  0
   -2.1129   23.1920  -30.8733 H   0  0  0  0  0  0  0  0  0  0  0  0
   -6.7910   24.3760  -30.1470 H   0  0  0  0  0  0  0  0  0  0  0  0
   -5.7440   24.2600  -28.6300 H   0  0  0  0  0  0  0  0  0  0  0  0
   -7.7868   20.1490  -30.4841 H   0  0  0  0  0  0  0  0  0  0  0  0
   -9.0773   21.2003  -31.1874 H   0  0  0  0  0  0  0  0  0  0  0  0
   -9.4370   19.6060  -33.9360 H   0  0  0  0  0  0  0  0  0  0  0  0
   -5.4872   19.5619  -33.0008 H   0  0  0  0  0  0  0  0  0  0  0  0
  1  2  1  0
  2  3  2  0
  2  4  1  0
  4  5  1  0
  5  6  1  0
  6  7  2  0
  7  8  1  0
  8  9  2  0
  9 10  1  0
 10 11  2  0
 11 12  1  0
 12 13  1  0
 12 14  2  0
 11 15  1  0
 15 16  1  0
 16 17  2  0
 16 18  1  0
 18 19  2  0
 18 20  1  0
 20 21  1  0
 21 22  2  0
 21 23  1  0
 15 24  1  0
 24 25  2  0
 25  6  1  0
 24  9  1  0
  1 26  1  0
  1 27  1  0
  4 28  1  0
  4 29  1  0
  5 30  1  0
  7 31  1  0
  8 32  1  0
 10 33  1  0
 13 34  1  0
 13 35  1  0
 20 36  1  0
 20 37  1  0
 23 38  1  0
 25 39  1  0
M  END
>  <smiles>  (90) 
NC(=O)CNc1ccc2cc(C(N)=O)n(C(=O)C(=O)CC(=O)O)c2c1

>  <score_type>  (90) 
oracle

>  <origin>  (90) 
adg

>  <m_score__min__energy>  (90) 
-8.9600000000000009

>  <m_primary>  (90) 
energy

$$$$
99:0
     RDKit          3D

 61 64  0  0  1  0  0  0  0  0999 V2000
   -1.9390   12.9020  -36.7160 C   0  0  0  0  0  0  0  0  0  0  0  0
   -2.8890   13.6270  -35.7930 C   0  0  0  0  0  0  0  0  0  0  0  0
   -3.1190   15.0020  -36.3950 C   0  0  0  0  0  0  0  0  0  0  0  0
   -2.2860   13.8060  -34.4270 C   0  0  0  0  0  0  0  0  0  0  0  0
   -4.1470   12.9960  -35.7090 O   0  0  0  0  0  0  0  0  0  0  0  0
   -4.8130   12.9130  -34.4810 C   0  0  0  0  0  0  0  0  0  0  0  0
   -4.8210   11.8590  -33.7870 O   0  0  0  0  0  0  0  0  0  0  0  0
   -5.5100   14.0300  -33.9700 N   0  0  0  0  0  0  0  0  0  0  0  0
   -6.6980   14.6030  -34.5860 C   0  0  0  0  0  0  0  0  0  0  0  0
   -6.7320   16.0210  -34.0780 C   0  0  0  0  0  0  0  0  0  0  0  0
   -5.5470   16.2020  -33.1730 C   0  0  1  0  0  0  0  0  0  0  0  0
   -4.3670   16.8200  -33.8740 C   0  0  0  0  0  0  0  0  0  0  0  0
   -4.5310   18.2900  -33.6010 C   0  0  0  0  0  0  0  0  0  0  0  0
   -5.5550   18.4080  -32.5810 N   0  0  0  0  0  0  0  0  0  0  0  0
   -6.1360   19.6530  -32.2170 C   0  0  0  0  0  0  0  0  0  0  0  0
   -7.4710   19.8620  -32.3990 C   0  0  0  0  0  0  0  0  0  0  0  0
   -7.9870   21.0820  -32.0330 C   0  0  0  0  0  0  0  0  0  0  0  0
   -7.1740   22.0490  -31.5040 C   0  0  0  0  0  0  0  0  0  0  0  0
   -7.4510   23.3160  -31.0970 C   0  0  0  0  0  0  0  0  0  0  0  0
   -6.2670   23.9390  -30.6370 C   0  0  0  0  0  0  0  0  0  0  0  0
   -6.3240   25.2860  -30.1440 C   0  0  0  0  0  0  0  0  0  0  0  0
   -5.3750   26.3200  -30.2160 N   0  0  0  0  0  0  0  0  0  0  0  0
   -7.4090   25.6390  -29.5190 O   0  0  0  0  0  0  0  0  0  0  0  0
   -5.2690   23.0210  -30.7790 N   0  0  0  0  0  0  0  0  0  0  0  0
   -3.9210   23.3120  -30.5170 C   0  0  0  0  0  0  0  0  0  0  0  0
   -3.6080   24.5500  -30.7890 O   0  0  0  0  0  0  0  0  0  0  0  0
   -2.8330   22.5480  -30.0120 C   0  0  0  0  0  0  0  0  0  0  0  0
   -2.7750   21.3940  -29.5660 O   0  0  0  0  0  0  0  0  0  0  0  0
   -1.5430   23.1900  -29.9970 O   0  0  0  0  0  0  0  0  0  0  0  0
   -5.8120   21.8810  -31.3010 C   0  0  0  0  0  0  0  0  0  0  0  0
   -5.3270   20.6500  -31.6780 C   0  0  0  0  0  0  0  0  0  0  0  0
   -5.8730   17.1080  -32.0190 C   0  0  0  0  0  0  0  0  0  0  0  0
   -5.1880   14.8040  -32.7670 C   0  0  0  0  0  0  0  0  0  0  0  0
   -1.2044   12.3414  -36.1193 H   0  0  0  0  0  0  0  0  0  0  0  0
   -2.5052   12.2043  -37.3505 H   0  0  0  0  0  0  0  0  0  0  0  0
   -1.4154   13.6322  -37.3505 H   0  0  0  0  0  0  0  0  0  0  0  0
   -3.2424   15.7395  -35.5882 H   0  0  0  0  0  0  0  0  0  0  0  0
   -2.2548   15.2794  -37.0164 H   0  0  0  0  0  0  0  0  0  0  0  0
   -4.0265   14.9831  -37.0164 H   0  0  0  0  0  0  0  0  0  0  0  0
   -3.0420   13.5816  -33.6602 H   0  0  0  0  0  0  0  0  0  0  0  0
   -1.4319   13.1227  -34.3108 H   0  0  0  0  0  0  0  0  0  0  0  0
   -1.9430   14.8447  -34.3108 H   0  0  0  0  0  0  0  0  0  0  0  0
   -6.6164   14.5836  -35.6828 H   0  0  0  0  0  0  0  0  0  0  0  0
   -7.6123   14.0446  -34.3365 H   0  0  0  0  0  0  0  0  0  0  0  0
   -6.6717   16.7243  -34.9217 H   0  0  0  0  0  0  0  0  0  0  0  0
   -7.6687   16.2171  -33.5356 H   0  0  0  0  0  0  0  0  0  0  0  0
   -3.4207   16.4452  -33.4569 H   0  0  0  0  0  0  0  0  0  0  0  0
   -4.3328   16.5835  -34.9477 H   0  0  0  0  0  0  0  0  0  0  0  0
   -3.5839   18.7173  -33.2398 H   0  0  0  0  0  0  0  0  0  0  0  0
   -4.8143   18.8348  -34.5137 H   0  0  0  0  0  0  0  0  0  0  0  0
   -8.1148   19.0786  -32.8254 H   0  0  0  0  0  0  0  0  0  0  0  0
   -9.0602   21.2833  -32.1658 H   0  0  0  0  0  0  0  0  0  0  0  0
   -8.4453   23.7858  -31.1216 H   0  0  0  0  0  0  0  0  0  0  0  0
   -4.4200   26.2800  -29.7630 H   0  0  0  0  0  0  0  0  0  0  0  0
   -5.5490   27.2370  -30.7270 H   0  0  0  0  0  0  0  0  0  0  0  0
   -1.4650   24.1590  -30.3530 H   0  0  0  0  0  0  0  0  0  0  0  0
   -4.2542   20.4445  -31.5481 H   0  0  0  0  0  0  0  0  0  0  0  0
   -5.2478   16.8843  -31.1420 H   0  0  0  0  0  0  0  0  0  0  0  0
   -6.9056   17.0161  -31.6512 H   0  0  0  0  0  0  0  0  0  0  0  0
   -4.1196   14.7247  -32.5178 H   0  0  0  0  0  0  0  0  0  0  0  0
   -5.7203   14.4586  -31.8685 H   0  0  0  0  0  0  0  0  0  0  0  0
  1  2  1  0
  2  3  1  0
  2  4  1  0
  2  5  1  0
  5  6  1  0
  6  7  2  0
  6  8  1  0
  8  9  1  0
  9 10  1  0
 11 10  1  6
 11 12  1  0
 12 13  1  0
 13 14  1  0
 14 15  1  0
 15 16  2  0
 16 17  1  0
 17 18  2  0
 18 19  1  0
 19 20  2  0
 20 21  1  0
 21 22  1  0
 21 23  2  0
 20 24  1  0
 24 25  1  0
 25 26  2  0
 25 27  1  0
 27 28  2  0
 27 29  1  0
 24 30  1  0
 30 31  2  0
 14 32  1  0
 11 33  1  0
 33  8  1  0
 32 11  1  0
 31 15  1  0
 30 18  1  0
  1 34  1  0
  1 35  1  0
  1 36  1  0
  3 37  1  0
  3 38  1  0
  3 39  1  0
  4 40  1  0
  4 41  1  0
  4 42  1  0
  9 43  1  0
  9 44  1  0
 10 45  1  0
 10 46  1  0
 12 47  1  0
 12 48  1  0
 13 49  1  0
 13 50  1  0
 16 51  1  0
 17 52  1  0
 19 53  1  0
 22 54  1  0
 22 55  1  0
 29 56  1  0
 31 57  1  0
 32 58  1  0
 32 59  1  0
 33 60  1  0
 33 61  1  0
M  END
>  <smiles>  (91) 
CC(C)(C)OC(=O)N1CCC2(CCN(c3ccc4cc(C(N)=O)n(C(=O)C(=O)O)c4c3)C2)C1

>  <score_type>  (91) 
oracle

>  <origin>  (91) 
adg

>  <m_score__min__energy>  (91) 
-9.2699999999999996

>  <m_primary>  (91) 
energy

$$$$
