0:0
     RDKit          3D

 27 29  0  0  0  0  0  0  0  0999 V2000
   -5.5180   26.4840  -30.3340 N   0  0  0  0  0  0  0  0  0  0  0  0
   -6.3450   25.3900  -29.9330 C   0  0  0  0  0  0  0  0  0  0  0  0
   -7.1470   25.5420  -28.9740 O   0  0  0  0  0  0  0  0  0  0  0  0
   -6.3230   24.1070  -30.6630 C   0  0  0  0  0  0  0  0  0  0  0  0
   -7.4750   23.4190  -31.0330 C   0  0  0  0  0  0  0  0  0  0  0  0
   -7.0310   22.3270  -31.7430 C   0  0  0  0  0  0  0  0  0  0  0  0
   -7.7530   21.2960  -32.3360 C   0  0  0  0  0  0  0  0  0  0  0  0
   -7.0350   20.2720  -32.9750 C   0  0  0  0  0  0  0  0  0  0  0  0
   -5.6180   20.2910  -33.0030 C   0  0  0  0  0  0  0  0  0  0  0  0
   -4.8690   19.2050  -33.6650 C   0  0  0  0  0  0  0  0  0  0  0  0
   -3.5990   18.8650  -33.3690 N   0  0  0  0  0  0  0  0  0  0  0  0
   -3.3830   17.8460  -34.2260 C   0  0  0  0  0  0  0  0  0  0  0  0
   -4.4580   17.5870  -34.9930 N   0  0  0  0  0  0  0  0  0  0  0  0
   -5.3560   18.4470  -34.6170 O   0  0  0  0  0  0  0  0  0  0  0  0
   -4.9200   21.3560  -32.3880 C   0  0  0  0  0  0  0  0  0  0  0  0
   -5.6610   22.3750  -31.7760 C   0  0  0  0  0  0  0  0  0  0  0  0
   -5.2090   23.4640  -31.1120 N   0  0  0  0  0  0  0  0  0  0  0  0
   -3.8390   23.7950  -30.8290 C   0  0  0  0  0  0  0  0  0  0  0  0
   -2.9440   22.9110  -30.8780 O   0  0  0  0  0  0  0  0  0  0  0  0
   -3.4880   25.0970  -30.4930 O   0  0  0  0  0  0  0  0  0  0  0  0
   -4.9680   26.4470  -31.2200 H   0  0  0  0  0  0  0  0  0  0  0  0
   -5.5210   27.3720  -29.7840 H   0  0  0  0  0  0  0  0  0  0  0  0
   -8.5168   23.6900  -30.8065 H   0  0  0  0  0  0  0  0  0  0  0  0
   -8.8525   21.2833  -32.3053 H   0  0  0  0  0  0  0  0  0  0  0  0
   -7.5779   19.4467  -33.4588 H   0  0  0  0  0  0  0  0  0  0  0  0
   -2.4360   17.2901  -34.2906 H   0  0  0  0  0  0  0  0  0  0  0  0
   -3.8203   21.3836  -32.3902 H   0  0  0  0  0  0  0  0  0  0  0  0
  1  2  1  0
  2  3  2  0
  2  4  1  0
  4  5  2  0
  5  6  1  0
  6  7  2  0
  7  8  1  0
  8  9  2  0
  9 10  1  0
 10 11  2  0
 11 12  1  0
 12 13  2  0
 13 14  1  0
  9 15  1  0
 15 16  2  0
 16 17  1  0
 17 18  1  0
 18 19  2  0
 18 20  1  0
 17  4  1  0
 16  6  1  0
 14 10  1  0
  1 21  1  0
  1 22  1  0
  5 23  1  0
  7 24  1  0
  8 25  1  0
 12 26  1  0
 15 27  1  0
M  CHG  1  20  -1
M  END
>  <UniqueID>  (1) 
1

>  <SMILES>  (1) 
NC(=O)c1cc2ccc(-c3ncno3)cc2n1C(=O)[O-]

>  <Energy>  (1) 
102.86451361803113

>  <Genealogy>  (1) 
NC(=O)c1cc2ccc(-c3ncno3)cc2n1C(=O)[O-] (protonated)
NC(=O)c1cc2ccc(-c3ncno3)cc2n1C(=O)[O-] (3D coordinates assigned)
NC(=O)c1cc2ccc(-c3ncno3)cc2n1C(=O)[O-] (optimized conformer: 102.86451361803113 kcal/mol)

>  <smiles>  (1) 
NC(=O)c1cc2ccc(-c3ncno3)cc2n1C(=O)O

>  <score_type>  (1) 
oracle

>  <origin>  (1) 
adg

>  <m_score__min__energy>  (1) 
-8.7200000000000006

>  <m_primary>  (1) 
energy

$$$$
1:0
     RDKit          3D

 37 38  0  0  0  0  0  0  0  0999 V2000
   -5.7270   18.4190  -34.6730 C   0  0  0  0  0  0  0  0  0  0  0  0
   -5.6650   17.7470  -33.5250 C   0  0  0  0  0  0  0  0  0  0  0  0
   -6.5510   18.0470  -32.3840 C   0  0  0  0  0  0  0  0  0  0  0  0
   -6.2380   17.6850  -31.2170 O   0  0  0  0  0  0  0  0  0  0  0  0
   -7.8590   18.7440  -32.6090 C   0  0  0  0  0  0  0  0  0  0  0  0
   -7.7820   20.1610  -32.1130 C   0  0  0  0  0  0  0  0  0  0  0  0
   -8.9700   20.9020  -31.8910 C   0  0  0  0  0  0  0  0  0  0  0  0
   -8.9110   22.2420  -31.4750 C   0  0  0  0  0  0  0  0  0  0  0  0
   -7.6550   22.8140  -31.2920 C   0  0  0  0  0  0  0  0  0  0  0  0
   -7.3100   24.0960  -30.9290 C   0  0  0  0  0  0  0  0  0  0  0  0
   -5.9170   24.1170  -30.9260 C   0  0  0  0  0  0  0  0  0  0  0  0
   -5.1210   25.2910  -30.5120 C   0  0  0  0  0  0  0  0  0  0  0  0
   -3.6980   25.2100  -30.4880 N   0  0  0  0  0  0  0  0  0  0  0  0
   -5.6820   26.3780  -30.2140 O   0  0  0  0  0  0  0  0  0  0  0  0
   -5.4200   22.8970  -31.2780 N   0  0  0  0  0  0  0  0  0  0  0  0
   -4.0440   22.5320  -31.4710 C   0  0  0  0  0  0  0  0  0  0  0  0
   -3.2780   22.4260  -30.4750 O   0  0  0  0  0  0  0  0  0  0  0  0
   -3.5680   22.2750  -32.7620 O   0  0  0  0  0  0  0  0  0  0  0  0
   -3.5230   20.9700  -33.3360 C   0  0  0  0  0  0  0  0  0  0  0  0
   -3.1190   19.9360  -32.2910 C   0  0  0  0  0  0  0  0  0  0  0  0
   -6.4960   22.1100  -31.4950 C   0  0  0  0  0  0  0  0  0  0  0  0
   -6.5250   20.7780  -31.9260 C   0  0  0  0  0  0  0  0  0  0  0  0
   -5.0468   18.1618  -35.4983 H   0  0  0  0  0  0  0  0  0  0  0  0
   -6.4584   19.2313  -34.7960 H   0  0  0  0  0  0  0  0  0  0  0  0
   -4.9260   16.9385  -33.4237 H   0  0  0  0  0  0  0  0  0  0  0  0
   -8.0891   18.7472  -33.6847 H   0  0  0  0  0  0  0  0  0  0  0  0
   -8.6492   18.2126  -32.0584 H   0  0  0  0  0  0  0  0  0  0  0  0
   -9.9478   20.4226  -32.0461 H   0  0  0  0  0  0  0  0  0  0  0  0
   -9.8290   22.8219  -31.2991 H   0  0  0  0  0  0  0  0  0  0  0  0
   -7.9899   24.9275  -30.6916 H   0  0  0  0  0  0  0  0  0  0  0  0
   -3.1210   25.6710  -31.2270 H   0  0  0  0  0  0  0  0  0  0  0  0
   -4.5173   20.7147  -33.7312 H   0  0  0  0  0  0  0  0  0  0  0  0
   -2.7781   20.9649  -34.1454 H   0  0  0  0  0  0  0  0  0  0  0  0
   -3.2805   20.3494  -31.2845 H   0  0  0  0  0  0  0  0  0  0  0  0
   -3.7290   19.0294  -32.4173 H   0  0  0  0  0  0  0  0  0  0  0  0
   -2.0559   19.6831  -32.4173 H   0  0  0  0  0  0  0  0  0  0  0  0
   -5.5924   20.2259  -32.1142 H   0  0  0  0  0  0  0  0  0  0  0  0
  1  2  2  0
  2  3  1  0
  3  4  2  0
  3  5  1  0
  5  6  1  0
  6  7  2  0
  7  8  1  0
  8  9  2  0
  9 10  1  0
 10 11  2  0
 11 12  1  0
 12 13  1  0
 12 14  2  0
 11 15  1  0
 15 16  1  0
 16 17  2  0
 16 18  1  0
 18 19  1  0
 19 20  1  0
 15 21  1  0
 21 22  2  0
 22  6  1  0
 21  9  1  0
  1 23  1  0
  1 24  1  0
  2 25  1  0
  5 26  1  0
  5 27  1  0
  7 28  1  0
  8 29  1  0
 10 30  1  0
 13 31  1  0
 19 32  1  0
 19 33  1  0
 20 34  1  0
 20 35  1  0
 20 36  1  0
 22 37  1  0
M  CHG  1  13  -1
M  END
>  <UniqueID>  (2) 
2

>  <SMILES>  (2) 
C=CC(=O)Cc1ccc2cc(C([NH-])=O)n(C(=O)OCC)c2c1

>  <Energy>  (2) 
68.05589069716473

>  <Genealogy>  (2) 
C=CC(=O)Cc1ccc2cc(C([NH-])=O)n(C(=O)OCC)c2c1 (protonated)
C=CC(=O)Cc1ccc2cc(C([NH-])=O)n(C(=O)OCC)c2c1 (3D coordinates assigned)
C=CC(=O)Cc1ccc2cc(C([NH-])=O)n(C(=O)OCC)c2c1 (optimized conformer: 68.05589069716473 kcal/mol)

>  <smiles>  (2) 
C=CC(=O)Cc1ccc2cc(C(N)=O)n(C(=O)OCC)c2c1

>  <score_type>  (2) 
oracle

>  <origin>  (2) 
adg

>  <m_score__min__energy>  (2) 
-10.279999999999999

>  <m_primary>  (2) 
energy

$$$$
2:0
     RDKit          3D

 28 29  0  0  0  0  0  0  0  0999 V2000
   -2.7000   20.8670  -32.5890 C   0  0  0  0  0  0  0  0  0  0  0  0
   -3.3270   22.1440  -32.5830 O   0  0  0  0  0  0  0  0  0  0  0  0
   -3.7940   22.7490  -31.4120 C   0  0  0  0  0  0  0  0  0  0  0  0
   -2.9800   23.1390  -30.5300 O   0  0  0  0  0  0  0  0  0  0  0  0
   -5.2040   22.9480  -31.2270 N   0  0  0  0  0  0  0  0  0  0  0  0
   -5.8470   24.0930  -30.8540 C   0  0  0  0  0  0  0  0  0  0  0  0
   -5.2030   25.3520  -30.4260 C   0  0  0  0  0  0  0  0  0  0  0  0
   -3.8730   25.6470  -30.8480 N   0  0  0  0  0  0  0  0  0  0  0  0
   -5.8260   26.1880  -29.7200 O   0  0  0  0  0  0  0  0  0  0  0  0
   -7.2270   23.8960  -30.8470 C   0  0  0  0  0  0  0  0  0  0  0  0
   -7.4110   22.5870  -31.2230 C   0  0  0  0  0  0  0  0  0  0  0  0
   -8.5850   21.8580  -31.3800 C   0  0  0  0  0  0  0  0  0  0  0  0
   -8.4810   20.5210  -31.7980 C   0  0  0  0  0  0  0  0  0  0  0  0
   -7.2150   19.9440  -32.0770 C   0  0  0  0  0  0  0  0  0  0  0  0
   -7.1140   18.4970  -32.4890 C   0  0  0  0  0  0  0  0  0  0  0  0
   -6.7550   18.3930  -33.8220 F   0  0  0  0  0  0  0  0  0  0  0  0
   -6.1560   17.8690  -31.7140 F   0  0  0  0  0  0  0  0  0  0  0  0
   -8.3270   17.8530  -32.3160 F   0  0  0  0  0  0  0  0  0  0  0  0
   -6.0430   20.7120  -31.8820 C   0  0  0  0  0  0  0  0  0  0  0  0
   -6.1760   22.0360  -31.4470 C   0  0  0  0  0  0  0  0  0  0  0  0
   -2.5365   20.5339  -31.5535 H   0  0  0  0  0  0  0  0  0  0  0  0
   -3.3456   20.1440  -33.1091 H   0  0  0  0  0  0  0  0  0  0  0  0
   -1.7332   20.9357  -33.1091 H   0  0  0  0  0  0  0  0  0  0  0  0
   -3.0490   25.2990  -30.3100 H   0  0  0  0  0  0  0  0  0  0  0  0
   -8.0041   24.6323  -30.5941 H   0  0  0  0  0  0  0  0  0  0  0  0
   -9.5660   22.3149  -31.1827 H   0  0  0  0  0  0  0  0  0  0  0  0
   -9.3916   19.9142  -31.9104 H   0  0  0  0  0  0  0  0  0  0  0  0
   -5.0493   20.2785  -32.0680 H   0  0  0  0  0  0  0  0  0  0  0  0
  1  2  1  0
  2  3  1  0
  3  4  2  0
  3  5  1  0
  5  6  1  0
  6  7  1  0
  7  8  1  0
  7  9  2  0
  6 10  2  0
 10 11  1  0
 11 12  2  0
 12 13  1  0
 13 14  2  0
 14 15  1  0
 15 16  1  0
 15 17  1  0
 15 18  1  0
 14 19  1  0
 19 20  2  0
 20  5  1  0
 20 11  1  0
  1 21  1  0
  1 22  1  0
  1 23  1  0
  8 24  1  0
 10 25  1  0
 12 26  1  0
 13 27  1  0
 19 28  1  0
M  CHG  1   8  -1
M  END
>  <UniqueID>  (3) 
3

>  <SMILES>  (3) 
COC(=O)n1c(C([NH-])=O)cc2ccc(C(F)(F)F)cc21

>  <Energy>  (3) 
65.8602502278402

>  <Genealogy>  (3) 
COC(=O)n1c(C([NH-])=O)cc2ccc(C(F)(F)F)cc21 (protonated)
COC(=O)n1c(C([NH-])=O)cc2ccc(C(F)(F)F)cc21 (3D coordinates assigned)
COC(=O)n1c(C([NH-])=O)cc2ccc(C(F)(F)F)cc21 (optimized conformer: 65.8602502278402 kcal/mol)

>  <smiles>  (3) 
COC(=O)n1c(C(N)=O)cc2ccc(C(F)(F)F)cc21

>  <score_type>  (3) 
oracle

>  <origin>  (3) 
adg

>  <m_score__min__energy>  (3) 
-8.8200000000000003

>  <m_primary>  (3) 
energy

$$$$
3:0
     RDKit          3D

 36 38  0  0  0  0  0  0  0  0999 V2000
   -5.6180   13.0170  -34.0370 C   0  0  0  0  0  0  0  0  0  0  0  0
   -4.9110   14.2210  -34.5820 C   0  0  0  0  0  0  0  0  0  0  0  0
   -4.0250   14.0480  -35.4620 O   0  0  0  0  0  0  0  0  0  0  0  0
   -5.2260   15.5980  -34.1120 C   0  0  0  0  0  0  0  0  0  0  0  0
   -6.5570   15.9600  -33.8310 C   0  0  0  0  0  0  0  0  0  0  0  0
   -6.8680   17.2480  -33.3900 C   0  0  0  0  0  0  0  0  0  0  0  0
   -5.8570   18.2090  -33.2160 C   0  0  0  0  0  0  0  0  0  0  0  0
   -6.1880   19.5780  -32.7470 C   0  0  0  0  0  0  0  0  0  0  0  0
   -7.5300   20.0380  -32.7670 C   0  0  0  0  0  0  0  0  0  0  0  0
   -7.8540   21.3350  -32.3370 C   0  0  0  0  0  0  0  0  0  0  0  0
   -6.8200   22.1490  -31.8860 C   0  0  0  0  0  0  0  0  0  0  0  0
   -6.8510   23.4500  -31.4380 C   0  0  0  0  0  0  0  0  0  0  0  0
   -5.5300   23.7630  -31.1240 C   0  0  0  0  0  0  0  0  0  0  0  0
   -5.1240   25.0480  -30.5200 C   0  0  0  0  0  0  0  0  0  0  0  0
   -3.8890   25.6680  -30.8760 N   0  0  0  0  0  0  0  0  0  0  0  0
   -5.8510   25.5830  -29.6410 O   0  0  0  0  0  0  0  0  0  0  0  0
   -4.7130   22.7010  -31.3770 N   0  0  0  0  0  0  0  0  0  0  0  0
   -3.2810   22.6540  -31.2780 C   0  0  0  0  0  0  0  0  0  0  0  0
   -2.5950   22.1470  -32.2050 O   0  0  0  0  0  0  0  0  0  0  0  0
   -2.6360   23.1920  -30.1700 O   0  0  0  0  0  0  0  0  0  0  0  0
   -5.5200   21.7190  -31.8400 C   0  0  0  0  0  0  0  0  0  0  0  0
   -5.1660   20.4390  -32.2800 C   0  0  0  0  0  0  0  0  0  0  0  0
   -4.5280   17.8500  -33.4950 C   0  0  0  0  0  0  0  0  0  0  0  0
   -4.2150   16.5630  -33.9380 C   0  0  0  0  0  0  0  0  0  0  0  0
   -5.6000   13.0476  -32.9376 H   0  0  0  0  0  0  0  0  0  0  0  0
   -6.6609   13.0147  -34.3867 H   0  0  0  0  0  0  0  0  0  0  0  0
   -5.1119   12.1051  -34.3867 H   0  0  0  0  0  0  0  0  0  0  0  0
   -7.3608   15.2203  -33.9602 H   0  0  0  0  0  0  0  0  0  0  0  0
   -7.9141   17.5130  -33.1768 H   0  0  0  0  0  0  0  0  0  0  0  0
   -8.3274   19.3697  -33.1241 H   0  0  0  0  0  0  0  0  0  0  0  0
   -8.8929   21.6960  -32.3562 H   0  0  0  0  0  0  0  0  0  0  0  0
   -7.7311   24.1035  -31.3472 H   0  0  0  0  0  0  0  0  0  0  0  0
   -2.9810   25.2930  -30.5270 H   0  0  0  0  0  0  0  0  0  0  0  0
   -4.1168   20.1090  -32.2634 H   0  0  0  0  0  0  0  0  0  0  0  0
   -3.7252   18.5904  -33.3632 H   0  0  0  0  0  0  0  0  0  0  0  0
   -3.1687   16.3005  -34.1531 H   0  0  0  0  0  0  0  0  0  0  0  0
  1  2  1  0
  2  3  2  0
  2  4  1  0
  4  5  2  0
  5  6  1  0
  6  7  2  0
  7  8  1  0
  8  9  2  0
  9 10  1  0
 10 11  2  0
 11 12  1  0
 12 13  2  0
 13 14  1  0
 14 15  1  0
 14 16  2  0
 13 17  1  0
 17 18  1  0
 18 19  2  0
 18 20  1  0
 17 21  1  0
 21 22  2  0
  7 23  1  0
 23 24  2  0
 24  4  1  0
 22  8  1  0
 21 11  1  0
  1 25  1  0
  1 26  1  0
  1 27  1  0
  5 28  1  0
  6 29  1  0
  9 30  1  0
 10 31  1  0
 12 32  1  0
 15 33  1  0
 22 34  1  0
 23 35  1  0
 24 36  1  0
M  CHG  2  15  -1  20  -1
M  END
>  <UniqueID>  (4) 
4

>  <SMILES>  (4) 
CC(=O)c1ccc(-c2ccc3cc(C([NH-])=O)n(C(=O)[O-])c3c2)cc1

>  <Energy>  (4) 
84.37341577508505

>  <Genealogy>  (4) 
CC(=O)c1ccc(-c2ccc3cc(C([NH-])=O)n(C(=O)[O-])c3c2)cc1 (protonated)
CC(=O)c1ccc(-c2ccc3cc(C([NH-])=O)n(C(=O)[O-])c3c2)cc1 (3D coordinates assigned)
CC(=O)c1ccc(-c2ccc3cc(C([NH-])=O)n(C(=O)[O-])c3c2)cc1 (optimized conformer: 84.37341577508505 kcal/mol)

>  <smiles>  (4) 
CC(=O)c1ccc(-c2ccc3cc(C(N)=O)n(C(=O)O)c3c2)cc1

>  <score_type>  (4) 
oracle

>  <origin>  (4) 
adg

>  <m_score__min__energy>  (4) 
-10.81

>  <m_primary>  (4) 
energy

$$$$
4:0
     RDKit          3D

 45 47  0  0  0  0  0  0  0  0999 V2000
   -3.3990   22.0430  -29.4570 C   0  0  0  0  0  0  0  0  0  0  0  0
   -3.0970   22.4170  -30.7940 O   0  0  0  0  0  0  0  0  0  0  0  0
   -4.0750   22.5270  -31.7860 C   0  0  0  0  0  0  0  0  0  0  0  0
   -3.7990   22.2490  -32.9850 O   0  0  0  0  0  0  0  0  0  0  0  0
   -5.4070   22.9320  -31.4320 N   0  0  0  0  0  0  0  0  0  0  0  0
   -5.8230   24.1500  -30.9790 C   0  0  0  0  0  0  0  0  0  0  0  0
   -4.9510   25.2910  -30.6280 C   0  0  0  0  0  0  0  0  0  0  0  0
   -3.5500   25.0890  -30.4650 N   0  0  0  0  0  0  0  0  0  0  0  0
   -5.4240   26.4520  -30.5040 O   0  0  0  0  0  0  0  0  0  0  0  0
   -7.2060   24.1620  -30.8110 C   0  0  0  0  0  0  0  0  0  0  0  0
   -7.6270   22.9020  -31.1680 C   0  0  0  0  0  0  0  0  0  0  0  0
   -8.9120   22.3660  -31.2080 C   0  0  0  0  0  0  0  0  0  0  0  0
   -9.0590   21.0420  -31.6540 C   0  0  0  0  0  0  0  0  0  0  0  0
   -7.9280   20.2820  -32.0430 C   0  0  0  0  0  0  0  0  0  0  0  0
   -8.1070   18.8870  -32.5740 C   0  0  0  0  0  0  0  0  0  0  0  0
   -6.7770   18.3200  -32.9670 C   0  0  0  0  0  0  0  0  0  0  0  0
   -6.1460   17.6040  -32.1460 O   0  0  0  0  0  0  0  0  0  0  0  0
   -6.2640   18.5450  -34.2920 N   0  0  0  0  0  0  0  0  0  0  0  0
   -5.0300   17.9490  -34.8210 C   0  0  0  0  0  0  0  0  0  0  0  0
   -4.9580   16.4360  -34.5680 C   0  0  0  0  0  0  0  0  0  0  0  0
   -3.6950   16.1960  -33.7510 C   0  0  0  0  0  0  0  0  0  0  0  0
   -2.8180   17.4170  -33.9670 C   0  0  0  0  0  0  0  0  0  0  0  0
   -3.7760   18.5730  -34.2030 C   0  0  0  0  0  0  0  0  0  0  0  0
   -6.6420   20.8630  -32.0000 C   0  0  0  0  0  0  0  0  0  0  0  0
   -6.5240   22.1800  -31.5390 C   0  0  0  0  0  0  0  0  0  0  0  0
   -2.8638   22.7058  -28.7611 H   0  0  0  0  0  0  0  0  0  0  0  0
   -4.4823   22.1311  -29.2874 H   0  0  0  0  0  0  0  0  0  0  0  0
   -3.0847   21.0026  -29.2874 H   0  0  0  0  0  0  0  0  0  0  0  0
   -2.9980   24.5530  -31.1720 H   0  0  0  0  0  0  0  0  0  0  0  0
   -7.8288   25.0006  -30.4662 H   0  0  0  0  0  0  0  0  0  0  0  0
   -9.7845   22.9609  -30.9000 H   0  0  0  0  0  0  0  0  0  0  0  0
  -10.0612   20.5911  -31.7017 H   0  0  0  0  0  0  0  0  0  0  0  0
   -8.5580   18.2546  -31.7951 H   0  0  0  0  0  0  0  0  0  0  0  0
   -8.7650   18.9150  -33.4550 H   0  0  0  0  0  0  0  0  0  0  0  0
   -6.8200   19.1490  -34.9390 H   0  0  0  0  0  0  0  0  0  0  0  0
   -5.0602   18.1492  -35.9022 H   0  0  0  0  0  0  0  0  0  0  0  0
   -5.8432   16.1016  -34.0071 H   0  0  0  0  0  0  0  0  0  0  0  0
   -4.9339   15.8744  -35.5135 H   0  0  0  0  0  0  0  0  0  0  0  0
   -3.9441   16.0882  -32.6850 H   0  0  0  0  0  0  0  0  0  0  0  0
   -3.1838   15.2729  -34.0616 H   0  0  0  0  0  0  0  0  0  0  0  0
   -2.1989   17.6070  -33.0778 H   0  0  0  0  0  0  0  0  0  0  0  0
   -2.1306   17.2791  -34.8146 H   0  0  0  0  0  0  0  0  0  0  0  0
   -4.0222   19.0679  -33.2520 H   0  0  0  0  0  0  0  0  0  0  0  0
   -3.3364   19.3383  -34.8595 H   0  0  0  0  0  0  0  0  0  0  0  0
   -5.7556   20.2958  -32.3203 H   0  0  0  0  0  0  0  0  0  0  0  0
  1  2  1  0
  2  3  1  0
  3  4  2  0
  3  5  1  0
  5  6  1  0
  6  7  1  0
  7  8  1  0
  7  9  2  0
  6 10  2  0
 10 11  1  0
 11 12  2  0
 12 13  1  0
 13 14  2  0
 14 15  1  0
 15 16  1  0
 16 17  2  0
 16 18  1  0
 18 19  1  0
 19 20  1  0
 20 21  1  0
 21 22  1  0
 22 23  1  0
 14 24  1  0
 24 25  2  0
 25  5  1  0
 25 11  1  0
 23 19  1  0
  1 26  1  0
  1 27  1  0
  1 28  1  0
  8 29  1  0
 10 30  1  0
 12 31  1  0
 13 32  1  0
 15 33  1  0
 15 34  1  0
 18 35  1  0
 19 36  1  0
 20 37  1  0
 20 38  1  0
 21 39  1  0
 21 40  1  0
 22 41  1  0
 22 42  1  0
 23 43  1  0
 23 44  1  0
 24 45  1  0
M  CHG  1   8  -1
M  END
>  <UniqueID>  (5) 
5

>  <SMILES>  (5) 
COC(=O)n1c(C([NH-])=O)cc2ccc(CC(=O)NC3CCCC3)cc21

>  <Energy>  (5) 
79.74800289639876

>  <Genealogy>  (5) 
COC(=O)n1c(C([NH-])=O)cc2ccc(CC(=O)NC3CCCC3)cc21 (protonated)
COC(=O)n1c(C([NH-])=O)cc2ccc(CC(=O)NC3CCCC3)cc21 (3D coordinates assigned)
COC(=O)n1c(C([NH-])=O)cc2ccc(CC(=O)NC3CCCC3)cc21 (nonaromatic ring conformer: 79.74800289639876 kcal/mol)

>  <smiles>  (5) 
COC(=O)n1c(C(N)=O)cc2ccc(CC(=O)NC3CCCC3)cc21

>  <score_type>  (5) 
oracle

>  <origin>  (5) 
adg

>  <m_score__min__energy>  (5) 
-11.26

>  <m_primary>  (5) 
energy

$$$$
5:0
     RDKit          3D

 31 33  0  0  0  0  0  0  0  0999 V2000
   -1.6240   25.6640  -29.0660 N   0  0  0  0  0  0  0  0  0  0  0  0
   -1.1460   24.3390  -29.2900 C   0  0  0  0  0  0  0  0  0  0  0  0
    0.0330   24.0440  -28.9610 O   0  0  0  0  0  0  0  0  0  0  0  0
   -2.0210   23.3430  -29.9430 C   0  0  0  0  0  0  0  0  0  0  0  0
   -1.5550   22.1460  -30.4810 C   0  0  0  0  0  0  0  0  0  0  0  0
   -2.6790   21.4710  -30.8990 C   0  0  0  0  0  0  0  0  0  0  0  0
   -2.7990   20.2290  -31.5140 C   0  0  0  0  0  0  0  0  0  0  0  0
   -4.0860   19.7870  -31.8580 C   0  0  0  0  0  0  0  0  0  0  0  0
   -5.2280   20.5890  -31.5910 C   0  0  0  0  0  0  0  0  0  0  0  0
   -6.5830   20.1150  -31.9710 C   0  0  0  0  0  0  0  0  0  0  0  0
   -7.6790   20.9960  -31.9820 C   0  0  0  0  0  0  0  0  0  0  0  0
   -8.9460   20.5360  -32.3410 C   0  0  0  0  0  0  0  0  0  0  0  0
   -9.1130   19.1940  -32.6880 C   0  0  0  0  0  0  0  0  0  0  0  0
   -8.0500   18.3500  -32.6740 N   0  0  0  0  0  0  0  0  0  0  0  0
   -6.8040   18.7740  -32.3300 C   0  0  0  0  0  0  0  0  0  0  0  0
   -5.0600   21.8470  -30.9640 C   0  0  0  0  0  0  0  0  0  0  0  0
   -3.7670   22.2550  -30.6170 C   0  0  0  0  0  0  0  0  0  0  0  0
   -3.3800   23.4100  -30.0320 N   0  0  0  0  0  0  0  0  0  0  0  0
   -4.2350   24.5020  -29.6600 C   0  0  0  0  0  0  0  0  0  0  0  0
   -4.3130   25.6670  -30.4790 N   0  0  0  0  0  0  0  0  0  0  0  0
   -4.9470   24.4250  -28.6230 O   0  0  0  0  0  0  0  0  0  0  0  0
   -2.6470   25.8580  -28.9860 H   0  0  0  0  0  0  0  0  0  0  0  0
   -0.5099   21.8111  -30.5559 H   0  0  0  0  0  0  0  0  0  0  0  0
   -1.9127   19.6124  -31.7242 H   0  0  0  0  0  0  0  0  0  0  0  0
   -4.2121   18.8067  -32.3407 H   0  0  0  0  0  0  0  0  0  0  0  0
   -7.5367   22.0514  -31.7066 H   0  0  0  0  0  0  0  0  0  0  0  0
   -9.8047   21.2235  -32.3506 H   0  0  0  0  0  0  0  0  0  0  0  0
  -10.1074   18.8201  -32.9731 H   0  0  0  0  0  0  0  0  0  0  0  0
   -5.9644   18.0633  -32.3328 H   0  0  0  0  0  0  0  0  0  0  0  0
   -5.9273   22.4902  -30.7540 H   0  0  0  0  0  0  0  0  0  0  0  0
   -3.4570   26.0710  -30.9200 H   0  0  0  0  0  0  0  0  0  0  0  0
  1  2  1  0
  2  3  2  0
  2  4  1  0
  4  5  2  0
  5  6  1  0
  6  7  2  0
  7  8  1  0
  8  9  2  0
  9 10  1  0
 10 11  2  0
 11 12  1  0
 12 13  2  0
 13 14  1  0
 14 15  2  0
  9 16  1  0
 16 17  2  0
 17 18  1  0
 18 19  1  0
 19 20  1  0
 19 21  2  0
 18  4  1  0
 17  6  1  0
 15 10  1  0
  1 22  1  0
  5 23  1  0
  7 24  1  0
  8 25  1  0
 11 26  1  0
 12 27  1  0
 13 28  1  0
 15 29  1  0
 16 30  1  0
 20 31  1  0
M  CHG  2   1  -1  20  -1
M  END
>  <UniqueID>  (6) 
6

>  <SMILES>  (6) 
[NH-]C(=O)c1cc2ccc(-c3cccnc3)cc2n1C([NH-])=O

>  <Energy>  (6) 
78.98685526882433

>  <Genealogy>  (6) 
[NH-]C(=O)c1cc2ccc(-c3cccnc3)cc2n1C([NH-])=O (protonated)
[NH-]C(=O)c1cc2ccc(-c3cccnc3)cc2n1C([NH-])=O (3D coordinates assigned)
[NH-]C(=O)c1cc2ccc(-c3cccnc3)cc2n1C([NH-])=O (optimized conformer: 78.98685526882433 kcal/mol)

>  <smiles>  (6) 
NC(=O)c1cc2ccc(-c3cccnc3)cc2n1C(N)=O

>  <score_type>  (6) 
oracle

>  <origin>  (6) 
adg

>  <m_score__min__energy>  (6) 
-11.06

>  <m_primary>  (6) 
energy

$$$$
6:0
     RDKit          3D

 37 38  0  0  0  0  0  0  0  0999 V2000
   -9.4540   19.8430  -32.7400 C   0  0  0  0  0  0  0  0  0  0  0  0
   -7.9960   19.9580  -32.5720 N   0  0  0  0  0  0  0  0  0  0  0  0
   -7.6980   20.6810  -31.3240 C   0  0  0  0  0  0  0  0  0  0  0  0
   -7.3630   18.6220  -32.5760 C   0  0  0  0  0  0  0  0  0  0  0  0
   -5.9030   18.7060  -33.0420 C   0  0  0  0  0  0  0  0  0  0  0  0
   -5.4460   20.0970  -33.0810 N   0  0  0  0  0  0  0  0  0  0  0  0
   -4.2550   20.5870  -32.4390 C   0  0  0  0  0  0  0  0  0  0  0  0
   -3.0250   19.8790  -32.5040 C   0  0  0  0  0  0  0  0  0  0  0  0
   -1.8730   20.3790  -31.8750 C   0  0  0  0  0  0  0  0  0  0  0  0
   -1.9740   21.5870  -31.1920 C   0  0  0  0  0  0  0  0  0  0  0  0
   -1.0130   22.3060  -30.5230 C   0  0  0  0  0  0  0  0  0  0  0  0
   -1.6660   23.4410  -30.0470 C   0  0  0  0  0  0  0  0  0  0  0  0
   -1.0120   24.4530  -29.1910 C   0  0  0  0  0  0  0  0  0  0  0  0
   -1.6100   25.7290  -28.9750 N   0  0  0  0  0  0  0  0  0  0  0  0
    0.0660   24.1710  -28.6020 O   0  0  0  0  0  0  0  0  0  0  0  0
   -2.9780   23.4280  -30.4160 N   0  0  0  0  0  0  0  0  0  0  0  0
   -3.9670   24.4480  -30.1990 C   0  0  0  0  0  0  0  0  0  0  0  0
   -4.9220   24.2490  -29.4030 O   0  0  0  0  0  0  0  0  0  0  0  0
   -3.8650   25.6740  -30.8460 O   0  0  0  0  0  0  0  0  0  0  0  0
   -3.1510   22.2840  -31.1150 C   0  0  0  0  0  0  0  0  0  0  0  0
   -4.3090   21.8180  -31.7490 C   0  0  0  0  0  0  0  0  0  0  0  0
   -9.9351   19.8051  -31.7515 H   0  0  0  0  0  0  0  0  0  0  0  0
   -9.8288   20.7144  -33.2970 H   0  0  0  0  0  0  0  0  0  0  0  0
   -9.6875   18.9236  -33.2970 H   0  0  0  0  0  0  0  0  0  0  0  0
   -7.9587   20.0485  -30.4626 H   0  0  0  0  0  0  0  0  0  0  0  0
   -6.6260   20.9250  -31.2886 H   0  0  0  0  0  0  0  0  0  0  0  0
   -8.2867   21.6095  -31.2886 H   0  0  0  0  0  0  0  0  0  0  0  0
   -7.3922   18.2072  -31.5576 H   0  0  0  0  0  0  0  0  0  0  0  0
   -7.9162   17.9744  -33.2722 H   0  0  0  0  0  0  0  0  0  0  0  0
   -5.2692   18.1381  -32.3450 H   0  0  0  0  0  0  0  0  0  0  0  0
   -5.8328   18.2845  -34.0556 H   0  0  0  0  0  0  0  0  0  0  0  0
   -6.0860   20.7920  -33.5290 H   0  0  0  0  0  0  0  0  0  0  0  0
   -2.9742   18.9275  -33.0537 H   0  0  0  0  0  0  0  0  0  0  0  0
   -0.9197   19.8321  -31.9210 H   0  0  0  0  0  0  0  0  0  0  0  0
    0.0466   22.0417  -30.3912 H   0  0  0  0  0  0  0  0  0  0  0  0
   -2.6440   25.8560  -29.0420 H   0  0  0  0  0  0  0  0  0  0  0  0
   -5.2422   22.3991  -31.7105 H   0  0  0  0  0  0  0  0  0  0  0  0
  1  2  1  0
  2  3  1  0
  2  4  1  0
  4  5  1  0
  5  6  1  0
  6  7  1  0
  7  8  2  0
  8  9  1  0
  9 10  2  0
 10 11  1  0
 11 12  2  0
 12 13  1  0
 13 14  1  0
 13 15  2  0
 12 16  1  0
 16 17  1  0
 17 18  2  0
 17 19  1  0
 16 20  1  0
 20 21  2  0
 21  7  1  0
 20 10  1  0
  1 22  1  0
  1 23  1  0
  1 24  1  0
  3 25  1  0
  3 26  1  0
  3 27  1  0
  4 28  1  0
  4 29  1  0
  5 30  1  0
  5 31  1  0
  6 32  1  0
  8 33  1  0
  9 34  1  0
 11 35  1  0
 14 36  1  0
 21 37  1  0
M  CHG  2  14  -1  19  -1
M  END
>  <UniqueID>  (7) 
7

>  <SMILES>  (7) 
CN(C)CCNc1ccc2cc(C([NH-])=O)n(C(=O)[O-])c2c1

>  <Energy>  (7) 
76.09473359400145

>  <Genealogy>  (7) 
CN(C)CCNc1ccc2cc(C([NH-])=O)n(C(=O)[O-])c2c1 (protonated)
CN(C)CCNc1ccc2cc(C([NH-])=O)n(C(=O)[O-])c2c1 (3D coordinates assigned)
CN(C)CCNc1ccc2cc(C([NH-])=O)n(C(=O)[O-])c2c1 (optimized conformer: 76.09473359400145 kcal/mol)

>  <smiles>  (7) 
CN(C)CCNc1ccc2cc(C(N)=O)n(C(=O)O)c2c1

>  <score_type>  (7) 
oracle

>  <origin>  (7) 
adg

>  <m_score__min__energy>  (7) 
-10.32

>  <m_primary>  (7) 
energy

$$$$
7:0
     RDKit          3D

 32 33  0  0  0  0  0  0  0  0999 V2000
   -3.6570   18.9930  -33.2210 C   0  0  0  0  0  0  0  0  0  0  0  0
   -5.1930   18.8530  -33.1890 C   0  0  0  0  0  0  0  0  0  0  0  0
   -5.6940   18.5430  -34.6110 C   0  0  0  0  0  0  0  0  0  0  0  0
   -5.5050   17.7010  -32.3140 C   0  0  0  0  0  0  0  0  0  0  0  0
   -5.7490   16.8010  -31.6300 N   0  0  0  0  0  0  0  0  0  0  0  0
   -5.9140   20.1030  -32.6610 C   0  0  0  0  0  0  0  0  0  0  0  0
   -7.3350   20.2310  -32.6820 C   0  0  0  0  0  0  0  0  0  0  0  0
   -7.9680   21.3740  -32.1710 C   0  0  0  0  0  0  0  0  0  0  0  0
   -7.1750   22.3730  -31.6200 C   0  0  0  0  0  0  0  0  0  0  0  0
   -7.5320   23.5880  -31.0840 C   0  0  0  0  0  0  0  0  0  0  0  0
   -6.3360   24.1790  -30.6900 C   0  0  0  0  0  0  0  0  0  0  0  0
   -6.2650   25.4820  -29.9980 C   0  0  0  0  0  0  0  0  0  0  0  0
   -5.3770   26.5080  -30.4440 N   0  0  0  0  0  0  0  0  0  0  0  0
   -6.9580   25.6710  -28.9630 O   0  0  0  0  0  0  0  0  0  0  0  0
   -5.2790   23.3710  -30.9810 N   0  0  0  0  0  0  0  0  0  0  0  0
   -3.8820   23.6810  -30.8390 C   0  0  0  0  0  0  0  0  0  0  0  0
   -3.0060   22.8030  -31.0580 O   0  0  0  0  0  0  0  0  0  0  0  0
   -3.4820   24.9570  -30.4600 O   0  0  0  0  0  0  0  0  0  0  0  0
   -5.8130   22.2650  -31.5510 C   0  0  0  0  0  0  0  0  0  0  0  0
   -5.1510   21.1470  -32.0710 C   0  0  0  0  0  0  0  0  0  0  0  0
   -3.2705   19.0282  -32.1917 H   0  0  0  0  0  0  0  0  0  0  0  0
   -3.2211   18.1309  -33.7470 H   0  0  0  0  0  0  0  0  0  0  0  0
   -3.3842   19.9197  -33.7470 H   0  0  0  0  0  0  0  0  0  0  0  0
   -6.6281   17.9650  -34.5528 H   0  0  0  0  0  0  0  0  0  0  0  0
   -5.8786   19.4850  -35.1482 H   0  0  0  0  0  0  0  0  0  0  0  0
   -4.9334   17.9575  -35.1482 H   0  0  0  0  0  0  0  0  0  0  0  0
   -7.9446   19.4195  -33.1061 H   0  0  0  0  0  0  0  0  0  0  0  0
   -9.0627   21.4765  -32.2056 H   0  0  0  0  0  0  0  0  0  0  0  0
   -8.5459   24.0035  -30.9875 H   0  0  0  0  0  0  0  0  0  0  0  0
   -5.3670   27.4360  -29.9660 H   0  0  0  0  0  0  0  0  0  0  0  0
   -4.6740   26.3240  -31.1930 H   0  0  0  0  0  0  0  0  0  0  0  0
   -4.0542   21.0771  -32.0237 H   0  0  0  0  0  0  0  0  0  0  0  0
  1  2  1  0
  2  3  1  0
  2  4  1  0
  4  5  3  0
  2  6  1  0
  6  7  2  0
  7  8  1  0
  8  9  2  0
  9 10  1  0
 10 11  2  0
 11 12  1  0
 12 13  1  0
 12 14  2  0
 11 15  1  0
 15 16  1  0
 16 17  2  0
 16 18  1  0
 15 19  1  0
 19 20  2  0
 20  6  1  0
 19  9  1  0
  1 21  1  0
  1 22  1  0
  1 23  1  0
  3 24  1  0
  3 25  1  0
  3 26  1  0
  7 27  1  0
  8 28  1  0
 10 29  1  0
 13 30  1  0
 13 31  1  0
 20 32  1  0
M  CHG  1  18  -1
M  END
>  <UniqueID>  (8) 
8

>  <SMILES>  (8) 
CC(C)(C#N)c1ccc2cc(C(N)=O)n(C(=O)[O-])c2c1

>  <Energy>  (8) 
73.40740371493597

>  <Genealogy>  (8) 
CC(C)(C#N)c1ccc2cc(C(N)=O)n(C(=O)[O-])c2c1 (protonated)
CC(C)(C#N)c1ccc2cc(C(N)=O)n(C(=O)[O-])c2c1 (3D coordinates assigned)
CC(C)(C#N)c1ccc2cc(C(N)=O)n(C(=O)[O-])c2c1 (optimized conformer: 73.40740371493597 kcal/mol)

>  <smiles>  (8) 
CC(C)(C#N)c1ccc2cc(C(N)=O)n(C(=O)O)c2c1

>  <score_type>  (8) 
oracle

>  <origin>  (8) 
adg

>  <m_score__min__energy>  (8) 
-9.2699999999999996

>  <m_primary>  (8) 
energy

$$$$
8:0
     RDKit          3D

 51 54  0  0  0  0  0  0  0  0999 V2000
   -3.3670   15.0340  -35.0840 C   0  0  0  0  0  0  0  0  0  0  0  0
   -4.2150   13.8740  -34.5670 C   0  0  0  0  0  0  0  0  0  0  0  0
   -5.4950   14.3330  -34.1350 O   0  0  0  0  0  0  0  0  0  0  0  0
   -5.7540   15.6480  -33.7330 C   0  0  0  0  0  0  0  0  0  0  0  0
   -5.4840   16.0310  -32.4220 C   0  0  0  0  0  0  0  0  0  0  0  0
   -5.7360   17.3410  -32.0300 C   0  0  0  0  0  0  0  0  0  0  0  0
   -6.2580   18.2560  -32.9600 C   0  0  0  0  0  0  0  0  0  0  0  0
   -6.5150   19.6710  -32.5780 C   0  0  0  0  0  0  0  0  0  0  0  0
   -7.8240   20.2160  -32.6720 C   0  0  0  0  0  0  0  0  0  0  0  0
   -8.0800   21.5450  -32.2950 C   0  0  0  0  0  0  0  0  0  0  0  0
   -7.0170   22.3010  -31.8120 C   0  0  0  0  0  0  0  0  0  0  0  0
   -6.9840   23.6010  -31.3590 C   0  0  0  0  0  0  0  0  0  0  0  0
   -5.6600   23.8260  -30.9820 C   0  0  0  0  0  0  0  0  0  0  0  0
   -5.1670   25.1030  -30.4300 C   0  0  0  0  0  0  0  0  0  0  0  0
   -3.9190   25.6490  -30.8470 N   0  0  0  0  0  0  0  0  0  0  0  0
   -5.8570   25.7230  -29.5750 O   0  0  0  0  0  0  0  0  0  0  0  0
   -4.9120   22.7080  -31.1900 N   0  0  0  0  0  0  0  0  0  0  0  0
   -3.5150   22.5230  -30.9160 C   0  0  0  0  0  0  0  0  0  0  0  0
   -2.9770   23.2010  -29.9970 O   0  0  0  0  0  0  0  0  0  0  0  0
   -2.6850   21.5050  -31.6660 C   0  0  0  0  0  0  0  0  0  0  0  0
   -2.8300   21.6210  -33.1950 C   0  0  0  0  0  0  0  0  0  0  0  0
   -1.8850   20.6260  -33.8810 C   0  0  0  0  0  0  0  0  0  0  0  0
   -0.5410   20.8620  -33.5060 O   0  0  0  0  0  0  0  0  0  0  0  0
   -0.3720   20.6250  -32.1190 C   0  0  0  0  0  0  0  0  0  0  0  0
   -1.2000   21.6140  -31.2840 C   0  0  0  0  0  0  0  0  0  0  0  0
   -5.7520   21.7880  -31.7050 C   0  0  0  0  0  0  0  0  0  0  0  0
   -5.4600   20.4780  -32.0910 C   0  0  0  0  0  0  0  0  0  0  0  0
   -6.5120   17.8230  -34.2320 N   0  0  0  0  0  0  0  0  0  0  0  0
   -6.2660   16.5640  -34.6000 N   0  0  0  0  0  0  0  0  0  0  0  0
   -2.9562   15.5960  -34.2323 H   0  0  0  0  0  0  0  0  0  0  0  0
   -2.5419   14.6408  -35.6961 H   0  0  0  0  0  0  0  0  0  0  0  0
   -3.9921   15.7009  -35.6961 H   0  0  0  0  0  0  0  0  0  0  0  0
   -4.3494   13.1384  -35.3738 H   0  0  0  0  0  0  0  0  0  0  0  0
   -3.6986   13.4149  -33.7111 H   0  0  0  0  0  0  0  0  0  0  0  0
   -5.0756   15.3048  -31.7038 H   0  0  0  0  0  0  0  0  0  0  0  0
   -5.5279   17.6593  -30.9978 H   0  0  0  0  0  0  0  0  0  0  0  0
   -8.6475   19.5892  -33.0448 H   0  0  0  0  0  0  0  0  0  0  0  0
   -9.0893   21.9742  -32.3791 H   0  0  0  0  0  0  0  0  0  0  0  0
   -7.8228   24.3106  -31.3058 H   0  0  0  0  0  0  0  0  0  0  0  0
   -3.0140   25.2950  -30.4610 H   0  0  0  0  0  0  0  0  0  0  0  0
   -3.0735   20.5201  -31.3675 H   0  0  0  0  0  0  0  0  0  0  0  0
   -3.8680   21.3968  -33.4819 H   0  0  0  0  0  0  0  0  0  0  0  0
   -2.5727   22.6434  -33.5088 H   0  0  0  0  0  0  0  0  0  0  0  0
   -2.1657   19.6033  -33.5888 H   0  0  0  0  0  0  0  0  0  0  0  0
   -1.9725   20.7534  -34.9701 H   0  0  0  0  0  0  0  0  0  0  0  0
   -0.6965   19.5997  -31.8875 H   0  0  0  0  0  0  0  0  0  0  0  0
    0.6905   20.7601  -31.8684 H   0  0  0  0  0  0  0  0  0  0  0  0
   -1.0799   21.3797  -30.2160 H   0  0  0  0  0  0  0  0  0  0  0  0
   -0.8491   22.6377  -31.4815 H   0  0  0  0  0  0  0  0  0  0  0  0
   -4.4357   20.0837  -32.0182 H   0  0  0  0  0  0  0  0  0  0  0  0
   -6.8800   18.4840  -34.9540 H   0  0  0  0  0  0  0  0  0  0  0  0
  1  2  1  0
  2  3  1  0
  3  4  1  0
  4  5  2  0
  5  6  1  0
  6  7  2  0
  7  8  1  0
  8  9  2  0
  9 10  1  0
 10 11  2  0
 11 12  1  0
 12 13  2  0
 13 14  1  0
 14 15  1  0
 14 16  2  0
 13 17  1  0
 17 18  1  0
 18 19  2  0
 18 20  1  0
 20 21  1  0
 21 22  1  0
 22 23  1  0
 23 24  1  0
 24 25  1  0
 17 26  1  0
 26 27  2  0
  7 28  1  0
 28 29  2  0
 29  4  1  0
 27  8  1  0
 26 11  1  0
 25 20  1  0
  1 30  1  0
  1 31  1  0
  1 32  1  0
  2 33  1  0
  2 34  1  0
  5 35  1  0
  6 36  1  0
  9 37  1  0
 10 38  1  0
 12 39  1  0
 15 40  1  0
 20 41  1  0
 21 42  1  0
 21 43  1  0
 22 44  1  0
 22 45  1  0
 24 46  1  0
 24 47  1  0
 25 48  1  0
 25 49  1  0
 27 50  1  0
 28 51  1  0
M  CHG  2  15  -1  28   1
M  END
>  <UniqueID>  (9) 
9

>  <SMILES>  (9) 
CCOc1ccc(-c2ccc3cc(C([NH-])=O)n(C(=O)C4CCOCC4)c3c2)[nH+]n1

>  <Energy>  (9) 
94.7652441395356

>  <Genealogy>  (9) 
CCOc1ccc(-c2ccc3cc(C([NH-])=O)n(C(=O)C4CCOCC4)c3c2)[nH+]n1 (protonated)
CCOc1ccc(-c2ccc3cc(C([NH-])=O)n(C(=O)C4CCOCC4)c3c2)[nH+]n1 (3D coordinates assigned)
CCOc1ccc(-c2ccc3cc(C([NH-])=O)n(C(=O)C4CCOCC4)c3c2)[nH+]n1 (nonaromatic ring conformer: 94.7652441395356 kcal/mol)

>  <smiles>  (9) 
CCOc1ccc(-c2ccc3cc(C(N)=O)n(C(=O)C4CCOCC4)c3c2)nn1

>  <score_type>  (9) 
oracle

>  <origin>  (9) 
adg

>  <m_score__min__energy>  (9) 
-11.289999999999999

>  <m_primary>  (9) 
energy

$$$$
9:0
     RDKit          3D

 42 44  0  0  0  0  0  0  0  0999 V2000
   -7.2190   23.3110  -30.5950 C   0  0  0  0  0  0  0  0  0  0  0  0
   -7.8760   23.0950  -31.9520 C   0  0  0  0  0  0  0  0  0  0  0  0
   -7.2280   22.0400  -32.6600 O   0  0  0  0  0  0  0  0  0  0  0  0
   -7.1700   20.7220  -32.1930 C   0  0  0  0  0  0  0  0  0  0  0  0
   -7.9880   20.3210  -31.3200 O   0  0  0  0  0  0  0  0  0  0  0  0
   -6.0480   19.8030  -32.6540 C   0  0  1  0  0  0  0  0  0  0  0  0
   -4.6640   20.2990  -32.1780 C   0  0  0  0  0  0  0  0  0  0  0  0
   -3.4830   19.5230  -32.3830 C   0  0  0  0  0  0  0  0  0  0  0  0
   -2.2350   19.9600  -31.9140 C   0  0  0  0  0  0  0  0  0  0  0  0
   -2.1800   21.1570  -31.2140 C   0  0  0  0  0  0  0  0  0  0  0  0
   -1.1020   21.8130  -30.6690 C   0  0  0  0  0  0  0  0  0  0  0  0
   -1.6270   22.9600  -30.0830 C   0  0  0  0  0  0  0  0  0  0  0  0
   -0.8120   23.9220  -29.3150 C   0  0  0  0  0  0  0  0  0  0  0  0
   -1.1170   25.3180  -29.3140 N   0  0  0  0  0  0  0  0  0  0  0  0
    0.1390   23.4980  -28.6040 O   0  0  0  0  0  0  0  0  0  0  0  0
   -2.9760   23.0220  -30.2690 N   0  0  0  0  0  0  0  0  0  0  0  0
   -3.8550   24.1030  -29.9120 C   0  0  0  0  0  0  0  0  0  0  0  0
   -4.7000   23.9610  -28.9890 O   0  0  0  0  0  0  0  0  0  0  0  0
   -3.7830   25.3170  -30.5860 O   0  0  0  0  0  0  0  0  0  0  0  0
   -3.2990   21.9060  -30.9640 C   0  0  0  0  0  0  0  0  0  0  0  0
   -4.5530   21.5090  -31.4400 C   0  0  0  0  0  0  0  0  0  0  0  0
   -6.3320   18.3640  -32.2140 C   0  0  0  0  0  0  0  0  0  0  0  0
   -6.0820   17.5240  -33.4620 C   0  0  0  0  0  0  0  0  0  0  0  0
   -5.6150   18.3580  -34.4960 O   0  0  0  0  0  0  0  0  0  0  0  0
   -6.0490   19.6560  -34.1810 C   0  0  0  0  0  0  0  0  0  0  0  0
   -7.9386   23.0744  -29.7974 H   0  0  0  0  0  0  0  0  0  0  0  0
   -6.3414   22.6541  -30.5038 H   0  0  0  0  0  0  0  0  0  0  0  0
   -6.9025   24.3605  -30.5038 H   0  0  0  0  0  0  0  0  0  0  0  0
   -8.9345   22.8346  -31.8041 H   0  0  0  0  0  0  0  0  0  0  0  0
   -7.7911   24.0213  -32.5392 H   0  0  0  0  0  0  0  0  0  0  0  0
   -3.5530   18.5648  -32.9186 H   0  0  0  0  0  0  0  0  0  0  0  0
   -1.3248   19.3698  -32.0962 H   0  0  0  0  0  0  0  0  0  0  0  0
   -0.0483   21.4979  -30.6915 H   0  0  0  0  0  0  0  0  0  0  0  0
   -0.5090   25.9860  -28.7920 H   0  0  0  0  0  0  0  0  0  0  0  0
   -1.9920   25.6800  -29.7530 H   0  0  0  0  0  0  0  0  0  0  0  0
   -5.4428   22.1258  -31.2456 H   0  0  0  0  0  0  0  0  0  0  0  0
   -5.6528   18.0649  -31.4021 H   0  0  0  0  0  0  0  0  0  0  0  0
   -7.3537   18.2404  -31.8256 H   0  0  0  0  0  0  0  0  0  0  0  0
   -5.3282   16.7536  -33.2420 H   0  0  0  0  0  0  0  0  0  0  0  0
   -7.0182   17.0380  -33.7738 H   0  0  0  0  0  0  0  0  0  0  0  0
   -5.3674   20.3953  -34.6269 H   0  0  0  0  0  0  0  0  0  0  0  0
   -7.0603   19.8261  -34.5790 H   0  0  0  0  0  0  0  0  0  0  0  0
  1  2  1  0
  2  3  1  0
  3  4  1  0
  4  5  2  0
  6  4  1  6
  6  7  1  0
  7  8  2  0
  8  9  1  0
  9 10  2  0
 10 11  1  0
 11 12  2  0
 12 13  1  0
 13 14  1  0
 13 15  2  0
 12 16  1  0
 16 17  1  0
 17 18  2  0
 17 19  1  0
 16 20  1  0
 20 21  2  0
  6 22  1  0
 22 23  1  0
 23 24  1  0
 24 25  1  0
 25  6  1  0
 21  7  1  0
 20 10  1  0
  1 26  1  0
  1 27  1  0
  1 28  1  0
  2 29  1  0
  2 30  1  0
  8 31  1  0
  9 32  1  0
 11 33  1  0
 14 34  1  0
 14 35  1  0
 21 36  1  0
 22 37  1  0
 22 38  1  0
 23 39  1  0
 23 40  1  0
 25 41  1  0
 25 42  1  0
M  CHG  1  19  -1
M  END
>  <UniqueID>  (10) 
10

>  <SMILES>  (10) 
CCOC(=O)[C@@]1(c2ccc3cc(C(N)=O)n(C(=O)[O-])c3c2)CCOC1

>  <Energy>  (10) 
88.15622585049853

>  <Genealogy>  (10) 
CCOC(=O)C1(c2ccc3cc(C(N)=O)n(C(=O)[O-])c3c2)CCOC1 (protonated)
CCOC(=O)[C@@]1(c2ccc3cc(C(N)=O)n(C(=O)[O-])c3c2)CCOC1 (chirality)
CCOC(=O)[C@@]1(c2ccc3cc(C(N)=O)n(C(=O)[O-])c3c2)CCOC1 (3D coordinates assigned)
CCOC(=O)[C@@]1(c2ccc3cc(C(N)=O)n(C(=O)[O-])c3c2)CCOC1 (nonaromatic ring conformer: 88.15622585049853 kcal/mol)

>  <smiles>  (10) 
CCOC(=O)C1(c2ccc3cc(C(N)=O)n(C(=O)O)c3c2)CCOC1

>  <score_type>  (10) 
oracle

>  <origin>  (10) 
adg

>  <m_score__min__energy>  (10) 
-9.2699999999999996

>  <m_primary>  (10) 
energy

$$$$
10:0
     RDKit          3D

 38 40  0  0  0  0  0  0  0  0999 V2000
   -2.4550   14.4120  -34.3690 C   0  0  0  0  0  0  0  0  0  0  0  0
   -2.4660   15.8270  -35.4450 S   0  0  0  0  0  0  0  0  0  0  0  0
   -3.1030   15.4580  -36.7550 O   0  0  0  0  0  0  0  0  0  0  0  0
   -1.0540   16.2740  -35.7040 O   0  0  0  0  0  0  0  0  0  0  0  0
   -3.3740   17.1300  -34.6870 C   0  0  0  0  0  0  0  0  0  0  0  0
   -2.7100   18.1030  -33.9290 C   0  0  0  0  0  0  0  0  0  0  0  0
   -3.4280   19.1470  -33.3370 C   0  0  0  0  0  0  0  0  0  0  0  0
   -4.8220   19.2370  -33.4990 C   0  0  0  0  0  0  0  0  0  0  0  0
   -5.5840   20.3450  -32.8710 C   0  0  0  0  0  0  0  0  0  0  0  0
   -7.0040   20.3320  -32.8770 C   0  0  0  0  0  0  0  0  0  0  0  0
   -7.7350   21.3690  -32.2740 C   0  0  0  0  0  0  0  0  0  0  0  0
   -7.0260   22.4090  -31.6830 C   0  0  0  0  0  0  0  0  0  0  0  0
   -7.4840   23.5140  -31.0030 C   0  0  0  0  0  0  0  0  0  0  0  0
   -6.3420   24.2060  -30.6150 C   0  0  0  0  0  0  0  0  0  0  0  0
   -6.3790   25.5020  -29.9080 C   0  0  0  0  0  0  0  0  0  0  0  0
   -5.5390   26.5860  -30.3070 N   0  0  0  0  0  0  0  0  0  0  0  0
   -7.2040   25.6720  -28.9720 O   0  0  0  0  0  0  0  0  0  0  0  0
   -5.2180   23.5520  -31.0250 N   0  0  0  0  0  0  0  0  0  0  0  0
   -3.8540   23.8860  -30.7150 C   0  0  0  0  0  0  0  0  0  0  0  0
   -2.9760   22.9860  -30.6460 O   0  0  0  0  0  0  0  0  0  0  0  0
   -3.4910   25.2060  -30.4810 O   0  0  0  0  0  0  0  0  0  0  0  0
   -5.6560   22.4520  -31.6820 C   0  0  0  0  0  0  0  0  0  0  0  0
   -4.9020   21.4220  -32.2570 C   0  0  0  0  0  0  0  0  0  0  0  0
   -5.4800   18.2600  -34.2690 C   0  0  0  0  0  0  0  0  0  0  0  0
   -4.7600   17.2180  -34.8590 C   0  0  0  0  0  0  0  0  0  0  0  0
   -2.4576   14.7479  -33.3215 H   0  0  0  0  0  0  0  0  0  0  0  0
   -3.3484   13.7993  -34.5598 H   0  0  0  0  0  0  0  0  0  0  0  0
   -1.5522   13.8133  -34.5598 H   0  0  0  0  0  0  0  0  0  0  0  0
   -1.6192   18.0457  -33.7988 H   0  0  0  0  0  0  0  0  0  0  0  0
   -2.8981   19.9038  -32.7399 H   0  0  0  0  0  0  0  0  0  0  0  0
   -7.5379   19.5000  -33.3595 H   0  0  0  0  0  0  0  0  0  0  0  0
   -8.8349   21.3586  -32.2695 H   0  0  0  0  0  0  0  0  0  0  0  0
   -8.5305   23.7910  -30.8079 H   0  0  0  0  0  0  0  0  0  0  0  0
   -4.9660   26.5330  -31.1780 H   0  0  0  0  0  0  0  0  0  0  0  0
   -5.5530   27.4830  -29.7720 H   0  0  0  0  0  0  0  0  0  0  0  0
   -3.8026   21.4494  -32.2320 H   0  0  0  0  0  0  0  0  0  0  0  0
   -6.5698   18.3171  -34.4075 H   0  0  0  0  0  0  0  0  0  0  0  0
   -5.2855   16.4628  -35.4619 H   0  0  0  0  0  0  0  0  0  0  0  0
  1  2  1  0
  2  3  2  0
  2  4  2  0
  2  5  1  0
  5  6  2  0
  6  7  1  0
  7  8  2  0
  8  9  1  0
  9 10  2  0
 10 11  1  0
 11 12  2  0
 12 13  1  0
 13 14  2  0
 14 15  1  0
 15 16  1  0
 15 17  2  0
 14 18  1  0
 18 19  1  0
 19 20  2  0
 19 21  1  0
 18 22  1  0
 22 23  2  0
  8 24  1  0
 24 25  2  0
 25  5  1  0
 23  9  1  0
 22 12  1  0
  1 26  1  0
  1 27  1  0
  1 28  1  0
  6 29  1  0
  7 30  1  0
 10 31  1  0
 11 32  1  0
 13 33  1  0
 16 34  1  0
 16 35  1  0
 23 36  1  0
 24 37  1  0
 25 38  1  0
M  CHG  1  21  -1
M  END
>  <UniqueID>  (11) 
11

>  <SMILES>  (11) 
CS(=O)(=O)c1ccc(-c2ccc3cc(C(N)=O)n(C(=O)[O-])c3c2)cc1

>  <Energy>  (11) 
83.24791557677808

>  <Genealogy>  (11) 
CS(=O)(=O)c1ccc(-c2ccc3cc(C(N)=O)n(C(=O)[O-])c3c2)cc1 (protonated)
CS(=O)(=O)c1ccc(-c2ccc3cc(C(N)=O)n(C(=O)[O-])c3c2)cc1 (3D coordinates assigned)
CS(=O)(=O)c1ccc(-c2ccc3cc(C(N)=O)n(C(=O)[O-])c3c2)cc1 (optimized conformer: 83.24791557677808 kcal/mol)

>  <smiles>  (11) 
CS(=O)(=O)c1ccc(-c2ccc3cc(C(N)=O)n(C(=O)O)c3c2)cc1

>  <score_type>  (11) 
oracle

>  <origin>  (11) 
adg

>  <m_score__min__energy>  (11) 
-9.7899999999999991

>  <m_primary>  (11) 
energy

$$$$
11:0
     RDKit          3D

 50 52  0  0  0  0  0  0  0  0999 V2000
   -4.1410   24.0930  -28.3580 C   0  0  0  0  0  0  0  0  0  0  0  0
   -3.1780   24.4820  -29.4750 C   0  0  0  0  0  0  0  0  0  0  0  0
   -3.8460   25.2680  -30.4600 O   0  0  0  0  0  0  0  0  0  0  0  0
   -5.2270   25.2170  -30.6790 C   0  0  0  0  0  0  0  0  0  0  0  0
   -6.0040   26.0290  -30.1050 O   0  0  0  0  0  0  0  0  0  0  0  0
   -5.7880   24.1610  -31.5820 C   0  0  0  0  0  0  0  0  0  0  0  0
   -7.2240   23.7920  -31.1920 C   0  0  0  0  0  0  0  0  0  0  0  0
   -7.5560   22.3690  -31.5610 C   0  0  0  0  0  0  0  0  0  0  0  0
   -8.9050   21.9390  -31.5990 C   0  0  0  0  0  0  0  0  0  0  0  0
   -9.2250   20.6210  -31.9660 C   0  0  0  0  0  0  0  0  0  0  0  0
   -8.1780   19.7600  -32.2840 C   0  0  0  0  0  0  0  0  0  0  0  0
   -8.2100   18.4470  -32.6930 C   0  0  0  0  0  0  0  0  0  0  0  0
   -6.8790   18.0890  -32.8800 C   0  0  0  0  0  0  0  0  0  0  0  0
   -6.4520   16.7260  -33.2550 C   0  0  0  0  0  0  0  0  0  0  0  0
   -5.3740   16.0770  -32.5810 N   0  0  0  0  0  0  0  0  0  0  0  0
   -7.0920   16.0990  -34.1410 O   0  0  0  0  0  0  0  0  0  0  0  0
   -6.0520   19.1390  -32.6170 N   0  0  0  0  0  0  0  0  0  0  0  0
   -4.6290   19.1990  -32.8220 C   0  0  0  0  0  0  0  0  0  0  0  0
   -3.8970   18.2390  -32.4560 O   0  0  0  0  0  0  0  0  0  0  0  0
   -4.0620   20.3230  -33.4330 O   0  0  0  0  0  0  0  0  0  0  0  0
   -2.7200   20.3670  -33.9140 C   0  0  0  0  0  0  0  0  0  0  0  0
   -1.7900   21.0010  -32.8720 C   0  0  0  0  0  0  0  0  0  0  0  0
   -0.9040   21.8890  -33.4540 F   0  0  0  0  0  0  0  0  0  0  0  0
   -1.0510   19.9660  -32.0730 C   0  0  0  0  0  0  0  0  0  0  0  0
   -0.1810   19.0640  -32.5880 F   0  0  0  0  0  0  0  0  0  0  0  0
   -1.3620   20.0520  -30.7900 C   0  0  0  0  0  0  0  0  0  0  0  0
   -0.8620   19.2600  -29.8090 F   0  0  0  0  0  0  0  0  0  0  0  0
   -2.3120   21.1290  -30.6080 C   0  0  0  0  0  0  0  0  0  0  0  0
   -2.8450   21.5260  -29.4280 F   0  0  0  0  0  0  0  0  0  0  0  0
   -2.5650   21.6820  -31.7840 C   0  0  0  0  0  0  0  0  0  0  0  0
   -3.3990   22.7360  -31.9650 F   0  0  0  0  0  0  0  0  0  0  0  0
   -6.8650   20.1580  -32.2480 C   0  0  0  0  0  0  0  0  0  0  0  0
   -6.5220   21.4730  -31.9090 C   0  0  0  0  0  0  0  0  0  0  0  0
   -3.6683   24.2840  -27.3833 H   0  0  0  0  0  0  0  0  0  0  0  0
   -5.0610   24.6900  -28.4426 H   0  0  0  0  0  0  0  0  0  0  0  0
   -4.3882   23.0245  -28.4426 H   0  0  0  0  0  0  0  0  0  0  0  0
   -2.3470   25.0641  -29.0500 H   0  0  0  0  0  0  0  0  0  0  0  0
   -2.7960   23.5663  -29.9500 H   0  0  0  0  0  0  0  0  0  0  0  0
   -5.7838   24.5360  -32.6161 H   0  0  0  0  0  0  0  0  0  0  0  0
   -5.1633   23.2604  -31.4891 H   0  0  0  0  0  0  0  0  0  0  0  0
   -7.3404   23.9144  -30.1050 H   0  0  0  0  0  0  0  0  0  0  0  0
   -7.9086   24.4560  -31.7402 H   0  0  0  0  0  0  0  0  0  0  0  0
   -9.7092   22.6430  -31.3389 H   0  0  0  0  0  0  0  0  0  0  0  0
  -10.2702   20.2800  -32.0010 H   0  0  0  0  0  0  0  0  0  0  0  0
   -9.0983   17.8152  -32.8406 H   0  0  0  0  0  0  0  0  0  0  0  0
   -4.9430   16.4930  -31.7240 H   0  0  0  0  0  0  0  0  0  0  0  0
   -5.0410   15.1410  -32.9050 H   0  0  0  0  0  0  0  0  0  0  0  0
   -2.3790   19.3430  -34.1265 H   0  0  0  0  0  0  0  0  0  0  0  0
   -2.6926   20.9766  -34.8292 H   0  0  0  0  0  0  0  0  0  0  0  0
   -5.4717   21.7999  -31.9138 H   0  0  0  0  0  0  0  0  0  0  0  0
  1  2  1  0
  2  3  1  0
  3  4  1  0
  4  5  2  0
  4  6  1  0
  6  7  1  0
  7  8  1  0
  8  9  2  0
  9 10  1  0
 10 11  2  0
 11 12  1  0
 12 13  2  0
 13 14  1  0
 14 15  1  0
 14 16  2  0
 13 17  1  0
 17 18  1  0
 18 19  2  0
 18 20  1  0
 20 21  1  0
 21 22  1  0
 22 23  1  0
 22 24  1  0
 24 25  1  0
 24 26  2  0
 26 27  1  0
 26 28  1  0
 28 29  1  0
 28 30  2  0
 30 31  1  0
 17 32  1  0
 32 33  2  0
 33  8  1  0
 32 11  1  0
 30 22  1  0
  1 34  1  0
  1 35  1  0
  1 36  1  0
  2 37  1  0
  2 38  1  0
  6 39  1  0
  6 40  1  0
  7 41  1  0
  7 42  1  0
  9 43  1  0
 10 44  1  0
 12 45  1  0
 15 46  1  0
 15 47  1  0
 21 48  1  0
 21 49  1  0
 33 50  1  0
M  END
>  <UniqueID>  (12) 
12

>  <SMILES>  (12) 
CCOC(=O)CCc1ccc2cc(C(N)=O)n(C(=O)OCC3(F)C(F)=C(F)C(F)=C3F)c2c1

>  <Energy>  (12) 
96.05631034516496

>  <Genealogy>  (12) 
CCOC(=O)CCc1ccc2cc(C(N)=O)n(C(=O)OCC3(F)C(F)=C(F)C(F)=C3F)c2c1 (3D coordinates assigned)
CCOC(=O)CCc1ccc2cc(C(N)=O)n(C(=O)OCC3(F)C(F)=C(F)C(F)=C3F)c2c1 (nonaromatic ring conformer: 96.05631034516496 kcal/mol)

>  <smiles>  (12) 
CCOC(=O)CCc1ccc2cc(C(N)=O)n(C(=O)OCC3(F)C(F)=C(F)C(F)=C3F)c2c1

>  <score_type>  (12) 
oracle

>  <origin>  (12) 
adg

>  <m_score__min__energy>  (12) 
-9.2300000000000004

>  <m_primary>  (12) 
energy

$$$$
12:0
     RDKit          3D

 48 50  0  0  0  0  0  0  0  0999 V2000
   -6.7930   22.7040  -29.7830 C   0  0  0  0  0  0  0  0  0  0  0  0
   -7.3620   23.7920  -30.5940 N   0  0  0  0  0  0  0  0  0  0  0  0
   -6.4150   24.9190  -30.6370 C   0  0  0  0  0  0  0  0  0  0  0  0
   -7.6750   23.3040  -31.9560 C   0  0  0  0  0  0  0  0  0  0  0  0
   -8.8950   22.3710  -31.9520 C   0  0  0  0  0  0  0  0  0  0  0  0
   -8.4870   20.9320  -32.1260 C   0  0  0  0  0  0  0  0  0  0  0  0
   -9.4540   19.9000  -32.0280 C   0  0  0  0  0  0  0  0  0  0  0  0
   -9.0920   18.5580  -32.2320 C   0  0  0  0  0  0  0  0  0  0  0  0
   -7.7630   18.2790  -32.5340 C   0  0  0  0  0  0  0  0  0  0  0  0
   -7.1470   17.0780  -32.8110 C   0  0  0  0  0  0  0  0  0  0  0  0
   -5.8140   17.3970  -33.0720 C   0  0  0  0  0  0  0  0  0  0  0  0
   -4.7570   16.4040  -33.3750 C   0  0  0  0  0  0  0  0  0  0  0  0
   -3.9920   16.4890  -34.5800 N   0  0  0  0  0  0  0  0  0  0  0  0
   -4.5320   15.4590  -32.5750 O   0  0  0  0  0  0  0  0  0  0  0  0
   -5.6150   18.7400  -32.9500 N   0  0  0  0  0  0  0  0  0  0  0  0
   -4.4070   19.4710  -33.2180 C   0  0  0  0  0  0  0  0  0  0  0  0
   -3.6680   19.1070  -34.1720 O   0  0  0  0  0  0  0  0  0  0  0  0
   -4.0250   20.6450  -32.3980 C   0  0  0  0  0  0  0  0  0  0  0  0
   -3.1910   20.4890  -31.2790 C   0  0  0  0  0  0  0  0  0  0  0  0
   -2.8210   21.5950  -30.5090 C   0  0  0  0  0  0  0  0  0  0  0  0
   -3.2850   22.8810  -30.8380 C   0  0  0  0  0  0  0  0  0  0  0  0
   -2.8940   24.0550  -30.0270 C   0  0  0  0  0  0  0  0  0  0  0  0
   -2.0100   23.9520  -29.1350 O   0  0  0  0  0  0  0  0  0  0  0  0
   -3.4990   25.2880  -30.2360 O   0  0  0  0  0  0  0  0  0  0  0  0
   -4.1280   23.0360  -31.9500 C   0  0  0  0  0  0  0  0  0  0  0  0
   -4.4970   21.9300  -32.7200 C   0  0  0  0  0  0  0  0  0  0  0  0
   -6.8160   19.2650  -32.6290 C   0  0  0  0  0  0  0  0  0  0  0  0
   -7.1500   20.6110  -32.4460 C   0  0  0  0  0  0  0  0  0  0  0  0
   -6.9161   22.9394  -28.7156 H   0  0  0  0  0  0  0  0  0  0  0  0
   -7.3146   21.7634  -30.0136 H   0  0  0  0  0  0  0  0  0  0  0  0
   -5.7229   22.5959  -30.0136 H   0  0  0  0  0  0  0  0  0  0  0  0
   -6.1597   25.2228  -29.6111 H   0  0  0  0  0  0  0  0  0  0  0  0
   -5.5013   24.6102  -31.1660 H   0  0  0  0  0  0  0  0  0  0  0  0
   -6.8766   25.7658  -31.1660 H   0  0  0  0  0  0  0  0  0  0  0  0
   -7.8865   24.1665  -32.6051 H   0  0  0  0  0  0  0  0  0  0  0  0
   -6.8083   22.7379  -32.3279 H   0  0  0  0  0  0  0  0  0  0  0  0
   -9.4252   22.4793  -30.9943 H   0  0  0  0  0  0  0  0  0  0  0  0
   -9.5469   22.6500  -32.7930 H   0  0  0  0  0  0  0  0  0  0  0  0
  -10.4978   20.1525  -31.7899 H   0  0  0  0  0  0  0  0  0  0  0  0
   -9.8369   17.7522  -32.1553 H   0  0  0  0  0  0  0  0  0  0  0  0
   -7.6083   16.0795  -32.8237 H   0  0  0  0  0  0  0  0  0  0  0  0
   -3.2760   15.7600  -34.7950 H   0  0  0  0  0  0  0  0  0  0  0  0
   -4.0980   17.2910  -35.2390 H   0  0  0  0  0  0  0  0  0  0  0  0
   -2.8259   19.4878  -31.0063 H   0  0  0  0  0  0  0  0  0  0  0  0
   -2.1618   21.4585  -29.6390 H   0  0  0  0  0  0  0  0  0  0  0  0
   -4.5008   24.0358  -32.2171 H   0  0  0  0  0  0  0  0  0  0  0  0
   -5.1623   22.0656  -33.5854 H   0  0  0  0  0  0  0  0  0  0  0  0
   -6.3900   21.3995  -32.5488 H   0  0  0  0  0  0  0  0  0  0  0  0
  1  2  1  0
  2  3  1  0
  2  4  1  0
  4  5  1  0
  5  6  1  0
  6  7  2  0
  7  8  1  0
  8  9  2  0
  9 10  1  0
 10 11  2  0
 11 12  1  0
 12 13  1  0
 12 14  2  0
 11 15  1  0
 15 16  1  0
 16 17  2  0
 16 18  1  0
 18 19  2  0
 19 20  1  0
 20 21  2  0
 21 22  1  0
 22 23  2  0
 22 24  1  0
 21 25  1  0
 25 26  2  0
 15 27  1  0
 27 28  2  0
 28  6  1  0
 27  9  1  0
 26 18  1  0
  1 29  1  0
  1 30  1  0
  1 31  1  0
  3 32  1  0
  3 33  1  0
  3 34  1  0
  4 35  1  0
  4 36  1  0
  5 37  1  0
  5 38  1  0
  7 39  1  0
  8 40  1  0
 10 41  1  0
 13 42  1  0
 13 43  1  0
 19 44  1  0
 20 45  1  0
 25 46  1  0
 26 47  1  0
 28 48  1  0
M  CHG  1  24  -1
M  END
>  <UniqueID>  (13) 
13

>  <SMILES>  (13) 
CN(C)CCc1ccc2cc(C(N)=O)n(C(=O)c3ccc(C(=O)[O-])cc3)c2c1

>  <Energy>  (13) 
88.67946238166769

>  <Genealogy>  (13) 
CN(C)CCc1ccc2cc(C(N)=O)n(C(=O)c3ccc(C(=O)[O-])cc3)c2c1 (protonated)
CN(C)CCc1ccc2cc(C(N)=O)n(C(=O)c3ccc(C(=O)[O-])cc3)c2c1 (3D coordinates assigned)
CN(C)CCc1ccc2cc(C(N)=O)n(C(=O)c3ccc(C(=O)[O-])cc3)c2c1 (optimized conformer: 88.67946238166769 kcal/mol)

>  <smiles>  (13) 
CN(C)CCc1ccc2cc(C(N)=O)n(C(=O)c3ccc(C(=O)O)cc3)c2c1

>  <score_type>  (13) 
oracle

>  <origin>  (13) 
adg

>  <m_score__min__energy>  (13) 
-10.460000000000001

>  <m_primary>  (13) 
energy

$$$$
13:0
     RDKit          3D

 35 36  0  0  0  0  0  0  0  0999 V2000
   -2.9450   21.1360  -33.4590 C   0  0  0  0  0  0  0  0  0  0  0  0
   -3.2140   21.2760  -32.0700 O   0  0  0  0  0  0  0  0  0  0  0  0
   -3.8080   22.4290  -31.5160 C   0  0  0  0  0  0  0  0  0  0  0  0
   -3.0780   23.4210  -31.1920 O   0  0  0  0  0  0  0  0  0  0  0  0
   -5.2440   22.5150  -31.3660 N   0  0  0  0  0  0  0  0  0  0  0  0
   -5.9560   23.6080  -30.9670 C   0  0  0  0  0  0  0  0  0  0  0  0
   -5.3980   24.8160  -30.3240 C   0  0  0  0  0  0  0  0  0  0  0  0
   -5.8150   25.1980  -29.0090 N   0  0  0  0  0  0  0  0  0  0  0  0
   -4.5940   25.5540  -30.9680 O   0  0  0  0  0  0  0  0  0  0  0  0
   -7.3210   23.4090  -31.1410 C   0  0  0  0  0  0  0  0  0  0  0  0
   -7.4390   22.1340  -31.6340 C   0  0  0  0  0  0  0  0  0  0  0  0
   -8.5810   21.4170  -31.9670 C   0  0  0  0  0  0  0  0  0  0  0  0
   -8.4260   20.1130  -32.4520 C   0  0  0  0  0  0  0  0  0  0  0  0
   -7.1400   19.5450  -32.5950 C   0  0  0  0  0  0  0  0  0  0  0  0
   -7.0060   18.1200  -33.0940 C   0  0  0  0  0  0  0  0  0  0  0  0
   -6.4850   17.2000  -31.9860 C   0  0  0  0  0  0  0  0  0  0  0  0
   -6.1150   18.0480  -34.3380 C   0  0  0  0  0  0  0  0  0  0  0  0
   -5.9990   20.3100  -32.2530 C   0  0  0  0  0  0  0  0  0  0  0  0
   -6.1760   21.6100  -31.7600 C   0  0  0  0  0  0  0  0  0  0  0  0
   -1.9768   20.6321  -33.5960 H   0  0  0  0  0  0  0  0  0  0  0  0
   -3.7397   20.5371  -33.9278 H   0  0  0  0  0  0  0  0  0  0  0  0
   -2.9104   22.1305  -33.9278 H   0  0  0  0  0  0  0  0  0  0  0  0
   -5.3650   26.0170  -28.5480 H   0  0  0  0  0  0  0  0  0  0  0  0
   -6.5410   24.6450  -28.4900 H   0  0  0  0  0  0  0  0  0  0  0  0
   -8.1323   24.1210  -30.9289 H   0  0  0  0  0  0  0  0  0  0  0  0
   -9.5805   21.8619  -31.8527 H   0  0  0  0  0  0  0  0  0  0  0  0
   -9.3144   19.5244  -32.7246 H   0  0  0  0  0  0  0  0  0  0  0  0
   -8.0075   17.7686  -33.3831 H   0  0  0  0  0  0  0  0  0  0  0  0
   -6.7300   17.6326  -31.0048 H   0  0  0  0  0  0  0  0  0  0  0  0
   -6.9569   16.2107  -32.0787 H   0  0  0  0  0  0  0  0  0  0  0  0
   -5.3939   17.0959  -32.0787 H   0  0  0  0  0  0  0  0  0  0  0  0
   -5.0623   17.9629  -34.0306 H   0  0  0  0  0  0  0  0  0  0  0  0
   -6.3938   17.1695  -34.9384 H   0  0  0  0  0  0  0  0  0  0  0  0
   -6.2491   18.9599  -34.9384 H   0  0  0  0  0  0  0  0  0  0  0  0
   -4.9891   19.8906  -32.3723 H   0  0  0  0  0  0  0  0  0  0  0  0
  1  2  1  0
  2  3  1  0
  3  4  2  0
  3  5  1  0
  5  6  1  0
  6  7  1  0
  7  8  1  0
  7  9  2  0
  6 10  2  0
 10 11  1  0
 11 12  2  0
 12 13  1  0
 13 14  2  0
 14 15  1  0
 15 16  1  0
 15 17  1  0
 14 18  1  0
 18 19  2  0
 19  5  1  0
 19 11  1  0
  1 20  1  0
  1 21  1  0
  1 22  1  0
  8 23  1  0
  8 24  1  0
 10 25  1  0
 12 26  1  0
 13 27  1  0
 15 28  1  0
 16 29  1  0
 16 30  1  0
 16 31  1  0
 17 32  1  0
 17 33  1  0
 17 34  1  0
 18 35  1  0
M  END
>  <UniqueID>  (14) 
14

>  <SMILES>  (14) 
COC(=O)n1c(C(N)=O)cc2ccc(C(C)C)cc21

>  <Energy>  (14) 
70.7282510218863

>  <Genealogy>  (14) 
COC(=O)n1c(C(N)=O)cc2ccc(C(C)C)cc21 (3D coordinates assigned)
COC(=O)n1c(C(N)=O)cc2ccc(C(C)C)cc21 (optimized conformer: 70.7282510218863 kcal/mol)

>  <smiles>  (14) 
COC(=O)n1c(C(N)=O)cc2ccc(C(C)C)cc21

>  <score_type>  (14) 
oracle

>  <origin>  (14) 
adg

>  <m_score__min__energy>  (14) 
-8.5800000000000001

>  <m_primary>  (14) 
energy

$$$$
14:0
     RDKit          3D

 39 41  0  0  0  0  0  0  0  0999 V2000
   -8.2320   22.2710  -31.9540 C   0  0  0  0  0  0  0  0  0  0  0  0
   -8.1940   20.8150  -31.7400 N   0  0  0  0  0  0  0  0  0  0  0  0
   -8.4430   20.0790  -32.9900 C   0  0  0  0  0  0  0  0  0  0  0  0
   -7.4620   18.9240  -33.0390 C   0  0  0  0  0  0  0  0  0  0  0  0
   -6.2660   19.4130  -32.2420 C   0  0  1  0  0  0  0  0  0  0  0  0
   -5.2320   20.1090  -33.1590 C   0  0  0  0  0  0  0  0  0  0  0  0
   -4.0530   20.6370  -32.3800 C   0  0  0  0  0  0  0  0  0  0  0  0
   -2.8480   19.8940  -32.3160 C   0  0  0  0  0  0  0  0  0  0  0  0
   -1.7450   20.3790  -31.5940 C   0  0  0  0  0  0  0  0  0  0  0  0
   -1.8730   21.6090  -30.9560 C   0  0  0  0  0  0  0  0  0  0  0  0
   -0.9760   22.2970  -30.1730 C   0  0  0  0  0  0  0  0  0  0  0  0
   -1.6360   23.4630  -29.7910 C   0  0  0  0  0  0  0  0  0  0  0  0
   -0.9940   24.5370  -29.0040 C   0  0  0  0  0  0  0  0  0  0  0  0
   -1.6860   25.7480  -28.7130 N   0  0  0  0  0  0  0  0  0  0  0  0
    0.2010   24.4030  -28.6240 O   0  0  0  0  0  0  0  0  0  0  0  0
   -2.8970   23.4910  -30.3090 N   0  0  0  0  0  0  0  0  0  0  0  0
   -3.9230   24.4710  -30.0840 C   0  0  0  0  0  0  0  0  0  0  0  0
   -4.8460   24.2480  -29.2570 O   0  0  0  0  0  0  0  0  0  0  0  0
   -3.9210   25.6650  -30.7940 O   0  0  0  0  0  0  0  0  0  0  0  0
   -3.0260   22.3500  -31.0220 C   0  0  0  0  0  0  0  0  0  0  0  0
   -4.1460   21.8810  -31.7180 C   0  0  0  0  0  0  0  0  0  0  0  0
   -6.8880   20.3730  -31.2230 C   0  0  0  0  0  0  0  0  0  0  0  0
   -8.2454   22.7844  -30.9812 H   0  0  0  0  0  0  0  0  0  0  0  0
   -7.3417   22.5817  -32.5203 H   0  0  0  0  0  0  0  0  0  0  0  0
   -9.1373   22.5349  -32.5203 H   0  0  0  0  0  0  0  0  0  0  0  0
   -9.4745   19.6970  -33.0024 H   0  0  0  0  0  0  0  0  0  0  0  0
   -8.3116   20.7375  -33.8613 H   0  0  0  0  0  0  0  0  0  0  0  0
   -7.8959   18.0245  -32.5780 H   0  0  0  0  0  0  0  0  0  0  0  0
   -7.1945   18.6434  -34.0684 H   0  0  0  0  0  0  0  0  0  0  0  0
   -5.7018   18.6032  -31.7563 H   0  0  0  0  0  0  0  0  0  0  0  0
   -4.8706   19.3830  -33.9022 H   0  0  0  0  0  0  0  0  0  0  0  0
   -5.7280   20.9618  -33.6455 H   0  0  0  0  0  0  0  0  0  0  0  0
   -2.7757   18.9279  -32.8369 H   0  0  0  0  0  0  0  0  0  0  0  0
   -0.8090   19.8042  -31.5348 H   0  0  0  0  0  0  0  0  0  0  0  0
    0.0462   21.9914  -29.9050 H   0  0  0  0  0  0  0  0  0  0  0  0
   -2.6850   25.8750  -28.9880 H   0  0  0  0  0  0  0  0  0  0  0  0
   -5.0763   22.4672  -31.7487 H   0  0  0  0  0  0  0  0  0  0  0  0
   -7.0242   19.8570  -30.2611 H   0  0  0  0  0  0  0  0  0  0  0  0
   -6.2289   21.2400  -31.0684 H   0  0  0  0  0  0  0  0  0  0  0  0
  1  2  1  0
  2  3  1  0
  3  4  1  0
  4  5  1  0
  5  6  1  0
  6  7  1  0
  7  8  2  0
  8  9  1  0
  9 10  2  0
 10 11  1  0
 11 12  2  0
 12 13  1  0
 13 14  1  0
 13 15  2  0
 12 16  1  0
 16 17  1  0
 17 18  2  0
 17 19  1  0
 16 20  1  0
 20 21  2  0
  5 22  1  0
 22  2  1  0
 21  7  1  0
 20 10  1  0
  1 23  1  0
  1 24  1  0
  1 25  1  0
  3 26  1  0
  3 27  1  0
  4 28  1  0
  4 29  1  0
  5 30  1  1
  6 31  1  0
  6 32  1  0
  8 33  1  0
  9 34  1  0
 11 35  1  0
 14 36  1  0
 21 37  1  0
 22 38  1  0
 22 39  1  0
M  CHG  2  14  -1  19  -1
M  END
>  <UniqueID>  (15) 
15

>  <SMILES>  (15) 
CN1CC[C@@H](Cc2ccc3cc(C([NH-])=O)n(C(=O)[O-])c3c2)C1

>  <Energy>  (15) 
81.36204754439007

>  <Genealogy>  (15) 
CN1CCC(Cc2ccc3cc(C([NH-])=O)n(C(=O)[O-])c3c2)C1 (protonated)
CN1CC[C@@H](Cc2ccc3cc(C([NH-])=O)n(C(=O)[O-])c3c2)C1 (chirality)
CN1CC[C@@H](Cc2ccc3cc(C([NH-])=O)n(C(=O)[O-])c3c2)C1 (3D coordinates assigned)
CN1CC[C@@H](Cc2ccc3cc(C([NH-])=O)n(C(=O)[O-])c3c2)C1 (nonaromatic ring conformer: 81.36204754439007 kcal/mol)

>  <smiles>  (15) 
CN1CCC(Cc2ccc3cc(C(N)=O)n(C(=O)O)c3c2)C1

>  <score_type>  (15) 
oracle

>  <origin>  (15) 
adg

>  <m_score__min__energy>  (15) 
-11.949999999999999

>  <m_primary>  (15) 
energy

$$$$
15:0
     RDKit          3D

 40 41  0  0  0  0  0  0  0  0999 V2000
   -4.2210   19.3840  -33.5590 C   0  0  0  0  0  0  0  0  0  0  0  0
   -5.4520   18.7760  -34.2220 C   0  0  0  0  0  0  0  0  0  0  0  0
   -5.9860   17.7230  -33.4220 O   0  0  0  0  0  0  0  0  0  0  0  0
   -6.6780   17.9380  -32.2240 C   0  0  0  0  0  0  0  0  0  0  0  0
   -6.1420   17.6790  -31.1120 O   0  0  0  0  0  0  0  0  0  0  0  0
   -8.0460   18.5400  -32.2680 C   0  0  0  0  0  0  0  0  0  0  0  0
   -7.9680   20.0130  -31.9720 C   0  0  0  0  0  0  0  0  0  0  0  0
   -9.1460   20.7970  -31.9160 C   0  0  0  0  0  0  0  0  0  0  0  0
   -9.0770   22.1700  -31.6230 C   0  0  0  0  0  0  0  0  0  0  0  0
   -7.8240   22.7220  -31.3690 C   0  0  0  0  0  0  0  0  0  0  0  0
   -7.4700   24.0170  -31.0640 C   0  0  0  0  0  0  0  0  0  0  0  0
   -6.0870   23.9920  -30.8940 C   0  0  0  0  0  0  0  0  0  0  0  0
   -5.3040   25.1660  -30.4580 C   0  0  0  0  0  0  0  0  0  0  0  0
   -3.9020   25.2460  -30.7020 N   0  0  0  0  0  0  0  0  0  0  0  0
   -5.8710   26.0900  -29.8160 O   0  0  0  0  0  0  0  0  0  0  0  0
   -5.6030   22.7340  -31.0990 N   0  0  0  0  0  0  0  0  0  0  0  0
   -4.2380   22.2910  -31.0660 C   0  0  0  0  0  0  0  0  0  0  0  0
   -3.4390   22.6370  -31.9790 O   0  0  0  0  0  0  0  0  0  0  0  0
   -3.8090   21.4510  -30.0360 O   0  0  0  0  0  0  0  0  0  0  0  0
   -3.2070   21.9340  -28.8410 C   0  0  0  0  0  0  0  0  0  0  0  0
   -4.1500   22.9120  -28.1600 C   0  0  0  0  0  0  0  0  0  0  0  0
   -6.6790   21.9690  -31.3880 C   0  0  0  0  0  0  0  0  0  0  0  0
   -6.7150   20.6070  -31.7090 C   0  0  0  0  0  0  0  0  0  0  0  0
   -4.3293   19.3305  -32.4657 H   0  0  0  0  0  0  0  0  0  0  0  0
   -3.3250   18.8248  -33.8665 H   0  0  0  0  0  0  0  0  0  0  0  0
   -4.1205   20.4354  -33.8665 H   0  0  0  0  0  0  0  0  0  0  0  0
   -6.2166   19.5566  -34.3490 H   0  0  0  0  0  0  0  0  0  0  0  0
   -5.1608   18.3650  -35.1999 H   0  0  0  0  0  0  0  0  0  0  0  0
   -8.4776   18.3916  -33.2689 H   0  0  0  0  0  0  0  0  0  0  0  0
   -8.6803   18.0524  -31.5131 H   0  0  0  0  0  0  0  0  0  0  0  0
  -10.1230   20.3276  -32.1033 H   0  0  0  0  0  0  0  0  0  0  0  0
   -9.9854   22.7898  -31.5952 H   0  0  0  0  0  0  0  0  0  0  0  0
   -8.1372   24.8869  -30.9737 H   0  0  0  0  0  0  0  0  0  0  0  0
   -3.4930   26.0490  -31.2290 H   0  0  0  0  0  0  0  0  0  0  0  0
   -3.0033   21.0900  -28.1656 H   0  0  0  0  0  0  0  0  0  0  0  0
   -2.2631   22.4434  -29.0851 H   0  0  0  0  0  0  0  0  0  0  0  0
   -4.0549   22.8134  -27.0686 H   0  0  0  0  0  0  0  0  0  0  0  0
   -3.8923   23.9387  -28.4593 H   0  0  0  0  0  0  0  0  0  0  0  0
   -5.1854   22.6918  -28.4593 H   0  0  0  0  0  0  0  0  0  0  0  0
   -5.7895   20.0142  -31.7551 H   0  0  0  0  0  0  0  0  0  0  0  0
  1  2  1  0
  2  3  1  0
  3  4  1  0
  4  5  2  0
  4  6  1  0
  6  7  1  0
  7  8  2  0
  8  9  1  0
  9 10  2  0
 10 11  1  0
 11 12  2  0
 12 13  1  0
 13 14  1  0
 13 15  2  0
 12 16  1  0
 16 17  1  0
 17 18  2  0
 17 19  1  0
 19 20  1  0
 20 21  1  0
 16 22  1  0
 22 23  2  0
 23  7  1  0
 22 10  1  0
  1 24  1  0
  1 25  1  0
  1 26  1  0
  2 27  1  0
  2 28  1  0
  6 29  1  0
  6 30  1  0
  8 31  1  0
  9 32  1  0
 11 33  1  0
 14 34  1  0
 20 35  1  0
 20 36  1  0
 21 37  1  0
 21 38  1  0
 21 39  1  0
 23 40  1  0
M  CHG  1  14  -1
M  END
>  <UniqueID>  (16) 
16

>  <SMILES>  (16) 
CCOC(=O)Cc1ccc2cc(C([NH-])=O)n(C(=O)OCC)c2c1

>  <Energy>  (16) 
67.48954068579351

>  <Genealogy>  (16) 
CCOC(=O)Cc1ccc2cc(C([NH-])=O)n(C(=O)OCC)c2c1 (protonated)
CCOC(=O)Cc1ccc2cc(C([NH-])=O)n(C(=O)OCC)c2c1 (3D coordinates assigned)
CCOC(=O)Cc1ccc2cc(C([NH-])=O)n(C(=O)OCC)c2c1 (optimized conformer: 67.48954068579351 kcal/mol)

>  <smiles>  (16) 
CCOC(=O)Cc1ccc2cc(C(N)=O)n(C(=O)OCC)c2c1

>  <score_type>  (16) 
oracle

>  <origin>  (16) 
adg

>  <m_score__min__energy>  (16) 
-9.8900000000000006

>  <m_primary>  (16) 
energy

$$$$
16:0
     RDKit          3D

 49 51  0  0  0  0  0  0  0  0999 V2000
   -6.4910   23.9710  -31.7570 C   0  0  0  0  0  0  0  0  0  0  0  0
   -6.5480   23.9430  -30.2180 C   0  0  0  0  0  0  0  0  0  0  0  0
   -7.4280   22.7800  -29.7250 C   0  0  0  0  0  0  0  0  0  0  0  0
   -7.1490   25.2670  -29.7190 C   0  0  0  0  0  0  0  0  0  0  0  0
   -5.2280   23.8430  -29.6630 O   0  0  0  0  0  0  0  0  0  0  0  0
   -4.0260   24.1650  -30.3090 C   0  0  0  0  0  0  0  0  0  0  0  0
   -3.8180   25.3260  -30.7550 O   0  0  0  0  0  0  0  0  0  0  0  0
   -3.0350   23.1430  -30.4930 N   0  0  0  0  0  0  0  0  0  0  0  0
   -1.7210   23.1690  -30.1370 C   0  0  0  0  0  0  0  0  0  0  0  0
   -1.0550   24.2220  -29.3410 C   0  0  0  0  0  0  0  0  0  0  0  0
   -1.6120   25.5290  -29.2420 N   0  0  0  0  0  0  0  0  0  0  0  0
   -0.0020   23.9500  -28.7040 O   0  0  0  0  0  0  0  0  0  0  0  0
   -1.0800   22.0030  -30.5580 C   0  0  0  0  0  0  0  0  0  0  0  0
   -2.0550   21.2570  -31.1810 C   0  0  0  0  0  0  0  0  0  0  0  0
   -1.9740   20.0120  -31.7990 C   0  0  0  0  0  0  0  0  0  0  0  0
   -3.1380   19.4920  -32.3890 C   0  0  0  0  0  0  0  0  0  0  0  0
   -4.3580   20.2200  -32.3580 C   0  0  0  0  0  0  0  0  0  0  0  0
   -5.5950   19.6530  -33.0310 C   0  0  1  0  0  0  0  0  0  0  0  0
   -5.8310   18.1590  -32.6820 C   0  0  0  0  0  0  0  0  0  0  0  0
   -7.0220   17.9590  -31.7390 C   0  0  0  0  0  0  0  0  0  0  0  0
   -8.3070   18.6160  -32.2880 C   0  0  0  0  0  0  0  0  0  0  0  0
   -8.0660   19.8210  -33.1060 N   0  0  0  0  0  0  0  0  0  0  0  0
   -6.8340   20.5230  -32.7250 C   0  0  0  0  0  0  0  0  0  0  0  0
   -4.3920   21.4850  -31.7280 C   0  0  0  0  0  0  0  0  0  0  0  0
   -3.2240   21.9680  -31.1290 C   0  0  0  0  0  0  0  0  0  0  0  0
   -5.5474   24.4345  -32.0806 H   0  0  0  0  0  0  0  0  0  0  0  0
   -6.5465   22.9431  -32.1447 H   0  0  0  0  0  0  0  0  0  0  0  0
   -7.3385   24.5554  -32.1447 H   0  0  0  0  0  0  0  0  0  0  0  0
   -7.4372   22.7678  -28.6251 H   0  0  0  0  0  0  0  0  0  0  0  0
   -8.4540   22.9125  -30.0988 H   0  0  0  0  0  0  0  0  0  0  0  0
   -7.0216   21.8286  -30.0988 H   0  0  0  0  0  0  0  0  0  0  0  0
   -7.1532   25.2763  -28.6190 H   0  0  0  0  0  0  0  0  0  0  0  0
   -6.5441   26.1073  -30.0904 H   0  0  0  0  0  0  0  0  0  0  0  0
   -8.1798   25.3648  -30.0904 H   0  0  0  0  0  0  0  0  0  0  0  0
   -2.6430   25.6800  -29.3100 H   0  0  0  0  0  0  0  0  0  0  0  0
   -0.0215   21.7368  -30.4212 H   0  0  0  0  0  0  0  0  0  0  0  0
   -1.0272   19.4525  -31.8245 H   0  0  0  0  0  0  0  0  0  0  0  0
   -3.1047   18.5088  -32.8812 H   0  0  0  0  0  0  0  0  0  0  0  0
   -5.4204   19.6852  -34.1166 H   0  0  0  0  0  0  0  0  0  0  0  0
   -6.0210   17.6048  -33.6130 H   0  0  0  0  0  0  0  0  0  0  0  0
   -4.9314   17.7891  -32.1682 H   0  0  0  0  0  0  0  0  0  0  0  0
   -7.1994   16.8806  -31.6137 H   0  0  0  0  0  0  0  0  0  0  0  0
   -6.7795   18.4350  -30.7774 H   0  0  0  0  0  0  0  0  0  0  0  0
   -8.8347   17.8770  -32.9088 H   0  0  0  0  0  0  0  0  0  0  0  0
   -8.8962   18.9371  -31.4164 H   0  0  0  0  0  0  0  0  0  0  0  0
   -7.9940   19.5420  -34.1130 H   0  0  0  0  0  0  0  0  0  0  0  0
   -6.7640   21.4634  -33.2913 H   0  0  0  0  0  0  0  0  0  0  0  0
   -6.8636   20.7301  -31.6451 H   0  0  0  0  0  0  0  0  0  0  0  0
   -5.3185   22.0777  -31.7092 H   0  0  0  0  0  0  0  0  0  0  0  0
  1  2  1  0
  2  3  1  0
  2  4  1  0
  2  5  1  0
  5  6  1  0
  6  7  2  0
  6  8  1  0
  8  9  1  0
  9 10  1  0
 10 11  1  0
 10 12  2  0
  9 13  2  0
 13 14  1  0
 14 15  2  0
 15 16  1  0
 16 17  2  0
 17 18  1  0
 18 19  1  0
 19 20  1  0
 20 21  1  0
 21 22  1  0
 22 23  1  0
 17 24  1  0
 24 25  2  0
 25  8  1  0
 25 14  1  0
 23 18  1  0
  1 26  1  0
  1 27  1  0
  1 28  1  0
  3 29  1  0
  3 30  1  0
  3 31  1  0
  4 32  1  0
  4 33  1  0
  4 34  1  0
 11 35  1  0
 13 36  1  0
 15 37  1  0
 16 38  1  0
 18 39  1  6
 19 40  1  0
 19 41  1  0
 20 42  1  0
 20 43  1  0
 21 44  1  0
 21 45  1  0
 22 46  1  0
 23 47  1  0
 23 48  1  0
 24 49  1  0
M  CHG  1  11  -1
M  END
>  <UniqueID>  (17) 
17

>  <SMILES>  (17) 
CC(C)(C)OC(=O)n1c(C([NH-])=O)cc2ccc([C@H]3CCCNC3)cc21

>  <Energy>  (17) 
89.08755588282284

>  <Genealogy>  (17) 
CC(C)(C)OC(=O)n1c(C([NH-])=O)cc2ccc(C3CCCNC3)cc21 (protonated)
CC(C)(C)OC(=O)n1c(C([NH-])=O)cc2ccc([C@H]3CCCNC3)cc21 (chirality)
CC(C)(C)OC(=O)n1c(C([NH-])=O)cc2ccc([C@H]3CCCNC3)cc21 (3D coordinates assigned)
CC(C)(C)OC(=O)n1c(C([NH-])=O)cc2ccc([C@H]3CCCNC3)cc21 (nonaromatic ring conformer: 89.08755588282284 kcal/mol)

>  <smiles>  (17) 
CC(C)(C)OC(=O)n1c(C(N)=O)cc2ccc(C3CCCNC3)cc21

>  <score_type>  (17) 
oracle

>  <origin>  (17) 
adg

>  <m_score__min__energy>  (17) 
-11.710000000000001

>  <m_primary>  (17) 
energy

$$$$
17:0
     RDKit          3D

 41 43  0  0  0  0  0  0  0  0999 V2000
   -1.5610   20.4070  -34.1880 C   0  0  0  0  0  0  0  0  0  0  0  0
   -1.9120   19.0450  -34.4030 O   0  0  0  0  0  0  0  0  0  0  0  0
   -1.6930   18.0510  -33.4460 C   0  0  0  0  0  0  0  0  0  0  0  0
   -0.5610   17.9120  -32.9090 O   0  0  0  0  0  0  0  0  0  0  0  0
   -2.8000   17.1090  -33.1000 C   0  0  0  0  0  0  0  0  0  0  0  0
   -4.0870   17.7280  -33.3980 N   0  0  0  0  0  0  0  0  0  0  0  0
   -5.1600   17.7570  -32.5850 C   0  0  0  0  0  0  0  0  0  0  0  0
   -6.1910   18.3790  -33.2650 C   0  0  0  0  0  0  0  0  0  0  0  0
   -7.5490   18.7130  -32.7350 C   0  0  0  0  0  0  0  0  0  0  0  0
   -7.5550   20.1120  -32.1830 C   0  0  0  0  0  0  0  0  0  0  0  0
   -8.7840   20.7550  -31.8940 C   0  0  0  0  0  0  0  0  0  0  0  0
   -8.8050   22.0800  -31.4280 C   0  0  0  0  0  0  0  0  0  0  0  0
   -7.5870   22.7340  -31.2640 C   0  0  0  0  0  0  0  0  0  0  0  0
   -7.3210   24.0230  -30.8640 C   0  0  0  0  0  0  0  0  0  0  0  0
   -5.9340   24.1430  -30.9020 C   0  0  0  0  0  0  0  0  0  0  0  0
   -5.2140   25.3580  -30.4620 C   0  0  0  0  0  0  0  0  0  0  0  0
   -3.8670   25.5960  -30.8600 N   0  0  0  0  0  0  0  0  0  0  0  0
   -5.7810   26.1710  -29.6830 O   0  0  0  0  0  0  0  0  0  0  0  0
   -5.3630   22.9790  -31.3200 N   0  0  0  0  0  0  0  0  0  0  0  0
   -3.9740   22.7190  -31.5780 C   0  0  0  0  0  0  0  0  0  0  0  0
   -3.0890   23.1430  -30.7880 O   0  0  0  0  0  0  0  0  0  0  0  0
   -3.5890   22.0210  -32.7160 O   0  0  0  0  0  0  0  0  0  0  0  0
   -6.3880   22.1230  -31.5330 C   0  0  0  0  0  0  0  0  0  0  0  0
   -6.3390   20.8100  -32.0170 C   0  0  0  0  0  0  0  0  0  0  0  0
   -5.6730   18.7170  -34.5020 C   0  0  0  0  0  0  0  0  0  0  0  0
   -4.3950   18.2940  -34.5550 N   0  0  0  0  0  0  0  0  0  0  0  0
   -1.5097   20.6062  -33.1074 H   0  0  0  0  0  0  0  0  0  0  0  0
   -0.5813   20.6097  -34.6452 H   0  0  0  0  0  0  0  0  0  0  0  0
   -2.3207   21.0580  -34.6452 H   0  0  0  0  0  0  0  0  0  0  0  0
   -2.6928   16.1870  -33.6903 H   0  0  0  0  0  0  0  0  0  0  0  0
   -2.7516   16.8701  -32.0273 H   0  0  0  0  0  0  0  0  0  0  0  0
   -5.2079   17.3569  -31.5615 H   0  0  0  0  0  0  0  0  0  0  0  0
   -8.2860   18.6390  -33.5483 H   0  0  0  0  0  0  0  0  0  0  0  0
   -7.8075   18.0066  -31.9324 H   0  0  0  0  0  0  0  0  0  0  0  0
   -9.7300   20.2119  -32.0358 H   0  0  0  0  0  0  0  0  0  0  0  0
   -9.7549   22.5855  -31.1996 H   0  0  0  0  0  0  0  0  0  0  0  0
   -8.0493   24.7952  -30.5754 H   0  0  0  0  0  0  0  0  0  0  0  0
   -3.0680   25.2610  -30.2780 H   0  0  0  0  0  0  0  0  0  0  0  0
   -5.3777   20.3345  -32.2616 H   0  0  0  0  0  0  0  0  0  0  0  0
   -6.2120   19.2413  -35.3049 H   0  0  0  0  0  0  0  0  0  0  0  0
   -3.7460   18.3940  -35.3650 H   0  0  0  0  0  0  0  0  0  0  0  0
  1  2  1  0
  2  3  1  0
  3  4  2  0
  3  5  1  0
  5  6  1  0
  6  7  1  0
  7  8  2  0
  8  9  1  0
  9 10  1  0
 10 11  2  0
 11 12  1  0
 12 13  2  0
 13 14  1  0
 14 15  2  0
 15 16  1  0
 16 17  1  0
 16 18  2  0
 15 19  1  0
 19 20  1  0
 20 21  2  0
 20 22  1  0
 19 23  1  0
 23 24  2  0
  8 25  1  0
 25 26  2  0
 26  6  1  0
 24 10  1  0
 23 13  1  0
  1 27  1  0
  1 28  1  0
  1 29  1  0
  5 30  1  0
  5 31  1  0
  7 32  1  0
  9 33  1  0
  9 34  1  0
 11 35  1  0
 12 36  1  0
 14 37  1  0
 17 38  1  0
 24 39  1  0
 25 40  1  0
 26 41  1  0
M  CHG  3  17  -1  22  -1  26   1
M  END
>  <UniqueID>  (18) 
18

>  <SMILES>  (18) 
COC(=O)Cn1cc(Cc2ccc3cc(C([NH-])=O)n(C(=O)[O-])c3c2)c[nH+]1

>  <Energy>  (18) 
106.91833961531758

>  <Genealogy>  (18) 
COC(=O)Cn1cc(Cc2ccc3cc(C([NH-])=O)n(C(=O)[O-])c3c2)c[nH+]1 (protonated)
COC(=O)Cn1cc(Cc2ccc3cc(C([NH-])=O)n(C(=O)[O-])c3c2)c[nH+]1 (3D coordinates assigned)
COC(=O)Cn1cc(Cc2ccc3cc(C([NH-])=O)n(C(=O)[O-])c3c2)c[nH+]1 (optimized conformer: 106.91833961531758 kcal/mol)

>  <smiles>  (18) 
COC(=O)Cn1cc(Cc2ccc3cc(C(N)=O)n(C(=O)O)c3c2)cn1

>  <score_type>  (18) 
oracle

>  <origin>  (18) 
adg

>  <m_score__min__energy>  (18) 
-11.16

>  <m_primary>  (18) 
energy

$$$$
18:0
     RDKit          3D

 37 39  0  0  0  0  0  0  0  0999 V2000
   -5.9940   24.9510  -29.1060 N   0  0  0  0  0  0  0  0  0  0  0  0
   -6.3870   23.7370  -29.7480 C   0  0  0  0  0  0  0  0  0  0  0  0
   -7.5310   23.2600  -29.5200 O   0  0  0  0  0  0  0  0  0  0  0  0
   -5.4540   22.9980  -30.6220 C   0  0  0  0  0  0  0  0  0  0  0  0
   -5.7980   21.8270  -31.2900 C   0  0  0  0  0  0  0  0  0  0  0  0
   -4.6500   21.4260  -31.9340 C   0  0  0  0  0  0  0  0  0  0  0  0
   -4.4270   20.3290  -32.7580 C   0  0  0  0  0  0  0  0  0  0  0  0
   -3.1500   20.1770  -33.3240 C   0  0  0  0  0  0  0  0  0  0  0  0
   -2.1250   21.1230  -33.0650 C   0  0  0  0  0  0  0  0  0  0  0  0
   -0.7810   20.9560  -33.6770 C   0  0  0  0  0  0  0  0  0  0  0  0
   -0.5860   21.1800  -35.0530 C   0  0  0  0  0  0  0  0  0  0  0  0
    0.6800   21.0320  -35.6240 C   0  0  0  0  0  0  0  0  0  0  0  0
    1.7750   20.6470  -34.8340 C   0  0  0  0  0  0  0  0  0  0  0  0
    3.1450   20.5250  -35.4400 C   0  0  0  0  0  0  0  0  0  0  0  0
    3.2480   21.3910  -36.6550 C   0  0  0  0  0  0  0  0  0  0  0  0
    2.9690   22.6170  -36.5840 O   0  0  0  0  0  0  0  0  0  0  0  0
    3.7030   20.8560  -37.8530 O   0  0  0  0  0  0  0  0  0  0  0  0
    1.5880   20.4330  -33.4600 C   0  0  0  0  0  0  0  0  0  0  0  0
    0.3220   20.5840  -32.8870 C   0  0  0  0  0  0  0  0  0  0  0  0
   -2.3940   22.2280  -32.2220 C   0  0  0  0  0  0  0  0  0  0  0  0
   -3.6700   22.3440  -31.6570 C   0  0  0  0  0  0  0  0  0  0  0  0
   -4.1500   23.3200  -30.8530 N   0  0  0  0  0  0  0  0  0  0  0  0
   -3.4660   24.5190  -30.4470 C   0  0  0  0  0  0  0  0  0  0  0  0
   -3.8680   25.6470  -30.8360 O   0  0  0  0  0  0  0  0  0  0  0  0
   -2.3570   24.4440  -29.6140 O   0  0  0  0  0  0  0  0  0  0  0  0
   -5.0050   25.2830  -29.1390 H   0  0  0  0  0  0  0  0  0  0  0  0
   -6.6790   25.4790  -28.5210 H   0  0  0  0  0  0  0  0  0  0  0  0
   -6.7784   21.3282  -31.3010 H   0  0  0  0  0  0  0  0  0  0  0  0
   -5.2266   19.6014  -32.9610 H   0  0  0  0  0  0  0  0  0  0  0  0
   -2.9427   19.3150  -33.9751 H   0  0  0  0  0  0  0  0  0  0  0  0
   -1.4378   21.4741  -35.6838 H   0  0  0  0  0  0  0  0  0  0  0  0
    0.8200   21.2182  -36.6990 H   0  0  0  0  0  0  0  0  0  0  0  0
    3.8983   20.8407  -34.7032 H   0  0  0  0  0  0  0  0  0  0  0  0
    3.3195   19.4779  -35.7281 H   0  0  0  0  0  0  0  0  0  0  0  0
    2.4425   20.1448  -32.8301 H   0  0  0  0  0  0  0  0  0  0  0  0
    0.1870   20.4105  -31.8092 H   0  0  0  0  0  0  0  0  0  0  0  0
   -1.6175   22.9792  -32.0153 H   0  0  0  0  0  0  0  0  0  0  0  0
  1  2  1  0
  2  3  2  0
  2  4  1  0
  4  5  2  0
  5  6  1  0
  6  7  2  0
  7  8  1  0
  8  9  2  0
  9 10  1  0
 10 11  2  0
 11 12  1  0
 12 13  2  0
 13 14  1  0
 14 15  1  0
 15 16  2  0
 15 17  1  0
 13 18  1  0
 18 19  2  0
  9 20  1  0
 20 21  2  0
 21 22  1  0
 22 23  1  0
 23 24  2  0
 23 25  1  0
 22  4  1  0
 21  6  1  0
 19 10  1  0
  1 26  1  0
  1 27  1  0
  5 28  1  0
  7 29  1  0
  8 30  1  0
 11 31  1  0
 12 32  1  0
 14 33  1  0
 14 34  1  0
 18 35  1  0
 19 36  1  0
 20 37  1  0
M  CHG  2  17  -1  25  -1
M  END
>  <UniqueID>  (19) 
19

>  <SMILES>  (19) 
NC(=O)c1cc2ccc(-c3ccc(CC(=O)[O-])cc3)cc2n1C(=O)[O-]

>  <Energy>  (19) 
83.37940426968638

>  <Genealogy>  (19) 
NC(=O)c1cc2ccc(-c3ccc(CC(=O)[O-])cc3)cc2n1C(=O)[O-] (protonated)
NC(=O)c1cc2ccc(-c3ccc(CC(=O)[O-])cc3)cc2n1C(=O)[O-] (3D coordinates assigned)
NC(=O)c1cc2ccc(-c3ccc(CC(=O)[O-])cc3)cc2n1C(=O)[O-] (optimized conformer: 83.37940426968638 kcal/mol)

>  <smiles>  (19) 
NC(=O)c1cc2ccc(-c3ccc(CC(=O)O)cc3)cc2n1C(=O)O

>  <score_type>  (19) 
oracle

>  <origin>  (19) 
adg

>  <m_score__min__energy>  (19) 
-9.6600000000000001

>  <m_primary>  (19) 
energy

$$$$
19:0
     RDKit          3D

 46 48  0  0  0  0  0  0  0  0999 V2000
   -4.1620   22.7960  -28.2000 C   0  0  0  0  0  0  0  0  0  0  0  0
   -2.9930   22.3400  -29.0650 C   0  0  0  0  0  0  0  0  0  0  0  0
   -2.9870   23.0380  -30.3080 O   0  0  0  0  0  0  0  0  0  0  0  0
   -3.7530   22.6510  -31.4140 C   0  0  0  0  0  0  0  0  0  0  0  0
   -3.1900   22.2580  -32.4720 O   0  0  0  0  0  0  0  0  0  0  0  0
   -5.1880   22.6980  -31.3410 N   0  0  0  0  0  0  0  0  0  0  0  0
   -5.9650   23.7520  -30.9640 C   0  0  0  0  0  0  0  0  0  0  0  0
   -5.4800   25.0250  -30.3960 C   0  0  0  0  0  0  0  0  0  0  0  0
   -4.1690   25.5140  -30.6850 N   0  0  0  0  0  0  0  0  0  0  0  0
   -6.2150   25.6660  -29.5970 O   0  0  0  0  0  0  0  0  0  0  0  0
   -7.3140   23.4550  -31.1390 C   0  0  0  0  0  0  0  0  0  0  0  0
   -7.3410   22.1670  -31.6250 C   0  0  0  0  0  0  0  0  0  0  0  0
   -8.4240   21.3760  -31.9960 C   0  0  0  0  0  0  0  0  0  0  0  0
   -8.1570   20.0950  -32.5080 C   0  0  0  0  0  0  0  0  0  0  0  0
   -6.8250   19.6310  -32.6440 C   0  0  0  0  0  0  0  0  0  0  0  0
   -6.5630   18.3270  -33.1990 N   0  0  0  0  0  0  0  0  0  0  0  0
   -6.7790   17.1090  -32.4130 C   0  0  0  0  0  0  0  0  0  0  0  0
   -5.4780   16.2880  -32.3320 C   0  0  0  0  0  0  0  0  0  0  0  0
   -4.6090   16.4180  -33.5320 N   0  0  0  0  0  0  0  0  0  0  0  0
   -3.4440   17.2830  -33.2730 C   0  0  0  0  0  0  0  0  0  0  0  0
   -5.3430   16.8340  -34.7470 C   0  0  0  0  0  0  0  0  0  0  0  0
   -6.0310   18.1980  -34.5600 C   0  0  0  0  0  0  0  0  0  0  0  0
   -5.7510   20.4710  -32.2670 C   0  0  0  0  0  0  0  0  0  0  0  0
   -6.0460   21.7330  -31.7380 C   0  0  0  0  0  0  0  0  0  0  0  0
   -3.8949   22.6918  -27.1380 H   0  0  0  0  0  0  0  0  0  0  0  0
   -4.3910   23.8494  -28.4188 H   0  0  0  0  0  0  0  0  0  0  0  0
   -5.0438   22.1759  -28.4188 H   0  0  0  0  0  0  0  0  0  0  0  0
   -2.0507   22.5394  -28.5337 H   0  0  0  0  0  0  0  0  0  0  0  0
   -3.0972   21.2630  -29.2633 H   0  0  0  0  0  0  0  0  0  0  0  0
   -3.4750   24.9270  -31.1980 H   0  0  0  0  0  0  0  0  0  0  0  0
   -3.8600   26.4370  -30.3070 H   0  0  0  0  0  0  0  0  0  0  0  0
   -8.1740   24.1092  -30.9331 H   0  0  0  0  0  0  0  0  0  0  0  0
   -9.4561   21.7418  -31.8918 H   0  0  0  0  0  0  0  0  0  0  0  0
   -8.9921   19.4444  -32.8069 H   0  0  0  0  0  0  0  0  0  0  0  0
   -7.0982   17.3845  -31.3970 H   0  0  0  0  0  0  0  0  0  0  0  0
   -7.5560   16.5016  -32.9001 H   0  0  0  0  0  0  0  0  0  0  0  0
   -4.9088   16.6263  -31.4536 H   0  0  0  0  0  0  0  0  0  0  0  0
   -5.7712   15.2301  -32.2626 H   0  0  0  0  0  0  0  0  0  0  0  0
   -3.3005   17.3895  -32.1876 H   0  0  0  0  0  0  0  0  0  0  0  0
   -2.5456   16.8314  -33.7190 H   0  0  0  0  0  0  0  0  0  0  0  0
   -3.6164   18.2736  -33.7190 H   0  0  0  0  0  0  0  0  0  0  0  0
   -4.6337   16.9048  -35.5848 H   0  0  0  0  0  0  0  0  0  0  0  0
   -6.1211   16.0835  -34.9502 H   0  0  0  0  0  0  0  0  0  0  0  0
   -5.2991   18.9994  -34.7393 H   0  0  0  0  0  0  0  0  0  0  0  0
   -6.8637   18.2755  -35.2745 H   0  0  0  0  0  0  0  0  0  0  0  0
   -4.7087   20.1403  -32.3867 H   0  0  0  0  0  0  0  0  0  0  0  0
  1  2  1  0
  2  3  1  0
  3  4  1  0
  4  5  2  0
  4  6  1  0
  6  7  1  0
  7  8  1  0
  8  9  1  0
  8 10  2  0
  7 11  2  0
 11 12  1  0
 12 13  2  0
 13 14  1  0
 14 15  2  0
 15 16  1  0
 16 17  1  0
 17 18  1  0
 18 19  1  0
 19 20  1  0
 19 21  1  0
 21 22  1  0
 15 23  1  0
 23 24  2  0
 24  6  1  0
 24 12  1  0
 22 16  1  0
  1 25  1  0
  1 26  1  0
  1 27  1  0
  2 28  1  0
  2 29  1  0
  9 30  1  0
  9 31  1  0
 11 32  1  0
 13 33  1  0
 14 34  1  0
 17 35  1  0
 17 36  1  0
 18 37  1  0
 18 38  1  0
 20 39  1  0
 20 40  1  0
 20 41  1  0
 21 42  1  0
 21 43  1  0
 22 44  1  0
 22 45  1  0
 23 46  1  0
M  END
>  <UniqueID>  (20) 
20

>  <SMILES>  (20) 
CCOC(=O)n1c(C(N)=O)cc2ccc(N3CCN(C)CC3)cc21

>  <Energy>  (20) 
93.24174505246066

>  <Genealogy>  (20) 
CCOC(=O)n1c(C(N)=O)cc2ccc(N3CCN(C)CC3)cc21 (3D coordinates assigned)
CCOC(=O)n1c(C(N)=O)cc2ccc(N3CCN(C)CC3)cc21 (nonaromatic ring conformer: 93.24174505246066 kcal/mol)

>  <smiles>  (20) 
CCOC(=O)n1c(C(N)=O)cc2ccc(N3CCN(C)CC3)cc21

>  <score_type>  (20) 
oracle

>  <origin>  (20) 
adg

>  <m_score__min__energy>  (20) 
-8.9499999999999993

>  <m_primary>  (20) 
energy

$$$$
20:0
     RDKit          3D

 36 38  0  0  0  0  0  0  0  0999 V2000
   -2.4070   15.2090  -35.1730 C   0  0  0  0  0  0  0  0  0  0  0  0
   -3.7920   15.5390  -35.1800 O   0  0  0  0  0  0  0  0  0  0  0  0
   -4.3360   16.6910  -34.5940 C   0  0  0  0  0  0  0  0  0  0  0  0
   -3.5820   17.8640  -34.3980 C   0  0  0  0  0  0  0  0  0  0  0  0
   -4.1670   18.9880  -33.8100 C   0  0  0  0  0  0  0  0  0  0  0  0
   -5.5140   18.9650  -33.4050 C   0  0  0  0  0  0  0  0  0  0  0  0
   -6.1340   20.1610  -32.7800 C   0  0  0  0  0  0  0  0  0  0  0  0
   -7.5470   20.2870  -32.7170 C   0  0  0  0  0  0  0  0  0  0  0  0
   -8.1450   21.4060  -32.1170 C   0  0  0  0  0  0  0  0  0  0  0  0
   -7.3100   22.3890  -31.5950 C   0  0  0  0  0  0  0  0  0  0  0  0
   -7.6250   23.5540  -30.9330 C   0  0  0  0  0  0  0  0  0  0  0  0
   -6.4030   24.1420  -30.6230 C   0  0  0  0  0  0  0  0  0  0  0  0
   -6.2810   25.4540  -29.9590 C   0  0  0  0  0  0  0  0  0  0  0  0
   -5.3750   26.4470  -30.4440 N   0  0  0  0  0  0  0  0  0  0  0  0
   -7.0280   25.7250  -28.9820 O   0  0  0  0  0  0  0  0  0  0  0  0
   -5.3700   23.3700  -31.0630 N   0  0  0  0  0  0  0  0  0  0  0  0
   -3.9660   23.5780  -30.8290 C   0  0  0  0  0  0  0  0  0  0  0  0
   -3.1590   22.6140  -30.8870 O   0  0  0  0  0  0  0  0  0  0  0  0
   -3.4870   24.8480  -30.5290 O   0  0  0  0  0  0  0  0  0  0  0  0
   -5.9440   22.2990  -31.6600 C   0  0  0  0  0  0  0  0  0  0  0  0
   -5.3220   21.1830  -32.2350 C   0  0  0  0  0  0  0  0  0  0  0  0
   -6.2620   17.7920  -33.6040 C   0  0  0  0  0  0  0  0  0  0  0  0
   -5.6770   16.6670  -34.1920 C   0  0  0  0  0  0  0  0  0  0  0  0
   -6.4170   15.5440  -34.3700 F   0  0  0  0  0  0  0  0  0  0  0  0
   -2.0553   15.1252  -34.1341 H   0  0  0  0  0  0  0  0  0  0  0  0
   -2.2560   14.2497  -35.6897 H   0  0  0  0  0  0  0  0  0  0  0  0
   -1.8397   15.9971  -35.6897 H   0  0  0  0  0  0  0  0  0  0  0  0
   -2.5274   17.8954  -34.7094 H   0  0  0  0  0  0  0  0  0  0  0  0
   -3.5690   19.8993  -33.6623 H   0  0  0  0  0  0  0  0  0  0  0  0
   -8.1816   19.4967  -33.1443 H   0  0  0  0  0  0  0  0  0  0  0  0
   -9.2393   21.5028  -32.0612 H   0  0  0  0  0  0  0  0  0  0  0  0
   -8.6289   23.9381  -30.6990 H   0  0  0  0  0  0  0  0  0  0  0  0
   -4.8650   26.3170  -31.3450 H   0  0  0  0  0  0  0  0  0  0  0  0
   -5.2750   27.3560  -29.9400 H   0  0  0  0  0  0  0  0  0  0  0  0
   -4.2252   21.1032  -32.2621 H   0  0  0  0  0  0  0  0  0  0  0  0
   -7.3170   17.7590  -33.2943 H   0  0  0  0  0  0  0  0  0  0  0  0
  1  2  1  0
  2  3  1  0
  3  4  2  0
  4  5  1  0
  5  6  2  0
  6  7  1  0
  7  8  2  0
  8  9  1  0
  9 10  2  0
 10 11  1  0
 11 12  2  0
 12 13  1  0
 13 14  1  0
 13 15  2  0
 12 16  1  0
 16 17  1  0
 17 18  2  0
 17 19  1  0
 16 20  1  0
 20 21  2  0
  6 22  1  0
 22 23  2  0
 23 24  1  0
 23  3  1  0
 21  7  1  0
 20 10  1  0
  1 25  1  0
  1 26  1  0
  1 27  1  0
  4 28  1  0
  5 29  1  0
  8 30  1  0
  9 31  1  0
 11 32  1  0
 14 33  1  0
 14 34  1  0
 21 35  1  0
 22 36  1  0
M  CHG  1  19  -1
M  END
>  <UniqueID>  (21) 
21

>  <SMILES>  (21) 
COc1ccc(-c2ccc3cc(C(N)=O)n(C(=O)[O-])c3c2)cc1F

>  <Energy>  (21) 
83.59048093399738

>  <Genealogy>  (21) 
COc1ccc(-c2ccc3cc(C(N)=O)n(C(=O)[O-])c3c2)cc1F (protonated)
COc1ccc(-c2ccc3cc(C(N)=O)n(C(=O)[O-])c3c2)cc1F (3D coordinates assigned)
COc1ccc(-c2ccc3cc(C(N)=O)n(C(=O)[O-])c3c2)cc1F (optimized conformer: 83.59048093399738 kcal/mol)

>  <smiles>  (21) 
COc1ccc(-c2ccc3cc(C(N)=O)n(C(=O)O)c3c2)cc1F

>  <score_type>  (21) 
oracle

>  <origin>  (21) 
adg

>  <m_score__min__energy>  (21) 
-9.3599999999999994

>  <m_primary>  (21) 
energy

$$$$
21:0
     RDKit          3D

 35 36  0  0  0  0  0  0  0  0999 V2000
   -9.0750   18.6590  -31.9360 C   0  0  0  0  0  0  0  0  0  0  0  0
   -7.6310   19.0700  -31.9540 C   0  0  0  0  0  0  0  0  0  0  0  0
   -6.8320   18.4610  -31.2590 O   0  0  0  0  0  0  0  0  0  0  0  0
   -7.1670   20.2700  -32.7520 C   0  0  0  0  0  0  0  0  0  0  0  0
   -5.8240   20.0530  -33.4850 C   0  0  2  0  0  0  0  0  0  0  0  0
   -5.6760   18.6270  -33.9620 C   0  0  0  0  0  0  0  0  0  0  0  0
   -5.5290   18.3840  -35.1480 O   0  0  0  0  0  0  0  0  0  0  0  0
   -4.6410   20.5230  -32.6560 C   0  0  0  0  0  0  0  0  0  0  0  0
   -3.4690   19.7240  -32.6190 C   0  0  0  0  0  0  0  0  0  0  0  0
   -2.3300   20.1430  -31.9130 C   0  0  0  0  0  0  0  0  0  0  0  0
   -2.3840   21.3670  -31.2560 C   0  0  0  0  0  0  0  0  0  0  0  0
   -1.4160   22.0220  -30.5300 C   0  0  0  0  0  0  0  0  0  0  0  0
   -2.0080   23.2150  -30.1190 C   0  0  0  0  0  0  0  0  0  0  0  0
   -1.3430   24.1910  -29.2320 C   0  0  0  0  0  0  0  0  0  0  0  0
   -2.0720   25.2920  -28.6890 N   0  0  0  0  0  0  0  0  0  0  0  0
   -0.1120   24.0820  -28.9800 O   0  0  0  0  0  0  0  0  0  0  0  0
   -3.2880   23.2990  -30.5800 N   0  0  0  0  0  0  0  0  0  0  0  0
   -4.2100   24.3880  -30.4050 C   0  0  0  0  0  0  0  0  0  0  0  0
   -5.3430   24.1920  -29.8910 O   0  0  0  0  0  0  0  0  0  0  0  0
   -3.8630   25.6730  -30.8000 O   0  0  0  0  0  0  0  0  0  0  0  0
   -3.5030   22.1570  -31.2740 C   0  0  0  0  0  0  0  0  0  0  0  0
   -4.6470   21.7750  -31.9870 C   0  0  0  0  0  0  0  0  0  0  0  0
   -9.4157   18.5620  -30.8946 H   0  0  0  0  0  0  0  0  0  0  0  0
   -9.6795   19.4208  -32.4501 H   0  0  0  0  0  0  0  0  0  0  0  0
   -9.1877   17.6931  -32.4501 H   0  0  0  0  0  0  0  0  0  0  0  0
   -7.9366   20.5060  -33.5017 H   0  0  0  0  0  0  0  0  0  0  0  0
   -7.0107   21.0894  -32.0349 H   0  0  0  0  0  0  0  0  0  0  0  0
   -5.8338   20.6846  -34.3856 H   0  0  0  0  0  0  0  0  0  0  0  0
   -5.7010   17.8023  -33.2345 H   0  0  0  0  0  0  0  0  0  0  0  0
   -3.4525   18.7617  -33.1516 H   0  0  0  0  0  0  0  0  0  0  0  0
   -1.4227   19.5218  -31.8807 H   0  0  0  0  0  0  0  0  0  0  0  0
   -0.3929   21.6775  -30.3189 H   0  0  0  0  0  0  0  0  0  0  0  0
   -1.5860   25.9960  -28.0920 H   0  0  0  0  0  0  0  0  0  0  0  0
   -3.1110   25.3490  -28.7820 H   0  0  0  0  0  0  0  0  0  0  0  0
   -5.5296   22.4303  -32.0274 H   0  0  0  0  0  0  0  0  0  0  0  0
  1  2  1  0
  2  3  2  0
  2  4  1  0
  4  5  1  0
  5  6  1  0
  6  7  2  0
  5  8  1  0
  8  9  2  0
  9 10  1  0
 10 11  2  0
 11 12  1  0
 12 13  2  0
 13 14  1  0
 14 15  1  0
 14 16  2  0
 13 17  1  0
 17 18  1  0
 18 19  2  0
 18 20  1  0
 17 21  1  0
 21 22  2  0
 22  8  1  0
 21 11  1  0
  1 23  1  0
  1 24  1  0
  1 25  1  0
  4 26  1  0
  4 27  1  0
  5 28  1  6
  6 29  1  0
  9 30  1  0
 10 31  1  0
 12 32  1  0
 15 33  1  0
 15 34  1  0
 22 35  1  0
M  CHG  1  20  -1
M  END
>  <UniqueID>  (22) 
22

>  <SMILES>  (22) 
CC(=O)C[C@H](C=O)c1ccc2cc(C(N)=O)n(C(=O)[O-])c2c1

>  <Energy>  (22) 
71.95494006460915

>  <Genealogy>  (22) 
CC(=O)CC(C=O)c1ccc2cc(C(N)=O)n(C(=O)[O-])c2c1 (protonated)
CC(=O)C[C@H](C=O)c1ccc2cc(C(N)=O)n(C(=O)[O-])c2c1 (chirality)
CC(=O)C[C@H](C=O)c1ccc2cc(C(N)=O)n(C(=O)[O-])c2c1 (3D coordinates assigned)
CC(=O)C[C@H](C=O)c1ccc2cc(C(N)=O)n(C(=O)[O-])c2c1 (optimized conformer: 71.95494006460915 kcal/mol)

>  <smiles>  (22) 
CC(=O)CC(C=O)c1ccc2cc(C(N)=O)n(C(=O)O)c2c1

>  <score_type>  (22) 
oracle

>  <origin>  (22) 
adg

>  <m_score__min__energy>  (22) 
-8.9199999999999999

>  <m_primary>  (22) 
energy

$$$$
22:0
     RDKit          3D

 31 32  0  0  0  0  0  0  0  0999 V2000
   -3.0120   19.8820  -33.4690 C   0  0  0  0  0  0  0  0  0  0  0  0
   -2.4140   20.9570  -32.5750 C   0  0  0  0  0  0  0  0  0  0  0  0
   -3.2370   22.1190  -32.6140 O   0  0  0  0  0  0  0  0  0  0  0  0
   -3.7290   22.7340  -31.4590 C   0  0  0  0  0  0  0  0  0  0  0  0
   -2.9370   23.1290  -30.5610 O   0  0  0  0  0  0  0  0  0  0  0  0
   -5.1460   22.8990  -31.2900 N   0  0  0  0  0  0  0  0  0  0  0  0
   -5.8150   24.0340  -30.9350 C   0  0  0  0  0  0  0  0  0  0  0  0
   -5.2000   25.2960  -30.4750 C   0  0  0  0  0  0  0  0  0  0  0  0
   -3.8670   25.6390  -30.8430 N   0  0  0  0  0  0  0  0  0  0  0  0
   -5.8430   26.0590  -29.7060 O   0  0  0  0  0  0  0  0  0  0  0  0
   -7.1910   23.8240  -30.9820 C   0  0  0  0  0  0  0  0  0  0  0  0
   -7.3480   22.5150  -31.3720 C   0  0  0  0  0  0  0  0  0  0  0  0
   -8.5080   21.7760  -31.5810 C   0  0  0  0  0  0  0  0  0  0  0  0
   -8.3750   20.4430  -32.0060 C   0  0  0  0  0  0  0  0  0  0  0  0
   -7.0940   19.8820  -32.2400 C   0  0  0  0  0  0  0  0  0  0  0  0
   -6.9620   18.4400  -32.6600 C   0  0  0  0  0  0  0  0  0  0  0  0
   -6.0800   17.7980  -31.8120 F   0  0  0  0  0  0  0  0  0  0  0  0
   -8.1890   17.8010  -32.6020 F   0  0  0  0  0  0  0  0  0  0  0  0
   -6.4890   18.3500  -33.9570 F   0  0  0  0  0  0  0  0  0  0  0  0
   -5.9380   20.6590  -31.9940 C   0  0  0  0  0  0  0  0  0  0  0  0
   -6.1000   21.9770  -31.5530 C   0  0  0  0  0  0  0  0  0  0  0  0
   -3.4526   19.0900  -32.8456 H   0  0  0  0  0  0  0  0  0  0  0  0
   -3.7929   20.3258  -34.1040 H   0  0  0  0  0  0  0  0  0  0  0  0
   -2.2231   19.4526  -34.1040 H   0  0  0  0  0  0  0  0  0  0  0  0
   -2.3552   20.5838  -31.5419 H   0  0  0  0  0  0  0  0  0  0  0  0
   -1.4046   21.2105  -32.9313 H   0  0  0  0  0  0  0  0  0  0  0  0
   -3.0500   25.2780  -30.3010 H   0  0  0  0  0  0  0  0  0  0  0  0
   -7.9843   24.5515  -30.7551 H   0  0  0  0  0  0  0  0  0  0  0  0
   -9.5003   22.2220  -31.4184 H   0  0  0  0  0  0  0  0  0  0  0  0
   -9.2743   19.8283  -32.1587 H   0  0  0  0  0  0  0  0  0  0  0  0
   -4.9338   20.2365  -32.1460 H   0  0  0  0  0  0  0  0  0  0  0  0
  1  2  1  0
  2  3  1  0
  3  4  1  0
  4  5  2  0
  4  6  1  0
  6  7  1  0
  7  8  1  0
  8  9  1  0
  8 10  2  0
  7 11  2  0
 11 12  1  0
 12 13  2  0
 13 14  1  0
 14 15  2  0
 15 16  1  0
 16 17  1  0
 16 18  1  0
 16 19  1  0
 15 20  1  0
 20 21  2  0
 21  6  1  0
 21 12  1  0
  1 22  1  0
  1 23  1  0
  1 24  1  0
  2 25  1  0
  2 26  1  0
  9 27  1  0
 11 28  1  0
 13 29  1  0
 14 30  1  0
 20 31  1  0
M  CHG  1   9  -1
M  END
>  <UniqueID>  (23) 
23

>  <SMILES>  (23) 
CCOC(=O)n1c(C([NH-])=O)cc2ccc(C(F)(F)F)cc21

>  <Energy>  (23) 
66.08474846750816

>  <Genealogy>  (23) 
CCOC(=O)n1c(C([NH-])=O)cc2ccc(C(F)(F)F)cc21 (protonated)
CCOC(=O)n1c(C([NH-])=O)cc2ccc(C(F)(F)F)cc21 (3D coordinates assigned)
CCOC(=O)n1c(C([NH-])=O)cc2ccc(C(F)(F)F)cc21 (optimized conformer: 66.08474846750816 kcal/mol)

>  <smiles>  (23) 
CCOC(=O)n1c(C(N)=O)cc2ccc(C(F)(F)F)cc21

>  <score_type>  (23) 
oracle

>  <origin>  (23) 
adg

>  <m_score__min__energy>  (23) 
-9.2699999999999996

>  <m_primary>  (23) 
energy

$$$$
23:0
     RDKit          3D

 30 32  0  0  0  0  0  0  0  0999 V2000
   -2.3400   20.8890  -32.6150 C   0  0  0  0  0  0  0  0  0  0  0  0
   -3.0710   22.1070  -32.6800 O   0  0  0  0  0  0  0  0  0  0  0  0
   -3.6180   22.7200  -31.5480 C   0  0  0  0  0  0  0  0  0  0  0  0
   -2.8650   23.1460  -30.6300 O   0  0  0  0  0  0  0  0  0  0  0  0
   -5.0420   22.8420  -31.4210 N   0  0  0  0  0  0  0  0  0  0  0  0
   -5.7500   23.9280  -30.9970 C   0  0  0  0  0  0  0  0  0  0  0  0
   -5.1810   25.1580  -30.4070 C   0  0  0  0  0  0  0  0  0  0  0  0
   -3.9240   25.6670  -30.8450 N   0  0  0  0  0  0  0  0  0  0  0  0
   -5.7900   25.7390  -29.4710 O   0  0  0  0  0  0  0  0  0  0  0  0
   -7.1180   23.6960  -31.1140 C   0  0  0  0  0  0  0  0  0  0  0  0
   -7.2300   22.4210  -31.6190 C   0  0  0  0  0  0  0  0  0  0  0  0
   -8.3650   21.6850  -31.9450 C   0  0  0  0  0  0  0  0  0  0  0  0
   -8.1840   20.3990  -32.4800 C   0  0  0  0  0  0  0  0  0  0  0  0
   -6.8830   19.8740  -32.6900 C   0  0  0  0  0  0  0  0  0  0  0  0
   -6.7160   18.5210  -33.2680 C   0  0  0  0  0  0  0  0  0  0  0  0
   -7.3530   17.4220  -32.8000 N   0  0  0  0  0  0  0  0  0  0  0  0
   -7.0560   16.3080  -33.4670 N   0  0  0  0  0  0  0  0  0  0  0  0
   -6.1790   16.4960  -34.4760 C   0  0  0  0  0  0  0  0  0  0  0  0
   -5.7290   18.1140  -34.5750 S   0  0  0  0  0  0  0  0  0  0  0  0
   -5.7550   20.6570  -32.3470 C   0  0  0  0  0  0  0  0  0  0  0  0
   -5.9650   21.9270  -31.7970 C   0  0  0  0  0  0  0  0  0  0  0  0
   -2.1759   20.6156  -31.5622 H   0  0  0  0  0  0  0  0  0  0  0  0
   -2.9094   20.0924  -33.1162 H   0  0  0  0  0  0  0  0  0  0  0  0
   -1.3692   21.0168  -33.1162 H   0  0  0  0  0  0  0  0  0  0  0  0
   -3.0290   25.2980  -30.4540 H   0  0  0  0  0  0  0  0  0  0  0  0
   -7.9356   24.3856  -30.8572 H   0  0  0  0  0  0  0  0  0  0  0  0
   -9.3727   22.0975  -31.7886 H   0  0  0  0  0  0  0  0  0  0  0  0
   -9.0630   19.7907  -32.7397 H   0  0  0  0  0  0  0  0  0  0  0  0
   -5.8099   15.7014  -35.1411 H   0  0  0  0  0  0  0  0  0  0  0  0
   -4.7359   20.2760  -32.5090 H   0  0  0  0  0  0  0  0  0  0  0  0
  1  2  1  0
  2  3  1  0
  3  4  2  0
  3  5  1  0
  5  6  1  0
  6  7  1  0
  7  8  1  0
  7  9  2  0
  6 10  2  0
 10 11  1  0
 11 12  2  0
 12 13  1  0
 13 14  2  0
 14 15  1  0
 15 16  2  0
 16 17  1  0
 17 18  2  0
 18 19  1  0
 14 20  1  0
 20 21  2  0
 21  5  1  0
 21 11  1  0
 19 15  1  0
  1 22  1  0
  1 23  1  0
  1 24  1  0
  8 25  1  0
 10 26  1  0
 12 27  1  0
 13 28  1  0
 18 29  1  0
 20 30  1  0
M  CHG  1   8  -1
M  END
>  <UniqueID>  (24) 
24

>  <SMILES>  (24) 
COC(=O)n1c(C([NH-])=O)cc2ccc(-c3nncs3)cc21

>  <Energy>  (24) 
104.53640909421026

>  <Genealogy>  (24) 
COC(=O)n1c(C([NH-])=O)cc2ccc(-c3nncs3)cc21 (protonated)
COC(=O)n1c(C([NH-])=O)cc2ccc(-c3nncs3)cc21 (3D coordinates assigned)
COC(=O)n1c(C([NH-])=O)cc2ccc(-c3nncs3)cc21 (optimized conformer: 104.53640909421026 kcal/mol)

>  <smiles>  (24) 
COC(=O)n1c(C(N)=O)cc2ccc(-c3nncs3)cc21

>  <score_type>  (24) 
oracle

>  <origin>  (24) 
adg

>  <m_score__min__energy>  (24) 
-10.130000000000001

>  <m_primary>  (24) 
energy

$$$$
24:0
     RDKit          3D

 44 46  0  0  0  0  0  0  0  0999 V2000
   -6.0980   16.6580  -33.5860 C   0  0  0  0  0  0  0  0  0  0  0  0
   -5.8280   16.6810  -32.2010 O   0  0  0  0  0  0  0  0  0  0  0  0
   -6.4830   17.7780  -31.5880 C   0  0  0  0  0  0  0  0  0  0  0  0
   -7.3080   18.5690  -32.6090 C   0  0  0  0  0  0  0  0  0  0  0  0
   -7.3580   20.0330  -32.2580 C   0  0  0  0  0  0  0  0  0  0  0  0
   -8.5920   20.7290  -32.2830 C   0  0  0  0  0  0  0  0  0  0  0  0
   -8.6570   22.0840  -31.9180 C   0  0  0  0  0  0  0  0  0  0  0  0
   -7.4760   22.7130  -31.5350 C   0  0  0  0  0  0  0  0  0  0  0  0
   -7.2600   24.0050  -31.1120 C   0  0  0  0  0  0  0  0  0  0  0  0
   -5.8940   24.0830  -30.8460 C   0  0  0  0  0  0  0  0  0  0  0  0
   -5.2150   25.3330  -30.4490 C   0  0  0  0  0  0  0  0  0  0  0  0
   -3.8720   25.5740  -30.8660 N   0  0  0  0  0  0  0  0  0  0  0  0
   -5.7920   26.1770  -29.7140 O   0  0  0  0  0  0  0  0  0  0  0  0
   -5.2910   22.8820  -31.0860 N   0  0  0  0  0  0  0  0  0  0  0  0
   -3.9130   22.5280  -30.8810 C   0  0  0  0  0  0  0  0  0  0  0  0
   -3.0150   23.0330  -31.6070 O   0  0  0  0  0  0  0  0  0  0  0  0
   -3.5730   21.6440  -29.8530 O   0  0  0  0  0  0  0  0  0  0  0  0
   -3.2410   22.0790  -28.5390 C   0  0  0  0  0  0  0  0  0  0  0  0
   -2.2030   23.1510  -28.6170 C   0  0  0  0  0  0  0  0  0  0  0  0
   -2.4570   24.4360  -28.7130 O   0  0  0  0  0  0  0  0  0  0  0  0
   -1.2870   25.0300  -28.7860 C   0  0  0  0  0  0  0  0  0  0  0  0
   -1.1430   26.2760  -28.8840 O   0  0  0  0  0  0  0  0  0  0  0  0
   -0.2860   24.1800  -28.7470 O   0  0  0  0  0  0  0  0  0  0  0  0
   -0.8300   22.9900  -28.6460 C   0  0  0  0  0  0  0  0  0  0  0  0
   -0.0670   21.7080  -28.5690 C   0  0  0  0  0  0  0  0  0  0  0  0
   -6.2730   22.0570  -31.5110 C   0  0  0  0  0  0  0  0  0  0  0  0
   -6.1830   20.7010  -31.8510 C   0  0  0  0  0  0  0  0  0  0  0  0
   -7.1823   16.5656  -33.7467 H   0  0  0  0  0  0  0  0  0  0  0  0
   -5.7373   17.5901  -34.0454 H   0  0  0  0  0  0  0  0  0  0  0  0
   -5.5849   15.8003  -34.0454 H   0  0  0  0  0  0  0  0  0  0  0  0
   -7.1517   17.4022  -30.7996 H   0  0  0  0  0  0  0  0  0  0  0  0
   -5.7204   18.4465  -31.1620 H   0  0  0  0  0  0  0  0  0  0  0  0
   -6.8521   18.4546  -33.6035 H   0  0  0  0  0  0  0  0  0  0  0  0
   -8.3354   18.1760  -32.6036 H   0  0  0  0  0  0  0  0  0  0  0  0
   -9.5078   20.2033  -32.5912 H   0  0  0  0  0  0  0  0  0  0  0  0
   -9.6114   22.6307  -31.9344 H   0  0  0  0  0  0  0  0  0  0  0  0
   -8.0068   24.8057  -31.0063 H   0  0  0  0  0  0  0  0  0  0  0  0
   -3.0940   24.9510  -30.5570 H   0  0  0  0  0  0  0  0  0  0  0  0
   -4.1408   22.4750  -28.0455 H   0  0  0  0  0  0  0  0  0  0  0  0
   -2.8488   21.2301  -27.9597 H   0  0  0  0  0  0  0  0  0  0  0  0
    0.0929   21.4393  -27.5144 H   0  0  0  0  0  0  0  0  0  0  0  0
   -0.6378   20.9110  -29.0680 H   0  0  0  0  0  0  0  0  0  0  0  0
    0.9057   21.8297  -29.0680 H   0  0  0  0  0  0  0  0  0  0  0  0
   -5.2208   20.1701  -31.8020 H   0  0  0  0  0  0  0  0  0  0  0  0
  1  2  1  0
  2  3  1  0
  3  4  1  0
  4  5  1  0
  5  6  2  0
  6  7  1  0
  7  8  2  0
  8  9  1  0
  9 10  2  0
 10 11  1  0
 11 12  1  0
 11 13  2  0
 10 14  1  0
 14 15  1  0
 15 16  2  0
 15 17  1  0
 17 18  1  0
 18 19  1  0
 19 20  1  0
 20 21  1  0
 21 22  2  0
 21 23  1  0
 23 24  1  0
 24 25  1  0
 14 26  1  0
 26 27  2  0
 27  5  1  0
 26  8  1  0
 24 19  2  0
  1 28  1  0
  1 29  1  0
  1 30  1  0
  3 31  1  0
  3 32  1  0
  4 33  1  0
  4 34  1  0
  6 35  1  0
  7 36  1  0
  9 37  1  0
 12 38  1  0
 18 39  1  0
 18 40  1  0
 25 41  1  0
 25 42  1  0
 25 43  1  0
 27 44  1  0
M  CHG  1  12  -1
M  END
>  <UniqueID>  (25) 
25

>  <SMILES>  (25) 
COCCc1ccc2cc(C([NH-])=O)n(C(=O)OCc3oc(=O)oc3C)c2c1

>  <Energy>  (25) 
113.05548702605236

>  <Genealogy>  (25) 
COCCc1ccc2cc(C([NH-])=O)n(C(=O)OCc3oc(=O)oc3C)c2c1 (protonated)
COCCc1ccc2cc(C([NH-])=O)n(C(=O)OCc3oc(=O)oc3C)c2c1 (3D coordinates assigned)
COCCc1ccc2cc(C([NH-])=O)n(C(=O)OCc3oc(=O)oc3C)c2c1 (optimized conformer: 113.05548702605236 kcal/mol)

>  <smiles>  (25) 
COCCc1ccc2cc(C(N)=O)n(C(=O)OCc3oc(=O)oc3C)c2c1

>  <score_type>  (25) 
oracle

>  <origin>  (25) 
adg

>  <m_score__min__energy>  (25) 
-10.91

>  <m_primary>  (25) 
energy

$$$$
25:0
     RDKit          3D

 33 34  0  0  0  0  0  0  0  0999 V2000
   -3.0090   21.7500  -32.5380 C   0  0  0  0  0  0  0  0  0  0  0  0
   -3.7190   22.6700  -31.5960 C   0  0  0  0  0  0  0  0  0  0  0  0
   -3.0420   23.4280  -30.8510 O   0  0  0  0  0  0  0  0  0  0  0  0
   -5.1550   22.7150  -31.5440 N   0  0  0  0  0  0  0  0  0  0  0  0
   -5.9250   23.6520  -30.9220 C   0  0  0  0  0  0  0  0  0  0  0  0
   -5.4320   24.8940  -30.2920 C   0  0  0  0  0  0  0  0  0  0  0  0
   -5.8930   25.3070  -29.0050 N   0  0  0  0  0  0  0  0  0  0  0  0
   -4.5520   25.5780  -30.8790 O   0  0  0  0  0  0  0  0  0  0  0  0
   -7.2680   23.2950  -30.9710 C   0  0  0  0  0  0  0  0  0  0  0  0
   -7.3020   22.1000  -31.6540 C   0  0  0  0  0  0  0  0  0  0  0  0
   -8.3800   21.2820  -31.9660 C   0  0  0  0  0  0  0  0  0  0  0  0
   -8.1200   20.0750  -32.6350 C   0  0  0  0  0  0  0  0  0  0  0  0
   -6.7920   19.6900  -32.9700 C   0  0  0  0  0  0  0  0  0  0  0  0
   -6.5320   18.4330  -33.6480 N   0  0  0  0  0  0  0  0  0  0  0  0
   -5.7390   18.4010  -34.8840 C   0  0  0  0  0  0  0  0  0  0  0  0
   -7.0550   17.1720  -33.1080 C   0  0  0  0  0  0  0  0  0  0  0  0
   -5.7230   20.5580  -32.6230 C   0  0  0  0  0  0  0  0  0  0  0  0
   -6.0150   21.7670  -31.9830 C   0  0  0  0  0  0  0  0  0  0  0  0
   -2.4360   21.0075  -31.9632 H   0  0  0  0  0  0  0  0  0  0  0  0
   -3.7455   21.2343  -33.1717 H   0  0  0  0  0  0  0  0  0  0  0  0
   -2.3234   22.3317  -33.1717 H   0  0  0  0  0  0  0  0  0  0  0  0
   -5.5710   26.2150  -28.6010 H   0  0  0  0  0  0  0  0  0  0  0  0
   -6.4710   24.6750  -28.4080 H   0  0  0  0  0  0  0  0  0  0  0  0
   -8.1214   23.8492  -30.5531 H   0  0  0  0  0  0  0  0  0  0  0  0
   -9.4068   21.5709  -31.6971 H   0  0  0  0  0  0  0  0  0  0  0  0
   -8.9580   19.4155  -32.9048 H   0  0  0  0  0  0  0  0  0  0  0  0
   -4.6691   18.3578  -34.6322 H   0  0  0  0  0  0  0  0  0  0  0  0
   -6.0132   17.5132  -35.4727 H   0  0  0  0  0  0  0  0  0  0  0  0
   -5.9408   19.3080  -35.4727 H   0  0  0  0  0  0  0  0  0  0  0  0
   -7.0395   17.2094  -32.0087 H   0  0  0  0  0  0  0  0  0  0  0  0
   -8.0883   17.0250  -33.4553 H   0  0  0  0  0  0  0  0  0  0  0  0
   -6.4291   16.3368  -33.4553 H   0  0  0  0  0  0  0  0  0  0  0  0
   -4.6829   20.2842  -32.8536 H   0  0  0  0  0  0  0  0  0  0  0  0
  1  2  1  0
  2  3  2  0
  2  4  1  0
  4  5  1  0
  5  6  1  0
  6  7  1  0
  6  8  2  0
  5  9  2  0
  9 10  1  0
 10 11  2  0
 11 12  1  0
 12 13  2  0
 13 14  1  0
 14 15  1  0
 14 16  1  0
 13 17  1  0
 17 18  2  0
 18  4  1  0
 18 10  1  0
  1 19  1  0
  1 20  1  0
  1 21  1  0
  7 22  1  0
  7 23  1  0
  9 24  1  0
 11 25  1  0
 12 26  1  0
 15 27  1  0
 15 28  1  0
 15 29  1  0
 16 30  1  0
 16 31  1  0
 16 32  1  0
 17 33  1  0
M  END
>  <UniqueID>  (26) 
26

>  <SMILES>  (26) 
CC(=O)n1c(C(N)=O)cc2ccc(N(C)C)cc21

>  <Energy>  (26) 
73.6015713573205

>  <Genealogy>  (26) 
CC(=O)n1c(C(N)=O)cc2ccc(N(C)C)cc21 (3D coordinates assigned)
CC(=O)n1c(C(N)=O)cc2ccc(N(C)C)cc21 (optimized conformer: 73.6015713573205 kcal/mol)

>  <smiles>  (26) 
CC(=O)n1c(C(N)=O)cc2ccc(N(C)C)cc21

>  <score_type>  (26) 
oracle

>  <origin>  (26) 
adg

>  <m_score__min__energy>  (26) 
-8.3300000000000001

>  <m_primary>  (26) 
energy

$$$$
26:0
     RDKit          3D

 49 50  0  0  0  0  0  0  0  0999 V2000
   -3.1020   21.1420  -29.6230 C   0  0  0  0  0  0  0  0  0  0  0  0
   -2.8040   22.6370  -29.6240 C   0  0  0  0  0  0  0  0  0  0  0  0
   -2.9110   23.1720  -30.9410 O   0  0  0  0  0  0  0  0  0  0  0  0
   -3.8690   22.7490  -31.8700 C   0  0  0  0  0  0  0  0  0  0  0  0
   -3.5120   22.2770  -32.9850 O   0  0  0  0  0  0  0  0  0  0  0  0
   -5.2650   22.8830  -31.5630 N   0  0  0  0  0  0  0  0  0  0  0  0
   -5.8710   23.8490  -30.8150 C   0  0  0  0  0  0  0  0  0  0  0  0
   -5.2240   25.0640  -30.2750 C   0  0  0  0  0  0  0  0  0  0  0  0
   -4.0180   25.5680  -30.8420 N   0  0  0  0  0  0  0  0  0  0  0  0
   -5.7710   25.6920  -29.3290 O   0  0  0  0  0  0  0  0  0  0  0  0
   -7.2330   23.5870  -30.6910 C   0  0  0  0  0  0  0  0  0  0  0  0
   -7.4480   22.4280  -31.4000 C   0  0  0  0  0  0  0  0  0  0  0  0
   -8.6220   21.7090  -31.6080 C   0  0  0  0  0  0  0  0  0  0  0  0
   -8.5460   20.5300  -32.3670 C   0  0  0  0  0  0  0  0  0  0  0  0
   -7.3080   20.0880  -32.9050 C   0  0  0  0  0  0  0  0  0  0  0  0
   -7.2380   18.8620  -33.6720 N   0  0  0  0  0  0  0  0  0  0  0  0
   -6.3080   17.8410  -33.1150 C   0  0  0  0  0  0  0  0  0  0  0  0
   -6.7760   16.4050  -33.4560 C   0  0  0  0  0  0  0  0  0  0  0  0
   -6.1890   17.9670  -31.5760 C   0  0  0  0  0  0  0  0  0  0  0  0
   -4.9380   18.0650  -33.7390 C   0  0  0  0  0  0  0  0  0  0  0  0
   -4.8400   18.5800  -34.8880 O   0  0  0  0  0  0  0  0  0  0  0  0
   -3.7910   17.6090  -33.0790 O   0  0  0  0  0  0  0  0  0  0  0  0
   -2.4810   18.0420  -33.4250 C   0  0  0  0  0  0  0  0  0  0  0  0
   -2.3570   19.5370  -33.1780 C   0  0  0  0  0  0  0  0  0  0  0  0
   -6.1360   20.8400  -32.6540 C   0  0  0  0  0  0  0  0  0  0  0  0
   -6.2450   22.0220  -31.9160 C   0  0  0  0  0  0  0  0  0  0  0  0
   -3.1735   20.7831  -28.5857 H   0  0  0  0  0  0  0  0  0  0  0  0
   -4.0546   20.9576  -30.1413 H   0  0  0  0  0  0  0  0  0  0  0  0
   -2.2929   20.6065  -30.1413 H   0  0  0  0  0  0  0  0  0  0  0  0
   -3.5227   23.1487  -28.9670 H   0  0  0  0  0  0  0  0  0  0  0  0
   -1.7771   22.7928  -29.2617 H   0  0  0  0  0  0  0  0  0  0  0  0
   -3.0880   25.2920  -30.4590 H   0  0  0  0  0  0  0  0  0  0  0  0
   -7.9788   24.1809  -30.1424 H   0  0  0  0  0  0  0  0  0  0  0  0
   -9.5795   22.0539  -31.1906 H   0  0  0  0  0  0  0  0  0  0  0  0
   -9.4573   19.9409  -32.5473 H   0  0  0  0  0  0  0  0  0  0  0  0
   -6.9520   19.0950  -34.6530 H   0  0  0  0  0  0  0  0  0  0  0  0
   -8.2010   18.4540  -33.7420 H   0  0  0  0  0  0  0  0  0  0  0  0
   -6.9576   15.8478  -32.5251 H   0  0  0  0  0  0  0  0  0  0  0  0
   -7.7054   16.4518  -34.0426 H   0  0  0  0  0  0  0  0  0  0  0  0
   -5.9975   15.8952  -34.0426 H   0  0  0  0  0  0  0  0  0  0  0  0
   -6.8684   17.2476  -31.0956 H   0  0  0  0  0  0  0  0  0  0  0  0
   -5.1541   17.7548  -31.2697 H   0  0  0  0  0  0  0  0  0  0  0  0
   -6.4600   18.9881  -31.2697 H   0  0  0  0  0  0  0  0  0  0  0  0
   -1.7436   17.5066  -32.8088 H   0  0  0  0  0  0  0  0  0  0  0  0
   -2.2949   17.8304  -34.4883 H   0  0  0  0  0  0  0  0  0  0  0  0
   -2.3410   19.7296  -32.0951 H   0  0  0  0  0  0  0  0  0  0  0  0
   -1.4251   19.9073  -33.6301 H   0  0  0  0  0  0  0  0  0  0  0  0
   -3.2152   20.0558  -33.6301 H   0  0  0  0  0  0  0  0  0  0  0  0
   -5.1599   20.5016  -33.0316 H   0  0  0  0  0  0  0  0  0  0  0  0
  1  2  1  0
  2  3  1  0
  3  4  1  0
  4  5  2  0
  4  6  1  0
  6  7  1  0
  7  8  1  0
  8  9  1  0
  8 10  2  0
  7 11  2  0
 11 12  1  0
 12 13  2  0
 13 14  1  0
 14 15  2  0
 15 16  1  0
 16 17  1  0
 17 18  1  0
 17 19  1  0
 17 20  1  0
 20 21  2  0
 20 22  1  0
 22 23  1  0
 23 24  1  0
 15 25  1  0
 25 26  2  0
 26  6  1  0
 26 12  1  0
  1 27  1  0
  1 28  1  0
  1 29  1  0
  2 30  1  0
  2 31  1  0
  9 32  1  0
 11 33  1  0
 13 34  1  0
 14 35  1  0
 16 36  1  0
 16 37  1  0
 18 38  1  0
 18 39  1  0
 18 40  1  0
 19 41  1  0
 19 42  1  0
 19 43  1  0
 23 44  1  0
 23 45  1  0
 24 46  1  0
 24 47  1  0
 24 48  1  0
 25 49  1  0
M  CHG  2   9  -1  16   1
M  END
>  <UniqueID>  (27) 
27

>  <SMILES>  (27) 
CCOC(=O)n1c(C([NH-])=O)cc2ccc([NH2+]C(C)(C)C(=O)OCC)cc21

>  <Energy>  (27) 
81.71576380344773

>  <Genealogy>  (27) 
CCOC(=O)n1c(C([NH-])=O)cc2ccc([NH2+]C(C)(C)C(=O)OCC)cc21 (protonated)
CCOC(=O)n1c(C([NH-])=O)cc2ccc([NH2+]C(C)(C)C(=O)OCC)cc21 (3D coordinates assigned)
CCOC(=O)n1c(C([NH-])=O)cc2ccc([NH2+]C(C)(C)C(=O)OCC)cc21 (optimized conformer: 81.71576380344773 kcal/mol)

>  <smiles>  (27) 
CCOC(=O)n1c(C(N)=O)cc2ccc(NC(C)(C)C(=O)OCC)cc21

>  <score_type>  (27) 
oracle

>  <origin>  (27) 
adg

>  <m_score__min__energy>  (27) 
-9.4700000000000006

>  <m_primary>  (27) 
energy

$$$$
27:0
     RDKit          3D

 34 35  0  0  0  0  0  0  0  0999 V2000
   -3.1340   19.7980  -33.4730 C   0  0  0  0  0  0  0  0  0  0  0  0
   -2.5220   20.9130  -32.6320 C   0  0  0  0  0  0  0  0  0  0  0  0
   -3.3340   22.0840  -32.6820 O   0  0  0  0  0  0  0  0  0  0  0  0
   -3.8210   22.7340  -31.5430 C   0  0  0  0  0  0  0  0  0  0  0  0
   -3.0310   23.0930  -30.6270 O   0  0  0  0  0  0  0  0  0  0  0  0
   -5.2300   22.9680  -31.4040 N   0  0  0  0  0  0  0  0  0  0  0  0
   -5.8500   24.0530  -30.8580 C   0  0  0  0  0  0  0  0  0  0  0  0
   -5.1930   25.3070  -30.4330 C   0  0  0  0  0  0  0  0  0  0  0  0
   -3.8680   25.6200  -30.8540 N   0  0  0  0  0  0  0  0  0  0  0  0
   -5.8280   26.1350  -29.7280 O   0  0  0  0  0  0  0  0  0  0  0  0
   -7.2300   23.8620  -30.8250 C   0  0  0  0  0  0  0  0  0  0  0  0
   -7.4400   22.6210  -31.3810 C   0  0  0  0  0  0  0  0  0  0  0  0
   -8.6250   21.9200  -31.5840 C   0  0  0  0  0  0  0  0  0  0  0  0
   -8.5430   20.6380  -32.1500 C   0  0  0  0  0  0  0  0  0  0  0  0
   -7.2870   20.0830  -32.5040 C   0  0  0  0  0  0  0  0  0  0  0  0
   -7.2090   18.6900  -33.0660 C   0  0  0  0  0  0  0  0  0  0  0  0
   -6.7970   17.6950  -31.9860 C   0  0  0  0  0  0  0  0  0  0  0  0
   -6.1040   20.8200  -32.2710 C   0  0  0  0  0  0  0  0  0  0  0  0
   -6.2180   22.1020  -31.7230 C   0  0  0  0  0  0  0  0  0  0  0  0
   -3.5564   19.0284  -32.8101 H   0  0  0  0  0  0  0  0  0  0  0  0
   -3.9309   20.2128  -34.1078 H   0  0  0  0  0  0  0  0  0  0  0  0
   -2.3562   19.3484  -34.1078 H   0  0  0  0  0  0  0  0  0  0  0  0
   -2.4395   20.5748  -31.5885 H   0  0  0  0  0  0  0  0  0  0  0  0
   -1.5270   21.1545  -33.0341 H   0  0  0  0  0  0  0  0  0  0  0  0
   -3.0390   25.2530  -30.3370 H   0  0  0  0  0  0  0  0  0  0  0  0
   -7.9901   24.5560  -30.4369 H   0  0  0  0  0  0  0  0  0  0  0  0
   -9.5963   22.3572  -31.3093 H   0  0  0  0  0  0  0  0  0  0  0  0
   -9.4621   20.0582  -32.3206 H   0  0  0  0  0  0  0  0  0  0  0  0
   -8.1947   18.4049  -33.4625 H   0  0  0  0  0  0  0  0  0  0  0  0
   -6.4558   18.6738  -33.8675 H   0  0  0  0  0  0  0  0  0  0  0  0
   -6.9789   18.1343  -30.9941 H   0  0  0  0  0  0  0  0  0  0  0  0
   -7.3873   16.7729  -32.0925 H   0  0  0  0  0  0  0  0  0  0  0  0
   -5.7277   17.4601  -32.0925 H   0  0  0  0  0  0  0  0  0  0  0  0
   -5.1185   20.3963  -32.5144 H   0  0  0  0  0  0  0  0  0  0  0  0
  1  2  1  0
  2  3  1  0
  3  4  1  0
  4  5  2  0
  4  6  1  0
  6  7  1  0
  7  8  1  0
  8  9  1  0
  8 10  2  0
  7 11  2  0
 11 12  1  0
 12 13  2  0
 13 14  1  0
 14 15  2  0
 15 16  1  0
 16 17  1  0
 15 18  1  0
 18 19  2  0
 19  6  1  0
 19 12  1  0
  1 20  1  0
  1 21  1  0
  1 22  1  0
  2 23  1  0
  2 24  1  0
  9 25  1  0
 11 26  1  0
 13 27  1  0
 14 28  1  0
 16 29  1  0
 16 30  1  0
 17 31  1  0
 17 32  1  0
 17 33  1  0
 18 34  1  0
M  CHG  1   9  -1
M  END
>  <UniqueID>  (28) 
28

>  <SMILES>  (28) 
CCOC(=O)n1c(C([NH-])=O)cc2ccc(CC)cc21

>  <Energy>  (28) 
65.90482711794087

>  <Genealogy>  (28) 
CCOC(=O)n1c(C([NH-])=O)cc2ccc(CC)cc21 (protonated)
CCOC(=O)n1c(C([NH-])=O)cc2ccc(CC)cc21 (3D coordinates assigned)
CCOC(=O)n1c(C([NH-])=O)cc2ccc(CC)cc21 (optimized conformer: 65.90482711794087 kcal/mol)

>  <smiles>  (28) 
CCOC(=O)n1c(C(N)=O)cc2ccc(CC)cc21

>  <score_type>  (28) 
oracle

>  <origin>  (28) 
adg

>  <m_score__min__energy>  (28) 
-9.4000000000000004

>  <m_primary>  (28) 
energy

$$$$
28:0
     RDKit          3D

 32 33  0  0  0  0  0  0  0  0999 V2000
   -5.6490   18.2270  -34.6330 C   0  0  0  0  0  0  0  0  0  0  0  0
   -5.5690   17.6550  -33.3330 O   0  0  0  0  0  0  0  0  0  0  0  0
   -6.5480   17.8630  -32.3580 C   0  0  0  0  0  0  0  0  0  0  0  0
   -6.3870   17.4380  -31.1820 O   0  0  0  0  0  0  0  0  0  0  0  0
   -7.7760   18.6430  -32.7050 C   0  0  0  0  0  0  0  0  0  0  0  0
   -7.6850   20.0280  -32.1290 C   0  0  0  0  0  0  0  0  0  0  0  0
   -8.8370   20.6490  -31.5850 C   0  0  0  0  0  0  0  0  0  0  0  0
   -8.7760   21.9610  -31.0870 C   0  0  0  0  0  0  0  0  0  0  0  0
   -7.5540   22.6250  -31.1480 C   0  0  0  0  0  0  0  0  0  0  0  0
   -7.2240   23.9080  -30.7730 C   0  0  0  0  0  0  0  0  0  0  0  0
   -5.8730   24.0470  -31.0850 C   0  0  0  0  0  0  0  0  0  0  0  0
   -5.0860   25.2640  -30.7910 C   0  0  0  0  0  0  0  0  0  0  0  0
   -3.6990   25.1540  -30.4790 N   0  0  0  0  0  0  0  0  0  0  0  0
   -5.6190   26.4030  -30.8360 O   0  0  0  0  0  0  0  0  0  0  0  0
   -5.3880   22.8970  -31.6320 N   0  0  0  0  0  0  0  0  0  0  0  0
   -4.0650   22.6510  -32.1340 C   0  0  0  0  0  0  0  0  0  0  0  0
   -3.8670   22.2880  -33.5020 N   0  0  0  0  0  0  0  0  0  0  0  0
   -3.0700   22.7610  -31.3700 O   0  0  0  0  0  0  0  0  0  0  0  0
   -6.4290   22.0360  -31.6650 C   0  0  0  0  0  0  0  0  0  0  0  0
   -6.4660   20.7380  -32.1860 C   0  0  0  0  0  0  0  0  0  0  0  0
   -5.8009   19.3131  -34.5470 H   0  0  0  0  0  0  0  0  0  0  0  0
   -4.7145   18.0295  -35.1786 H   0  0  0  0  0  0  0  0  0  0  0  0
   -6.4935   17.7807  -35.1786 H   0  0  0  0  0  0  0  0  0  0  0  0
   -7.8686   18.7089  -33.7991 H   0  0  0  0  0  0  0  0  0  0  0  0
   -8.6570   18.1348  -32.2859 H   0  0  0  0  0  0  0  0  0  0  0  0
   -9.7885   20.0980  -31.5524 H   0  0  0  0  0  0  0  0  0  0  0  0
   -9.6659   22.4485  -30.6622 H   0  0  0  0  0  0  0  0  0  0  0  0
   -7.8858   24.6626  -30.3230 H   0  0  0  0  0  0  0  0  0  0  0  0
   -2.9990   24.9240  -31.2180 H   0  0  0  0  0  0  0  0  0  0  0  0
   -4.6830   22.1270  -34.1310 H   0  0  0  0  0  0  0  0  0  0  0  0
   -2.9030   22.1400  -33.8720 H   0  0  0  0  0  0  0  0  0  0  0  0
   -5.5681   20.2823  -32.6288 H   0  0  0  0  0  0  0  0  0  0  0  0
  1  2  1  0
  2  3  1  0
  3  4  2  0
  3  5  1  0
  5  6  1  0
  6  7  2  0
  7  8  1  0
  8  9  2  0
  9 10  1  0
 10 11  2  0
 11 12  1  0
 12 13  1  0
 12 14  2  0
 11 15  1  0
 15 16  1  0
 16 17  1  0
 16 18  2  0
 15 19  1  0
 19 20  2  0
 20  6  1  0
 19  9  1  0
  1 21  1  0
  1 22  1  0
  1 23  1  0
  5 24  1  0
  5 25  1  0
  7 26  1  0
  8 27  1  0
 10 28  1  0
 13 29  1  0
 17 30  1  0
 17 31  1  0
 20 32  1  0
M  CHG  1  13  -1
M  END
>  <UniqueID>  (29) 
29

>  <SMILES>  (29) 
COC(=O)Cc1ccc2cc(C([NH-])=O)n(C(N)=O)c2c1

>  <Energy>  (29) 
66.09558660148683

>  <Genealogy>  (29) 
COC(=O)Cc1ccc2cc(C([NH-])=O)n(C(N)=O)c2c1 (protonated)
COC(=O)Cc1ccc2cc(C([NH-])=O)n(C(N)=O)c2c1 (3D coordinates assigned)
COC(=O)Cc1ccc2cc(C([NH-])=O)n(C(N)=O)c2c1 (optimized conformer: 66.09558660148683 kcal/mol)

>  <smiles>  (29) 
COC(=O)Cc1ccc2cc(C(N)=O)n(C(N)=O)c2c1

>  <score_type>  (29) 
oracle

>  <origin>  (29) 
adg

>  <m_score__min__energy>  (29) 
-10.31

>  <m_primary>  (29) 
energy

$$$$
29:0
     RDKit          3D

 35 37  0  0  0  0  0  0  0  0999 V2000
   -3.6690   17.7510  -33.7400 C   0  0  0  0  0  0  0  0  0  0  0  0
   -5.0480   17.3150  -34.0100 N   0  0  0  0  0  0  0  0  0  0  0  0
   -5.8720   18.3770  -34.6060 C   0  0  0  0  0  0  0  0  0  0  0  0
   -6.8540   18.3740  -33.4420 C   0  0  0  0  0  0  0  0  0  0  0  0
   -7.0370   19.7090  -32.7400 C   0  0  0  0  0  0  0  0  0  0  0  0
   -8.3590   20.1410  -32.4590 C   0  0  0  0  0  0  0  0  0  0  0  0
   -8.6020   21.3790  -31.8450 C   0  0  0  0  0  0  0  0  0  0  0  0
   -7.5070   22.1700  -31.5180 C   0  0  0  0  0  0  0  0  0  0  0  0
   -7.4610   23.4230  -30.9520 C   0  0  0  0  0  0  0  0  0  0  0  0
   -6.1080   23.7400  -30.8730 C   0  0  0  0  0  0  0  0  0  0  0  0
   -5.6000   24.9830  -30.2600 C   0  0  0  0  0  0  0  0  0  0  0  0
   -6.1170   25.4610  -29.0170 N   0  0  0  0  0  0  0  0  0  0  0  0
   -4.7350   25.6650  -30.8710 O   0  0  0  0  0  0  0  0  0  0  0  0
   -5.3450   22.7300  -31.3810 N   0  0  0  0  0  0  0  0  0  0  0  0
   -3.9220   22.7270  -31.5870 C   0  0  0  0  0  0  0  0  0  0  0  0
   -3.0840   23.5920  -30.8220 N   0  0  0  0  0  0  0  0  0  0  0  0
   -3.4070   21.9700  -32.4510 O   0  0  0  0  0  0  0  0  0  0  0  0
   -6.2200   21.7730  -31.7680 C   0  0  0  0  0  0  0  0  0  0  0  0
   -5.9510   20.5520  -32.3990 C   0  0  0  0  0  0  0  0  0  0  0  0
   -5.9040   17.3590  -32.8140 C   0  0  0  0  0  0  0  0  0  0  0  0
   -3.5068   17.8023  -32.6532 H   0  0  0  0  0  0  0  0  0  0  0  0
   -2.9638   17.0320  -34.1825 H   0  0  0  0  0  0  0  0  0  0  0  0
   -3.5054   18.7447  -34.1825 H   0  0  0  0  0  0  0  0  0  0  0  0
   -5.3374   19.3309  -34.7251 H   0  0  0  0  0  0  0  0  0  0  0  0
   -6.2582   18.2395  -35.6267 H   0  0  0  0  0  0  0  0  0  0  0  0
   -7.9304   18.1720  -33.5446 H   0  0  0  0  0  0  0  0  0  0  0  0
   -9.2076   19.4945  -32.7270 H   0  0  0  0  0  0  0  0  0  0  0  0
   -9.6275   21.7132  -31.6291 H   0  0  0  0  0  0  0  0  0  0  0  0
   -8.3116   24.0420  -30.6306 H   0  0  0  0  0  0  0  0  0  0  0  0
   -5.7200   26.3220  -28.5810 H   0  0  0  0  0  0  0  0  0  0  0  0
   -6.9460   25.0110  -28.5700 H   0  0  0  0  0  0  0  0  0  0  0  0
   -3.0980   24.6240  -30.9750 H   0  0  0  0  0  0  0  0  0  0  0  0
   -4.9167   20.2535  -32.6253 H   0  0  0  0  0  0  0  0  0  0  0  0
   -5.3878   17.7371  -31.9192 H   0  0  0  0  0  0  0  0  0  0  0  0
   -6.3154   16.4184  -32.4191 H   0  0  0  0  0  0  0  0  0  0  0  0
  1  2  1  0
  2  3  1  0
  3  4  1  0
  4  5  1  0
  5  6  2  0
  6  7  1  0
  7  8  2  0
  8  9  1  0
  9 10  2  0
 10 11  1  0
 11 12  1  0
 11 13  2  0
 10 14  1  0
 14 15  1  0
 15 16  1  0
 15 17  2  0
 14 18  1  0
 18 19  2  0
  4 20  1  0
 20  2  1  0
 19  5  1  0
 18  8  1  0
  1 21  1  0
  1 22  1  0
  1 23  1  0
  3 24  1  0
  3 25  1  0
  4 26  1  0
  6 27  1  0
  7 28  1  0
  9 29  1  0
 12 30  1  0
 12 31  1  0
 16 32  1  0
 19 33  1  0
 20 34  1  0
 20 35  1  0
M  CHG  1  16  -1
M  END
>  <UniqueID>  (30) 
30

>  <SMILES>  (30) 
CN1CC(c2ccc3cc(C(N)=O)n(C([NH-])=O)c3c2)C1

>  <Energy>  (30) 
149.13941743101535

>  <Genealogy>  (30) 
CN1CC(c2ccc3cc(C(N)=O)n(C([NH-])=O)c3c2)C1 (protonated)
CN1CC(c2ccc3cc(C(N)=O)n(C([NH-])=O)c3c2)C1 (3D coordinates assigned)
CN1CC(c2ccc3cc(C(N)=O)n(C([NH-])=O)c3c2)C1 (nonaromatic ring conformer: 149.13941743101535 kcal/mol)

>  <smiles>  (30) 
CN1CC(c2ccc3cc(C(N)=O)n(C(N)=O)c3c2)C1

>  <score_type>  (30) 
oracle

>  <origin>  (30) 
adg

>  <m_score__min__energy>  (30) 
-9.3100000000000005

>  <m_primary>  (30) 
energy

$$$$
30:0
     RDKit          3D

 71 74  0  0  0  0  0  0  0  0999 V2000
   -0.1360   21.0250  -34.8680 C   0  0  0  0  0  0  0  0  0  0  0  0
   -0.2250   21.1340  -33.3530 C   0  0  0  0  0  0  0  0  0  0  0  0
   -1.3280   20.3750  -32.8640 O   0  0  0  0  0  0  0  0  0  0  0  0
   -2.5800   20.4170  -33.4860 C   0  0  0  0  0  0  0  0  0  0  0  0
   -3.0770   21.5240  -33.8370 O   0  0  0  0  0  0  0  0  0  0  0  0
   -3.3980   19.2020  -33.6180 C   0  0  0  0  0  0  0  0  0  0  0  0
   -2.9150   18.0910  -34.2150 N   0  0  0  0  0  0  0  0  0  0  0  0
   -3.8920   17.2020  -34.3280 N   0  0  0  0  0  0  0  0  0  0  0  0
   -3.6940   15.9240  -34.9540 C   0  0  0  0  0  0  0  0  0  0  0  0
   -3.6990   15.8520  -36.2140 O   0  0  0  0  0  0  0  0  0  0  0  0
   -3.5020   14.7730  -34.1790 O   0  0  0  0  0  0  0  0  0  0  0  0
   -4.4900   14.1150  -33.3710 C   0  0  0  0  0  0  0  0  0  0  0  0
   -3.9930   12.6830  -33.1200 C   0  0  0  0  0  0  0  0  0  0  0  0
   -4.6470   14.8310  -32.0170 C   0  0  0  0  0  0  0  0  0  0  0  0
   -5.8400   14.0460  -34.1110 C   0  0  0  0  0  0  0  0  0  0  0  0
   -5.0180   17.7360  -33.8010 C   0  0  0  0  0  0  0  0  0  0  0  0
   -6.2970   17.1780  -33.7050 C   0  0  0  0  0  0  0  0  0  0  0  0
   -7.3030   17.9340  -33.0890 C   0  0  0  0  0  0  0  0  0  0  0  0
   -7.0300   19.2110  -32.5620 C   0  0  0  0  0  0  0  0  0  0  0  0
   -8.4560   20.1180  -31.6510 Br  0  0  0  0  0  0  0  0  0  0  0  0
   -5.7270   19.7670  -32.6630 C   0  0  0  0  0  0  0  0  0  0  0  0
   -5.4090   21.0460  -32.0020 C   0  0  0  0  0  0  0  0  0  0  0  0
   -6.1700   22.2040  -32.2960 C   0  0  0  0  0  0  0  0  0  0  0  0
   -5.8270   23.4440  -31.7320 C   0  0  0  0  0  0  0  0  0  0  0  0
   -4.7280   23.4920  -30.8780 C   0  0  0  0  0  0  0  0  0  0  0  0
   -4.1770   24.5530  -30.1950 C   0  0  0  0  0  0  0  0  0  0  0  0
   -3.1110   24.0190  -29.4720 C   0  0  0  0  0  0  0  0  0  0  0  0
   -2.2980   24.8030  -28.5180 C   0  0  0  0  0  0  0  0  0  0  0  0
   -1.5940   25.9590  -28.9680 N   0  0  0  0  0  0  0  0  0  0  0  0
   -2.2390   24.4810  -27.3010 O   0  0  0  0  0  0  0  0  0  0  0  0
   -3.0030   22.6790  -29.7080 N   0  0  0  0  0  0  0  0  0  0  0  0
   -2.0710   21.7480  -29.1400 C   0  0  0  0  0  0  0  0  0  0  0  0
   -0.8330   21.9630  -29.2310 O   0  0  0  0  0  0  0  0  0  0  0  0
   -2.5620   20.5790  -28.5350 O   0  0  0  0  0  0  0  0  0  0  0  0
   -2.0470   19.9470  -27.3550 C   0  0  0  0  0  0  0  0  0  0  0  0
   -3.1380   19.1030  -26.6680 C   0  0  0  0  0  0  0  0  0  0  0  0
   -1.4820   21.0000  -26.3860 C   0  0  0  0  0  0  0  0  0  0  0  0
   -0.9110   19.0180  -27.8050 C   0  0  0  0  0  0  0  0  0  0  0  0
   -3.9970   22.3740  -30.5690 C   0  0  0  0  0  0  0  0  0  0  0  0
   -4.3070   21.1290  -31.1260 C   0  0  0  0  0  0  0  0  0  0  0  0
   -4.7460   19.0010  -33.3230 C   0  0  0  0  0  0  0  0  0  0  0  0
    0.5386   20.1989  -35.1372 H   0  0  0  0  0  0  0  0  0  0  0  0
   -1.1368   20.8306  -35.2811 H   0  0  0  0  0  0  0  0  0  0  0  0
    0.2546   21.9667  -35.2811 H   0  0  0  0  0  0  0  0  0  0  0  0
    0.7047   20.7510  -32.9069 H   0  0  0  0  0  0  0  0  0  0  0  0
   -0.3689   22.1896  -33.0791 H   0  0  0  0  0  0  0  0  0  0  0  0
   -3.9299   12.5013  -32.0369 H   0  0  0  0  0  0  0  0  0  0  0  0
   -4.6951   11.9667  -33.5717 H   0  0  0  0  0  0  0  0  0  0  0  0
   -2.9981   12.5557  -33.5717 H   0  0  0  0  0  0  0  0  0  0  0  0
   -4.4890   14.1107  -31.2008 H   0  0  0  0  0  0  0  0  0  0  0  0
   -3.9048   15.6393  -31.9414 H   0  0  0  0  0  0  0  0  0  0  0  0
   -5.6594   15.2546  -31.9414 H   0  0  0  0  0  0  0  0  0  0  0  0
   -6.6586   14.0042  -33.3774 H   0  0  0  0  0  0  0  0  0  0  0  0
   -5.9584   14.9393  -34.7419 H   0  0  0  0  0  0  0  0  0  0  0  0
   -5.8667   13.1453  -34.7419 H   0  0  0  0  0  0  0  0  0  0  0  0
   -6.5071   16.1739  -34.1020 H   0  0  0  0  0  0  0  0  0  0  0  0
   -8.3211   17.5240  -33.0160 H   0  0  0  0  0  0  0  0  0  0  0  0
   -7.0357   22.1317  -32.9708 H   0  0  0  0  0  0  0  0  0  0  0  0
   -6.4089   24.3497  -31.9581 H   0  0  0  0  0  0  0  0  0  0  0  0
   -4.5082   25.6017  -30.2154 H   0  0  0  0  0  0  0  0  0  0  0  0
   -1.2420   26.0290  -29.9470 H   0  0  0  0  0  0  0  0  0  0  0  0
   -3.0319   19.1851  -25.5762 H   0  0  0  0  0  0  0  0  0  0  0  0
   -4.1300   19.4711  -26.9687 H   0  0  0  0  0  0  0  0  0  0  0  0
   -3.0309   18.0503  -26.9687 H   0  0  0  0  0  0  0  0  0  0  0  0
   -1.6562   20.6754  -25.3495 H   0  0  0  0  0  0  0  0  0  0  0  0
   -0.4015   21.1141  -26.5578 H   0  0  0  0  0  0  0  0  0  0  0  0
   -1.9843   21.9634  -26.5578 H   0  0  0  0  0  0  0  0  0  0  0  0
   -0.4043   18.6036  -26.9210 H   0  0  0  0  0  0  0  0  0  0  0  0
   -1.3259   18.1971  -28.4083 H   0  0  0  0  0  0  0  0  0  0  0  0
   -0.1887   19.5876  -28.4083 H   0  0  0  0  0  0  0  0  0  0  0  0
   -3.7072   20.2384  -30.8871 H   0  0  0  0  0  0  0  0  0  0  0  0
  1  2  1  0
  2  3  1  0
  3  4  1  0
  4  5  2  0
  4  6  1  0
  6  7  2  0
  7  8  1  0
  8  9  1  0
  9 10  2  0
  9 11  1  0
 11 12  1  0
 12 13  1  0
 12 14  1  0
 12 15  1  0
  8 16  1  0
 16 17  2  0
 17 18  1  0
 18 19  2  0
 19 20  1  0
 19 21  1  0
 21 22  1  0
 22 23  2  0
 23 24  1  0
 24 25  2  0
 25 26  1  0
 26 27  2  0
 27 28  1  0
 28 29  1  0
 28 30  2  0
 27 31  1  0
 31 32  1  0
 32 33  2  0
 32 34  1  0
 34 35  1  0
 35 36  1  0
 35 37  1  0
 35 38  1  0
 31 39  1  0
 39 40  2  0
 21 41  2  0
 41  6  1  0
 41 16  1  0
 40 22  1  0
 39 25  1  0
  1 42  1  0
  1 43  1  0
  1 44  1  0
  2 45  1  0
  2 46  1  0
 13 47  1  0
 13 48  1  0
 13 49  1  0
 14 50  1  0
 14 51  1  0
 14 52  1  0
 15 53  1  0
 15 54  1  0
 15 55  1  0
 17 56  1  0
 18 57  1  0
 23 58  1  0
 24 59  1  0
 26 60  1  0
 29 61  1  0
 36 62  1  0
 36 63  1  0
 36 64  1  0
 37 65  1  0
 37 66  1  0
 37 67  1  0
 38 68  1  0
 38 69  1  0
 38 70  1  0
 40 71  1  0
M  CHG  1  29  -1
M  END
>  <UniqueID>  (31) 
31

>  <SMILES>  (31) 
CCOC(=O)c1nn(C(=O)OC(C)(C)C)c2ccc(Br)c(-c3ccc4cc(C([NH-])=O)n(C(=O)OC(C)(C)C)c4c3)c12

>  <Energy>  (31) 
148.1419663728612

>  <Genealogy>  (31) 
CCOC(=O)c1nn(C(=O)OC(C)(C)C)c2ccc(Br)c(-c3ccc4cc(C([NH-])=O)n(C(=O)OC(C)(C)C)c4c3)c12 (protonated)
CCOC(=O)c1nn(C(=O)OC(C)(C)C)c2ccc(Br)c(-c3ccc4cc(C([NH-])=O)n(C(=O)OC(C)(C)C)c4c3)c12 (3D coordinates assigned)
CCOC(=O)c1nn(C(=O)OC(C)(C)C)c2ccc(Br)c(-c3ccc4cc(C([NH-])=O)n(C(=O)OC(C)(C)C)c4c3)c12 (optimized conformer: 148.1419663728612 kcal/mol)

>  <smiles>  (31) 
CCOC(=O)c1nn(C(=O)OC(C)(C)C)c2ccc(Br)c(-c3ccc4cc(C(N)=O)n(C(=O)OC(C)(C)C)c4c3)c12

>  <score_type>  (31) 
oracle

>  <origin>  (31) 
adg

>  <m_score__min__energy>  (31) 
-12.869999999999999

>  <m_primary>  (31) 
energy

$$$$
31:0
     RDKit          3D

 39 41  0  0  0  0  0  0  0  0999 V2000
   -2.5400   21.1830  -32.8990 C   0  0  0  0  0  0  0  0  0  0  0  0
   -2.1720   21.5480  -31.4660 C   0  0  0  0  0  0  0  0  0  0  0  0
   -3.3400   21.8610  -30.7100 O   0  0  0  0  0  0  0  0  0  0  0  0
   -4.0660   23.0470  -30.8680 C   0  0  0  0  0  0  0  0  0  0  0  0
   -3.4780   24.1620  -30.8350 O   0  0  0  0  0  0  0  0  0  0  0  0
   -5.4880   22.9940  -31.0650 N   0  0  0  0  0  0  0  0  0  0  0  0
   -6.4210   23.8850  -30.6250 C   0  0  0  0  0  0  0  0  0  0  0  0
   -6.1390   25.1840  -29.9810 C   0  0  0  0  0  0  0  0  0  0  0  0
   -5.1320   26.0590  -30.4910 N   0  0  0  0  0  0  0  0  0  0  0  0
   -6.8360   25.5520  -28.9980 O   0  0  0  0  0  0  0  0  0  0  0  0
   -7.7060   23.4330  -30.9080 C   0  0  0  0  0  0  0  0  0  0  0  0
   -7.5330   22.2310  -31.5560 C   0  0  0  0  0  0  0  0  0  0  0  0
   -8.4780   21.3400  -32.0530 C   0  0  0  0  0  0  0  0  0  0  0  0
   -8.0180   20.1520  -32.6430 C   0  0  0  0  0  0  0  0  0  0  0  0
   -6.6280   19.8690  -32.7200 C   0  0  0  0  0  0  0  0  0  0  0  0
   -6.1540   18.6020  -33.3340 C   0  0  0  0  0  0  0  0  0  0  0  0
   -6.8500   17.3980  -33.1220 C   0  0  0  0  0  0  0  0  0  0  0  0
   -6.3990   16.2070  -33.7010 C   0  0  0  0  0  0  0  0  0  0  0  0
   -5.2510   16.2060  -34.4960 C   0  0  0  0  0  0  0  0  0  0  0  0
   -4.5510   17.3940  -34.7140 C   0  0  0  0  0  0  0  0  0  0  0  0
   -4.9970   18.5880  -34.1380 C   0  0  0  0  0  0  0  0  0  0  0  0
   -5.7000   20.8010  -32.1990 C   0  0  0  0  0  0  0  0  0  0  0  0
   -6.1860   21.9870  -31.6370 C   0  0  0  0  0  0  0  0  0  0  0  0
   -3.3210   20.4084  -32.8911 H   0  0  0  0  0  0  0  0  0  0  0  0
   -2.9148   22.0762  -33.4202 H   0  0  0  0  0  0  0  0  0  0  0  0
   -1.6499   20.8009  -33.4202 H   0  0  0  0  0  0  0  0  0  0  0  0
   -1.6560   20.6969  -30.9977 H   0  0  0  0  0  0  0  0  0  0  0  0
   -1.5149   22.4300  -31.4832 H   0  0  0  0  0  0  0  0  0  0  0  0
   -4.6600   25.8660  -31.4010 H   0  0  0  0  0  0  0  0  0  0  0  0
   -4.9190   26.9550  -29.9990 H   0  0  0  0  0  0  0  0  0  0  0  0
   -8.6570   23.9300  -30.6657 H   0  0  0  0  0  0  0  0  0  0  0  0
   -9.5538   21.5595  -31.9859 H   0  0  0  0  0  0  0  0  0  0  0  0
   -8.7426   19.4317  -33.0505 H   0  0  0  0  0  0  0  0  0  0  0  0
   -7.7550   17.3930  -32.4967 H   0  0  0  0  0  0  0  0  0  0  0  0
   -6.9494   15.2701  -33.5298 H   0  0  0  0  0  0  0  0  0  0  0  0
   -4.8981   15.2686  -34.9507 H   0  0  0  0  0  0  0  0  0  0  0  0
   -3.6466   17.3911  -35.3402 H   0  0  0  0  0  0  0  0  0  0  0  0
   -4.4415   19.5211  -34.3136 H   0  0  0  0  0  0  0  0  0  0  0  0
   -4.6195   20.5979  -32.2348 H   0  0  0  0  0  0  0  0  0  0  0  0
  1  2  1  0
  2  3  1  0
  3  4  1  0
  4  5  2  0
  4  6  1  0
  6  7  1  0
  7  8  1  0
  8  9  1  0
  8 10  2  0
  7 11  2  0
 11 12  1  0
 12 13  2  0
 13 14  1  0
 14 15  2  0
 15 16  1  0
 16 17  2  0
 17 18  1  0
 18 19  2  0
 19 20  1  0
 20 21  2  0
 15 22  1  0
 22 23  2  0
 23  6  1  0
 23 12  1  0
 21 16  1  0
  1 24  1  0
  1 25  1  0
  1 26  1  0
  2 27  1  0
  2 28  1  0
  9 29  1  0
  9 30  1  0
 11 31  1  0
 13 32  1  0
 14 33  1  0
 17 34  1  0
 18 35  1  0
 19 36  1  0
 20 37  1  0
 21 38  1  0
 22 39  1  0
M  END
>  <UniqueID>  (32) 
32

>  <SMILES>  (32) 
CCOC(=O)n1c(C(N)=O)cc2ccc(-c3ccccc3)cc21

>  <Energy>  (32) 
82.00791107137474

>  <Genealogy>  (32) 
CCOC(=O)n1c(C(N)=O)cc2ccc(-c3ccccc3)cc21 (3D coordinates assigned)
CCOC(=O)n1c(C(N)=O)cc2ccc(-c3ccccc3)cc21 (optimized conformer: 82.00791107137474 kcal/mol)

>  <smiles>  (32) 
CCOC(=O)n1c(C(N)=O)cc2ccc(-c3ccccc3)cc21

>  <score_type>  (32) 
oracle

>  <origin>  (32) 
adg

>  <m_score__min__energy>  (32) 
-9.3800000000000008

>  <m_primary>  (32) 
energy

$$$$
32:0
     RDKit          3D

 48 49  0  0  0  0  0  0  0  0999 V2000
   -7.5824   19.8970  -30.8228 H   0  0  0  0  0  0  0  0  0  0  0  0
   -8.2460   19.4940  -31.6020 C   0  0  0  0  0  0  0  0  0  0  0  0
   -9.2080   20.2770  -32.1160 C   0  0  0  0  0  0  0  0  0  0  0  0
   -9.8426   19.8867  -32.9253 H   0  0  0  0  0  0  0  0  0  0  0  0
   -9.4390   21.6770  -31.6110 C   0  0  0  0  0  0  0  0  0  0  0  0
  -10.1338   21.6396  -30.7590 H   0  0  0  0  0  0  0  0  0  0  0  0
   -9.8592   22.2755  -32.4327 H   0  0  0  0  0  0  0  0  0  0  0  0
   -8.1330   22.3320  -31.1590 C   0  0  0  0  0  0  0  0  0  0  0  0
   -7.3739   21.5484  -31.0185 H   0  0  0  0  0  0  0  0  0  0  0  0
   -8.3322   22.8695  -30.2202 H   0  0  0  0  0  0  0  0  0  0  0  0
   -7.6120   23.3450  -32.1780 C   0  0  0  0  0  0  0  0  0  0  0  0
   -7.1708   24.2029  -31.6495 H   0  0  0  0  0  0  0  0  0  0  0  0
   -6.8464   22.8698  -32.8089 H   0  0  0  0  0  0  0  0  0  0  0  0
   -8.4438   23.6914  -32.8089 H   0  0  0  0  0  0  0  0  0  0  0  0
   -8.0580   18.0830  -32.0680 C   0  0  0  0  0  0  0  0  0  0  0  0
   -7.7409   17.4578  -31.2203 H   0  0  0  0  0  0  0  0  0  0  0  0
   -9.0083   17.7048  -32.4728 H   0  0  0  0  0  0  0  0  0  0  0  0
   -7.0630   18.0390  -33.0860 O   0  0  0  0  0  0  0  0  0  0  0  0
   -6.4080   19.1740  -33.5680 C   0  0  0  0  0  0  0  0  0  0  0  0
   -7.0650   20.0470  -34.2030 O   0  0  0  0  0  0  0  0  0  0  0  0
   -4.9980   19.3690  -33.3170 N   0  0  0  0  0  0  0  0  0  0  0  0
   -3.9630   18.6740  -33.8740 C   0  0  0  0  0  0  0  0  0  0  0  0
   -4.0790   17.4310  -34.6570 C   0  0  0  0  0  0  0  0  0  0  0  0
   -3.0990   17.0400  -35.3520 O   0  0  0  0  0  0  0  0  0  0  0  0
   -5.2490   16.6170  -34.5610 N   0  0  0  0  0  0  0  0  0  0  0  0
   -6.0150   16.8680  -33.8990 H   0  0  0  0  0  0  0  0  0  0  0  0
   -5.3050   15.7140  -35.0780 H   0  0  0  0  0  0  0  0  0  0  0  0
   -2.7390   19.2150  -33.5060 C   0  0  0  0  0  0  0  0  0  0  0  0
   -1.7395   18.8818  -33.8221 H   0  0  0  0  0  0  0  0  0  0  0  0
   -3.0430   20.2550  -32.6630 C   0  0  0  0  0  0  0  0  0  0  0  0
   -2.1920   21.1110  -31.9700 C   0  0  0  0  0  0  0  0  0  0  0  0
   -1.1000   21.0325  -32.0769 H   0  0  0  0  0  0  0  0  0  0  0  0
   -2.7680   22.0770  -31.1310 C   0  0  0  0  0  0  0  0  0  0  0  0
   -2.1216   22.7723  -30.5753 H   0  0  0  0  0  0  0  0  0  0  0  0
   -4.1740   22.1640  -30.9940 C   0  0  0  0  0  0  0  0  0  0  0  0
   -4.7810   23.1940  -30.0810 C   0  0  0  0  0  0  0  0  0  0  0  0
   -5.8731   23.1915  -30.2125 H   0  0  0  0  0  0  0  0  0  0  0  0
   -4.5157   22.9411  -29.0439 H   0  0  0  0  0  0  0  0  0  0  0  0
   -4.2550   24.5620  -30.3860 C   0  0  0  0  0  0  0  0  0  0  0  0
   -4.8670   25.3030  -31.2040 O   0  0  0  0  0  0  0  0  0  0  0  0
   -3.1060   25.0190  -29.7320 O   0  0  0  0  0  0  0  0  0  0  0  0
   -2.6530   24.4620  -28.5060 C   0  0  0  0  0  0  0  0  0  0  0  0
   -3.1008   25.0126  -27.6655 H   0  0  0  0  0  0  0  0  0  0  0  0
   -2.9506   23.4044  -28.4516 H   0  0  0  0  0  0  0  0  0  0  0  0
   -1.5570   24.5378  -28.4516 H   0  0  0  0  0  0  0  0  0  0  0  0
   -5.0080   21.2940  -31.7300 C   0  0  0  0  0  0  0  0  0  0  0  0
   -6.1029   21.3700  -31.6561 H   0  0  0  0  0  0  0  0  0  0  0  0
   -4.4110   20.3300  -32.5580 C   0  0  0  0  0  0  0  0  0  0  0  0
  1  2  1  0
  2  3  2  0
  3  4  1  0
  3  5  1  0
  5  6  1  0
  5  7  1  0
  5  8  1  0
  8  9  1  0
  8 10  1  0
  8 11  1  0
 11 12  1  0
 11 13  1  0
 11 14  1  0
  2 15  1  0
 15 16  1  0
 15 17  1  0
 15 18  1  0
 18 19  1  0
 19 20  2  0
 19 21  1  0
 21 22  1  0
 22 23  1  0
 23 24  2  0
 23 25  1  0
 25 26  1  0
 25 27  1  0
 22 28  2  0
 28 29  1  0
 28 30  1  0
 30 31  2  0
 31 32  1  0
 31 33  1  0
 33 34  1  0
 33 35  2  0
 35 36  1  0
 36 37  1  0
 36 38  1  0
 36 39  1  0
 39 40  2  0
 39 41  1  0
 41 42  1  0
 42 43  1  0
 42 44  1  0
 42 45  1  0
 35 46  1  0
 46 47  1  0
 46 48  2  0
 48 21  1  0
 48 30  1  0
M  END
>  <UniqueID>  (33) 
33

>  <SMILES>  (33) 
CCC/C=C/COC(=O)n1c(C(N)=O)cc2ccc(CC(=O)OC)cc21

>  <Energy>  (33) 
72.62436821819796

>  <Genealogy>  (33) 
CCC/C=C/COC(=O)n1c(C(N)=O)cc2ccc(CC(=O)OC)cc21 (cis-trans isomerization)
CCC/C=C/COC(=O)n1c(C(N)=O)cc2ccc(CC(=O)OC)cc21 (3D coordinates assigned)
CCC/C=C/COC(=O)n1c(C(N)=O)cc2ccc(CC(=O)OC)cc21 (optimized conformer: 72.62436821819796 kcal/mol)

>  <smiles>  (33) 
CCC/C=C/COC(=O)n1c(C(N)=O)cc2ccc(CC(=O)OC)cc21

>  <score_type>  (33) 
oracle

>  <origin>  (33) 
adg

>  <m_score__min__energy>  (33) 
-9.1199999999999992

>  <m_primary>  (33) 
energy

$$$$
33:0
     RDKit          3D

 35 37  0  0  0  0  0  0  0  0999 V2000
   -4.8060   24.0930  -28.6830 C   0  0  0  0  0  0  0  0  0  0  0  0
   -3.8540   24.3510  -29.8060 C   0  0  0  0  0  0  0  0  0  0  0  0
   -3.9820   25.3980  -30.4940 O   0  0  0  0  0  0  0  0  0  0  0  0
   -2.7940   23.4270  -30.1020 N   0  0  0  0  0  0  0  0  0  0  0  0
   -1.4910   23.5040  -29.7100 C   0  0  0  0  0  0  0  0  0  0  0  0
   -0.8650   24.6350  -28.9920 C   0  0  0  0  0  0  0  0  0  0  0  0
   -1.4820   25.9190  -28.9630 N   0  0  0  0  0  0  0  0  0  0  0  0
    0.2480   24.4740  -28.4240 O   0  0  0  0  0  0  0  0  0  0  0  0
   -0.7890   22.3760  -30.1320 C   0  0  0  0  0  0  0  0  0  0  0  0
   -1.7080   21.6020  -30.8010 C   0  0  0  0  0  0  0  0  0  0  0  0
   -1.5590   20.3620  -31.4120 C   0  0  0  0  0  0  0  0  0  0  0  0
   -2.6920   19.7750  -31.9990 C   0  0  0  0  0  0  0  0  0  0  0  0
   -3.9540   20.4280  -31.9610 C   0  0  0  0  0  0  0  0  0  0  0  0
   -5.1460   19.7920  -32.5750 C   0  0  0  0  0  0  0  0  0  0  0  0
   -5.1600   18.9800  -33.7010 C   0  0  0  0  0  0  0  0  0  0  0  0
   -6.4860   18.6270  -33.8700 C   0  0  0  0  0  0  0  0  0  0  0  0
   -7.2110   19.2170  -32.9020 N   0  0  0  0  0  0  0  0  0  0  0  0
   -8.6410   19.0470  -32.6780 C   0  0  0  0  0  0  0  0  0  0  0  0
   -6.4080   19.9090  -32.1110 N   0  0  0  0  0  0  0  0  0  0  0  0
   -4.0610   21.6880  -31.3260 C   0  0  0  0  0  0  0  0  0  0  0  0
   -2.9110   22.2560  -30.7670 C   0  0  0  0  0  0  0  0  0  0  0  0
   -4.2875   24.2335  -27.7231 H   0  0  0  0  0  0  0  0  0  0  0  0
   -5.6505   24.7947  -28.7497 H   0  0  0  0  0  0  0  0  0  0  0  0
   -5.1807   23.0609  -28.7497 H   0  0  0  0  0  0  0  0  0  0  0  0
   -2.5210   26.0180  -28.9720 H   0  0  0  0  0  0  0  0  0  0  0  0
    0.2750   22.1523  -29.9652 H   0  0  0  0  0  0  0  0  0  0  0  0
   -0.5827   19.8557  -31.4350 H   0  0  0  0  0  0  0  0  0  0  0  0
   -2.6015   18.7972  -32.4946 H   0  0  0  0  0  0  0  0  0  0  0  0
   -4.3030   18.6824  -34.3230 H   0  0  0  0  0  0  0  0  0  0  0  0
   -6.8816   17.9741  -34.6620 H   0  0  0  0  0  0  0  0  0  0  0  0
   -8.8425   19.0230  -31.5969 H   0  0  0  0  0  0  0  0  0  0  0  0
   -9.1859   19.8867  -33.1340 H   0  0  0  0  0  0  0  0  0  0  0  0
   -8.9739   18.1030  -33.1340 H   0  0  0  0  0  0  0  0  0  0  0  0
   -6.7290   20.4560  -31.2810 H   0  0  0  0  0  0  0  0  0  0  0  0
   -5.0279   22.2099  -31.2730 H   0  0  0  0  0  0  0  0  0  0  0  0
  1  2  1  0
  2  3  2  0
  2  4  1  0
  4  5  1  0
  5  6  1  0
  6  7  1  0
  6  8  2  0
  5  9  2  0
  9 10  1  0
 10 11  2  0
 11 12  1  0
 12 13  2  0
 13 14  1  0
 14 15  1  0
 15 16  2  0
 16 17  1  0
 17 18  1  0
 17 19  1  0
 13 20  1  0
 20 21  2  0
 21  4  1  0
 21 10  1  0
 19 14  2  0
  1 22  1  0
  1 23  1  0
  1 24  1  0
  7 25  1  0
  9 26  1  0
 11 27  1  0
 12 28  1  0
 15 29  1  0
 16 30  1  0
 18 31  1  0
 18 32  1  0
 18 33  1  0
 19 34  1  0
 20 35  1  0
M  CHG  2   7  -1  19   1
M  END
>  <UniqueID>  (34) 
34

>  <SMILES>  (34) 
CC(=O)n1c(C([NH-])=O)cc2ccc(-c3ccn(C)[nH+]3)cc21

>  <Energy>  (34) 
107.45950786459117

>  <Genealogy>  (34) 
CC(=O)n1c(C([NH-])=O)cc2ccc(-c3ccn(C)[nH+]3)cc21 (protonated)
CC(=O)n1c(C([NH-])=O)cc2ccc(-c3ccn(C)[nH+]3)cc21 (3D coordinates assigned)
CC(=O)n1c(C([NH-])=O)cc2ccc(-c3ccn(C)[nH+]3)cc21 (optimized conformer: 107.45950786459117 kcal/mol)

>  <smiles>  (34) 
CC(=O)n1c(C(N)=O)cc2ccc(-c3ccn(C)n3)cc21

>  <score_type>  (34) 
oracle

>  <origin>  (34) 
adg

>  <m_score__min__energy>  (34) 
-10.02

>  <m_primary>  (34) 
energy

$$$$
34:0
     RDKit          3D

 55 57  0  0  0  0  0  0  0  0999 V2000
   -2.1780   20.4160  -34.2300 C   0  0  0  0  0  0  0  0  0  0  0  0
   -1.4940   19.8730  -32.9690 C   0  0  0  0  0  0  0  0  0  0  0  0
   -1.9090   18.4190  -32.7130 C   0  0  0  0  0  0  0  0  0  0  0  0
   -1.7640   20.7560  -31.7360 C   0  0  0  0  0  0  0  0  0  0  0  0
   -2.4460   21.9600  -32.0880 O   0  0  0  0  0  0  0  0  0  0  0  0
   -3.2460   22.6900  -31.2020 C   0  0  0  0  0  0  0  0  0  0  0  0
   -2.7290   23.3050  -30.2290 O   0  0  0  0  0  0  0  0  0  0  0  0
   -4.6620   22.7630  -31.4190 N   0  0  0  0  0  0  0  0  0  0  0  0
   -5.5130   23.7600  -31.0450 C   0  0  0  0  0  0  0  0  0  0  0  0
   -5.1220   25.0700  -30.4860 C   0  0  0  0  0  0  0  0  0  0  0  0
   -3.8700   25.6640  -30.8180 N   0  0  0  0  0  0  0  0  0  0  0  0
   -5.9220   25.6940  -29.7390 O   0  0  0  0  0  0  0  0  0  0  0  0
   -6.8320   23.4050  -31.3260 C   0  0  0  0  0  0  0  0  0  0  0  0
   -6.7590   22.1520  -31.8890 C   0  0  0  0  0  0  0  0  0  0  0  0
   -7.7750   21.3120  -32.3380 C   0  0  0  0  0  0  0  0  0  0  0  0
   -7.4120   20.0480  -32.8360 C   0  0  0  0  0  0  0  0  0  0  0  0
   -6.0530   19.6410  -32.8700 C   0  0  0  0  0  0  0  0  0  0  0  0
   -5.6830   18.2970  -33.3800 C   0  0  0  0  0  0  0  0  0  0  0  0
   -5.9230   17.1440  -32.6130 C   0  0  0  0  0  0  0  0  0  0  0  0
   -5.5710   15.8870  -33.1060 C   0  0  0  0  0  0  0  0  0  0  0  0
   -4.9820   15.7820  -34.3670 C   0  0  0  0  0  0  0  0  0  0  0  0
   -4.6300   14.5180  -34.8560 O   0  0  0  0  0  0  0  0  0  0  0  0
   -3.3440   13.9250  -34.6790 C   0  0  0  0  0  0  0  0  0  0  0  0
   -2.3340   14.5060  -35.6800 C   0  0  1  0  0  0  0  0  0  0  0  0
   -3.0190   15.0000  -36.8020 O   0  0  0  0  0  0  0  0  0  0  0  0
   -1.5230   15.6350  -35.0280 C   0  0  0  0  0  0  0  0  0  0  0  0
   -2.0630   16.8850  -35.3640 O   0  0  0  0  0  0  0  0  0  0  0  0
   -4.7510   16.9070  -35.0980 N   0  0  0  0  0  0  0  0  0  0  0  0
   -5.0850   18.1430  -34.6430 C   0  0  0  0  0  0  0  0  0  0  0  0
   -5.0520   20.5280  -32.4050 C   0  0  0  0  0  0  0  0  0  0  0  0
   -5.4400   21.7860  -31.9320 C   0  0  0  0  0  0  0  0  0  0  0  0
   -3.0093   21.0759  -33.9410 H   0  0  0  0  0  0  0  0  0  0  0  0
   -1.4492   20.9842  -34.8267 H   0  0  0  0  0  0  0  0  0  0  0  0
   -2.5661   19.5773  -34.8267 H   0  0  0  0  0  0  0  0  0  0  0  0
   -0.4086   19.8984  -33.1458 H   0  0  0  0  0  0  0  0  0  0  0  0
   -1.9607   18.2378  -31.6293 H   0  0  0  0  0  0  0  0  0  0  0  0
   -2.8956   18.2346  -33.1631 H   0  0  0  0  0  0  0  0  0  0  0  0
   -1.1683   17.7416  -33.1631 H   0  0  0  0  0  0  0  0  0  0  0  0
   -2.3820   20.1919  -31.0220 H   0  0  0  0  0  0  0  0  0  0  0  0
   -0.7958   21.0280  -31.2903 H   0  0  0  0  0  0  0  0  0  0  0  0
   -2.9780   25.2950  -30.4200 H   0  0  0  0  0  0  0  0  0  0  0  0
   -7.7377   24.0001  -31.1376 H   0  0  0  0  0  0  0  0  0  0  0  0
   -8.8283   21.6273  -32.3042 H   0  0  0  0  0  0  0  0  0  0  0  0
   -8.1921   19.3655  -33.2042 H   0  0  0  0  0  0  0  0  0  0  0  0
   -6.3898   17.2328  -31.6209 H   0  0  0  0  0  0  0  0  0  0  0  0
   -5.7565   14.9847  -32.5048 H   0  0  0  0  0  0  0  0  0  0  0  0
   -2.9928   14.1237  -33.6557 H   0  0  0  0  0  0  0  0  0  0  0  0
   -3.4281   12.8418  -34.8509 H   0  0  0  0  0  0  0  0  0  0  0  0
   -1.6413   13.7103  -35.9913 H   0  0  0  0  0  0  0  0  0  0  0  0
   -3.6360   15.7070  -36.4780 H   0  0  0  0  0  0  0  0  0  0  0  0
   -1.5461   15.5127  -33.9351 H   0  0  0  0  0  0  0  0  0  0  0  0
   -0.4866   15.5854  -35.3934 H   0  0  0  0  0  0  0  0  0  0  0  0
   -3.0290   16.7420  -35.5420 H   0  0  0  0  0  0  0  0  0  0  0  0
   -4.8865   19.0276  -35.2660 H   0  0  0  0  0  0  0  0  0  0  0  0
   -3.9920   20.2341  -32.4155 H   0  0  0  0  0  0  0  0  0  0  0  0
  1  2  1  0
  2  3  1  0
  2  4  1  0
  4  5  1  0
  5  6  1  0
  6  7  2  0
  6  8  1  0
  8  9  1  0
  9 10  1  0
 10 11  1  0
 10 12  2  0
  9 13  2  0
 13 14  1  0
 14 15  2  0
 15 16  1  0
 16 17  2  0
 17 18  1  0
 18 19  2  0
 19 20  1  0
 20 21  2  0
 21 22  1  0
 22 23  1  0
 23 24  1  0
 24 25  1  0
 24 26  1  0
 26 27  1  0
 21 28  1  0
 28 29  2  0
 17 30  1  0
 30 31  2  0
 31  8  1  0
 31 14  1  0
 29 18  1  0
  1 32  1  0
  1 33  1  0
  1 34  1  0
  2 35  1  0
  3 36  1  0
  3 37  1  0
  3 38  1  0
  4 39  1  0
  4 40  1  0
 11 41  1  0
 13 42  1  0
 15 43  1  0
 16 44  1  0
 19 45  1  0
 20 46  1  0
 23 47  1  0
 23 48  1  0
 24 49  1  6
 25 50  1  0
 26 51  1  0
 26 52  1  0
 27 53  1  0
 29 54  1  0
 30 55  1  0
M  CHG  1  11  -1
M  END
>  <UniqueID>  (35) 
35

>  <SMILES>  (35) 
CC(C)COC(=O)n1c(C([NH-])=O)cc2ccc(-c3ccc(OC[C@@H](O)CO)nc3)cc21

>  <Energy>  (35) 
91.54677222002823

>  <Genealogy>  (35) 
CC(C)COC(=O)n1c(C([NH-])=O)cc2ccc(-c3ccc(OCC(O)CO)nc3)cc21 (protonated)
CC(C)COC(=O)n1c(C([NH-])=O)cc2ccc(-c3ccc(OC[C@@H](O)CO)nc3)cc21 (chirality)
CC(C)COC(=O)n1c(C([NH-])=O)cc2ccc(-c3ccc(OC[C@@H](O)CO)nc3)cc21 (3D coordinates assigned)
CC(C)COC(=O)n1c(C([NH-])=O)cc2ccc(-c3ccc(OC[C@@H](O)CO)nc3)cc21 (optimized conformer: 91.54677222002823 kcal/mol)

>  <smiles>  (35) 
CC(C)COC(=O)n1c(C(N)=O)cc2ccc(-c3ccc(OCC(O)CO)nc3)cc21

>  <score_type>  (35) 
oracle

>  <origin>  (35) 
adg

>  <m_score__min__energy>  (35) 
-9.5299999999999994

>  <m_primary>  (35) 
energy

$$$$
35:0
     RDKit          3D

 32 34  0  0  0  0  0  0  0  0999 V2000
   -2.8310   20.7590  -34.0070 N   0  0  0  0  0  0  0  0  0  0  0  0
   -3.1160   19.3580  -33.6800 C   0  0  0  0  0  0  0  0  0  0  0  0
   -4.5970   19.0600  -33.3490 C   0  0  0  0  0  0  0  0  0  0  0  0
   -5.4080   20.1680  -32.7310 C   0  0  0  0  0  0  0  0  0  0  0  0
   -6.8220   20.1580  -32.8370 C   0  0  0  0  0  0  0  0  0  0  0  0
   -7.5860   21.2140  -32.3160 C   0  0  0  0  0  0  0  0  0  0  0  0
   -6.9140   22.2680  -31.7060 C   0  0  0  0  0  0  0  0  0  0  0  0
   -7.4060   23.4250  -31.1470 C   0  0  0  0  0  0  0  0  0  0  0  0
   -6.2860   24.1270  -30.7060 C   0  0  0  0  0  0  0  0  0  0  0  0
   -6.3570   25.3990  -29.9530 C   0  0  0  0  0  0  0  0  0  0  0  0
   -5.5520   26.5180  -30.3300 N   0  0  0  0  0  0  0  0  0  0  0  0
   -7.1560   25.5180  -28.9860 O   0  0  0  0  0  0  0  0  0  0  0  0
   -5.1460   23.4340  -30.9840 N   0  0  0  0  0  0  0  0  0  0  0  0
   -3.7890   23.8520  -30.7510 C   0  0  0  0  0  0  0  0  0  0  0  0
   -2.8460   23.0210  -30.8190 O   0  0  0  0  0  0  0  0  0  0  0  0
   -3.5040   25.1820  -30.4670 O   0  0  0  0  0  0  0  0  0  0  0  0
   -5.5470   22.2960  -31.5950 C   0  0  0  0  0  0  0  0  0  0  0  0
   -4.7590   21.2660  -32.1220 C   0  0  0  0  0  0  0  0  0  0  0  0
   -4.9160   17.7680  -32.8960 C   0  0  0  0  0  0  0  0  0  0  0  0
   -5.3070   18.2200  -34.2240 C   0  0  0  0  0  0  0  0  0  0  0  0
   -2.3580   20.8120  -34.9380 H   0  0  0  0  0  0  0  0  0  0  0  0
   -2.1960   21.1650  -33.2830 H   0  0  0  0  0  0  0  0  0  0  0  0
   -2.8264   18.7392  -34.5421 H   0  0  0  0  0  0  0  0  0  0  0  0
   -2.5420   19.1284  -32.7701 H   0  0  0  0  0  0  0  0  0  0  0  0
   -7.3251   19.3145  -33.3324 H   0  0  0  0  0  0  0  0  0  0  0  0
   -8.6836   21.2082  -32.3880 H   0  0  0  0  0  0  0  0  0  0  0  0
   -8.4595   23.7308  -31.0655 H   0  0  0  0  0  0  0  0  0  0  0  0
   -5.6380   27.4220  -29.8170 H   0  0  0  0  0  0  0  0  0  0  0  0
   -4.8410   26.4410  -31.0900 H   0  0  0  0  0  0  0  0  0  0  0  0
   -3.6614   21.3101  -32.0636 H   0  0  0  0  0  0  0  0  0  0  0  0
   -4.8898   16.9919  -32.1169 H   0  0  0  0  0  0  0  0  0  0  0  0
   -5.7954   18.0386  -35.1928 H   0  0  0  0  0  0  0  0  0  0  0  0
  1  2  1  0
  2  3  1  0
  3  4  1  0
  4  5  2  0
  5  6  1  0
  6  7  2  0
  7  8  1  0
  8  9  2  0
  9 10  1  0
 10 11  1  0
 10 12  2  0
  9 13  1  0
 13 14  1  0
 14 15  2  0
 14 16  1  0
 13 17  1  0
 17 18  2  0
  3 19  1  0
 19 20  2  0
 20  3  1  0
 18  4  1  0
 17  7  1  0
  1 21  1  0
  1 22  1  0
  2 23  1  0
  2 24  1  0
  5 25  1  0
  6 26  1  0
  8 27  1  0
 11 28  1  0
 11 29  1  0
 18 30  1  0
 19 31  1  0
 20 32  1  0
M  CHG  1  16  -1
M  END
>  <UniqueID>  (36) 
36

>  <SMILES>  (36) 
NCC1(c2ccc3cc(C(N)=O)n(C(=O)[O-])c3c2)C=C1

>  <Energy>  (36) 
173.43002181210937

>  <Genealogy>  (36) 
NCC1(c2ccc3cc(C(N)=O)n(C(=O)[O-])c3c2)C=C1 (protonated)
NCC1(c2ccc3cc(C(N)=O)n(C(=O)[O-])c3c2)C=C1 (3D coordinates assigned)
NCC1(c2ccc3cc(C(N)=O)n(C(=O)[O-])c3c2)C=C1 (nonaromatic ring conformer: 173.43002181210937 kcal/mol)

>  <smiles>  (36) 
NCC1(c2ccc3cc(C(N)=O)n(C(=O)O)c3c2)C=C1

>  <score_type>  (36) 
oracle

>  <origin>  (36) 
adg

>  <m_score__min__energy>  (36) 
-9.1600000000000001

>  <m_primary>  (36) 
energy

$$$$
36:0
     RDKit          3D

 47 49  0  0  0  0  0  0  0  0999 V2000
   -3.9410   16.5430  -32.7040 C   0  0  0  0  0  0  0  0  0  0  0  0
   -4.6500   16.2260  -33.9560 N   0  0  0  0  0  0  0  0  0  0  0  0
   -6.0620   15.8550  -33.7110 C   0  0  0  0  0  0  0  0  0  0  0  0
   -6.8870   17.0500  -33.1980 C   0  0  0  0  0  0  0  0  0  0  0  0
   -6.4560   18.2910  -33.8500 N   0  0  0  0  0  0  0  0  0  0  0  0
   -6.6430   19.5550  -33.1860 C   0  0  0  0  0  0  0  0  0  0  0  0
   -7.9500   20.0560  -32.9580 C   0  0  0  0  0  0  0  0  0  0  0  0
   -8.1460   21.2750  -32.2890 C   0  0  0  0  0  0  0  0  0  0  0  0
   -7.0210   21.9630  -31.8450 C   0  0  0  0  0  0  0  0  0  0  0  0
   -6.9170   23.1650  -31.1770 C   0  0  0  0  0  0  0  0  0  0  0  0
   -5.5480   23.3660  -30.9870 C   0  0  0  0  0  0  0  0  0  0  0  0
   -4.9530   24.5210  -30.2750 C   0  0  0  0  0  0  0  0  0  0  0  0
   -5.3530   24.8510  -28.9420 N   0  0  0  0  0  0  0  0  0  0  0  0
   -4.0740   25.2250  -30.8390 O   0  0  0  0  0  0  0  0  0  0  0  0
   -4.8440   22.3230  -31.5070 N   0  0  0  0  0  0  0  0  0  0  0  0
   -3.4180   22.1720  -31.5680 C   0  0  0  0  0  0  0  0  0  0  0  0
   -2.8340   22.2930  -32.6800 O   0  0  0  0  0  0  0  0  0  0  0  0
   -2.6560   21.8870  -30.3790 N   0  0  0  0  0  0  0  0  0  0  0  0
   -3.2440   22.1210  -29.0580 C   0  0  0  0  0  0  0  0  0  0  0  0
   -1.2670   21.4350  -30.5060 C   0  0  0  0  0  0  0  0  0  0  0  0
   -5.7540   21.4820  -32.0380 C   0  0  0  0  0  0  0  0  0  0  0  0
   -5.5260   20.2850  -32.7190 C   0  0  0  0  0  0  0  0  0  0  0  0
   -5.7380   18.1970  -35.1240 C   0  0  0  0  0  0  0  0  0  0  0  0
   -4.4940   17.3020  -34.9700 C   0  0  0  0  0  0  0  0  0  0  0  0
   -4.5691   16.2622  -31.8457 H   0  0  0  0  0  0  0  0  0  0  0  0
   -2.9957   15.9818  -32.6658 H   0  0  0  0  0  0  0  0  0  0  0  0
   -3.7289   17.6217  -32.6658 H   0  0  0  0  0  0  0  0  0  0  0  0
   -6.5039   15.4950  -34.6518 H   0  0  0  0  0  0  0  0  0  0  0  0
   -6.0804   15.0708  -32.9398 H   0  0  0  0  0  0  0  0  0  0  0  0
   -7.9507   16.8763  -33.4180 H   0  0  0  0  0  0  0  0  0  0  0  0
   -6.7345   17.1473  -32.1130 H   0  0  0  0  0  0  0  0  0  0  0  0
   -8.8206   19.4829  -33.3094 H   0  0  0  0  0  0  0  0  0  0  0  0
   -9.1574   21.6736  -32.1212 H   0  0  0  0  0  0  0  0  0  0  0  0
   -7.7380   23.8253  -30.8609 H   0  0  0  0  0  0  0  0  0  0  0  0
   -6.1230   24.3400  -28.4590 H   0  0  0  0  0  0  0  0  0  0  0  0
   -4.8990   25.6490  -28.4450 H   0  0  0  0  0  0  0  0  0  0  0  0
   -2.5222   21.8337  -28.2793 H   0  0  0  0  0  0  0  0  0  0  0  0
   -3.4936   23.1870  -28.9514 H   0  0  0  0  0  0  0  0  0  0  0  0
   -4.1578   21.5180  -28.9514 H   0  0  0  0  0  0  0  0  0  0  0  0
   -0.8342   21.2942  -29.5046 H   0  0  0  0  0  0  0  0  0  0  0  0
   -1.2403   20.4818  -31.0544 H   0  0  0  0  0  0  0  0  0  0  0  0
   -0.6844   22.1899  -31.0544 H   0  0  0  0  0  0  0  0  0  0  0  0
   -4.5026   19.9188  -32.8881 H   0  0  0  0  0  0  0  0  0  0  0  0
   -6.4042   17.7650  -35.8853 H   0  0  0  0  0  0  0  0  0  0  0  0
   -5.4193   19.2041  -35.4310 H   0  0  0  0  0  0  0  0  0  0  0  0
   -4.2812   16.8338  -35.9424 H   0  0  0  0  0  0  0  0  0  0  0  0
   -3.6743   17.9498  -34.6259 H   0  0  0  0  0  0  0  0  0  0  0  0
  1  2  1  0
  2  3  1  0
  3  4  1  0
  4  5  1  0
  5  6  1  0
  6  7  2  0
  7  8  1  0
  8  9  2  0
  9 10  1  0
 10 11  2  0
 11 12  1  0
 12 13  1  0
 12 14  2  0
 11 15  1  0
 15 16  1  0
 16 17  2  0
 16 18  1  0
 18 19  1  0
 18 20  1  0
 15 21  1  0
 21 22  2  0
  5 23  1  0
 23 24  1  0
 24  2  1  0
 22  6  1  0
 21  9  1  0
  1 25  1  0
  1 26  1  0
  1 27  1  0
  3 28  1  0
  3 29  1  0
  4 30  1  0
  4 31  1  0
  7 32  1  0
  8 33  1  0
 10 34  1  0
 13 35  1  0
 13 36  1  0
 19 37  1  0
 19 38  1  0
 19 39  1  0
 20 40  1  0
 20 41  1  0
 20 42  1  0
 22 43  1  0
 23 44  1  0
 23 45  1  0
 24 46  1  0
 24 47  1  0
M  END
>  <UniqueID>  (37) 
37

>  <SMILES>  (37) 
CN1CCN(c2ccc3cc(C(N)=O)n(C(=O)N(C)C)c3c2)CC1

>  <Energy>  (37) 
95.32348145125935

>  <Genealogy>  (37) 
CN1CCN(c2ccc3cc(C(N)=O)n(C(=O)N(C)C)c3c2)CC1 (3D coordinates assigned)
CN1CCN(c2ccc3cc(C(N)=O)n(C(=O)N(C)C)c3c2)CC1 (nonaromatic ring conformer: 95.32348145125935 kcal/mol)

>  <smiles>  (37) 
CN1CCN(c2ccc3cc(C(N)=O)n(C(=O)N(C)C)c3c2)CC1

>  <score_type>  (37) 
oracle

>  <origin>  (37) 
adg

>  <m_score__min__energy>  (37) 
-9.1999999999999993

>  <m_primary>  (37) 
energy

$$$$
37:0
     RDKit          3D

 29 31  0  0  0  0  0  0  0  0999 V2000
   -5.4990   26.5100  -30.3160 N   0  0  0  0  0  0  0  0  0  0  0  0
   -6.3590   25.4390  -29.9260 C   0  0  0  0  0  0  0  0  0  0  0  0
   -7.1750   25.6150  -28.9820 O   0  0  0  0  0  0  0  0  0  0  0  0
   -6.3570   24.1530  -30.6510 C   0  0  0  0  0  0  0  0  0  0  0  0
   -7.5180   23.4760  -31.0130 C   0  0  0  0  0  0  0  0  0  0  0  0
   -7.0900   22.3710  -31.7130 C   0  0  0  0  0  0  0  0  0  0  0  0
   -7.8250   21.3430  -32.2900 C   0  0  0  0  0  0  0  0  0  0  0  0
   -7.1230   20.3030  -32.9190 C   0  0  0  0  0  0  0  0  0  0  0  0
   -5.7030   20.2980  -32.9550 C   0  0  0  0  0  0  0  0  0  0  0  0
   -4.9790   19.1800  -33.6120 C   0  0  0  0  0  0  0  0  0  0  0  0
   -3.6050   18.9310  -33.5740 C   0  0  0  0  0  0  0  0  0  0  0  0
   -3.2190   17.7960  -34.2980 C   0  0  0  0  0  0  0  0  0  0  0  0
   -4.2740   17.1380  -34.9130 C   0  0  0  0  0  0  0  0  0  0  0  0
   -5.6860   17.9730  -34.5560 S   0  0  0  0  0  0  0  0  0  0  0  0
   -4.9930   21.3630  -32.3480 C   0  0  0  0  0  0  0  0  0  0  0  0
   -5.7200   22.3990  -31.7490 C   0  0  0  0  0  0  0  0  0  0  0  0
   -5.2520   23.4880  -31.0960 N   0  0  0  0  0  0  0  0  0  0  0  0
   -3.8750   23.8050  -30.8300 C   0  0  0  0  0  0  0  0  0  0  0  0
   -3.0020   22.8970  -30.8350 O   0  0  0  0  0  0  0  0  0  0  0  0
   -3.4910   25.1140  -30.5640 O   0  0  0  0  0  0  0  0  0  0  0  0
   -5.4870   27.3980  -29.7680 H   0  0  0  0  0  0  0  0  0  0  0  0
   -4.9370   26.4580  -31.1950 H   0  0  0  0  0  0  0  0  0  0  0  0
   -8.5558   23.7628  -30.7878 H   0  0  0  0  0  0  0  0  0  0  0  0
   -8.9244   21.3440  -32.2550 H   0  0  0  0  0  0  0  0  0  0  0  0
   -7.6803   19.4803  -33.3907 H   0  0  0  0  0  0  0  0  0  0  0  0
   -2.8932   19.5666  -33.0269 H   0  0  0  0  0  0  0  0  0  0  0  0
   -2.1750   17.4574  -34.3722 H   0  0  0  0  0  0  0  0  0  0  0  0
   -4.1986   16.2284  -35.5270 H   0  0  0  0  0  0  0  0  0  0  0  0
   -3.8931   21.3758  -32.3472 H   0  0  0  0  0  0  0  0  0  0  0  0
  1  2  1  0
  2  3  2  0
  2  4  1  0
  4  5  2  0
  5  6  1  0
  6  7  2  0
  7  8  1  0
  8  9  2  0
  9 10  1  0
 10 11  2  0
 11 12  1  0
 12 13  2  0
 13 14  1  0
  9 15  1  0
 15 16  2  0
 16 17  1  0
 17 18  1  0
 18 19  2  0
 18 20  1  0
 17  4  1  0
 16  6  1  0
 14 10  1  0
  1 21  1  0
  1 22  1  0
  5 23  1  0
  7 24  1  0
  8 25  1  0
 11 26  1  0
 12 27  1  0
 13 28  1  0
 15 29  1  0
M  CHG  1  20  -1
M  END
>  <UniqueID>  (38) 
38

>  <SMILES>  (38) 
NC(=O)c1cc2ccc(-c3cccs3)cc2n1C(=O)[O-]

>  <Energy>  (38) 
100.1419024464245

>  <Genealogy>  (38) 
NC(=O)c1cc2ccc(-c3cccs3)cc2n1C(=O)[O-] (protonated)
NC(=O)c1cc2ccc(-c3cccs3)cc2n1C(=O)[O-] (3D coordinates assigned)
NC(=O)c1cc2ccc(-c3cccs3)cc2n1C(=O)[O-] (optimized conformer: 100.1419024464245 kcal/mol)

>  <smiles>  (38) 
NC(=O)c1cc2ccc(-c3cccs3)cc2n1C(=O)O

>  <score_type>  (38) 
oracle

>  <origin>  (38) 
adg

>  <m_score__min__energy>  (38) 
-9.6999999999999993

>  <m_primary>  (38) 
energy

$$$$
38:0
     RDKit          3D

 34 36  0  0  0  0  0  0  0  0999 V2000
   -1.1410   25.7890  -29.0700 N   0  0  0  0  0  0  0  0  0  0  0  0
   -0.6860   24.4400  -29.1740 C   0  0  0  0  0  0  0  0  0  0  0  0
    0.4200   24.1200  -28.6610 O   0  0  0  0  0  0  0  0  0  0  0  0
   -1.5170   23.3980  -29.8110 C   0  0  0  0  0  0  0  0  0  0  0  0
   -0.9990   22.2110  -30.3180 C   0  0  0  0  0  0  0  0  0  0  0  0
   -2.0900   21.4970  -30.7550 C   0  0  0  0  0  0  0  0  0  0  0  0
   -2.1540   20.2480  -31.3620 C   0  0  0  0  0  0  0  0  0  0  0  0
   -3.4140   19.7650  -31.7480 C   0  0  0  0  0  0  0  0  0  0  0  0
   -4.5850   20.5370  -31.5310 C   0  0  0  0  0  0  0  0  0  0  0  0
   -5.9130   20.0220  -31.9550 C   0  0  0  0  0  0  0  0  0  0  0  0
   -6.0300   18.7420  -32.5260 C   0  0  0  0  0  0  0  0  0  0  0  0
   -7.2790   18.2590  -32.9260 C   0  0  0  0  0  0  0  0  0  0  0  0
   -8.4220   19.0420  -32.7610 C   0  0  0  0  0  0  0  0  0  0  0  0
   -8.3260   20.3230  -32.1910 C   0  0  0  0  0  0  0  0  0  0  0  0
   -9.5230   21.1640  -32.0040 C   0  0  0  0  0  0  0  0  0  0  0  0
   -9.4390   22.4200  -31.9840 O   0  0  0  0  0  0  0  0  0  0  0  0
   -7.0700   20.8060  -31.7910 C   0  0  0  0  0  0  0  0  0  0  0  0
   -4.4770   21.8050  -30.9110 C   0  0  0  0  0  0  0  0  0  0  0  0
   -3.2100   22.2520  -30.5170 C   0  0  0  0  0  0  0  0  0  0  0  0
   -2.8730   23.4280  -29.9390 N   0  0  0  0  0  0  0  0  0  0  0  0
   -3.7520   24.5290  -29.6460 C   0  0  0  0  0  0  0  0  0  0  0  0
   -3.8600   25.4910  -30.4520 O   0  0  0  0  0  0  0  0  0  0  0  0
   -4.4880   24.5440  -28.4680 O   0  0  0  0  0  0  0  0  0  0  0  0
   -2.1170   26.0510  -29.3350 H   0  0  0  0  0  0  0  0  0  0  0  0
   -0.5250   26.5190  -28.6490 H   0  0  0  0  0  0  0  0  0  0  0  0
    0.0576   21.9081  -30.3604 H   0  0  0  0  0  0  0  0  0  0  0  0
   -1.2435   19.6554  -31.5348 H   0  0  0  0  0  0  0  0  0  0  0  0
   -3.4949   18.7767  -32.2242 H   0  0  0  0  0  0  0  0  0  0  0  0
   -5.1339   18.1179  -32.6584 H   0  0  0  0  0  0  0  0  0  0  0  0
   -7.3613   17.2572  -33.3728 H   0  0  0  0  0  0  0  0  0  0  0  0
   -9.4017   18.6553  -33.0782 H   0  0  0  0  0  0  0  0  0  0  0  0
  -10.5058   20.6858  -31.8799 H   0  0  0  0  0  0  0  0  0  0  0  0
   -6.9894   21.8081  -31.3446 H   0  0  0  0  0  0  0  0  0  0  0  0
   -5.3693   22.4258  -30.7424 H   0  0  0  0  0  0  0  0  0  0  0  0
  1  2  1  0
  2  3  2  0
  2  4  1  0
  4  5  2  0
  5  6  1  0
  6  7  2  0
  7  8  1  0
  8  9  2  0
  9 10  1  0
 10 11  2  0
 11 12  1  0
 12 13  2  0
 13 14  1  0
 14 15  1  0
 15 16  2  0
 14 17  2  0
  9 18  1  0
 18 19  2  0
 19 20  1  0
 20 21  1  0
 21 22  2  0
 21 23  1  0
 20  4  1  0
 19  6  1  0
 17 10  1  0
  1 24  1  0
  1 25  1  0
  5 26  1  0
  7 27  1  0
  8 28  1  0
 11 29  1  0
 12 30  1  0
 13 31  1  0
 15 32  1  0
 17 33  1  0
 18 34  1  0
M  CHG  1  23  -1
M  END
>  <UniqueID>  (39) 
39

>  <SMILES>  (39) 
NC(=O)c1cc2ccc(-c3cccc(C=O)c3)cc2n1C(=O)[O-]

>  <Energy>  (39) 
82.1179856923414

>  <Genealogy>  (39) 
NC(=O)c1cc2ccc(-c3cccc(C=O)c3)cc2n1C(=O)[O-] (protonated)
NC(=O)c1cc2ccc(-c3cccc(C=O)c3)cc2n1C(=O)[O-] (3D coordinates assigned)
NC(=O)c1cc2ccc(-c3cccc(C=O)c3)cc2n1C(=O)[O-] (optimized conformer: 82.1179856923414 kcal/mol)

>  <smiles>  (39) 
NC(=O)c1cc2ccc(-c3cccc(C=O)c3)cc2n1C(=O)O

>  <score_type>  (39) 
oracle

>  <origin>  (39) 
adg

>  <m_score__min__energy>  (39) 
-9.8000000000000007

>  <m_primary>  (39) 
energy

$$$$
39:0
     RDKit          3D

 33 34  0  0  0  0  0  0  0  0999 V2000
   -3.0760   22.3910  -30.0080 C   0  0  0  0  0  0  0  0  0  0  0  0
   -3.8120   22.4640  -31.3080 C   0  0  0  0  0  0  0  0  0  0  0  0
   -3.1740   22.3280  -32.3860 O   0  0  0  0  0  0  0  0  0  0  0  0
   -5.2290   22.6970  -31.3410 N   0  0  0  0  0  0  0  0  0  0  0  0
   -5.8970   23.8100  -30.9260 C   0  0  0  0  0  0  0  0  0  0  0  0
   -5.2800   25.0730  -30.4690 C   0  0  0  0  0  0  0  0  0  0  0  0
   -3.8770   25.2920  -30.5890 N   0  0  0  0  0  0  0  0  0  0  0  0
   -6.0070   25.9870  -29.9940 O   0  0  0  0  0  0  0  0  0  0  0  0
   -7.2740   23.6250  -31.0470 C   0  0  0  0  0  0  0  0  0  0  0  0
   -7.4290   22.3540  -31.5530 C   0  0  0  0  0  0  0  0  0  0  0  0
   -8.5870   21.6460  -31.8540 C   0  0  0  0  0  0  0  0  0  0  0  0
   -8.4510   20.3340  -32.3330 C   0  0  0  0  0  0  0  0  0  0  0  0
   -7.1670   19.7470  -32.4940 C   0  0  0  0  0  0  0  0  0  0  0  0
   -7.0180   18.3240  -32.9990 C   0  0  0  0  0  0  0  0  0  0  0  0
   -6.0880   18.2640  -34.2160 C   0  0  0  0  0  0  0  0  0  0  0  0
   -6.5320   17.3910  -31.8850 C   0  0  0  0  0  0  0  0  0  0  0  0
   -6.0140   20.5020  -32.1740 C   0  0  0  0  0  0  0  0  0  0  0  0
   -6.1810   21.8140  -31.7190 C   0  0  0  0  0  0  0  0  0  0  0  0
   -3.7926   22.4621  -29.1765 H   0  0  0  0  0  0  0  0  0  0  0  0
   -2.5357   21.4349  -29.9457 H   0  0  0  0  0  0  0  0  0  0  0  0
   -2.3584   23.2224  -29.9457 H   0  0  0  0  0  0  0  0  0  0  0  0
   -3.5010   26.0340  -31.2200 H   0  0  0  0  0  0  0  0  0  0  0  0
   -8.0679   24.3425  -30.7922 H   0  0  0  0  0  0  0  0  0  0  0  0
   -9.5798   22.1005  -31.7207 H   0  0  0  0  0  0  0  0  0  0  0  0
   -9.3496   19.7527  -32.5870 H   0  0  0  0  0  0  0  0  0  0  0  0
   -8.0111   17.9755  -33.3188 H   0  0  0  0  0  0  0  0  0  0  0  0
   -5.0438   18.1966  -33.8766 H   0  0  0  0  0  0  0  0  0  0  0  0
   -6.3342   17.3799  -34.8224 H   0  0  0  0  0  0  0  0  0  0  0  0
   -6.2186   19.1724  -34.8224 H   0  0  0  0  0  0  0  0  0  0  0  0
   -6.7640   17.8365  -30.9064 H   0  0  0  0  0  0  0  0  0  0  0  0
   -7.0381   16.4184  -31.9744 H   0  0  0  0  0  0  0  0  0  0  0  0
   -5.4450   17.2483  -31.9744 H   0  0  0  0  0  0  0  0  0  0  0  0
   -5.0093   20.0671  -32.2806 H   0  0  0  0  0  0  0  0  0  0  0  0
  1  2  1  0
  2  3  2  0
  2  4  1  0
  4  5  1  0
  5  6  1  0
  6  7  1  0
  6  8  2  0
  5  9  2  0
  9 10  1  0
 10 11  2  0
 11 12  1  0
 12 13  2  0
 13 14  1  0
 14 15  1  0
 14 16  1  0
 13 17  1  0
 17 18  2  0
 18  4  1  0
 18 10  1  0
  1 19  1  0
  1 20  1  0
  1 21  1  0
  7 22  1  0
  9 23  1  0
 11 24  1  0
 12 25  1  0
 14 26  1  0
 15 27  1  0
 15 28  1  0
 15 29  1  0
 16 30  1  0
 16 31  1  0
 16 32  1  0
 17 33  1  0
M  CHG  1   7  -1
M  END
>  <UniqueID>  (40) 
40

>  <SMILES>  (40) 
CC(=O)n1c(C([NH-])=O)cc2ccc(C(C)C)cc21

>  <Energy>  (40) 
68.18510018360534

>  <Genealogy>  (40) 
CC(=O)n1c(C([NH-])=O)cc2ccc(C(C)C)cc21 (protonated)
CC(=O)n1c(C([NH-])=O)cc2ccc(C(C)C)cc21 (3D coordinates assigned)
CC(=O)n1c(C([NH-])=O)cc2ccc(C(C)C)cc21 (optimized conformer: 68.18510018360534 kcal/mol)

>  <smiles>  (40) 
CC(=O)n1c(C(N)=O)cc2ccc(C(C)C)cc21

>  <score_type>  (40) 
oracle

>  <origin>  (40) 
adg

>  <m_score__min__energy>  (40) 
-10.539999999999999

>  <m_primary>  (40) 
energy

$$$$
40:0
     RDKit          3D

 38 40  0  0  0  0  0  0  0  0999 V2000
   -1.3130   22.9280  -30.0180 C   0  0  0  0  0  0  0  0  0  0  0  0
   -2.7570   23.0660  -30.1560 N   0  0  0  0  0  0  0  0  0  0  0  0
   -3.4570   22.5590  -31.2980 C   0  0  0  0  0  0  0  0  0  0  0  0
   -2.8200   22.0270  -32.2490 O   0  0  0  0  0  0  0  0  0  0  0  0
   -4.8890   22.6430  -31.3610 N   0  0  0  0  0  0  0  0  0  0  0  0
   -5.6790   23.7030  -31.0280 C   0  0  0  0  0  0  0  0  0  0  0  0
   -5.2250   24.9620  -30.3990 C   0  0  0  0  0  0  0  0  0  0  0  0
   -3.8640   25.3760  -30.4820 N   0  0  0  0  0  0  0  0  0  0  0  0
   -6.0440   25.6650  -29.7470 O   0  0  0  0  0  0  0  0  0  0  0  0
   -7.0160   23.4190  -31.3040 C   0  0  0  0  0  0  0  0  0  0  0  0
   -7.0190   22.1420  -31.8170 C   0  0  0  0  0  0  0  0  0  0  0  0
   -8.0760   21.3640  -32.2760 C   0  0  0  0  0  0  0  0  0  0  0  0
   -7.7840   20.0890  -32.7870 C   0  0  0  0  0  0  0  0  0  0  0  0
   -6.4450   19.6170  -32.8420 C   0  0  0  0  0  0  0  0  0  0  0  0
   -6.1440   18.2720  -33.3950 C   0  0  0  0  0  0  0  0  0  0  0  0
   -7.0670   17.2210  -33.2600 C   0  0  0  0  0  0  0  0  0  0  0  0
   -6.7640   15.9620  -33.7850 C   0  0  0  0  0  0  0  0  0  0  0  0
   -5.5830   15.7550  -34.4240 N   0  0  0  0  0  0  0  0  0  0  0  0
   -4.6680   16.7500  -34.5780 C   0  0  0  0  0  0  0  0  0  0  0  0
   -3.3740   16.4680  -35.2730 C   0  0  0  0  0  0  0  0  0  0  0  0
   -4.9310   18.0250  -34.0610 C   0  0  0  0  0  0  0  0  0  0  0  0
   -5.3980   20.4420  -32.3660 C   0  0  0  0  0  0  0  0  0  0  0  0
   -5.7230   21.6980  -31.8430 C   0  0  0  0  0  0  0  0  0  0  0  0
   -1.0474   22.9026  -28.9508 H   0  0  0  0  0  0  0  0  0  0  0  0
   -0.9862   21.9945  -30.4995 H   0  0  0  0  0  0  0  0  0  0  0  0
   -0.8153   23.7827  -30.4995 H   0  0  0  0  0  0  0  0  0  0  0  0
   -3.2910   23.5620  -29.4090 H   0  0  0  0  0  0  0  0  0  0  0  0
   -3.5500   26.0440  -31.2190 H   0  0  0  0  0  0  0  0  0  0  0  0
   -7.8838   24.0760  -31.1454 H   0  0  0  0  0  0  0  0  0  0  0  0
   -9.1105   21.7363  -32.2399 H   0  0  0  0  0  0  0  0  0  0  0  0
   -8.6015   19.4482  -33.1489 H   0  0  0  0  0  0  0  0  0  0  0  0
   -8.0236   17.3886  -32.7434 H   0  0  0  0  0  0  0  0  0  0  0  0
   -7.4834   15.1364  -33.6807 H   0  0  0  0  0  0  0  0  0  0  0  0
   -2.5859   16.2963  -34.5251 H   0  0  0  0  0  0  0  0  0  0  0  0
   -3.4834   15.5726  -35.9025 H   0  0  0  0  0  0  0  0  0  0  0  0
   -3.1010   17.3277  -35.9025 H   0  0  0  0  0  0  0  0  0  0  0  0
   -4.1907   18.8304  -34.1758 H   0  0  0  0  0  0  0  0  0  0  0  0
   -4.3523   20.1031  -32.4064 H   0  0  0  0  0  0  0  0  0  0  0  0
  1  2  1  0
  2  3  1  0
  3  4  2  0
  3  5  1  0
  5  6  1  0
  6  7  1  0
  7  8  1  0
  7  9  2  0
  6 10  2  0
 10 11  1  0
 11 12  2  0
 12 13  1  0
 13 14  2  0
 14 15  1  0
 15 16  2  0
 16 17  1  0
 17 18  2  0
 18 19  1  0
 19 20  1  0
 19 21  2  0
 14 22  1  0
 22 23  2  0
 23  5  1  0
 23 11  1  0
 21 15  1  0
  1 24  1  0
  1 25  1  0
  1 26  1  0
  2 27  1  0
  8 28  1  0
 10 29  1  0
 12 30  1  0
 13 31  1  0
 16 32  1  0
 17 33  1  0
 20 34  1  0
 20 35  1  0
 20 36  1  0
 21 37  1  0
 22 38  1  0
M  CHG  1   8  -1
M  END
>  <UniqueID>  (41) 
41

>  <SMILES>  (41) 
CNC(=O)n1c(C([NH-])=O)cc2ccc(-c3ccnc(C)c3)cc21

>  <Energy>  (41) 
81.52847900719776

>  <Genealogy>  (41) 
CNC(=O)n1c(C([NH-])=O)cc2ccc(-c3ccnc(C)c3)cc21 (protonated)
CNC(=O)n1c(C([NH-])=O)cc2ccc(-c3ccnc(C)c3)cc21 (3D coordinates assigned)
CNC(=O)n1c(C([NH-])=O)cc2ccc(-c3ccnc(C)c3)cc21 (optimized conformer: 81.52847900719776 kcal/mol)

>  <smiles>  (41) 
CNC(=O)n1c(C(N)=O)cc2ccc(-c3ccnc(C)c3)cc21

>  <score_type>  (41) 
oracle

>  <origin>  (41) 
adg

>  <m_score__min__energy>  (41) 
-10.880000000000001

>  <m_primary>  (41) 
energy

$$$$
41:0
     RDKit          3D

 46 49  0  0  0  0  0  0  0  0999 V2000
   -3.9180   25.2310  -30.8160 N   0  0  0  0  0  0  0  0  0  0  0  0
   -5.3110   25.2130  -30.5140 C   0  0  0  0  0  0  0  0  0  0  0  0
   -5.8150   26.1680  -29.8660 O   0  0  0  0  0  0  0  0  0  0  0  0
   -6.1410   24.0640  -30.9260 C   0  0  0  0  0  0  0  0  0  0  0  0
   -7.5320   24.0380  -30.8390 C   0  0  0  0  0  0  0  0  0  0  0  0
   -7.9070   22.8330  -31.3900 C   0  0  0  0  0  0  0  0  0  0  0  0
   -9.1720   22.2740  -31.5510 C   0  0  0  0  0  0  0  0  0  0  0  0
   -9.2580   20.9970  -32.1320 C   0  0  0  0  0  0  0  0  0  0  0  0
   -8.0880   20.3060  -32.5420 C   0  0  0  0  0  0  0  0  0  0  0  0
   -8.1860   18.9770  -33.0920 N   0  0  0  0  0  0  0  0  0  0  0  0
   -7.2960   18.0640  -32.3610 C   0  0  0  0  0  0  0  0  0  0  0  0
   -6.1930   17.5700  -33.2600 C   0  0  0  0  0  0  0  0  0  0  0  0
   -5.5030   16.3890  -32.9510 C   0  0  0  0  0  0  0  0  0  0  0  0
   -4.5070   15.9270  -33.8170 C   0  0  0  0  0  0  0  0  0  0  0  0
   -4.2190   16.6170  -34.9530 N   0  0  0  0  0  0  0  0  0  0  0  0
   -4.8790   17.7580  -35.2820 C   0  0  0  0  0  0  0  0  0  0  0  0
   -5.8830   18.2530  -34.4460 C   0  0  0  0  0  0  0  0  0  0  0  0
   -6.8210   20.9050  -32.3530 C   0  0  0  0  0  0  0  0  0  0  0  0
   -6.7680   22.1800  -31.7830 C   0  0  0  0  0  0  0  0  0  0  0  0
   -5.6780   22.9190  -31.5000 N   0  0  0  0  0  0  0  0  0  0  0  0
   -4.3150   22.5150  -31.6900 C   0  0  0  0  0  0  0  0  0  0  0  0
   -3.5160   22.5500  -30.7160 O   0  0  0  0  0  0  0  0  0  0  0  0
   -3.8080   22.2100  -33.0710 C   0  0  0  0  0  0  0  0  0  0  0  0
   -3.2220   20.8720  -33.1370 N   0  0  0  0  0  0  0  0  0  0  0  0
   -2.1550   20.4870  -33.8560 C   0  0  0  0  0  0  0  0  0  0  0  0
   -1.9410   19.1510  -33.6090 C   0  0  0  0  0  0  0  0  0  0  0  0
   -2.8680   18.6970  -32.7400 N   0  0  0  0  0  0  0  0  0  0  0  0
   -3.6370   19.7740  -32.4780 C   0  0  0  0  0  0  0  0  0  0  0  0
   -3.4850   26.0460  -31.3050 H   0  0  0  0  0  0  0  0  0  0  0  0
   -8.1894   24.8140  -30.4199 H   0  0  0  0  0  0  0  0  0  0  0  0
  -10.0757   22.8148  -31.2335 H   0  0  0  0  0  0  0  0  0  0  0  0
  -10.2432   20.5278  -32.2705 H   0  0  0  0  0  0  0  0  0  0  0  0
   -7.9220   18.9920  -34.1050 H   0  0  0  0  0  0  0  0  0  0  0  0
   -9.1730   18.6370  -33.0180 H   0  0  0  0  0  0  0  0  0  0  0  0
   -6.8546   18.5964  -31.5056 H   0  0  0  0  0  0  0  0  0  0  0  0
   -7.8817   17.2017  -32.0098 H   0  0  0  0  0  0  0  0  0  0  0  0
   -5.7434   15.8303  -32.0344 H   0  0  0  0  0  0  0  0  0  0  0  0
   -3.9562   15.0050  -33.5793 H   0  0  0  0  0  0  0  0  0  0  0  0
   -4.6224   18.2930  -36.2082 H   0  0  0  0  0  0  0  0  0  0  0  0
   -6.4262   19.1708  -34.7153 H   0  0  0  0  0  0  0  0  0  0  0  0
   -5.9000   20.3804  -32.6473 H   0  0  0  0  0  0  0  0  0  0  0  0
   -4.6454   22.2702  -33.7818 H   0  0  0  0  0  0  0  0  0  0  0  0
   -3.0290   22.9438  -33.3254 H   0  0  0  0  0  0  0  0  0  0  0  0
   -1.5585   21.1263  -34.5235 H   0  0  0  0  0  0  0  0  0  0  0  0
   -1.1369   18.5452  -34.0522 H   0  0  0  0  0  0  0  0  0  0  0  0
   -4.5049   19.7569  -31.8024 H   0  0  0  0  0  0  0  0  0  0  0  0
  1  2  1  0
  2  3  2  0
  2  4  1  0
  4  5  2  0
  5  6  1  0
  6  7  2  0
  7  8  1  0
  8  9  2  0
  9 10  1  0
 10 11  1  0
 11 12  1  0
 12 13  2  0
 13 14  1  0
 14 15  2  0
 15 16  1  0
 16 17  2  0
  9 18  1  0
 18 19  2  0
 19 20  1  0
 20 21  1  0
 21 22  2  0
 21 23  1  0
 23 24  1  0
 24 25  1  0
 25 26  2  0
 26 27  1  0
 27 28  2  0
 20  4  1  0
 28 24  1  0
 19  6  1  0
 17 12  1  0
  1 29  1  0
  5 30  1  0
  7 31  1  0
  8 32  1  0
 10 33  1  0
 10 34  1  0
 11 35  1  0
 11 36  1  0
 13 37  1  0
 14 38  1  0
 16 39  1  0
 17 40  1  0
 18 41  1  0
 23 42  1  0
 23 43  1  0
 25 44  1  0
 26 45  1  0
 28 46  1  0
M  CHG  2   1  -1  10   1
M  END
>  <UniqueID>  (42) 
42

>  <SMILES>  (42) 
[NH-]C(=O)c1cc2ccc([NH2+]Cc3ccncc3)cc2n1C(=O)Cn1ccnc1

>  <Energy>  (42) 
119.54619364748963

>  <Genealogy>  (42) 
[NH-]C(=O)c1cc2ccc([NH2+]Cc3ccncc3)cc2n1C(=O)Cn1ccnc1 (protonated)
[NH-]C(=O)c1cc2ccc([NH2+]Cc3ccncc3)cc2n1C(=O)Cn1ccnc1 (3D coordinates assigned)
[NH-]C(=O)c1cc2ccc([NH2+]Cc3ccncc3)cc2n1C(=O)Cn1ccnc1 (optimized conformer: 119.54619364748963 kcal/mol)

>  <smiles>  (42) 
NC(=O)c1cc2ccc(NCc3ccncc3)cc2n1C(=O)Cn1ccnc1

>  <score_type>  (42) 
oracle

>  <origin>  (42) 
adg

>  <m_score__min__energy>  (42) 
-10.84

>  <m_primary>  (42) 
energy

$$$$
42:0
     RDKit          3D

 28 29  0  0  0  0  0  0  0  0999 V2000
   -8.4600   23.0580  -31.7690 C   0  0  0  0  0  0  0  0  0  0  0  0
   -7.3470   22.8190  -30.7980 C   0  0  0  0  0  0  0  0  0  0  0  0
   -7.5790   22.9120  -29.5640 O   0  0  0  0  0  0  0  0  0  0  0  0
   -6.0310   22.4600  -31.2530 N   0  0  0  0  0  0  0  0  0  0  0  0
   -4.8880   23.1980  -31.1830 C   0  0  0  0  0  0  0  0  0  0  0  0
   -4.7220   24.4700  -30.4520 C   0  0  0  0  0  0  0  0  0  0  0  0
   -5.4820   24.7520  -29.2760 N   0  0  0  0  0  0  0  0  0  0  0  0
   -3.8590   25.3010  -30.8430 O   0  0  0  0  0  0  0  0  0  0  0  0
   -3.8460   22.5580  -31.8520 C   0  0  0  0  0  0  0  0  0  0  0  0
   -4.3870   21.3840  -32.3250 C   0  0  0  0  0  0  0  0  0  0  0  0
   -3.8010   20.3610  -33.0650 C   0  0  0  0  0  0  0  0  0  0  0  0
   -4.6080   19.2740  -33.4400 C   0  0  0  0  0  0  0  0  0  0  0  0
   -5.9800   19.2380  -33.0880 C   0  0  0  0  0  0  0  0  0  0  0  0
   -6.8240   18.0590  -33.4700 C   0  0  0  0  0  0  0  0  0  0  0  0
   -6.5380   20.2880  -32.3250 C   0  0  0  0  0  0  0  0  0  0  0  0
   -5.7070   21.3490  -31.9500 C   0  0  0  0  0  0  0  0  0  0  0  0
   -9.3908   23.2579  -31.2179 H   0  0  0  0  0  0  0  0  0  0  0  0
   -8.2152   23.9240  -32.4015 H   0  0  0  0  0  0  0  0  0  0  0  0
   -8.5923   22.1678  -32.4015 H   0  0  0  0  0  0  0  0  0  0  0  0
   -5.3840   25.6740  -28.7970 H   0  0  0  0  0  0  0  0  0  0  0  0
   -6.0800   24.0200  -28.8330 H   0  0  0  0  0  0  0  0  0  0  0  0
   -2.8128   22.9147  -31.9755 H   0  0  0  0  0  0  0  0  0  0  0  0
   -2.7387   20.4024  -33.3475 H   0  0  0  0  0  0  0  0  0  0  0  0
   -4.1705   18.4428  -34.0124 H   0  0  0  0  0  0  0  0  0  0  0  0
   -7.1842   17.5559  -32.5605 H   0  0  0  0  0  0  0  0  0  0  0  0
   -7.6838   18.4009  -34.0649 H   0  0  0  0  0  0  0  0  0  0  0  0
   -6.2232   17.3553  -34.0649 H   0  0  0  0  0  0  0  0  0  0  0  0
   -7.5985   20.2716  -32.0333 H   0  0  0  0  0  0  0  0  0  0  0  0
  1  2  1  0
  2  3  2  0
  2  4  1  0
  4  5  1  0
  5  6  1  0
  6  7  1  0
  6  8  2  0
  5  9  2  0
  9 10  1  0
 10 11  2  0
 11 12  1  0
 12 13  2  0
 13 14  1  0
 13 15  1  0
 15 16  2  0
 16  4  1  0
 16 10  1  0
  1 17  1  0
  1 18  1  0
  1 19  1  0
  7 20  1  0
  7 21  1  0
  9 22  1  0
 11 23  1  0
 12 24  1  0
 14 25  1  0
 14 26  1  0
 14 27  1  0
 15 28  1  0
M  END
>  <UniqueID>  (43) 
43

>  <SMILES>  (43) 
CC(=O)n1c(C(N)=O)cc2ccc(C)cc21

>  <Energy>  (43) 
66.8762815940857

>  <Genealogy>  (43) 
CC(=O)n1c(C(N)=O)cc2ccc(C)cc21 (3D coordinates assigned)
CC(=O)n1c(C(N)=O)cc2ccc(C)cc21 (optimized conformer: 66.8762815940857 kcal/mol)

>  <smiles>  (43) 
CC(=O)n1c(C(N)=O)cc2ccc(C)cc21

>  <score_type>  (43) 
oracle

>  <origin>  (43) 
adg

>  <m_score__min__energy>  (43) 
-7.5199999999999996

>  <m_primary>  (43) 
energy

$$$$
43:0
     RDKit          3D

 65 68  0  0  0  0  0  0  0  0999 V2000
   -2.1620   20.1520  -31.3560 C   0  0  0  0  0  0  0  0  0  0  0  0
   -1.9930   21.0080  -32.6270 C   0  0  0  0  0  0  0  0  0  0  0  0
   -2.6330   20.2700  -33.8140 C   0  0  0  0  0  0  0  0  0  0  0  0
   -0.5020   21.2420  -32.9330 C   0  0  0  0  0  0  0  0  0  0  0  0
   -2.6800   22.2600  -32.4860 O   0  0  0  0  0  0  0  0  0  0  0  0
   -3.3490   22.7200  -31.3440 C   0  0  0  0  0  0  0  0  0  0  0  0
   -2.7090   23.1250  -30.3350 O   0  0  0  0  0  0  0  0  0  0  0  0
   -4.7830   22.7530  -31.3370 N   0  0  0  0  0  0  0  0  0  0  0  0
   -5.5990   23.8050  -31.0440 C   0  0  0  0  0  0  0  0  0  0  0  0
   -5.1680   25.1160  -30.5140 C   0  0  0  0  0  0  0  0  0  0  0  0
   -3.8910   25.6560  -30.8400 N   0  0  0  0  0  0  0  0  0  0  0  0
   -5.9220   25.7460  -29.7250 O   0  0  0  0  0  0  0  0  0  0  0  0
   -6.9340   23.4540  -31.2350 C   0  0  0  0  0  0  0  0  0  0  0  0
   -6.9110   22.1420  -31.6500 C   0  0  0  0  0  0  0  0  0  0  0  0
   -7.9580   21.2920  -31.9930 C   0  0  0  0  0  0  0  0  0  0  0  0
   -7.6380   19.9910  -32.4180 C   0  0  0  0  0  0  0  0  0  0  0  0
   -6.2860   19.5650  -32.4990 C   0  0  0  0  0  0  0  0  0  0  0  0
   -5.9360   18.1670  -32.9720 C   0  0  0  0  0  0  0  0  0  0  0  0
   -5.3570   18.1780  -34.3970 C   0  0  0  0  0  0  0  0  0  0  0  0
   -4.8360   16.7780  -34.7510 C   0  0  0  0  0  0  0  0  0  0  0  0
   -5.7530   15.7240  -34.2890 N   0  0  0  0  0  0  0  0  0  0  0  0
   -5.2940   14.3600  -34.2640 C   0  0  0  0  0  0  0  0  0  0  0  0
   -6.0630   13.4350  -33.8840 O   0  0  0  0  0  0  0  0  0  0  0  0
   -3.9800   14.0640  -34.6460 O   0  0  0  0  0  0  0  0  0  0  0  0
   -2.8840   14.0500  -33.7340 C   0  0  0  0  0  0  0  0  0  0  0  0
   -2.0690   15.3060  -33.8870 C   0  0  0  0  0  0  0  0  0  0  0  0
   -1.6530   15.7180  -35.1630 C   0  0  0  0  0  0  0  0  0  0  0  0
   -0.9280   16.9060  -35.3180 C   0  0  0  0  0  0  0  0  0  0  0  0
   -0.6180   17.6870  -34.2020 C   0  0  0  0  0  0  0  0  0  0  0  0
   -1.0320   17.2830  -32.9290 C   0  0  0  0  0  0  0  0  0  0  0  0
   -1.7590   16.0980  -32.7700 C   0  0  0  0  0  0  0  0  0  0  0  0
   -7.1290   16.0750  -33.9030 C   0  0  0  0  0  0  0  0  0  0  0  0
   -7.1440   17.2030  -32.8530 C   0  0  0  0  0  0  0  0  0  0  0  0
   -5.2520   20.4600  -32.1380 C   0  0  0  0  0  0  0  0  0  0  0  0
   -5.6010   21.7430  -31.7030 C   0  0  0  0  0  0  0  0  0  0  0  0
   -2.0366   20.7872  -30.4668 H   0  0  0  0  0  0  0  0  0  0  0  0
   -3.1661   19.7030  -31.3472 H   0  0  0  0  0  0  0  0  0  0  0  0
   -1.4039   19.3550  -31.3472 H   0  0  0  0  0  0  0  0  0  0  0  0
   -3.3103   19.4890  -33.4381 H   0  0  0  0  0  0  0  0  0  0  0  0
   -3.2019   20.9849  -34.4266 H   0  0  0  0  0  0  0  0  0  0  0  0
   -1.8448   19.8080  -34.4266 H   0  0  0  0  0  0  0  0  0  0  0  0
    0.0566   21.3297  -31.9894 H   0  0  0  0  0  0  0  0  0  0  0  0
   -0.1095   20.3945  -33.5141 H   0  0  0  0  0  0  0  0  0  0  0  0
   -0.3880   22.1690  -33.5141 H   0  0  0  0  0  0  0  0  0  0  0  0
   -3.0180   25.2660  -30.4170 H   0  0  0  0  0  0  0  0  0  0  0  0
   -7.8186   24.0906  -31.0857 H   0  0  0  0  0  0  0  0  0  0  0  0
   -9.0038   21.6279  -31.9334 H   0  0  0  0  0  0  0  0  0  0  0  0
   -8.4445   19.2946  -32.6911 H   0  0  0  0  0  0  0  0  0  0  0  0
   -5.1493   17.7859  -32.3043 H   0  0  0  0  0  0  0  0  0  0  0  0
   -6.1435   18.4671  -35.1097 H   0  0  0  0  0  0  0  0  0  0  0  0
   -4.5292   18.9004  -34.4498 H   0  0  0  0  0  0  0  0  0  0  0  0
   -4.7281   16.7033  -35.8431 H   0  0  0  0  0  0  0  0  0  0  0  0
   -3.8678   16.6349  -34.2489 H   0  0  0  0  0  0  0  0  0  0  0  0
   -3.2676   13.9881  -32.7049 H   0  0  0  0  0  0  0  0  0  0  0  0
   -2.2475   13.1789  -33.9488 H   0  0  0  0  0  0  0  0  0  0  0  0
   -1.8973   15.1058  -36.0436 H   0  0  0  0  0  0  0  0  0  0  0  0
   -0.6024   17.2245  -36.3193 H   0  0  0  0  0  0  0  0  0  0  0  0
   -0.0482   18.6199  -34.3247 H   0  0  0  0  0  0  0  0  0  0  0  0
   -0.7857   17.8979  -32.0508 H   0  0  0  0  0  0  0  0  0  0  0  0
   -2.0883   15.7864  -31.7678 H   0  0  0  0  0  0  0  0  0  0  0  0
   -7.6778   16.4090  -34.7959 H   0  0  0  0  0  0  0  0  0  0  0  0
   -7.6049   15.1854  -33.4647 H   0  0  0  0  0  0  0  0  0  0  0  0
   -8.0689   17.7850  -32.9789 H   0  0  0  0  0  0  0  0  0  0  0  0
   -7.0852   16.7275  -31.8628 H   0  0  0  0  0  0  0  0  0  0  0  0
   -4.1971   20.1541  -32.1979 H   0  0  0  0  0  0  0  0  0  0  0  0
  1  2  1  0
  2  3  1  0
  2  4  1  0
  2  5  1  0
  5  6  1  0
  6  7  2  0
  6  8  1  0
  8  9  1  0
  9 10  1  0
 10 11  1  0
 10 12  2  0
  9 13  2  0
 13 14  1  0
 14 15  2  0
 15 16  1  0
 16 17  2  0
 17 18  1  0
 18 19  1  0
 19 20  1  0
 20 21  1  0
 21 22  1  0
 22 23  2  0
 22 24  1  0
 24 25  1  0
 25 26  1  0
 26 27  2  0
 27 28  1  0
 28 29  2  0
 29 30  1  0
 30 31  2  0
 21 32  1  0
 32 33  1  0
 17 34  1  0
 34 35  2  0
 35  8  1  0
 35 14  1  0
 33 18  1  0
 31 26  1  0
  1 36  1  0
  1 37  1  0
  1 38  1  0
  3 39  1  0
  3 40  1  0
  3 41  1  0
  4 42  1  0
  4 43  1  0
  4 44  1  0
 11 45  1  0
 13 46  1  0
 15 47  1  0
 16 48  1  0
 18 49  1  0
 19 50  1  0
 19 51  1  0
 20 52  1  0
 20 53  1  0
 25 54  1  0
 25 55  1  0
 27 56  1  0
 28 57  1  0
 29 58  1  0
 30 59  1  0
 31 60  1  0
 32 61  1  0
 32 62  1  0
 33 63  1  0
 33 64  1  0
 34 65  1  0
M  CHG  1  11  -1
M  END
>  <UniqueID>  (44) 
44

>  <SMILES>  (44) 
CC(C)(C)OC(=O)n1c(C([NH-])=O)cc2ccc(C3CCN(C(=O)OCc4ccccc4)CC3)cc21

>  <Energy>  (44) 
102.81050284524618

>  <Genealogy>  (44) 
CC(C)(C)OC(=O)n1c(C([NH-])=O)cc2ccc(C3CCN(C(=O)OCc4ccccc4)CC3)cc21 (protonated)
CC(C)(C)OC(=O)n1c(C([NH-])=O)cc2ccc(C3CCN(C(=O)OCc4ccccc4)CC3)cc21 (3D coordinates assigned)
CC(C)(C)OC(=O)n1c(C([NH-])=O)cc2ccc(C3CCN(C(=O)OCc4ccccc4)CC3)cc21 (nonaromatic ring conformer: 102.81050284524618 kcal/mol)

>  <smiles>  (44) 
CC(C)(C)OC(=O)n1c(C(N)=O)cc2ccc(C3CCN(C(=O)OCc4ccccc4)CC3)cc21

>  <score_type>  (44) 
oracle

>  <origin>  (44) 
adg

>  <m_score__min__energy>  (44) 
-11.529999999999999

>  <m_primary>  (44) 
energy

$$$$
44:0
     RDKit          3D

 34 36  0  0  0  0  0  0  0  0999 V2000
   -3.8600   25.2920  -30.5760 N   0  0  0  0  0  0  0  0  0  0  0  0
   -5.2600   25.1290  -30.3650 C   0  0  0  0  0  0  0  0  0  0  0  0
   -5.9010   26.0330  -29.7660 O   0  0  0  0  0  0  0  0  0  0  0  0
   -5.9600   23.9040  -30.8050 C   0  0  0  0  0  0  0  0  0  0  0  0
   -7.2830   23.8830  -31.2410 C   0  0  0  0  0  0  0  0  0  0  0  0
   -7.5620   22.5610  -31.5020 C   0  0  0  0  0  0  0  0  0  0  0  0
   -8.7280   21.9640  -31.9730 C   0  0  0  0  0  0  0  0  0  0  0  0
   -8.7240   20.5730  -32.1720 C   0  0  0  0  0  0  0  0  0  0  0  0
   -7.5590   19.8100  -31.9060 C   0  0  0  0  0  0  0  0  0  0  0  0
   -7.5530   18.3250  -32.1300 C   0  0  0  0  0  0  0  0  0  0  0  0
   -8.8280   17.8210  -31.9530 F   0  0  0  0  0  0  0  0  0  0  0  0
   -6.6940   17.7210  -31.2290 F   0  0  0  0  0  0  0  0  0  0  0  0
   -6.3930   20.4510  -31.4340 C   0  0  0  0  0  0  0  0  0  0  0  0
   -6.4330   21.8340  -31.2300 C   0  0  0  0  0  0  0  0  0  0  0  0
   -5.4430   22.6430  -30.7940 N   0  0  0  0  0  0  0  0  0  0  0  0
   -4.0950   22.2470  -30.4940 C   0  0  0  0  0  0  0  0  0  0  0  0
   -3.6780   22.3460  -29.3080 O   0  0  0  0  0  0  0  0  0  0  0  0
   -3.1820   21.7570  -31.5560 C   0  0  0  0  0  0  0  0  0  0  0  0
   -3.7160   21.2430  -32.7520 C   0  0  0  0  0  0  0  0  0  0  0  0
   -2.8730   20.7640  -33.7580 C   0  0  0  0  0  0  0  0  0  0  0  0
   -1.4880   20.7970  -33.5860 C   0  0  0  0  0  0  0  0  0  0  0  0
   -0.6710   20.3310  -34.5630 F   0  0  0  0  0  0  0  0  0  0  0  0
   -0.9440   21.3150  -32.4080 C   0  0  0  0  0  0  0  0  0  0  0  0
   -1.7800   21.7970  -31.3970 C   0  0  0  0  0  0  0  0  0  0  0  0
   -1.2150   22.3290  -30.2830 F   0  0  0  0  0  0  0  0  0  0  0  0
   -3.4950   26.0290  -31.2190 H   0  0  0  0  0  0  0  0  0  0  0  0
   -7.9613   24.7417  -31.3530 H   0  0  0  0  0  0  0  0  0  0  0  0
   -9.6260   22.5635  -32.1832 H   0  0  0  0  0  0  0  0  0  0  0  0
   -9.6325   20.0718  -32.5373 H   0  0  0  0  0  0  0  0  0  0  0  0
   -7.2153   18.1175  -33.1561 H   0  0  0  0  0  0  0  0  0  0  0  0
   -5.4765   19.8773  -31.2319 H   0  0  0  0  0  0  0  0  0  0  0  0
   -4.8062   21.2181  -32.8962 H   0  0  0  0  0  0  0  0  0  0  0  0
   -3.3014   20.3602  -34.6872 H   0  0  0  0  0  0  0  0  0  0  0  0
    0.1476   21.3436  -32.2756 H   0  0  0  0  0  0  0  0  0  0  0  0
  1  2  1  0
  2  3  2  0
  2  4  1  0
  4  5  2  0
  5  6  1  0
  6  7  2  0
  7  8  1  0
  8  9  2  0
  9 10  1  0
 10 11  1  0
 10 12  1  0
  9 13  1  0
 13 14  2  0
 14 15  1  0
 15 16  1  0
 16 17  2  0
 16 18  1  0
 18 19  2  0
 19 20  1  0
 20 21  2  0
 21 22  1  0
 21 23  1  0
 23 24  2  0
 24 25  1  0
 15  4  1  0
 24 18  1  0
 14  6  1  0
  1 26  1  0
  5 27  1  0
  7 28  1  0
  8 29  1  0
 10 30  1  0
 13 31  1  0
 19 32  1  0
 20 33  1  0
 23 34  1  0
M  CHG  1   1  -1
M  END
>  <UniqueID>  (45) 
45

>  <SMILES>  (45) 
[NH-]C(=O)c1cc2ccc(C(F)F)cc2n1C(=O)c1ccc(F)cc1F

>  <Energy>  (45) 
78.52329916820918

>  <Genealogy>  (45) 
[NH-]C(=O)c1cc2ccc(C(F)F)cc2n1C(=O)c1ccc(F)cc1F (protonated)
[NH-]C(=O)c1cc2ccc(C(F)F)cc2n1C(=O)c1ccc(F)cc1F (3D coordinates assigned)
[NH-]C(=O)c1cc2ccc(C(F)F)cc2n1C(=O)c1ccc(F)cc1F (optimized conformer: 78.52329916820918 kcal/mol)

>  <smiles>  (45) 
NC(=O)c1cc2ccc(C(F)F)cc2n1C(=O)c1ccc(F)cc1F

>  <score_type>  (45) 
oracle

>  <origin>  (45) 
adg

>  <m_score__min__energy>  (45) 
-10.42

>  <m_primary>  (45) 
energy

$$$$
45:0
     RDKit          3D

 24 25  0  0  0  0  0  0  0  0999 V2000
   -5.6080   25.2990  -28.7340 N   0  0  0  0  0  0  0  0  0  0  0  0
   -6.4780   24.7890  -29.7460 C   0  0  0  0  0  0  0  0  0  0  0  0
   -7.6020   25.3300  -29.9230 O   0  0  0  0  0  0  0  0  0  0  0  0
   -6.0560   23.6850  -30.6320 C   0  0  0  0  0  0  0  0  0  0  0  0
   -6.9480   22.7950  -31.2210 C   0  0  0  0  0  0  0  0  0  0  0  0
   -6.1760   21.9770  -32.0120 C   0  0  0  0  0  0  0  0  0  0  0  0
   -6.5470   20.9020  -32.8150 C   0  0  0  0  0  0  0  0  0  0  0  0
   -5.5310   20.2100  -33.4970 C   0  0  0  0  0  0  0  0  0  0  0  0
   -4.1770   20.5950  -33.3560 C   0  0  0  0  0  0  0  0  0  0  0  0
   -3.1530   19.8730  -34.0430 N   0  0  0  0  0  0  0  0  0  0  0  0
   -3.8370   21.6880  -32.5310 C   0  0  0  0  0  0  0  0  0  0  0  0
   -4.8690   22.3750  -31.8790 C   0  0  0  0  0  0  0  0  0  0  0  0
   -4.7790   23.4240  -31.0290 N   0  0  0  0  0  0  0  0  0  0  0  0
   -3.5740   24.0440  -30.5470 C   0  0  0  0  0  0  0  0  0  0  0  0
   -3.4870   25.2980  -30.4720 O   0  0  0  0  0  0  0  0  0  0  0  0
   -2.4890   23.2650  -30.1660 O   0  0  0  0  0  0  0  0  0  0  0  0
   -4.6150   24.9860  -28.6700 H   0  0  0  0  0  0  0  0  0  0  0  0
   -5.9370   26.0550  -28.0950 H   0  0  0  0  0  0  0  0  0  0  0  0
   -8.0386   22.7542  -31.0834 H   0  0  0  0  0  0  0  0  0  0  0  0
   -7.6013   20.6037  -32.9127 H   0  0  0  0  0  0  0  0  0  0  0  0
   -5.7912   19.3612  -34.1464 H   0  0  0  0  0  0  0  0  0  0  0  0
   -2.6240   20.3140  -34.8280 H   0  0  0  0  0  0  0  0  0  0  0  0
   -2.9160   18.8920  -33.7710 H   0  0  0  0  0  0  0  0  0  0  0  0
   -2.7879   21.9929  -32.4031 H   0  0  0  0  0  0  0  0  0  0  0  0
  1  2  1  0
  2  3  2  0
  2  4  1  0
  4  5  2  0
  5  6  1  0
  6  7  2  0
  7  8  1  0
  8  9  2  0
  9 10  1  0
  9 11  1  0
 11 12  2  0
 12 13  1  0
 13 14  1  0
 14 15  2  0
 14 16  1  0
 13  4  1  0
 12  6  1  0
  1 17  1  0
  1 18  1  0
  5 19  1  0
  7 20  1  0
  8 21  1  0
 10 22  1  0
 10 23  1  0
 11 24  1  0
M  CHG  1  16  -1
M  END
>  <UniqueID>  (46) 
46

>  <SMILES>  (46) 
NC(=O)c1cc2ccc(N)cc2n1C(=O)[O-]

>  <Energy>  (46) 
63.82773060800483

>  <Genealogy>  (46) 
NC(=O)c1cc2ccc(N)cc2n1C(=O)[O-] (protonated)
NC(=O)c1cc2ccc(N)cc2n1C(=O)[O-] (3D coordinates assigned)
NC(=O)c1cc2ccc(N)cc2n1C(=O)[O-] (optimized conformer: 63.82773060800483 kcal/mol)

>  <smiles>  (46) 
NC(=O)c1cc2ccc(N)cc2n1C(=O)O

>  <score_type>  (46) 
oracle

>  <origin>  (46) 
adg

>  <m_score__min__energy>  (46) 
-7.3399999999999999

>  <m_primary>  (46) 
energy

$$$$
46:0
     RDKit          3D

 43 45  0  0  0  0  0  0  0  0999 V2000
   -1.3650   23.0480  -28.3910 C   0  0  0  0  0  0  0  0  0  0  0  0
   -2.6780   22.6070  -29.0660 C   0  0  0  0  0  0  0  0  0  0  0  0
   -2.7510   21.0710  -29.1600 C   0  0  0  0  0  0  0  0  0  0  0  0
   -3.8600   23.1090  -28.2240 C   0  0  0  0  0  0  0  0  0  0  0  0
   -2.8040   23.1980  -30.3670 O   0  0  0  0  0  0  0  0  0  0  0  0
   -3.6090   22.7320  -31.4180 C   0  0  0  0  0  0  0  0  0  0  0  0
   -3.0980   22.2270  -32.4530 O   0  0  0  0  0  0  0  0  0  0  0  0
   -5.0330   22.8570  -31.3210 N   0  0  0  0  0  0  0  0  0  0  0  0
   -5.7540   23.9610  -30.9760 C   0  0  0  0  0  0  0  0  0  0  0  0
   -5.2000   25.2410  -30.4880 C   0  0  0  0  0  0  0  0  0  0  0  0
   -3.8860   25.6600  -30.8490 N   0  0  0  0  0  0  0  0  0  0  0  0
   -5.8880   25.9640  -29.7220 O   0  0  0  0  0  0  0  0  0  0  0  0
   -7.1190   23.7090  -31.1000 C   0  0  0  0  0  0  0  0  0  0  0  0
   -7.2130   22.4070  -31.5350 C   0  0  0  0  0  0  0  0  0  0  0  0
   -8.3350   21.6470  -31.8570 C   0  0  0  0  0  0  0  0  0  0  0  0
   -8.1290   20.3430  -32.3370 C   0  0  0  0  0  0  0  0  0  0  0  0
   -6.8200   19.8340  -32.4970 C   0  0  0  0  0  0  0  0  0  0  0  0
   -6.6240   18.5200  -33.0210 N   0  0  0  0  0  0  0  0  0  0  0  0
   -6.0800   17.9060  -34.2480 C   0  0  0  0  0  0  0  0  0  0  0  0
   -6.2750   16.4940  -33.8110 C   0  0  0  0  0  0  0  0  0  0  0  0
   -5.0930   15.8050  -33.5990 F   0  0  0  0  0  0  0  0  0  0  0  0
   -7.2130   15.8020  -34.5570 F   0  0  0  0  0  0  0  0  0  0  0  0
   -6.8300   17.1280  -32.5800 C   0  0  0  0  0  0  0  0  0  0  0  0
   -5.7060   20.6300  -32.1590 C   0  0  0  0  0  0  0  0  0  0  0  0
   -5.9400   21.9160  -31.6620 C   0  0  0  0  0  0  0  0  0  0  0  0
   -1.4832   23.0083  -27.2981 H   0  0  0  0  0  0  0  0  0  0  0  0
   -0.5512   22.3739  -28.6965 H   0  0  0  0  0  0  0  0  0  0  0  0
   -1.1232   24.0767  -28.6965 H   0  0  0  0  0  0  0  0  0  0  0  0
   -2.7714   20.6422  -28.1472 H   0  0  0  0  0  0  0  0  0  0  0  0
   -3.6640   20.7797  -29.7000 H   0  0  0  0  0  0  0  0  0  0  0  0
   -1.8697   20.6944  -29.7000 H   0  0  0  0  0  0  0  0  0  0  0  0
   -3.6188   23.0066  -27.1557 H   0  0  0  0  0  0  0  0  0  0  0  0
   -4.0528   24.1667  -28.4566 H   0  0  0  0  0  0  0  0  0  0  0  0
   -4.7550   22.5133  -28.4566 H   0  0  0  0  0  0  0  0  0  0  0  0
   -3.0480   25.2920  -30.3480 H   0  0  0  0  0  0  0  0  0  0  0  0
   -7.9463   24.4040  -30.8937 H   0  0  0  0  0  0  0  0  0  0  0  0
   -9.3498   22.0548  -31.7392 H   0  0  0  0  0  0  0  0  0  0  0  0
   -8.9939   19.7124  -32.5906 H   0  0  0  0  0  0  0  0  0  0  0  0
   -6.6643   18.1583  -35.1452 H   0  0  0  0  0  0  0  0  0  0  0  0
   -5.0654   18.2030  -34.5520 H   0  0  0  0  0  0  0  0  0  0  0  0
   -7.8906   16.8856  -32.4178 H   0  0  0  0  0  0  0  0  0  0  0  0
   -6.3845   16.8340  -31.6182 H   0  0  0  0  0  0  0  0  0  0  0  0
   -4.6813   20.2498  -32.2829 H   0  0  0  0  0  0  0  0  0  0  0  0
  1  2  1  0
  2  3  1  0
  2  4  1  0
  2  5  1  0
  5  6  1  0
  6  7  2  0
  6  8  1  0
  8  9  1  0
  9 10  1  0
 10 11  1  0
 10 12  2  0
  9 13  2  0
 13 14  1  0
 14 15  2  0
 15 16  1  0
 16 17  2  0
 17 18  1  0
 18 19  1  0
 19 20  1  0
 20 21  1  0
 20 22  1  0
 20 23  1  0
 17 24  1  0
 24 25  2  0
 25  8  1  0
 25 14  1  0
 23 18  1  0
  1 26  1  0
  1 27  1  0
  1 28  1  0
  3 29  1  0
  3 30  1  0
  3 31  1  0
  4 32  1  0
  4 33  1  0
  4 34  1  0
 11 35  1  0
 13 36  1  0
 15 37  1  0
 16 38  1  0
 19 39  1  0
 19 40  1  0
 23 41  1  0
 23 42  1  0
 24 43  1  0
M  CHG  1  11  -1
M  END
>  <UniqueID>  (47) 
47

>  <SMILES>  (47) 
CC(C)(C)OC(=O)n1c(C([NH-])=O)cc2ccc(N3CC(F)(F)C3)cc21

>  <Energy>  (47) 
123.2579606603912

>  <Genealogy>  (47) 
CC(C)(C)OC(=O)n1c(C([NH-])=O)cc2ccc(N3CC(F)(F)C3)cc21 (protonated)
CC(C)(C)OC(=O)n1c(C([NH-])=O)cc2ccc(N3CC(F)(F)C3)cc21 (3D coordinates assigned)
CC(C)(C)OC(=O)n1c(C([NH-])=O)cc2ccc(N3CC(F)(F)C3)cc21 (nonaromatic ring conformer: 123.2579606603912 kcal/mol)

>  <smiles>  (47) 
CC(C)(C)OC(=O)n1c(C(N)=O)cc2ccc(N3CC(F)(F)C3)cc21

>  <score_type>  (47) 
oracle

>  <origin>  (47) 
adg

>  <m_score__min__energy>  (47) 
-10.359999999999999

>  <m_primary>  (47) 
energy

$$$$
47:0
     RDKit          3D

 40 42  0  0  0  0  0  0  0  0999 V2000
   -7.1470   23.7630  -31.1530 C   0  0  0  0  0  0  0  0  0  0  0  0
   -6.6350   24.4710  -29.9080 C   0  0  0  0  0  0  0  0  0  0  0  0
   -5.3380   23.9810  -29.5910 O   0  0  0  0  0  0  0  0  0  0  0  0
   -4.1920   24.3330  -30.3110 C   0  0  0  0  0  0  0  0  0  0  0  0
   -4.0840   25.4780  -30.8250 O   0  0  0  0  0  0  0  0  0  0  0  0
   -3.1940   23.3390  -30.5730 N   0  0  0  0  0  0  0  0  0  0  0  0
   -1.9330   23.2760  -30.0690 C   0  0  0  0  0  0  0  0  0  0  0  0
   -1.2630   24.3490  -29.3100 C   0  0  0  0  0  0  0  0  0  0  0  0
   -1.9770   25.5340  -28.9700 N   0  0  0  0  0  0  0  0  0  0  0  0
   -0.0720   24.2170  -28.9230 O   0  0  0  0  0  0  0  0  0  0  0  0
   -1.3150   22.0840  -30.4480 C   0  0  0  0  0  0  0  0  0  0  0  0
   -2.2580   21.4090  -31.1950 C   0  0  0  0  0  0  0  0  0  0  0  0
   -2.2040   20.1490  -31.7800 C   0  0  0  0  0  0  0  0  0  0  0  0
   -3.3570   19.6730  -32.4250 C   0  0  0  0  0  0  0  0  0  0  0  0
   -4.5450   20.4590  -32.4730 C   0  0  0  0  0  0  0  0  0  0  0  0
   -5.8520   19.9330  -33.0530 C   0  0  0  0  0  0  0  0  0  0  0  0
   -6.5640   18.8440  -32.2550 C   0  0  0  0  0  0  0  0  0  0  0  0
   -7.6940   19.7280  -31.9140 N   0  0  0  0  0  0  0  0  0  0  0  0
   -8.9560   19.2600  -32.5110 C   0  0  0  0  0  0  0  0  0  0  0  0
   -7.0650   20.7900  -32.7150 C   0  0  0  0  0  0  0  0  0  0  0  0
   -4.5470   21.7390  -31.8720 C   0  0  0  0  0  0  0  0  0  0  0  0
   -3.3830   22.1870  -31.2480 C   0  0  0  0  0  0  0  0  0  0  0  0
   -7.7679   22.9044  -30.8574 H   0  0  0  0  0  0  0  0  0  0  0  0
   -7.7495   24.4626  -31.7510 H   0  0  0  0  0  0  0  0  0  0  0  0
   -6.2939   23.4100  -31.7510 H   0  0  0  0  0  0  0  0  0  0  0  0
   -6.5835   25.5537  -30.0955 H   0  0  0  0  0  0  0  0  0  0  0  0
   -7.3179   24.2797  -29.0671 H   0  0  0  0  0  0  0  0  0  0  0  0
   -2.9540   25.6830  -29.3090 H   0  0  0  0  0  0  0  0  0  0  0  0
   -0.2947   21.7534  -30.2036 H   0  0  0  0  0  0  0  0  0  0  0  0
   -1.2865   19.5436  -31.7389 H   0  0  0  0  0  0  0  0  0  0  0  0
   -3.3431   18.6806  -32.8994 H   0  0  0  0  0  0  0  0  0  0  0  0
   -5.4844   19.7565  -34.0746 H   0  0  0  0  0  0  0  0  0  0  0  0
   -6.8560   17.9756  -32.8638 H   0  0  0  0  0  0  0  0  0  0  0  0
   -6.0202   18.3404  -31.4422 H   0  0  0  0  0  0  0  0  0  0  0  0
   -9.6645   18.9973  -31.7116 H   0  0  0  0  0  0  0  0  0  0  0  0
   -9.3854   20.0587  -33.1337 H   0  0  0  0  0  0  0  0  0  0  0  0
   -8.7609   18.3745  -33.1337 H   0  0  0  0  0  0  0  0  0  0  0  0
   -7.6550   21.0788  -33.5973 H   0  0  0  0  0  0  0  0  0  0  0  0
   -6.9036   21.7750  -32.2527 H   0  0  0  0  0  0  0  0  0  0  0  0
   -5.4486   22.3687  -31.8962 H   0  0  0  0  0  0  0  0  0  0  0  0
  1  2  1  0
  2  3  1  0
  3  4  1  0
  4  5  2  0
  4  6  1  0
  6  7  1  0
  7  8  1  0
  8  9  1  0
  8 10  2  0
  7 11  2  0
 11 12  1  0
 12 13  2  0
 13 14  1  0
 14 15  2  0
 15 16  1  0
 16 17  1  0
 17 18  1  0
 18 19  1  0
 18 20  1  0
 15 21  1  0
 21 22  2  0
 22  6  1  0
 22 12  1  0
 20 16  1  0
  1 23  1  0
  1 24  1  0
  1 25  1  0
  2 26  1  0
  2 27  1  0
  9 28  1  0
 11 29  1  0
 13 30  1  0
 14 31  1  0
 16 32  1  0
 17 33  1  0
 17 34  1  0
 19 35  1  0
 19 36  1  0
 19 37  1  0
 20 38  1  0
 20 39  1  0
 21 40  1  0
M  CHG  1   9  -1
M  END
>  <UniqueID>  (48) 
48

>  <SMILES>  (48) 
CCOC(=O)n1c(C([NH-])=O)cc2ccc(C3CN(C)C3)cc21

>  <Energy>  (48) 
148.90206682127936

>  <Genealogy>  (48) 
CCOC(=O)n1c(C([NH-])=O)cc2ccc(C3CN(C)C3)cc21 (protonated)
CCOC(=O)n1c(C([NH-])=O)cc2ccc(C3CN(C)C3)cc21 (3D coordinates assigned)
CCOC(=O)n1c(C([NH-])=O)cc2ccc(C3CN(C)C3)cc21 (nonaromatic ring conformer: 148.90206682127936 kcal/mol)

>  <smiles>  (48) 
CCOC(=O)n1c(C(N)=O)cc2ccc(C3CN(C)C3)cc21

>  <score_type>  (48) 
oracle

>  <origin>  (48) 
adg

>  <m_score__min__energy>  (48) 
-10.539999999999999

>  <m_primary>  (48) 
energy

$$$$
48:0
     RDKit          3D

 39 41  0  0  0  0  0  0  0  0999 V2000
   -3.2940   22.6540  -28.9310 C   0  0  0  0  0  0  0  0  0  0  0  0
   -3.0400   23.1600  -30.2360 O   0  0  0  0  0  0  0  0  0  0  0  0
   -3.7340   22.7170  -31.3650 C   0  0  0  0  0  0  0  0  0  0  0  0
   -3.1040   22.2880  -32.3710 O   0  0  0  0  0  0  0  0  0  0  0  0
   -5.1700   22.7630  -31.3840 N   0  0  0  0  0  0  0  0  0  0  0  0
   -5.9780   23.7420  -30.8840 C   0  0  0  0  0  0  0  0  0  0  0  0
   -5.5210   25.0380  -30.3380 C   0  0  0  0  0  0  0  0  0  0  0  0
   -4.1900   25.5020  -30.5750 N   0  0  0  0  0  0  0  0  0  0  0  0
   -6.2950   25.7360  -29.6300 O   0  0  0  0  0  0  0  0  0  0  0  0
   -7.3180   23.3930  -31.0430 C   0  0  0  0  0  0  0  0  0  0  0  0
   -7.3030   22.1640  -31.6620 C   0  0  0  0  0  0  0  0  0  0  0  0
   -8.3580   21.3520  -32.0520 C   0  0  0  0  0  0  0  0  0  0  0  0
   -8.0570   20.1180  -32.6500 C   0  0  0  0  0  0  0  0  0  0  0  0
   -6.7070   19.6940  -32.8440 C   0  0  0  0  0  0  0  0  0  0  0  0
   -6.4030   18.4020  -33.4560 N   0  0  0  0  0  0  0  0  0  0  0  0
   -5.2190   18.2780  -34.3340 C   0  0  0  0  0  0  0  0  0  0  0  0
   -5.0640   16.8910  -34.9620 C   0  0  0  0  0  0  0  0  0  0  0  0
   -5.4190   15.8810  -34.0490 O   0  0  0  0  0  0  0  0  0  0  0  0
   -6.8100   15.9450  -33.8370 C   0  0  0  0  0  0  0  0  0  0  0  0
   -7.1910   17.2130  -33.0680 C   0  0  0  0  0  0  0  0  0  0  0  0
   -5.6660   20.5720  -32.4280 C   0  0  0  0  0  0  0  0  0  0  0  0
   -5.9990   21.8040  -31.8550 C   0  0  0  0  0  0  0  0  0  0  0  0
   -2.9326   23.3739  -28.1819 H   0  0  0  0  0  0  0  0  0  0  0  0
   -4.3756   22.5014  -28.8010 H   0  0  0  0  0  0  0  0  0  0  0  0
   -2.7702   21.6955  -28.8010 H   0  0  0  0  0  0  0  0  0  0  0  0
   -3.8660   26.4000  -30.1520 H   0  0  0  0  0  0  0  0  0  0  0  0
   -3.5370   24.9820  -31.2020 H   0  0  0  0  0  0  0  0  0  0  0  0
   -8.1998   23.9759  -30.7385 H   0  0  0  0  0  0  0  0  0  0  0  0
   -9.4008   21.6661  -31.8971 H   0  0  0  0  0  0  0  0  0  0  0  0
   -8.8787   19.4635  -32.9762 H   0  0  0  0  0  0  0  0  0  0  0  0
   -5.3070   19.0181  -35.1430 H   0  0  0  0  0  0  0  0  0  0  0  0
   -4.3324   18.4483  -33.7056 H   0  0  0  0  0  0  0  0  0  0  0  0
   -5.7150   16.8217  -35.8460 H   0  0  0  0  0  0  0  0  0  0  0  0
   -4.0107   16.7512  -35.2468 H   0  0  0  0  0  0  0  0  0  0  0  0
   -7.3223   15.9472  -34.8104 H   0  0  0  0  0  0  0  0  0  0  0  0
   -7.1142   15.0706  -33.2429 H   0  0  0  0  0  0  0  0  0  0  0  0
   -8.2543   17.4253  -33.2533 H   0  0  0  0  0  0  0  0  0  0  0  0
   -6.9807   17.0203  -32.0056 H   0  0  0  0  0  0  0  0  0  0  0  0
   -4.6119   20.2848  -32.5558 H   0  0  0  0  0  0  0  0  0  0  0  0
  1  2  1  0
  2  3  1  0
  3  4  2  0
  3  5  1  0
  5  6  1  0
  6  7  1  0
  7  8  1  0
  7  9  2  0
  6 10  2  0
 10 11  1  0
 11 12  2  0
 12 13  1  0
 13 14  2  0
 14 15  1  0
 15 16  1  0
 16 17  1  0
 17 18  1  0
 18 19  1  0
 19 20  1  0
 14 21  1  0
 21 22  2  0
 22  5  1  0
 22 11  1  0
 20 15  1  0
  1 23  1  0
  1 24  1  0
  1 25  1  0
  8 26  1  0
  8 27  1  0
 10 28  1  0
 12 29  1  0
 13 30  1  0
 16 31  1  0
 16 32  1  0
 17 33  1  0
 17 34  1  0
 19 35  1  0
 19 36  1  0
 20 37  1  0
 20 38  1  0
 21 39  1  0
M  END
>  <UniqueID>  (49) 
49

>  <SMILES>  (49) 
COC(=O)n1c(C(N)=O)cc2ccc(N3CCOCC3)cc21

>  <Energy>  (49) 
84.70393304829473

>  <Genealogy>  (49) 
COC(=O)n1c(C(N)=O)cc2ccc(N3CCOCC3)cc21 (3D coordinates assigned)
COC(=O)n1c(C(N)=O)cc2ccc(N3CCOCC3)cc21 (nonaromatic ring conformer: 84.70393304829473 kcal/mol)

>  <smiles>  (49) 
COC(=O)n1c(C(N)=O)cc2ccc(N3CCOCC3)cc21

>  <score_type>  (49) 
oracle

>  <origin>  (49) 
adg

>  <m_score__min__energy>  (49) 
-8.5600000000000005

>  <m_primary>  (49) 
energy

$$$$
49:0
     RDKit          3D

 40 42  0  0  0  0  0  0  0  0999 V2000
   -2.1060   20.2720  -33.8020 C   0  0  0  0  0  0  0  0  0  0  0  0
   -2.0460   20.9450  -32.4360 C   0  0  0  0  0  0  0  0  0  0  0  0
   -2.7050   22.2080  -32.4670 O   0  0  0  0  0  0  0  0  0  0  0  0
   -3.4020   22.7420  -31.3770 C   0  0  0  0  0  0  0  0  0  0  0  0
   -2.7810   23.1160  -30.3440 O   0  0  0  0  0  0  0  0  0  0  0  0
   -4.8330   22.8360  -31.4250 N   0  0  0  0  0  0  0  0  0  0  0  0
   -5.6210   23.8530  -30.9710 C   0  0  0  0  0  0  0  0  0  0  0  0
   -5.1490   25.1620  -30.4730 C   0  0  0  0  0  0  0  0  0  0  0  0
   -3.8690   25.6700  -30.8430 N   0  0  0  0  0  0  0  0  0  0  0  0
   -5.9050   25.8630  -29.7490 O   0  0  0  0  0  0  0  0  0  0  0  0
   -6.9680   23.5290  -31.1190 C   0  0  0  0  0  0  0  0  0  0  0  0
   -6.9830   22.2770  -31.6890 C   0  0  0  0  0  0  0  0  0  0  0  0
   -8.0570   21.4700  -32.0470 C   0  0  0  0  0  0  0  0  0  0  0  0
   -7.7780   20.2070  -32.5940 C   0  0  0  0  0  0  0  0  0  0  0  0
   -6.4390   19.7680  -32.7680 C   0  0  0  0  0  0  0  0  0  0  0  0
   -6.1570   18.4240  -33.3360 C   0  0  0  0  0  0  0  0  0  0  0  0
   -7.1160   17.4040  -33.2670 C   0  0  0  0  0  0  0  0  0  0  0  0
   -6.8320   16.1500  -33.8060 C   0  0  0  0  0  0  0  0  0  0  0  0
   -5.6300   15.9100  -34.3970 N   0  0  0  0  0  0  0  0  0  0  0  0
   -4.6680   16.8770  -34.4820 C   0  0  0  0  0  0  0  0  0  0  0  0
   -3.3700   16.5780  -35.1280 C   0  0  0  0  0  0  0  0  0  0  0  0
   -2.4250   17.4100  -35.0870 O   0  0  0  0  0  0  0  0  0  0  0  0
   -3.1790   15.3720  -35.7910 O   0  0  0  0  0  0  0  0  0  0  0  0
   -4.9230   18.1530  -33.9500 C   0  0  0  0  0  0  0  0  0  0  0  0
   -5.3750   20.6200  -32.3890 C   0  0  0  0  0  0  0  0  0  0  0  0
   -5.6830   21.8810  -31.8630 C   0  0  0  0  0  0  0  0  0  0  0  0
   -2.2030   19.1842  -33.6708 H   0  0  0  0  0  0  0  0  0  0  0  0
   -2.9738   20.6528  -34.3606 H   0  0  0  0  0  0  0  0  0  0  0  0
   -1.1846   20.4933  -34.3606 H   0  0  0  0  0  0  0  0  0  0  0  0
   -2.5378   20.2993  -31.6935 H   0  0  0  0  0  0  0  0  0  0  0  0
   -0.9915   21.1031  -32.1658 H   0  0  0  0  0  0  0  0  0  0  0  0
   -2.9950   25.2740  -30.4330 H   0  0  0  0  0  0  0  0  0  0  0  0
   -7.8359   24.1442  -30.8392 H   0  0  0  0  0  0  0  0  0  0  0  0
   -9.0935   21.8103  -31.9061 H   0  0  0  0  0  0  0  0  0  0  0  0
   -8.6078   19.5491  -32.8916 H   0  0  0  0  0  0  0  0  0  0  0  0
   -8.0889   17.5922  -32.7894 H   0  0  0  0  0  0  0  0  0  0  0  0
   -7.5845   15.3494  -33.7532 H   0  0  0  0  0  0  0  0  0  0  0  0
   -5.4560   14.9580  -34.7880 H   0  0  0  0  0  0  0  0  0  0  0  0
   -4.1563   18.9391  -34.0145 H   0  0  0  0  0  0  0  0  0  0  0  0
   -4.3292   20.2992  -32.5048 H   0  0  0  0  0  0  0  0  0  0  0  0
  1  2  1  0
  2  3  1  0
  3  4  1  0
  4  5  2  0
  4  6  1  0
  6  7  1  0
  7  8  1  0
  8  9  1  0
  8 10  2  0
  7 11  2  0
 11 12  1  0
 12 13  2  0
 13 14  1  0
 14 15  2  0
 15 16  1  0
 16 17  2  0
 17 18  1  0
 18 19  2  0
 19 20  1  0
 20 21  1  0
 21 22  2  0
 21 23  1  0
 20 24  2  0
 15 25  1  0
 25 26  2  0
 26  6  1  0
 26 12  1  0
 24 16  1  0
  1 27  1  0
  1 28  1  0
  1 29  1  0
  2 30  1  0
  2 31  1  0
  9 32  1  0
 11 33  1  0
 13 34  1  0
 14 35  1  0
 17 36  1  0
 18 37  1  0
 19 38  1  0
 24 39  1  0
 25 40  1  0
M  CHG  3   9  -1  19   1  23  -1
M  END
>  <UniqueID>  (50) 
50

>  <SMILES>  (50) 
CCOC(=O)n1c(C([NH-])=O)cc2ccc(-c3cc[nH+]c(C(=O)[O-])c3)cc21

>  <Energy>  (50) 
83.68152424828483

>  <Genealogy>  (50) 
CCOC(=O)n1c(C([NH-])=O)cc2ccc(-c3cc[nH+]c(C(=O)[O-])c3)cc21 (protonated)
CCOC(=O)n1c(C([NH-])=O)cc2ccc(-c3cc[nH+]c(C(=O)[O-])c3)cc21 (3D coordinates assigned)
CCOC(=O)n1c(C([NH-])=O)cc2ccc(-c3cc[nH+]c(C(=O)[O-])c3)cc21 (optimized conformer: 83.68152424828483 kcal/mol)

>  <smiles>  (50) 
CCOC(=O)n1c(C(N)=O)cc2ccc(-c3ccnc(C(=O)O)c3)cc21

>  <score_type>  (50) 
oracle

>  <origin>  (50) 
adg

>  <m_score__min__energy>  (50) 
-9.9299999999999997

>  <m_primary>  (50) 
energy

$$$$
50:0
     RDKit          3D

 35 37  0  0  0  0  0  0  0  0999 V2000
   -9.4850   20.4210  -32.0340 C   0  0  0  0  0  0  0  0  0  0  0  0
   -8.4320   19.3640  -32.0550 C   0  0  0  0  0  0  0  0  0  0  0  0
   -8.6650   18.2290  -31.5610 O   0  0  0  0  0  0  0  0  0  0  0  0
   -7.1480   19.6450  -32.6080 N   0  0  0  0  0  0  0  0  0  0  0  0
   -6.4650   20.7840  -33.2500 C   0  0  0  0  0  0  0  0  0  0  0  0
   -5.1500   20.0860  -33.4430 C   0  0  0  0  0  0  0  0  0  0  0  0
   -3.9950   20.6510  -32.6350 C   0  0  0  0  0  0  0  0  0  0  0  0
   -2.7810   19.9230  -32.5810 C   0  0  0  0  0  0  0  0  0  0  0  0
   -1.6880   20.3970  -31.8360 C   0  0  0  0  0  0  0  0  0  0  0  0
   -1.8330   21.6060  -31.1630 C   0  0  0  0  0  0  0  0  0  0  0  0
   -0.9480   22.2770  -30.3510 C   0  0  0  0  0  0  0  0  0  0  0  0
   -1.6230   23.4240  -29.9370 C   0  0  0  0  0  0  0  0  0  0  0  0
   -0.9990   24.4790  -29.1120 C   0  0  0  0  0  0  0  0  0  0  0  0
   -1.6130   25.7560  -28.9630 N   0  0  0  0  0  0  0  0  0  0  0  0
    0.1190   24.2660  -28.5690 O   0  0  0  0  0  0  0  0  0  0  0  0
   -2.8800   23.4560  -30.4650 N   0  0  0  0  0  0  0  0  0  0  0  0
   -3.9170   24.4180  -30.2170 C   0  0  0  0  0  0  0  0  0  0  0  0
   -4.8960   24.1230  -29.4820 O   0  0  0  0  0  0  0  0  0  0  0  0
   -3.8630   25.6750  -30.8040 O   0  0  0  0  0  0  0  0  0  0  0  0
   -2.9910   22.3360  -31.2150 C   0  0  0  0  0  0  0  0  0  0  0  0
   -4.1020   21.8780  -31.9330 C   0  0  0  0  0  0  0  0  0  0  0  0
   -5.8710   18.9360  -32.8050 C   0  0  0  0  0  0  0  0  0  0  0  0
   -9.7335   20.6704  -30.9919 H   0  0  0  0  0  0  0  0  0  0  0  0
   -9.1126   21.3198  -32.5473 H   0  0  0  0  0  0  0  0  0  0  0  0
  -10.3852   20.0520  -32.5473 H   0  0  0  0  0  0  0  0  0  0  0  0
   -6.9331   21.0800  -34.2004 H   0  0  0  0  0  0  0  0  0  0  0  0
   -6.4526   21.7372  -32.7012 H   0  0  0  0  0  0  0  0  0  0  0  0
   -4.6216   20.0237  -34.4057 H   0  0  0  0  0  0  0  0  0  0  0  0
   -2.6928   18.9737  -33.1297 H   0  0  0  0  0  0  0  0  0  0  0  0
   -0.7468   19.8298  -31.7864 H   0  0  0  0  0  0  0  0  0  0  0  0
    0.0751   21.9728  -30.0850 H   0  0  0  0  0  0  0  0  0  0  0  0
   -2.6500   25.8600  -29.0010 H   0  0  0  0  0  0  0  0  0  0  0  0
   -5.0370   22.4571  -31.9521 H   0  0  0  0  0  0  0  0  0  0  0  0
   -5.9653   18.0690  -33.4754 H   0  0  0  0  0  0  0  0  0  0  0  0
   -5.4063   18.4830  -31.9168 H   0  0  0  0  0  0  0  0  0  0  0  0
  1  2  1  0
  2  3  2  0
  2  4  1  0
  4  5  1  0
  5  6  1  0
  6  7  1  0
  7  8  2  0
  8  9  1  0
  9 10  2  0
 10 11  1  0
 11 12  2  0
 12 13  1  0
 13 14  1  0
 13 15  2  0
 12 16  1  0
 16 17  1  0
 17 18  2  0
 17 19  1  0
 16 20  1  0
 20 21  2  0
  6 22  1  0
 22  4  1  0
 21  7  1  0
 20 10  1  0
  1 23  1  0
  1 24  1  0
  1 25  1  0
  5 26  1  0
  5 27  1  0
  6 28  1  0
  8 29  1  0
  9 30  1  0
 11 31  1  0
 14 32  1  0
 21 33  1  0
 22 34  1  0
 22 35  1  0
M  CHG  2  14  -1  19  -1
M  END
>  <UniqueID>  (51) 
51

>  <SMILES>  (51) 
CC(=O)N1CC(c2ccc3cc(C([NH-])=O)n(C(=O)[O-])c3c2)C1

>  <Energy>  (51) 
120.79193195196504

>  <Genealogy>  (51) 
CC(=O)N1CC(c2ccc3cc(C([NH-])=O)n(C(=O)[O-])c3c2)C1 (protonated)
CC(=O)N1CC(c2ccc3cc(C([NH-])=O)n(C(=O)[O-])c3c2)C1 (3D coordinates assigned)
CC(=O)N1CC(c2ccc3cc(C([NH-])=O)n(C(=O)[O-])c3c2)C1 (nonaromatic ring conformer: 120.79193195196504 kcal/mol)

>  <smiles>  (51) 
CC(=O)N1CC(c2ccc3cc(C(N)=O)n(C(=O)O)c3c2)C1

>  <score_type>  (51) 
oracle

>  <origin>  (51) 
adg

>  <m_score__min__energy>  (51) 
-12.01

>  <m_primary>  (51) 
energy

$$$$
51:0
     RDKit          3D

 55 58  0  0  0  0  0  0  0  0999 V2000
   -4.3480   16.9590  -33.7710 C   0  0  0  0  0  0  0  0  0  0  0  0
   -5.6820   17.6930  -34.0100 C   0  0  1  0  0  0  0  0  0  0  0  0
   -6.0520   17.4300  -35.3440 O   0  0  0  0  0  0  0  0  0  0  0  0
   -6.7810   17.1480  -33.0610 C   0  0  0  0  0  0  0  0  0  0  0  0
   -6.5080   17.4340  -31.5660 C   0  0  1  0  0  0  0  0  0  0  0  0
   -5.7420   16.3990  -31.0030 O   0  0  0  0  0  0  0  0  0  0  0  0
   -5.7930   18.7810  -31.3290 C   0  0  0  0  0  0  0  0  0  0  0  0
   -5.9400   19.6770  -32.4800 N   0  0  0  0  0  0  0  0  0  0  0  0
   -6.1510   21.0830  -32.2640 C   0  0  0  0  0  0  0  0  0  0  0  0
   -6.9350   21.7100  -33.0270 O   0  0  0  0  0  0  0  0  0  0  0  0
   -5.4820   21.8030  -31.1530 C   0  0  0  0  0  0  0  0  0  0  0  0
   -4.1700   21.4690  -30.7820 C   0  0  0  0  0  0  0  0  0  0  0  0
   -3.5260   22.1570  -29.7500 C   0  0  0  0  0  0  0  0  0  0  0  0
   -4.1780   23.2000  -29.0690 C   0  0  0  0  0  0  0  0  0  0  0  0
   -3.4900   23.9330  -27.9780 C   0  0  0  0  0  0  0  0  0  0  0  0
   -4.2420   24.6190  -26.9870 C   0  0  0  0  0  0  0  0  0  0  0  0
   -3.6010   25.3120  -25.9470 C   0  0  0  0  0  0  0  0  0  0  0  0
   -2.2100   25.3060  -25.9200 C   0  0  0  0  0  0  0  0  0  0  0  0
   -1.3400   25.8700  -25.0140 C   0  0  0  0  0  0  0  0  0  0  0  0
   -0.0620   25.5290  -25.4630 C   0  0  0  0  0  0  0  0  0  0  0  0
    1.1990   25.9830  -24.8240 C   0  0  0  0  0  0  0  0  0  0  0  0
    2.2580   25.0610  -24.5530 N   0  0  0  0  0  0  0  0  0  0  0  0
    1.3480   27.1890  -24.4990 O   0  0  0  0  0  0  0  0  0  0  0  0
   -0.1470   24.7850  -26.6040 N   0  0  0  0  0  0  0  0  0  0  0  0
    0.9240   24.1990  -27.3590 C   0  0  0  0  0  0  0  0  0  0  0  0
    1.7890   23.2370  -26.7560 N   0  0  0  0  0  0  0  0  0  0  0  0
    1.0890   24.5160  -28.5670 O   0  0  0  0  0  0  0  0  0  0  0  0
   -1.4650   24.6610  -26.8710 C   0  0  0  0  0  0  0  0  0  0  0  0
   -2.0760   23.9540  -27.9130 C   0  0  0  0  0  0  0  0  0  0  0  0
   -5.4870   23.5400  -29.4460 C   0  0  0  0  0  0  0  0  0  0  0  0
   -6.1300   22.8540  -30.4810 C   0  0  0  0  0  0  0  0  0  0  0  0
   -5.5040   19.2280  -33.8110 C   0  0  0  0  0  0  0  0  0  0  0  0
   -4.1715   16.8619  -32.6896 H   0  0  0  0  0  0  0  0  0  0  0  0
   -4.3932   15.9587  -34.2264 H   0  0  0  0  0  0  0  0  0  0  0  0
   -3.5272   17.5325  -34.2264 H   0  0  0  0  0  0  0  0  0  0  0  0
   -6.5940   18.1970  -35.6740 H   0  0  0  0  0  0  0  0  0  0  0  0
   -7.7389   17.6144  -33.3347 H   0  0  0  0  0  0  0  0  0  0  0  0
   -6.7973   16.0548  -33.1818 H   0  0  0  0  0  0  0  0  0  0  0  0
   -7.4921   17.4915  -31.0779 H   0  0  0  0  0  0  0  0  0  0  0  0
   -6.0450   16.2910  -30.0630 H   0  0  0  0  0  0  0  0  0  0  0  0
   -6.2271   19.2648  -30.4416 H   0  0  0  0  0  0  0  0  0  0  0  0
   -4.7213   18.5817  -31.1814 H   0  0  0  0  0  0  0  0  0  0  0  0
   -3.6442   20.6587  -31.3082 H   0  0  0  0  0  0  0  0  0  0  0  0
   -2.4995   21.8799  -29.4679 H   0  0  0  0  0  0  0  0  0  0  0  0
   -5.3409   24.6073  -27.0348 H   0  0  0  0  0  0  0  0  0  0  0  0
   -4.1808   25.8430  -25.1777 H   0  0  0  0  0  0  0  0  0  0  0  0
   -1.5971   26.4638  -24.1244 H   0  0  0  0  0  0  0  0  0  0  0  0
    3.1530   25.4010  -24.1340 H   0  0  0  0  0  0  0  0  0  0  0  0
    2.1900   24.0510  -24.8050 H   0  0  0  0  0  0  0  0  0  0  0  0
    1.8780   22.2750  -27.1500 H   0  0  0  0  0  0  0  0  0  0  0  0
   -1.4708   23.4263  -28.6649 H   0  0  0  0  0  0  0  0  0  0  0  0
   -6.0113   24.3531  -28.9226 H   0  0  0  0  0  0  0  0  0  0  0  0
   -7.1518   23.1392  -30.7719 H   0  0  0  0  0  0  0  0  0  0  0  0
   -6.0981   19.7539  -34.5730 H   0  0  0  0  0  0  0  0  0  0  0  0
   -4.4320   19.4556  -33.9063 H   0  0  0  0  0  0  0  0  0  0  0  0
  1  2  1  0
  2  3  1  6
  2  4  1  0
  4  5  1  0
  5  6  1  0
  5  7  1  0
  7  8  1  0
  8  9  1  0
  9 10  2  0
  9 11  1  0
 11 12  2  0
 12 13  1  0
 13 14  2  0
 14 15  1  0
 15 16  2  0
 16 17  1  0
 17 18  2  0
 18 19  1  0
 19 20  2  0
 20 21  1  0
 21 22  1  0
 21 23  2  0
 20 24  1  0
 24 25  1  0
 25 26  1  0
 25 27  2  0
 24 28  1  0
 28 29  2  0
 14 30  1  0
 30 31  2  0
  8 32  1  0
 32  2  1  0
 31 11  1  0
 29 15  1  0
 28 18  1  0
  1 33  1  0
  1 34  1  0
  1 35  1  0
  3 36  1  0
  4 37  1  0
  4 38  1  0
  5 39  1  1
  6 40  1  0
  7 41  1  0
  7 42  1  0
 12 43  1  0
 13 44  1  0
 16 45  1  0
 17 46  1  0
 19 47  1  0
 22 48  1  0
 22 49  1  0
 26 50  1  0
 29 51  1  0
 30 52  1  0
 31 53  1  0
 32 54  1  0
 32 55  1  0
M  CHG  1  26  -1
M  END
>  <UniqueID>  (52) 
52

>  <SMILES>  (52) 
C[C@@]1(O)C[C@@H](O)CN(C(=O)c2ccc(-c3ccc4cc(C(N)=O)n(C([NH-])=O)c4c3)cc2)C1

>  <Energy>  (52) 
113.41294434743703

>  <Genealogy>  (52) 
C[C@@]1(O)C[C@@H](O)CN(C(=O)c2ccc(-c3ccc4cc(C(N)=O)n(C([NH-])=O)c4c3)cc2)C1 (protonated)
C[C@@]1(O)C[C@@H](O)CN(C(=O)c2ccc(-c3ccc4cc(C(N)=O)n(C([NH-])=O)c4c3)cc2)C1 (3D coordinates assigned)
C[C@@]1(O)C[C@@H](O)CN(C(=O)c2ccc(-c3ccc4cc(C(N)=O)n(C([NH-])=O)c4c3)cc2)C1 (nonaromatic ring conformer: 113.41294434743703 kcal/mol)

>  <smiles>  (52) 
C[C@@]1(O)C[C@@H](O)CN(C(=O)c2ccc(-c3ccc4cc(C(N)=O)n(C(N)=O)c4c3)cc2)C1

>  <score_type>  (52) 
oracle

>  <origin>  (52) 
adg

>  <m_score__min__energy>  (52) 
-9.5299999999999994

>  <m_primary>  (52) 
energy

$$$$
52:0
     RDKit          3D

 34 36  0  0  0  0  0  0  0  0999 V2000
   -1.9680   25.5960  -28.9670 N   0  0  0  0  0  0  0  0  0  0  0  0
   -1.1960   24.4280  -29.2370 C   0  0  0  0  0  0  0  0  0  0  0  0
   -0.0160   24.3550  -28.8020 O   0  0  0  0  0  0  0  0  0  0  0  0
   -1.7410   23.3290  -30.0620 C   0  0  0  0  0  0  0  0  0  0  0  0
   -0.9710   22.2610  -30.5190 C   0  0  0  0  0  0  0  0  0  0  0  0
   -1.8160   21.5130  -31.3070 C   0  0  0  0  0  0  0  0  0  0  0  0
   -1.5770   20.3370  -32.0110 C   0  0  0  0  0  0  0  0  0  0  0  0
   -2.6460   19.7660  -32.7210 C   0  0  0  0  0  0  0  0  0  0  0  0
   -3.9310   20.3600  -32.6980 C   0  0  0  0  0  0  0  0  0  0  0  0
   -4.9980   19.7540  -33.4480 N   0  0  0  0  0  0  0  0  0  0  0  0
   -6.3440   19.6000  -32.9630 C   0  0  0  0  0  0  0  0  0  0  0  0
   -7.1910   20.7090  -32.7910 C   0  0  0  0  0  0  0  0  0  0  0  0
   -8.4880   20.5360  -32.2940 C   0  0  0  0  0  0  0  0  0  0  0  0
   -8.9410   19.2600  -31.9510 C   0  0  0  0  0  0  0  0  0  0  0  0
   -8.0960   18.1560  -32.0960 C   0  0  0  0  0  0  0  0  0  0  0  0
   -6.8010   18.3250  -32.5930 C   0  0  0  0  0  0  0  0  0  0  0  0
   -4.1300   21.5680  -31.9880 C   0  0  0  0  0  0  0  0  0  0  0  0
   -3.0440   22.1250  -31.3040 C   0  0  0  0  0  0  0  0  0  0  0  0
   -3.0150   23.2420  -30.5430 N   0  0  0  0  0  0  0  0  0  0  0  0
   -4.1300   24.0940  -30.2390 C   0  0  0  0  0  0  0  0  0  0  0  0
   -4.1520   25.4420  -30.7010 N   0  0  0  0  0  0  0  0  0  0  0  0
   -5.1010   23.6490  -29.5700 O   0  0  0  0  0  0  0  0  0  0  0  0
   -2.9520   25.6770  -29.3050 H   0  0  0  0  0  0  0  0  0  0  0  0
    0.0872   22.0588  -30.2971 H   0  0  0  0  0  0  0  0  0  0  0  0
   -0.5816   19.8688  -32.0116 H   0  0  0  0  0  0  0  0  0  0  0  0
   -2.4829   18.8462  -33.3019 H   0  0  0  0  0  0  0  0  0  0  0  0
   -4.7820   19.4050  -34.4090 H   0  0  0  0  0  0  0  0  0  0  0  0
   -6.8329   21.7168  -33.0481 H   0  0  0  0  0  0  0  0  0  0  0  0
   -9.1510   21.4055  -32.1735 H   0  0  0  0  0  0  0  0  0  0  0  0
   -9.9627   19.1239  -31.5668 H   0  0  0  0  0  0  0  0  0  0  0  0
   -8.4510   17.1526  -31.8184 H   0  0  0  0  0  0  0  0  0  0  0  0
   -6.1361   17.4546  -32.6949 H   0  0  0  0  0  0  0  0  0  0  0  0
   -5.1151   22.0573  -31.9743 H   0  0  0  0  0  0  0  0  0  0  0  0
   -3.8640   26.2280  -30.0780 H   0  0  0  0  0  0  0  0  0  0  0  0
  1  2  1  0
  2  3  2  0
  2  4  1  0
  4  5  2  0
  5  6  1  0
  6  7  2  0
  7  8  1  0
  8  9  2  0
  9 10  1  0
 10 11  1  0
 11 12  2  0
 12 13  1  0
 13 14  2  0
 14 15  1  0
 15 16  2  0
  9 17  1  0
 17 18  2  0
 18 19  1  0
 19 20  1  0
 20 21  1  0
 20 22  2  0
 19  4  1  0
 18  6  1  0
 16 11  1  0
  1 23  1  0
  5 24  1  0
  7 25  1  0
  8 26  1  0
 10 27  1  0
 12 28  1  0
 13 29  1  0
 14 30  1  0
 15 31  1  0
 16 32  1  0
 17 33  1  0
 21 34  1  0
M  CHG  2   1  -1  21  -1
M  END
>  <UniqueID>  (53) 
53

>  <SMILES>  (53) 
[NH-]C(=O)c1cc2ccc(Nc3ccccc3)cc2n1C([NH-])=O

>  <Energy>  (53) 
81.43112703616589

>  <Genealogy>  (53) 
[NH-]C(=O)c1cc2ccc(Nc3ccccc3)cc2n1C([NH-])=O (protonated)
[NH-]C(=O)c1cc2ccc(Nc3ccccc3)cc2n1C([NH-])=O (3D coordinates assigned)
[NH-]C(=O)c1cc2ccc(Nc3ccccc3)cc2n1C([NH-])=O (optimized conformer: 81.43112703616589 kcal/mol)

>  <smiles>  (53) 
NC(=O)c1cc2ccc(Nc3ccccc3)cc2n1C(N)=O

>  <score_type>  (53) 
oracle

>  <origin>  (53) 
adg

>  <m_score__min__energy>  (53) 
-11.76

>  <m_primary>  (53) 
energy

$$$$
53:0
     RDKit          3D

 37 38  0  0  0  0  0  0  0  0999 V2000
   -3.0260   20.8840  -33.3220 C   0  0  0  0  0  0  0  0  0  0  0  0
   -3.5720   22.1900  -33.1780 O   0  0  0  0  0  0  0  0  0  0  0  0
   -3.8300   22.7650  -31.9290 C   0  0  0  0  0  0  0  0  0  0  0  0
   -2.8770   23.0720  -31.1610 O   0  0  0  0  0  0  0  0  0  0  0  0
   -5.1840   23.0290  -31.5330 N   0  0  0  0  0  0  0  0  0  0  0  0
   -5.6520   24.0950  -30.8240 C   0  0  0  0  0  0  0  0  0  0  0  0
   -4.8800   25.3010  -30.4610 C   0  0  0  0  0  0  0  0  0  0  0  0
   -3.5050   25.2120  -30.0990 N   0  0  0  0  0  0  0  0  0  0  0  0
   -5.4290   26.4340  -30.5200 O   0  0  0  0  0  0  0  0  0  0  0  0
   -7.0100   23.9430  -30.5490 C   0  0  0  0  0  0  0  0  0  0  0  0
   -7.3660   22.7430  -31.1230 C   0  0  0  0  0  0  0  0  0  0  0  0
   -8.5960   22.0930  -31.1470 C   0  0  0  0  0  0  0  0  0  0  0  0
   -8.6700   20.8480  -31.7920 C   0  0  0  0  0  0  0  0  0  0  0  0
   -7.5200   20.2760  -32.3930 C   0  0  0  0  0  0  0  0  0  0  0  0
   -7.6060   18.9380  -33.0800 C   0  0  0  0  0  0  0  0  0  0  0  0
   -6.8420   17.8910  -32.3130 C   0  0  0  0  0  0  0  0  0  0  0  0
   -7.2140   17.6110  -31.1410 O   0  0  0  0  0  0  0  0  0  0  0  0
   -5.6970   17.2210  -32.8790 N   0  0  0  0  0  0  0  0  0  0  0  0
   -5.2710   15.9130  -32.3680 C   0  0  0  0  0  0  0  0  0  0  0  0
   -5.0360   17.7780  -34.0350 C   0  0  0  0  0  0  0  0  0  0  0  0
   -3.8130   18.0740  -33.9900 O   0  0  0  0  0  0  0  0  0  0  0  0
   -5.7330   17.9770  -35.2220 O   0  0  0  0  0  0  0  0  0  0  0  0
   -6.2860   20.9620  -32.3410 C   0  0  0  0  0  0  0  0  0  0  0  0
   -6.2460   22.2110  -31.7090 C   0  0  0  0  0  0  0  0  0  0  0  0
   -2.8448   20.4506  -32.3273 H   0  0  0  0  0  0  0  0  0  0  0  0
   -3.7342   20.2494  -33.8750 H   0  0  0  0  0  0  0  0  0  0  0  0
   -2.0769   20.9423  -33.8750 H   0  0  0  0  0  0  0  0  0  0  0  0
   -2.7550   25.2490  -30.8240 H   0  0  0  0  0  0  0  0  0  0  0  0
   -7.6592   24.6345  -29.9919 H   0  0  0  0  0  0  0  0  0  0  0  0
   -9.4831   22.5407  -30.6752 H   0  0  0  0  0  0  0  0  0  0  0  0
   -9.6293   20.3112  -31.8315 H   0  0  0  0  0  0  0  0  0  0  0  0
   -8.6614   18.6356  -33.1491 H   0  0  0  0  0  0  0  0  0  0  0  0
   -7.1664   19.0292  -34.0842 H   0  0  0  0  0  0  0  0  0  0  0  0
   -5.2764   15.9296  -31.2681 H   0  0  0  0  0  0  0  0  0  0  0  0
   -5.9626   15.1363  -32.7264 H   0  0  0  0  0  0  0  0  0  0  0  0
   -4.2546   15.6926  -32.7264 H   0  0  0  0  0  0  0  0  0  0  0  0
   -5.3794   20.5259  -32.7858 H   0  0  0  0  0  0  0  0  0  0  0  0
  1  2  1  0
  2  3  1  0
  3  4  2  0
  3  5  1  0
  5  6  1  0
  6  7  1  0
  7  8  1  0
  7  9  2  0
  6 10  2  0
 10 11  1  0
 11 12  2  0
 12 13  1  0
 13 14  2  0
 14 15  1  0
 15 16  1  0
 16 17  2  0
 16 18  1  0
 18 19  1  0
 18 20  1  0
 20 21  2  0
 20 22  1  0
 14 23  1  0
 23 24  2  0
 24  5  1  0
 24 11  1  0
  1 25  1  0
  1 26  1  0
  1 27  1  0
  8 28  1  0
 10 29  1  0
 12 30  1  0
 13 31  1  0
 15 32  1  0
 15 33  1  0
 19 34  1  0
 19 35  1  0
 19 36  1  0
 23 37  1  0
M  CHG  2   8  -1  22  -1
M  END
>  <UniqueID>  (54) 
54

>  <SMILES>  (54) 
COC(=O)n1c(C([NH-])=O)cc2ccc(CC(=O)N(C)C(=O)[O-])cc21

>  <Energy>  (54) 
75.43304796020355

>  <Genealogy>  (54) 
COC(=O)n1c(C([NH-])=O)cc2ccc(CC(=O)N(C)C(=O)[O-])cc21 (protonated)
COC(=O)n1c(C([NH-])=O)cc2ccc(CC(=O)N(C)C(=O)[O-])cc21 (3D coordinates assigned)
COC(=O)n1c(C([NH-])=O)cc2ccc(CC(=O)N(C)C(=O)[O-])cc21 (optimized conformer: 75.43304796020355 kcal/mol)

>  <smiles>  (54) 
COC(=O)n1c(C(N)=O)cc2ccc(CC(=O)N(C)C(=O)O)cc21

>  <score_type>  (54) 
oracle

>  <origin>  (54) 
adg

>  <m_score__min__energy>  (54) 
-10.140000000000001

>  <m_primary>  (54) 
energy

$$$$
54:0
     RDKit          3D

 54 58  0  0  0  0  0  0  0  0999 V2000
    2.1690   23.2780  -35.7090 C   0  0  0  0  0  0  0  0  0  0  0  0
    1.1840   22.6050  -34.9340 O   0  0  0  0  0  0  0  0  0  0  0  0
    1.3690   21.3110  -34.4340 C   0  0  0  0  0  0  0  0  0  0  0  0
    2.5340   20.8860  -34.1990 O   0  0  0  0  0  0  0  0  0  0  0  0
    0.1970   20.4430  -34.1830 C   0  0  0  0  0  0  0  0  0  0  0  0
   -1.0710   20.7730  -34.7210 C   0  0  0  0  0  0  0  0  0  0  0  0
   -2.1750   19.9440  -34.4730 C   0  0  0  0  0  0  0  0  0  0  0  0
   -1.9850   18.8260  -33.7260 N   0  0  0  0  0  0  0  0  0  0  0  0
   -2.8200   17.8560  -33.2930 C   0  0  0  0  0  0  0  0  0  0  0  0
   -4.3270   17.8280  -33.4800 C   0  0  0  0  0  0  0  0  0  0  0  0
   -4.9490   19.1410  -33.0130 C   0  0  0  0  0  0  0  0  0  0  0  0
   -6.2570   19.5270  -33.4180 C   0  0  0  0  0  0  0  0  0  0  0  0
   -6.7860   20.7770  -33.0540 C   0  0  0  0  0  0  0  0  0  0  0  0
   -5.9850   21.6330  -32.3070 C   0  0  0  0  0  0  0  0  0  0  0  0
   -6.2320   22.9110  -31.8620 C   0  0  0  0  0  0  0  0  0  0  0  0
   -5.0680   23.3030  -31.2020 C   0  0  0  0  0  0  0  0  0  0  0  0
   -4.9320   24.5920  -30.4930 C   0  0  0  0  0  0  0  0  0  0  0  0
   -3.8660   25.4880  -30.8010 N   0  0  0  0  0  0  0  0  0  0  0  0
   -5.7360   24.8860  -29.5690 O   0  0  0  0  0  0  0  0  0  0  0  0
   -4.1360   22.3100  -31.2480 N   0  0  0  0  0  0  0  0  0  0  0  0
   -2.7810   22.3570  -30.7760 C   0  0  0  0  0  0  0  0  0  0  0  0
   -2.4340   23.2420  -29.9470 O   0  0  0  0  0  0  0  0  0  0  0  0
   -1.8570   21.4070  -31.2200 O   0  0  0  0  0  0  0  0  0  0  0  0
   -0.6950   21.0600  -30.4750 C   0  0  0  0  0  0  0  0  0  0  0  0
   -4.7160   21.2920  -31.9240 C   0  0  0  0  0  0  0  0  0  0  0  0
   -4.1560   20.0630  -32.2870 C   0  0  0  0  0  0  0  0  0  0  0  0
   -4.9990   16.5830  -32.8580 C   0  0  0  0  0  0  0  0  0  0  0  0
   -5.4310   16.1040  -34.2330 C   0  0  0  0  0  0  0  0  0  0  0  0
   -4.7780   17.3210  -34.8680 C   0  0  0  0  0  0  0  0  0  0  0  0
   -2.1410   17.0040  -32.4900 N   0  0  0  0  0  0  0  0  0  0  0  0
   -0.8730   17.3900  -32.4280 N   0  0  0  0  0  0  0  0  0  0  0  0
   -0.7980   18.4970  -33.1890 C   0  0  0  0  0  0  0  0  0  0  0  0
    0.3330   19.2800  -33.3950 C   0  0  0  0  0  0  0  0  0  0  0  0
    2.8894   23.7702  -35.0391 H   0  0  0  0  0  0  0  0  0  0  0  0
    2.6963   22.5505  -36.3436 H   0  0  0  0  0  0  0  0  0  0  0  0
    1.6829   24.0337  -36.3436 H   0  0  0  0  0  0  0  0  0  0  0  0
   -1.1900   21.6792  -35.3332 H   0  0  0  0  0  0  0  0  0  0  0  0
   -3.1689   20.1931  -34.8732 H   0  0  0  0  0  0  0  0  0  0  0  0
   -6.8626   18.8375  -34.0244 H   0  0  0  0  0  0  0  0  0  0  0  0
   -7.8039   21.0694  -33.3514 H   0  0  0  0  0  0  0  0  0  0  0  0
   -7.1519   23.4986  -31.9979 H   0  0  0  0  0  0  0  0  0  0  0  0
   -2.8900   25.2880  -30.4910 H   0  0  0  0  0  0  0  0  0  0  0  0
   -0.9158   21.1259  -29.3994 H   0  0  0  0  0  0  0  0  0  0  0  0
   -0.3926   20.0323  -30.7249 H   0  0  0  0  0  0  0  0  0  0  0  0
    0.1214   21.7535  -30.7249 H   0  0  0  0  0  0  0  0  0  0  0  0
   -3.1192   19.8170  -32.0138 H   0  0  0  0  0  0  0  0  0  0  0  0
   -4.2979   15.9050  -32.3494 H   0  0  0  0  0  0  0  0  0  0  0  0
   -5.7445   16.7024  -32.0580 H   0  0  0  0  0  0  0  0  0  0  0  0
   -4.9829   15.1459  -34.5352 H   0  0  0  0  0  0  0  0  0  0  0  0
   -6.4876   15.8731  -34.4336 H   0  0  0  0  0  0  0  0  0  0  0  0
   -3.9466   17.0784  -35.5462 H   0  0  0  0  0  0  0  0  0  0  0  0
   -5.3628   17.9767  -35.5299 H   0  0  0  0  0  0  0  0  0  0  0  0
   -2.5290   16.1960  -31.9550 H   0  0  0  0  0  0  0  0  0  0  0  0
    1.3031   19.0015  -32.9575 H   0  0  0  0  0  0  0  0  0  0  0  0
  1  2  1  0
  2  3  1  0
  3  4  2  0
  3  5  1  0
  5  6  1  0
  6  7  2  0
  7  8  1  0
  8  9  1  0
  9 10  1  0
 10 11  1  0
 11 12  2  0
 12 13  1  0
 13 14  2  0
 14 15  1  0
 15 16  2  0
 16 17  1  0
 17 18  1  0
 17 19  2  0
 16 20  1  0
 20 21  1  0
 21 22  2  0
 21 23  1  0
 23 24  1  0
 20 25  1  0
 25 26  2  0
 10 27  1  0
 27 28  1  0
 28 29  1  0
  9 30  2  0
 30 31  1  0
 31 32  2  0
 32 33  1  0
 33  5  2  0
 32  8  1  0
 29 10  1  0
 26 11  1  0
 25 14  1  0
  1 34  1  0
  1 35  1  0
  1 36  1  0
  6 37  1  0
  7 38  1  0
 12 39  1  0
 13 40  1  0
 15 41  1  0
 18 42  1  0
 24 43  1  0
 24 44  1  0
 24 45  1  0
 26 46  1  0
 27 47  1  0
 27 48  1  0
 28 49  1  0
 28 50  1  0
 29 51  1  0
 29 52  1  0
 30 53  1  0
 33 54  1  0
M  CHG  2  18  -1  30   1
M  END
>  <UniqueID>  (55) 
55

>  <SMILES>  (55) 
COC(=O)c1ccn2c(C3(c4ccc5cc(C([NH-])=O)n(C(=O)OC)c5c4)CCC3)[nH+]nc2c1

>  <Energy>  (55) 
200.60812957016333

>  <Genealogy>  (55) 
COC(=O)c1ccn2c(C3(c4ccc5cc(C([NH-])=O)n(C(=O)OC)c5c4)CCC3)[nH+]nc2c1 (protonated)
COC(=O)c1ccn2c(C3(c4ccc5cc(C([NH-])=O)n(C(=O)OC)c5c4)CCC3)[nH+]nc2c1 (3D coordinates assigned)
COC(=O)c1ccn2c(C3(c4ccc5cc(C([NH-])=O)n(C(=O)OC)c5c4)CCC3)[nH+]nc2c1 (nonaromatic ring conformer: 200.60812957016333 kcal/mol)

>  <smiles>  (55) 
COC(=O)c1ccn2c(C3(c4ccc5cc(C(N)=O)n(C(=O)OC)c5c4)CCC3)nnc2c1

>  <score_type>  (55) 
oracle

>  <origin>  (55) 
adg

>  <m_score__min__energy>  (55) 
-11.140000000000001

>  <m_primary>  (55) 
energy

$$$$
55:0
     RDKit          3D

 35 36  0  0  0  0  0  0  0  0999 V2000
   -3.8590   25.3320  -30.5910 N   0  0  0  0  0  0  0  0  0  0  0  0
   -5.2240   24.9230  -30.6460 C   0  0  0  0  0  0  0  0  0  0  0  0
   -6.1200   25.7160  -30.2520 O   0  0  0  0  0  0  0  0  0  0  0  0
   -5.5960   23.5720  -31.1150 C   0  0  0  0  0  0  0  0  0  0  0  0
   -6.9150   23.1540  -31.2850 C   0  0  0  0  0  0  0  0  0  0  0  0
   -6.8350   21.8340  -31.6640 C   0  0  0  0  0  0  0  0  0  0  0  0
   -7.8440   20.9280  -31.9820 C   0  0  0  0  0  0  0  0  0  0  0  0
   -7.4660   19.6330  -32.3780 C   0  0  0  0  0  0  0  0  0  0  0  0
   -6.1000   19.2790  -32.4540 C   0  0  0  0  0  0  0  0  0  0  0  0
   -5.7260   17.9540  -32.8740 C   0  0  0  0  0  0  0  0  0  0  0  0
   -5.4110   16.8450  -33.2250 C   0  0  0  0  0  0  0  0  0  0  0  0
   -5.0240   15.4830  -33.6570 C   0  0  0  0  0  0  0  0  0  0  0  0
   -6.1230   14.8630  -34.2830 O   0  0  0  0  0  0  0  0  0  0  0  0
   -4.6580   14.6540  -32.4050 C   0  0  0  0  0  0  0  0  0  0  0  0
   -5.0070   15.3370  -31.2530 F   0  0  0  0  0  0  0  0  0  0  0  0
   -3.2920   14.4260  -32.3750 F   0  0  0  0  0  0  0  0  0  0  0  0
   -5.3070   13.4300  -32.4110 F   0  0  0  0  0  0  0  0  0  0  0  0
   -3.8350   15.5730  -34.6470 C   0  0  0  0  0  0  0  0  0  0  0  0
   -3.5370   14.3290  -35.1770 F   0  0  0  0  0  0  0  0  0  0  0  0
   -2.7060   16.0490  -33.9990 F   0  0  0  0  0  0  0  0  0  0  0  0
   -4.1360   16.4400  -35.6840 F   0  0  0  0  0  0  0  0  0  0  0  0
   -5.1010   20.2180  -32.1270 C   0  0  0  0  0  0  0  0  0  0  0  0
   -5.5070   21.4930  -31.7160 C   0  0  0  0  0  0  0  0  0  0  0  0
   -4.7350   22.5500  -31.3810 N   0  0  0  0  0  0  0  0  0  0  0  0
   -3.3000   22.5900  -31.3950 C   0  0  0  0  0  0  0  0  0  0  0  0
   -2.5810   23.1570  -30.3000 N   0  0  0  0  0  0  0  0  0  0  0  0
   -2.6660   22.1160  -32.3760 O   0  0  0  0  0  0  0  0  0  0  0  0
   -3.4870   26.0500  -31.2500 H   0  0  0  0  0  0  0  0  0  0  0  0
   -7.8270   23.7530  -31.1456 H   0  0  0  0  0  0  0  0  0  0  0  0
   -8.9039   21.2168  -31.9251 H   0  0  0  0  0  0  0  0  0  0  0  0
   -8.2380   18.8911  -32.6301 H   0  0  0  0  0  0  0  0  0  0  0  0
   -5.7770   14.1730  -34.9110 H   0  0  0  0  0  0  0  0  0  0  0  0
   -4.0345   19.9568  -32.1928 H   0  0  0  0  0  0  0  0  0  0  0  0
   -1.5380   23.1580  -30.2970 H   0  0  0  0  0  0  0  0  0  0  0  0
   -3.0910   23.6120  -29.5100 H   0  0  0  0  0  0  0  0  0  0  0  0
  1  2  1  0
  2  3  2  0
  2  4  1  0
  4  5  2  0
  5  6  1  0
  6  7  2  0
  7  8  1  0
  8  9  2  0
  9 10  1  0
 10 11  3  0
 11 12  1  0
 12 13  1  0
 12 14  1  0
 14 15  1  0
 14 16  1  0
 14 17  1  0
 12 18  1  0
 18 19  1  0
 18 20  1  0
 18 21  1  0
  9 22  1  0
 22 23  2  0
 23 24  1  0
 24 25  1  0
 25 26  1  0
 25 27  2  0
 24  4  1  0
 23  6  1  0
  1 28  1  0
  5 29  1  0
  7 30  1  0
  8 31  1  0
 13 32  1  0
 22 33  1  0
 26 34  1  0
 26 35  1  0
M  CHG  1   1  -1
M  END
>  <UniqueID>  (56) 
56

>  <SMILES>  (56) 
[NH-]C(=O)c1cc2ccc(C#CC(O)(C(F)(F)F)C(F)(F)F)cc2n1C(N)=O

>  <Energy>  (56) 
70.22022796783565

>  <Genealogy>  (56) 
[NH-]C(=O)c1cc2ccc(C#CC(O)(C(F)(F)F)C(F)(F)F)cc2n1C(N)=O (protonated)
[NH-]C(=O)c1cc2ccc(C#CC(O)(C(F)(F)F)C(F)(F)F)cc2n1C(N)=O (3D coordinates assigned)
[NH-]C(=O)c1cc2ccc(C#CC(O)(C(F)(F)F)C(F)(F)F)cc2n1C(N)=O (optimized conformer: 70.22022796783565 kcal/mol)

>  <smiles>  (56) 
NC(=O)c1cc2ccc(C#CC(O)(C(F)(F)F)C(F)(F)F)cc2n1C(N)=O

>  <score_type>  (56) 
oracle

>  <origin>  (56) 
adg

>  <m_score__min__energy>  (56) 
-9.1799999999999997

>  <m_primary>  (56) 
energy

$$$$
56:0
     RDKit          3D

 39 40  0  0  0  0  0  0  0  0999 V2000
   -5.4680   19.1520  -34.1460 C   0  0  0  0  0  0  0  0  0  0  0  0
   -5.7550   20.1100  -32.9740 C   0  0  1  0  0  0  0  0  0  0  0  0
   -6.8830   19.6110  -32.0130 C   0  0  0  0  0  0  0  0  0  0  0  0
   -8.2940   19.6360  -32.4890 N   0  0  0  0  0  0  0  0  0  0  0  0
   -8.9590   20.9430  -32.3260 C   0  0  0  0  0  0  0  0  0  0  0  0
   -9.1280   18.5440  -31.9640 C   0  0  0  0  0  0  0  0  0  0  0  0
   -4.5180   20.6520  -32.2760 C   0  0  0  0  0  0  0  0  0  0  0  0
   -3.3180   19.8940  -32.3360 C   0  0  0  0  0  0  0  0  0  0  0  0
   -2.1360   20.3610  -31.7420 C   0  0  0  0  0  0  0  0  0  0  0  0
   -2.1770   21.5840  -31.0830 C   0  0  0  0  0  0  0  0  0  0  0  0
   -1.1730   22.2820  -30.4520 C   0  0  0  0  0  0  0  0  0  0  0  0
   -1.7730   23.4490  -29.9840 C   0  0  0  0  0  0  0  0  0  0  0  0
   -1.0610   24.4550  -29.1680 C   0  0  0  0  0  0  0  0  0  0  0  0
   -1.6060   25.7570  -28.9690 N   0  0  0  0  0  0  0  0  0  0  0  0
    0.0190   24.1440  -28.5980 O   0  0  0  0  0  0  0  0  0  0  0  0
   -3.0940   23.4750  -30.3200 N   0  0  0  0  0  0  0  0  0  0  0  0
   -4.0370   24.5370  -30.1030 C   0  0  0  0  0  0  0  0  0  0  0  0
   -3.8980   25.6420  -30.6890 O   0  0  0  0  0  0  0  0  0  0  0  0
   -5.1270   24.3450  -29.2620 O   0  0  0  0  0  0  0  0  0  0  0  0
   -3.3260   22.3240  -30.9900 C   0  0  0  0  0  0  0  0  0  0  0  0
   -4.5150   21.8930  -31.5880 C   0  0  0  0  0  0  0  0  0  0  0  0
   -5.1733   18.1683  -33.7517 H   0  0  0  0  0  0  0  0  0  0  0  0
   -6.3733   19.0441  -34.7615 H   0  0  0  0  0  0  0  0  0  0  0  0
   -4.6525   19.5596  -34.7615 H   0  0  0  0  0  0  0  0  0  0  0  0
   -6.1811   21.0039  -33.4528 H   0  0  0  0  0  0  0  0  0  0  0  0
   -6.6481   18.5684  -31.7526 H   0  0  0  0  0  0  0  0  0  0  0  0
   -6.8683   20.3364  -31.1862 H   0  0  0  0  0  0  0  0  0  0  0  0
   -8.2370   19.4780  -33.5240 H   0  0  0  0  0  0  0  0  0  0  0  0
   -9.0723   21.1657  -31.2548 H   0  0  0  0  0  0  0  0  0  0  0  0
   -8.3497   21.7261  -32.8009 H   0  0  0  0  0  0  0  0  0  0  0  0
   -9.9507   20.9116  -32.8009 H   0  0  0  0  0  0  0  0  0  0  0  0
   -9.1112   18.5660  -30.8643 H   0  0  0  0  0  0  0  0  0  0  0  0
  -10.1620   18.6698  -32.3175 H   0  0  0  0  0  0  0  0  0  0  0  0
   -8.7344   17.5796  -32.3175 H   0  0  0  0  0  0  0  0  0  0  0  0
   -3.3156   18.9251  -32.8567 H   0  0  0  0  0  0  0  0  0  0  0  0
   -1.2053   19.7772  -31.7961 H   0  0  0  0  0  0  0  0  0  0  0  0
   -0.1205   21.9823  -30.3407 H   0  0  0  0  0  0  0  0  0  0  0  0
   -2.6380   25.9110  -28.9560 H   0  0  0  0  0  0  0  0  0  0  0  0
   -5.4282   22.5032  -31.5262 H   0  0  0  0  0  0  0  0  0  0  0  0
  1  2  1  0
  2  3  1  0
  3  4  1  0
  4  5  1  0
  4  6  1  0
  2  7  1  0
  7  8  2  0
  8  9  1  0
  9 10  2  0
 10 11  1  0
 11 12  2  0
 12 13  1  0
 13 14  1  0
 13 15  2  0
 12 16  1  0
 16 17  1  0
 17 18  2  0
 17 19  1  0
 16 20  1  0
 20 21  2  0
 21  7  1  0
 20 10  1  0
  1 22  1  0
  1 23  1  0
  1 24  1  0
  2 25  1  6
  3 26  1  0
  3 27  1  0
  4 28  1  0
  5 29  1  0
  5 30  1  0
  5 31  1  0
  6 32  1  0
  6 33  1  0
  6 34  1  0
  8 35  1  0
  9 36  1  0
 11 37  1  0
 14 38  1  0
 21 39  1  0
M  CHG  3   4   1  14  -1  19  -1
M  END
>  <UniqueID>  (57) 
57

>  <SMILES>  (57) 
C[C@@H](C[NH+](C)C)c1ccc2cc(C([NH-])=O)n(C(=O)[O-])c2c1

>  <Energy>  (57) 
88.81601230908892

>  <Genealogy>  (57) 
CC(C[NH+](C)C)c1ccc2cc(C([NH-])=O)n(C(=O)[O-])c2c1 (protonated)
C[C@@H](C[NH+](C)C)c1ccc2cc(C([NH-])=O)n(C(=O)[O-])c2c1 (chirality)
C[C@@H](C[NH+](C)C)c1ccc2cc(C([NH-])=O)n(C(=O)[O-])c2c1 (3D coordinates assigned)
C[C@@H](C[NH+](C)C)c1ccc2cc(C([NH-])=O)n(C(=O)[O-])c2c1 (optimized conformer: 88.81601230908892 kcal/mol)

>  <smiles>  (57) 
CC(CN(C)C)c1ccc2cc(C(N)=O)n(C(=O)O)c2c1

>  <score_type>  (57) 
oracle

>  <origin>  (57) 
adg

>  <m_score__min__energy>  (57) 
-10.91

>  <m_primary>  (57) 
energy

$$$$
57:0
     RDKit          3D

 33 35  0  0  0  0  0  0  0  0999 V2000
   -1.6320   25.7380  -28.9660 N   0  0  0  0  0  0  0  0  0  0  0  0
   -1.0720   24.4390  -29.1340 C   0  0  0  0  0  0  0  0  0  0  0  0
    0.0450   24.1760  -28.6150 O   0  0  0  0  0  0  0  0  0  0  0  0
   -1.7540   23.4180  -29.9560 C   0  0  0  0  0  0  0  0  0  0  0  0
   -1.1480   22.2270  -30.3550 C   0  0  0  0  0  0  0  0  0  0  0  0
   -2.0670   21.6060  -31.1700 C   0  0  0  0  0  0  0  0  0  0  0  0
   -1.9950   20.3820  -31.8290 C   0  0  0  0  0  0  0  0  0  0  0  0
   -3.1110   19.9700  -32.5750 C   0  0  0  0  0  0  0  0  0  0  0  0
   -4.2680   20.7830  -32.6520 C   0  0  0  0  0  0  0  0  0  0  0  0
   -5.4760   20.3070  -33.4110 C   0  0  0  0  0  0  0  0  0  0  0  0
   -6.7280   20.7000  -32.6850 C   0  0  0  0  0  0  0  0  0  0  0  0
   -7.5230   19.7330  -32.0520 C   0  0  0  0  0  0  0  0  0  0  0  0
   -8.6620   20.1350  -31.3520 C   0  0  0  0  0  0  0  0  0  0  0  0
   -8.9930   21.4900  -31.2820 C   0  0  0  0  0  0  0  0  0  0  0  0
   -8.1730   22.4270  -31.9160 C   0  0  0  0  0  0  0  0  0  0  0  0
   -7.0670   22.0160  -32.5930 N   0  0  0  0  0  0  0  0  0  0  0  0
   -4.3090   22.0150  -31.9610 C   0  0  0  0  0  0  0  0  0  0  0  0
   -3.1770   22.4090  -31.2390 C   0  0  0  0  0  0  0  0  0  0  0  0
   -3.0020   23.5240  -30.4950 N   0  0  0  0  0  0  0  0  0  0  0  0
   -3.9800   24.5470  -30.2480 C   0  0  0  0  0  0  0  0  0  0  0  0
   -3.8800   25.6700  -30.8080 O   0  0  0  0  0  0  0  0  0  0  0  0
   -5.0610   24.2980  -29.4110 O   0  0  0  0  0  0  0  0  0  0  0  0
   -2.6650   25.8840  -28.9850 H   0  0  0  0  0  0  0  0  0  0  0  0
   -0.1483   21.8616  -30.0774 H   0  0  0  0  0  0  0  0  0  0  0  0
   -1.0919   19.7569  -31.7673 H   0  0  0  0  0  0  0  0  0  0  0  0
   -3.0863   19.0063  -33.1048 H   0  0  0  0  0  0  0  0  0  0  0  0
   -5.4785   20.7611  -34.4129 H   0  0  0  0  0  0  0  0  0  0  0  0
   -5.4385   19.2110  -33.4972 H   0  0  0  0  0  0  0  0  0  0  0  0
   -7.2516   18.6684  -32.1067 H   0  0  0  0  0  0  0  0  0  0  0  0
   -9.2974   19.3861  -30.8566 H   0  0  0  0  0  0  0  0  0  0  0  0
   -9.8893   21.8159  -30.7339 H   0  0  0  0  0  0  0  0  0  0  0  0
   -8.4219   23.4974  -31.8677 H   0  0  0  0  0  0  0  0  0  0  0  0
   -5.2080   22.6482  -31.9900 H   0  0  0  0  0  0  0  0  0  0  0  0
  1  2  1  0
  2  3  2  0
  2  4  1  0
  4  5  2  0
  5  6  1  0
  6  7  2  0
  7  8  1  0
  8  9  2  0
  9 10  1  0
 10 11  1  0
 11 12  2  0
 12 13  1  0
 13 14  2  0
 14 15  1  0
 15 16  2  0
  9 17  1  0
 17 18  2  0
 18 19  1  0
 19 20  1  0
 20 21  2  0
 20 22  1  0
 19  4  1  0
 18  6  1  0
 16 11  1  0
  1 23  1  0
  5 24  1  0
  7 25  1  0
  8 26  1  0
 10 27  1  0
 10 28  1  0
 12 29  1  0
 13 30  1  0
 14 31  1  0
 15 32  1  0
 17 33  1  0
M  CHG  2   1  -1  22  -1
M  END
>  <UniqueID>  (58) 
58

>  <SMILES>  (58) 
[NH-]C(=O)c1cc2ccc(Cc3ccccn3)cc2n1C(=O)[O-]

>  <Energy>  (58) 
74.67293395840119

>  <Genealogy>  (58) 
[NH-]C(=O)c1cc2ccc(Cc3ccccn3)cc2n1C(=O)[O-] (protonated)
[NH-]C(=O)c1cc2ccc(Cc3ccccn3)cc2n1C(=O)[O-] (3D coordinates assigned)
[NH-]C(=O)c1cc2ccc(Cc3ccccn3)cc2n1C(=O)[O-] (optimized conformer: 74.67293395840119 kcal/mol)

>  <smiles>  (58) 
NC(=O)c1cc2ccc(Cc3ccccn3)cc2n1C(=O)O

>  <score_type>  (58) 
oracle

>  <origin>  (58) 
adg

>  <m_score__min__energy>  (58) 
-12

>  <m_primary>  (58) 
energy

$$$$
58:0
     RDKit          3D

 57 60  0  0  0  0  0  0  0  0999 V2000
   -3.8830   24.1580  -27.5950 C   0  0  0  0  0  0  0  0  0  0  0  0
   -3.5500   24.5320  -28.9260 O   0  0  0  0  0  0  0  0  0  0  0  0
   -4.5170   24.9070  -29.8670 C   0  0  0  0  0  0  0  0  0  0  0  0
   -4.2080   25.6290  -30.8550 O   0  0  0  0  0  0  0  0  0  0  0  0
   -5.9310   24.4460  -29.6990 C   0  0  0  0  0  0  0  0  0  0  0  0
   -6.6340   24.2690  -31.0500 C   0  0  0  0  0  0  0  0  0  0  0  0
   -6.2990   22.9450  -31.6900 C   0  0  0  0  0  0  0  0  0  0  0  0
   -7.2910   21.9680  -31.8590 C   0  0  0  0  0  0  0  0  0  0  0  0
   -6.9770   20.7350  -32.4380 C   0  0  0  0  0  0  0  0  0  0  0  0
   -5.6660   20.4620  -32.8690 C   0  0  0  0  0  0  0  0  0  0  0  0
   -5.3190   19.1350  -33.4360 C   0  0  0  0  0  0  0  0  0  0  0  0
   -6.3440   18.2150  -33.7780 C   0  0  0  0  0  0  0  0  0  0  0  0
   -6.0310   16.9450  -34.2890 C   0  0  0  0  0  0  0  0  0  0  0  0
   -4.6890   16.6170  -34.4430 C   0  0  0  0  0  0  0  0  0  0  0  0
   -4.1130   15.4640  -34.9270 C   0  0  0  0  0  0  0  0  0  0  0  0
   -2.7390   15.6860  -34.8610 C   0  0  0  0  0  0  0  0  0  0  0  0
   -1.7330   14.6630  -35.2140 C   0  0  0  0  0  0  0  0  0  0  0  0
   -0.5250   14.5210  -34.4650 N   0  0  0  0  0  0  0  0  0  0  0  0
   -1.9720   13.8620  -36.1580 O   0  0  0  0  0  0  0  0  0  0  0  0
   -2.4760   16.9320  -34.3750 N   0  0  0  0  0  0  0  0  0  0  0  0
   -1.1940   17.5690  -34.2630 C   0  0  0  0  0  0  0  0  0  0  0  0
   -0.3780   17.1830  -33.3830 O   0  0  0  0  0  0  0  0  0  0  0  0
   -0.8540   18.6110  -35.1310 O   0  0  0  0  0  0  0  0  0  0  0  0
    0.4850   19.0540  -35.3320 C   0  0  0  0  0  0  0  0  0  0  0  0
    0.5200   20.5480  -35.4030 C   0  0  0  0  0  0  0  0  0  0  0  0
    1.1750   21.2240  -36.3210 O   0  0  0  0  0  0  0  0  0  0  0  0
    0.9580   22.4930  -36.0630 C   0  0  0  0  0  0  0  0  0  0  0  0
    1.4410   23.4370  -36.7420 O   0  0  0  0  0  0  0  0  0  0  0  0
    0.1860   22.6690  -35.0160 O   0  0  0  0  0  0  0  0  0  0  0  0
   -0.1070   21.4660  -34.5750 C   0  0  0  0  0  0  0  0  0  0  0  0
   -0.9910   21.1900  -33.4040 C   0  0  0  0  0  0  0  0  0  0  0  0
   -3.6810   17.4860  -34.1140 C   0  0  0  0  0  0  0  0  0  0  0  0
   -3.9650   18.7660  -33.6200 C   0  0  0  0  0  0  0  0  0  0  0  0
   -4.6820   21.4560  -32.7260 C   0  0  0  0  0  0  0  0  0  0  0  0
   -4.9970   22.6870  -32.1440 C   0  0  0  0  0  0  0  0  0  0  0  0
   -3.3234   24.7865  -26.8866 H   0  0  0  0  0  0  0  0  0  0  0  0
   -4.9624   24.2963  -27.4344 H   0  0  0  0  0  0  0  0  0  0  0  0
   -3.6208   23.1018  -27.4344 H   0  0  0  0  0  0  0  0  0  0  0  0
   -5.9312   23.4826  -29.1681 H   0  0  0  0  0  0  0  0  0  0  0  0
   -6.4756   25.2115  -29.1267 H   0  0  0  0  0  0  0  0  0  0  0  0
   -7.7216   24.3237  -30.8946 H   0  0  0  0  0  0  0  0  0  0  0  0
   -6.2882   25.0689  -31.7212 H   0  0  0  0  0  0  0  0  0  0  0  0
   -8.3217   22.1731  -31.5342 H   0  0  0  0  0  0  0  0  0  0  0  0
   -7.7608   19.9726  -32.5575 H   0  0  0  0  0  0  0  0  0  0  0  0
   -7.3974   18.5005  -33.6410 H   0  0  0  0  0  0  0  0  0  0  0  0
   -6.8235   16.2316  -34.5591 H   0  0  0  0  0  0  0  0  0  0  0  0
   -4.6272   14.5612  -35.2883 H   0  0  0  0  0  0  0  0  0  0  0  0
   -0.3790   15.0370  -33.5710 H   0  0  0  0  0  0  0  0  0  0  0  0
    0.1980   13.8270  -34.7630 H   0  0  0  0  0  0  0  0  0  0  0  0
    1.1117   18.7136  -34.4946 H   0  0  0  0  0  0  0  0  0  0  0  0
    0.8675   18.6368  -36.2752 H   0  0  0  0  0  0  0  0  0  0  0  0
   -0.4316   21.3646  -32.4731 H   0  0  0  0  0  0  0  0  0  0  0  0
   -1.8640   21.8583  -33.4381 H   0  0  0  0  0  0  0  0  0  0  0  0
   -1.3287   20.1437  -33.4381 H   0  0  0  0  0  0  0  0  0  0  0  0
   -3.1534   19.4688  -33.3804 H   0  0  0  0  0  0  0  0  0  0  0  0
   -3.6567   21.2634  -33.0748 H   0  0  0  0  0  0  0  0  0  0  0  0
   -4.2193   23.4582  -32.0413 H   0  0  0  0  0  0  0  0  0  0  0  0
  1  2  1  0
  2  3  1  0
  3  4  2  0
  3  5  1  0
  5  6  1  0
  6  7  1  0
  7  8  2  0
  8  9  1  0
  9 10  2  0
 10 11  1  0
 11 12  2  0
 12 13  1  0
 13 14  2  0
 14 15  1  0
 15 16  2  0
 16 17  1  0
 17 18  1  0
 17 19  2  0
 16 20  1  0
 20 21  1  0
 21 22  2  0
 21 23  1  0
 23 24  1  0
 24 25  1  0
 25 26  1  0
 26 27  1  0
 27 28  2  0
 27 29  1  0
 29 30  1  0
 30 31  1  0
 20 32  1  0
 32 33  2  0
 10 34  1  0
 34 35  2  0
 35  7  1  0
 33 11  1  0
 32 14  1  0
 30 25  2  0
  1 36  1  0
  1 37  1  0
  1 38  1  0
  5 39  1  0
  5 40  1  0
  6 41  1  0
  6 42  1  0
  8 43  1  0
  9 44  1  0
 12 45  1  0
 13 46  1  0
 15 47  1  0
 18 48  1  0
 18 49  1  0
 24 50  1  0
 24 51  1  0
 31 52  1  0
 31 53  1  0
 31 54  1  0
 33 55  1  0
 34 56  1  0
 35 57  1  0
M  END
>  <UniqueID>  (59) 
59

>  <SMILES>  (59) 
COC(=O)CCc1ccc(-c2ccc3cc(C(N)=O)n(C(=O)OCc4oc(=O)oc4C)c3c2)cc1

>  <Energy>  (59) 
129.2695038355527

>  <Genealogy>  (59) 
COC(=O)CCc1ccc(-c2ccc3cc(C(N)=O)n(C(=O)OCc4oc(=O)oc4C)c3c2)cc1 (3D coordinates assigned)
COC(=O)CCc1ccc(-c2ccc3cc(C(N)=O)n(C(=O)OCc4oc(=O)oc4C)c3c2)cc1 (optimized conformer: 129.2695038355527 kcal/mol)

>  <smiles>  (59) 
COC(=O)CCc1ccc(-c2ccc3cc(C(N)=O)n(C(=O)OCc4oc(=O)oc4C)c3c2)cc1

>  <score_type>  (59) 
oracle

>  <origin>  (59) 
adg

>  <m_score__min__energy>  (59) 
-10.210000000000001

>  <m_primary>  (59) 
energy

$$$$
59:0
     RDKit          3D

 45 46  0  0  0  0  0  0  0  0999 V2000
   -2.4590   22.4290  -28.8940 C   0  0  0  0  0  0  0  0  0  0  0  0
   -2.9310   23.8850  -29.0720 C   0  0  0  0  0  0  0  0  0  0  0  0
   -1.7900   24.8710  -28.7530 C   0  0  0  0  0  0  0  0  0  0  0  0
   -4.1000   24.1490  -28.1110 C   0  0  0  0  0  0  0  0  0  0  0  0
   -3.4230   24.0970  -30.4020 O   0  0  0  0  0  0  0  0  0  0  0  0
   -3.9460   23.1200  -31.2620 C   0  0  0  0  0  0  0  0  0  0  0  0
   -3.1870   22.4140  -31.9800 O   0  0  0  0  0  0  0  0  0  0  0  0
   -5.3670   22.9210  -31.3210 N   0  0  0  0  0  0  0  0  0  0  0  0
   -6.3470   23.8170  -31.0160 C   0  0  0  0  0  0  0  0  0  0  0  0
   -6.1440   25.1460  -30.4040 C   0  0  0  0  0  0  0  0  0  0  0  0
   -5.0960   26.0110  -30.8430 N   0  0  0  0  0  0  0  0  0  0  0  0
   -6.8740   25.5010  -29.4420 O   0  0  0  0  0  0  0  0  0  0  0  0
   -7.6020   23.2910  -31.3100 C   0  0  0  0  0  0  0  0  0  0  0  0
   -7.3590   22.0280  -31.7990 C   0  0  0  0  0  0  0  0  0  0  0  0
   -8.2470   21.0600  -32.2500 C   0  0  0  0  0  0  0  0  0  0  0  0
   -7.7200   19.8490  -32.7300 C   0  0  0  0  0  0  0  0  0  0  0  0
   -6.3120   19.6260  -32.7810 C   0  0  0  0  0  0  0  0  0  0  0  0
   -5.7040   18.3050  -33.2770 C   0  0  0  0  0  0  0  0  0  0  0  0
   -6.1110   17.9410  -34.7200 C   0  0  0  0  0  0  0  0  0  0  0  0
   -6.1330   17.1660  -32.3370 C   0  0  0  0  0  0  0  0  0  0  0  0
   -4.2290   18.4090  -33.2550 C   0  0  0  0  0  0  0  0  0  0  0  0
   -3.0740   18.4900  -33.2370 N   0  0  0  0  0  0  0  0  0  0  0  0
   -5.4500   20.6450  -32.2950 C   0  0  0  0  0  0  0  0  0  0  0  0
   -6.0060   21.8290  -31.7990 C   0  0  0  0  0  0  0  0  0  0  0  0
   -2.3836   22.1965  -27.8215 H   0  0  0  0  0  0  0  0  0  0  0  0
   -3.1826   21.7486  -29.3667 H   0  0  0  0  0  0  0  0  0  0  0  0
   -1.4738   22.3025  -29.3667 H   0  0  0  0  0  0  0  0  0  0  0  0
   -1.6810   24.9652  -27.6625 H   0  0  0  0  0  0  0  0  0  0  0  0
   -0.8501   24.4962  -29.1844 H   0  0  0  0  0  0  0  0  0  0  0  0
   -2.0246   25.8553  -29.1844 H   0  0  0  0  0  0  0  0  0  0  0  0
   -3.7462   24.0691  -27.0725 H   0  0  0  0  0  0  0  0  0  0  0  0
   -4.4976   25.1596  -28.2862 H   0  0  0  0  0  0  0  0  0  0  0  0
   -4.8933   23.4074  -28.2862 H   0  0  0  0  0  0  0  0  0  0  0  0
   -4.9950   26.9640  -30.4280 H   0  0  0  0  0  0  0  0  0  0  0  0
   -4.3670   25.6810  -31.5150 H   0  0  0  0  0  0  0  0  0  0  0  0
   -8.5785   23.7802  -31.1794 H   0  0  0  0  0  0  0  0  0  0  0  0
   -9.3326   21.2364  -32.2320 H   0  0  0  0  0  0  0  0  0  0  0  0
   -8.4051   19.0594  -33.0723 H   0  0  0  0  0  0  0  0  0  0  0  0
   -6.9307   17.2079  -34.6959 H   0  0  0  0  0  0  0  0  0  0  0  0
   -6.4450   18.8473  -35.2465 H   0  0  0  0  0  0  0  0  0  0  0  0
   -5.2475   17.5083  -35.2465 H   0  0  0  0  0  0  0  0  0  0  0  0
   -6.0118   17.4877  -31.2921 H   0  0  0  0  0  0  0  0  0  0  0  0
   -7.1875   16.9144  -32.5233 H   0  0  0  0  0  0  0  0  0  0  0  0
   -5.5065   16.2812  -32.5233 H   0  0  0  0  0  0  0  0  0  0  0  0
   -4.3590   20.5049  -32.3085 H   0  0  0  0  0  0  0  0  0  0  0  0
  1  2  1  0
  2  3  1  0
  2  4  1  0
  2  5  1  0
  5  6  1  0
  6  7  2  0
  6  8  1  0
  8  9  1  0
  9 10  1  0
 10 11  1  0
 10 12  2  0
  9 13  2  0
 13 14  1  0
 14 15  2  0
 15 16  1  0
 16 17  2  0
 17 18  1  0
 18 19  1  0
 18 20  1  0
 18 21  1  0
 21 22  3  0
 17 23  1  0
 23 24  2  0
 24  8  1  0
 24 14  1  0
  1 25  1  0
  1 26  1  0
  1 27  1  0
  3 28  1  0
  3 29  1  0
  3 30  1  0
  4 31  1  0
  4 32  1  0
  4 33  1  0
 11 34  1  0
 11 35  1  0
 13 36  1  0
 15 37  1  0
 16 38  1  0
 19 39  1  0
 19 40  1  0
 19 41  1  0
 20 42  1  0
 20 43  1  0
 20 44  1  0
 23 45  1  0
M  END
>  <UniqueID>  (60) 
60

>  <SMILES>  (60) 
CC(C)(C)OC(=O)n1c(C(N)=O)cc2ccc(C(C)(C)C#N)cc21

>  <Energy>  (60) 
79.60975775925057

>  <Genealogy>  (60) 
CC(C)(C)OC(=O)n1c(C(N)=O)cc2ccc(C(C)(C)C#N)cc21 (3D coordinates assigned)
CC(C)(C)OC(=O)n1c(C(N)=O)cc2ccc(C(C)(C)C#N)cc21 (optimized conformer: 79.60975775925057 kcal/mol)

>  <smiles>  (60) 
CC(C)(C)OC(=O)n1c(C(N)=O)cc2ccc(C(C)(C)C#N)cc21

>  <score_type>  (60) 
oracle

>  <origin>  (60) 
adg

>  <m_score__min__energy>  (60) 
-9.3100000000000005

>  <m_primary>  (60) 
energy

$$$$
60:0
     RDKit          3D

 51 53  0  0  0  0  0  0  0  0999 V2000
   -2.1940   20.0250  -31.5430 C   0  0  0  0  0  0  0  0  0  0  0  0
   -2.7630   20.8980  -32.6730 C   0  0  0  0  0  0  0  0  0  0  0  0
   -1.6020   21.3840  -33.5650 C   0  0  0  0  0  0  0  0  0  0  0  0
   -3.7660   20.0530  -33.4900 C   0  0  0  0  0  0  0  0  0  0  0  0
   -3.4180   22.0130  -32.0500 O   0  0  0  0  0  0  0  0  0  0  0  0
   -4.2620   21.9750  -30.9250 C   0  0  0  0  0  0  0  0  0  0  0  0
   -3.8100   21.6050  -29.8060 O   0  0  0  0  0  0  0  0  0  0  0  0
   -5.6480   22.3560  -31.0570 N   0  0  0  0  0  0  0  0  0  0  0  0
   -6.1770   23.5960  -30.8380 C   0  0  0  0  0  0  0  0  0  0  0  0
   -5.4690   24.7480  -30.2530 C   0  0  0  0  0  0  0  0  0  0  0  0
   -5.8960   25.3130  -29.0140 N   0  0  0  0  0  0  0  0  0  0  0  0
   -4.5370   25.2970  -30.9010 O   0  0  0  0  0  0  0  0  0  0  0  0
   -7.5280   23.6310  -31.1600 C   0  0  0  0  0  0  0  0  0  0  0  0
   -7.8350   22.3560  -31.5660 C   0  0  0  0  0  0  0  0  0  0  0  0
   -9.0580   21.8260  -31.9650 C   0  0  0  0  0  0  0  0  0  0  0  0
   -9.1040   20.4710  -32.3210 C   0  0  0  0  0  0  0  0  0  0  0  0
   -7.9330   19.6770  -32.2860 C   0  0  0  0  0  0  0  0  0  0  0  0
   -8.0060   18.2100  -32.6310 C   0  0  0  0  0  0  0  0  0  0  0  0
   -6.8140   17.4280  -32.0560 C   0  0  0  0  0  0  0  0  0  0  0  0
   -5.7450   17.1790  -33.0930 C   0  0  0  0  0  0  0  0  0  0  0  0
   -5.8750   17.7050  -34.3900 C   0  0  0  0  0  0  0  0  0  0  0  0
   -4.8830   17.4710  -35.3470 C   0  0  0  0  0  0  0  0  0  0  0  0
   -3.7630   16.7020  -35.0220 C   0  0  0  0  0  0  0  0  0  0  0  0
   -3.6320   16.1630  -33.7400 C   0  0  0  0  0  0  0  0  0  0  0  0
   -4.6200   16.3980  -32.7780 C   0  0  0  0  0  0  0  0  0  0  0  0
   -6.7070   20.2450  -31.8710 C   0  0  0  0  0  0  0  0  0  0  0  0
   -6.6880   21.6010  -31.5020 C   0  0  0  0  0  0  0  0  0  0  0  0
   -2.4746   20.4555  -30.5704 H   0  0  0  0  0  0  0  0  0  0  0  0
   -2.6026   19.0070  -31.6250 H   0  0  0  0  0  0  0  0  0  0  0  0
   -1.0977   19.9878  -31.6250 H   0  0  0  0  0  0  0  0  0  0  0  0
   -0.7729   21.7311  -32.9309 H   0  0  0  0  0  0  0  0  0  0  0  0
   -1.2558   20.5553  -34.2001 H   0  0  0  0  0  0  0  0  0  0  0  0
   -1.9494   22.2122  -34.2001 H   0  0  0  0  0  0  0  0  0  0  0  0
   -4.4234   19.4992  -32.8036 H   0  0  0  0  0  0  0  0  0  0  0  0
   -4.3730   20.7160  -34.1240 H   0  0  0  0  0  0  0  0  0  0  0  0
   -3.2157   19.3423  -34.1240 H   0  0  0  0  0  0  0  0  0  0  0  0
   -5.3870   26.1300  -28.6050 H   0  0  0  0  0  0  0  0  0  0  0  0
   -6.7460   24.9490  -28.5190 H   0  0  0  0  0  0  0  0  0  0  0  0
   -8.2063   24.4951  -31.1021 H   0  0  0  0  0  0  0  0  0  0  0  0
   -9.9620   22.4517  -32.0000 H   0  0  0  0  0  0  0  0  0  0  0  0
  -10.0588   20.0208  -32.6303 H   0  0  0  0  0  0  0  0  0  0  0  0
   -8.9371   17.7934  -32.2192 H   0  0  0  0  0  0  0  0  0  0  0  0
   -7.9807   18.1149  -33.7266 H   0  0  0  0  0  0  0  0  0  0  0  0
   -6.3772   18.0054  -31.2278 H   0  0  0  0  0  0  0  0  0  0  0  0
   -7.1844   16.4517  -31.7100 H   0  0  0  0  0  0  0  0  0  0  0  0
   -6.7602   18.3027  -34.6529 H   0  0  0  0  0  0  0  0  0  0  0  0
   -4.9846   17.8932  -36.3577 H   0  0  0  0  0  0  0  0  0  0  0  0
   -2.9833   16.5207  -35.7765 H   0  0  0  0  0  0  0  0  0  0  0  0
   -2.7518   15.5537  -33.4869 H   0  0  0  0  0  0  0  0  0  0  0  0
   -4.5158   15.9695  -31.7703 H   0  0  0  0  0  0  0  0  0  0  0  0
   -5.7891   19.6398  -31.8376 H   0  0  0  0  0  0  0  0  0  0  0  0
  1  2  1  0
  2  3  1  0
  2  4  1  0
  2  5  1  0
  5  6  1  0
  6  7  2  0
  6  8  1  0
  8  9  1  0
  9 10  1  0
 10 11  1  0
 10 12  2  0
  9 13  2  0
 13 14  1  0
 14 15  2  0
 15 16  1  0
 16 17  2  0
 17 18  1  0
 18 19  1  0
 19 20  1  0
 20 21  2  0
 21 22  1  0
 22 23  2  0
 23 24  1  0
 24 25  2  0
 17 26  1  0
 26 27  2  0
 27  8  1  0
 27 14  1  0
 25 20  1  0
  1 28  1  0
  1 29  1  0
  1 30  1  0
  3 31  1  0
  3 32  1  0
  3 33  1  0
  4 34  1  0
  4 35  1  0
  4 36  1  0
 11 37  1  0
 11 38  1  0
 13 39  1  0
 15 40  1  0
 16 41  1  0
 18 42  1  0
 18 43  1  0
 19 44  1  0
 19 45  1  0
 21 46  1  0
 22 47  1  0
 23 48  1  0
 24 49  1  0
 25 50  1  0
 26 51  1  0
M  END
>  <UniqueID>  (61) 
61

>  <SMILES>  (61) 
CC(C)(C)OC(=O)n1c(C(N)=O)cc2ccc(CCc3ccccc3)cc21

>  <Energy>  (61) 
84.68743150977082

>  <Genealogy>  (61) 
CC(C)(C)OC(=O)n1c(C(N)=O)cc2ccc(CCc3ccccc3)cc21 (3D coordinates assigned)
CC(C)(C)OC(=O)n1c(C(N)=O)cc2ccc(CCc3ccccc3)cc21 (optimized conformer: 84.68743150977082 kcal/mol)

>  <smiles>  (61) 
CC(C)(C)OC(=O)n1c(C(N)=O)cc2ccc(CCc3ccccc3)cc21

>  <score_type>  (61) 
oracle

>  <origin>  (61) 
adg

>  <m_score__min__energy>  (61) 
-9.9199999999999999

>  <m_primary>  (61) 
energy

$$$$
61:0
     RDKit          3D

 42 44  0  0  0  0  0  0  0  0999 V2000
   -5.1300   23.6830  -29.2930 C   0  0  0  0  0  0  0  0  0  0  0  0
   -3.8830   24.1530  -29.9720 C   0  0  0  0  0  0  0  0  0  0  0  0
   -3.8630   25.3000  -30.4950 O   0  0  0  0  0  0  0  0  0  0  0  0
   -2.7320   23.2990  -30.0800 N   0  0  0  0  0  0  0  0  0  0  0  0
   -1.4990   23.4770  -29.5260 C   0  0  0  0  0  0  0  0  0  0  0  0
   -1.0500   24.6900  -28.8080 C   0  0  0  0  0  0  0  0  0  0  0  0
   -1.9920   25.6660  -28.3600 N   0  0  0  0  0  0  0  0  0  0  0  0
    0.1740   24.8600  -28.5610 O   0  0  0  0  0  0  0  0  0  0  0  0
   -0.6750   22.3910  -29.8160 C   0  0  0  0  0  0  0  0  0  0  0  0
   -1.4470   21.5400  -30.5750 C   0  0  0  0  0  0  0  0  0  0  0  0
   -1.1340   20.3050  -31.1350 C   0  0  0  0  0  0  0  0  0  0  0  0
   -2.1350   19.6380  -31.8610 C   0  0  0  0  0  0  0  0  0  0  0  0
   -3.4270   20.2080  -32.0110 C   0  0  0  0  0  0  0  0  0  0  0  0
   -4.4800   19.4900  -32.7730 C   0  0  0  0  0  0  0  0  0  0  0  0
   -4.1390   18.6900  -33.8790 C   0  0  0  0  0  0  0  0  0  0  0  0
   -5.1280   18.0080  -34.5890 C   0  0  0  0  0  0  0  0  0  0  0  0
   -6.4670   18.1160  -34.2100 C   0  0  0  0  0  0  0  0  0  0  0  0
   -6.8330   18.9210  -33.1180 C   0  0  0  0  0  0  0  0  0  0  0  0
   -8.2810   19.0250  -32.6800 C   0  0  1  0  0  0  0  0  0  0  0  0
   -8.5740   18.0520  -31.7100 O   0  0  0  0  0  0  0  0  0  0  0  0
   -8.5830   20.4160  -32.1140 C   0  0  0  0  0  0  0  0  0  0  0  0
   -7.7890   21.3720  -32.7230 F   0  0  0  0  0  0  0  0  0  0  0  0
   -9.9140   20.7350  -32.3180 F   0  0  0  0  0  0  0  0  0  0  0  0
   -8.3290   20.4280  -30.7540 F   0  0  0  0  0  0  0  0  0  0  0  0
   -5.8310   19.5960  -32.3990 C   0  0  0  0  0  0  0  0  0  0  0  0
   -3.7010   21.4670  -31.4280 C   0  0  0  0  0  0  0  0  0  0  0  0
   -2.6810   22.1130  -30.7220 C   0  0  0  0  0  0  0  0  0  0  0  0
   -4.9951   23.7338  -28.2025 H   0  0  0  0  0  0  0  0  0  0  0  0
   -5.9728   24.3252  -29.5886 H   0  0  0  0  0  0  0  0  0  0  0  0
   -5.3392   22.6443  -29.5886 H   0  0  0  0  0  0  0  0  0  0  0  0
   -1.6660   26.4990  -27.8210 H   0  0  0  0  0  0  0  0  0  0  0  0
   -3.0060   25.5910  -28.5950 H   0  0  0  0  0  0  0  0  0  0  0  0
    0.3699   22.2448  -29.5048 H   0  0  0  0  0  0  0  0  0  0  0  0
   -0.1335   19.8645  -31.0129 H   0  0  0  0  0  0  0  0  0  0  0  0
   -1.9152   18.6623  -32.3189 H   0  0  0  0  0  0  0  0  0  0  0  0
   -3.0864   18.6016  -34.1859 H   0  0  0  0  0  0  0  0  0  0  0  0
   -4.8513   17.3828  -35.4507 H   0  0  0  0  0  0  0  0  0  0  0  0
   -7.2398   17.5681  -34.7691 H   0  0  0  0  0  0  0  0  0  0  0  0
   -8.9116   18.8564  -33.5654 H   0  0  0  0  0  0  0  0  0  0  0  0
   -9.0950   18.5060  -30.9970 H   0  0  0  0  0  0  0  0  0  0  0  0
   -6.1077   20.2150  -31.5328 H   0  0  0  0  0  0  0  0  0  0  0  0
   -4.6947   21.9281  -31.5276 H   0  0  0  0  0  0  0  0  0  0  0  0
  1  2  1  0
  2  3  2  0
  2  4  1  0
  4  5  1  0
  5  6  1  0
  6  7  1  0
  6  8  2  0
  5  9  2  0
  9 10  1  0
 10 11  2  0
 11 12  1  0
 12 13  2  0
 13 14  1  0
 14 15  2  0
 15 16  1  0
 16 17  2  0
 17 18  1  0
 18 19  1  0
 19 20  1  0
 19 21  1  0
 21 22  1  0
 21 23  1  0
 21 24  1  0
 18 25  2  0
 13 26  1  0
 26 27  2  0
 27  4  1  0
 27 10  1  0
 25 14  1  0
  1 28  1  0
  1 29  1  0
  1 30  1  0
  7 31  1  0
  7 32  1  0
  9 33  1  0
 11 34  1  0
 12 35  1  0
 15 36  1  0
 16 37  1  0
 17 38  1  0
 19 39  1  6
 20 40  1  0
 25 41  1  0
 26 42  1  0
M  END
>  <UniqueID>  (62) 
62

>  <SMILES>  (62) 
CC(=O)n1c(C(N)=O)cc2ccc(-c3cccc([C@@H](O)C(F)(F)F)c3)cc21

>  <Energy>  (62) 
86.79345421635963

>  <Genealogy>  (62) 
CC(=O)n1c(C(N)=O)cc2ccc(-c3cccc([C@@H](O)C(F)(F)F)c3)cc21 (chirality)
CC(=O)n1c(C(N)=O)cc2ccc(-c3cccc([C@@H](O)C(F)(F)F)c3)cc21 (3D coordinates assigned)
CC(=O)n1c(C(N)=O)cc2ccc(-c3cccc([C@@H](O)C(F)(F)F)c3)cc21 (optimized conformer: 86.79345421635963 kcal/mol)

>  <smiles>  (62) 
CC(=O)n1c(C(N)=O)cc2ccc(-c3cccc(C(O)C(F)(F)F)c3)cc21

>  <score_type>  (62) 
oracle

>  <origin>  (62) 
adg

>  <m_score__min__energy>  (62) 
-8.8800000000000008

>  <m_primary>  (62) 
energy

$$$$
62:0
     RDKit          3D

 35 36  0  0  0  0  0  0  0  0999 V2000
   -4.1740   18.9640  -33.8860 C   0  0  0  0  0  0  0  0  0  0  0  0
   -5.3940   18.4130  -34.6050 C   0  0  0  0  0  0  0  0  0  0  0  0
   -6.0570   17.4720  -33.7670 O   0  0  0  0  0  0  0  0  0  0  0  0
   -6.6660   17.8340  -32.5630 C   0  0  0  0  0  0  0  0  0  0  0  0
   -6.1050   17.5950  -31.4590 O   0  0  0  0  0  0  0  0  0  0  0  0
   -8.0200   18.4660  -32.5860 C   0  0  0  0  0  0  0  0  0  0  0  0
   -7.9210   19.9050  -32.1630 C   0  0  0  0  0  0  0  0  0  0  0  0
   -9.0770   20.5980  -31.7230 C   0  0  0  0  0  0  0  0  0  0  0  0
   -8.9920   21.9350  -31.3010 C   0  0  0  0  0  0  0  0  0  0  0  0
   -7.7410   22.5440  -31.3140 C   0  0  0  0  0  0  0  0  0  0  0  0
   -7.3760   23.8270  -30.9720 C   0  0  0  0  0  0  0  0  0  0  0  0
   -5.9990   23.8870  -31.1770 C   0  0  0  0  0  0  0  0  0  0  0  0
   -5.1760   25.0670  -30.8410 C   0  0  0  0  0  0  0  0  0  0  0  0
   -3.7560   24.9720  -30.7630 N   0  0  0  0  0  0  0  0  0  0  0  0
   -5.7360   26.1640  -30.5770 O   0  0  0  0  0  0  0  0  0  0  0  0
   -5.5330   22.6920  -31.6380 N   0  0  0  0  0  0  0  0  0  0  0  0
   -4.1960   22.3630  -32.0470 C   0  0  0  0  0  0  0  0  0  0  0  0
   -3.8570   22.3060  -33.4320 N   0  0  0  0  0  0  0  0  0  0  0  0
   -3.3230   22.0890  -31.1810 O   0  0  0  0  0  0  0  0  0  0  0  0
   -6.6100   21.8800  -31.7120 C   0  0  0  0  0  0  0  0  0  0  0  0
   -6.6660   20.5540  -32.1520 C   0  0  0  0  0  0  0  0  0  0  0  0
   -4.3268   18.8950  -32.7989 H   0  0  0  0  0  0  0  0  0  0  0  0
   -3.2863   18.3794  -34.1693 H   0  0  0  0  0  0  0  0  0  0  0  0
   -4.0257   20.0165  -34.1693 H   0  0  0  0  0  0  0  0  0  0  0  0
   -6.0812   19.2377  -34.8448 H   0  0  0  0  0  0  0  0  0  0  0  0
   -5.0775   17.9160  -35.5338 H   0  0  0  0  0  0  0  0  0  0  0  0
   -8.4298   18.4130  -33.6054 H   0  0  0  0  0  0  0  0  0  0  0  0
   -8.6818   17.9291  -31.8904 H   0  0  0  0  0  0  0  0  0  0  0  0
  -10.0494   20.0839  -31.7120 H   0  0  0  0  0  0  0  0  0  0  0  0
   -9.8864   22.4835  -30.9706 H   0  0  0  0  0  0  0  0  0  0  0  0
   -8.0323   24.6335  -30.6131 H   0  0  0  0  0  0  0  0  0  0  0  0
   -3.1440   25.6830  -31.2220 H   0  0  0  0  0  0  0  0  0  0  0  0
   -4.5860   22.4560  -34.1640 H   0  0  0  0  0  0  0  0  0  0  0  0
   -2.8820   22.0800  -33.7280 H   0  0  0  0  0  0  0  0  0  0  0  0
   -5.7567   20.0297  -32.4810 H   0  0  0  0  0  0  0  0  0  0  0  0
  1  2  1  0
  2  3  1  0
  3  4  1  0
  4  5  2  0
  4  6  1  0
  6  7  1  0
  7  8  2  0
  8  9  1  0
  9 10  2  0
 10 11  1  0
 11 12  2  0
 12 13  1  0
 13 14  1  0
 13 15  2  0
 12 16  1  0
 16 17  1  0
 17 18  1  0
 17 19  2  0
 16 20  1  0
 20 21  2  0
 21  7  1  0
 20 10  1  0
  1 22  1  0
  1 23  1  0
  1 24  1  0
  2 25  1  0
  2 26  1  0
  6 27  1  0
  6 28  1  0
  8 29  1  0
  9 30  1  0
 11 31  1  0
 14 32  1  0
 18 33  1  0
 18 34  1  0
 21 35  1  0
M  CHG  1  14  -1
M  END
>  <UniqueID>  (63) 
63

>  <SMILES>  (63) 
CCOC(=O)Cc1ccc2cc(C([NH-])=O)n(C(N)=O)c2c1

>  <Energy>  (63) 
66.57953194408503

>  <Genealogy>  (63) 
CCOC(=O)Cc1ccc2cc(C([NH-])=O)n(C(N)=O)c2c1 (protonated)
CCOC(=O)Cc1ccc2cc(C([NH-])=O)n(C(N)=O)c2c1 (3D coordinates assigned)
CCOC(=O)Cc1ccc2cc(C([NH-])=O)n(C(N)=O)c2c1 (optimized conformer: 66.57953194408503 kcal/mol)

>  <smiles>  (63) 
CCOC(=O)Cc1ccc2cc(C(N)=O)n(C(N)=O)c2c1

>  <score_type>  (63) 
oracle

>  <origin>  (63) 
adg

>  <m_score__min__energy>  (63) 
-10.26

>  <m_primary>  (63) 
energy

$$$$
63:0
     RDKit          3D

 27 28  0  0  0  0  0  0  0  0999 V2000
   -6.7130   20.5690  -32.6970 C   0  0  0  0  0  0  0  0  0  0  0  0
   -5.4060   20.1250  -33.3450 C   0  0  0  0  0  0  0  0  0  0  0  0
   -4.2250   20.6070  -32.5460 C   0  0  0  0  0  0  0  0  0  0  0  0
   -3.0370   19.8350  -32.4990 C   0  0  0  0  0  0  0  0  0  0  0  0
   -1.9220   20.2830  -31.7740 C   0  0  0  0  0  0  0  0  0  0  0  0
   -2.0170   21.5100  -31.1220 C   0  0  0  0  0  0  0  0  0  0  0  0
   -1.0990   22.1670  -30.3370 C   0  0  0  0  0  0  0  0  0  0  0  0
   -1.7260   23.3480  -29.9440 C   0  0  0  0  0  0  0  0  0  0  0  0
   -1.0540   24.4000  -29.1540 C   0  0  0  0  0  0  0  0  0  0  0  0
   -1.6620   25.6750  -28.9630 N   0  0  0  0  0  0  0  0  0  0  0  0
    0.0960   24.1870  -28.6840 O   0  0  0  0  0  0  0  0  0  0  0  0
   -2.9870   23.4150  -30.4600 N   0  0  0  0  0  0  0  0  0  0  0  0
   -3.9840   24.4190  -30.2130 C   0  0  0  0  0  0  0  0  0  0  0  0
   -4.9450   24.1840  -29.4350 O   0  0  0  0  0  0  0  0  0  0  0  0
   -3.8820   25.6700  -30.8100 O   0  0  0  0  0  0  0  0  0  0  0  0
   -3.1480   22.2820  -31.1810 C   0  0  0  0  0  0  0  0  0  0  0  0
   -4.2820   21.8520  -31.8810 C   0  0  0  0  0  0  0  0  0  0  0  0
   -6.6100   20.5340  -31.6024 H   0  0  0  0  0  0  0  0  0  0  0  0
   -6.9470   21.5971  -33.0106 H   0  0  0  0  0  0  0  0  0  0  0  0
   -7.5248   19.8962  -33.0106 H   0  0  0  0  0  0  0  0  0  0  0  0
   -5.3833   19.0264  -33.3960 H   0  0  0  0  0  0  0  0  0  0  0  0
   -5.3484   20.5554  -34.3557 H   0  0  0  0  0  0  0  0  0  0  0  0
   -2.9886   18.8760  -33.0357 H   0  0  0  0  0  0  0  0  0  0  0  0
   -1.0012   19.6834  -31.7223 H   0  0  0  0  0  0  0  0  0  0  0  0
   -0.0847   21.8316  -30.0748 H   0  0  0  0  0  0  0  0  0  0  0  0
   -2.6990   25.7860  -28.9980 H   0  0  0  0  0  0  0  0  0  0  0  0
   -5.1932   22.4675  -31.9122 H   0  0  0  0  0  0  0  0  0  0  0  0
  1  2  1  0
  2  3  1  0
  3  4  2  0
  4  5  1  0
  5  6  2  0
  6  7  1  0
  7  8  2  0
  8  9  1  0
  9 10  1  0
  9 11  2  0
  8 12  1  0
 12 13  1  0
 13 14  2  0
 13 15  1  0
 12 16  1  0
 16 17  2  0
 17  3  1  0
 16  6  1  0
  1 18  1  0
  1 19  1  0
  1 20  1  0
  2 21  1  0
  2 22  1  0
  4 23  1  0
  5 24  1  0
  7 25  1  0
 10 26  1  0
 17 27  1  0
M  CHG  2  10  -1  15  -1
M  END
>  <UniqueID>  (64) 
64

>  <SMILES>  (64) 
CCc1ccc2cc(C([NH-])=O)n(C(=O)[O-])c2c1

>  <Energy>  (64) 
63.98979709097629

>  <Genealogy>  (64) 
CCc1ccc2cc(C([NH-])=O)n(C(=O)[O-])c2c1 (protonated)
CCc1ccc2cc(C([NH-])=O)n(C(=O)[O-])c2c1 (3D coordinates assigned)
CCc1ccc2cc(C([NH-])=O)n(C(=O)[O-])c2c1 (optimized conformer: 63.98979709097629 kcal/mol)

>  <smiles>  (64) 
CCc1ccc2cc(C(N)=O)n(C(=O)O)c2c1

>  <score_type>  (64) 
oracle

>  <origin>  (64) 
adg

>  <m_score__min__energy>  (64) 
-10.06

>  <m_primary>  (64) 
energy

$$$$
64:0
     RDKit          3D

 49 51  0  0  0  0  0  0  0  0999 V2000
   -2.2950   14.8490  -32.5490 H   0  0  0  0  0  0  0  0  0  0  0  0
   -3.2310   15.2570  -32.7680 N   0  0  0  0  0  0  0  0  0  0  0  0
   -3.4390   15.9460  -33.8460 C   0  0  0  0  0  0  0  0  0  0  0  0
   -2.3720   16.1530  -34.7780 N   0  0  0  0  0  0  0  0  0  0  0  0
   -2.5240   16.6990  -35.6550 H   0  0  0  0  0  0  0  0  0  0  0  0
   -1.4210   15.7610  -34.5980 H   0  0  0  0  0  0  0  0  0  0  0  0
   -4.8160   16.5040  -34.1160 C   0  0  1  0  0  0  0  0  0  0  0  0
   -5.2731   15.9390  -34.9417 H   0  0  0  0  0  0  0  0  0  0  0  0
   -5.7650   16.3030  -32.9000 C   0  0  0  0  0  0  0  0  0  0  0  0
   -6.6773   15.7961  -33.2475 H   0  0  0  0  0  0  0  0  0  0  0  0
   -5.2214   15.7048  -32.1539 H   0  0  0  0  0  0  0  0  0  0  0  0
   -6.1650   17.6220  -32.2270 C   0  0  0  0  0  0  0  0  0  0  0  0
   -6.8736   17.4098  -31.4129 H   0  0  0  0  0  0  0  0  0  0  0  0
   -5.2576   18.1032  -31.8332 H   0  0  0  0  0  0  0  0  0  0  0  0
   -6.8310   18.5820  -33.2390 C   0  0  1  0  0  0  0  0  0  0  0  0
   -7.8278   18.1744  -33.4630 H   0  0  0  0  0  0  0  0  0  0  0  0
   -6.9980   19.9610  -32.6250 C   0  0  0  0  0  0  0  0  0  0  0  0
   -8.2910   20.4910  -32.3710 C   0  0  0  0  0  0  0  0  0  0  0  0
   -9.1811   19.8951  -32.6212 H   0  0  0  0  0  0  0  0  0  0  0  0
   -8.4470   21.7650  -31.8050 C   0  0  0  0  0  0  0  0  0  0  0  0
   -9.4469   22.1744  -31.5988 H   0  0  0  0  0  0  0  0  0  0  0  0
   -7.2990   22.4960  -31.5120 C   0  0  0  0  0  0  0  0  0  0  0  0
   -7.1650   23.7410  -30.9450 C   0  0  0  0  0  0  0  0  0  0  0  0
   -7.9701   24.4115  -30.6099 H   0  0  0  0  0  0  0  0  0  0  0  0
   -5.7920   23.9730  -30.8850 C   0  0  0  0  0  0  0  0  0  0  0  0
   -5.2020   25.2450  -30.4160 C   0  0  0  0  0  0  0  0  0  0  0  0
   -5.8270   25.9900  -29.6150 O   0  0  0  0  0  0  0  0  0  0  0  0
   -3.8930   25.6190  -30.8420 N   0  0  0  0  0  0  0  0  0  0  0  0
   -3.0480   25.2930  -30.3230 H   0  0  0  0  0  0  0  0  0  0  0  0
   -5.1050   22.9080  -31.3880 N   0  0  0  0  0  0  0  0  0  0  0  0
   -3.6810   22.7250  -31.4560 C   0  0  0  0  0  0  0  0  0  0  0  0
   -2.9460   23.1430  -30.5200 O   0  0  0  0  0  0  0  0  0  0  0  0
   -3.1200   22.0610  -32.5490 O   0  0  0  0  0  0  0  0  0  0  0  0
   -2.4620   20.8040  -32.4320 C   0  0  0  0  0  0  0  0  0  0  0  0
   -1.4832   20.9460  -31.9505 H   0  0  0  0  0  0  0  0  0  0  0  0
   -3.0756   20.1245  -31.8223 H   0  0  0  0  0  0  0  0  0  0  0  0
   -2.2640   20.2040  -33.8160 C   0  0  0  0  0  0  0  0  0  0  0  0
   -1.9206   19.1635  -33.7189 H   0  0  0  0  0  0  0  0  0  0  0  0
   -3.2170   20.2259  -34.3649 H   0  0  0  0  0  0  0  0  0  0  0  0
   -1.5112   20.7888  -34.3649 H   0  0  0  0  0  0  0  0  0  0  0  0
   -6.0440   22.0130  -31.7700 C   0  0  0  0  0  0  0  0  0  0  0  0
   -5.8570   20.7380  -32.3170 C   0  0  0  0  0  0  0  0  0  0  0  0
   -4.8450   20.3491  -32.5032 H   0  0  0  0  0  0  0  0  0  0  0  0
   -6.0970   18.6400  -34.6090 C   0  0  0  0  0  0  0  0  0  0  0  0
   -6.7151   18.1266  -35.3602 H   0  0  0  0  0  0  0  0  0  0  0  0
   -5.9466   19.7008  -34.8580 H   0  0  0  0  0  0  0  0  0  0  0  0
   -4.7150   17.9750  -34.5750 C   0  0  0  0  0  0  0  0  0  0  0  0
   -4.2761   18.0073  -35.5831 H   0  0  0  0  0  0  0  0  0  0  0  0
   -4.0824   18.5211  -33.8597 H   0  0  0  0  0  0  0  0  0  0  0  0
  1  2  1  0
  2  3  2  0
  3  4  1  0
  4  5  1  0
  4  6  1  0
  3  7  1  0
  7  8  1  6
  7  9  1  0
  9 10  1  0
  9 11  1  0
  9 12  1  0
 12 13  1  0
 12 14  1  0
 12 15  1  0
 15 16  1  6
 15 17  1  0
 17 18  2  0
 18 19  1  0
 18 20  1  0
 20 21  1  0
 20 22  2  0
 22 23  1  0
 23 24  1  0
 23 25  2  0
 25 26  1  0
 26 27  2  0
 26 28  1  0
 28 29  1  0
 25 30  1  0
 30 31  1  0
 31 32  2  0
 31 33  1  0
 33 34  1  0
 34 35  1  0
 34 36  1  0
 34 37  1  0
 37 38  1  0
 37 39  1  0
 37 40  1  0
 30 41  1  0
 41 42  2  0
 42 43  1  0
 15 44  1  0
 44 45  1  0
 44 46  1  0
 44 47  1  0
 47 48  1  0
 47 49  1  0
 47  7  1  0
 42 17  1  0
 41 22  1  0
M  CHG  1  28  -1
M  END
>  <UniqueID>  (65) 
65

>  <SMILES>  (65) 
[H]/N=C(\N)C1CCC(c2ccc3cc(C([NH-])=O)n(C(=O)OCC)c3c2)CC1

>  <Energy>  (65) 
86.13048947448402

>  <Genealogy>  (65) 
CCOC(=O)n1c(C([NH-])=O)cc2ccc(C3CCC(C(=N)N)CC3)cc21 (protonated)
[H]/N=C(\N)C1CCC(c2ccc3cc(C([NH-])=O)n(C(=O)OCC)c3c2)CC1 (cis-trans isomerization)
[H]/N=C(\N)C1CCC(c2ccc3cc(C([NH-])=O)n(C(=O)OCC)c3c2)CC1 (3D coordinates assigned)
[H]/N=C(\N)C1CCC(c2ccc3cc(C([NH-])=O)n(C(=O)OCC)c3c2)CC1 (nonaromatic ring conformer: 86.13048947448402 kcal/mol)

>  <smiles>  (65) 
CCOC(=O)n1c(C(N)=O)cc2ccc(C3CCC(C(=N)N)CC3)cc21

>  <score_type>  (65) 
oracle

>  <origin>  (65) 
adg

>  <m_score__min__energy>  (65) 
-11.19

>  <m_primary>  (65) 
energy

$$$$
65:0
     RDKit          3D

 45 47  0  0  0  0  0  0  0  0999 V2000
   -4.2250   13.7220  -31.6210 C   0  0  0  0  0  0  0  0  0  0  0  0
   -4.4820   13.5810  -33.1180 C   0  0  0  0  0  0  0  0  0  0  0  0
   -4.2060   14.8060  -33.7970 O   0  0  0  0  0  0  0  0  0  0  0  0
   -4.7580   16.0590  -33.4830 C   0  0  0  0  0  0  0  0  0  0  0  0
   -6.1010   16.2250  -33.1050 C   0  0  0  0  0  0  0  0  0  0  0  0
   -6.5910   17.4910  -32.7860 C   0  0  0  0  0  0  0  0  0  0  0  0
   -5.7560   18.6170  -32.8380 C   0  0  0  0  0  0  0  0  0  0  0  0
   -6.3260   19.9210  -32.4420 C   0  0  0  0  0  0  0  0  0  0  0  0
   -7.6900   20.2020  -32.6990 C   0  0  0  0  0  0  0  0  0  0  0  0
   -8.2470   21.4390  -32.3330 C   0  0  0  0  0  0  0  0  0  0  0  0
   -7.4210   22.3630  -31.6990 C   0  0  0  0  0  0  0  0  0  0  0  0
   -7.6910   23.6400  -31.2620 C   0  0  0  0  0  0  0  0  0  0  0  0
   -6.4980   24.1000  -30.7110 C   0  0  0  0  0  0  0  0  0  0  0  0
   -6.3580   25.4140  -30.0540 C   0  0  0  0  0  0  0  0  0  0  0  0
   -5.3590   26.3460  -30.4690 N   0  0  0  0  0  0  0  0  0  0  0  0
   -7.1000   25.6990  -29.0760 O   0  0  0  0  0  0  0  0  0  0  0  0
   -5.5240   23.1530  -30.8160 N   0  0  0  0  0  0  0  0  0  0  0  0
   -4.1290   23.2740  -30.4840 C   0  0  0  0  0  0  0  0  0  0  0  0
   -3.4280   22.2090  -29.7020 C   0  0  0  0  0  0  0  0  0  0  0  0
   -3.4890   24.3020  -30.8320 O   0  0  0  0  0  0  0  0  0  0  0  0
   -6.1070   22.0930  -31.4170 C   0  0  0  0  0  0  0  0  0  0  0  0
   -5.5220   20.8760  -31.7830 C   0  0  0  0  0  0  0  0  0  0  0  0
   -4.4070   18.4720  -33.2580 C   0  0  0  0  0  0  0  0  0  0  0  0
   -3.4640   19.6570  -33.3630 C   0  0  0  0  0  0  0  0  0  0  0  0
   -2.9900   20.0190  -32.1150 F   0  0  0  0  0  0  0  0  0  0  0  0
   -4.1040   20.7600  -33.9020 F   0  0  0  0  0  0  0  0  0  0  0  0
   -2.3980   19.3280  -34.1790 F   0  0  0  0  0  0  0  0  0  0  0  0
   -3.9250   17.1800  -33.5460 C   0  0  0  0  0  0  0  0  0  0  0  0
   -5.0555   13.2663  -31.0619 H   0  0  0  0  0  0  0  0  0  0  0  0
   -3.2851   13.2132  -31.3608 H   0  0  0  0  0  0  0  0  0  0  0  0
   -4.1491   14.7881  -31.3608 H   0  0  0  0  0  0  0  0  0  0  0  0
   -3.8330   12.7903  -33.5225 H   0  0  0  0  0  0  0  0  0  0  0  0
   -5.5403   13.3233  -33.2715 H   0  0  0  0  0  0  0  0  0  0  0  0
   -6.7691   15.3522  -33.0605 H   0  0  0  0  0  0  0  0  0  0  0  0
   -7.6440   17.6080  -32.4903 H   0  0  0  0  0  0  0  0  0  0  0  0
   -8.3193   19.4449  -33.1897 H   0  0  0  0  0  0  0  0  0  0  0  0
   -9.3022   21.6699  -32.5408 H   0  0  0  0  0  0  0  0  0  0  0  0
   -8.6458   24.1816  -31.3330 H   0  0  0  0  0  0  0  0  0  0  0  0
   -4.6240   26.0770  -31.1580 H   0  0  0  0  0  0  0  0  0  0  0  0
   -5.3040   27.2880  -30.0220 H   0  0  0  0  0  0  0  0  0  0  0  0
   -3.5543   22.4008  -28.6262 H   0  0  0  0  0  0  0  0  0  0  0  0
   -3.8573   21.2277  -29.9523 H   0  0  0  0  0  0  0  0  0  0  0  0
   -2.3569   22.2153  -29.9523 H   0  0  0  0  0  0  0  0  0  0  0  0
   -4.4643   20.6689  -31.5632 H   0  0  0  0  0  0  0  0  0  0  0  0
   -2.8694   17.0502  -33.8268 H   0  0  0  0  0  0  0  0  0  0  0  0
  1  2  1  0
  2  3  1  0
  3  4  1  0
  4  5  2  0
  5  6  1  0
  6  7  2  0
  7  8  1  0
  8  9  2  0
  9 10  1  0
 10 11  2  0
 11 12  1  0
 12 13  2  0
 13 14  1  0
 14 15  1  0
 14 16  2  0
 13 17  1  0
 17 18  1  0
 18 19  1  0
 18 20  2  0
 17 21  1  0
 21 22  2  0
  7 23  1  0
 23 24  1  0
 24 25  1  0
 24 26  1  0
 24 27  1  0
 23 28  2  0
 28  4  1  0
 22  8  1  0
 21 11  1  0
  1 29  1  0
  1 30  1  0
  1 31  1  0
  2 32  1  0
  2 33  1  0
  5 34  1  0
  6 35  1  0
  9 36  1  0
 10 37  1  0
 12 38  1  0
 15 39  1  0
 15 40  1  0
 19 41  1  0
 19 42  1  0
 19 43  1  0
 22 44  1  0
 28 45  1  0
M  END
>  <UniqueID>  (66) 
66

>  <SMILES>  (66) 
CCOc1ccc(-c2ccc3cc(C(N)=O)n(C(C)=O)c3c2)c(C(F)(F)F)c1

>  <Energy>  (66) 
94.2049126537544

>  <Genealogy>  (66) 
CCOc1ccc(-c2ccc3cc(C(N)=O)n(C(C)=O)c3c2)c(C(F)(F)F)c1 (3D coordinates assigned)
CCOc1ccc(-c2ccc3cc(C(N)=O)n(C(C)=O)c3c2)c(C(F)(F)F)c1 (optimized conformer: 94.2049126537544 kcal/mol)

>  <smiles>  (66) 
CCOc1ccc(-c2ccc3cc(C(N)=O)n(C(C)=O)c3c2)c(C(F)(F)F)c1

>  <score_type>  (66) 
oracle

>  <origin>  (66) 
adg

>  <m_score__min__energy>  (66) 
-8.7300000000000004

>  <m_primary>  (66) 
energy

$$$$
66:0
     RDKit          3D

 31 32  0  0  0  0  0  0  0  0999 V2000
   -2.4000   20.9300  -32.5200 C   0  0  0  0  0  0  0  0  0  0  0  0
   -3.1160   22.1580  -32.5680 O   0  0  0  0  0  0  0  0  0  0  0  0
   -3.6730   22.7530  -31.4310 C   0  0  0  0  0  0  0  0  0  0  0  0
   -2.9290   23.1510  -30.4930 O   0  0  0  0  0  0  0  0  0  0  0  0
   -5.0990   22.8880  -31.3240 N   0  0  0  0  0  0  0  0  0  0  0  0
   -5.8060   24.0050  -30.9930 C   0  0  0  0  0  0  0  0  0  0  0  0
   -5.2390   25.2770  -30.5020 C   0  0  0  0  0  0  0  0  0  0  0  0
   -3.9110   25.6680  -30.8410 N   0  0  0  0  0  0  0  0  0  0  0  0
   -5.9180   26.0060  -29.7300 O   0  0  0  0  0  0  0  0  0  0  0  0
   -7.1740   23.7660  -31.1000 C   0  0  0  0  0  0  0  0  0  0  0  0
   -7.2860   22.4550  -31.5010 C   0  0  0  0  0  0  0  0  0  0  0  0
   -8.4200   21.6930  -31.7600 C   0  0  0  0  0  0  0  0  0  0  0  0
   -8.2390   20.3650  -32.1820 C   0  0  0  0  0  0  0  0  0  0  0  0
   -6.9360   19.8300  -32.3610 C   0  0  0  0  0  0  0  0  0  0  0  0
   -6.7540   18.3890  -32.7840 C   0  0  0  0  0  0  0  0  0  0  0  0
   -6.0690   18.3210  -34.1460 C   0  0  0  0  0  0  0  0  0  0  0  0
   -7.9820   17.7540  -32.8620 F   0  0  0  0  0  0  0  0  0  0  0  0
   -5.9830   17.7090  -31.8550 F   0  0  0  0  0  0  0  0  0  0  0  0
   -5.8080   20.6330  -32.0670 C   0  0  0  0  0  0  0  0  0  0  0  0
   -6.0200   21.9460  -31.6300 C   0  0  0  0  0  0  0  0  0  0  0  0
   -2.2330   20.6437  -31.4711 H   0  0  0  0  0  0  0  0  0  0  0  0
   -2.9825   20.1459  -33.0259 H   0  0  0  0  0  0  0  0  0  0  0  0
   -1.4307   21.0507  -33.0259 H   0  0  0  0  0  0  0  0  0  0  0  0
   -3.0910   25.3010  -30.3090 H   0  0  0  0  0  0  0  0  0  0  0  0
   -7.9917   24.4755  -30.9051 H   0  0  0  0  0  0  0  0  0  0  0  0
   -9.4278   22.1168  -31.6383 H   0  0  0  0  0  0  0  0  0  0  0  0
   -9.1175   19.7321  -32.3761 H   0  0  0  0  0  0  0  0  0  0  0  0
   -4.9834   18.2132  -34.0054 H   0  0  0  0  0  0  0  0  0  0  0  0
   -6.4537   17.4566  -34.7071 H   0  0  0  0  0  0  0  0  0  0  0  0
   -6.2762   19.2441  -34.7071 H   0  0  0  0  0  0  0  0  0  0  0  0
   -4.7888   20.2347  -32.1793 H   0  0  0  0  0  0  0  0  0  0  0  0
  1  2  1  0
  2  3  1  0
  3  4  2  0
  3  5  1  0
  5  6  1  0
  6  7  1  0
  7  8  1  0
  7  9  2  0
  6 10  2  0
 10 11  1  0
 11 12  2  0
 12 13  1  0
 13 14  2  0
 14 15  1  0
 15 16  1  0
 15 17  1  0
 15 18  1  0
 14 19  1  0
 19 20  2  0
 20  5  1  0
 20 11  1  0
  1 21  1  0
  1 22  1  0
  1 23  1  0
  8 24  1  0
 10 25  1  0
 12 26  1  0
 13 27  1  0
 16 28  1  0
 16 29  1  0
 16 30  1  0
 19 31  1  0
M  CHG  1   8  -1
M  END
>  <UniqueID>  (67) 
67

>  <SMILES>  (67) 
COC(=O)n1c(C([NH-])=O)cc2ccc(C(C)(F)F)cc21

>  <Energy>  (67) 
66.69836852664208

>  <Genealogy>  (67) 
COC(=O)n1c(C([NH-])=O)cc2ccc(C(C)(F)F)cc21 (protonated)
COC(=O)n1c(C([NH-])=O)cc2ccc(C(C)(F)F)cc21 (3D coordinates assigned)
COC(=O)n1c(C([NH-])=O)cc2ccc(C(C)(F)F)cc21 (optimized conformer: 66.69836852664208 kcal/mol)

>  <smiles>  (67) 
COC(=O)n1c(C(N)=O)cc2ccc(C(C)(F)F)cc21

>  <score_type>  (67) 
oracle

>  <origin>  (67) 
adg

>  <m_score__min__energy>  (67) 
-9.1999999999999993

>  <m_primary>  (67) 
energy

$$$$
67:0
     RDKit          3D

 45 47  0  0  0  0  0  0  0  0999 V2000
   -9.0770   20.9810  -31.9010 C   0  0  0  0  0  0  0  0  0  0  0  0
   -9.3850   19.7190  -32.7050 C   0  0  0  0  0  0  0  0  0  0  0  0
   -8.4610   18.5550  -32.3340 C   0  0  0  0  0  0  0  0  0  0  0  0
   -7.0690   18.8680  -32.6540 N   0  0  0  0  0  0  0  0  0  0  0  0
   -6.4420   18.6070  -33.8170 C   0  0  0  0  0  0  0  0  0  0  0  0
   -5.1550   19.1020  -33.7430 C   0  0  0  0  0  0  0  0  0  0  0  0
   -5.0600   19.6680  -32.4780 C   0  0  0  0  0  0  0  0  0  0  0  0
   -3.8740   20.3480  -31.9020 C   0  0  0  0  0  0  0  0  0  0  0  0
   -2.5850   19.7620  -32.0090 C   0  0  0  0  0  0  0  0  0  0  0  0
   -1.4580   20.3910  -31.4570 C   0  0  0  0  0  0  0  0  0  0  0  0
   -1.6420   21.6090  -30.8100 C   0  0  0  0  0  0  0  0  0  0  0  0
   -0.7320   22.4130  -30.1630 C   0  0  0  0  0  0  0  0  0  0  0  0
   -1.4690   23.4940  -29.6850 C   0  0  0  0  0  0  0  0  0  0  0  0
   -0.8620   24.6500  -28.9940 C   0  0  0  0  0  0  0  0  0  0  0  0
   -1.5430   25.8990  -28.9180 N   0  0  0  0  0  0  0  0  0  0  0  0
    0.2950   24.5470  -28.5050 O   0  0  0  0  0  0  0  0  0  0  0  0
   -2.7840   23.3600  -30.0190 N   0  0  0  0  0  0  0  0  0  0  0  0
   -3.8770   24.2070  -29.6330 C   0  0  0  0  0  0  0  0  0  0  0  0
   -4.5590   23.9270  -28.6100 O   0  0  0  0  0  0  0  0  0  0  0  0
   -4.1670   25.3510  -30.3870 O   0  0  0  0  0  0  0  0  0  0  0  0
   -5.4790   25.6860  -30.8340 C   0  0  0  0  0  0  0  0  0  0  0  0
   -6.4620   25.6750  -29.6700 C   0  0  0  0  0  0  0  0  0  0  0  0
   -2.8720   22.2020  -30.7090 C   0  0  0  0  0  0  0  0  0  0  0  0
   -4.0170   21.5880  -31.2320 C   0  0  0  0  0  0  0  0  0  0  0  0
   -6.2420   19.5090  -31.8460 N   0  0  0  0  0  0  0  0  0  0  0  0
   -9.1325   20.7537  -30.8262 H   0  0  0  0  0  0  0  0  0  0  0  0
   -8.0658   21.3361  -32.1490 H   0  0  0  0  0  0  0  0  0  0  0  0
   -9.8109   21.7620  -32.1490 H   0  0  0  0  0  0  0  0  0  0  0  0
  -10.4258   19.4206  -32.5106 H   0  0  0  0  0  0  0  0  0  0  0  0
   -9.2260   19.9498  -33.7687 H   0  0  0  0  0  0  0  0  0  0  0  0
   -8.5464   18.3577  -31.2552 H   0  0  0  0  0  0  0  0  0  0  0  0
   -8.7630   17.6698  -32.9129 H   0  0  0  0  0  0  0  0  0  0  0  0
   -6.8814   18.0868  -34.6809 H   0  0  0  0  0  0  0  0  0  0  0  0
   -4.3749   19.0577  -34.5172 H   0  0  0  0  0  0  0  0  0  0  0  0
   -2.4679   18.8014  -32.5319 H   0  0  0  0  0  0  0  0  0  0  0  0
   -0.4599   19.9349  -31.5336 H   0  0  0  0  0  0  0  0  0  0  0  0
    0.3480   22.2391  -30.0477 H   0  0  0  0  0  0  0  0  0  0  0  0
   -2.5840   25.9470  -28.9650 H   0  0  0  0  0  0  0  0  0  0  0  0
   -5.4623   26.6899  -31.2834 H   0  0  0  0  0  0  0  0  0  0  0  0
   -5.8011   24.9414  -31.5768 H   0  0  0  0  0  0  0  0  0  0  0  0
   -5.9063   25.6812  -28.7207 H   0  0  0  0  0  0  0  0  0  0  0  0
   -7.1048   26.5660  -29.7245 H   0  0  0  0  0  0  0  0  0  0  0  0
   -7.0847   24.7698  -29.7245 H   0  0  0  0  0  0  0  0  0  0  0  0
   -5.0056   22.0583  -31.1249 H   0  0  0  0  0  0  0  0  0  0  0  0
   -6.5000   19.8520  -30.8930 H   0  0  0  0  0  0  0  0  0  0  0  0
  1  2  1  0
  2  3  1  0
  3  4  1  0
  4  5  1  0
  5  6  2  0
  6  7  1  0
  7  8  1  0
  8  9  2  0
  9 10  1  0
 10 11  2  0
 11 12  1  0
 12 13  2  0
 13 14  1  0
 14 15  1  0
 14 16  2  0
 13 17  1  0
 17 18  1  0
 18 19  2  0
 18 20  1  0
 20 21  1  0
 21 22  1  0
 17 23  1  0
 23 24  2  0
  7 25  2  0
 25  4  1  0
 24  8  1  0
 23 11  1  0
  1 26  1  0
  1 27  1  0
  1 28  1  0
  2 29  1  0
  2 30  1  0
  3 31  1  0
  3 32  1  0
  5 33  1  0
  6 34  1  0
  9 35  1  0
 10 36  1  0
 12 37  1  0
 15 38  1  0
 21 39  1  0
 21 40  1  0
 22 41  1  0
 22 42  1  0
 22 43  1  0
 24 44  1  0
 25 45  1  0
M  CHG  2  15  -1  25   1
M  END
>  <UniqueID>  (68) 
68

>  <SMILES>  (68) 
CCCn1ccc(-c2ccc3cc(C([NH-])=O)n(C(=O)OCC)c3c2)[nH+]1

>  <Energy>  (68) 
108.83791709801692

>  <Genealogy>  (68) 
CCCn1ccc(-c2ccc3cc(C([NH-])=O)n(C(=O)OCC)c3c2)[nH+]1 (protonated)
CCCn1ccc(-c2ccc3cc(C([NH-])=O)n(C(=O)OCC)c3c2)[nH+]1 (3D coordinates assigned)
CCCn1ccc(-c2ccc3cc(C([NH-])=O)n(C(=O)OCC)c3c2)[nH+]1 (optimized conformer: 108.83791709801692 kcal/mol)

>  <smiles>  (68) 
CCCn1ccc(-c2ccc3cc(C(N)=O)n(C(=O)OCC)c3c2)n1

>  <score_type>  (68) 
oracle

>  <origin>  (68) 
adg

>  <m_score__min__energy>  (68) 
-10.52

>  <m_primary>  (68) 
energy

$$$$
68:0
     RDKit          3D

 30 32  0  0  0  0  0  0  0  0999 V2000
   -3.9400   25.6300  -30.8440 N   0  0  0  0  0  0  0  0  0  0  0  0
   -5.2460   25.2300  -30.4380 C   0  0  0  0  0  0  0  0  0  0  0  0
   -5.9340   26.0070  -29.7240 O   0  0  0  0  0  0  0  0  0  0  0  0
   -5.8160   23.9360  -30.8690 C   0  0  0  0  0  0  0  0  0  0  0  0
   -7.1080   23.7890  -31.3720 C   0  0  0  0  0  0  0  0  0  0  0  0
   -7.2270   22.4560  -31.6950 C   0  0  0  0  0  0  0  0  0  0  0  0
   -8.3060   21.7520  -32.2180 C   0  0  0  0  0  0  0  0  0  0  0  0
   -8.1560   20.3680  -32.4220 C   0  0  0  0  0  0  0  0  0  0  0  0
   -6.9380   19.7200  -32.0940 C   0  0  0  0  0  0  0  0  0  0  0  0
   -6.7850   18.2400  -32.2980 C   0  0  0  0  0  0  0  0  0  0  0  0
   -8.0250   17.6300  -32.2380 F   0  0  0  0  0  0  0  0  0  0  0  0
   -6.2160   17.9970  -33.5350 F   0  0  0  0  0  0  0  0  0  0  0  0
   -5.8660   20.4670  -31.5610 C   0  0  0  0  0  0  0  0  0  0  0  0
   -6.0400   21.8440  -31.3870 C   0  0  0  0  0  0  0  0  0  0  0  0
   -5.1620   22.7400  -30.8840 N   0  0  0  0  0  0  0  0  0  0  0  0
   -3.8470   22.4530  -30.3880 C   0  0  0  0  0  0  0  0  0  0  0  0
   -3.2280   21.4400  -30.8130 O   0  0  0  0  0  0  0  0  0  0  0  0
   -3.2170   23.3280  -29.3870 C   0  0  0  0  0  0  0  0  0  0  0  0
   -3.6410   23.5190  -28.0900 C   0  0  0  0  0  0  0  0  0  0  0  0
   -2.7380   24.4240  -27.5790 C   0  0  0  0  0  0  0  0  0  0  0  0
   -1.8710   24.7240  -28.5190 O   0  0  0  0  0  0  0  0  0  0  0  0
   -2.1290   24.0840  -29.6230 N   0  0  0  0  0  0  0  0  0  0  0  0
   -3.0930   25.2990  -30.3310 H   0  0  0  0  0  0  0  0  0  0  0  0
   -7.8713   24.5728  -31.4866 H   0  0  0  0  0  0  0  0  0  0  0  0
   -9.2489   22.2620  -32.4649 H   0  0  0  0  0  0  0  0  0  0  0  0
   -8.9898   19.7842  -32.8391 H   0  0  0  0  0  0  0  0  0  0  0  0
   -6.1367   17.8327  -31.5081 H   0  0  0  0  0  0  0  0  0  0  0  0
   -4.9182   19.9792  -31.2894 H   0  0  0  0  0  0  0  0  0  0  0  0
   -4.5000   23.0566  -27.5817 H   0  0  0  0  0  0  0  0  0  0  0  0
   -2.7419   24.8278  -26.5558 H   0  0  0  0  0  0  0  0  0  0  0  0
  1  2  1  0
  2  3  2  0
  2  4  1  0
  4  5  2  0
  5  6  1  0
  6  7  2  0
  7  8  1  0
  8  9  2  0
  9 10  1  0
 10 11  1  0
 10 12  1  0
  9 13  1  0
 13 14  2  0
 14 15  1  0
 15 16  1  0
 16 17  2  0
 16 18  1  0
 18 19  1  0
 19 20  2  0
 20 21  1  0
 21 22  1  0
 15  4  1  0
 22 18  2  0
 14  6  1  0
  1 23  1  0
  5 24  1  0
  7 25  1  0
  8 26  1  0
 10 27  1  0
 13 28  1  0
 19 29  1  0
 20 30  1  0
M  CHG  1   1  -1
M  END
>  <UniqueID>  (69) 
69

>  <SMILES>  (69) 
[NH-]C(=O)c1cc2ccc(C(F)F)cc2n1C(=O)c1ccon1

>  <Energy>  (69) 
101.55028752478748

>  <Genealogy>  (69) 
[NH-]C(=O)c1cc2ccc(C(F)F)cc2n1C(=O)c1ccon1 (protonated)
[NH-]C(=O)c1cc2ccc(C(F)F)cc2n1C(=O)c1ccon1 (3D coordinates assigned)
[NH-]C(=O)c1cc2ccc(C(F)F)cc2n1C(=O)c1ccon1 (optimized conformer: 101.55028752478748 kcal/mol)

>  <smiles>  (69) 
NC(=O)c1cc2ccc(C(F)F)cc2n1C(=O)c1ccon1

>  <score_type>  (69) 
oracle

>  <origin>  (69) 
adg

>  <m_score__min__energy>  (69) 
-9.6999999999999993

>  <m_primary>  (69) 
energy

$$$$
69:0
     RDKit          3D

 61 63  0  0  0  0  0  0  0  0999 V2000
   -2.9650   22.9450  -28.7390 C   0  0  0  0  0  0  0  0  0  0  0  0
   -2.5050   23.2300  -30.0540 O   0  0  0  0  0  0  0  0  0  0  0  0
   -3.1130   22.6970  -31.1950 C   0  0  0  0  0  0  0  0  0  0  0  0
   -2.4030   22.2120  -32.1190 O   0  0  0  0  0  0  0  0  0  0  0  0
   -4.5450   22.6770  -31.3130 N   0  0  0  0  0  0  0  0  0  0  0  0
   -5.4300   23.6890  -31.0730 C   0  0  0  0  0  0  0  0  0  0  0  0
   -5.1140   25.0360  -30.5520 C   0  0  0  0  0  0  0  0  0  0  0  0
   -3.8730   25.6710  -30.8390 N   0  0  0  0  0  0  0  0  0  0  0  0
   -5.9370   25.6120  -29.7860 O   0  0  0  0  0  0  0  0  0  0  0  0
   -6.7080   23.3290  -31.5000 C   0  0  0  0  0  0  0  0  0  0  0  0
   -6.5850   22.0570  -32.0050 C   0  0  0  0  0  0  0  0  0  0  0  0
   -7.5440   21.2170  -32.5710 C   0  0  0  0  0  0  0  0  0  0  0  0
   -7.1310   19.9490  -33.0110 C   0  0  0  0  0  0  0  0  0  0  0  0
   -5.7810   19.5520  -32.8760 C   0  0  0  0  0  0  0  0  0  0  0  0
   -5.3820   18.2230  -33.2440 C   0  0  0  0  0  0  0  0  0  0  0  0
   -5.0310   17.1000  -33.5020 C   0  0  0  0  0  0  0  0  0  0  0  0
   -4.5190   15.7440  -33.8200 C   0  0  0  0  0  0  0  0  0  0  0  0
   -5.5900   14.8030  -33.8870 O   0  0  0  0  0  0  0  0  0  0  0  0
   -6.8320   15.3890  -34.2220 C   0  0  0  0  0  0  0  0  0  0  0  0
   -3.8700   15.7930  -35.2260 C   0  0  0  0  0  0  0  0  0  0  0  0
   -2.7280   16.8300  -35.3150 C   0  0  0  0  0  0  0  0  0  0  0  0
   -2.1050   17.0410  -33.9980 N   0  0  0  0  0  0  0  0  0  0  0  0
   -1.7310   18.3640  -33.5650 C   0  0  0  0  0  0  0  0  0  0  0  0
   -1.6390   19.2960  -34.4090 O   0  0  0  0  0  0  0  0  0  0  0  0
   -1.4940   18.6090  -32.2030 O   0  0  0  0  0  0  0  0  0  0  0  0
   -0.2910   19.1350  -31.6270 C   0  0  0  0  0  0  0  0  0  0  0  0
    0.0600   20.4150  -32.3990 C   0  0  0  0  0  0  0  0  0  0  0  0
    0.8670   18.1330  -31.7800 C   0  0  0  0  0  0  0  0  0  0  0  0
   -0.5070   19.4900  -30.1460 C   0  0  0  0  0  0  0  0  0  0  0  0
   -2.0210   15.8920  -33.0870 C   0  0  0  0  0  0  0  0  0  0  0  0
   -3.4280   15.3260  -32.7820 C   0  0  0  0  0  0  0  0  0  0  0  0
   -4.8330   20.4290  -32.3070 C   0  0  0  0  0  0  0  0  0  0  0  0
   -5.2700   21.6890  -31.8840 C   0  0  0  0  0  0  0  0  0  0  0  0
   -2.2683   23.3766  -28.0053 H   0  0  0  0  0  0  0  0  0  0  0  0
   -3.9643   23.3824  -28.5972 H   0  0  0  0  0  0  0  0  0  0  0  0
   -3.0182   21.8555  -28.5972 H   0  0  0  0  0  0  0  0  0  0  0  0
   -2.9730   25.2970  -30.4630 H   0  0  0  0  0  0  0  0  0  0  0  0
   -7.6233   23.9365  -31.4442 H   0  0  0  0  0  0  0  0  0  0  0  0
   -8.5915   21.5379  -32.6696 H   0  0  0  0  0  0  0  0  0  0  0  0
   -7.8613   19.2616  -33.4628 H   0  0  0  0  0  0  0  0  0  0  0  0
   -7.3764   15.6459  -33.3013 H   0  0  0  0  0  0  0  0  0  0  0  0
   -6.6598   16.3008  -34.8127 H   0  0  0  0  0  0  0  0  0  0  0  0
   -7.4263   14.6763  -34.8127 H   0  0  0  0  0  0  0  0  0  0  0  0
   -3.4627   14.7987  -35.4613 H   0  0  0  0  0  0  0  0  0  0  0  0
   -4.6488   16.0912  -35.9433 H   0  0  0  0  0  0  0  0  0  0  0  0
   -1.9657   16.4664  -36.0197 H   0  0  0  0  0  0  0  0  0  0  0  0
   -3.1479   17.7857  -35.6619 H   0  0  0  0  0  0  0  0  0  0  0  0
    0.2817   21.2235  -31.6869 H   0  0  0  0  0  0  0  0  0  0  0  0
    0.9410   20.2317  -33.0316 H   0  0  0  0  0  0  0  0  0  0  0  0
   -0.7913   20.7068  -33.0316 H   0  0  0  0  0  0  0  0  0  0  0  0
    1.2209   17.8268  -30.7845 H   0  0  0  0  0  0  0  0  0  0  0  0
    0.5162   17.2488  -32.3324 H   0  0  0  0  0  0  0  0  0  0  0  0
    1.6916   18.6072  -32.3324 H   0  0  0  0  0  0  0  0  0  0  0  0
   -0.0395   18.7216  -29.5128 H   0  0  0  0  0  0  0  0  0  0  0  0
   -0.0507   20.4680  -29.9331 H   0  0  0  0  0  0  0  0  0  0  0  0
   -1.5853   19.5343  -29.9331 H   0  0  0  0  0  0  0  0  0  0  0  0
   -1.4099   15.1057  -33.5543 H   0  0  0  0  0  0  0  0  0  0  0  0
   -1.5634   16.2241  -32.1434 H   0  0  0  0  0  0  0  0  0  0  0  0
   -3.3642   14.2279  -32.7702 H   0  0  0  0  0  0  0  0  0  0  0  0
   -3.7355   15.7424  -31.8114 H   0  0  0  0  0  0  0  0  0  0  0  0
   -3.7799   20.1303  -32.1991 H   0  0  0  0  0  0  0  0  0  0  0  0
  1  2  1  0
  2  3  1  0
  3  4  2  0
  3  5  1  0
  5  6  1  0
  6  7  1  0
  7  8  1  0
  7  9  2  0
  6 10  2  0
 10 11  1  0
 11 12  2  0
 12 13  1  0
 13 14  2  0
 14 15  1  0
 15 16  3  0
 16 17  1  0
 17 18  1  0
 18 19  1  0
 17 20  1  0
 20 21  1  0
 21 22  1  0
 22 23  1  0
 23 24  2  0
 23 25  1  0
 25 26  1  0
 26 27  1  0
 26 28  1  0
 26 29  1  0
 22 30  1  0
 30 31  1  0
 14 32  1  0
 32 33  2  0
 33  5  1  0
 33 11  1  0
 31 17  1  0
  1 34  1  0
  1 35  1  0
  1 36  1  0
  8 37  1  0
 10 38  1  0
 12 39  1  0
 13 40  1  0
 19 41  1  0
 19 42  1  0
 19 43  1  0
 20 44  1  0
 20 45  1  0
 21 46  1  0
 21 47  1  0
 27 48  1  0
 27 49  1  0
 27 50  1  0
 28 51  1  0
 28 52  1  0
 28 53  1  0
 29 54  1  0
 29 55  1  0
 29 56  1  0
 30 57  1  0
 30 58  1  0
 31 59  1  0
 31 60  1  0
 32 61  1  0
M  CHG  1   8  -1
M  END
>  <UniqueID>  (70) 
70

>  <SMILES>  (70) 
COC(=O)n1c(C([NH-])=O)cc2ccc(C#CC3(OC)CCN(C(=O)OC(C)(C)C)CC3)cc21

>  <Energy>  (70) 
102.10896780394566

>  <Genealogy>  (70) 
COC(=O)n1c(C([NH-])=O)cc2ccc(C#CC3(OC)CCN(C(=O)OC(C)(C)C)CC3)cc21 (protonated)
COC(=O)n1c(C([NH-])=O)cc2ccc(C#CC3(OC)CCN(C(=O)OC(C)(C)C)CC3)cc21 (3D coordinates assigned)
COC(=O)n1c(C([NH-])=O)cc2ccc(C#CC3(OC)CCN(C(=O)OC(C)(C)C)CC3)cc21 (nonaromatic ring conformer: 102.10896780394566 kcal/mol)

>  <smiles>  (70) 
COC(=O)n1c(C(N)=O)cc2ccc(C#CC3(OC)CCN(C(=O)OC(C)(C)C)CC3)cc21

>  <score_type>  (70) 
oracle

>  <origin>  (70) 
adg

>  <m_score__min__energy>  (70) 
-10.789999999999999

>  <m_primary>  (70) 
energy

$$$$
70:0
     RDKit          3D

 37 39  0  0  0  0  0  0  0  0999 V2000
    3.6040   21.1660  -37.7130 N   0  0  0  0  0  0  0  0  0  0  0  0
    3.3800   20.1570  -36.7310 C   0  0  0  0  0  0  0  0  0  0  0  0
    4.2460   19.2600  -36.5620 O   0  0  0  0  0  0  0  0  0  0  0  0
    2.1210   20.1490  -35.9580 C   0  0  0  0  0  0  0  0  0  0  0  0
    1.5110   18.9830  -35.4990 C   0  0  0  0  0  0  0  0  0  0  0  0
    0.4310   19.4040  -34.7580 C   0  0  0  0  0  0  0  0  0  0  0  0
   -0.5310   18.6620  -34.0790 C   0  0  0  0  0  0  0  0  0  0  0  0
   -1.5540   19.3590  -33.4170 C   0  0  0  0  0  0  0  0  0  0  0  0
   -1.6060   20.7780  -33.4480 C   0  0  0  0  0  0  0  0  0  0  0  0
   -2.7000   21.5040  -32.7540 C   0  0  0  0  0  0  0  0  0  0  0  0
   -4.0280   21.3920  -33.1900 C   0  0  0  0  0  0  0  0  0  0  0  0
   -5.0460   22.0800  -32.5290 C   0  0  0  0  0  0  0  0  0  0  0  0
   -4.7320   22.8900  -31.4290 C   0  0  0  0  0  0  0  0  0  0  0  0
   -5.8210   23.6070  -30.6840 C   0  0  0  0  0  0  0  0  0  0  0  0
   -5.1230   24.8800  -29.6490 S   0  0  0  0  0  0  0  0  0  0  0  0
   -6.1790   25.8920  -29.3050 O   0  0  0  0  0  0  0  0  0  0  0  0
   -4.5980   24.2610  -28.3850 O   0  0  0  0  0  0  0  0  0  0  0  0
   -3.8620   25.6410  -30.4580 O   0  0  0  0  0  0  0  0  0  0  0  0
   -3.4380   22.9790  -31.0070 N   0  0  0  0  0  0  0  0  0  0  0  0
   -2.4300   22.3180  -31.6400 C   0  0  0  0  0  0  0  0  0  0  0  0
   -0.6080   21.4940  -34.1500 C   0  0  0  0  0  0  0  0  0  0  0  0
    0.4110   20.7740  -34.7860 C   0  0  0  0  0  0  0  0  0  0  0  0
    1.4400   21.2480  -35.5230 N   0  0  0  0  0  0  0  0  0  0  0  0
    1.7040   22.6250  -35.8360 C   0  0  0  0  0  0  0  0  0  0  0  0
    2.2060   23.3900  -34.9700 O   0  0  0  0  0  0  0  0  0  0  0  0
    1.3830   23.1360  -37.0880 O   0  0  0  0  0  0  0  0  0  0  0  0
    3.2580   22.1400  -37.5700 H   0  0  0  0  0  0  0  0  0  0  0  0
    1.8261   17.9463  -35.6889 H   0  0  0  0  0  0  0  0  0  0  0  0
   -0.4909   17.5629  -34.0616 H   0  0  0  0  0  0  0  0  0  0  0  0
   -2.3250   18.7992  -32.8674 H   0  0  0  0  0  0  0  0  0  0  0  0
   -4.2682   20.7590  -34.0569 H   0  0  0  0  0  0  0  0  0  0  0  0
   -6.0881   21.9874  -32.8688 H   0  0  0  0  0  0  0  0  0  0  0  0
   -6.5143   24.0644  -31.4051 H   0  0  0  0  0  0  0  0  0  0  0  0
   -6.3591   22.8852  -30.0520 H   0  0  0  0  0  0  0  0  0  0  0  0
   -3.2030   23.5660  -30.1750 H   0  0  0  0  0  0  0  0  0  0  0  0
   -1.3968   22.4216  -31.2771 H   0  0  0  0  0  0  0  0  0  0  0  0
   -0.6319   22.5928  -34.1953 H   0  0  0  0  0  0  0  0  0  0  0  0
  1  2  1  0
  2  3  2  0
  2  4  1  0
  4  5  2  0
  5  6  1  0
  6  7  2  0
  7  8  1  0
  8  9  2  0
  9 10  1  0
 10 11  2  0
 11 12  1  0
 12 13  2  0
 13 14  1  0
 14 15  1  0
 15 16  2  0
 15 17  2  0
 15 18  1  0
 13 19  1  0
 19 20  2  0
  9 21  1  0
 21 22  2  0
 22 23  1  0
 23 24  1  0
 24 25  2  0
 24 26  1  0
 23  4  1  0
 22  6  1  0
 20 10  1  0
  1 27  1  0
  5 28  1  0
  7 29  1  0
  8 30  1  0
 11 31  1  0
 12 32  1  0
 14 33  1  0
 14 34  1  0
 19 35  1  0
 20 36  1  0
 21 37  1  0
M  CHG  4   1  -1  18  -1  19   1  26  -1
M  END
>  <UniqueID>  (71) 
71

>  <SMILES>  (71) 
[NH-]C(=O)c1cc2ccc(-c3ccc(CS(=O)(=O)[O-])[nH+]c3)cc2n1C(=O)[O-]

>  <Energy>  (71) 
79.40575114958118

>  <Genealogy>  (71) 
[NH-]C(=O)c1cc2ccc(-c3ccc(CS(=O)(=O)[O-])[nH+]c3)cc2n1C(=O)[O-] (protonated)
[NH-]C(=O)c1cc2ccc(-c3ccc(CS(=O)(=O)[O-])[nH+]c3)cc2n1C(=O)[O-] (3D coordinates assigned)
[NH-]C(=O)c1cc2ccc(-c3ccc(CS(=O)(=O)[O-])[nH+]c3)cc2n1C(=O)[O-] (optimized conformer: 79.40575114958118 kcal/mol)

>  <smiles>  (71) 
NC(=O)c1cc2ccc(-c3ccc(CS(=O)(=O)O)nc3)cc2n1C(=O)O

>  <score_type>  (71) 
oracle

>  <origin>  (71) 
adg

>  <m_score__min__energy>  (71) 
-10.23

>  <m_primary>  (71) 
energy

$$$$
71:0
     RDKit          3D

 45 47  0  0  0  0  0  0  0  0999 V2000
   -7.4570   23.5000  -31.6430 C   0  0  0  0  0  0  0  0  0  0  0  0
   -7.8510   22.6500  -30.5140 N   0  0  0  0  0  0  0  0  0  0  0  0
   -8.1120   21.2690  -30.9440 C   0  0  0  0  0  0  0  0  0  0  0  0
   -7.3530   20.9530  -32.2570 C   0  0  2  0  0  0  0  0  0  0  0  0
   -7.8700   19.8830  -33.1710 N   0  0  0  0  0  0  0  0  0  0  0  0
   -8.9850   19.0340  -32.7090 C   0  0  0  0  0  0  0  0  0  0  0  0
   -6.5810   19.6950  -32.4310 C   0  0  2  0  0  0  0  0  0  0  0  0
   -6.5060   18.6310  -31.3040 C   0  0  0  0  0  0  0  0  0  0  0  0
   -5.3530   19.7850  -33.3620 C   0  0  0  0  0  0  0  0  0  0  0  0
   -4.1740   20.4100  -32.6620 C   0  0  0  0  0  0  0  0  0  0  0  0
   -2.9300   19.7320  -32.6360 C   0  0  0  0  0  0  0  0  0  0  0  0
   -1.8320   20.2760  -31.9500 C   0  0  0  0  0  0  0  0  0  0  0  0
   -2.0080   21.4910  -31.2970 C   0  0  0  0  0  0  0  0  0  0  0  0
   -1.1320   22.2100  -30.5200 C   0  0  0  0  0  0  0  0  0  0  0  0
   -1.8510   23.3210  -30.0800 C   0  0  0  0  0  0  0  0  0  0  0  0
   -1.2590   24.3940  -29.2520 C   0  0  0  0  0  0  0  0  0  0  0  0
   -1.9840   25.5870  -28.9580 N   0  0  0  0  0  0  0  0  0  0  0  0
   -0.0780   24.2700  -28.8280 O   0  0  0  0  0  0  0  0  0  0  0  0
   -3.1250   23.2870  -30.5690 N   0  0  0  0  0  0  0  0  0  0  0  0
   -4.2070   24.1840  -30.2720 C   0  0  0  0  0  0  0  0  0  0  0  0
   -4.1520   25.5430  -30.6980 N   0  0  0  0  0  0  0  0  0  0  0  0
   -5.2230   23.7670  -29.6500 O   0  0  0  0  0  0  0  0  0  0  0  0
   -3.2030   22.1630  -31.3150 C   0  0  0  0  0  0  0  0  0  0  0  0
   -4.3150   21.6420  -31.9870 C   0  0  0  0  0  0  0  0  0  0  0  0
   -7.0229   24.4365  -31.2629 H   0  0  0  0  0  0  0  0  0  0  0  0
   -6.7115   22.9727  -32.2563 H   0  0  0  0  0  0  0  0  0  0  0  0
   -8.3412   23.7281  -32.2563 H   0  0  0  0  0  0  0  0  0  0  0  0
   -7.0450   22.6330  -29.8480 H   0  0  0  0  0  0  0  0  0  0  0  0
   -7.7775   20.5764  -30.1576 H   0  0  0  0  0  0  0  0  0  0  0  0
   -9.1912   21.1513  -31.1216 H   0  0  0  0  0  0  0  0  0  0  0  0
   -7.1048   22.0204  -32.3521 H   0  0  0  0  0  0  0  0  0  0  0  0
   -9.0037   19.0197  -31.6093 H   0  0  0  0  0  0  0  0  0  0  0  0
   -9.9353   19.4393  -33.0867 H   0  0  0  0  0  0  0  0  0  0  0  0
   -8.8471   18.0101  -33.0867 H   0  0  0  0  0  0  0  0  0  0  0  0
   -6.5412   19.1309  -30.3248 H   0  0  0  0  0  0  0  0  0  0  0  0
   -7.3577   17.9407  -31.3941 H   0  0  0  0  0  0  0  0  0  0  0  0
   -5.5659   18.0671  -31.3941 H   0  0  0  0  0  0  0  0  0  0  0  0
   -5.0780   18.7717  -33.6899 H   0  0  0  0  0  0  0  0  0  0  0  0
   -5.6180   20.4166  -34.2227 H   0  0  0  0  0  0  0  0  0  0  0  0
   -2.8233   18.7699  -33.1584 H   0  0  0  0  0  0  0  0  0  0  0  0
   -0.8624   19.7569  -31.9298 H   0  0  0  0  0  0  0  0  0  0  0  0
   -0.0847   21.9617  -30.2930 H   0  0  0  0  0  0  0  0  0  0  0  0
   -2.9910   25.6820  -29.2180 H   0  0  0  0  0  0  0  0  0  0  0  0
   -3.8660   26.3010  -30.0400 H   0  0  0  0  0  0  0  0  0  0  0  0
   -5.2749   22.1792  -31.9891 H   0  0  0  0  0  0  0  0  0  0  0  0
  1  2  1  0
  2  3  1  0
  3  4  1  0
  4  5  1  0
  5  6  1  0
  5  7  1  0
  7  8  1  1
  7  9  1  0
  9 10  1  0
 10 11  2  0
 11 12  1  0
 12 13  2  0
 13 14  1  0
 14 15  2  0
 15 16  1  0
 16 17  1  0
 16 18  2  0
 15 19  1  0
 19 20  1  0
 20 21  1  0
 20 22  2  0
 19 23  1  0
 23 24  2  0
  7  4  1  0
 24 10  1  0
 23 13  1  0
  1 25  1  0
  1 26  1  0
  1 27  1  0
  2 28  1  0
  3 29  1  0
  3 30  1  0
  4 31  1  6
  6 32  1  0
  6 33  1  0
  6 34  1  0
  8 35  1  0
  8 36  1  0
  8 37  1  0
  9 38  1  0
  9 39  1  0
 11 40  1  0
 12 41  1  0
 14 42  1  0
 17 43  1  0
 21 44  1  0
 24 45  1  0
M  CHG  2  17  -1  21  -1
M  END
>  <UniqueID>  (72) 
72

>  <SMILES>  (72) 
CNC[C@@H]1[N@](C)[C@@]1(C)Cc1ccc2cc(C([NH-])=O)n(C([NH-])=O)c2c1

>  <Energy>  (72) 
444.94455644848085

>  <Genealogy>  (72) 
CNC[C@@H]1N(C)[C@@]1(C)Cc1ccc2cc(C([NH-])=O)n(C([NH-])=O)c2c1 (protonated)
CNC[C@@H]1[N@](C)[C@@]1(C)Cc1ccc2cc(C([NH-])=O)n(C([NH-])=O)c2c1 (chirality)
CNC[C@@H]1[N@](C)[C@@]1(C)Cc1ccc2cc(C([NH-])=O)n(C([NH-])=O)c2c1 (3D coordinates assigned)
CNC[C@@H]1[N@](C)[C@@]1(C)Cc1ccc2cc(C([NH-])=O)n(C([NH-])=O)c2c1 (nonaromatic ring conformer: 444.94455644848085 kcal/mol)

>  <smiles>  (72) 
CNC[C@@H]1N(C)[C@@]1(C)Cc1ccc2cc(C(N)=O)n(C(N)=O)c2c1

>  <score_type>  (72) 
oracle

>  <origin>  (72) 
adg

>  <m_score__min__energy>  (72) 
-11.59

>  <m_primary>  (72) 
energy

$$$$
72:0
     RDKit          3D

 25 26  0  0  0  0  0  0  0  0999 V2000
   -1.9730   25.3010  -29.3390 N   0  0  0  0  0  0  0  0  0  0  0  0
   -1.6590   23.9110  -29.3660 C   0  0  0  0  0  0  0  0  0  0  0  0
   -0.7320   23.4740  -28.6340 O   0  0  0  0  0  0  0  0  0  0  0  0
   -2.4370   22.9700  -30.1990 C   0  0  0  0  0  0  0  0  0  0  0  0
   -1.9320   21.7550  -30.6580 C   0  0  0  0  0  0  0  0  0  0  0  0
   -2.9790   21.1490  -31.3140 C   0  0  0  0  0  0  0  0  0  0  0  0
   -3.0340   19.9220  -31.9660 C   0  0  0  0  0  0  0  0  0  0  0  0
   -4.2430   19.5560  -32.5810 C   0  0  0  0  0  0  0  0  0  0  0  0
   -5.3620   20.4290  -32.5580 C   0  0  0  0  0  0  0  0  0  0  0  0
   -6.6650   20.0090  -33.1900 C   0  0  0  0  0  0  0  0  0  0  0  0
   -7.6030   21.0220  -33.0940 F   0  0  0  0  0  0  0  0  0  0  0  0
   -7.1460   18.8880  -32.5390 F   0  0  0  0  0  0  0  0  0  0  0  0
   -6.4850   19.7100  -34.5290 F   0  0  0  0  0  0  0  0  0  0  0  0
   -5.2710   21.6580  -31.8640 C   0  0  0  0  0  0  0  0  0  0  0  0
   -4.0600   21.9870  -31.2440 C   0  0  0  0  0  0  0  0  0  0  0  0
   -3.7440   23.1110  -30.5620 N   0  0  0  0  0  0  0  0  0  0  0  0
   -4.5970   24.2480  -30.3530 C   0  0  0  0  0  0  0  0  0  0  0  0
   -4.2290   25.5260  -30.8660 N   0  0  0  0  0  0  0  0  0  0  0  0
   -5.6710   24.1230  -29.7060 O   0  0  0  0  0  0  0  0  0  0  0  0
   -2.9640   25.6270  -29.3390 H   0  0  0  0  0  0  0  0  0  0  0  0
   -0.9128   21.3634  -30.5243 H   0  0  0  0  0  0  0  0  0  0  0  0
   -2.1576   19.2581  -31.9992 H   0  0  0  0  0  0  0  0  0  0  0  0
   -4.3233   18.5821  -33.0860 H   0  0  0  0  0  0  0  0  0  0  0  0
   -6.1326   22.3400  -31.8126 H   0  0  0  0  0  0  0  0  0  0  0  0
   -3.2290   25.7610  -31.0520 H   0  0  0  0  0  0  0  0  0  0  0  0
  1  2  1  0
  2  3  2  0
  2  4  1  0
  4  5  2  0
  5  6  1  0
  6  7  2  0
  7  8  1  0
  8  9  2  0
  9 10  1  0
 10 11  1  0
 10 12  1  0
 10 13  1  0
  9 14  1  0
 14 15  2  0
 15 16  1  0
 16 17  1  0
 17 18  1  0
 17 19  2  0
 16  4  1  0
 15  6  1  0
  1 20  1  0
  5 21  1  0
  7 22  1  0
  8 23  1  0
 14 24  1  0
 18 25  1  0
M  CHG  2   1  -1  18  -1
M  END
>  <UniqueID>  (73) 
73

>  <SMILES>  (73) 
[NH-]C(=O)c1cc2ccc(C(F)(F)F)cc2n1C([NH-])=O

>  <Energy>  (73) 
65.66266129313652

>  <Genealogy>  (73) 
[NH-]C(=O)c1cc2ccc(C(F)(F)F)cc2n1C([NH-])=O (protonated)
[NH-]C(=O)c1cc2ccc(C(F)(F)F)cc2n1C([NH-])=O (3D coordinates assigned)
[NH-]C(=O)c1cc2ccc(C(F)(F)F)cc2n1C([NH-])=O (optimized conformer: 65.66266129313652 kcal/mol)

>  <smiles>  (73) 
NC(=O)c1cc2ccc(C(F)(F)F)cc2n1C(N)=O

>  <score_type>  (73) 
oracle

>  <origin>  (73) 
adg

>  <m_score__min__energy>  (73) 
-9.1699999999999999

>  <m_primary>  (73) 
energy

$$$$
73:0
     RDKit          3D

 41 43  0  0  0  0  0  0  0  0999 V2000
   -4.2400   25.5010  -30.8460 N   0  0  0  0  0  0  0  0  0  0  0  0
   -3.9580   24.5020  -29.8680 C   0  0  0  0  0  0  0  0  0  0  0  0
   -4.6590   24.4420  -28.8230 O   0  0  0  0  0  0  0  0  0  0  0  0
   -2.8900   23.5620  -30.0760 N   0  0  0  0  0  0  0  0  0  0  0  0
   -1.6330   23.6090  -29.5510 C   0  0  0  0  0  0  0  0  0  0  0  0
   -1.1590   24.5620  -28.5260 C   0  0  0  0  0  0  0  0  0  0  0  0
   -2.0710   25.4100  -27.8250 N   0  0  0  0  0  0  0  0  0  0  0  0
    0.0640   24.5890  -28.2250 O   0  0  0  0  0  0  0  0  0  0  0  0
   -0.8380   22.5980  -30.0810 C   0  0  0  0  0  0  0  0  0  0  0  0
   -1.6550   21.9110  -30.9490 C   0  0  0  0  0  0  0  0  0  0  0  0
   -1.3720   20.8230  -31.7680 C   0  0  0  0  0  0  0  0  0  0  0  0
   -2.3950   20.3440  -32.6040 C   0  0  0  0  0  0  0  0  0  0  0  0
   -3.6710   20.9600  -32.6070 C   0  0  0  0  0  0  0  0  0  0  0  0
   -4.7410   20.4690  -33.5490 C   0  0  0  0  0  0  0  0  0  0  0  0
   -5.4500   19.2520  -33.0050 C   0  0  0  0  0  0  0  0  0  0  0  0
   -4.8590   18.1370  -33.0230 O   0  0  0  0  0  0  0  0  0  0  0  0
   -6.8100   19.3250  -32.5220 N   0  0  0  0  0  0  0  0  0  0  0  0
   -7.2720   18.3480  -31.5270 C   0  0  0  0  0  0  0  0  0  0  0  0
   -8.7920   18.1790  -31.6110 C   0  0  0  0  0  0  0  0  0  0  0  0
   -9.4410   19.4330  -31.5580 O   0  0  0  0  0  0  0  0  0  0  0  0
   -9.1150   20.1800  -32.7140 C   0  0  0  0  0  0  0  0  0  0  0  0
   -7.6240   20.5300  -32.7350 C   0  0  0  0  0  0  0  0  0  0  0  0
   -3.9170   22.0720  -31.7720 C   0  0  0  0  0  0  0  0  0  0  0  0
   -2.8880   22.5140  -30.9310 C   0  0  0  0  0  0  0  0  0  0  0  0
   -3.5480   25.7300  -31.5930 H   0  0  0  0  0  0  0  0  0  0  0  0
   -3.1030   25.2910  -27.9240 H   0  0  0  0  0  0  0  0  0  0  0  0
   -1.7130   26.1070  -27.1350 H   0  0  0  0  0  0  0  0  0  0  0  0
    0.2185   22.3918  -29.8544 H   0  0  0  0  0  0  0  0  0  0  0  0
   -0.3780   20.3520  -31.7615 H   0  0  0  0  0  0  0  0  0  0  0  0
   -2.2035   19.4834  -33.2618 H   0  0  0  0  0  0  0  0  0  0  0  0
   -5.4773   21.2719  -33.7013 H   0  0  0  0  0  0  0  0  0  0  0  0
   -4.2598   20.1894  -34.4978 H   0  0  0  0  0  0  0  0  0  0  0  0
   -6.7883   17.3788  -31.7188 H   0  0  0  0  0  0  0  0  0  0  0  0
   -7.0080   18.7097  -30.5223 H   0  0  0  0  0  0  0  0  0  0  0  0
   -9.0475   17.6807  -32.5578 H   0  0  0  0  0  0  0  0  0  0  0  0
   -9.1267   17.5729  -30.7562 H   0  0  0  0  0  0  0  0  0  0  0  0
   -9.3583   19.5860  -33.6073 H   0  0  0  0  0  0  0  0  0  0  0  0
   -9.6956   21.1142  -32.7045 H   0  0  0  0  0  0  0  0  0  0  0  0
   -7.3693   20.9714  -33.7099 H   0  0  0  0  0  0  0  0  0  0  0  0
   -7.4154   21.2478  -31.9280 H   0  0  0  0  0  0  0  0  0  0  0  0
   -4.8933   22.5788  -31.7819 H   0  0  0  0  0  0  0  0  0  0  0  0
  1  2  1  0
  2  3  2  0
  2  4  1  0
  4  5  1  0
  5  6  1  0
  6  7  1  0
  6  8  2  0
  5  9  2  0
  9 10  1  0
 10 11  2  0
 11 12  1  0
 12 13  2  0
 13 14  1  0
 14 15  1  0
 15 16  2  0
 15 17  1  0
 17 18  1  0
 18 19  1  0
 19 20  1  0
 20 21  1  0
 21 22  1  0
 13 23  1  0
 23 24  2  0
 24  4  1  0
 24 10  1  0
 22 17  1  0
  1 25  1  0
  7 26  1  0
  7 27  1  0
  9 28  1  0
 11 29  1  0
 12 30  1  0
 14 31  1  0
 14 32  1  0
 18 33  1  0
 18 34  1  0
 19 35  1  0
 19 36  1  0
 21 37  1  0
 21 38  1  0
 22 39  1  0
 22 40  1  0
 23 41  1  0
M  CHG  1   1  -1
M  END
>  <UniqueID>  (74) 
74

>  <SMILES>  (74) 
[NH-]C(=O)n1c(C(N)=O)cc2ccc(CC(=O)N3CCOCC3)cc21

>  <Energy>  (74) 
84.08347664638607

>  <Genealogy>  (74) 
[NH-]C(=O)n1c(C(N)=O)cc2ccc(CC(=O)N3CCOCC3)cc21 (protonated)
[NH-]C(=O)n1c(C(N)=O)cc2ccc(CC(=O)N3CCOCC3)cc21 (3D coordinates assigned)
[NH-]C(=O)n1c(C(N)=O)cc2ccc(CC(=O)N3CCOCC3)cc21 (nonaromatic ring conformer: 84.08347664638607 kcal/mol)

>  <smiles>  (74) 
NC(=O)c1cc2ccc(CC(=O)N3CCOCC3)cc2n1C(N)=O

>  <score_type>  (74) 
oracle

>  <origin>  (74) 
adg

>  <m_score__min__energy>  (74) 
-9.5800000000000001

>  <m_primary>  (74) 
energy

$$$$
74:0
     RDKit          3D

 40 42  0  0  0  0  0  0  0  0999 V2000
   -4.9480   15.2200  -31.9580 C   0  0  0  0  0  0  0  0  0  0  0  0
   -5.1040   16.3950  -32.8870 C   0  0  0  0  0  0  0  0  0  0  0  0
   -5.6050   17.6080  -32.3800 C   0  0  0  0  0  0  0  0  0  0  0  0
   -5.7730   18.7270  -33.2130 C   0  0  0  0  0  0  0  0  0  0  0  0
   -6.2970   20.0030  -32.6640 C   0  0  0  0  0  0  0  0  0  0  0  0
   -7.6960   20.2390  -32.6090 C   0  0  0  0  0  0  0  0  0  0  0  0
   -8.2030   21.4360  -32.0800 C   0  0  0  0  0  0  0  0  0  0  0  0
   -7.2950   22.3850  -31.6220 C   0  0  0  0  0  0  0  0  0  0  0  0
   -7.5160   23.6100  -31.0370 C   0  0  0  0  0  0  0  0  0  0  0  0
   -6.2500   24.1230  -30.7690 C   0  0  0  0  0  0  0  0  0  0  0  0
   -6.0240   25.4650  -30.1970 C   0  0  0  0  0  0  0  0  0  0  0  0
   -6.4830   25.7960  -28.8860 N   0  0  0  0  0  0  0  0  0  0  0  0
   -5.3650   26.3150  -30.8530 O   0  0  0  0  0  0  0  0  0  0  0  0
   -5.2820   23.2460  -31.1580 N   0  0  0  0  0  0  0  0  0  0  0  0
   -3.8640   23.3560  -30.9410 C   0  0  0  0  0  0  0  0  0  0  0  0
   -3.3020   24.5800  -30.4730 N   0  0  0  0  0  0  0  0  0  0  0  0
   -3.1110   22.3690  -31.1530 O   0  0  0  0  0  0  0  0  0  0  0  0
   -5.9390   22.1870  -31.6810 C   0  0  0  0  0  0  0  0  0  0  0  0
   -5.4060   20.9940  -32.1860 C   0  0  0  0  0  0  0  0  0  0  0  0
   -5.4370   18.6210  -34.5700 C   0  0  0  0  0  0  0  0  0  0  0  0
   -4.9500   17.4210  -35.0890 C   0  0  0  0  0  0  0  0  0  0  0  0
   -4.7940   16.2950  -34.2660 C   0  0  0  0  0  0  0  0  0  0  0  0
   -4.2440   15.0240  -34.8690 C   0  0  0  0  0  0  0  0  0  0  0  0
   -2.8570   15.1290  -35.0360 O   0  0  0  0  0  0  0  0  0  0  0  0
   -4.9942   15.5681  -30.9156 H   0  0  0  0  0  0  0  0  0  0  0  0
   -5.7583   14.4986  -32.1399 H   0  0  0  0  0  0  0  0  0  0  0  0
   -3.9776   14.7350  -32.1399 H   0  0  0  0  0  0  0  0  0  0  0  0
   -5.8693   17.6815  -31.3148 H   0  0  0  0  0  0  0  0  0  0  0  0
   -8.3911   19.4742  -32.9857 H   0  0  0  0  0  0  0  0  0  0  0  0
   -9.2866   21.6183  -32.0291 H   0  0  0  0  0  0  0  0  0  0  0  0
   -8.4862   24.0834  -30.8259 H   0  0  0  0  0  0  0  0  0  0  0  0
   -6.3460   26.7620  -28.5110 H   0  0  0  0  0  0  0  0  0  0  0  0
   -6.8850   25.0690  -28.2550 H   0  0  0  0  0  0  0  0  0  0  0  0
   -3.3870   25.4570  -31.0330 H   0  0  0  0  0  0  0  0  0  0  0  0
   -4.3185   20.8307  -32.2106 H   0  0  0  0  0  0  0  0  0  0  0  0
   -5.5584   19.4916  -35.2313 H   0  0  0  0  0  0  0  0  0  0  0  0
   -4.6855   17.3568  -36.1548 H   0  0  0  0  0  0  0  0  0  0  0  0
   -4.4667   14.1788  -34.2011 H   0  0  0  0  0  0  0  0  0  0  0  0
   -4.7125   14.8602  -35.8506 H   0  0  0  0  0  0  0  0  0  0  0  0
   -2.5050   14.2010  -35.0760 H   0  0  0  0  0  0  0  0  0  0  0  0
  1  2  1  0
  2  3  2  0
  3  4  1  0
  4  5  1  0
  5  6  2  0
  6  7  1  0
  7  8  2  0
  8  9  1  0
  9 10  2  0
 10 11  1  0
 11 12  1  0
 11 13  2  0
 10 14  1  0
 14 15  1  0
 15 16  1  0
 15 17  2  0
 14 18  1  0
 18 19  2  0
  4 20  2  0
 20 21  1  0
 21 22  2  0
 22 23  1  0
 23 24  1  0
 22  2  1  0
 19  5  1  0
 18  8  1  0
  1 25  1  0
  1 26  1  0
  1 27  1  0
  3 28  1  0
  6 29  1  0
  7 30  1  0
  9 31  1  0
 12 32  1  0
 12 33  1  0
 16 34  1  0
 19 35  1  0
 20 36  1  0
 21 37  1  0
 23 38  1  0
 23 39  1  0
 24 40  1  0
M  CHG  1  16  -1
M  END
>  <UniqueID>  (75) 
75

>  <SMILES>  (75) 
Cc1cc(-c2ccc3cc(C(N)=O)n(C([NH-])=O)c3c2)ccc1CO

>  <Energy>  (75) 
87.76125051262167

>  <Genealogy>  (75) 
Cc1cc(-c2ccc3cc(C(N)=O)n(C([NH-])=O)c3c2)ccc1CO (protonated)
Cc1cc(-c2ccc3cc(C(N)=O)n(C([NH-])=O)c3c2)ccc1CO (3D coordinates assigned)
Cc1cc(-c2ccc3cc(C(N)=O)n(C([NH-])=O)c3c2)ccc1CO (optimized conformer: 87.76125051262167 kcal/mol)

>  <smiles>  (75) 
Cc1cc(-c2ccc3cc(C(N)=O)n(C(N)=O)c3c2)ccc1CO

>  <score_type>  (75) 
oracle

>  <origin>  (75) 
adg

>  <m_score__min__energy>  (75) 
-9.7200000000000006

>  <m_primary>  (75) 
energy

$$$$
75:0
     RDKit          3D

 38 39  0  0  0  0  0  0  0  0999 V2000
   -3.3890   21.8380  -30.1980 C   0  0  0  0  0  0  0  0  0  0  0  0
   -4.1840   22.1290  -31.4300 C   0  0  0  0  0  0  0  0  0  0  0  0
   -3.6880   21.8720  -32.5600 O   0  0  0  0  0  0  0  0  0  0  0  0
   -5.5310   22.6170  -31.3380 N   0  0  0  0  0  0  0  0  0  0  0  0
   -5.9560   23.8450  -30.9250 C   0  0  0  0  0  0  0  0  0  0  0  0
   -5.0910   25.0040  -30.6220 C   0  0  0  0  0  0  0  0  0  0  0  0
   -3.6730   24.9060  -30.7200 N   0  0  0  0  0  0  0  0  0  0  0  0
   -5.6130   26.1080  -30.3120 O   0  0  0  0  0  0  0  0  0  0  0  0
   -7.3490   23.8960  -30.9000 C   0  0  0  0  0  0  0  0  0  0  0  0
   -7.7670   22.6540  -31.3260 C   0  0  0  0  0  0  0  0  0  0  0  0
   -9.0530   22.1490  -31.4970 C   0  0  0  0  0  0  0  0  0  0  0  0
   -9.1850   20.8230  -31.9380 C   0  0  0  0  0  0  0  0  0  0  0  0
   -8.0390   20.0250  -32.1860 C   0  0  0  0  0  0  0  0  0  0  0  0
   -8.1950   18.6150  -32.6870 C   0  0  0  0  0  0  0  0  0  0  0  0
   -6.8970   17.8240  -32.4780 C   0  0  0  0  0  0  0  0  0  0  0  0
   -5.9300   17.9480  -33.6660 C   0  0  0  0  0  0  0  0  0  0  0  0
   -4.5060   18.3240  -33.2330 C   0  0  0  0  0  0  0  0  0  0  0  0
   -4.1350   19.6140  -33.8070 N   0  0  0  0  0  0  0  0  0  0  0  0
   -6.7500   20.5760  -32.0140 C   0  0  0  0  0  0  0  0  0  0  0  0
   -6.6490   21.9040  -31.5840 C   0  0  0  0  0  0  0  0  0  0  0  0
   -3.9967   22.0604  -29.3085 H   0  0  0  0  0  0  0  0  0  0  0  0
   -3.1014   20.7763  -30.1895 H   0  0  0  0  0  0  0  0  0  0  0  0
   -2.4839   22.4631  -30.1895 H   0  0  0  0  0  0  0  0  0  0  0  0
   -3.1140   25.6520  -31.1910 H   0  0  0  0  0  0  0  0  0  0  0  0
   -7.9801   24.7467  -30.6033 H   0  0  0  0  0  0  0  0  0  0  0  0
   -9.9379   22.7697  -31.2929 H   0  0  0  0  0  0  0  0  0  0  0  0
  -10.1878   20.3983  -32.0929 H   0  0  0  0  0  0  0  0  0  0  0  0
   -9.0110   18.1235  -32.1369 H   0  0  0  0  0  0  0  0  0  0  0  0
   -8.4255   18.6429  -33.7622 H   0  0  0  0  0  0  0  0  0  0  0  0
   -6.3956   18.2024  -31.5750 H   0  0  0  0  0  0  0  0  0  0  0  0
   -7.1669   16.7623  -32.3783 H   0  0  0  0  0  0  0  0  0  0  0  0
   -5.8945   16.9832  -34.1932 H   0  0  0  0  0  0  0  0  0  0  0  0
   -6.3034   18.7529  -34.3162 H   0  0  0  0  0  0  0  0  0  0  0  0
   -4.4635   18.3876  -32.1357 H   0  0  0  0  0  0  0  0  0  0  0  0
   -3.8049   17.5548  -33.5890 H   0  0  0  0  0  0  0  0  0  0  0  0
   -4.8470   20.3210  -33.5130 H   0  0  0  0  0  0  0  0  0  0  0  0
   -3.2290   19.9060  -33.3720 H   0  0  0  0  0  0  0  0  0  0  0  0
   -5.8490   19.9770  -32.2128 H   0  0  0  0  0  0  0  0  0  0  0  0
  1  2  1  0
  2  3  2  0
  2  4  1  0
  4  5  1  0
  5  6  1  0
  6  7  1  0
  6  8  2  0
  5  9  2  0
  9 10  1  0
 10 11  2  0
 11 12  1  0
 12 13  2  0
 13 14  1  0
 14 15  1  0
 15 16  1  0
 16 17  1  0
 17 18  1  0
 13 19  1  0
 19 20  2  0
 20  4  1  0
 20 10  1  0
  1 21  1  0
  1 22  1  0
  1 23  1  0
  7 24  1  0
  9 25  1  0
 11 26  1  0
 12 27  1  0
 14 28  1  0
 14 29  1  0
 15 30  1  0
 15 31  1  0
 16 32  1  0
 16 33  1  0
 17 34  1  0
 17 35  1  0
 18 36  1  0
 18 37  1  0
 19 38  1  0
M  CHG  1   7  -1
M  END
>  <UniqueID>  (76) 
76

>  <SMILES>  (76) 
CC(=O)n1c(C([NH-])=O)cc2ccc(CCCCN)cc21

>  <Energy>  (76) 
69.50417062386263

>  <Genealogy>  (76) 
CC(=O)n1c(C([NH-])=O)cc2ccc(CCCCN)cc21 (protonated)
CC(=O)n1c(C([NH-])=O)cc2ccc(CCCCN)cc21 (3D coordinates assigned)
CC(=O)n1c(C([NH-])=O)cc2ccc(CCCCN)cc21 (optimized conformer: 69.50417062386263 kcal/mol)

>  <smiles>  (76) 
CC(=O)n1c(C(N)=O)cc2ccc(CCCCN)cc21

>  <score_type>  (76) 
oracle

>  <origin>  (76) 
adg

>  <m_score__min__energy>  (76) 
-9.9800000000000004

>  <m_primary>  (76) 
energy

$$$$
76:0
     RDKit          3D

 36 39  0  0  0  0  0  0  0  0999 V2000
   -2.1690   19.4600  -33.8880 C   0  0  0  0  0  0  0  0  0  0  0  0
   -2.8180   18.3530  -34.5010 O   0  0  0  0  0  0  0  0  0  0  0  0
   -3.3730   17.3030  -33.7640 C   0  0  0  0  0  0  0  0  0  0  0  0
   -2.6280   16.4410  -33.2220 O   0  0  0  0  0  0  0  0  0  0  0  0
   -4.8000   17.1930  -33.6440 N   0  0  0  0  0  0  0  0  0  0  0  0
   -5.5680   16.0840  -33.8370 C   0  0  0  0  0  0  0  0  0  0  0  0
   -5.1070   14.7940  -34.3890 C   0  0  0  0  0  0  0  0  0  0  0  0
   -3.9150   14.7130  -35.1680 N   0  0  0  0  0  0  0  0  0  0  0  0
   -5.7990   13.7560  -34.2130 O   0  0  0  0  0  0  0  0  0  0  0  0
   -6.8990   16.3480  -33.5190 C   0  0  0  0  0  0  0  0  0  0  0  0
   -6.9240   17.6680  -33.1280 C   0  0  0  0  0  0  0  0  0  0  0  0
   -7.9890   18.4510  -32.6960 C   0  0  0  0  0  0  0  0  0  0  0  0
   -7.7220   19.7790  -32.3260 C   0  0  0  0  0  0  0  0  0  0  0  0
   -6.4020   20.3000  -32.3870 C   0  0  0  0  0  0  0  0  0  0  0  0
   -6.1310   21.7020  -31.9810 C   0  0  0  0  0  0  0  0  0  0  0  0
   -7.1820   22.6640  -31.9640 C   0  0  0  0  0  0  0  0  0  0  0  0
   -6.9360   23.9960  -31.5800 C   0  0  0  0  0  0  0  0  0  0  0  0
   -5.6350   24.3290  -31.2230 C   0  0  0  0  0  0  0  0  0  0  0  0
   -5.1440   25.5100  -30.8230 N   0  0  0  0  0  0  0  0  0  0  0  0
   -3.8480   25.2960  -30.6010 N   0  0  0  0  0  0  0  0  0  0  0  0
   -3.5000   24.0330  -30.8420 N   0  0  0  0  0  0  0  0  0  0  0  0
   -4.6270   23.4240  -31.2360 C   0  0  0  0  0  0  0  0  0  0  0  0
   -4.8210   22.0970  -31.6070 C   0  0  0  0  0  0  0  0  0  0  0  0
   -5.3470   19.4690  -32.8330 C   0  0  0  0  0  0  0  0  0  0  0  0
   -5.6460   18.1550  -33.2110 C   0  0  0  0  0  0  0  0  0  0  0  0
   -2.2278   19.3598  -32.7942 H   0  0  0  0  0  0  0  0  0  0  0  0
   -1.1138   19.4840  -34.1978 H   0  0  0  0  0  0  0  0  0  0  0  0
   -2.6634   20.3925  -34.1978 H   0  0  0  0  0  0  0  0  0  0  0  0
   -3.1430   15.4050  -35.0400 H   0  0  0  0  0  0  0  0  0  0  0  0
   -7.7482   15.6507  -33.5696 H   0  0  0  0  0  0  0  0  0  0  0  0
   -9.0091   18.0426  -32.6457 H   0  0  0  0  0  0  0  0  0  0  0  0
   -8.5453   20.4238  -31.9847 H   0  0  0  0  0  0  0  0  0  0  0  0
   -8.1990   22.3620  -32.2547 H   0  0  0  0  0  0  0  0  0  0  0  0
   -7.7423   24.7440  -31.5632 H   0  0  0  0  0  0  0  0  0  0  0  0
   -3.9874   21.3792  -31.6101 H   0  0  0  0  0  0  0  0  0  0  0  0
   -4.3152   19.8472  -32.8815 H   0  0  0  0  0  0  0  0  0  0  0  0
  1  2  1  0
  2  3  1  0
  3  4  2  0
  3  5  1  0
  5  6  1  0
  6  7  1  0
  7  8  1  0
  7  9  2  0
  6 10  2  0
 10 11  1  0
 11 12  2  0
 12 13  1  0
 13 14  2  0
 14 15  1  0
 15 16  1  0
 16 17  2  0
 17 18  1  0
 18 19  2  0
 19 20  1  0
 20 21  1  0
 21 22  2  0
 22 23  1  0
 14 24  1  0
 24 25  2  0
 25  5  1  0
 25 11  1  0
 23 15  2  0
 22 18  1  0
  1 26  1  0
  1 27  1  0
  1 28  1  0
  8 29  1  0
 10 30  1  0
 12 31  1  0
 13 32  1  0
 16 33  1  0
 17 34  1  0
 23 35  1  0
 24 36  1  0
M  CHG  2   8  -1  20  -1
M  END
>  <UniqueID>  (77) 
77

>  <SMILES>  (77) 
COC(=O)n1c(C([NH-])=O)cc2ccc(-c3ccc4n[n-]nc4c3)cc21

>  <Energy>  (77) 
126.0771160705706

>  <Genealogy>  (77) 
COC(=O)n1c(C([NH-])=O)cc2ccc(-c3ccc4n[n-]nc4c3)cc21 (protonated)
COC(=O)n1c(C([NH-])=O)cc2ccc(-c3ccc4n[n-]nc4c3)cc21 (3D coordinates assigned)
COC(=O)n1c(C([NH-])=O)cc2ccc(-c3ccc4n[n-]nc4c3)cc21 (optimized conformer: 126.0771160705706 kcal/mol)

>  <smiles>  (77) 
COC(=O)n1c(C(N)=O)cc2ccc(-c3ccc4n[nH]nc4c3)cc21

>  <score_type>  (77) 
oracle

>  <origin>  (77) 
adg

>  <m_score__min__energy>  (77) 
-10.390000000000001

>  <m_primary>  (77) 
energy

$$$$
77:0
     RDKit          3D

 31 32  0  0  0  0  0  0  0  0999 V2000
   -3.1510   22.3110  -29.9360 C   0  0  0  0  0  0  0  0  0  0  0  0
   -3.9050   22.4100  -31.2240 C   0  0  0  0  0  0  0  0  0  0  0  0
   -3.2810   22.3050  -32.3140 O   0  0  0  0  0  0  0  0  0  0  0  0
   -5.3100   22.7040  -31.2330 N   0  0  0  0  0  0  0  0  0  0  0  0
   -5.9260   23.8880  -30.9570 C   0  0  0  0  0  0  0  0  0  0  0  0
   -5.2700   25.1030  -30.4280 C   0  0  0  0  0  0  0  0  0  0  0  0
   -3.8680   25.3020  -30.5760 N   0  0  0  0  0  0  0  0  0  0  0  0
   -5.9520   25.9590  -29.8030 O   0  0  0  0  0  0  0  0  0  0  0  0
   -7.3010   23.7830  -31.1650 C   0  0  0  0  0  0  0  0  0  0  0  0
   -7.5100   22.4840  -31.5700 C   0  0  0  0  0  0  0  0  0  0  0  0
   -8.6880   21.8330  -31.9230 C   0  0  0  0  0  0  0  0  0  0  0  0
   -8.6020   20.4900  -32.3270 C   0  0  0  0  0  0  0  0  0  0  0  0
   -7.3500   19.8260  -32.3660 C   0  0  0  0  0  0  0  0  0  0  0  0
   -7.2640   18.3980  -32.8390 C   0  0  0  0  0  0  0  0  0  0  0  0
   -6.0850   18.1990  -33.7910 C   0  0  0  0  0  0  0  0  0  0  0  0
   -6.1240   19.1570  -34.8130 O   0  0  0  0  0  0  0  0  0  0  0  0
   -6.1750   20.5230  -32.0100 C   0  0  0  0  0  0  0  0  0  0  0  0
   -6.2930   21.8550  -31.6010 C   0  0  0  0  0  0  0  0  0  0  0  0
   -3.8516   22.4030  -29.0930 H   0  0  0  0  0  0  0  0  0  0  0  0
   -2.6404   21.3381  -29.8839 H   0  0  0  0  0  0  0  0  0  0  0  0
   -2.4065   23.1191  -29.8839 H   0  0  0  0  0  0  0  0  0  0  0  0
   -3.4930   26.0390  -31.2120 H   0  0  0  0  0  0  0  0  0  0  0  0
   -8.0576   24.5706  -31.0334 H   0  0  0  0  0  0  0  0  0  0  0  0
   -9.6564   22.3535  -31.8869 H   0  0  0  0  0  0  0  0  0  0  0  0
   -9.5149   19.9486  -32.6158 H   0  0  0  0  0  0  0  0  0  0  0  0
   -7.1363   17.7389  -31.9677 H   0  0  0  0  0  0  0  0  0  0  0  0
   -8.1911   18.1542  -33.3785 H   0  0  0  0  0  0  0  0  0  0  0  0
   -5.1438   18.3025  -33.2311 H   0  0  0  0  0  0  0  0  0  0  0  0
   -6.1473   17.1950  -34.2362 H   0  0  0  0  0  0  0  0  0  0  0  0
   -7.0840   19.3030  -35.0160 H   0  0  0  0  0  0  0  0  0  0  0  0
   -5.1921   20.0310  -32.0532 H   0  0  0  0  0  0  0  0  0  0  0  0
  1  2  1  0
  2  3  2  0
  2  4  1  0
  4  5  1  0
  5  6  1  0
  6  7  1  0
  6  8  2  0
  5  9  2  0
  9 10  1  0
 10 11  2  0
 11 12  1  0
 12 13  2  0
 13 14  1  0
 14 15  1  0
 15 16  1  0
 13 17  1  0
 17 18  2  0
 18  4  1  0
 18 10  1  0
  1 19  1  0
  1 20  1  0
  1 21  1  0
  7 22  1  0
  9 23  1  0
 11 24  1  0
 12 25  1  0
 14 26  1  0
 14 27  1  0
 15 28  1  0
 15 29  1  0
 16 30  1  0
 17 31  1  0
M  CHG  1   7  -1
M  END
>  <UniqueID>  (78) 
78

>  <SMILES>  (78) 
CC(=O)n1c(C([NH-])=O)cc2ccc(CCO)cc21

>  <Energy>  (78) 
67.12459249237781

>  <Genealogy>  (78) 
CC(=O)n1c(C([NH-])=O)cc2ccc(CCO)cc21 (protonated)
CC(=O)n1c(C([NH-])=O)cc2ccc(CCO)cc21 (3D coordinates assigned)
CC(=O)n1c(C([NH-])=O)cc2ccc(CCO)cc21 (optimized conformer: 67.12459249237781 kcal/mol)

>  <smiles>  (78) 
CC(=O)n1c(C(N)=O)cc2ccc(CCO)cc21

>  <score_type>  (78) 
oracle

>  <origin>  (78) 
adg

>  <m_score__min__energy>  (78) 
-9.9800000000000004

>  <m_primary>  (78) 
energy

$$$$
78:0
     RDKit          3D

 41 43  0  0  0  0  0  0  0  0999 V2000
   -3.4820   23.5100  -28.0910 C   0  0  0  0  0  0  0  0  0  0  0  0
   -2.9490   22.4960  -29.0880 C   0  0  0  0  0  0  0  0  0  0  0  0
   -2.8100   23.1130  -30.3640 O   0  0  0  0  0  0  0  0  0  0  0  0
   -3.5530   22.7210  -31.4800 C   0  0  0  0  0  0  0  0  0  0  0  0
   -2.9720   22.2760  -32.5070 O   0  0  0  0  0  0  0  0  0  0  0  0
   -4.9840   22.8580  -31.4650 N   0  0  0  0  0  0  0  0  0  0  0  0
   -5.7270   23.8810  -30.9520 C   0  0  0  0  0  0  0  0  0  0  0  0
   -5.2000   25.1510  -30.4100 C   0  0  0  0  0  0  0  0  0  0  0  0
   -3.9320   25.6350  -30.8440 N   0  0  0  0  0  0  0  0  0  0  0  0
   -5.8400   25.7960  -29.5370 O   0  0  0  0  0  0  0  0  0  0  0  0
   -7.0870   23.6090  -31.0820 C   0  0  0  0  0  0  0  0  0  0  0  0
   -7.1570   22.3830  -31.7030 C   0  0  0  0  0  0  0  0  0  0  0  0
   -8.2660   21.6270  -32.0690 C   0  0  0  0  0  0  0  0  0  0  0  0
   -8.0430   20.3810  -32.6760 C   0  0  0  0  0  0  0  0  0  0  0  0
   -6.7230   19.9120  -32.9040 C   0  0  0  0  0  0  0  0  0  0  0  0
   -6.5010   18.6230  -33.5090 N   0  0  0  0  0  0  0  0  0  0  0  0
   -5.6300   18.4890  -34.6850 C   0  0  0  0  0  0  0  0  0  0  0  0
   -4.7900   17.1930  -34.6080 C   0  0  0  0  0  0  0  0  0  0  0  0
   -5.1940   16.3070  -33.5750 O   0  0  0  0  0  0  0  0  0  0  0  0
   -6.5980   16.1660  -33.5710 C   0  0  0  0  0  0  0  0  0  0  0  0
   -7.2350   17.4470  -33.0280 C   0  0  0  0  0  0  0  0  0  0  0  0
   -5.6240   20.7050  -32.5070 C   0  0  0  0  0  0  0  0  0  0  0  0
   -5.8760   21.9520  -31.9250 C   0  0  0  0  0  0  0  0  0  0  0  0
   -3.2939   23.1522  -27.0680 H   0  0  0  0  0  0  0  0  0  0  0  0
   -2.9741   24.4740  -28.2414 H   0  0  0  0  0  0  0  0  0  0  0  0
   -4.5641   23.6383  -28.2414 H   0  0  0  0  0  0  0  0  0  0  0  0
   -1.9689   22.1291  -28.7494 H   0  0  0  0  0  0  0  0  0  0  0  0
   -3.6504   21.6520  -29.1632 H   0  0  0  0  0  0  0  0  0  0  0  0
   -3.0460   25.2630  -30.4370 H   0  0  0  0  0  0  0  0  0  0  0  0
   -7.9270   24.2405  -30.7571 H   0  0  0  0  0  0  0  0  0  0  0  0
   -9.2869   21.9945  -31.8882 H   0  0  0  0  0  0  0  0  0  0  0  0
   -8.9004   19.7616  -32.9781 H   0  0  0  0  0  0  0  0  0  0  0  0
   -6.2519   18.4612  -35.5919 H   0  0  0  0  0  0  0  0  0  0  0  0
   -4.9451   19.3493  -34.7135 H   0  0  0  0  0  0  0  0  0  0  0  0
   -4.8767   16.6663  -35.5698 H   0  0  0  0  0  0  0  0  0  0  0  0
   -3.7563   17.4950  -34.3839 H   0  0  0  0  0  0  0  0  0  0  0  0
   -6.9519   15.9863  -34.5969 H   0  0  0  0  0  0  0  0  0  0  0  0
   -6.8804   15.3157  -32.9329 H   0  0  0  0  0  0  0  0  0  0  0  0
   -8.2791   17.5061  -33.3692 H   0  0  0  0  0  0  0  0  0  0  0  0
   -7.1988   17.4270  -31.9288 H   0  0  0  0  0  0  0  0  0  0  0  0
   -4.5930   20.3502  -32.6521 H   0  0  0  0  0  0  0  0  0  0  0  0
  1  2  1  0
  2  3  1  0
  3  4  1  0
  4  5  2  0
  4  6  1  0
  6  7  1  0
  7  8  1  0
  8  9  1  0
  8 10  2  0
  7 11  2  0
 11 12  1  0
 12 13  2  0
 13 14  1  0
 14 15  2  0
 15 16  1  0
 16 17  1  0
 17 18  1  0
 18 19  1  0
 19 20  1  0
 20 21  1  0
 15 22  1  0
 22 23  2  0
 23  6  1  0
 23 12  1  0
 21 16  1  0
  1 24  1  0
  1 25  1  0
  1 26  1  0
  2 27  1  0
  2 28  1  0
  9 29  1  0
 11 30  1  0
 13 31  1  0
 14 32  1  0
 17 33  1  0
 17 34  1  0
 18 35  1  0
 18 36  1  0
 20 37  1  0
 20 38  1  0
 21 39  1  0
 21 40  1  0
 22 41  1  0
M  CHG  1   9  -1
M  END
>  <UniqueID>  (79) 
79

>  <SMILES>  (79) 
CCOC(=O)n1c(C([NH-])=O)cc2ccc(N3CCOCC3)cc21

>  <Energy>  (79) 
86.30682010689458

>  <Genealogy>  (79) 
CCOC(=O)n1c(C([NH-])=O)cc2ccc(N3CCOCC3)cc21 (protonated)
CCOC(=O)n1c(C([NH-])=O)cc2ccc(N3CCOCC3)cc21 (3D coordinates assigned)
CCOC(=O)n1c(C([NH-])=O)cc2ccc(N3CCOCC3)cc21 (nonaromatic ring conformer: 86.30682010689458 kcal/mol)

>  <smiles>  (79) 
CCOC(=O)n1c(C(N)=O)cc2ccc(N3CCOCC3)cc21

>  <score_type>  (79) 
oracle

>  <origin>  (79) 
adg

>  <m_score__min__energy>  (79) 
-10

>  <m_primary>  (79) 
energy

$$$$
79:0
     RDKit          3D

 28 29  0  0  0  0  0  0  0  0999 V2000
   -3.2070   21.8740  -32.3630 C   0  0  0  0  0  0  0  0  0  0  0  0
   -3.8960   22.6120  -31.2600 C   0  0  0  0  0  0  0  0  0  0  0  0
   -3.2050   23.1310  -30.3430 O   0  0  0  0  0  0  0  0  0  0  0  0
   -5.3290   22.7230  -31.2220 N   0  0  0  0  0  0  0  0  0  0  0  0
   -6.0580   23.8270  -30.9010 C   0  0  0  0  0  0  0  0  0  0  0  0
   -5.5150   25.1000  -30.3830 C   0  0  0  0  0  0  0  0  0  0  0  0
   -4.2050   25.5470  -30.7330 N   0  0  0  0  0  0  0  0  0  0  0  0
   -6.2050   25.7820  -29.5770 O   0  0  0  0  0  0  0  0  0  0  0  0
   -7.4160   23.5980  -31.1080 C   0  0  0  0  0  0  0  0  0  0  0  0
   -7.5000   22.3030  -31.5660 C   0  0  0  0  0  0  0  0  0  0  0  0
   -8.6130   21.5610  -31.9490 C   0  0  0  0  0  0  0  0  0  0  0  0
   -8.4030   20.2580  -32.4300 C   0  0  0  0  0  0  0  0  0  0  0  0
   -7.0920   19.7350  -32.5430 C   0  0  0  0  0  0  0  0  0  0  0  0
   -6.8810   18.3360  -33.0410 C   0  0  0  0  0  0  0  0  0  0  0  0
   -7.3520   17.4370  -32.1030 F   0  0  0  0  0  0  0  0  0  0  0  0
   -5.9860   20.5130  -32.1350 C   0  0  0  0  0  0  0  0  0  0  0  0
   -6.2260   21.7970  -31.6340 C   0  0  0  0  0  0  0  0  0  0  0  0
   -2.5160   21.1339  -31.9332 H   0  0  0  0  0  0  0  0  0  0  0  0
   -3.9556   21.3597  -32.9836 H   0  0  0  0  0  0  0  0  0  0  0  0
   -2.6426   22.5855  -32.9836 H   0  0  0  0  0  0  0  0  0  0  0  0
   -3.5380   24.9240  -31.2380 H   0  0  0  0  0  0  0  0  0  0  0  0
   -3.8620   26.4750  -30.3980 H   0  0  0  0  0  0  0  0  0  0  0  0
   -8.2446   24.3020  -30.9411 H   0  0  0  0  0  0  0  0  0  0  0  0
   -9.6267   21.9820  -31.8773 H   0  0  0  0  0  0  0  0  0  0  0  0
   -9.2642   19.6388  -32.7213 H   0  0  0  0  0  0  0  0  0  0  0  0
   -7.4250   18.1976  -33.9870 H   0  0  0  0  0  0  0  0  0  0  0  0
   -5.8073   18.1639  -33.2069 H   0  0  0  0  0  0  0  0  0  0  0  0
   -4.9616   20.1192  -32.2093 H   0  0  0  0  0  0  0  0  0  0  0  0
  1  2  1  0
  2  3  2  0
  2  4  1  0
  4  5  1  0
  5  6  1  0
  6  7  1  0
  6  8  2  0
  5  9  2  0
  9 10  1  0
 10 11  2  0
 11 12  1  0
 12 13  2  0
 13 14  1  0
 14 15  1  0
 13 16  1  0
 16 17  2  0
 17  4  1  0
 17 10  1  0
  1 18  1  0
  1 19  1  0
  1 20  1  0
  7 21  1  0
  7 22  1  0
  9 23  1  0
 11 24  1  0
 12 25  1  0
 14 26  1  0
 14 27  1  0
 16 28  1  0
M  END
>  <UniqueID>  (80) 
80

>  <SMILES>  (80) 
CC(=O)n1c(C(N)=O)cc2ccc(CF)cc21

>  <Energy>  (80) 
66.8403635835006

>  <Genealogy>  (80) 
CC(=O)n1c(C(N)=O)cc2ccc(CF)cc21 (3D coordinates assigned)
CC(=O)n1c(C(N)=O)cc2ccc(CF)cc21 (optimized conformer: 66.8403635835006 kcal/mol)

>  <smiles>  (80) 
CC(=O)n1c(C(N)=O)cc2ccc(CF)cc21

>  <score_type>  (80) 
oracle

>  <origin>  (80) 
adg

>  <m_score__min__energy>  (80) 
-7.25

>  <m_primary>  (80) 
energy

$$$$
80:0
     RDKit          3D

 32 33  0  0  0  0  0  0  0  0999 V2000
   -5.6310   26.4700  -30.2170 N   0  0  0  0  0  0  0  0  0  0  0  0
   -6.4090   25.3010  -29.9590 C   0  0  0  0  0  0  0  0  0  0  0  0
   -7.2300   25.3040  -29.0040 O   0  0  0  0  0  0  0  0  0  0  0  0
   -6.2190   24.0680  -30.7470 C   0  0  0  0  0  0  0  0  0  0  0  0
   -7.2690   23.3510  -31.3120 C   0  0  0  0  0  0  0  0  0  0  0  0
   -6.6860   22.2490  -31.8940 C   0  0  0  0  0  0  0  0  0  0  0  0
   -7.2670   21.2030  -32.6040 C   0  0  0  0  0  0  0  0  0  0  0  0
   -6.4210   20.2100  -33.1230 C   0  0  0  0  0  0  0  0  0  0  0  0
   -5.0180   20.2890  -32.9390 C   0  0  0  0  0  0  0  0  0  0  0  0
   -4.1250   19.2070  -33.4900 C   0  0  0  0  0  0  0  0  0  0  0  0
   -2.6900   19.3170  -32.9530 C   0  0  0  0  0  0  0  0  0  0  0  0
   -1.7550   20.0380  -33.9270 C   0  0  0  0  0  0  0  0  0  0  0  0
   -1.8060   21.4160  -33.6870 O   0  0  0  0  0  0  0  0  0  0  0  0
   -4.4640   21.3650  -32.2110 C   0  0  0  0  0  0  0  0  0  0  0  0
   -5.3330   22.3290  -31.6840 C   0  0  0  0  0  0  0  0  0  0  0  0
   -5.0290   23.4450  -30.9810 N   0  0  0  0  0  0  0  0  0  0  0  0
   -3.7140   23.9330  -30.6640 C   0  0  0  0  0  0  0  0  0  0  0  0
   -2.7440   23.1370  -30.5640 O   0  0  0  0  0  0  0  0  0  0  0  0
   -3.4990   25.2920  -30.4710 O   0  0  0  0  0  0  0  0  0  0  0  0
   -5.8040   27.3450  -29.6720 H   0  0  0  0  0  0  0  0  0  0  0  0
   -4.8320   26.4480  -30.8870 H   0  0  0  0  0  0  0  0  0  0  0  0
   -8.3379   23.6101  -31.2967 H   0  0  0  0  0  0  0  0  0  0  0  0
   -8.3557   21.1555  -32.7541 H   0  0  0  0  0  0  0  0  0  0  0  0
   -6.8511   19.3629  -33.6775 H   0  0  0  0  0  0  0  0  0  0  0  0
   -4.5367   18.2275  -33.2054 H   0  0  0  0  0  0  0  0  0  0  0  0
   -4.0884   19.3204  -34.5835 H   0  0  0  0  0  0  0  0  0  0  0  0
   -2.7096   19.8741  -32.0047 H   0  0  0  0  0  0  0  0  0  0  0  0
   -2.3055   18.2959  -32.8134 H   0  0  0  0  0  0  0  0  0  0  0  0
   -0.7257   19.6781  -33.7819 H   0  0  0  0  0  0  0  0  0  0  0  0
   -2.0721   19.8332  -34.9602 H   0  0  0  0  0  0  0  0  0  0  0  0
   -2.0710   21.8350  -34.5460 H   0  0  0  0  0  0  0  0  0  0  0  0
   -3.3771   21.4441  -32.0615 H   0  0  0  0  0  0  0  0  0  0  0  0
  1  2  1  0
  2  3  2  0
  2  4  1  0
  4  5  2  0
  5  6  1  0
  6  7  2  0
  7  8  1  0
  8  9  2  0
  9 10  1  0
 10 11  1  0
 11 12  1  0
 12 13  1  0
  9 14  1  0
 14 15  2  0
 15 16  1  0
 16 17  1  0
 17 18  2  0
 17 19  1  0
 16  4  1  0
 15  6  1  0
  1 20  1  0
  1 21  1  0
  5 22  1  0
  7 23  1  0
  8 24  1  0
 10 25  1  0
 10 26  1  0
 11 27  1  0
 11 28  1  0
 12 29  1  0
 12 30  1  0
 13 31  1  0
 14 32  1  0
M  CHG  1  19  -1
M  END
>  <UniqueID>  (81) 
81

>  <SMILES>  (81) 
NC(=O)c1cc2ccc(CCCO)cc2n1C(=O)[O-]

>  <Energy>  (81) 
67.10383331211972

>  <Genealogy>  (81) 
NC(=O)c1cc2ccc(CCCO)cc2n1C(=O)[O-] (protonated)
NC(=O)c1cc2ccc(CCCO)cc2n1C(=O)[O-] (3D coordinates assigned)
NC(=O)c1cc2ccc(CCCO)cc2n1C(=O)[O-] (optimized conformer: 67.10383331211972 kcal/mol)

>  <smiles>  (81) 
NC(=O)c1cc2ccc(CCCO)cc2n1C(=O)O

>  <score_type>  (81) 
oracle

>  <origin>  (81) 
adg

>  <m_score__min__energy>  (81) 
-8.3599999999999994

>  <m_primary>  (81) 
energy

$$$$
81:0
     RDKit          3D

 37 38  0  0  0  0  0  0  0  0999 V2000
   -1.1380   22.2690  -29.7070 C   0  0  0  0  0  0  0  0  0  0  0  0
   -2.4030   23.1210  -29.5090 C   0  0  0  0  0  0  0  0  0  0  0  0
   -2.0340   24.3960  -28.7280 C   0  0  0  0  0  0  0  0  0  0  0  0
   -3.4440   22.2860  -28.7330 C   0  0  0  0  0  0  0  0  0  0  0  0
   -2.8850   23.4660  -30.8160 O   0  0  0  0  0  0  0  0  0  0  0  0
   -3.6530   22.6560  -31.6660 C   0  0  0  0  0  0  0  0  0  0  0  0
   -3.1020   21.9180  -32.5230 O   0  0  0  0  0  0  0  0  0  0  0  0
   -5.0870   22.6790  -31.5550 N   0  0  0  0  0  0  0  0  0  0  0  0
   -5.8460   23.5710  -30.8570 C   0  0  0  0  0  0  0  0  0  0  0  0
   -5.3650   24.8190  -30.2280 C   0  0  0  0  0  0  0  0  0  0  0  0
   -5.7640   25.1820  -28.9040 N   0  0  0  0  0  0  0  0  0  0  0  0
   -4.5320   25.5390  -30.8430 O   0  0  0  0  0  0  0  0  0  0  0  0
   -7.1860   23.1990  -30.8730 C   0  0  0  0  0  0  0  0  0  0  0  0
   -7.2350   22.0500  -31.6240 C   0  0  0  0  0  0  0  0  0  0  0  0
   -8.3250   21.2540  -31.9690 C   0  0  0  0  0  0  0  0  0  0  0  0
   -8.0840   20.1100  -32.7470 C   0  0  0  0  0  0  0  0  0  0  0  0
   -6.7710   19.7790  -33.1510 C   0  0  0  0  0  0  0  0  0  0  0  0
   -6.5410   18.6090  -33.9340 N   0  0  0  0  0  0  0  0  0  0  0  0
   -5.6870   20.6050  -32.7790 C   0  0  0  0  0  0  0  0  0  0  0  0
   -5.9560   21.7520  -32.0240 C   0  0  0  0  0  0  0  0  0  0  0  0
   -0.7257   21.9913  -28.7257 H   0  0  0  0  0  0  0  0  0  0  0  0
   -1.3935   21.3582  -30.2684 H   0  0  0  0  0  0  0  0  0  0  0  0
   -0.3901   22.8481  -30.2684 H   0  0  0  0  0  0  0  0  0  0  0  0
   -2.0924   24.1944  -27.6482 H   0  0  0  0  0  0  0  0  0  0  0  0
   -1.0103   24.7025  -28.9890 H   0  0  0  0  0  0  0  0  0  0  0  0
   -2.7358   25.2019  -28.9890 H   0  0  0  0  0  0  0  0  0  0  0  0
   -3.2846   22.4139  -27.6521 H   0  0  0  0  0  0  0  0  0  0  0  0
   -4.4566   22.6252  -28.9970 H   0  0  0  0  0  0  0  0  0  0  0  0
   -3.3326   21.2240  -28.9970 H   0  0  0  0  0  0  0  0  0  0  0  0
   -5.3760   26.0420  -28.4580 H   0  0  0  0  0  0  0  0  0  0  0  0
   -6.3580   24.5480  -28.3280 H   0  0  0  0  0  0  0  0  0  0  0  0
   -8.0274   23.7151  -30.3876 H   0  0  0  0  0  0  0  0  0  0  0  0
   -9.3428   21.5135  -31.6422 H   0  0  0  0  0  0  0  0  0  0  0  0
   -8.9247   19.4660  -33.0445 H   0  0  0  0  0  0  0  0  0  0  0  0
   -6.0300   17.7920  -33.5330 H   0  0  0  0  0  0  0  0  0  0  0  0
   -6.8540   18.5610  -34.9300 H   0  0  0  0  0  0  0  0  0  0  0  0
   -4.6580   20.3530  -33.0752 H   0  0  0  0  0  0  0  0  0  0  0  0
  1  2  1  0
  2  3  1  0
  2  4  1  0
  2  5  1  0
  5  6  1  0
  6  7  2  0
  6  8  1  0
  8  9  1  0
  9 10  1  0
 10 11  1  0
 10 12  2  0
  9 13  2  0
 13 14  1  0
 14 15  2  0
 15 16  1  0
 16 17  2  0
 17 18  1  0
 17 19  1  0
 19 20  2  0
 20  8  1  0
 20 14  1  0
  1 21  1  0
  1 22  1  0
  1 23  1  0
  3 24  1  0
  3 25  1  0
  3 26  1  0
  4 27  1  0
  4 28  1  0
  4 29  1  0
 11 30  1  0
 11 31  1  0
 13 32  1  0
 15 33  1  0
 16 34  1  0
 18 35  1  0
 18 36  1  0
 19 37  1  0
M  END
>  <UniqueID>  (82) 
82

>  <SMILES>  (82) 
CC(C)(C)OC(=O)n1c(C(N)=O)cc2ccc(N)cc21

>  <Energy>  (82) 
70.58743556244404

>  <Genealogy>  (82) 
CC(C)(C)OC(=O)n1c(C(N)=O)cc2ccc(N)cc21 (3D coordinates assigned)
CC(C)(C)OC(=O)n1c(C(N)=O)cc2ccc(N)cc21 (optimized conformer: 70.58743556244404 kcal/mol)

>  <smiles>  (82) 
CC(C)(C)OC(=O)n1c(C(N)=O)cc2ccc(N)cc21

>  <score_type>  (82) 
oracle

>  <origin>  (82) 
adg

>  <m_score__min__energy>  (82) 
-8.0199999999999996

>  <m_primary>  (82) 
energy

$$$$
82:0
     RDKit          3D

 52 55  0  0  0  0  0  0  0  0999 V2000
   -6.0350   25.4910  -29.1040 N   0  0  0  0  0  0  0  0  0  0  0  0
   -5.5530   24.8450  -30.2860 C   0  0  0  0  0  0  0  0  0  0  0  0
   -4.5800   25.3430  -30.9200 O   0  0  0  0  0  0  0  0  0  0  0  0
   -6.2360   23.6560  -30.8300 C   0  0  0  0  0  0  0  0  0  0  0  0
   -7.5980   23.6400  -31.1030 C   0  0  0  0  0  0  0  0  0  0  0  0
   -7.8660   22.3640  -31.5320 C   0  0  0  0  0  0  0  0  0  0  0  0
   -9.0780   21.7980  -31.9180 C   0  0  0  0  0  0  0  0  0  0  0  0
   -9.0830   20.4490  -32.3050 C   0  0  0  0  0  0  0  0  0  0  0  0
   -7.8860   19.6930  -32.2900 C   0  0  0  0  0  0  0  0  0  0  0  0
   -7.9030   18.2490  -32.7170 C   0  0  0  0  0  0  0  0  0  0  0  0
   -6.5410   17.8240  -33.1960 C   0  0  0  0  0  0  0  0  0  0  0  0
   -6.1110   18.1800  -34.4860 C   0  0  0  0  0  0  0  0  0  0  0  0
   -4.8550   17.7760  -34.9490 C   0  0  0  0  0  0  0  0  0  0  0  0
   -4.0210   17.0090  -34.1330 C   0  0  0  0  0  0  0  0  0  0  0  0
   -4.4440   16.6380  -32.8540 C   0  0  0  0  0  0  0  0  0  0  0  0
   -5.7000   17.0380  -32.3850 C   0  0  0  0  0  0  0  0  0  0  0  0
   -6.0930   16.6610  -31.1410 F   0  0  0  0  0  0  0  0  0  0  0  0
   -6.6700   20.3050  -31.9090 C   0  0  0  0  0  0  0  0  0  0  0  0
   -6.6880   21.6560  -31.5260 C   0  0  0  0  0  0  0  0  0  0  0  0
   -5.6620   22.4470  -31.1060 N   0  0  0  0  0  0  0  0  0  0  0  0
   -4.2490   22.1310  -31.0850 C   0  0  0  0  0  0  0  0  0  0  0  0
   -3.5340   22.3200  -32.1090 O   0  0  0  0  0  0  0  0  0  0  0  0
   -3.6570   21.6340  -29.9180 O   0  0  0  0  0  0  0  0  0  0  0  0
   -3.0940   22.4580  -28.8970 C   0  0  0  0  0  0  0  0  0  0  0  0
   -2.4460   23.7070  -29.5220 C   0  0  0  0  0  0  0  0  0  0  0  0
   -1.7740   24.5930  -28.4540 C   0  0  0  0  0  0  0  0  0  0  0  0
   -2.4210   24.4780  -27.0590 C   0  0  0  0  0  0  0  0  0  0  0  0
   -3.9220   24.1740  -27.1480 C   0  0  0  0  0  0  0  0  0  0  0  0
   -4.2060   22.8530  -27.8980 C   0  0  0  0  0  0  0  0  0  0  0  0
   -5.5450   26.3350  -28.7300 H   0  0  0  0  0  0  0  0  0  0  0  0
   -6.8910   25.1420  -28.6130 H   0  0  0  0  0  0  0  0  0  0  0  0
   -8.3097   24.4721  -30.9978 H   0  0  0  0  0  0  0  0  0  0  0  0
  -10.0046   22.3908  -31.9196 H   0  0  0  0  0  0  0  0  0  0  0  0
  -10.0238   19.9755  -32.6223 H   0  0  0  0  0  0  0  0  0  0  0  0
   -8.1978   17.6224  -31.8623 H   0  0  0  0  0  0  0  0  0  0  0  0
   -8.6224   18.1304  -33.5407 H   0  0  0  0  0  0  0  0  0  0  0  0
   -6.7662   18.7797  -35.1349 H   0  0  0  0  0  0  0  0  0  0  0  0
   -4.5234   18.0629  -35.9578 H   0  0  0  0  0  0  0  0  0  0  0  0
   -3.0310   16.6969  -34.4970 H   0  0  0  0  0  0  0  0  0  0  0  0
   -3.7877   16.0298  -32.2141 H   0  0  0  0  0  0  0  0  0  0  0  0
   -5.7293   19.7349  -31.9125 H   0  0  0  0  0  0  0  0  0  0  0  0
   -2.3102   21.9040  -28.3596 H   0  0  0  0  0  0  0  0  0  0  0  0
   -1.6862   23.3881  -30.2507 H   0  0  0  0  0  0  0  0  0  0  0  0
   -3.2360   24.2964  -30.0103 H   0  0  0  0  0  0  0  0  0  0  0  0
   -0.7174   24.2982  -28.3725 H   0  0  0  0  0  0  0  0  0  0  0  0
   -1.8936   25.6369  -28.7796 H   0  0  0  0  0  0  0  0  0  0  0  0
   -1.9264   23.6678  -26.5033 H   0  0  0  0  0  0  0  0  0  0  0  0
   -2.2985   25.4432  -26.5457 H   0  0  0  0  0  0  0  0  0  0  0  0
   -4.3291   24.0975  -26.1290 H   0  0  0  0  0  0  0  0  0  0  0  0
   -4.3995   24.9907  -27.7093 H   0  0  0  0  0  0  0  0  0  0  0  0
   -4.3097   22.0472  -27.1564 H   0  0  0  0  0  0  0  0  0  0  0  0
   -5.1258   23.0045  -28.4819 H   0  0  0  0  0  0  0  0  0  0  0  0
  1  2  1  0
  2  3  2  0
  2  4  1  0
  4  5  2  0
  5  6  1  0
  6  7  2  0
  7  8  1  0
  8  9  2  0
  9 10  1  0
 10 11  1  0
 11 12  2  0
 12 13  1  0
 13 14  2  0
 14 15  1  0
 15 16  2  0
 16 17  1  0
  9 18  1  0
 18 19  2  0
 19 20  1  0
 20 21  1  0
 21 22  2  0
 21 23  1  0
 23 24  1  0
 24 25  1  0
 25 26  1  0
 26 27  1  0
 27 28  1  0
 28 29  1  0
 20  4  1  0
 29 24  1  0
 19  6  1  0
 16 11  1  0
  1 30  1  0
  1 31  1  0
  5 32  1  0
  7 33  1  0
  8 34  1  0
 10 35  1  0
 10 36  1  0
 12 37  1  0
 13 38  1  0
 14 39  1  0
 15 40  1  0
 18 41  1  0
 24 42  1  0
 25 43  1  0
 25 44  1  0
 26 45  1  0
 26 46  1  0
 27 47  1  0
 27 48  1  0
 28 49  1  0
 28 50  1  0
 29 51  1  0
 29 52  1  0
M  END
>  <UniqueID>  (83) 
83

>  <SMILES>  (83) 
NC(=O)c1cc2ccc(Cc3ccccc3F)cc2n1C(=O)OC1CCCCC1

>  <Energy>  (83) 
95.51650095930921

>  <Genealogy>  (83) 
NC(=O)c1cc2ccc(Cc3ccccc3F)cc2n1C(=O)OC1CCCCC1 (3D coordinates assigned)
NC(=O)c1cc2ccc(Cc3ccccc3F)cc2n1C(=O)OC1CCCCC1 (nonaromatic ring conformer: 95.51650095930921 kcal/mol)

>  <smiles>  (83) 
NC(=O)c1cc2ccc(Cc3ccccc3F)cc2n1C(=O)OC1CCCCC1

>  <score_type>  (83) 
oracle

>  <origin>  (83) 
adg

>  <m_score__min__energy>  (83) 
-11

>  <m_primary>  (83) 
energy

$$$$
83:0
     RDKit          3D

 39 40  0  0  0  0  0  0  0  0999 V2000
   -7.6110   17.4010  -32.6050 C   0  0  0  0  0  0  0  0  0  0  0  0
   -6.2990   18.2120  -32.6520 C   0  0  2  0  0  0  0  0  0  0  0  0
   -6.5480   19.6630  -32.2480 C   0  0  0  0  0  0  0  0  0  0  0  0
   -7.8810   20.1440  -32.1650 C   0  0  0  0  0  0  0  0  0  0  0  0
   -8.1470   21.4720  -31.7910 C   0  0  0  0  0  0  0  0  0  0  0  0
   -7.0670   22.2950  -31.4960 C   0  0  0  0  0  0  0  0  0  0  0  0
   -7.0400   23.6210  -31.1280 C   0  0  0  0  0  0  0  0  0  0  0  0
   -5.6920   23.9320  -30.9660 C   0  0  0  0  0  0  0  0  0  0  0  0
   -5.2110   25.2480  -30.4940 C   0  0  0  0  0  0  0  0  0  0  0  0
   -3.8830   25.6680  -30.7990 N   0  0  0  0  0  0  0  0  0  0  0  0
   -5.9690   26.0220  -29.8520 O   0  0  0  0  0  0  0  0  0  0  0  0
   -4.9150   22.8410  -31.2260 N   0  0  0  0  0  0  0  0  0  0  0  0
   -3.4810   22.7610  -31.2200 C   0  0  0  0  0  0  0  0  0  0  0  0
   -2.7370   23.2780  -30.1190 N   0  0  0  0  0  0  0  0  0  0  0  0
   -2.8720   22.2210  -32.1820 O   0  0  0  0  0  0  0  0  0  0  0  0
   -5.7730   21.8480  -31.5470 C   0  0  0  0  0  0  0  0  0  0  0  0
   -5.4770   20.5370  -31.9380 C   0  0  0  0  0  0  0  0  0  0  0  0
   -5.5320   18.0740  -34.0180 C   0  0  0  0  0  0  0  0  0  0  0  0
   -4.0280   18.3860  -33.8280 C   0  0  0  0  0  0  0  0  0  0  0  0
   -5.6500   16.6240  -34.5420 C   0  0  0  0  0  0  0  0  0  0  0  0
   -6.1040   18.9840  -35.0240 N   0  0  0  0  0  0  0  0  0  0  0  0
   -7.8959   17.2249  -31.5572 H   0  0  0  0  0  0  0  0  0  0  0  0
   -8.4084   17.9640  -33.1121 H   0  0  0  0  0  0  0  0  0  0  0  0
   -7.4639   16.4360  -33.1121 H   0  0  0  0  0  0  0  0  0  0  0  0
   -5.6171   17.7746  -31.9079 H   0  0  0  0  0  0  0  0  0  0  0  0
   -8.7171   19.4678  -32.3967 H   0  0  0  0  0  0  0  0  0  0  0  0
   -9.1789   21.8487  -31.7335 H   0  0  0  0  0  0  0  0  0  0  0  0
   -7.9004   24.2926  -30.9909 H   0  0  0  0  0  0  0  0  0  0  0  0
   -3.0670   25.2960  -30.2650 H   0  0  0  0  0  0  0  0  0  0  0  0
   -2.3550   24.2480  -30.1380 H   0  0  0  0  0  0  0  0  0  0  0  0
   -4.4344   20.1925  -32.0032 H   0  0  0  0  0  0  0  0  0  0  0  0
   -3.7964   18.4341  -32.7537 H   0  0  0  0  0  0  0  0  0  0  0  0
   -3.4269   17.5934  -34.2976 H   0  0  0  0  0  0  0  0  0  0  0  0
   -3.7918   19.3523  -34.2976 H   0  0  0  0  0  0  0  0  0  0  0  0
   -5.7065   15.9299  -33.6905 H   0  0  0  0  0  0  0  0  0  0  0  0
   -6.5589   16.5282  -35.1541 H   0  0  0  0  0  0  0  0  0  0  0  0
   -4.7685   16.3825  -35.1541 H   0  0  0  0  0  0  0  0  0  0  0  0
   -6.9040   19.5120  -34.6030 H   0  0  0  0  0  0  0  0  0  0  0  0
   -6.5130   18.4320  -35.8120 H   0  0  0  0  0  0  0  0  0  0  0  0
  1  2  1  0
  2  3  1  0
  3  4  2  0
  4  5  1  0
  5  6  2  0
  6  7  1  0
  7  8  2  0
  8  9  1  0
  9 10  1  0
  9 11  2  0
  8 12  1  0
 12 13  1  0
 13 14  1  0
 13 15  2  0
 12 16  1  0
 16 17  2  0
  2 18  1  0
 18 19  1  0
 18 20  1  0
 18 21  1  0
 17  3  1  0
 16  6  1  0
  1 22  1  0
  1 23  1  0
  1 24  1  0
  2 25  1  1
  4 26  1  0
  5 27  1  0
  7 28  1  0
 10 29  1  0
 14 30  1  0
 17 31  1  0
 19 32  1  0
 19 33  1  0
 19 34  1  0
 20 35  1  0
 20 36  1  0
 20 37  1  0
 21 38  1  0
 21 39  1  0
M  CHG  2  10  -1  14  -1
M  END
>  <UniqueID>  (84) 
84

>  <SMILES>  (84) 
C[C@H](c1ccc2cc(C([NH-])=O)n(C([NH-])=O)c2c1)C(C)(C)N

>  <Energy>  (84) 
77.15641697863222

>  <Genealogy>  (84) 
CC(c1ccc2cc(C([NH-])=O)n(C([NH-])=O)c2c1)C(C)(C)N (protonated)
C[C@H](c1ccc2cc(C([NH-])=O)n(C([NH-])=O)c2c1)C(C)(C)N (chirality)
C[C@H](c1ccc2cc(C([NH-])=O)n(C([NH-])=O)c2c1)C(C)(C)N (3D coordinates assigned)
C[C@H](c1ccc2cc(C([NH-])=O)n(C([NH-])=O)c2c1)C(C)(C)N (optimized conformer: 77.15641697863222 kcal/mol)

>  <smiles>  (84) 
CC(c1ccc2cc(C(N)=O)n(C(N)=O)c2c1)C(C)(C)N

>  <score_type>  (84) 
oracle

>  <origin>  (84) 
adg

>  <m_score__min__energy>  (84) 
-11.720000000000001

>  <m_primary>  (84) 
energy

$$$$
84:0
     RDKit          3D

 38 40  0  0  0  0  0  0  0  0999 V2000
   -3.2220   22.0340  -30.5480 C   0  0  0  0  0  0  0  0  0  0  0  0
   -4.1000   23.2210  -30.7840 C   0  0  0  0  0  0  0  0  0  0  0  0
   -3.5820   24.3690  -30.8250 O   0  0  0  0  0  0  0  0  0  0  0  0
   -5.5200   23.0740  -30.9470 N   0  0  0  0  0  0  0  0  0  0  0  0
   -6.4780   24.0060  -30.6810 C   0  0  0  0  0  0  0  0  0  0  0  0
   -6.2540   25.3110  -30.0240 C   0  0  0  0  0  0  0  0  0  0  0  0
   -5.3010   26.2450  -30.5320 N   0  0  0  0  0  0  0  0  0  0  0  0
   -6.8830   25.5860  -28.9680 O   0  0  0  0  0  0  0  0  0  0  0  0
   -7.7290   23.5600  -31.0960 C   0  0  0  0  0  0  0  0  0  0  0  0
   -7.5100   22.3100  -31.6280 C   0  0  0  0  0  0  0  0  0  0  0  0
   -8.4060   21.4180  -32.2120 C   0  0  0  0  0  0  0  0  0  0  0  0
   -7.8950   20.2140  -32.7250 C   0  0  0  0  0  0  0  0  0  0  0  0
   -6.5070   19.9370  -32.6670 C   0  0  0  0  0  0  0  0  0  0  0  0
   -5.9840   18.6670  -33.2230 C   0  0  0  0  0  0  0  0  0  0  0  0
   -5.4980   18.6610  -34.5410 C   0  0  0  0  0  0  0  0  0  0  0  0
   -5.0220   17.4810  -35.1160 C   0  0  0  0  0  0  0  0  0  0  0  0
   -5.0260   16.2950  -34.3820 C   0  0  0  0  0  0  0  0  0  0  0  0
   -5.4930   16.2860  -33.0670 C   0  0  0  0  0  0  0  0  0  0  0  0
   -5.9580   17.4680  -32.4650 C   0  0  0  0  0  0  0  0  0  0  0  0
   -6.4310   17.4180  -31.0350 C   0  0  0  0  0  0  0  0  0  0  0  0
   -5.6300   20.8620  -32.0590 C   0  0  0  0  0  0  0  0  0  0  0  0
   -6.1680   22.0410  -31.5320 C   0  0  0  0  0  0  0  0  0  0  0  0
   -3.1040   21.8745  -29.4660 H   0  0  0  0  0  0  0  0  0  0  0  0
   -3.6801   21.1430  -31.0022 H   0  0  0  0  0  0  0  0  0  0  0  0
   -2.2359   22.2112  -31.0022 H   0  0  0  0  0  0  0  0  0  0  0  0
   -4.6320   25.9790  -31.2870 H   0  0  0  0  0  0  0  0  0  0  0  0
   -5.1980   27.1830  -30.0840 H   0  0  0  0  0  0  0  0  0  0  0  0
   -8.6880   24.0928  -31.0159 H   0  0  0  0  0  0  0  0  0  0  0  0
   -9.4800   21.6488  -32.2698 H   0  0  0  0  0  0  0  0  0  0  0  0
   -8.5789   19.4798  -33.1758 H   0  0  0  0  0  0  0  0  0  0  0  0
   -5.4924   19.5933  -35.1247 H   0  0  0  0  0  0  0  0  0  0  0  0
   -4.6435   17.4867  -36.1488 H   0  0  0  0  0  0  0  0  0  0  0  0
   -4.6602   15.3646  -34.8407 H   0  0  0  0  0  0  0  0  0  0  0  0
   -5.4973   15.3455  -32.4965 H   0  0  0  0  0  0  0  0  0  0  0  0
   -5.5675   17.5093  -30.3598 H   0  0  0  0  0  0  0  0  0  0  0  0
   -7.1298   18.2473  -30.8507 H   0  0  0  0  0  0  0  0  0  0  0  0
   -6.9410   16.4609  -30.8507 H   0  0  0  0  0  0  0  0  0  0  0  0
   -4.5502   20.6604  -32.0012 H   0  0  0  0  0  0  0  0  0  0  0  0
  1  2  1  0
  2  3  2  0
  2  4  1  0
  4  5  1  0
  5  6  1  0
  6  7  1  0
  6  8  2  0
  5  9  2  0
  9 10  1  0
 10 11  2  0
 11 12  1  0
 12 13  2  0
 13 14  1  0
 14 15  2  0
 15 16  1  0
 16 17  2  0
 17 18  1  0
 18 19  2  0
 19 20  1  0
 13 21  1  0
 21 22  2  0
 22  4  1  0
 22 10  1  0
 19 14  1  0
  1 23  1  0
  1 24  1  0
  1 25  1  0
  7 26  1  0
  7 27  1  0
  9 28  1  0
 11 29  1  0
 12 30  1  0
 15 31  1  0
 16 32  1  0
 17 33  1  0
 18 34  1  0
 20 35  1  0
 20 36  1  0
 20 37  1  0
 21 38  1  0
M  END
>  <UniqueID>  (85) 
85

>  <SMILES>  (85) 
CC(=O)n1c(C(N)=O)cc2ccc(-c3ccccc3C)cc21

>  <Energy>  (85) 
86.71839327400814

>  <Genealogy>  (85) 
CC(=O)n1c(C(N)=O)cc2ccc(-c3ccccc3C)cc21 (3D coordinates assigned)
CC(=O)n1c(C(N)=O)cc2ccc(-c3ccccc3C)cc21 (optimized conformer: 86.71839327400814 kcal/mol)

>  <smiles>  (85) 
CC(=O)n1c(C(N)=O)cc2ccc(-c3ccccc3C)cc21

>  <score_type>  (85) 
oracle

>  <origin>  (85) 
adg

>  <m_score__min__energy>  (85) 
-9.6699999999999999

>  <m_primary>  (85) 
energy

$$$$
85:0
     RDKit          3D

 38 40  0  0  0  0  0  0  0  0999 V2000
   -3.8750   25.3030  -30.8390 N   0  0  0  0  0  0  0  0  0  0  0  0
   -3.6040   24.4340  -29.7430 C   0  0  0  0  0  0  0  0  0  0  0  0
   -4.3320   24.4870  -28.7150 O   0  0  0  0  0  0  0  0  0  0  0  0
   -2.5180   23.4940  -29.8090 N   0  0  0  0  0  0  0  0  0  0  0  0
   -1.2430   23.6720  -29.3620 C   0  0  0  0  0  0  0  0  0  0  0  0
   -0.7570   24.8190  -28.5690 C   0  0  0  0  0  0  0  0  0  0  0  0
   -1.6400   25.8640  -28.1580 N   0  0  0  0  0  0  0  0  0  0  0  0
    0.4480   24.8510  -28.2030 O   0  0  0  0  0  0  0  0  0  0  0  0
   -0.4400   22.5920  -29.7170 C   0  0  0  0  0  0  0  0  0  0  0  0
   -1.2720   21.7300  -30.3930 C   0  0  0  0  0  0  0  0  0  0  0  0
   -0.9920   20.5030  -30.9860 C   0  0  0  0  0  0  0  0  0  0  0  0
   -2.0330   19.8430  -31.6580 C   0  0  0  0  0  0  0  0  0  0  0  0
   -3.3280   20.4210  -31.7390 C   0  0  0  0  0  0  0  0  0  0  0  0
   -4.4160   19.7220  -32.4680 C   0  0  0  0  0  0  0  0  0  0  0  0
   -4.1550   19.0730  -33.6890 C   0  0  0  0  0  0  0  0  0  0  0  0
   -5.1810   18.4210  -34.3770 C   0  0  0  0  0  0  0  0  0  0  0  0
   -6.4750   18.4020  -33.8560 C   0  0  0  0  0  0  0  0  0  0  0  0
   -6.7530   19.0310  -32.6320 C   0  0  0  0  0  0  0  0  0  0  0  0
   -8.1560   19.0450  -32.0900 C   0  0  0  0  0  0  0  0  0  0  0  0
   -9.0680   19.5990  -33.0850 N   0  0  0  0  0  0  0  0  0  0  0  0
   -5.7250   19.6990  -31.9500 C   0  0  0  0  0  0  0  0  0  0  0  0
   -3.5690   21.6730  -31.1250 C   0  0  0  0  0  0  0  0  0  0  0  0
   -2.5190   22.2970  -30.4400 C   0  0  0  0  0  0  0  0  0  0  0  0
   -3.8690   26.3400  -30.7160 H   0  0  0  0  0  0  0  0  0  0  0  0
   -1.2690   26.6870  -27.6340 H   0  0  0  0  0  0  0  0  0  0  0  0
   -2.6720   25.7820  -28.2920 H   0  0  0  0  0  0  0  0  0  0  0  0
    0.6305   22.4568  -29.5029 H   0  0  0  0  0  0  0  0  0  0  0  0
    0.0147   20.0633  -30.9300 H   0  0  0  0  0  0  0  0  0  0  0  0
   -1.8435   18.8664  -32.1275 H   0  0  0  0  0  0  0  0  0  0  0  0
   -3.1364   19.0792  -34.1043 H   0  0  0  0  0  0  0  0  0  0  0  0
   -4.9679   17.9207  -35.3332 H   0  0  0  0  0  0  0  0  0  0  0  0
   -7.2800   17.8926  -34.4059 H   0  0  0  0  0  0  0  0  0  0  0  0
   -8.4630   18.0172  -31.8463 H   0  0  0  0  0  0  0  0  0  0  0  0
   -8.1876   19.6677  -31.1838 H   0  0  0  0  0  0  0  0  0  0  0  0
   -9.5970   18.8030  -33.5090 H   0  0  0  0  0  0  0  0  0  0  0  0
   -8.4970   20.0200  -33.8530 H   0  0  0  0  0  0  0  0  0  0  0  0
   -5.9439   20.2100  -31.0008 H   0  0  0  0  0  0  0  0  0  0  0  0
   -4.5603   22.1461  -31.1845 H   0  0  0  0  0  0  0  0  0  0  0  0
  1  2  1  0
  2  3  2  0
  2  4  1  0
  4  5  1  0
  5  6  1  0
  6  7  1  0
  6  8  2  0
  5  9  2  0
  9 10  1  0
 10 11  2  0
 11 12  1  0
 12 13  2  0
 13 14  1  0
 14 15  2  0
 15 16  1  0
 16 17  2  0
 17 18  1  0
 18 19  1  0
 19 20  1  0
 18 21  2  0
 13 22  1  0
 22 23  2  0
 23  4  1  0
 23 10  1  0
 21 14  1  0
  1 24  1  0
  7 25  1  0
  7 26  1  0
  9 27  1  0
 11 28  1  0
 12 29  1  0
 15 30  1  0
 16 31  1  0
 17 32  1  0
 19 33  1  0
 19 34  1  0
 20 35  1  0
 20 36  1  0
 21 37  1  0
 22 38  1  0
M  CHG  1   1  -1
M  END
>  <UniqueID>  (86) 
86

>  <SMILES>  (86) 
[NH-]C(=O)n1c(C(N)=O)cc2ccc(-c3cccc(CN)c3)cc21

>  <Energy>  (86) 
83.50971271923174

>  <Genealogy>  (86) 
[NH-]C(=O)n1c(C(N)=O)cc2ccc(-c3cccc(CN)c3)cc21 (protonated)
[NH-]C(=O)n1c(C(N)=O)cc2ccc(-c3cccc(CN)c3)cc21 (3D coordinates assigned)
[NH-]C(=O)n1c(C(N)=O)cc2ccc(-c3cccc(CN)c3)cc21 (optimized conformer: 83.50971271923174 kcal/mol)

>  <smiles>  (86) 
NCc1cccc(-c2ccc3cc(C(N)=O)n(C(N)=O)c3c2)c1

>  <score_type>  (86) 
oracle

>  <origin>  (86) 
adg

>  <m_score__min__energy>  (86) 
-9.7300000000000004

>  <m_primary>  (86) 
energy

$$$$
86:0
     RDKit          3D

 38 40  0  0  0  0  0  0  0  0999 V2000
   -4.1900   15.0940  -34.9660 C   0  0  0  0  0  0  0  0  0  0  0  0
   -4.7120   16.3430  -34.3210 C   0  0  0  0  0  0  0  0  0  0  0  0
   -4.8030   17.5310  -35.0560 C   0  0  0  0  0  0  0  0  0  0  0  0
   -5.3320   18.6830  -34.4710 C   0  0  0  0  0  0  0  0  0  0  0  0
   -5.7940   18.6650  -33.1440 C   0  0  0  0  0  0  0  0  0  0  0  0
   -6.3720   19.9050  -32.5800 C   0  0  0  0  0  0  0  0  0  0  0  0
   -7.7760   20.0960  -32.5620 C   0  0  0  0  0  0  0  0  0  0  0  0
   -8.3310   21.2680  -32.0260 C   0  0  0  0  0  0  0  0  0  0  0  0
   -7.4620   22.2360  -31.5340 C   0  0  0  0  0  0  0  0  0  0  0  0
   -7.7330   23.4440  -30.9350 C   0  0  0  0  0  0  0  0  0  0  0  0
   -6.4910   23.9920  -30.6340 C   0  0  0  0  0  0  0  0  0  0  0  0
   -6.3190   25.3300  -30.0340 C   0  0  0  0  0  0  0  0  0  0  0  0
   -5.3670   26.2580  -30.5570 N   0  0  0  0  0  0  0  0  0  0  0  0
   -7.0650   25.6820  -29.0810 O   0  0  0  0  0  0  0  0  0  0  0  0
   -5.4870   23.1540  -31.0170 N   0  0  0  0  0  0  0  0  0  0  0  0
   -4.0790   23.3110  -30.7680 C   0  0  0  0  0  0  0  0  0  0  0  0
   -3.3530   22.3080  -30.5440 O   0  0  0  0  0  0  0  0  0  0  0  0
   -3.5050   24.5780  -30.7660 O   0  0  0  0  0  0  0  0  0  0  0  0
   -6.0990   22.0820  -31.5700 C   0  0  0  0  0  0  0  0  0  0  0  0
   -5.5190   20.9140  -32.0800 C   0  0  0  0  0  0  0  0  0  0  0  0
   -5.6910   17.4700  -32.3890 C   0  0  0  0  0  0  0  0  0  0  0  0
   -6.1430   17.3960  -30.9540 C   0  0  0  0  0  0  0  0  0  0  0  0
   -5.1740   16.3130  -32.9980 C   0  0  0  0  0  0  0  0  0  0  0  0
   -3.8903   14.3770  -34.1875 H   0  0  0  0  0  0  0  0  0  0  0  0
   -4.9771   14.6480  -35.5918 H   0  0  0  0  0  0  0  0  0  0  0  0
   -3.3197   15.3407  -35.5918 H   0  0  0  0  0  0  0  0  0  0  0  0
   -4.4560   17.5569  -36.0995 H   0  0  0  0  0  0  0  0  0  0  0  0
   -5.3877   19.6138  -35.0545 H   0  0  0  0  0  0  0  0  0  0  0  0
   -8.4370   19.3182  -32.9721 H   0  0  0  0  0  0  0  0  0  0  0  0
   -9.4205   21.4167  -31.9959 H   0  0  0  0  0  0  0  0  0  0  0  0
   -8.7218   23.8832  -30.7363 H   0  0  0  0  0  0  0  0  0  0  0  0
   -5.2340   27.1870  -30.0990 H   0  0  0  0  0  0  0  0  0  0  0  0
   -4.8540   26.0610  -31.4440 H   0  0  0  0  0  0  0  0  0  0  0  0
   -4.4266   20.7853  -32.0910 H   0  0  0  0  0  0  0  0  0  0  0  0
   -5.2780   17.5376  -30.2894 H   0  0  0  0  0  0  0  0  0  0  0  0
   -6.8856   18.1845  -30.7624 H   0  0  0  0  0  0  0  0  0  0  0  0
   -6.5954   16.4118  -30.7624 H   0  0  0  0  0  0  0  0  0  0  0  0
   -5.1316   15.3725  -32.4291 H   0  0  0  0  0  0  0  0  0  0  0  0
  1  2  1  0
  2  3  2  0
  3  4  1  0
  4  5  2  0
  5  6  1  0
  6  7  2  0
  7  8  1  0
  8  9  2  0
  9 10  1  0
 10 11  2  0
 11 12  1  0
 12 13  1  0
 12 14  2  0
 11 15  1  0
 15 16  1  0
 16 17  2  0
 16 18  1  0
 15 19  1  0
 19 20  2  0
  5 21  1  0
 21 22  1  0
 21 23  2  0
 23  2  1  0
 20  6  1  0
 19  9  1  0
  1 24  1  0
  1 25  1  0
  1 26  1  0
  3 27  1  0
  4 28  1  0
  7 29  1  0
  8 30  1  0
 10 31  1  0
 13 32  1  0
 13 33  1  0
 20 34  1  0
 22 35  1  0
 22 36  1  0
 22 37  1  0
 23 38  1  0
M  CHG  1  18  -1
M  END
>  <UniqueID>  (87) 
87

>  <SMILES>  (87) 
Cc1ccc(-c2ccc3cc(C(N)=O)n(C(=O)[O-])c3c2)c(C)c1

>  <Energy>  (87) 
86.96457872159327

>  <Genealogy>  (87) 
Cc1ccc(-c2ccc3cc(C(N)=O)n(C(=O)[O-])c3c2)c(C)c1 (protonated)
Cc1ccc(-c2ccc3cc(C(N)=O)n(C(=O)[O-])c3c2)c(C)c1 (3D coordinates assigned)
Cc1ccc(-c2ccc3cc(C(N)=O)n(C(=O)[O-])c3c2)c(C)c1 (optimized conformer: 86.96457872159327 kcal/mol)

>  <smiles>  (87) 
Cc1ccc(-c2ccc3cc(C(N)=O)n(C(=O)O)c3c2)c(C)c1

>  <score_type>  (87) 
oracle

>  <origin>  (87) 
adg

>  <m_score__min__energy>  (87) 
-10.4

>  <m_primary>  (87) 
energy

$$$$
87:0
     RDKit          3D

 37 38  0  0  0  0  0  0  0  0999 V2000
   -3.0930   20.0800  -33.1000 C   0  0  0  0  0  0  0  0  0  0  0  0
   -3.4410   21.5390  -33.3710 C   0  0  0  0  0  0  0  0  0  0  0  0
   -3.1580   22.3440  -32.2280 O   0  0  0  0  0  0  0  0  0  0  0  0
   -3.9470   22.3490  -31.0730 C   0  0  0  0  0  0  0  0  0  0  0  0
   -3.4340   22.0980  -29.9480 O   0  0  0  0  0  0  0  0  0  0  0  0
   -5.3440   22.6720  -31.1670 N   0  0  0  0  0  0  0  0  0  0  0  0
   -5.9390   23.8830  -30.9730 C   0  0  0  0  0  0  0  0  0  0  0  0
   -5.2750   25.1090  -30.4810 C   0  0  0  0  0  0  0  0  0  0  0  0
   -3.8700   25.2760  -30.6620 N   0  0  0  0  0  0  0  0  0  0  0  0
   -5.9390   26.0270  -29.9330 O   0  0  0  0  0  0  0  0  0  0  0  0
   -7.3070   23.8000  -31.2230 C   0  0  0  0  0  0  0  0  0  0  0  0
   -7.5360   22.4890  -31.5720 C   0  0  0  0  0  0  0  0  0  0  0  0
   -8.7190   21.8540  -31.9390 C   0  0  0  0  0  0  0  0  0  0  0  0
   -8.6570   20.4930  -32.2810 C   0  0  0  0  0  0  0  0  0  0  0  0
   -7.4230   19.7960  -32.2490 C   0  0  0  0  0  0  0  0  0  0  0  0
   -7.3610   18.3540  -32.6650 C   0  0  0  0  0  0  0  0  0  0  0  0
   -6.4240   18.1950  -33.8180 C   0  0  0  0  0  0  0  0  0  0  0  0
   -6.1120   19.1980  -34.5160 O   0  0  0  0  0  0  0  0  0  0  0  0
   -5.9380   16.9230  -34.1370 O   0  0  0  0  0  0  0  0  0  0  0  0
   -5.2790   16.0960  -33.1860 C   0  0  0  0  0  0  0  0  0  0  0  0
   -6.2400   20.4780  -31.8820 C   0  0  0  0  0  0  0  0  0  0  0  0
   -6.3350   21.8290  -31.5300 C   0  0  0  0  0  0  0  0  0  0  0  0
   -3.0521   19.9084  -32.0142 H   0  0  0  0  0  0  0  0  0  0  0  0
   -3.8615   19.4310  -33.5451 H   0  0  0  0  0  0  0  0  0  0  0  0
   -2.1143   19.8477  -33.5451 H   0  0  0  0  0  0  0  0  0  0  0  0
   -2.8467   21.9000  -34.2233 H   0  0  0  0  0  0  0  0  0  0  0  0
   -4.5150   21.6109  -33.5979 H   0  0  0  0  0  0  0  0  0  0  0  0
   -3.4940   26.0440  -31.2610 H   0  0  0  0  0  0  0  0  0  0  0  0
   -8.0473   24.6109  -31.1556 H   0  0  0  0  0  0  0  0  0  0  0  0
   -9.6731   22.4011  -31.9605 H   0  0  0  0  0  0  0  0  0  0  0  0
   -9.5746   19.9631  -32.5764 H   0  0  0  0  0  0  0  0  0  0  0  0
   -7.0055   17.7460  -31.8201 H   0  0  0  0  0  0  0  0  0  0  0  0
   -8.3651   18.0217  -32.9670 H   0  0  0  0  0  0  0  0  0  0  0  0
   -5.5413   16.4251  -32.1697 H   0  0  0  0  0  0  0  0  0  0  0  0
   -5.5954   15.0519  -33.3264 H   0  0  0  0  0  0  0  0  0  0  0  0
   -4.1906   16.1713  -33.3264 H   0  0  0  0  0  0  0  0  0  0  0  0
   -5.2698   19.9598  -31.8734 H   0  0  0  0  0  0  0  0  0  0  0  0
  1  2  1  0
  2  3  1  0
  3  4  1  0
  4  5  2  0
  4  6  1  0
  6  7  1  0
  7  8  1  0
  8  9  1  0
  8 10  2  0
  7 11  2  0
 11 12  1  0
 12 13  2  0
 13 14  1  0
 14 15  2  0
 15 16  1  0
 16 17  1  0
 17 18  2  0
 17 19  1  0
 19 20  1  0
 15 21  1  0
 21 22  2  0
 22  6  1  0
 22 12  1  0
  1 23  1  0
  1 24  1  0
  1 25  1  0
  2 26  1  0
  2 27  1  0
  9 28  1  0
 11 29  1  0
 13 30  1  0
 14 31  1  0
 16 32  1  0
 16 33  1  0
 20 34  1  0
 20 35  1  0
 20 36  1  0
 21 37  1  0
M  CHG  1   9  -1
M  END
>  <UniqueID>  (88) 
88

>  <SMILES>  (88) 
CCOC(=O)n1c(C([NH-])=O)cc2ccc(CC(=O)OC)cc21

>  <Energy>  (88) 
67.55682325609139

>  <Genealogy>  (88) 
CCOC(=O)n1c(C([NH-])=O)cc2ccc(CC(=O)OC)cc21 (protonated)
CCOC(=O)n1c(C([NH-])=O)cc2ccc(CC(=O)OC)cc21 (3D coordinates assigned)
CCOC(=O)n1c(C([NH-])=O)cc2ccc(CC(=O)OC)cc21 (optimized conformer: 67.55682325609139 kcal/mol)

>  <smiles>  (88) 
CCOC(=O)n1c(C(N)=O)cc2ccc(CC(=O)OC)cc21

>  <score_type>  (88) 
oracle

>  <origin>  (88) 
adg

>  <m_score__min__energy>  (88) 
-9.6899999999999995

>  <m_primary>  (88) 
energy

$$$$
88:0
     RDKit          3D

 26 27  0  0  0  0  0  0  0  0999 V2000
   -1.6540   25.6660  -28.9510 N   0  0  0  0  0  0  0  0  0  0  0  0
   -1.1040   24.3780  -29.2150 C   0  0  0  0  0  0  0  0  0  0  0  0
   -0.0240   24.0430  -28.6600 O   0  0  0  0  0  0  0  0  0  0  0  0
   -1.8130   23.4120  -30.0790 C   0  0  0  0  0  0  0  0  0  0  0  0
   -1.2280   22.2410  -30.5580 C   0  0  0  0  0  0  0  0  0  0  0  0
   -2.2300   21.5820  -31.2320 C   0  0  0  0  0  0  0  0  0  0  0  0
   -2.2020   20.3670  -31.9110 C   0  0  0  0  0  0  0  0  0  0  0  0
   -3.3820   19.9370  -32.5400 C   0  0  0  0  0  0  0  0  0  0  0  0
   -4.5540   20.7330  -32.4960 C   0  0  0  0  0  0  0  0  0  0  0  0
   -5.8150   20.2520  -33.1580 C   0  0  0  0  0  0  0  0  0  0  0  0
   -5.6470   18.8380  -33.6150 C   0  0  0  0  0  0  0  0  0  0  0  0
   -5.7020   17.8930  -32.7850 O   0  0  0  0  0  0  0  0  0  0  0  0
   -5.3810   18.5680  -34.9510 O   0  0  0  0  0  0  0  0  0  0  0  0
   -4.5470   21.9560  -31.7890 C   0  0  0  0  0  0  0  0  0  0  0  0
   -3.3630   22.3500  -31.1550 C   0  0  0  0  0  0  0  0  0  0  0  0
   -3.1220   23.4790  -30.4520 N   0  0  0  0  0  0  0  0  0  0  0  0
   -4.0400   24.5650  -30.2390 C   0  0  0  0  0  0  0  0  0  0  0  0
   -3.8690   25.6670  -30.8250 O   0  0  0  0  0  0  0  0  0  0  0  0
   -5.1090   24.4190  -29.3640 O   0  0  0  0  0  0  0  0  0  0  0  0
   -2.6840   25.8320  -29.0100 H   0  0  0  0  0  0  0  0  0  0  0  0
   -0.1863   21.9134  -30.4253 H   0  0  0  0  0  0  0  0  0  0  0  0
   -1.2841   19.7624  -31.9536 H   0  0  0  0  0  0  0  0  0  0  0  0
   -3.3967   18.9740  -33.0714 H   0  0  0  0  0  0  0  0  0  0  0  0
   -6.6466   20.3061  -32.4400 H   0  0  0  0  0  0  0  0  0  0  0  0
   -6.0308   20.8890  -34.0285 H   0  0  0  0  0  0  0  0  0  0  0  0
   -5.4494   22.5829  -31.7380 H   0  0  0  0  0  0  0  0  0  0  0  0
  1  2  1  0
  2  3  2  0
  2  4  1  0
  4  5  2  0
  5  6  1  0
  6  7  2  0
  7  8  1  0
  8  9  2  0
  9 10  1  0
 10 11  1  0
 11 12  2  0
 11 13  1  0
  9 14  1  0
 14 15  2  0
 15 16  1  0
 16 17  1  0
 17 18  2  0
 17 19  1  0
 16  4  1  0
 15  6  1  0
  1 20  1  0
  5 21  1  0
  7 22  1  0
  8 23  1  0
 10 24  1  0
 10 25  1  0
 14 26  1  0
M  CHG  3   1  -1  13  -1  19  -1
M  END
>  <UniqueID>  (89) 
89

>  <SMILES>  (89) 
[NH-]C(=O)c1cc2ccc(CC(=O)[O-])cc2n1C(=O)[O-]

>  <Energy>  (89) 
64.85822906700542

>  <Genealogy>  (89) 
[NH-]C(=O)c1cc2ccc(CC(=O)[O-])cc2n1C(=O)[O-] (protonated)
[NH-]C(=O)c1cc2ccc(CC(=O)[O-])cc2n1C(=O)[O-] (3D coordinates assigned)
[NH-]C(=O)c1cc2ccc(CC(=O)[O-])cc2n1C(=O)[O-] (optimized conformer: 64.85822906700542 kcal/mol)

>  <smiles>  (89) 
NC(=O)c1cc2ccc(CC(=O)O)cc2n1C(=O)O

>  <score_type>  (89) 
oracle

>  <origin>  (89) 
adg

>  <m_score__min__energy>  (89) 
-9.8100000000000005

>  <m_primary>  (89) 
energy

$$$$
89:0
     RDKit          3D

 33 35  0  0  0  0  0  0  0  0999 V2000
   -6.4330   17.4290  -31.1730 C   0  0  0  0  0  0  0  0  0  0  0  0
   -5.8860   17.5630  -32.5650 C   0  0  0  0  0  0  0  0  0  0  0  0
   -5.3520   16.4620  -33.1590 N   0  0  0  0  0  0  0  0  0  0  0  0
   -4.8570   16.5070  -34.4220 C   0  0  0  0  0  0  0  0  0  0  0  0
   -4.8910   17.6670  -35.1240 N   0  0  0  0  0  0  0  0  0  0  0  0
   -5.4060   18.7980  -34.5800 C   0  0  0  0  0  0  0  0  0  0  0  0
   -5.9090   18.7870  -33.2710 C   0  0  0  0  0  0  0  0  0  0  0  0
   -6.4450   20.0360  -32.6880 C   0  0  0  0  0  0  0  0  0  0  0  0
   -7.8390   20.2900  -32.7220 C   0  0  0  0  0  0  0  0  0  0  0  0
   -8.3640   21.4810  -32.1950 C   0  0  0  0  0  0  0  0  0  0  0  0
   -7.4750   22.3950  -31.6360 C   0  0  0  0  0  0  0  0  0  0  0  0
   -7.7100   23.6360  -31.0910 C   0  0  0  0  0  0  0  0  0  0  0  0
   -6.4590   24.1130  -30.7130 C   0  0  0  0  0  0  0  0  0  0  0  0
   -6.2590   25.4040  -30.0230 C   0  0  0  0  0  0  0  0  0  0  0  0
   -5.2920   26.3480  -30.4850 N   0  0  0  0  0  0  0  0  0  0  0  0
   -6.9130   25.6530  -28.9750 O   0  0  0  0  0  0  0  0  0  0  0  0
   -5.4840   23.2130  -31.0220 N   0  0  0  0  0  0  0  0  0  0  0  0
   -4.0620   23.3820  -30.8920 C   0  0  0  0  0  0  0  0  0  0  0  0
   -3.3010   22.3780  -30.8690 O   0  0  0  0  0  0  0  0  0  0  0  0
   -3.5100   24.6530  -30.7870 O   0  0  0  0  0  0  0  0  0  0  0  0
   -6.1230   22.1630  -31.5850 C   0  0  0  0  0  0  0  0  0  0  0  0
   -5.5720   20.9950  -32.1270 C   0  0  0  0  0  0  0  0  0  0  0  0
   -5.6328   17.6250  -30.4441 H   0  0  0  0  0  0  0  0  0  0  0  0
   -7.2472   18.1543  -31.0276 H   0  0  0  0  0  0  0  0  0  0  0  0
   -6.8198   16.4096  -31.0276 H   0  0  0  0  0  0  0  0  0  0  0  0
   -4.4279   15.6019  -34.8766 H   0  0  0  0  0  0  0  0  0  0  0  0
   -5.4291   19.7274  -35.1680 H   0  0  0  0  0  0  0  0  0  0  0  0
   -8.5169   19.5462  -33.1660 H   0  0  0  0  0  0  0  0  0  0  0  0
   -9.4445   21.6855  -32.2230 H   0  0  0  0  0  0  0  0  0  0  0  0
   -8.6797   24.1428  -30.9782 H   0  0  0  0  0  0  0  0  0  0  0  0
   -4.6180   26.1020  -31.2430 H   0  0  0  0  0  0  0  0  0  0  0  0
   -5.1910   27.2710  -30.0080 H   0  0  0  0  0  0  0  0  0  0  0  0
   -4.4848   20.8281  -32.1162 H   0  0  0  0  0  0  0  0  0  0  0  0
  1  2  1  0
  2  3  2  0
  3  4  1  0
  4  5  2  0
  5  6  1  0
  6  7  2  0
  7  8  1  0
  8  9  2  0
  9 10  1  0
 10 11  2  0
 11 12  1  0
 12 13  2  0
 13 14  1  0
 14 15  1  0
 14 16  2  0
 13 17  1  0
 17 18  1  0
 18 19  2  0
 18 20  1  0
 17 21  1  0
 21 22  2  0
  7  2  1  0
 22  8  1  0
 21 11  1  0
  1 23  1  0
  1 24  1  0
  1 25  1  0
  4 26  1  0
  6 27  1  0
  9 28  1  0
 10 29  1  0
 12 30  1  0
 15 31  1  0
 15 32  1  0
 22 33  1  0
M  CHG  1  20  -1
M  END
>  <UniqueID>  (90) 
90

>  <SMILES>  (90) 
Cc1ncncc1-c1ccc2cc(C(N)=O)n(C(=O)[O-])c2c1

>  <Energy>  (90) 
83.48042274229182

>  <Genealogy>  (90) 
Cc1ncncc1-c1ccc2cc(C(N)=O)n(C(=O)[O-])c2c1 (protonated)
Cc1ncncc1-c1ccc2cc(C(N)=O)n(C(=O)[O-])c2c1 (3D coordinates assigned)
Cc1ncncc1-c1ccc2cc(C(N)=O)n(C(=O)[O-])c2c1 (optimized conformer: 83.48042274229182 kcal/mol)

>  <smiles>  (90) 
Cc1ncncc1-c1ccc2cc(C(N)=O)n(C(=O)O)c2c1

>  <score_type>  (90) 
oracle

>  <origin>  (90) 
adg

>  <m_score__min__energy>  (90) 
-9.2799999999999994

>  <m_primary>  (90) 
energy

$$$$
90:0
     RDKit          3D

 31 33  0  0  0  0  0  0  0  0999 V2000
   -4.6060   20.4070  -32.9310 C   0  0  0  0  0  0  0  0  0  0  0  0
   -5.8820   20.2910  -32.1600 C   0  0  0  0  0  0  0  0  0  0  0  0
   -6.3840   19.1510  -31.9710 O   0  0  0  0  0  0  0  0  0  0  0  0
   -6.5310   21.4540  -31.6200 N   0  0  0  0  0  0  0  0  0  0  0  0
   -7.8400   21.8060  -31.7660 C   0  0  0  0  0  0  0  0  0  0  0  0
   -8.8910   20.9790  -32.3950 C   0  0  0  0  0  0  0  0  0  0  0  0
   -8.5810   20.0380  -33.4230 N   0  0  0  0  0  0  0  0  0  0  0  0
  -10.0790   21.0740  -31.9850 O   0  0  0  0  0  0  0  0  0  0  0  0
   -8.0760   23.0630  -31.2190 C   0  0  0  0  0  0  0  0  0  0  0  0
   -6.8600   23.4770  -30.7220 C   0  0  0  0  0  0  0  0  0  0  0  0
   -6.5120   24.6670  -30.0950 C   0  0  0  0  0  0  0  0  0  0  0  0
   -5.1670   24.8510  -29.7320 C   0  0  0  0  0  0  0  0  0  0  0  0
   -4.1950   23.8560  -30.0110 C   0  0  0  0  0  0  0  0  0  0  0  0
   -2.7790   24.0840  -29.6300 C   0  0  0  0  0  0  0  0  0  0  0  0
   -1.7800   23.1340  -29.5190 C   0  0  0  0  0  0  0  0  0  0  0  0
   -0.6670   23.8530  -29.1400 C   0  0  0  0  0  0  0  0  0  0  0  0
   -0.9890   25.1550  -29.0340 N   0  0  0  0  0  0  0  0  0  0  0  0
   -2.2710   25.2970  -29.3300 N   0  0  0  0  0  0  0  0  0  0  0  0
   -4.5920   22.6600  -30.6560 C   0  0  0  0  0  0  0  0  0  0  0  0
   -5.9430   22.4930  -30.9820 C   0  0  0  0  0  0  0  0  0  0  0  0
   -3.7606   20.4839  -32.2314 H   0  0  0  0  0  0  0  0  0  0  0  0
   -4.4781   19.5168  -33.5644 H   0  0  0  0  0  0  0  0  0  0  0  0
   -4.6407   21.3057  -33.5644 H   0  0  0  0  0  0  0  0  0  0  0  0
   -7.5930   19.7950  -33.6540 H   0  0  0  0  0  0  0  0  0  0  0  0
   -9.3460   19.5030  -33.8910 H   0  0  0  0  0  0  0  0  0  0  0  0
   -9.0301   23.6097  -31.1896 H   0  0  0  0  0  0  0  0  0  0  0  0
   -7.2659   25.4411  -29.8891 H   0  0  0  0  0  0  0  0  0  0  0  0
   -4.8638   25.7788  -29.2248 H   0  0  0  0  0  0  0  0  0  0  0  0
   -1.8564   22.0506  -29.6936 H   0  0  0  0  0  0  0  0  0  0  0  0
    0.3303   23.4281  -28.9531 H   0  0  0  0  0  0  0  0  0  0  0  0
   -3.8552   21.8792  -30.8957 H   0  0  0  0  0  0  0  0  0  0  0  0
  1  2  1  0
  2  3  2  0
  2  4  1  0
  4  5  1  0
  5  6  1  0
  6  7  1  0
  6  8  2  0
  5  9  2  0
  9 10  1  0
 10 11  2  0
 11 12  1  0
 12 13  2  0
 13 14  1  0
 14 15  2  0
 15 16  1  0
 16 17  2  0
 17 18  1  0
 13 19  1  0
 19 20  2  0
 20  4  1  0
 20 10  1  0
 18 14  1  0
  1 21  1  0
  1 22  1  0
  1 23  1  0
  7 24  1  0
  7 25  1  0
  9 26  1  0
 11 27  1  0
 12 28  1  0
 15 29  1  0
 16 30  1  0
 19 31  1  0
M  CHG  1  18  -1
M  END
>  <UniqueID>  (91) 
91

>  <SMILES>  (91) 
CC(=O)n1c(C(N)=O)cc2ccc(-c3ccn[n-]3)cc21

>  <Energy>  (91) 
103.24730394043961

>  <Genealogy>  (91) 
CC(=O)n1c(C(N)=O)cc2ccc(-c3ccn[n-]3)cc21 (protonated)
CC(=O)n1c(C(N)=O)cc2ccc(-c3ccn[n-]3)cc21 (3D coordinates assigned)
CC(=O)n1c(C(N)=O)cc2ccc(-c3ccn[n-]3)cc21 (optimized conformer: 103.24730394043961 kcal/mol)

>  <smiles>  (91) 
CC(=O)n1c(C(N)=O)cc2ccc(-c3ccn[nH]3)cc21

>  <score_type>  (91) 
oracle

>  <origin>  (91) 
adg

>  <m_score__min__energy>  (91) 
-9.3100000000000005

>  <m_primary>  (91) 
energy

$$$$
91:0
     RDKit          3D

 34 35  0  0  0  0  0  0  0  0999 V2000
   -2.8060   21.8700  -31.9010 C   0  0  0  0  0  0  0  0  0  0  0  0
   -3.5900   22.6380  -30.8880 C   0  0  0  0  0  0  0  0  0  0  0  0
   -2.9890   23.1660  -29.9130 O   0  0  0  0  0  0  0  0  0  0  0  0
   -5.0130   22.7920  -31.0170 N   0  0  0  0  0  0  0  0  0  0  0  0
   -5.7380   23.9410  -30.9020 C   0  0  0  0  0  0  0  0  0  0  0  0
   -5.2150   25.2600  -30.4880 C   0  0  0  0  0  0  0  0  0  0  0  0
   -3.8950   25.6710  -30.8380 N   0  0  0  0  0  0  0  0  0  0  0  0
   -5.9320   26.0230  -29.7870 O   0  0  0  0  0  0  0  0  0  0  0  0
   -7.0830   23.6980  -31.1760 C   0  0  0  0  0  0  0  0  0  0  0  0
   -7.1600   22.3530  -31.4630 C   0  0  0  0  0  0  0  0  0  0  0  0
   -8.2560   21.5770  -31.8280 C   0  0  0  0  0  0  0  0  0  0  0  0
   -8.0370   20.2180  -32.1050 C   0  0  0  0  0  0  0  0  0  0  0  0
   -6.7360   19.6630  -32.0160 C   0  0  0  0  0  0  0  0  0  0  0  0
   -6.5020   18.2140  -32.3630 C   0  0  0  0  0  0  0  0  0  0  0  0
   -6.5000   17.9870  -33.8890 C   0  0  1  0  0  0  0  0  0  0  0  0
   -6.1530   19.2190  -34.6000 N   0  0  0  0  0  0  0  0  0  0  0  0
   -5.5360   16.8990  -34.2760 C   0  0  0  0  0  0  0  0  0  0  0  0
   -5.6580   15.7440  -33.7880 O   0  0  0  0  0  0  0  0  0  0  0  0
   -4.4930   17.1660  -35.1540 O   0  0  0  0  0  0  0  0  0  0  0  0
   -5.6460   20.4850  -31.6520 C   0  0  0  0  0  0  0  0  0  0  0  0
   -5.8970   21.8310  -31.3620 C   0  0  0  0  0  0  0  0  0  0  0  0
   -2.1110   21.1892  -31.3876 H   0  0  0  0  0  0  0  0  0  0  0  0
   -3.4933   21.2860  -32.5307 H   0  0  0  0  0  0  0  0  0  0  0  0
   -2.2363   22.5692  -32.5307 H   0  0  0  0  0  0  0  0  0  0  0  0
   -3.0630   25.2900  -30.3350 H   0  0  0  0  0  0  0  0  0  0  0  0
   -7.9077   24.4258  -31.1653 H   0  0  0  0  0  0  0  0  0  0  0  0
   -9.2628   22.0147  -31.8974 H   0  0  0  0  0  0  0  0  0  0  0  0
   -8.8836   19.5778  -32.3939 H   0  0  0  0  0  0  0  0  0  0  0  0
   -5.5294   17.9020  -31.9547 H   0  0  0  0  0  0  0  0  0  0  0  0
   -7.3199   17.6205  -31.9286 H   0  0  0  0  0  0  0  0  0  0  0  0
   -7.5167   17.6793  -34.1746 H   0  0  0  0  0  0  0  0  0  0  0  0
   -5.2770   19.0530  -35.1470 H   0  0  0  0  0  0  0  0  0  0  0  0
   -6.9080   19.4530  -35.2860 H   0  0  0  0  0  0  0  0  0  0  0  0
   -4.6258   20.0773  -31.5979 H   0  0  0  0  0  0  0  0  0  0  0  0
  1  2  1  0
  2  3  2  0
  2  4  1  0
  4  5  1  0
  5  6  1  0
  6  7  1  0
  6  8  2  0
  5  9  2  0
  9 10  1  0
 10 11  2  0
 11 12  1  0
 12 13  2  0
 13 14  1  0
 14 15  1  0
 15 16  1  0
 15 17  1  0
 17 18  2  0
 17 19  1  0
 13 20  1  0
 20 21  2  0
 21  4  1  0
 21 10  1  0
  1 22  1  0
  1 23  1  0
  1 24  1  0
  7 25  1  0
  9 26  1  0
 11 27  1  0
 12 28  1  0
 14 29  1  0
 14 30  1  0
 15 31  1  6
 16 32  1  0
 16 33  1  0
 20 34  1  0
M  CHG  2   7  -1  19  -1
M  END
>  <UniqueID>  (92) 
92

>  <SMILES>  (92) 
CC(=O)n1c(C([NH-])=O)cc2ccc(C[C@@H](N)C(=O)[O-])cc21

>  <Energy>  (92) 
69.90889517473254

>  <Genealogy>  (92) 
CC(=O)n1c(C([NH-])=O)cc2ccc(CC(N)C(=O)[O-])cc21 (protonated)
CC(=O)n1c(C([NH-])=O)cc2ccc(C[C@@H](N)C(=O)[O-])cc21 (chirality)
CC(=O)n1c(C([NH-])=O)cc2ccc(C[C@@H](N)C(=O)[O-])cc21 (3D coordinates assigned)
CC(=O)n1c(C([NH-])=O)cc2ccc(C[C@@H](N)C(=O)[O-])cc21 (optimized conformer: 69.90889517473254 kcal/mol)

>  <smiles>  (92) 
CC(=O)n1c(C(N)=O)cc2ccc(CC(N)C(=O)O)cc21

>  <score_type>  (92) 
oracle

>  <origin>  (92) 
adg

>  <m_score__min__energy>  (92) 
-9.9399999999999995

>  <m_primary>  (92) 
energy

$$$$
92:0
     RDKit          3D

 25 26  0  0  0  0  0  0  0  0999 V2000
   -4.0900   19.2360  -33.4960 C   0  0  0  0  0  0  0  0  0  0  0  0
   -4.9920   20.3120  -32.9700 C   0  0  0  0  0  0  0  0  0  0  0  0
   -6.3900   20.2310  -33.1800 C   0  0  0  0  0  0  0  0  0  0  0  0
   -7.2470   21.2210  -32.6720 C   0  0  0  0  0  0  0  0  0  0  0  0
   -6.6820   22.2640  -31.9430 C   0  0  0  0  0  0  0  0  0  0  0  0
   -7.2770   23.3630  -31.3690 C   0  0  0  0  0  0  0  0  0  0  0  0
   -6.2370   24.0740  -30.7750 C   0  0  0  0  0  0  0  0  0  0  0  0
   -6.4440   25.3060  -29.9890 C   0  0  0  0  0  0  0  0  0  0  0  0
   -5.6610   26.4760  -30.2280 N   0  0  0  0  0  0  0  0  0  0  0  0
   -7.2870   25.3080  -29.0530 O   0  0  0  0  0  0  0  0  0  0  0  0
   -5.0440   23.4490  -30.9840 N   0  0  0  0  0  0  0  0  0  0  0  0
   -3.7340   23.9270  -30.6310 C   0  0  0  0  0  0  0  0  0  0  0  0
   -2.7930   23.1140  -30.4300 O   0  0  0  0  0  0  0  0  0  0  0  0
   -3.4900   25.2880  -30.5070 O   0  0  0  0  0  0  0  0  0  0  0  0
   -5.3330   22.3390  -31.7000 C   0  0  0  0  0  0  0  0  0  0  0  0
   -4.4540   21.3770  -32.2130 C   0  0  0  0  0  0  0  0  0  0  0  0
   -3.6357   18.6940  -32.6535 H   0  0  0  0  0  0  0  0  0  0  0  0
   -4.6746   18.5353  -34.1102 H   0  0  0  0  0  0  0  0  0  0  0  0
   -3.2980   19.6893  -34.1102 H   0  0  0  0  0  0  0  0  0  0  0  0
   -6.8084   19.3855  -33.7458 H   0  0  0  0  0  0  0  0  0  0  0  0
   -8.3323   21.1737  -32.8449 H   0  0  0  0  0  0  0  0  0  0  0  0
   -8.3454   23.6245  -31.3772 H   0  0  0  0  0  0  0  0  0  0  0  0
   -5.8460   27.3500  -29.6880 H   0  0  0  0  0  0  0  0  0  0  0  0
   -4.8430   26.4550  -30.8760 H   0  0  0  0  0  0  0  0  0  0  0  0
   -3.3715   21.4487  -32.0311 H   0  0  0  0  0  0  0  0  0  0  0  0
  1  2  1  0
  2  3  2  0
  3  4  1  0
  4  5  2  0
  5  6  1  0
  6  7  2  0
  7  8  1  0
  8  9  1  0
  8 10  2  0
  7 11  1  0
 11 12  1  0
 12 13  2  0
 12 14  1  0
 11 15  1  0
 15 16  2  0
 16  2  1  0
 15  5  1  0
  1 17  1  0
  1 18  1  0
  1 19  1  0
  3 20  1  0
  4 21  1  0
  6 22  1  0
  9 23  1  0
  9 24  1  0
 16 25  1  0
M  CHG  1  14  -1
M  END
>  <UniqueID>  (93) 
93

>  <SMILES>  (93) 
Cc1ccc2cc(C(N)=O)n(C(=O)[O-])c2c1

>  <Energy>  (93) 
64.947971227273

>  <Genealogy>  (93) 
Cc1ccc2cc(C(N)=O)n(C(=O)[O-])c2c1 (protonated)
Cc1ccc2cc(C(N)=O)n(C(=O)[O-])c2c1 (3D coordinates assigned)
Cc1ccc2cc(C(N)=O)n(C(=O)[O-])c2c1 (optimized conformer: 64.947971227273 kcal/mol)

>  <smiles>  (93) 
Cc1ccc2cc(C(N)=O)n(C(=O)O)c2c1

>  <score_type>  (93) 
oracle

>  <origin>  (93) 
adg

>  <m_score__min__energy>  (93) 
-8.0399999999999991

>  <m_primary>  (93) 
energy

$$$$
93:0
     RDKit          3D

 31 33  0  0  0  0  0  0  0  0999 V2000
   -1.4880   25.9740  -28.9380 N   0  0  0  0  0  0  0  0  0  0  0  0
   -0.8520   24.7040  -29.0530 C   0  0  0  0  0  0  0  0  0  0  0  0
    0.2720   24.5260  -28.5130 O   0  0  0  0  0  0  0  0  0  0  0  0
   -1.5200   23.5780  -29.7400 C   0  0  0  0  0  0  0  0  0  0  0  0
   -0.8510   22.4270  -30.1490 C   0  0  0  0  0  0  0  0  0  0  0  0
   -1.8280   21.5980  -30.6530 C   0  0  0  0  0  0  0  0  0  0  0  0
   -1.7220   20.3280  -31.2090 C   0  0  0  0  0  0  0  0  0  0  0  0
   -2.8950   19.7150  -31.6800 C   0  0  0  0  0  0  0  0  0  0  0  0
   -4.1470   20.3790  -31.5970 C   0  0  0  0  0  0  0  0  0  0  0  0
   -5.3780   19.7260  -32.1080 C   0  0  0  0  0  0  0  0  0  0  0  0
   -6.6260   20.3650  -31.9970 C   0  0  0  0  0  0  0  0  0  0  0  0
   -7.7860   19.7470  -32.4790 C   0  0  0  0  0  0  0  0  0  0  0  0
   -9.3370   20.5530  -32.3290 Cl  0  0  0  0  0  0  0  0  0  0  0  0
   -7.7100   18.4860  -33.0760 C   0  0  0  0  0  0  0  0  0  0  0  0
   -6.4750   17.8400  -33.1910 C   0  0  0  0  0  0  0  0  0  0  0  0
   -6.3820   16.2580  -33.9450 Cl  0  0  0  0  0  0  0  0  0  0  0  0
   -5.3150   18.4550  -32.7100 C   0  0  0  0  0  0  0  0  0  0  0  0
   -4.2100   21.6720  -31.0250 C   0  0  0  0  0  0  0  0  0  0  0  0
   -3.0280   22.2510  -30.5470 C   0  0  0  0  0  0  0  0  0  0  0  0
   -2.8560   23.4710  -29.9900 N   0  0  0  0  0  0  0  0  0  0  0  0
   -3.8680   24.4740  -29.8030 C   0  0  0  0  0  0  0  0  0  0  0  0
   -4.7670   24.3170  -28.9360 O   0  0  0  0  0  0  0  0  0  0  0  0
   -3.8800   25.6150  -30.5970 O   0  0  0  0  0  0  0  0  0  0  0  0
   -2.5290   26.0580  -28.9640 H   0  0  0  0  0  0  0  0  0  0  0  0
    0.2280   22.2236  -30.0834 H   0  0  0  0  0  0  0  0  0  0  0  0
   -0.7494   19.8188  -31.2780 H   0  0  0  0  0  0  0  0  0  0  0  0
   -2.8427   18.7076  -32.1187 H   0  0  0  0  0  0  0  0  0  0  0  0
   -6.6911   21.3578  -31.5279 H   0  0  0  0  0  0  0  0  0  0  0  0
   -8.6216   18.0014  -33.4556 H   0  0  0  0  0  0  0  0  0  0  0  0
   -4.3463   17.9420  -32.8026 H   0  0  0  0  0  0  0  0  0  0  0  0
   -5.1668   22.2105  -30.9574 H   0  0  0  0  0  0  0  0  0  0  0  0
  1  2  1  0
  2  3  2  0
  2  4  1  0
  4  5  2  0
  5  6  1  0
  6  7  2  0
  7  8  1  0
  8  9  2  0
  9 10  1  0
 10 11  2  0
 11 12  1  0
 12 13  1  0
 12 14  2  0
 14 15  1  0
 15 16  1  0
 15 17  2  0
  9 18  1  0
 18 19  2  0
 19 20  1  0
 20 21  1  0
 21 22  2  0
 21 23  1  0
 20  4  1  0
 19  6  1  0
 17 10  1  0
  1 24  1  0
  5 25  1  0
  7 26  1  0
  8 27  1  0
 11 28  1  0
 14 29  1  0
 17 30  1  0
 18 31  1  0
M  CHG  2   1  -1  23  -1
M  END
>  <UniqueID>  (94) 
94

>  <SMILES>  (94) 
[NH-]C(=O)c1cc2ccc(-c3cc(Cl)cc(Cl)c3)cc2n1C(=O)[O-]

>  <Energy>  (94) 
78.89290174587323

>  <Genealogy>  (94) 
[NH-]C(=O)c1cc2ccc(-c3cc(Cl)cc(Cl)c3)cc2n1C(=O)[O-] (protonated)
[NH-]C(=O)c1cc2ccc(-c3cc(Cl)cc(Cl)c3)cc2n1C(=O)[O-] (3D coordinates assigned)
[NH-]C(=O)c1cc2ccc(-c3cc(Cl)cc(Cl)c3)cc2n1C(=O)[O-] (optimized conformer: 78.89290174587323 kcal/mol)

>  <smiles>  (94) 
NC(=O)c1cc2ccc(-c3cc(Cl)cc(Cl)c3)cc2n1C(=O)O

>  <score_type>  (94) 
oracle

>  <origin>  (94) 
adg

>  <m_score__min__energy>  (94) 
-12.460000000000001

>  <m_primary>  (94) 
energy

$$$$
94:0
     RDKit          3D

 48 50  0  0  0  0  0  0  0  0999 V2000
   -3.8530   23.7840  -27.8210 C   0  0  0  0  0  0  0  0  0  0  0  0
   -3.3740   22.6240  -28.6850 C   0  0  0  0  0  0  0  0  0  0  0  0
   -3.1000   23.0650  -30.0120 O   0  0  0  0  0  0  0  0  0  0  0  0
   -3.8280   22.6420  -31.1310 C   0  0  0  0  0  0  0  0  0  0  0  0
   -3.2290   22.2060  -32.1520 O   0  0  0  0  0  0  0  0  0  0  0  0
   -5.2630   22.7100  -31.1180 N   0  0  0  0  0  0  0  0  0  0  0  0
   -6.0390   23.7770  -30.7750 C   0  0  0  0  0  0  0  0  0  0  0  0
   -5.5570   25.1440  -30.4960 C   0  0  0  0  0  0  0  0  0  0  0  0
   -4.1950   25.5100  -30.7270 N   0  0  0  0  0  0  0  0  0  0  0  0
   -6.3710   26.0180  -30.0980 O   0  0  0  0  0  0  0  0  0  0  0  0
   -7.3850   23.4240  -30.7720 C   0  0  0  0  0  0  0  0  0  0  0  0
   -7.4140   22.0990  -31.1410 C   0  0  0  0  0  0  0  0  0  0  0  0
   -8.4960   21.2350  -31.2890 C   0  0  0  0  0  0  0  0  0  0  0  0
   -8.2310   19.9030  -31.6470 C   0  0  0  0  0  0  0  0  0  0  0  0
   -6.8990   19.4580  -31.8410 C   0  0  0  0  0  0  0  0  0  0  0  0
   -6.6220   18.0250  -32.2240 C   0  0  0  0  0  0  0  0  0  0  0  0
   -6.5380   17.8390  -33.7600 C   0  0  0  0  0  0  0  0  0  0  0  0
   -6.0110   16.4280  -34.1630 C   0  0  0  0  0  0  0  0  0  0  0  0
   -4.5880   16.4350  -34.7490 C   0  0  0  0  0  0  0  0  0  0  0  0
   -3.6830   17.4090  -33.9930 C   0  0  0  0  0  0  0  0  0  0  0  0
   -4.2020   18.8600  -34.0600 C   0  0  0  0  0  0  0  0  0  0  0  0
   -5.7000   18.9640  -34.4040 C   0  0  0  0  0  0  0  0  0  0  0  0
   -5.8260   20.3620  -31.6760 C   0  0  0  0  0  0  0  0  0  0  0  0
   -6.1200   21.6900  -31.3420 C   0  0  0  0  0  0  0  0  0  0  0  0
   -3.7438   23.5196  -26.7589 H   0  0  0  0  0  0  0  0  0  0  0  0
   -3.2503   24.6777  -28.0402 H   0  0  0  0  0  0  0  0  0  0  0  0
   -4.9107   23.9921  -28.0402 H   0  0  0  0  0  0  0  0  0  0  0  0
   -2.4568   22.2026  -28.2478 H   0  0  0  0  0  0  0  0  0  0  0  0
   -4.1646   21.8601  -28.7220 H   0  0  0  0  0  0  0  0  0  0  0  0
   -3.8620   26.4690  -30.4840 H   0  0  0  0  0  0  0  0  0  0  0  0
   -3.5390   24.8640  -31.2180 H   0  0  0  0  0  0  0  0  0  0  0  0
   -8.2430   24.0673  -30.5268 H   0  0  0  0  0  0  0  0  0  0  0  0
   -9.5267   21.5850  -31.1304 H   0  0  0  0  0  0  0  0  0  0  0  0
   -9.0652   19.1981  -31.7782 H   0  0  0  0  0  0  0  0  0  0  0  0
   -5.6657   17.7165  -31.7764 H   0  0  0  0  0  0  0  0  0  0  0  0
   -7.4534   17.4079  -31.8526 H   0  0  0  0  0  0  0  0  0  0  0  0
   -7.5636   17.9086  -34.1515 H   0  0  0  0  0  0  0  0  0  0  0  0
   -6.0131   15.7892  -33.2675 H   0  0  0  0  0  0  0  0  0  0  0  0
   -6.6785   16.0527  -34.9527 H   0  0  0  0  0  0  0  0  0  0  0  0
   -4.1651   15.4222  -34.6762 H   0  0  0  0  0  0  0  0  0  0  0  0
   -4.6455   16.7569  -35.7993 H   0  0  0  0  0  0  0  0  0  0  0  0
   -3.6323   17.0995  -32.9387 H   0  0  0  0  0  0  0  0  0  0  0  0
   -2.6904   17.3837  -34.4665 H   0  0  0  0  0  0  0  0  0  0  0  0
   -4.0362   19.3342  -33.0814 H   0  0  0  0  0  0  0  0  0  0  0  0
   -3.6499   19.3630  -34.8676 H   0  0  0  0  0  0  0  0  0  0  0  0
   -6.0771   19.9331  -34.0454 H   0  0  0  0  0  0  0  0  0  0  0  0
   -5.7979   18.8684  -35.4954 H   0  0  0  0  0  0  0  0  0  0  0  0
   -4.7851   20.0310  -31.8066 H   0  0  0  0  0  0  0  0  0  0  0  0
  1  2  1  0
  2  3  1  0
  3  4  1  0
  4  5  2  0
  4  6  1  0
  6  7  1  0
  7  8  1  0
  8  9  1  0
  8 10  2  0
  7 11  2  0
 11 12  1  0
 12 13  2  0
 13 14  1  0
 14 15  2  0
 15 16  1  0
 16 17  1  0
 17 18  1  0
 18 19  1  0
 19 20  1  0
 20 21  1  0
 21 22  1  0
 15 23  1  0
 23 24  2  0
 24  6  1  0
 24 12  1  0
 22 17  1  0
  1 25  1  0
  1 26  1  0
  1 27  1  0
  2 28  1  0
  2 29  1  0
  9 30  1  0
  9 31  1  0
 11 32  1  0
 13 33  1  0
 14 34  1  0
 16 35  1  0
 16 36  1  0
 17 37  1  0
 18 38  1  0
 18 39  1  0
 19 40  1  0
 19 41  1  0
 20 42  1  0
 20 43  1  0
 21 44  1  0
 21 45  1  0
 22 46  1  0
 22 47  1  0
 23 48  1  0
M  END
>  <UniqueID>  (95) 
95

>  <SMILES>  (95) 
CCOC(=O)n1c(C(N)=O)cc2ccc(CC3CCCCC3)cc21

>  <Energy>  (95) 
85.55140191344799

>  <Genealogy>  (95) 
CCOC(=O)n1c(C(N)=O)cc2ccc(CC3CCCCC3)cc21 (3D coordinates assigned)
CCOC(=O)n1c(C(N)=O)cc2ccc(CC3CCCCC3)cc21 (nonaromatic ring conformer: 85.55140191344799 kcal/mol)

>  <smiles>  (95) 
CCOC(=O)n1c(C(N)=O)cc2ccc(CC3CCCCC3)cc21

>  <score_type>  (95) 
oracle

>  <origin>  (95) 
adg

>  <m_score__min__energy>  (95) 
-9.3499999999999996

>  <m_primary>  (95) 
energy

$$$$
