0:0
     RDKit          3D

 31 32  0  0  0  0  0  0  0  0999 V2000
   -4.3440   25.6360  -30.5570 N   0  0  0  0  0  0  0  0  0  0  0  0
   -5.5620   25.0290  -30.1320 C   0  0  0  0  0  0  0  0  0  0  0  0
   -6.3060   25.6430  -29.3220 O   0  0  0  0  0  0  0  0  0  0  0  0
   -5.9790   23.7130  -30.6580 C   0  0  0  0  0  0  0  0  0  0  0  0
   -7.1990   23.4840  -31.2940 C   0  0  0  0  0  0  0  0  0  0  0  0
   -7.1610   22.1650  -31.6900 C   0  0  0  0  0  0  0  0  0  0  0  0
   -8.1130   21.3990  -32.3570 C   0  0  0  0  0  0  0  0  0  0  0  0
   -7.8110   20.0500  -32.6130 C   0  0  0  0  0  0  0  0  0  0  0  0
   -6.5730   19.4950  -32.2000 C   0  0  0  0  0  0  0  0  0  0  0  0
   -6.2590   18.0510  -32.4650 C   0  0  0  0  0  0  0  0  0  0  0  0
   -6.3700   17.3280  -31.2910 F   0  0  0  0  0  0  0  0  0  0  0  0
   -7.1440   17.5450  -33.3980 F   0  0  0  0  0  0  0  0  0  0  0  0
   -5.6310   20.3050  -31.5280 C   0  0  0  0  0  0  0  0  0  0  0  0
   -5.9570   21.6450  -31.2950 C   0  0  0  0  0  0  0  0  0  0  0  0
   -5.2240   22.5800  -30.6570 N   0  0  0  0  0  0  0  0  0  0  0  0
   -3.9500   22.3650  -30.0350 C   0  0  0  0  0  0  0  0  0  0  0  0
   -3.8310   21.4800  -29.1460 O   0  0  0  0  0  0  0  0  0  0  0  0
   -2.7940   23.2650  -30.3450 C   0  0  0  0  0  0  0  0  0  0  0  0
   -2.3380   24.2200  -28.8680 P   0  0  1  0  0  0  0  0  0  0  0  0
   -1.3800   23.4170  -28.0160 O   0  0  0  0  0  0  0  0  0  0  0  0
   -1.5960   25.6670  -29.3340 O   0  0  0  0  0  0  0  0  0  0  0  0
   -3.7290   24.5700  -27.9710 O   0  0  0  0  0  0  0  0  0  0  0  0
   -3.5140   25.6740  -29.9240 H   0  0  0  0  0  0  0  0  0  0  0  0
   -8.0171   24.2032  -31.4468 H   0  0  0  0  0  0  0  0  0  0  0  0
   -9.0716   21.8356  -32.6739 H   0  0  0  0  0  0  0  0  0  0  0  0
   -8.5423   19.4187  -33.1389 H   0  0  0  0  0  0  0  0  0  0  0  0
   -5.2323   17.9704  -32.8516 H   0  0  0  0  0  0  0  0  0  0  0  0
   -4.6665   19.8928  -31.1967 H   0  0  0  0  0  0  0  0  0  0  0  0
   -1.9349   22.6575  -30.6658 H   0  0  0  0  0  0  0  0  0  0  0  0
   -3.0811   23.9583  -31.1493 H   0  0  0  0  0  0  0  0  0  0  0  0
   -4.2250   25.2310  -28.5180 H   0  0  0  0  0  0  0  0  0  0  0  0
  1  2  1  0
  2  3  2  0
  2  4  1  0
  4  5  2  0
  5  6  1  0
  6  7  2  0
  7  8  1  0
  8  9  2  0
  9 10  1  0
 10 11  1  0
 10 12  1  0
  9 13  1  0
 13 14  2  0
 14 15  1  0
 15 16  1  0
 16 17  2  0
 16 18  1  0
 18 19  1  0
 19 20  2  0
 19 21  1  6
 19 22  1  0
 15  4  1  0
 14  6  1  0
  1 23  1  0
  5 24  1  0
  7 25  1  0
  8 26  1  0
 10 27  1  0
 13 28  1  0
 18 29  1  0
 18 30  1  0
 22 31  1  0
M  CHG  2   1  -1  21  -1
M  END
>  <UniqueID>  (1) 
1

>  <SMILES>  (1) 
[NH-]C(=O)c1cc2ccc(C(F)F)cc2n1C(=O)C[P@@](=O)([O-])O

>  <Energy>  (1) 
64.18003455355691

>  <Genealogy>  (1) 
[NH-]C(=O)c1cc2ccc(C(F)F)cc2n1C(=O)CP(=O)([O-])O (protonated)
[NH-]C(=O)c1cc2ccc(C(F)F)cc2n1C(=O)C[P@@](=O)([O-])O (chirality)
[NH-]C(=O)c1cc2ccc(C(F)F)cc2n1C(=O)C[P@@](=O)([O-])O (3D coordinates assigned)
[NH-]C(=O)c1cc2ccc(C(F)F)cc2n1C(=O)C[P@@](=O)([O-])O (optimized conformer: 64.18003455355691 kcal/mol)

>  <smiles>  (1) 
NC(=O)c1cc2ccc(C(F)F)cc2n1C(=O)CP(=O)(O)O

>  <score_type>  (1) 
oracle

>  <origin>  (1) 
adg

>  <m_score__min__energy>  (1) 
-11.390000000000001

>  <m_primary>  (1) 
energy

$$$$
1:0
     RDKit          3D

 33 34  0  0  0  0  0  0  0  0999 V2000
   -5.2450   24.4970  -29.0550 N   0  0  0  0  0  0  0  0  0  0  0  0
   -6.4380   24.3280  -29.8240 C   0  0  0  0  0  0  0  0  0  0  0  0
   -7.3000   25.2460  -29.8270 O   0  0  0  0  0  0  0  0  0  0  0  0
   -6.6790   23.0780  -30.5790 C   0  0  0  0  0  0  0  0  0  0  0  0
   -7.9390   22.6470  -30.9890 C   0  0  0  0  0  0  0  0  0  0  0  0
   -7.7120   21.5150  -31.7370 C   0  0  0  0  0  0  0  0  0  0  0  0
   -8.6150   20.6690  -32.3740 C   0  0  0  0  0  0  0  0  0  0  0  0
   -8.1030   19.5500  -33.0530 C   0  0  0  0  0  0  0  0  0  0  0  0
   -6.7070   19.3020  -33.0930 C   0  0  0  0  0  0  0  0  0  0  0  0
   -6.1760   18.0650  -33.7720 C   0  0  0  0  0  0  0  0  0  0  0  0
   -7.0840   17.0250  -33.6710 F   0  0  0  0  0  0  0  0  0  0  0  0
   -5.9510   18.3390  -35.1070 F   0  0  0  0  0  0  0  0  0  0  0  0
   -4.9880   17.6580  -33.1880 F   0  0  0  0  0  0  0  0  0  0  0  0
   -5.8250   20.1740  -32.4130 C   0  0  0  0  0  0  0  0  0  0  0  0
   -6.3610   21.2900  -31.7610 C   0  0  0  0  0  0  0  0  0  0  0  0
   -5.7130   22.2410  -31.0520 N   0  0  0  0  0  0  0  0  0  0  0  0
   -4.2980   22.3100  -30.8120 C   0  0  0  0  0  0  0  0  0  0  0  0
   -3.5520   22.9380  -31.6120 O   0  0  0  0  0  0  0  0  0  0  0  0
   -3.7540   21.6850  -29.6840 O   0  0  0  0  0  0  0  0  0  0  0  0
   -2.7950   22.3110  -28.8340 C   0  0  0  0  0  0  0  0  0  0  0  0
   -1.9570   23.1730  -29.5730 O   0  0  0  0  0  0  0  0  0  0  0  0
   -2.4140   24.7910  -29.2710 P   0  0  0  0  0  0  0  0  0  0  0  0
   -3.0630   24.9000  -27.9100 O   0  0  0  0  0  0  0  0  0  0  0  0
   -1.0670   25.8130  -29.3380 O   0  0  0  0  0  0  0  0  0  0  0  0
   -3.5250   25.2720  -30.4500 O   0  0  0  0  0  0  0  0  0  0  0  0
   -4.4840   23.7830  -29.0690 H   0  0  0  0  0  0  0  0  0  0  0  0
   -5.1040   25.3660  -28.4930 H   0  0  0  0  0  0  0  0  0  0  0  0
   -8.9093   23.1130  -30.7626 H   0  0  0  0  0  0  0  0  0  0  0  0
   -9.6962   20.8699  -32.3469 H   0  0  0  0  0  0  0  0  0  0  0  0
   -8.7928   18.8586  -33.5592 H   0  0  0  0  0  0  0  0  0  0  0  0
   -4.7425   19.9793  -32.3971 H   0  0  0  0  0  0  0  0  0  0  0  0
   -3.3217   22.8932  -28.0636 H   0  0  0  0  0  0  0  0  0  0  0  0
   -2.1751   21.5311  -28.3677 H   0  0  0  0  0  0  0  0  0  0  0  0
  1  2  1  0
  2  3  2  0
  2  4  1  0
  4  5  2  0
  5  6  1  0
  6  7  2  0
  7  8  1  0
  8  9  2  0
  9 10  1  0
 10 11  1  0
 10 12  1  0
 10 13  1  0
  9 14  1  0
 14 15  2  0
 15 16  1  0
 16 17  1  0
 17 18  2  0
 17 19  1  0
 19 20  1  0
 20 21  1  0
 21 22  1  0
 22 23  2  0
 22 24  1  0
 22 25  1  0
 16  4  1  0
 15  6  1  0
  1 26  1  0
  1 27  1  0
  5 28  1  0
  7 29  1  0
  8 30  1  0
 14 31  1  0
 20 32  1  0
 20 33  1  0
M  CHG  2  24  -1  25  -1
M  END
>  <UniqueID>  (2) 
2

>  <SMILES>  (2) 
NC(=O)c1cc2ccc(C(F)(F)F)cc2n1C(=O)OCOP(=O)([O-])[O-]

>  <Energy>  (2) 
70.57738707530004

>  <Genealogy>  (2) 
NC(=O)c1cc2ccc(C(F)(F)F)cc2n1C(=O)OCOP(=O)([O-])[O-] (protonated)
NC(=O)c1cc2ccc(C(F)(F)F)cc2n1C(=O)OCOP(=O)([O-])[O-] (3D coordinates assigned)
NC(=O)c1cc2ccc(C(F)(F)F)cc2n1C(=O)OCOP(=O)([O-])[O-] (optimized conformer: 70.57738707530004 kcal/mol)

>  <smiles>  (2) 
NC(=O)c1cc2ccc(C(F)(F)F)cc2n1C(=O)OCOP(=O)(O)O

>  <score_type>  (2) 
oracle

>  <origin>  (2) 
adg

>  <m_score__min__energy>  (2) 
-12.119999999999999

>  <m_primary>  (2) 
energy

$$$$
2:0
     RDKit          3D

 42 43  0  0  0  0  0  0  0  0999 V2000
   -0.8190   26.9110  -27.7810 C   0  0  0  0  0  0  0  0  0  0  0  0
   -1.2460   26.2310  -28.9420 O   0  0  0  0  0  0  0  0  0  0  0  0
   -0.9520   24.8510  -28.8430 C   0  0  0  0  0  0  0  0  0  0  0  0
   -2.1310   24.0230  -29.3580 C   0  0  0  0  0  0  0  0  0  0  0  0
   -3.1090   24.8800  -30.0190 N   0  0  0  0  0  0  0  0  0  0  0  0
   -4.3910   24.4250  -30.4670 C   0  0  0  0  0  0  0  0  0  0  0  0
   -5.0940   25.1410  -31.2310 O   0  0  0  0  0  0  0  0  0  0  0  0
   -4.8950   23.0950  -30.0190 C   0  0  0  0  0  0  0  0  0  0  0  0
   -4.3480   22.0830  -30.8550 O   0  0  0  0  0  0  0  0  0  0  0  0
   -4.8120   21.8310  -32.1490 C   0  0  0  0  0  0  0  0  0  0  0  0
   -4.2070   22.3140  -33.1450 O   0  0  0  0  0  0  0  0  0  0  0  0
   -5.9900   21.0290  -32.3410 N   0  0  0  0  0  0  0  0  0  0  0  0
   -7.2900   21.4340  -32.2840 C   0  0  0  0  0  0  0  0  0  0  0  0
   -7.7580   22.8300  -32.1680 C   0  0  0  0  0  0  0  0  0  0  0  0
   -6.8700   23.9280  -32.3850 N   0  0  0  0  0  0  0  0  0  0  0  0
   -8.9740   23.0560  -31.9310 O   0  0  0  0  0  0  0  0  0  0  0  0
   -8.1500   20.3460  -32.4010 C   0  0  0  0  0  0  0  0  0  0  0  0
   -7.3320   19.2500  -32.5490 C   0  0  0  0  0  0  0  0  0  0  0  0
   -7.6570   17.9040  -32.6890 C   0  0  0  0  0  0  0  0  0  0  0  0
   -6.6040   16.9780  -32.7810 C   0  0  0  0  0  0  0  0  0  0  0  0
   -5.2570   17.4110  -32.7350 C   0  0  0  0  0  0  0  0  0  0  0  0
   -4.1420   16.4100  -32.7820 C   0  0  0  0  0  0  0  0  0  0  0  0
   -4.9640   18.7830  -32.5740 C   0  0  0  0  0  0  0  0  0  0  0  0
   -6.0310   19.6880  -32.5080 C   0  0  0  0  0  0  0  0  0  0  0  0
   -1.1617   26.3653  -26.8895 H   0  0  0  0  0  0  0  0  0  0  0  0
    0.2793   26.9712  -27.7744 H   0  0  0  0  0  0  0  0  0  0  0  0
   -1.2419   27.9264  -27.7744 H   0  0  0  0  0  0  0  0  0  0  0  0
   -0.0590   24.6254  -29.4443 H   0  0  0  0  0  0  0  0  0  0  0  0
   -0.7677   24.5973  -27.7886 H   0  0  0  0  0  0  0  0  0  0  0  0
   -1.7619   23.2752  -30.0754 H   0  0  0  0  0  0  0  0  0  0  0  0
   -2.6146   23.5248  -28.5048 H   0  0  0  0  0  0  0  0  0  0  0  0
   -4.5891   22.9172  -28.9775 H   0  0  0  0  0  0  0  0  0  0  0  0
   -5.9929   23.0746  -30.0832 H   0  0  0  0  0  0  0  0  0  0  0  0
   -7.2080   24.9080  -32.2590 H   0  0  0  0  0  0  0  0  0  0  0  0
   -5.9050   23.7760  -32.7510 H   0  0  0  0  0  0  0  0  0  0  0  0
   -9.2497   20.3596  -32.3797 H   0  0  0  0  0  0  0  0  0  0  0  0
   -8.7060   17.5751  -32.7265 H   0  0  0  0  0  0  0  0  0  0  0  0
   -6.8285   15.9067  -32.8898 H   0  0  0  0  0  0  0  0  0  0  0  0
   -3.8451   16.1435  -31.7569 H   0  0  0  0  0  0  0  0  0  0  0  0
   -4.4814   15.5077  -33.3118 H   0  0  0  0  0  0  0  0  0  0  0  0
   -3.2814   16.8444  -33.3118 H   0  0  0  0  0  0  0  0  0  0  0  0
   -3.9234   19.1324  -32.5022 H   0  0  0  0  0  0  0  0  0  0  0  0
  1  2  1  0
  2  3  1  0
  3  4  1  0
  4  5  1  0
  5  6  1  0
  6  7  2  0
  6  8  1  0
  8  9  1  0
  9 10  1  0
 10 11  2  0
 10 12  1  0
 12 13  1  0
 13 14  1  0
 14 15  1  0
 14 16  2  0
 13 17  2  0
 17 18  1  0
 18 19  2  0
 19 20  1  0
 20 21  2  0
 21 22  1  0
 21 23  1  0
 23 24  2  0
 24 12  1  0
 24 18  1  0
  1 25  1  0
  1 26  1  0
  1 27  1  0
  3 28  1  0
  3 29  1  0
  4 30  1  0
  4 31  1  0
  8 32  1  0
  8 33  1  0
 15 34  1  0
 15 35  1  0
 17 36  1  0
 19 37  1  0
 20 38  1  0
 22 39  1  0
 22 40  1  0
 22 41  1  0
 23 42  1  0
M  CHG  1   5  -1
M  END
>  <UniqueID>  (3) 
3

>  <SMILES>  (3) 
COCC[N-]C(=O)COC(=O)n1c(C(N)=O)cc2ccc(C)cc21

>  <Energy>  (3) 
75.21756668274503

>  <Genealogy>  (3) 
COCC[N-]C(=O)COC(=O)n1c(C(N)=O)cc2ccc(C)cc21 (protonated)
COCC[N-]C(=O)COC(=O)n1c(C(N)=O)cc2ccc(C)cc21 (3D coordinates assigned)
COCC[N-]C(=O)COC(=O)n1c(C(N)=O)cc2ccc(C)cc21 (optimized conformer: 75.21756668274503 kcal/mol)

>  <smiles>  (3) 
COCCNC(=O)COC(=O)n1c(C(N)=O)cc2ccc(C)cc21

>  <score_type>  (3) 
oracle

>  <origin>  (3) 
adg

>  <m_score__min__energy>  (3) 
-10.41

>  <m_primary>  (3) 
energy

$$$$
3:0
     RDKit          3D

 34 35  0  0  0  0  0  0  0  0999 V2000
   -3.8970   25.6710  -30.8470 N   0  0  0  0  0  0  0  0  0  0  0  0
   -5.2580   25.3470  -30.5780 C   0  0  0  0  0  0  0  0  0  0  0  0
   -6.0040   26.2140  -30.0500 O   0  0  0  0  0  0  0  0  0  0  0  0
   -5.8140   24.0240  -30.9350 C   0  0  0  0  0  0  0  0  0  0  0  0
   -7.1530   23.8100  -31.2570 C   0  0  0  0  0  0  0  0  0  0  0  0
   -7.2450   22.4710  -31.5650 C   0  0  0  0  0  0  0  0  0  0  0  0
   -8.3470   21.7140  -31.9510 C   0  0  0  0  0  0  0  0  0  0  0  0
   -8.1530   20.3410  -32.1860 C   0  0  0  0  0  0  0  0  0  0  0  0
   -6.8760   19.7480  -32.0070 C   0  0  0  0  0  0  0  0  0  0  0  0
   -6.6680   18.2840  -32.2970 C   0  0  0  0  0  0  0  0  0  0  0  0
   -5.9290   17.7190  -31.2740 F   0  0  0  0  0  0  0  0  0  0  0  0
   -7.8820   17.6270  -32.3920 F   0  0  0  0  0  0  0  0  0  0  0  0
   -5.9880   18.1140  -33.4920 F   0  0  0  0  0  0  0  0  0  0  0  0
   -5.7780   20.5600  -31.6360 C   0  0  0  0  0  0  0  0  0  0  0  0
   -5.9970   21.9230  -31.4250 C   0  0  0  0  0  0  0  0  0  0  0  0
   -5.1090   22.8630  -31.0420 N   0  0  0  0  0  0  0  0  0  0  0  0
   -3.7210   22.6540  -30.7400 C   0  0  0  0  0  0  0  0  0  0  0  0
   -2.8650   22.7710  -31.6590 O   0  0  0  0  0  0  0  0  0  0  0  0
   -3.3130   22.1630  -29.3750 C   0  0  0  0  0  0  0  0  0  0  0  0
   -2.9280   23.2880  -28.4020 C   0  0  0  0  0  0  0  0  0  0  0  0
   -1.3450   24.0770  -28.8450 P   0  0  2  0  0  0  0  0  0  0  0  0
   -0.4430   24.0860  -27.6330 O   0  0  0  0  0  0  0  0  0  0  0  0
   -1.6250   25.6700  -29.3400 O   0  0  0  0  0  0  0  0  0  0  0  0
   -0.5920   23.2170  -30.0930 O   0  0  0  0  0  0  0  0  0  0  0  0
   -3.1450   24.9530  -30.7500 H   0  0  0  0  0  0  0  0  0  0  0  0
   -7.9641   24.5530  -31.2637 H   0  0  0  0  0  0  0  0  0  0  0  0
   -9.3388   22.1750  -32.0686 H   0  0  0  0  0  0  0  0  0  0  0  0
   -9.0003   19.7199  -32.5121 H   0  0  0  0  0  0  0  0  0  0  0  0
   -4.7739   20.1270  -31.5164 H   0  0  0  0  0  0  0  0  0  0  0  0
   -4.1547   21.6026  -28.9419 H   0  0  0  0  0  0  0  0  0  0  0  0
   -2.4184   21.5380  -29.5130 H   0  0  0  0  0  0  0  0  0  0  0  0
   -3.7193   24.0520  -28.4141 H   0  0  0  0  0  0  0  0  0  0  0  0
   -2.8134   22.8430  -27.4026 H   0  0  0  0  0  0  0  0  0  0  0  0
   -1.3210   22.9980  -30.7260 H   0  0  0  0  0  0  0  0  0  0  0  0
  1  2  1  0
  2  3  2  0
  2  4  1  0
  4  5  2  0
  5  6  1  0
  6  7  2  0
  7  8  1  0
  8  9  2  0
  9 10  1  0
 10 11  1  0
 10 12  1  0
 10 13  1  0
  9 14  1  0
 14 15  2  0
 15 16  1  0
 16 17  1  0
 17 18  2  0
 17 19  1  0
 19 20  1  0
 20 21  1  0
 21 22  2  0
 21 23  1  6
 21 24  1  0
 16  4  1  0
 15  6  1  0
  1 25  1  0
  5 26  1  0
  7 27  1  0
  8 28  1  0
 14 29  1  0
 19 30  1  0
 19 31  1  0
 20 32  1  0
 20 33  1  0
 24 34  1  0
M  CHG  2   1  -1  23  -1
M  END
>  <UniqueID>  (4) 
4

>  <SMILES>  (4) 
[NH-]C(=O)c1cc2ccc(C(F)(F)F)cc2n1C(=O)CC[P@](=O)([O-])O

>  <Energy>  (4) 
68.09522326630453

>  <Genealogy>  (4) 
[NH-]C(=O)c1cc2ccc(C(F)(F)F)cc2n1C(=O)CCP(=O)([O-])O (protonated)
[NH-]C(=O)c1cc2ccc(C(F)(F)F)cc2n1C(=O)CC[P@](=O)([O-])O (chirality)
[NH-]C(=O)c1cc2ccc(C(F)(F)F)cc2n1C(=O)CC[P@](=O)([O-])O (3D coordinates assigned)
[NH-]C(=O)c1cc2ccc(C(F)(F)F)cc2n1C(=O)CC[P@](=O)([O-])O (optimized conformer: 68.09522326630453 kcal/mol)

>  <smiles>  (4) 
NC(=O)c1cc2ccc(C(F)(F)F)cc2n1C(=O)CCP(=O)(O)O

>  <score_type>  (4) 
oracle

>  <origin>  (4) 
adg

>  <m_score__min__energy>  (4) 
-12.140000000000001

>  <m_primary>  (4) 
energy

$$$$
4:0
     RDKit          3D

 49 50  0  0  0  0  0  0  0  0999 V2000
   -3.3720   20.1970  -33.4760 C   0  0  0  0  0  0  0  0  0  0  0  0
   -3.5300   18.7320  -33.4860 N   0  0  0  0  0  0  0  0  0  0  0  0
   -2.3430   18.1150  -34.0990 C   0  0  0  0  0  0  0  0  0  0  0  0
   -4.7500   18.3340  -34.2220 C   0  0  0  0  0  0  0  0  0  0  0  0
   -5.4970   17.1930  -33.5080 C   0  0  0  0  0  0  0  0  0  0  0  0
   -6.3440   17.6790  -32.3220 C   0  0  0  0  0  0  0  0  0  0  0  0
   -7.4200   18.5730  -32.7600 N   0  0  0  0  0  0  0  0  0  0  0  0
   -7.5640   19.9450  -32.3490 C   0  0  0  0  0  0  0  0  0  0  0  0
   -8.8280   20.5990  -32.3510 C   0  0  0  0  0  0  0  0  0  0  0  0
   -8.9410   21.9420  -31.9580 C   0  0  0  0  0  0  0  0  0  0  0  0
   -7.7850   22.6090  -31.5690 C   0  0  0  0  0  0  0  0  0  0  0  0
   -7.6040   23.9150  -31.1710 C   0  0  0  0  0  0  0  0  0  0  0  0
   -6.2410   24.0370  -30.9160 C   0  0  0  0  0  0  0  0  0  0  0  0
   -5.6160   25.2700  -30.3950 C   0  0  0  0  0  0  0  0  0  0  0  0
   -4.2690   25.6160  -30.7210 N   0  0  0  0  0  0  0  0  0  0  0  0
   -6.2700   26.0090  -29.6120 O   0  0  0  0  0  0  0  0  0  0  0  0
   -5.6000   22.8590  -31.1630 N   0  0  0  0  0  0  0  0  0  0  0  0
   -4.1890   22.5960  -31.1470 C   0  0  0  0  0  0  0  0  0  0  0  0
   -3.4840   22.9050  -32.1460 O   0  0  0  0  0  0  0  0  0  0  0  0
   -3.5200   22.0430  -29.9190 C   0  0  0  0  0  0  0  0  0  0  0  0
   -3.2360   23.1430  -28.8920 C   0  0  0  0  0  0  0  0  0  0  0  0
   -2.1270   24.0500  -29.3360 C   0  0  0  0  0  0  0  0  0  0  0  0
   -2.3140   25.2920  -29.4070 O   0  0  0  0  0  0  0  0  0  0  0  0
   -0.8890   23.5200  -29.6780 O   0  0  0  0  0  0  0  0  0  0  0  0
   -6.5610   21.9950  -31.5540 C   0  0  0  0  0  0  0  0  0  0  0  0
   -6.4150   20.6620  -31.9520 C   0  0  0  0  0  0  0  0  0  0  0  0
   -3.3334   20.5545  -32.4364 H   0  0  0  0  0  0  0  0  0  0  0  0
   -2.4393   20.4687  -33.9920 H   0  0  0  0  0  0  0  0  0  0  0  0
   -4.2253   20.6614  -33.9920 H   0  0  0  0  0  0  0  0  0  0  0  0
   -1.6639   17.7620  -33.3089 H   0  0  0  0  0  0  0  0  0  0  0  0
   -2.6531   17.2640  -34.7232 H   0  0  0  0  0  0  0  0  0  0  0  0
   -1.8247   18.8578  -34.7232 H   0  0  0  0  0  0  0  0  0  0  0  0
   -5.4188   19.2038  -34.3009 H   0  0  0  0  0  0  0  0  0  0  0  0
   -4.4493   17.9773  -35.2182 H   0  0  0  0  0  0  0  0  0  0  0  0
   -6.1606   16.7004  -34.2340 H   0  0  0  0  0  0  0  0  0  0  0  0
   -4.7390   16.5025  -33.1096 H   0  0  0  0  0  0  0  0  0  0  0  0
   -6.7867   16.8072  -31.8181 H   0  0  0  0  0  0  0  0  0  0  0  0
   -5.6894   18.2373  -31.6366 H   0  0  0  0  0  0  0  0  0  0  0  0
   -8.1070   18.1850  -33.4470 H   0  0  0  0  0  0  0  0  0  0  0  0
   -9.7261   20.0462  -32.6639 H   0  0  0  0  0  0  0  0  0  0  0  0
   -9.9158   22.4516  -31.9579 H   0  0  0  0  0  0  0  0  0  0  0  0
   -8.3730   24.6957  -31.0750 H   0  0  0  0  0  0  0  0  0  0  0  0
   -3.6410   24.9460  -31.2160 H   0  0  0  0  0  0  0  0  0  0  0  0
   -3.8650   26.5180  -30.3840 H   0  0  0  0  0  0  0  0  0  0  0  0
   -4.1778   21.2887  -29.4624 H   0  0  0  0  0  0  0  0  0  0  0  0
   -2.5613   21.5954  -30.2198 H   0  0  0  0  0  0  0  0  0  0  0  0
   -4.1485   23.7405  -28.7493 H   0  0  0  0  0  0  0  0  0  0  0  0
   -2.9268   22.6609  -27.9529 H   0  0  0  0  0  0  0  0  0  0  0  0
   -5.4250   20.1824  -31.9555 H   0  0  0  0  0  0  0  0  0  0  0  0
  1  2  1  0
  2  3  1  0
  2  4  1  0
  4  5  1  0
  5  6  1  0
  6  7  1  0
  7  8  1  0
  8  9  2  0
  9 10  1  0
 10 11  2  0
 11 12  1  0
 12 13  2  0
 13 14  1  0
 14 15  1  0
 14 16  2  0
 13 17  1  0
 17 18  1  0
 18 19  2  0
 18 20  1  0
 20 21  1  0
 21 22  1  0
 22 23  2  0
 22 24  1  0
 17 25  1  0
 25 26  2  0
 26  8  1  0
 25 11  1  0
  1 27  1  0
  1 28  1  0
  1 29  1  0
  3 30  1  0
  3 31  1  0
  3 32  1  0
  4 33  1  0
  4 34  1  0
  5 35  1  0
  5 36  1  0
  6 37  1  0
  6 38  1  0
  7 39  1  0
  9 40  1  0
 10 41  1  0
 12 42  1  0
 15 43  1  0
 15 44  1  0
 20 45  1  0
 20 46  1  0
 21 47  1  0
 21 48  1  0
 26 49  1  0
M  CHG  1  24  -1
M  END
>  <UniqueID>  (5) 
5

>  <SMILES>  (5) 
CN(C)CCCNc1ccc2cc(C(N)=O)n(C(=O)CCC(=O)[O-])c2c1

>  <Energy>  (5) 
81.23164477108325

>  <Genealogy>  (5) 
CN(C)CCCNc1ccc2cc(C(N)=O)n(C(=O)CCC(=O)[O-])c2c1 (protonated)
CN(C)CCCNc1ccc2cc(C(N)=O)n(C(=O)CCC(=O)[O-])c2c1 (3D coordinates assigned)
CN(C)CCCNc1ccc2cc(C(N)=O)n(C(=O)CCC(=O)[O-])c2c1 (optimized conformer: 81.23164477108325 kcal/mol)

>  <smiles>  (5) 
CN(C)CCCNc1ccc2cc(C(N)=O)n(C(=O)CCC(=O)O)c2c1

>  <score_type>  (5) 
oracle

>  <origin>  (5) 
adg

>  <m_score__min__energy>  (5) 
-10.529999999999999

>  <m_primary>  (5) 
energy

$$$$
5:0
     RDKit          3D

 43 44  0  0  0  0  0  0  0  0999 V2000
   -4.0680   24.3280  -27.0800 C   0  0  0  0  0  0  0  0  0  0  0  0
   -2.8350   24.8480  -27.1050 C   0  0  0  0  0  0  0  0  0  0  0  0
   -2.2920   25.5430  -25.8880 C   0  0  0  0  0  0  0  0  0  0  0  0
   -1.9630   24.6800  -28.2890 C   0  0  0  0  0  0  0  0  0  0  0  0
   -1.5230   25.6860  -28.9110 O   0  0  0  0  0  0  0  0  0  0  0  0
   -1.6330   23.3910  -28.7190 O   0  0  0  0  0  0  0  0  0  0  0  0
   -2.5070   22.5900  -29.5060 C   0  0  0  0  0  0  0  0  0  0  0  0
   -2.7000   23.2030  -30.7760 O   0  0  0  0  0  0  0  0  0  0  0  0
   -3.5570   22.6770  -31.7490 C   0  0  0  0  0  0  0  0  0  0  0  0
   -3.0890   22.1030  -32.7680 O   0  0  0  0  0  0  0  0  0  0  0  0
   -4.9780   22.7650  -31.5660 N   0  0  0  0  0  0  0  0  0  0  0  0
   -5.6750   23.7340  -30.9100 C   0  0  0  0  0  0  0  0  0  0  0  0
   -5.1210   25.0040  -30.3960 C   0  0  0  0  0  0  0  0  0  0  0  0
   -3.8630   25.4930  -30.8540 N   0  0  0  0  0  0  0  0  0  0  0  0
   -5.7870   25.6880  -29.5740 O   0  0  0  0  0  0  0  0  0  0  0  0
   -7.0260   23.4020  -30.8420 C   0  0  0  0  0  0  0  0  0  0  0  0
   -7.1360   22.1910  -31.4870 C   0  0  0  0  0  0  0  0  0  0  0  0
   -8.2490   21.3860  -31.6950 C   0  0  0  0  0  0  0  0  0  0  0  0
   -8.0650   20.1600  -32.3540 C   0  0  0  0  0  0  0  0  0  0  0  0
   -6.7730   19.7430  -32.7900 C   0  0  0  0  0  0  0  0  0  0  0  0
   -6.5890   18.4610  -33.4510 N   0  0  0  0  0  0  0  0  0  0  0  0
   -5.7990   18.3640  -34.6870 C   0  0  0  0  0  0  0  0  0  0  0  0
   -7.1820   17.2370  -32.8890 C   0  0  0  0  0  0  0  0  0  0  0  0
   -5.6680   20.6030  -32.5560 C   0  0  0  0  0  0  0  0  0  0  0  0
   -5.8870   21.8270  -31.9120 C   0  0  0  0  0  0  0  0  0  0  0  0
   -4.4683   23.8187  -27.9691 H   0  0  0  0  0  0  0  0  0  0  0  0
   -4.6811   24.4099  -26.1704 H   0  0  0  0  0  0  0  0  0  0  0  0
   -2.6765   25.0508  -24.9825 H   0  0  0  0  0  0  0  0  0  0  0  0
   -1.1933   25.4905  -25.8954 H   0  0  0  0  0  0  0  0  0  0  0  0
   -2.6088   26.5964  -25.8954 H   0  0  0  0  0  0  0  0  0  0  0  0
   -2.0648   21.5923  -29.6441 H   0  0  0  0  0  0  0  0  0  0  0  0
   -3.4762   22.4947  -28.9945 H   0  0  0  0  0  0  0  0  0  0  0  0
   -2.9830   25.2850  -30.3320 H   0  0  0  0  0  0  0  0  0  0  0  0
   -7.8331   23.9837  -30.3728 H   0  0  0  0  0  0  0  0  0  0  0  0
   -9.2462   21.7002  -31.3531 H   0  0  0  0  0  0  0  0  0  0  0  0
   -8.9330   19.5096  -32.5372 H   0  0  0  0  0  0  0  0  0  0  0  0
   -4.7365   18.2335  -34.4338 H   0  0  0  0  0  0  0  0  0  0  0  0
   -6.1441   17.5015  -35.2760 H   0  0  0  0  0  0  0  0  0  0  0  0
   -5.9252   19.2844  -35.2760 H   0  0  0  0  0  0  0  0  0  0  0  0
   -7.1571   17.2885  -31.7905 H   0  0  0  0  0  0  0  0  0  0  0  0
   -8.2244   17.1454  -33.2282 H   0  0  0  0  0  0  0  0  0  0  0  0
   -6.6078   16.3622  -33.2282 H   0  0  0  0  0  0  0  0  0  0  0  0
   -4.6562   20.3126  -32.8754 H   0  0  0  0  0  0  0  0  0  0  0  0
  1  2  2  0
  2  3  1  0
  2  4  1  0
  4  5  2  0
  4  6  1  0
  6  7  1  0
  7  8  1  0
  8  9  1  0
  9 10  2  0
  9 11  1  0
 11 12  1  0
 12 13  1  0
 13 14  1  0
 13 15  2  0
 12 16  2  0
 16 17  1  0
 17 18  2  0
 18 19  1  0
 19 20  2  0
 20 21  1  0
 21 22  1  0
 21 23  1  0
 20 24  1  0
 24 25  2  0
 25 11  1  0
 25 17  1  0
  1 26  1  0
  1 27  1  0
  3 28  1  0
  3 29  1  0
  3 30  1  0
  7 31  1  0
  7 32  1  0
 14 33  1  0
 16 34  1  0
 18 35  1  0
 19 36  1  0
 22 37  1  0
 22 38  1  0
 22 39  1  0
 23 40  1  0
 23 41  1  0
 23 42  1  0
 24 43  1  0
M  CHG  1  14  -1
M  END
>  <UniqueID>  (6) 
6

>  <SMILES>  (6) 
C=C(C)C(=O)OCOC(=O)n1c(C([NH-])=O)cc2ccc(N(C)C)cc21

>  <Energy>  (6) 
77.95694978638561

>  <Genealogy>  (6) 
C=C(C)C(=O)OCOC(=O)n1c(C([NH-])=O)cc2ccc(N(C)C)cc21 (protonated)
C=C(C)C(=O)OCOC(=O)n1c(C([NH-])=O)cc2ccc(N(C)C)cc21 (3D coordinates assigned)
C=C(C)C(=O)OCOC(=O)n1c(C([NH-])=O)cc2ccc(N(C)C)cc21 (optimized conformer: 77.95694978638561 kcal/mol)

>  <smiles>  (6) 
C=C(C)C(=O)OCOC(=O)n1c(C(N)=O)cc2ccc(N(C)C)cc21

>  <score_type>  (6) 
oracle

>  <origin>  (6) 
adg

>  <m_score__min__energy>  (6) 
-10.619999999999999

>  <m_primary>  (6) 
energy

$$$$
6:0
     RDKit          3D

 38 40  0  0  0  0  0  0  0  0999 V2000
   -3.8690   25.2810  -30.5950 N   0  0  0  0  0  0  0  0  0  0  0  0
   -5.2610   25.2150  -30.3000 C   0  0  0  0  0  0  0  0  0  0  0  0
   -5.8060   26.1730  -29.6880 O   0  0  0  0  0  0  0  0  0  0  0  0
   -6.0840   24.0670  -30.7400 C   0  0  0  0  0  0  0  0  0  0  0  0
   -7.4720   24.1260  -30.8570 C   0  0  0  0  0  0  0  0  0  0  0  0
   -7.8490   22.8980  -31.3450 C   0  0  0  0  0  0  0  0  0  0  0  0
   -9.1170   22.4070  -31.6390 C   0  0  0  0  0  0  0  0  0  0  0  0
   -9.2190   21.0860  -32.1050 C   0  0  0  0  0  0  0  0  0  0  0  0
   -8.0660   20.2790  -32.2620 C   0  0  0  0  0  0  0  0  0  0  0  0
   -8.2210   18.9290  -32.7440 N   0  0  0  0  0  0  0  0  0  0  0  0
   -7.5450   17.7640  -32.1710 C   0  0  0  0  0  0  0  0  0  0  0  0
   -6.3480   17.3780  -33.0010 C   0  0  0  0  0  0  0  0  0  0  0  0
   -6.0140   18.1070  -34.1540 C   0  0  0  0  0  0  0  0  0  0  0  0
   -4.9040   17.7430  -34.9220 C   0  0  0  0  0  0  0  0  0  0  0  0
   -4.1040   16.6520  -34.5470 C   0  0  0  0  0  0  0  0  0  0  0  0
   -2.9310   16.2680  -35.3650 C   0  0  0  0  0  0  0  0  0  0  0  0
   -3.0730   15.5600  -36.3970 O   0  0  0  0  0  0  0  0  0  0  0  0
   -1.6550   16.6840  -35.0030 O   0  0  0  0  0  0  0  0  0  0  0  0
   -4.4330   15.9330  -33.3830 C   0  0  0  0  0  0  0  0  0  0  0  0
   -5.5430   16.2960  -32.6160 C   0  0  0  0  0  0  0  0  0  0  0  0
   -6.7940   20.8120  -31.9400 C   0  0  0  0  0  0  0  0  0  0  0  0
   -6.7170   22.1410  -31.5020 C   0  0  0  0  0  0  0  0  0  0  0  0
   -5.6210   22.8480  -31.1350 N   0  0  0  0  0  0  0  0  0  0  0  0
   -4.2600   22.3840  -31.0960 C   0  0  0  0  0  0  0  0  0  0  0  0
   -3.4560   22.6580  -32.0240 O   0  0  0  0  0  0  0  0  0  0  0  0
   -3.4880   26.0200  -31.2280 H   0  0  0  0  0  0  0  0  0  0  0  0
   -8.1264   24.9752  -30.6109 H   0  0  0  0  0  0  0  0  0  0  0  0
  -10.0118   23.0338  -31.5105 H   0  0  0  0  0  0  0  0  0  0  0  0
  -10.2081   20.6726  -32.3514 H   0  0  0  0  0  0  0  0  0  0  0  0
   -8.8180   18.7660  -33.5870 H   0  0  0  0  0  0  0  0  0  0  0  0
   -7.2134   18.0053  -31.1503 H   0  0  0  0  0  0  0  0  0  0  0  0
   -8.2500   16.9198  -32.1550 H   0  0  0  0  0  0  0  0  0  0  0  0
   -6.6287   18.9684  -34.4542 H   0  0  0  0  0  0  0  0  0  0  0  0
   -4.6554   18.3161  -35.8274 H   0  0  0  0  0  0  0  0  0  0  0  0
   -3.8119   15.0791  -33.0747 H   0  0  0  0  0  0  0  0  0  0  0  0
   -5.7869   15.7299  -31.7049 H   0  0  0  0  0  0  0  0  0  0  0  0
   -5.8868   20.1966  -32.0316 H   0  0  0  0  0  0  0  0  0  0  0  0
   -3.9172   21.7808  -30.2424 H   0  0  0  0  0  0  0  0  0  0  0  0
  1  2  1  0
  2  3  2  0
  2  4  1  0
  4  5  2  0
  5  6  1  0
  6  7  2  0
  7  8  1  0
  8  9  2  0
  9 10  1  0
 10 11  1  0
 11 12  1  0
 12 13  2  0
 13 14  1  0
 14 15  2  0
 15 16  1  0
 16 17  2  0
 16 18  1  0
 15 19  1  0
 19 20  2  0
  9 21  1  0
 21 22  2  0
 22 23  1  0
 23 24  1  0
 24 25  2  0
 23  4  1  0
 22  6  1  0
 20 12  1  0
  1 26  1  0
  5 27  1  0
  7 28  1  0
  8 29  1  0
 10 30  1  0
 11 31  1  0
 11 32  1  0
 13 33  1  0
 14 34  1  0
 19 35  1  0
 20 36  1  0
 21 37  1  0
 24 38  1  0
M  CHG  2   1  -1  18  -1
M  END
>  <UniqueID>  (7) 
7

>  <SMILES>  (7) 
[NH-]C(=O)c1cc2ccc(NCc3ccc(C(=O)[O-])cc3)cc2n1C=O

>  <Energy>  (7) 
78.31752538732233

>  <Genealogy>  (7) 
[NH-]C(=O)c1cc2ccc(NCc3ccc(C(=O)[O-])cc3)cc2n1C=O (protonated)
[NH-]C(=O)c1cc2ccc(NCc3ccc(C(=O)[O-])cc3)cc2n1C=O (3D coordinates assigned)
[NH-]C(=O)c1cc2ccc(NCc3ccc(C(=O)[O-])cc3)cc2n1C=O (optimized conformer: 78.31752538732233 kcal/mol)

>  <smiles>  (7) 
NC(=O)c1cc2ccc(NCc3ccc(C(=O)O)cc3)cc2n1C=O

>  <score_type>  (7) 
oracle

>  <origin>  (7) 
adg

>  <m_score__min__energy>  (7) 
-11.130000000000001

>  <m_primary>  (7) 
energy

$$$$
7:0
     RDKit          3D

 32 33  0  0  0  0  0  0  0  0999 V2000
   -3.9040   25.3620  -30.8450 N   0  0  0  0  0  0  0  0  0  0  0  0
   -5.1930   24.9690  -30.3810 C   0  0  0  0  0  0  0  0  0  0  0  0
   -5.7790   25.6710  -29.5150 O   0  0  0  0  0  0  0  0  0  0  0  0
   -5.8470   23.7710  -30.9460 C   0  0  0  0  0  0  0  0  0  0  0  0
   -7.2220   23.6580  -31.1360 C   0  0  0  0  0  0  0  0  0  0  0  0
   -7.4230   22.3700  -31.5780 C   0  0  0  0  0  0  0  0  0  0  0  0
   -8.6000   21.7200  -31.9380 C   0  0  0  0  0  0  0  0  0  0  0  0
   -8.5070   20.3930  -32.3900 C   0  0  0  0  0  0  0  0  0  0  0  0
   -7.2510   19.7430  -32.4680 C   0  0  0  0  0  0  0  0  0  0  0  0
   -7.1610   18.3430  -33.0000 C   0  0  0  0  0  0  0  0  0  0  0  0
   -8.0500   17.5330  -32.3190 F   0  0  0  0  0  0  0  0  0  0  0  0
   -6.0760   20.4400  -32.1100 C   0  0  0  0  0  0  0  0  0  0  0  0
   -6.2000   21.7540  -31.6490 C   0  0  0  0  0  0  0  0  0  0  0  0
   -5.2220   22.6050  -31.2680 N   0  0  0  0  0  0  0  0  0  0  0  0
   -3.8110   22.3450  -31.2880 C   0  0  0  0  0  0  0  0  0  0  0  0
   -3.1850   22.3670  -32.3820 O   0  0  0  0  0  0  0  0  0  0  0  0
   -3.1350   22.1010  -30.0890 O   0  0  0  0  0  0  0  0  0  0  0  0
   -2.0190   22.8810  -29.6620 C   0  0  0  0  0  0  0  0  0  0  0  0
   -2.4340   23.9240  -28.8090 O   0  0  0  0  0  0  0  0  0  0  0  0
   -1.1040   24.9320  -28.4450 P   0  0  0  0  0  0  0  0  0  0  0  0
   -1.0330   25.2280  -26.9630 O   0  0  0  0  0  0  0  0  0  0  0  0
   -1.2270   26.3790  -29.3100 O   0  0  0  0  0  0  0  0  0  0  0  0
    0.3170   24.1420  -28.9110 O   0  0  0  0  0  0  0  0  0  0  0  0
   -3.0650   25.2840  -30.2290 H   0  0  0  0  0  0  0  0  0  0  0  0
   -7.9847   24.4328  -30.9686 H   0  0  0  0  0  0  0  0  0  0  0  0
   -9.5726   22.2294  -31.8707 H   0  0  0  0  0  0  0  0  0  0  0  0
   -9.4187   19.8535  -32.6863 H   0  0  0  0  0  0  0  0  0  0  0  0
   -7.4102   18.3412  -34.0714 H   0  0  0  0  0  0  0  0  0  0  0  0
   -6.1382   17.9630  -32.8606 H   0  0  0  0  0  0  0  0  0  0  0  0
   -5.0889   19.9614  -32.1918 H   0  0  0  0  0  0  0  0  0  0  0  0
   -1.3119   22.2337  -29.1225 H   0  0  0  0  0  0  0  0  0  0  0  0
   -1.5367   23.3206  -30.5475 H   0  0  0  0  0  0  0  0  0  0  0  0
  1  2  1  0
  2  3  2  0
  2  4  1  0
  4  5  2  0
  5  6  1  0
  6  7  2  0
  7  8  1  0
  8  9  2  0
  9 10  1  0
 10 11  1  0
  9 12  1  0
 12 13  2  0
 13 14  1  0
 14 15  1  0
 15 16  2  0
 15 17  1  0
 17 18  1  0
 18 19  1  0
 19 20  1  0
 20 21  2  0
 20 22  1  0
 20 23  1  0
 14  4  1  0
 13  6  1  0
  1 24  1  0
  5 25  1  0
  7 26  1  0
  8 27  1  0
 10 28  1  0
 10 29  1  0
 12 30  1  0
 18 31  1  0
 18 32  1  0
M  CHG  3   1  -1  22  -1  23  -1
M  END
>  <UniqueID>  (8) 
8

>  <SMILES>  (8) 
[NH-]C(=O)c1cc2ccc(CF)cc2n1C(=O)OCOP(=O)([O-])[O-]

>  <Energy>  (8) 
68.71695477308667

>  <Genealogy>  (8) 
[NH-]C(=O)c1cc2ccc(CF)cc2n1C(=O)OCOP(=O)([O-])[O-] (protonated)
[NH-]C(=O)c1cc2ccc(CF)cc2n1C(=O)OCOP(=O)([O-])[O-] (3D coordinates assigned)
[NH-]C(=O)c1cc2ccc(CF)cc2n1C(=O)OCOP(=O)([O-])[O-] (optimized conformer: 68.71695477308667 kcal/mol)

>  <smiles>  (8) 
NC(=O)c1cc2ccc(CF)cc2n1C(=O)OCOP(=O)(O)O

>  <score_type>  (8) 
oracle

>  <origin>  (8) 
adg

>  <m_score__min__energy>  (8) 
-13.140000000000001

>  <m_primary>  (8) 
energy

$$$$
8:0
     RDKit          3D

 40 41  0  0  0  0  0  0  0  0999 V2000
   -3.6100   24.4570  -26.7710 C   0  0  0  0  0  0  0  0  0  0  0  0
   -4.1850   23.4480  -27.7610 C   0  0  0  0  0  0  0  0  0  0  0  0
   -3.1150   22.8840  -28.6010 N   0  0  0  0  0  0  0  0  0  0  0  0
   -1.7150   23.2540  -28.3250 C   0  0  0  0  0  0  0  0  0  0  0  0
   -1.4360   24.6550  -28.7750 C   0  0  0  0  0  0  0  0  0  0  0  0
   -2.3070   25.3010  -29.4150 O   0  0  0  0  0  0  0  0  0  0  0  0
   -0.1990   25.2340  -28.5230 O   0  0  0  0  0  0  0  0  0  0  0  0
   -3.4870   22.0630  -29.7370 C   0  0  0  0  0  0  0  0  0  0  0  0
   -3.2710   20.8220  -29.6900 O   0  0  0  0  0  0  0  0  0  0  0  0
   -4.1020   22.6120  -30.9700 C   0  0  0  0  0  0  0  0  0  0  0  0
   -3.3990   22.9080  -31.9710 O   0  0  0  0  0  0  0  0  0  0  0  0
   -5.5210   22.8220  -31.0340 N   0  0  0  0  0  0  0  0  0  0  0  0
   -6.1890   23.9970  -30.8640 C   0  0  0  0  0  0  0  0  0  0  0  0
   -5.5890   25.2720  -30.4220 C   0  0  0  0  0  0  0  0  0  0  0  0
   -4.2490   25.6230  -30.7680 N   0  0  0  0  0  0  0  0  0  0  0  0
   -6.2580   26.0480  -29.6890 O   0  0  0  0  0  0  0  0  0  0  0  0
   -7.5400   23.8400  -31.1650 C   0  0  0  0  0  0  0  0  0  0  0  0
   -7.6810   22.5200  -31.5310 C   0  0  0  0  0  0  0  0  0  0  0  0
   -8.8070   21.8210  -31.9550 C   0  0  0  0  0  0  0  0  0  0  0  0
   -8.6470   20.4730  -32.3200 C   0  0  0  0  0  0  0  0  0  0  0  0
   -7.3700   19.8620  -32.2810 C   0  0  0  0  0  0  0  0  0  0  0  0
   -7.2160   18.4170  -32.6510 C   0  0  0  0  0  0  0  0  0  0  0  0
   -6.2510   20.5990  -31.8370 C   0  0  0  0  0  0  0  0  0  0  0  0
   -6.4450   21.9310  -31.4530 C   0  0  0  0  0  0  0  0  0  0  0  0
   -3.8050   24.1149  -25.7439 H   0  0  0  0  0  0  0  0  0  0  0  0
   -2.5250   24.5470  -26.9277 H   0  0  0  0  0  0  0  0  0  0  0  0
   -4.0856   25.4364  -26.9277 H   0  0  0  0  0  0  0  0  0  0  0  0
   -4.6760   22.6352  -27.2057 H   0  0  0  0  0  0  0  0  0  0  0  0
   -4.9136   23.9589  -28.4076 H   0  0  0  0  0  0  0  0  0  0  0  0
   -1.5287   23.1789  -27.2435 H   0  0  0  0  0  0  0  0  0  0  0  0
   -1.0542   22.5687  -28.8761 H   0  0  0  0  0  0  0  0  0  0  0  0
   -3.6000   24.9250  -31.1930 H   0  0  0  0  0  0  0  0  0  0  0  0
   -3.8670   26.5560  -30.5010 H   0  0  0  0  0  0  0  0  0  0  0  0
   -8.3269   24.6073  -31.1199 H   0  0  0  0  0  0  0  0  0  0  0  0
   -9.7920   22.3083  -32.0031 H   0  0  0  0  0  0  0  0  0  0  0  0
   -9.5218   19.8873  -32.6389 H   0  0  0  0  0  0  0  0  0  0  0  0
   -7.1512   17.8092  -31.7364 H   0  0  0  0  0  0  0  0  0  0  0  0
   -8.0850   18.0957  -33.2440 H   0  0  0  0  0  0  0  0  0  0  0  0
   -6.2988   18.2861  -33.2440 H   0  0  0  0  0  0  0  0  0  0  0  0
   -5.2529   20.1387  -31.7939 H   0  0  0  0  0  0  0  0  0  0  0  0
  1  2  1  0
  2  3  1  0
  3  4  1  0
  4  5  1  0
  5  6  2  0
  5  7  1  0
  3  8  1  0
  8  9  2  0
  8 10  1  0
 10 11  2  0
 10 12  1  0
 12 13  1  0
 13 14  1  0
 14 15  1  0
 14 16  2  0
 13 17  2  0
 17 18  1  0
 18 19  2  0
 19 20  1  0
 20 21  2  0
 21 22  1  0
 21 23  1  0
 23 24  2  0
 24 12  1  0
 24 18  1  0
  1 25  1  0
  1 26  1  0
  1 27  1  0
  2 28  1  0
  2 29  1  0
  4 30  1  0
  4 31  1  0
 15 32  1  0
 15 33  1  0
 17 34  1  0
 19 35  1  0
 20 36  1  0
 22 37  1  0
 22 38  1  0
 22 39  1  0
 23 40  1  0
M  CHG  1   7  -1
M  END
>  <UniqueID>  (9) 
9

>  <SMILES>  (9) 
CCN(CC(=O)[O-])C(=O)C(=O)n1c(C(N)=O)cc2ccc(C)cc21

>  <Energy>  (9) 
78.17020131832909

>  <Genealogy>  (9) 
CCN(CC(=O)[O-])C(=O)C(=O)n1c(C(N)=O)cc2ccc(C)cc21 (protonated)
CCN(CC(=O)[O-])C(=O)C(=O)n1c(C(N)=O)cc2ccc(C)cc21 (3D coordinates assigned)
CCN(CC(=O)[O-])C(=O)C(=O)n1c(C(N)=O)cc2ccc(C)cc21 (optimized conformer: 78.17020131832909 kcal/mol)

>  <smiles>  (9) 
CCN(CC(=O)O)C(=O)C(=O)n1c(C(N)=O)cc2ccc(C)cc21

>  <score_type>  (9) 
oracle

>  <origin>  (9) 
adg

>  <m_score__min__energy>  (9) 
-10.710000000000001

>  <m_primary>  (9) 
energy

$$$$
9:0
     RDKit          3D

 39 41  0  0  0  0  0  0  0  0999 V2000
   -4.0830   25.6570  -30.8020 N   0  0  0  0  0  0  0  0  0  0  0  0
   -5.3520   25.1150  -30.4460 C   0  0  0  0  0  0  0  0  0  0  0  0
   -6.1410   25.8010  -29.7430 O   0  0  0  0  0  0  0  0  0  0  0  0
   -5.7770   23.7880  -30.9380 C   0  0  0  0  0  0  0  0  0  0  0  0
   -7.0760   23.5040  -31.3530 C   0  0  0  0  0  0  0  0  0  0  0  0
   -7.0370   22.2090  -31.8140 C   0  0  0  0  0  0  0  0  0  0  0  0
   -8.0530   21.4130  -32.3320 C   0  0  0  0  0  0  0  0  0  0  0  0
   -7.7360   20.0950  -32.7010 C   0  0  0  0  0  0  0  0  0  0  0  0
   -6.4180   19.5930  -32.5400 C   0  0  0  0  0  0  0  0  0  0  0  0
   -6.0950   18.1940  -32.9220 C   0  0  0  0  0  0  0  0  0  0  0  0
   -7.0880   17.3500  -33.4560 C   0  0  0  0  0  0  0  0  0  0  0  0
   -6.7820   16.0340  -33.8150 C   0  0  0  0  0  0  0  0  0  0  0  0
   -5.4840   15.5460  -33.6450 C   0  0  0  0  0  0  0  0  0  0  0  0
   -4.4900   16.3720  -33.1180 C   0  0  0  0  0  0  0  0  0  0  0  0
   -4.7910   17.6890  -32.7560 C   0  0  0  0  0  0  0  0  0  0  0  0
   -5.4130   20.4360  -32.0080 C   0  0  0  0  0  0  0  0  0  0  0  0
   -5.7540   21.7500  -31.6670 C   0  0  0  0  0  0  0  0  0  0  0  0
   -4.9680   22.7070  -31.1260 N   0  0  0  0  0  0  0  0  0  0  0  0
   -3.5920   22.5640  -30.7400 C   0  0  0  0  0  0  0  0  0  0  0  0
   -2.6790   23.0370  -31.4710 O   0  0  0  0  0  0  0  0  0  0  0  0
   -3.2690   21.8810  -29.5630 O   0  0  0  0  0  0  0  0  0  0  0  0
   -2.5500   22.4850  -28.4950 C   0  0  0  0  0  0  0  0  0  0  0  0
   -1.3190   22.9520  -28.9910 O   0  0  0  0  0  0  0  0  0  0  0  0
   -1.0110   24.4850  -28.3130 P   0  0  0  0  0  0  0  0  0  0  0  0
   -1.6860   24.6020  -26.9640 O   0  0  0  0  0  0  0  0  0  0  0  0
    0.6540   24.7270  -28.1340 O   0  0  0  0  0  0  0  0  0  0  0  0
   -1.6310   25.6740  -29.3430 O   0  0  0  0  0  0  0  0  0  0  0  0
   -3.2130   25.0830  -30.7270 H   0  0  0  0  0  0  0  0  0  0  0  0
   -7.9481   24.1736  -31.3191 H   0  0  0  0  0  0  0  0  0  0  0  0
   -9.0745   21.8038  -32.4493 H   0  0  0  0  0  0  0  0  0  0  0  0
   -8.5182   19.4445  -33.1195 H   0  0  0  0  0  0  0  0  0  0  0  0
   -8.1117   17.7290  -33.5916 H   0  0  0  0  0  0  0  0  0  0  0  0
   -7.5639   15.3821  -34.2317 H   0  0  0  0  0  0  0  0  0  0  0  0
   -5.2452   14.5099  -33.9267 H   0  0  0  0  0  0  0  0  0  0  0  0
   -3.4681   15.9865  -32.9871 H   0  0  0  0  0  0  0  0  0  0  0  0
   -4.0040   18.3345  -32.3389 H   0  0  0  0  0  0  0  0  0  0  0  0
   -4.3867   20.0666  -31.8657 H   0  0  0  0  0  0  0  0  0  0  0  0
   -3.1290   23.3270  -28.0878 H   0  0  0  0  0  0  0  0  0  0  0  0
   -2.3786   21.7505  -27.6943 H   0  0  0  0  0  0  0  0  0  0  0  0
  1  2  1  0
  2  3  2  0
  2  4  1  0
  4  5  2  0
  5  6  1  0
  6  7  2  0
  7  8  1  0
  8  9  2  0
  9 10  1  0
 10 11  2  0
 11 12  1  0
 12 13  2  0
 13 14  1  0
 14 15  2  0
  9 16  1  0
 16 17  2  0
 17 18  1  0
 18 19  1  0
 19 20  2  0
 19 21  1  0
 21 22  1  0
 22 23  1  0
 23 24  1  0
 24 25  2  0
 24 26  1  0
 24 27  1  0
 18  4  1  0
 17  6  1  0
 15 10  1  0
  1 28  1  0
  5 29  1  0
  7 30  1  0
  8 31  1  0
 11 32  1  0
 12 33  1  0
 13 34  1  0
 14 35  1  0
 15 36  1  0
 16 37  1  0
 22 38  1  0
 22 39  1  0
M  CHG  3   1  -1  26  -1  27  -1
M  END
>  <UniqueID>  (10) 
10

>  <SMILES>  (10) 
[NH-]C(=O)c1cc2ccc(-c3ccccc3)cc2n1C(=O)OCOP(=O)([O-])[O-]

>  <Energy>  (10) 
83.27130097800475

>  <Genealogy>  (10) 
[NH-]C(=O)c1cc2ccc(-c3ccccc3)cc2n1C(=O)OCOP(=O)([O-])[O-] (protonated)
[NH-]C(=O)c1cc2ccc(-c3ccccc3)cc2n1C(=O)OCOP(=O)([O-])[O-] (3D coordinates assigned)
[NH-]C(=O)c1cc2ccc(-c3ccccc3)cc2n1C(=O)OCOP(=O)([O-])[O-] (optimized conformer: 83.27130097800475 kcal/mol)

>  <smiles>  (10) 
NC(=O)c1cc2ccc(-c3ccccc3)cc2n1C(=O)OCOP(=O)(O)O

>  <score_type>  (10) 
oracle

>  <origin>  (10) 
adg

>  <m_score__min__energy>  (10) 
-14.710000000000001

>  <m_primary>  (10) 
energy

$$$$
10:0
     RDKit          3D

 57 60  0  0  0  0  0  0  0  0999 V2000
   -7.1010   16.8410  -33.5680 C   0  0  0  0  0  0  0  0  0  0  0  0
   -7.1410   17.9200  -33.0340 C   0  0  0  0  0  0  0  0  0  0  0  0
   -7.1850   19.2090  -32.4000 C   0  0  0  0  0  0  0  0  0  0  0  0
   -8.4240   19.7440  -31.9770 C   0  0  0  0  0  0  0  0  0  0  0  0
   -8.4840   21.0170  -31.3840 C   0  0  0  0  0  0  0  0  0  0  0  0
   -7.2900   21.7150  -31.2170 C   0  0  0  0  0  0  0  0  0  0  0  0
   -7.0650   22.9710  -30.6980 C   0  0  0  0  0  0  0  0  0  0  0  0
   -5.6860   23.1650  -30.7810 C   0  0  0  0  0  0  0  0  0  0  0  0
   -4.9870   24.3650  -30.2620 C   0  0  0  0  0  0  0  0  0  0  0  0
   -5.0630   24.7110  -28.8750 N   0  0  0  0  0  0  0  0  0  0  0  0
   -4.2980   25.0830  -31.0370 O   0  0  0  0  0  0  0  0  0  0  0  0
   -5.0820   22.0710  -31.3310 N   0  0  0  0  0  0  0  0  0  0  0  0
   -3.6850   21.8800  -31.6180 C   0  0  0  0  0  0  0  0  0  0  0  0
   -3.2230   22.2020  -32.7490 O   0  0  0  0  0  0  0  0  0  0  0  0
   -2.8570   21.3150  -30.6380 O   0  0  0  0  0  0  0  0  0  0  0  0
   -1.5290   21.6820  -30.3780 C   0  0  0  0  0  0  0  0  0  0  0  0
   -0.7810   22.0810  -31.3130 O   0  0  0  0  0  0  0  0  0  0  0  0
   -1.0050   21.5680  -29.0360 N   0  0  0  0  0  0  0  0  0  0  0  0
   -0.1520   20.4300  -28.6630 C   0  0  0  0  0  0  0  0  0  0  0  0
   -0.6070   19.8190  -27.3250 C   0  0  0  0  0  0  0  0  0  0  0  0
   -1.1850   20.8530  -26.3340 C   0  0  0  0  0  0  0  0  0  0  0  0
   -0.7380   22.2810  -26.6580 C   0  0  0  0  0  0  0  0  0  0  0  0
   -1.2060   22.6710  -28.0740 C   0  0  1  0  0  0  0  0  0  0  0  0
   -0.4660   23.8930  -28.5350 C   0  0  0  0  0  0  0  0  0  0  0  0
   -0.6250   24.3150  -29.7180 O   0  0  0  0  0  0  0  0  0  0  0  0
    0.4110   24.5380  -27.6530 O   0  0  0  0  0  0  0  0  0  0  0  0
    0.1070   25.7810  -27.0260 C   0  0  0  0  0  0  0  0  0  0  0  0
   -1.2780   25.7260  -26.4440 C   0  0  0  0  0  0  0  0  0  0  0  0
   -2.3110   25.1800  -27.0470 O   0  0  0  0  0  0  0  0  0  0  0  0
   -3.3250   25.3150  -26.2230 C   0  0  0  0  0  0  0  0  0  0  0  0
   -4.4870   24.9070  -26.4760 O   0  0  0  0  0  0  0  0  0  0  0  0
   -2.9920   25.9280  -25.1070 O   0  0  0  0  0  0  0  0  0  0  0  0
   -1.7080   26.1960  -25.2150 C   0  0  0  0  0  0  0  0  0  0  0  0
   -0.8970   26.9070  -24.1740 C   0  0  0  0  0  0  0  0  0  0  0  0
   -6.0790   21.1970  -31.5980 C   0  0  0  0  0  0  0  0  0  0  0  0
   -5.9930   19.9430  -32.2180 C   0  0  0  0  0  0  0  0  0  0  0  0
   -7.0645   15.8557  -34.0556 H   0  0  0  0  0  0  0  0  0  0  0  0
   -9.3464   19.1603  -32.1129 H   0  0  0  0  0  0  0  0  0  0  0  0
   -9.4433   21.4484  -31.0620 H   0  0  0  0  0  0  0  0  0  0  0  0
   -7.8141   23.6725  -30.3020 H   0  0  0  0  0  0  0  0  0  0  0  0
   -5.6420   24.1550  -28.2080 H   0  0  0  0  0  0  0  0  0  0  0  0
   -4.5750   25.5690  -28.5240 H   0  0  0  0  0  0  0  0  0  0  0  0
   -0.2116   19.6623  -29.4485 H   0  0  0  0  0  0  0  0  0  0  0  0
    0.8827   20.7869  -28.5531 H   0  0  0  0  0  0  0  0  0  0  0  0
   -1.3819   19.0664  -27.5327 H   0  0  0  0  0  0  0  0  0  0  0  0
    0.2851   19.3837  -26.8509 H   0  0  0  0  0  0  0  0  0  0  0  0
   -2.2833   20.8079  -26.3762 H   0  0  0  0  0  0  0  0  0  0  0  0
   -0.8110   20.6028  -25.3302 H   0  0  0  0  0  0  0  0  0  0  0  0
   -1.1760   22.9749  -25.9255 H   0  0  0  0  0  0  0  0  0  0  0  0
    0.3597   22.3350  -26.6127 H   0  0  0  0  0  0  0  0  0  0  0  0
   -2.2839   22.8855  -28.0281 H   0  0  0  0  0  0  0  0  0  0  0  0
    0.8341   25.9738  -26.2234 H   0  0  0  0  0  0  0  0  0  0  0  0
    0.1587   26.5886  -27.7710 H   0  0  0  0  0  0  0  0  0  0  0  0
   -1.2402   26.6061  -23.1732 H   0  0  0  0  0  0  0  0  0  0  0  0
    0.1643   26.6430  -24.2925 H   0  0  0  0  0  0  0  0  0  0  0  0
   -1.0199   27.9937  -24.2925 H   0  0  0  0  0  0  0  0  0  0  0  0
   -5.0249   19.5424  -32.5530 H   0  0  0  0  0  0  0  0  0  0  0  0
  1  2  3  0
  2  3  1  0
  3  4  2  0
  4  5  1  0
  5  6  2  0
  6  7  1  0
  7  8  2  0
  8  9  1  0
  9 10  1  0
  9 11  2  0
  8 12  1  0
 12 13  1  0
 13 14  2  0
 13 15  1  0
 15 16  1  0
 16 17  2  0
 16 18  1  0
 18 19  1  0
 19 20  1  0
 20 21  1  0
 21 22  1  0
 22 23  1  0
 23 24  1  0
 24 25  2  0
 24 26  1  0
 26 27  1  0
 27 28  1  0
 28 29  1  0
 29 30  1  0
 30 31  2  0
 30 32  1  0
 32 33  1  0
 33 34  1  0
 12 35  1  0
 35 36  2  0
 36  3  1  0
 35  6  1  0
 23 18  1  0
 33 28  2  0
  1 37  1  0
  4 38  1  0
  5 39  1  0
  7 40  1  0
 10 41  1  0
 10 42  1  0
 19 43  1  0
 19 44  1  0
 20 45  1  0
 20 46  1  0
 21 47  1  0
 21 48  1  0
 22 49  1  0
 22 50  1  0
 23 51  1  1
 27 52  1  0
 27 53  1  0
 34 54  1  0
 34 55  1  0
 34 56  1  0
 36 57  1  0
M  END
>  <UniqueID>  (11) 
11

>  <SMILES>  (11) 
C#Cc1ccc2cc(C(N)=O)n(C(=O)OC(=O)N3CCCC[C@H]3C(=O)OCc3oc(=O)oc3C)c2c1

>  <Energy>  (11) 
125.33925053243401

>  <Genealogy>  (11) 
C#Cc1ccc2cc(C(N)=O)n(C(=O)OC(=O)N3CCCC[C@H]3C(=O)OCc3oc(=O)oc3C)c2c1 (chirality)
C#Cc1ccc2cc(C(N)=O)n(C(=O)OC(=O)N3CCCC[C@H]3C(=O)OCc3oc(=O)oc3C)c2c1 (3D coordinates assigned)
C#Cc1ccc2cc(C(N)=O)n(C(=O)OC(=O)N3CCCC[C@H]3C(=O)OCc3oc(=O)oc3C)c2c1 (nonaromatic ring conformer: 125.33925053243401 kcal/mol)

>  <smiles>  (11) 
C#Cc1ccc2cc(C(N)=O)n(C(=O)OC(=O)N3CCCCC3C(=O)OCc3oc(=O)oc3C)c2c1

>  <score_type>  (11) 
oracle

>  <origin>  (11) 
adg

>  <m_score__min__energy>  (11) 
-11.460000000000001

>  <m_primary>  (11) 
energy

$$$$
11:0
     RDKit          3D

 33 34  0  0  0  0  0  0  0  0999 V2000
   -6.4560   17.6700  -33.6560 C   0  0  0  0  0  0  0  0  0  0  0  0
   -6.5120   18.2410  -32.3140 N   0  0  0  0  0  0  0  0  0  0  0  0
   -6.8160   19.6230  -32.0510 C   0  0  0  0  0  0  0  0  0  0  0  0
   -8.1290   20.1420  -32.2180 C   0  0  0  0  0  0  0  0  0  0  0  0
   -8.4030   21.4970  -31.9670 C   0  0  0  0  0  0  0  0  0  0  0  0
   -7.3550   22.3070  -31.5430 C   0  0  0  0  0  0  0  0  0  0  0  0
   -7.3390   23.6520  -31.2540 C   0  0  0  0  0  0  0  0  0  0  0  0
   -6.0250   23.9360  -30.8890 C   0  0  0  0  0  0  0  0  0  0  0  0
   -5.5840   25.2630  -30.4090 C   0  0  0  0  0  0  0  0  0  0  0  0
   -4.2360   25.6940  -30.5780 N   0  0  0  0  0  0  0  0  0  0  0  0
   -6.3970   26.0060  -29.7970 O   0  0  0  0  0  0  0  0  0  0  0  0
   -5.2560   22.8120  -30.9600 N   0  0  0  0  0  0  0  0  0  0  0  0
   -3.8410   22.6940  -30.7440 C   0  0  0  0  0  0  0  0  0  0  0  0
   -3.0390   22.8800  -31.7000 O   0  0  0  0  0  0  0  0  0  0  0  0
   -3.3610   22.3440  -29.4790 O   0  0  0  0  0  0  0  0  0  0  0  0
   -2.9920   23.3090  -28.5020 C   0  0  0  0  0  0  0  0  0  0  0  0
   -1.3920   24.0310  -28.9530 P   0  0  0  0  0  0  0  0  0  0  0  0
   -0.8220   23.2960  -30.1430 O   0  0  0  0  0  0  0  0  0  0  0  0
   -1.6000   25.6630  -29.3460 O   0  0  0  0  0  0  0  0  0  0  0  0
   -0.3260   23.8990  -27.6470 O   0  0  0  0  0  0  0  0  0  0  0  0
   -6.0880   21.8230  -31.3580 C   0  0  0  0  0  0  0  0  0  0  0  0
   -5.7810   20.4820  -31.6200 C   0  0  0  0  0  0  0  0  0  0  0  0
   -6.3489   16.5775  -33.5855 H   0  0  0  0  0  0  0  0  0  0  0  0
   -7.3823   17.9134  -34.1970 H   0  0  0  0  0  0  0  0  0  0  0  0
   -5.5946   18.0887  -34.1970 H   0  0  0  0  0  0  0  0  0  0  0  0
   -6.3220   17.6030  -31.5080 H   0  0  0  0  0  0  0  0  0  0  0  0
   -8.9395   19.4752  -32.5474 H   0  0  0  0  0  0  0  0  0  0  0  0
   -9.4157   21.9048  -32.1018 H   0  0  0  0  0  0  0  0  0  0  0  0
   -8.1844   24.3541  -31.3012 H   0  0  0  0  0  0  0  0  0  0  0  0
   -3.5650   25.6830  -29.7780 H   0  0  0  0  0  0  0  0  0  0  0  0
   -3.7545   24.1008  -28.4605 H   0  0  0  0  0  0  0  0  0  0  0  0
   -2.9154   22.8267  -27.5164 H   0  0  0  0  0  0  0  0  0  0  0  0
   -4.7553   20.1056  -31.4928 H   0  0  0  0  0  0  0  0  0  0  0  0
  1  2  1  0
  2  3  1  0
  3  4  2  0
  4  5  1  0
  5  6  2  0
  6  7  1  0
  7  8  2  0
  8  9  1  0
  9 10  1  0
  9 11  2  0
  8 12  1  0
 12 13  1  0
 13 14  2  0
 13 15  1  0
 15 16  1  0
 16 17  1  0
 17 18  2  0
 17 19  1  0
 17 20  1  0
 12 21  1  0
 21 22  2  0
 22  3  1  0
 21  6  1  0
  1 23  1  0
  1 24  1  0
  1 25  1  0
  2 26  1  0
  4 27  1  0
  5 28  1  0
  7 29  1  0
 10 30  1  0
 16 31  1  0
 16 32  1  0
 22 33  1  0
M  CHG  3  10  -1  19  -1  20  -1
M  END
>  <UniqueID>  (12) 
12

>  <SMILES>  (12) 
CNc1ccc2cc(C([NH-])=O)n(C(=O)OCP(=O)([O-])[O-])c2c1

>  <Energy>  (12) 
64.91145017402769

>  <Genealogy>  (12) 
CNc1ccc2cc(C([NH-])=O)n(C(=O)OCP(=O)([O-])[O-])c2c1 (protonated)
CNc1ccc2cc(C([NH-])=O)n(C(=O)OCP(=O)([O-])[O-])c2c1 (3D coordinates assigned)
CNc1ccc2cc(C([NH-])=O)n(C(=O)OCP(=O)([O-])[O-])c2c1 (optimized conformer: 64.91145017402769 kcal/mol)

>  <smiles>  (12) 
CNc1ccc2cc(C(N)=O)n(C(=O)OCP(=O)(O)O)c2c1

>  <score_type>  (12) 
oracle

>  <origin>  (12) 
adg

>  <m_score__min__energy>  (12) 
-13.380000000000001

>  <m_primary>  (12) 
energy

$$$$
12:0
     RDKit          3D

 30 31  0  0  0  0  0  0  0  0999 V2000
   -5.2990   24.7990  -28.8100 N   0  0  0  0  0  0  0  0  0  0  0  0
   -5.1730   24.5850  -30.2170 C   0  0  0  0  0  0  0  0  0  0  0  0
   -4.5680   25.4430  -30.9130 O   0  0  0  0  0  0  0  0  0  0  0  0
   -5.7550   23.3840  -30.8610 C   0  0  0  0  0  0  0  0  0  0  0  0
   -7.1050   23.2350  -31.1870 C   0  0  0  0  0  0  0  0  0  0  0  0
   -7.1980   22.0050  -31.7980 C   0  0  0  0  0  0  0  0  0  0  0  0
   -8.3090   21.3390  -32.3100 C   0  0  0  0  0  0  0  0  0  0  0  0
   -8.1130   20.0620  -32.8640 C   0  0  0  0  0  0  0  0  0  0  0  0
   -6.8240   19.4770  -32.8890 C   0  0  0  0  0  0  0  0  0  0  0  0
   -6.6390   18.1750  -33.4480 N   0  0  0  0  0  0  0  0  0  0  0  0
   -5.7210   20.1800  -32.3600 C   0  0  0  0  0  0  0  0  0  0  0  0
   -5.9440   21.4560  -31.8310 C   0  0  0  0  0  0  0  0  0  0  0  0
   -5.0470   22.2950  -31.2700 N   0  0  0  0  0  0  0  0  0  0  0  0
   -3.6490   22.0340  -31.0590 C   0  0  0  0  0  0  0  0  0  0  0  0
   -3.2280   20.8480  -31.1120 O   0  0  0  0  0  0  0  0  0  0  0  0
   -2.6900   23.1210  -30.7860 C   0  0  0  0  0  0  0  0  0  0  0  0
   -2.2350   23.3870  -29.5560 C   0  0  0  0  0  0  0  0  0  0  0  0
   -1.2710   24.4660  -29.2890 C   0  0  0  0  0  0  0  0  0  0  0  0
   -1.6170   25.6770  -29.3430 O   0  0  0  0  0  0  0  0  0  0  0  0
    0.0420   24.1450  -28.9710 O   0  0  0  0  0  0  0  0  0  0  0  0
   -5.7330   24.0860  -28.1840 H   0  0  0  0  0  0  0  0  0  0  0  0
   -4.9130   25.6680  -28.3770 H   0  0  0  0  0  0  0  0  0  0  0  0
   -7.9202   23.9485  -30.9962 H   0  0  0  0  0  0  0  0  0  0  0  0
   -9.3083   21.7979  -32.2817 H   0  0  0  0  0  0  0  0  0  0  0  0
   -8.9691   19.5121  -33.2820 H   0  0  0  0  0  0  0  0  0  0  0  0
   -6.2770   17.3890  -32.8630 H   0  0  0  0  0  0  0  0  0  0  0  0
   -6.8640   17.9860  -34.4510 H   0  0  0  0  0  0  0  0  0  0  0  0
   -4.7140   19.7374  -32.3634 H   0  0  0  0  0  0  0  0  0  0  0  0
   -2.3352   23.7366  -31.6257 H   0  0  0  0  0  0  0  0  0  0  0  0
   -2.5946   22.7770  -28.7142 H   0  0  0  0  0  0  0  0  0  0  0  0
  1  2  1  0
  2  3  2  0
  2  4  1  0
  4  5  2  0
  5  6  1  0
  6  7  2  0
  7  8  1  0
  8  9  2  0
  9 10  1  0
  9 11  1  0
 11 12  2  0
 12 13  1  0
 13 14  1  0
 14 15  2  0
 14 16  1  0
 16 17  2  3
 17 18  1  0
 18 19  2  0
 18 20  1  0
 13  4  1  0
 12  6  1  0
  1 21  1  0
  1 22  1  0
  5 23  1  0
  7 24  1  0
  8 25  1  0
 10 26  1  0
 10 27  1  0
 11 28  1  0
 16 29  1  0
 17 30  1  0
M  CHG  1  20  -1
M  END
>  <UniqueID>  (13) 
13

>  <SMILES>  (13) 
NC(=O)c1cc2ccc(N)cc2n1C(=O)C=CC(=O)[O-]

>  <Energy>  (13) 
67.51629670811724

>  <Genealogy>  (13) 
NC(=O)c1cc2ccc(N)cc2n1C(=O)C=CC(=O)[O-] (protonated)
NC(=O)c1cc2ccc(N)cc2n1C(=O)C=CC(=O)[O-] (3D coordinates assigned)
NC(=O)c1cc2ccc(N)cc2n1C(=O)C=CC(=O)[O-] (optimized conformer: 67.51629670811724 kcal/mol)

>  <smiles>  (13) 
NC(=O)c1cc2ccc(N)cc2n1C(=O)C=CC(=O)O

>  <score_type>  (13) 
oracle

>  <origin>  (13) 
adg

>  <m_score__min__energy>  (13) 
-9.9399999999999995

>  <m_primary>  (13) 
energy

$$$$
14:0
     RDKit          3D

 36 37  0  0  0  0  0  0  0  0999 V2000
   -3.9280   25.5100  -30.8480 N   0  0  0  0  0  0  0  0  0  0  0  0
   -5.2080   25.0960  -30.3790 C   0  0  0  0  0  0  0  0  0  0  0  0
   -5.7620   25.7410  -29.4500 O   0  0  0  0  0  0  0  0  0  0  0  0
   -5.8680   23.8970  -30.9350 C   0  0  0  0  0  0  0  0  0  0  0  0
   -7.2460   23.7920  -31.1170 C   0  0  0  0  0  0  0  0  0  0  0  0
   -7.4560   22.5100  -31.5740 C   0  0  0  0  0  0  0  0  0  0  0  0
   -8.6360   21.8650  -31.9260 C   0  0  0  0  0  0  0  0  0  0  0  0
   -8.5500   20.5400  -32.3890 C   0  0  0  0  0  0  0  0  0  0  0  0
   -7.2970   19.8870  -32.4980 C   0  0  0  0  0  0  0  0  0  0  0  0
   -7.2540   18.5320  -32.9840 N   0  0  0  0  0  0  0  0  0  0  0  0
   -6.3550   17.5140  -32.4370 C   0  0  0  0  0  0  0  0  0  0  0  0
   -6.2140   16.3680  -33.3890 C   0  0  0  0  0  0  0  0  0  0  0  0
   -5.3380   15.4850  -33.1910 O   0  0  0  0  0  0  0  0  0  0  0  0
   -7.0120   16.3040  -34.5230 O   0  0  0  0  0  0  0  0  0  0  0  0
   -6.1170   20.5800  -32.1290 C   0  0  0  0  0  0  0  0  0  0  0  0
   -6.2370   21.8920  -31.6610 C   0  0  0  0  0  0  0  0  0  0  0  0
   -5.2520   22.7310  -31.2770 N   0  0  0  0  0  0  0  0  0  0  0  0
   -3.8440   22.4460  -31.3190 C   0  0  0  0  0  0  0  0  0  0  0  0
   -3.3000   22.1710  -32.4220 O   0  0  0  0  0  0  0  0  0  0  0  0
   -2.9960   22.5090  -30.0830 C   0  0  0  0  0  0  0  0  0  0  0  0
   -1.9330   23.4140  -30.2740 O   0  0  0  0  0  0  0  0  0  0  0  0
   -1.7960   24.3950  -28.8870 P   0  0  2  0  0  0  0  0  0  0  0  0
   -1.2110   25.7400  -29.2620 O   0  0  0  0  0  0  0  0  0  0  0  0
   -0.7600   23.6370  -27.7870 O   0  0  0  0  0  0  0  0  0  0  0  0
   -3.3090   24.6080  -28.1530 O   0  0  0  0  0  0  0  0  0  0  0  0
   -3.0610   25.2930  -30.3080 H   0  0  0  0  0  0  0  0  0  0  0  0
   -8.0041   24.5678  -30.9345 H   0  0  0  0  0  0  0  0  0  0  0  0
   -9.6071   22.3753  -31.8449 H   0  0  0  0  0  0  0  0  0  0  0  0
   -9.4679   20.0030  -32.6704 H   0  0  0  0  0  0  0  0  0  0  0  0
   -7.8970   18.2700  -33.7660 H   0  0  0  0  0  0  0  0  0  0  0  0
   -5.3658   17.9620  -32.2618 H   0  0  0  0  0  0  0  0  0  0  0  0
   -6.7765   17.1399  -31.4923 H   0  0  0  0  0  0  0  0  0  0  0  0
   -5.1316   20.0977  -32.2088 H   0  0  0  0  0  0  0  0  0  0  0  0
   -3.6118   22.8439  -29.2353 H   0  0  0  0  0  0  0  0  0  0  0  0
   -2.5865   21.5096  -29.8745 H   0  0  0  0  0  0  0  0  0  0  0  0
   -3.7710   25.2890  -28.7040 H   0  0  0  0  0  0  0  0  0  0  0  0
  1  2  1  0
  2  3  2  0
  2  4  1  0
  4  5  2  0
  5  6  1  0
  6  7  2  0
  7  8  1  0
  8  9  2  0
  9 10  1  0
 10 11  1  0
 11 12  1  0
 12 13  2  0
 12 14  1  0
  9 15  1  0
 15 16  2  0
 16 17  1  0
 17 18  1  0
 18 19  2  0
 18 20  1  0
 20 21  1  0
 21 22  1  0
 22 23  2  0
 22 24  1  1
 22 25  1  0
 17  4  1  0
 16  6  1  0
  1 26  1  0
  5 27  1  0
  7 28  1  0
  8 29  1  0
 10 30  1  0
 11 31  1  0
 11 32  1  0
 15 33  1  0
 20 34  1  0
 20 35  1  0
 25 36  1  0
M  CHG  3   1  -1  14  -1  24  -1
M  END
>  <UniqueID>  (14) 
14

>  <SMILES>  (14) 
[NH-]C(=O)c1cc2ccc(NCC(=O)[O-])cc2n1C(=O)CO[P@](=O)([O-])O

>  <Energy>  (14) 
72.74224004850197

>  <Genealogy>  (14) 
[NH-]C(=O)c1cc2ccc(NCC(=O)[O-])cc2n1C(=O)COP(=O)([O-])O (protonated)
[NH-]C(=O)c1cc2ccc(NCC(=O)[O-])cc2n1C(=O)CO[P@](=O)([O-])O (chirality)
[NH-]C(=O)c1cc2ccc(NCC(=O)[O-])cc2n1C(=O)CO[P@](=O)([O-])O (3D coordinates assigned)
[NH-]C(=O)c1cc2ccc(NCC(=O)[O-])cc2n1C(=O)CO[P@](=O)([O-])O (optimized conformer: 72.74224004850197 kcal/mol)

>  <smiles>  (14) 
NC(=O)c1cc2ccc(NCC(=O)O)cc2n1C(=O)COP(=O)(O)O

>  <score_type>  (14) 
oracle

>  <origin>  (14) 
adg

>  <m_score__min__energy>  (14) 
-12.039999999999999

>  <m_primary>  (14) 
energy

$$$$
15:0
     RDKit          3D

 35 36  0  0  0  0  0  0  0  0999 V2000
   -7.6110   18.4140  -32.7200 C   0  0  0  0  0  0  0  0  0  0  0  0
   -7.6050   19.8510  -32.2870 C   0  0  0  0  0  0  0  0  0  0  0  0
   -8.8280   20.5450  -32.1140 C   0  0  0  0  0  0  0  0  0  0  0  0
   -8.8360   21.8830  -31.6850 C   0  0  0  0  0  0  0  0  0  0  0  0
   -7.6120   22.4900  -31.4190 C   0  0  0  0  0  0  0  0  0  0  0  0
   -7.3320   23.7740  -31.0110 C   0  0  0  0  0  0  0  0  0  0  0  0
   -5.9430   23.8320  -30.9020 C   0  0  0  0  0  0  0  0  0  0  0  0
   -5.2150   25.0150  -30.3990 C   0  0  0  0  0  0  0  0  0  0  0  0
   -3.9310   25.3610  -30.9130 N   0  0  0  0  0  0  0  0  0  0  0  0
   -5.7130   25.7050  -29.4700 O   0  0  0  0  0  0  0  0  0  0  0  0
   -5.3880   22.6320  -31.2400 N   0  0  0  0  0  0  0  0  0  0  0  0
   -3.9940   22.3030  -31.3330 C   0  0  0  0  0  0  0  0  0  0  0  0
   -3.3300   22.6560  -32.3460 O   0  0  0  0  0  0  0  0  0  0  0  0
   -3.3860   21.5680  -30.3080 O   0  0  0  0  0  0  0  0  0  0  0  0
   -3.1640   22.0830  -28.9960 C   0  0  0  0  0  0  0  0  0  0  0  0
   -1.6700   22.2330  -28.7240 C   0  0  0  0  0  0  0  0  0  0  0  0
   -1.1780   23.3280  -29.4590 O   0  0  0  0  0  0  0  0  0  0  0  0
   -0.9310   24.6300  -28.3850 P   0  0  0  0  0  0  0  0  0  0  0  0
   -1.5600   24.3240  -27.0440 O   0  0  0  0  0  0  0  0  0  0  0  0
    0.7300   24.8600  -28.1750 O   0  0  0  0  0  0  0  0  0  0  0  0
   -1.6070   26.0480  -29.0140 O   0  0  0  0  0  0  0  0  0  0  0  0
   -6.4220   21.8210  -31.5500 C   0  0  0  0  0  0  0  0  0  0  0  0
   -6.3830   20.4940  -31.9930 C   0  0  0  0  0  0  0  0  0  0  0  0
   -7.6137   17.7637  -31.8328 H   0  0  0  0  0  0  0  0  0  0  0  0
   -8.5100   18.2163  -33.3223 H   0  0  0  0  0  0  0  0  0  0  0  0
   -6.7137   18.2088  -33.3223 H   0  0  0  0  0  0  0  0  0  0  0  0
   -9.7795   20.0319  -32.3173 H   0  0  0  0  0  0  0  0  0  0  0  0
   -9.7804   22.4337  -31.5631 H   0  0  0  0  0  0  0  0  0  0  0  0
   -8.0509   24.5827  -30.8130 H   0  0  0  0  0  0  0  0  0  0  0  0
   -3.0640   25.1770  -30.3600 H   0  0  0  0  0  0  0  0  0  0  0  0
   -3.6483   23.0666  -28.9069 H   0  0  0  0  0  0  0  0  0  0  0  0
   -3.5894   21.3818  -28.2629 H   0  0  0  0  0  0  0  0  0  0  0  0
   -1.5062   22.4062  -27.6501 H   0  0  0  0  0  0  0  0  0  0  0  0
   -1.1433   21.3158  -29.0262 H   0  0  0  0  0  0  0  0  0  0  0  0
   -5.4252   19.9657  -32.1091 H   0  0  0  0  0  0  0  0  0  0  0  0
  1  2  1  0
  2  3  2  0
  3  4  1  0
  4  5  2  0
  5  6  1  0
  6  7  2  0
  7  8  1  0
  8  9  1  0
  8 10  2  0
  7 11  1  0
 11 12  1  0
 12 13  2  0
 12 14  1  0
 14 15  1  0
 15 16  1  0
 16 17  1  0
 17 18  1  0
 18 19  2  0
 18 20  1  0
 18 21  1  0
 11 22  1  0
 22 23  2  0
 23  2  1  0
 22  5  1  0
  1 24  1  0
  1 25  1  0
  1 26  1  0
  3 27  1  0
  4 28  1  0
  6 29  1  0
  9 30  1  0
 15 31  1  0
 15 32  1  0
 16 33  1  0
 16 34  1  0
 23 35  1  0
M  CHG  3   9  -1  20  -1  21  -1
M  END
>  <UniqueID>  (15) 
15

>  <SMILES>  (15) 
Cc1ccc2cc(C([NH-])=O)n(C(=O)OCCOP(=O)([O-])[O-])c2c1

>  <Energy>  (15) 
68.90369038032213

>  <Genealogy>  (15) 
Cc1ccc2cc(C([NH-])=O)n(C(=O)OCCOP(=O)([O-])[O-])c2c1 (protonated)
Cc1ccc2cc(C([NH-])=O)n(C(=O)OCCOP(=O)([O-])[O-])c2c1 (3D coordinates assigned)
Cc1ccc2cc(C([NH-])=O)n(C(=O)OCCOP(=O)([O-])[O-])c2c1 (optimized conformer: 68.90369038032213 kcal/mol)

>  <smiles>  (15) 
Cc1ccc2cc(C(N)=O)n(C(=O)OCCOP(=O)(O)O)c2c1

>  <score_type>  (15) 
oracle

>  <origin>  (15) 
adg

>  <m_score__min__energy>  (15) 
-13.369999999999999

>  <m_primary>  (15) 
energy

$$$$
16:0
     RDKit          3D

 45 47  0  0  0  0  0  0  0  0999 V2000
   -3.7590   25.2920  -30.6210 N   0  0  0  0  0  0  0  0  0  0  0  0
   -5.0810   24.9240  -30.2350 C   0  0  0  0  0  0  0  0  0  0  0  0
   -5.7530   25.7080  -29.5150 O   0  0  0  0  0  0  0  0  0  0  0  0
   -5.6900   23.6660  -30.7160 C   0  0  0  0  0  0  0  0  0  0  0  0
   -7.0520   23.5240  -30.9750 C   0  0  0  0  0  0  0  0  0  0  0  0
   -7.1920   22.2580  -31.4980 C   0  0  0  0  0  0  0  0  0  0  0  0
   -8.3350   21.5870  -31.9200 C   0  0  0  0  0  0  0  0  0  0  0  0
   -8.1900   20.2720  -32.3920 C   0  0  0  0  0  0  0  0  0  0  0  0
   -6.9130   19.6560  -32.4460 C   0  0  0  0  0  0  0  0  0  0  0  0
   -6.7780   18.2250  -32.8980 C   0  0  0  0  0  0  0  0  0  0  0  0
   -5.7730   17.5830  -32.1960 F   0  0  0  0  0  0  0  0  0  0  0  0
   -6.4720   18.2010  -34.2460 F   0  0  0  0  0  0  0  0  0  0  0  0
   -7.9600   17.5330  -32.6910 F   0  0  0  0  0  0  0  0  0  0  0  0
   -5.7790   20.3650  -31.9840 C   0  0  0  0  0  0  0  0  0  0  0  0
   -5.9510   21.6790  -31.5360 C   0  0  0  0  0  0  0  0  0  0  0  0
   -5.0190   22.5280  -31.0510 N   0  0  0  0  0  0  0  0  0  0  0  0
   -3.6230   22.2450  -30.8790 C   0  0  0  0  0  0  0  0  0  0  0  0
   -2.7580   23.0500  -31.3220 O   0  0  0  0  0  0  0  0  0  0  0  0
   -3.2310   21.0830  -30.2060 O   0  0  0  0  0  0  0  0  0  0  0  0
   -3.1260   20.9880  -28.7870 C   0  0  0  0  0  0  0  0  0  0  0  0
   -3.5310   22.3090  -28.0950 C   0  0  0  0  0  0  0  0  0  0  0  0
   -2.6650   23.4700  -28.4000 N   0  0  0  0  0  0  0  0  0  0  0  0
   -1.2480   23.1360  -28.6130 C   0  0  0  0  0  0  0  0  0  0  0  0
   -0.5210   24.3280  -29.2680 C   0  0  0  0  0  0  0  0  0  0  0  0
   -1.2070   25.6130  -29.0410 N   0  0  0  0  0  0  0  0  0  0  0  0
   -1.7700   25.6900  -27.6870 C   0  0  0  0  0  0  0  0  0  0  0  0
   -2.8340   24.5960  -27.4580 C   0  0  0  0  0  0  0  0  0  0  0  0
   -2.9250   24.8710  -30.1540 H   0  0  0  0  0  0  0  0  0  0  0  0
   -7.8457   24.2651  -30.7992 H   0  0  0  0  0  0  0  0  0  0  0  0
   -9.3221   22.0712  -31.8852 H   0  0  0  0  0  0  0  0  0  0  0  0
   -9.0773   19.7129  -32.7238 H   0  0  0  0  0  0  0  0  0  0  0  0
   -4.7851   19.8938  -31.9773 H   0  0  0  0  0  0  0  0  0  0  0  0
   -3.7871   20.1830  -28.4336 H   0  0  0  0  0  0  0  0  0  0  0  0
   -2.0768   20.7756  -28.5339 H   0  0  0  0  0  0  0  0  0  0  0  0
   -4.5559   22.5571  -28.4080 H   0  0  0  0  0  0  0  0  0  0  0  0
   -3.4335   22.1304  -27.0140 H   0  0  0  0  0  0  0  0  0  0  0  0
   -0.7773   22.9087  -27.6451 H   0  0  0  0  0  0  0  0  0  0  0  0
   -1.1777   22.2604  -29.2751 H   0  0  0  0  0  0  0  0  0  0  0  0
    0.4941   24.3932  -28.8492 H   0  0  0  0  0  0  0  0  0  0  0  0
   -0.5052   24.1493  -30.3533 H   0  0  0  0  0  0  0  0  0  0  0  0
   -1.9890   25.7060  -29.7330 H   0  0  0  0  0  0  0  0  0  0  0  0
   -0.9598   25.5605  -26.9544 H   0  0  0  0  0  0  0  0  0  0  0  0
   -2.2509   26.6720  -27.5667 H   0  0  0  0  0  0  0  0  0  0  0  0
   -2.7422   24.2180  -26.4291 H   0  0  0  0  0  0  0  0  0  0  0  0
   -3.8265   25.0397  -27.6253 H   0  0  0  0  0  0  0  0  0  0  0  0
  1  2  1  0
  2  3  2  0
  2  4  1  0
  4  5  2  0
  5  6  1  0
  6  7  2  0
  7  8  1  0
  8  9  2  0
  9 10  1  0
 10 11  1  0
 10 12  1  0
 10 13  1  0
  9 14  1  0
 14 15  2  0
 15 16  1  0
 16 17  1  0
 17 18  2  0
 17 19  1  0
 19 20  1  0
 20 21  1  0
 21 22  1  0
 22 23  1  0
 23 24  1  0
 24 25  1  0
 25 26  1  0
 26 27  1  0
 16  4  1  0
 27 22  1  0
 15  6  1  0
  1 28  1  0
  5 29  1  0
  7 30  1  0
  8 31  1  0
 14 32  1  0
 20 33  1  0
 20 34  1  0
 21 35  1  0
 21 36  1  0
 23 37  1  0
 23 38  1  0
 24 39  1  0
 24 40  1  0
 25 41  1  0
 26 42  1  0
 26 43  1  0
 27 44  1  0
 27 45  1  0
M  CHG  1   1  -1
M  END
>  <UniqueID>  (16) 
16

>  <SMILES>  (16) 
[NH-]C(=O)c1cc2ccc(C(F)(F)F)cc2n1C(=O)OCCN1CCNCC1

>  <Energy>  (16) 
94.04985660197478

>  <Genealogy>  (16) 
[NH-]C(=O)c1cc2ccc(C(F)(F)F)cc2n1C(=O)OCCN1CCNCC1 (protonated)
[NH-]C(=O)c1cc2ccc(C(F)(F)F)cc2n1C(=O)OCCN1CCNCC1 (3D coordinates assigned)
[NH-]C(=O)c1cc2ccc(C(F)(F)F)cc2n1C(=O)OCCN1CCNCC1 (nonaromatic ring conformer: 94.04985660197478 kcal/mol)

>  <smiles>  (16) 
NC(=O)c1cc2ccc(C(F)(F)F)cc2n1C(=O)OCCN1CCNCC1

>  <score_type>  (16) 
oracle

>  <origin>  (16) 
adg

>  <m_score__min__energy>  (16) 
-10.539999999999999

>  <m_primary>  (16) 
energy

$$$$
17:0
     RDKit          3D

 35 36  0  0  0  0  0  0  0  0999 V2000
   -4.0720   17.0260  -34.4850 N   0  0  0  0  0  0  0  0  0  0  0  0
   -4.9080   18.1780  -34.4360 C   0  0  0  0  0  0  0  0  0  0  0  0
   -5.9190   18.2350  -35.1870 O   0  0  0  0  0  0  0  0  0  0  0  0
   -4.6020   19.3140  -33.5370 C   0  0  0  0  0  0  0  0  0  0  0  0
   -5.5740   20.1670  -33.0190 C   0  0  0  0  0  0  0  0  0  0  0  0
   -4.8900   21.0850  -32.2560 C   0  0  0  0  0  0  0  0  0  0  0  0
   -5.3640   22.1410  -31.4850 C   0  0  0  0  0  0  0  0  0  0  0  0
   -4.4300   22.8970  -30.7570 C   0  0  0  0  0  0  0  0  0  0  0  0
   -3.0500   22.5810  -30.8080 C   0  0  0  0  0  0  0  0  0  0  0  0
   -2.0670   23.3610  -29.9820 C   0  0  0  0  0  0  0  0  0  0  0  0
   -2.8440   24.8810  -29.3530 P   0  0  0  0  0  0  0  0  0  0  0  0
   -3.6490   24.5570  -28.1170 O   0  0  0  0  0  0  0  0  0  0  0  0
   -3.8660   25.5280  -30.5350 O   0  0  0  0  0  0  0  0  0  0  0  0
   -1.6490   26.0120  -28.9630 O   0  0  0  0  0  0  0  0  0  0  0  0
   -2.6070   21.4930  -31.5930 C   0  0  0  0  0  0  0  0  0  0  0  0
   -3.5560   20.7750  -32.3280 C   0  0  0  0  0  0  0  0  0  0  0  0
   -3.3620   19.6980  -33.1180 N   0  0  0  0  0  0  0  0  0  0  0  0
   -2.1020   19.0780  -33.4150 C   0  0  0  0  0  0  0  0  0  0  0  0
   -1.7110   18.0970  -32.7270 O   0  0  0  0  0  0  0  0  0  0  0  0
   -1.2630   19.5530  -34.5710 C   0  0  0  0  0  0  0  0  0  0  0  0
   -0.3890   20.7520  -34.1850 C   0  0  0  0  0  0  0  0  0  0  0  0
    0.2190   21.4170  -35.3840 C   0  0  0  0  0  0  0  0  0  0  0  0
    0.2230   20.8350  -36.5010 O   0  0  0  0  0  0  0  0  0  0  0  0
    0.7590   22.6930  -35.2730 O   0  0  0  0  0  0  0  0  0  0  0  0
   -3.1450   17.0130  -34.0040 H   0  0  0  0  0  0  0  0  0  0  0  0
   -6.6602   20.1170  -33.1851 H   0  0  0  0  0  0  0  0  0  0  0  0
   -6.4377   22.3772  -31.4464 H   0  0  0  0  0  0  0  0  0  0  0  0
   -4.7734   23.7418  -30.1419 H   0  0  0  0  0  0  0  0  0  0  0  0
   -1.7349   22.7445  -29.1337 H   0  0  0  0  0  0  0  0  0  0  0  0
   -1.2047   23.6311  -30.6093 H   0  0  0  0  0  0  0  0  0  0  0  0
   -1.5425   21.2175  -31.6253 H   0  0  0  0  0  0  0  0  0  0  0  0
   -0.6124   18.7296  -34.9009 H   0  0  0  0  0  0  0  0  0  0  0  0
   -1.9403   19.8692  -35.3780 H   0  0  0  0  0  0  0  0  0  0  0  0
   -1.0097   21.4854  -33.6494 H   0  0  0  0  0  0  0  0  0  0  0  0
    0.4305   20.3832  -33.5506 H   0  0  0  0  0  0  0  0  0  0  0  0
  1  2  1  0
  2  3  2  0
  2  4  1  0
  4  5  2  0
  5  6  1  0
  6  7  2  0
  7  8  1  0
  8  9  2  0
  9 10  1  0
 10 11  1  0
 11 12  2  0
 11 13  1  0
 11 14  1  0
  9 15  1  0
 15 16  2  0
 16 17  1  0
 17 18  1  0
 18 19  2  0
 18 20  1  0
 20 21  1  0
 21 22  1  0
 22 23  2  0
 22 24  1  0
 17  4  1  0
 16  6  1  0
  1 25  1  0
  5 26  1  0
  7 27  1  0
  8 28  1  0
 10 29  1  0
 10 30  1  0
 15 31  1  0
 20 32  1  0
 20 33  1  0
 21 34  1  0
 21 35  1  0
M  CHG  4   1  -1  13  -1  14  -1  24  -1
M  END
>  <UniqueID>  (17) 
17

>  <SMILES>  (17) 
[NH-]C(=O)c1cc2ccc(CP(=O)([O-])[O-])cc2n1C(=O)CCC(=O)[O-]

>  <Energy>  (17) 
66.3739967653708

>  <Genealogy>  (17) 
[NH-]C(=O)c1cc2ccc(CP(=O)([O-])[O-])cc2n1C(=O)CCC(=O)[O-] (protonated)
[NH-]C(=O)c1cc2ccc(CP(=O)([O-])[O-])cc2n1C(=O)CCC(=O)[O-] (3D coordinates assigned)
[NH-]C(=O)c1cc2ccc(CP(=O)([O-])[O-])cc2n1C(=O)CCC(=O)[O-] (optimized conformer: 66.3739967653708 kcal/mol)

>  <smiles>  (17) 
NC(=O)c1cc2ccc(CP(=O)(O)O)cc2n1C(=O)CCC(=O)O

>  <score_type>  (17) 
oracle

>  <origin>  (17) 
adg

>  <m_score__min__energy>  (17) 
-12.08

>  <m_primary>  (17) 
energy

$$$$
18:0
     RDKit          3D

 46 49  0  0  0  0  0  0  0  0999 V2000
   -3.6430   25.2970  -30.5120 N   0  0  0  0  0  0  0  0  0  0  0  0
   -5.0680   25.2970  -30.5200 C   0  0  0  0  0  0  0  0  0  0  0  0
   -5.6850   26.3350  -30.1590 O   0  0  0  0  0  0  0  0  0  0  0  0
   -5.8290   24.0880  -30.8940 C   0  0  0  0  0  0  0  0  0  0  0  0
   -7.2140   24.0670  -31.0450 C   0  0  0  0  0  0  0  0  0  0  0  0
   -7.5340   22.7540  -31.3080 C   0  0  0  0  0  0  0  0  0  0  0  0
   -8.7710   22.1640  -31.5440 C   0  0  0  0  0  0  0  0  0  0  0  0
   -8.8030   20.7850  -31.8120 C   0  0  0  0  0  0  0  0  0  0  0  0
   -7.6040   20.0280  -31.8660 C   0  0  0  0  0  0  0  0  0  0  0  0
   -7.6590   18.5430  -32.1190 C   0  0  0  0  0  0  0  0  0  0  0  0
   -6.8630   17.8650  -31.2110 F   0  0  0  0  0  0  0  0  0  0  0  0
   -7.2040   18.2830  -33.3980 F   0  0  0  0  0  0  0  0  0  0  0  0
   -8.9540   18.0700  -31.9960 F   0  0  0  0  0  0  0  0  0  0  0  0
   -6.3680   20.6620  -31.5990 C   0  0  0  0  0  0  0  0  0  0  0  0
   -6.3680   22.0330  -31.3160 C   0  0  0  0  0  0  0  0  0  0  0  0
   -5.3120   22.8370  -31.0640 N   0  0  0  0  0  0  0  0  0  0  0  0
   -3.9310   22.4470  -31.0640 C   0  0  0  0  0  0  0  0  0  0  0  0
   -3.2190   22.6720  -32.0780 O   0  0  0  0  0  0  0  0  0  0  0  0
   -3.3810   21.7900  -29.9160 N   0  0  0  0  0  0  0  0  0  0  0  0
   -2.5980   22.4050  -28.8410 C   0  0  1  0  0  0  0  0  0  0  0  0
   -3.4280   23.4700  -28.0680 C   0  0  0  0  0  0  0  0  0  0  0  0
   -2.5650   24.1360  -26.9560 C   0  0  0  0  0  0  0  0  0  0  0  0
   -1.1210   23.5540  -26.9460 C   0  0  1  0  0  0  0  0  0  0  0  0
   -0.2460   24.2040  -25.8940 C   0  0  0  0  0  0  0  0  0  0  0  0
   -0.5380   25.3360  -25.4210 O   0  0  0  0  0  0  0  0  0  0  0  0
    0.9310   23.5870  -25.4880 O   0  0  0  0  0  0  0  0  0  0  0  0
   -1.2290   22.0220  -26.7150 C   0  0  0  0  0  0  0  0  0  0  0  0
   -2.0890   21.3460  -27.8220 C   0  0  0  0  0  0  0  0  0  0  0  0
   -0.5700   23.7440  -28.3480 C   0  0  0  0  0  0  0  0  0  0  0  0
    0.4510   24.3760  -28.5770 O   0  0  0  0  0  0  0  0  0  0  0  0
   -1.3640   23.1130  -29.4640 C   0  0  0  0  0  0  0  0  0  0  0  0
   -3.1020   24.6840  -31.1610 H   0  0  0  0  0  0  0  0  0  0  0  0
   -7.9055   24.9192  -30.9700 H   0  0  0  0  0  0  0  0  0  0  0  0
   -9.6961   22.7587  -31.5216 H   0  0  0  0  0  0  0  0  0  0  0  0
   -9.7687   20.2865  -31.9819 H   0  0  0  0  0  0  0  0  0  0  0  0
   -5.4281   20.0907  -31.6134 H   0  0  0  0  0  0  0  0  0  0  0  0
   -4.2999   22.9835  -27.6063 H   0  0  0  0  0  0  0  0  0  0  0  0
   -3.7556   24.2462  -28.7753 H   0  0  0  0  0  0  0  0  0  0  0  0
   -3.0338   23.9516  -25.9781 H   0  0  0  0  0  0  0  0  0  0  0  0
   -2.5060   25.2157  -27.1580 H   0  0  0  0  0  0  0  0  0  0  0  0
   -1.6956   21.8386  -25.7359 H   0  0  0  0  0  0  0  0  0  0  0  0
   -0.2170   21.5921  -26.7485 H   0  0  0  0  0  0  0  0  0  0  0  0
   -2.9522   20.8482  -27.3560 H   0  0  0  0  0  0  0  0  0  0  0  0
   -1.4682   20.6104  -28.3545 H   0  0  0  0  0  0  0  0  0  0  0  0
   -1.6965   23.8888  -30.1693 H   0  0  0  0  0  0  0  0  0  0  0  0
   -0.7433   22.3860  -30.0082 H   0  0  0  0  0  0  0  0  0  0  0  0
  1  2  1  0
  2  3  2  0
  2  4  1  0
  4  5  2  0
  5  6  1  0
  6  7  2  0
  7  8  1  0
  8  9  2  0
  9 10  1  0
 10 11  1  0
 10 12  1  0
 10 13  1  0
  9 14  1  0
 14 15  2  0
 15 16  1  0
 16 17  1  0
 17 18  2  0
 17 19  1  0
 20 19  1  6
 20 21  1  0
 21 22  1  0
 22 23  1  0
 23 24  1  1
 24 25  2  0
 24 26  1  0
 23 27  1  0
 27 28  1  0
 23 29  1  0
 29 30  2  0
 29 31  1  0
 16  4  1  0
 28 20  1  0
 15  6  1  0
 31 20  1  0
  1 32  1  0
  5 33  1  0
  7 34  1  0
  8 35  1  0
 14 36  1  0
 21 37  1  0
 21 38  1  0
 22 39  1  0
 22 40  1  0
 27 41  1  0
 27 42  1  0
 28 43  1  0
 28 44  1  0
 31 45  1  0
 31 46  1  0
M  CHG  3   1  -1  19  -1  26  -1
M  END
>  <UniqueID>  (18) 
18

>  <SMILES>  (18) 
[NH-]C(=O)c1cc2ccc(C(F)(F)F)cc2n1C(=O)[N-]C12CCC(C(=O)[O-])(CC1)C(=O)C2

>  <Energy>  (18) 
101.64143478839132

>  <Genealogy>  (18) 
[NH-]C(=O)c1cc2ccc(C(F)(F)F)cc2n1C(=O)[N-]C12CCC(C(=O)[O-])(CC1)C(=O)C2 (protonated)
[NH-]C(=O)c1cc2ccc(C(F)(F)F)cc2n1C(=O)[N-]C12CCC(C(=O)[O-])(CC1)C(=O)C2 (3D coordinates assigned)
[NH-]C(=O)c1cc2ccc(C(F)(F)F)cc2n1C(=O)[N-]C12CCC(C(=O)[O-])(CC1)C(=O)C2 (nonaromatic ring conformer: 101.64143478839132 kcal/mol)

>  <smiles>  (18) 
NC(=O)c1cc2ccc(C(F)(F)F)cc2n1C(=O)NC12CCC(C(=O)O)(CC1)C(=O)C2

>  <score_type>  (18) 
oracle

>  <origin>  (18) 
adg

>  <m_score__min__energy>  (18) 
-12.74

>  <m_primary>  (18) 
energy

$$$$
19:0
     RDKit          3D

 44 46  0  0  0  0  0  0  0  0999 V2000
   -4.0080   25.6540  -30.8130 N   0  0  0  0  0  0  0  0  0  0  0  0
   -5.2560   25.1700  -30.3280 C   0  0  0  0  0  0  0  0  0  0  0  0
   -5.8640   25.8190  -29.4370 O   0  0  0  0  0  0  0  0  0  0  0  0
   -5.8350   23.9340  -30.8920 C   0  0  0  0  0  0  0  0  0  0  0  0
   -7.1810   23.7920  -31.2280 C   0  0  0  0  0  0  0  0  0  0  0  0
   -7.3180   22.4860  -31.6410 C   0  0  0  0  0  0  0  0  0  0  0  0
   -8.4410   21.7990  -32.0940 C   0  0  0  0  0  0  0  0  0  0  0  0
   -8.2790   20.4600  -32.4860 C   0  0  0  0  0  0  0  0  0  0  0  0
   -7.0080   19.8330  -32.4310 C   0  0  0  0  0  0  0  0  0  0  0  0
   -6.8820   18.4670  -32.8730 N   0  0  0  0  0  0  0  0  0  0  0  0
   -5.8690   18.0000  -33.8180 C   0  0  0  0  0  0  0  0  0  0  0  0
   -6.0500   16.5400  -34.0900 C   0  0  0  0  0  0  0  0  0  0  0  0
   -5.1170   15.8670  -34.6030 O   0  0  0  0  0  0  0  0  0  0  0  0
   -7.2520   15.9200  -33.7770 O   0  0  0  0  0  0  0  0  0  0  0  0
   -5.8930   20.5620  -31.9510 C   0  0  0  0  0  0  0  0  0  0  0  0
   -6.0890   21.8880  -31.5530 C   0  0  0  0  0  0  0  0  0  0  0  0
   -5.1700   22.7640  -31.0950 N   0  0  0  0  0  0  0  0  0  0  0  0
   -3.7800   22.4880  -30.8800 C   0  0  0  0  0  0  0  0  0  0  0  0
   -2.9050   23.0910  -31.5590 O   0  0  0  0  0  0  0  0  0  0  0  0
   -3.3970   21.5260  -29.8940 N   0  0  0  0  0  0  0  0  0  0  0  0
   -2.2970   21.7160  -28.9560 C   0  0  0  0  0  0  0  0  0  0  0  0
   -2.5350   22.9460  -28.1130 C   0  0  0  0  0  0  0  0  0  0  0  0
   -3.8630   23.2750  -27.7830 C   0  0  0  0  0  0  0  0  0  0  0  0
   -4.1470   24.3720  -26.9690 C   0  0  0  0  0  0  0  0  0  0  0  0
   -3.1110   25.1630  -26.4790 C   0  0  0  0  0  0  0  0  0  0  0  0
   -1.7890   24.8690  -26.8100 C   0  0  0  0  0  0  0  0  0  0  0  0
   -1.4770   23.7760  -27.6400 C   0  0  0  0  0  0  0  0  0  0  0  0
   -0.0480   23.5470  -27.9770 C   0  0  0  0  0  0  0  0  0  0  0  0
    0.5100   24.1690  -28.9180 O   0  0  0  0  0  0  0  0  0  0  0  0
    0.7140   22.6690  -27.2150 O   0  0  0  0  0  0  0  0  0  0  0  0
   -3.1310   25.0990  -30.6900 H   0  0  0  0  0  0  0  0  0  0  0  0
   -7.9664   24.5603  -31.1744 H   0  0  0  0  0  0  0  0  0  0  0  0
   -9.4244   22.2895  -32.1434 H   0  0  0  0  0  0  0  0  0  0  0  0
   -9.1501   19.8896  -32.8406 H   0  0  0  0  0  0  0  0  0  0  0  0
   -7.5960   17.7710  -32.5520 H   0  0  0  0  0  0  0  0  0  0  0  0
   -5.9654   18.5598  -34.7600 H   0  0  0  0  0  0  0  0  0  0  0  0
   -4.8713   18.1633  -33.3844 H   0  0  0  0  0  0  0  0  0  0  0  0
   -4.8979   20.0969  -31.8927 H   0  0  0  0  0  0  0  0  0  0  0  0
   -2.2224   20.8356  -28.3007 H   0  0  0  0  0  0  0  0  0  0  0  0
   -1.3622   21.8446  -29.5214 H   0  0  0  0  0  0  0  0  0  0  0  0
   -4.6876   22.6594  -28.1718 H   0  0  0  0  0  0  0  0  0  0  0  0
   -5.1898   24.6121  -26.7142 H   0  0  0  0  0  0  0  0  0  0  0  0
   -3.3362   26.0217  -25.8294 H   0  0  0  0  0  0  0  0  0  0  0  0
   -0.9784   25.5002  -26.4169 H   0  0  0  0  0  0  0  0  0  0  0  0
  1  2  1  0
  2  3  2  0
  2  4  1  0
  4  5  2  0
  5  6  1  0
  6  7  2  0
  7  8  1  0
  8  9  2  0
  9 10  1  0
 10 11  1  0
 11 12  1  0
 12 13  2  0
 12 14  1  0
  9 15  1  0
 15 16  2  0
 16 17  1  0
 17 18  1  0
 18 19  2  0
 18 20  1  0
 20 21  1  0
 21 22  1  0
 22 23  2  0
 23 24  1  0
 24 25  2  0
 25 26  1  0
 26 27  2  0
 27 28  1  0
 28 29  2  0
 28 30  1  0
 17  4  1  0
 27 22  1  0
 16  6  1  0
  1 31  1  0
  5 32  1  0
  7 33  1  0
  8 34  1  0
 10 35  1  0
 11 36  1  0
 11 37  1  0
 15 38  1  0
 21 39  1  0
 21 40  1  0
 23 41  1  0
 24 42  1  0
 25 43  1  0
 26 44  1  0
M  CHG  4   1  -1  14  -1  20  -1  30  -1
M  END
>  <UniqueID>  (19) 
19

>  <SMILES>  (19) 
[NH-]C(=O)c1cc2ccc(NCC(=O)[O-])cc2n1C(=O)[N-]Cc1ccccc1C(=O)[O-]

>  <Energy>  (19) 
85.36090655721097

>  <Genealogy>  (19) 
[NH-]C(=O)c1cc2ccc(NCC(=O)[O-])cc2n1C(=O)[N-]Cc1ccccc1C(=O)[O-] (protonated)
[NH-]C(=O)c1cc2ccc(NCC(=O)[O-])cc2n1C(=O)[N-]Cc1ccccc1C(=O)[O-] (3D coordinates assigned)
[NH-]C(=O)c1cc2ccc(NCC(=O)[O-])cc2n1C(=O)[N-]Cc1ccccc1C(=O)[O-] (optimized conformer: 85.36090655721097 kcal/mol)

>  <smiles>  (19) 
NC(=O)c1cc2ccc(NCC(=O)O)cc2n1C(=O)NCc1ccccc1C(=O)O

>  <score_type>  (19) 
oracle

>  <origin>  (19) 
adg

>  <m_score__min__energy>  (19) 
-13.779999999999999

>  <m_primary>  (19) 
energy

$$$$
20:0
     RDKit          3D

 33 35  0  0  0  0  0  0  0  0999 V2000
   -1.8500   25.2370  -29.3440 N   0  0  0  0  0  0  0  0  0  0  0  0
   -1.6840   23.8340  -29.1570 C   0  0  0  0  0  0  0  0  0  0  0  0
   -1.0090   23.4170  -28.1790 O   0  0  0  0  0  0  0  0  0  0  0  0
   -2.2580   22.8660  -30.1170 C   0  0  0  0  0  0  0  0  0  0  0  0
   -1.5030   21.9060  -30.7900 C   0  0  0  0  0  0  0  0  0  0  0  0
   -2.3860   21.2760  -31.6370 C   0  0  0  0  0  0  0  0  0  0  0  0
   -2.1800   20.2310  -32.5340 C   0  0  0  0  0  0  0  0  0  0  0  0
   -3.2860   19.7630  -33.2650 C   0  0  0  0  0  0  0  0  0  0  0  0
   -4.5650   20.3510  -33.0930 C   0  0  0  0  0  0  0  0  0  0  0  0
   -5.7500   19.8070  -33.8400 C   0  0  0  0  0  0  0  0  0  0  0  0
   -6.8420   19.5350  -32.9100 N   0  0  0  0  0  0  0  0  0  0  0  0
   -7.8380   20.3670  -32.5700 C   0  0  0  0  0  0  0  0  0  0  0  0
   -8.5940   19.7450  -31.6020 C   0  0  0  0  0  0  0  0  0  0  0  0
   -8.0670   18.5330  -31.3250 N   0  0  0  0  0  0  0  0  0  0  0  0
   -6.9950   18.4410  -32.1380 C   0  0  0  0  0  0  0  0  0  0  0  0
   -4.7380   21.4000  -32.1660 C   0  0  0  0  0  0  0  0  0  0  0  0
   -3.6180   21.8500  -31.4590 C   0  0  0  0  0  0  0  0  0  0  0  0
   -3.5580   22.8210  -30.5240 N   0  0  0  0  0  0  0  0  0  0  0  0
   -4.6690   23.5890  -30.0390 C   0  0  0  0  0  0  0  0  0  0  0  0
   -5.4730   23.0700  -29.2180 O   0  0  0  0  0  0  0  0  0  0  0  0
   -4.8530   24.9890  -30.4440 C   0  0  0  0  0  0  0  0  0  0  0  0
   -3.8760   25.6650  -30.8630 O   0  0  0  0  0  0  0  0  0  0  0  0
   -6.1060   25.5820  -30.3540 O   0  0  0  0  0  0  0  0  0  0  0  0
   -2.7990   25.6720  -29.3300 H   0  0  0  0  0  0  0  0  0  0  0  0
   -0.4298   21.6968  -30.6695 H   0  0  0  0  0  0  0  0  0  0  0  0
   -1.1830   19.7856  -32.6665 H   0  0  0  0  0  0  0  0  0  0  0  0
   -3.1582   18.9338  -33.9763 H   0  0  0  0  0  0  0  0  0  0  0  0
   -6.0812   20.5449  -34.5855 H   0  0  0  0  0  0  0  0  0  0  0  0
   -5.4624   18.8724  -34.3438 H   0  0  0  0  0  0  0  0  0  0  0  0
   -8.0184   21.3676  -32.9898 H   0  0  0  0  0  0  0  0  0  0  0  0
   -9.4903   20.1703  -31.1269 H   0  0  0  0  0  0  0  0  0  0  0  0
   -6.3218   17.5716  -32.1677 H   0  0  0  0  0  0  0  0  0  0  0  0
   -5.7275   21.8522  -32.0034 H   0  0  0  0  0  0  0  0  0  0  0  0
  1  2  1  0
  2  3  2  0
  2  4  1  0
  4  5  2  0
  5  6  1  0
  6  7  2  0
  7  8  1  0
  8  9  2  0
  9 10  1  0
 10 11  1  0
 11 12  1  0
 12 13  2  0
 13 14  1  0
 14 15  2  0
  9 16  1  0
 16 17  2  0
 17 18  1  0
 18 19  1  0
 19 20  2  0
 19 21  1  0
 21 22  2  0
 21 23  1  0
 18  4  1  0
 17  6  1  0
 15 11  1  0
  1 24  1  0
  5 25  1  0
  7 26  1  0
  8 27  1  0
 10 28  1  0
 10 29  1  0
 12 30  1  0
 13 31  1  0
 15 32  1  0
 16 33  1  0
M  CHG  2   1  -1  23  -1
M  END
>  <UniqueID>  (20) 
20

>  <SMILES>  (20) 
[NH-]C(=O)c1cc2ccc(Cn3ccnc3)cc2n1C(=O)C(=O)[O-]

>  <Energy>  (20) 
102.45342311625079

>  <Genealogy>  (20) 
[NH-]C(=O)c1cc2ccc(Cn3ccnc3)cc2n1C(=O)C(=O)[O-] (protonated)
[NH-]C(=O)c1cc2ccc(Cn3ccnc3)cc2n1C(=O)C(=O)[O-] (3D coordinates assigned)
[NH-]C(=O)c1cc2ccc(Cn3ccnc3)cc2n1C(=O)C(=O)[O-] (optimized conformer: 102.45342311625079 kcal/mol)

>  <smiles>  (20) 
NC(=O)c1cc2ccc(Cn3ccnc3)cc2n1C(=O)C(=O)O

>  <score_type>  (20) 
oracle

>  <origin>  (20) 
adg

>  <m_score__min__energy>  (20) 
-11.25

>  <m_primary>  (20) 
energy

$$$$
21:0
     RDKit          3D

 42 44  0  0  0  0  0  0  0  0999 V2000
   -5.1940   19.2160  -34.0690 N   0  0  0  0  0  0  0  0  0  0  0  0
   -4.3590   19.8110  -33.5320 C   0  0  0  0  0  0  0  0  0  0  0  0
   -3.3030   20.5630  -32.8530 C   0  0  0  0  0  0  0  0  0  0  0  0
   -3.8340   21.1550  -31.6730 O   0  0  0  0  0  0  0  0  0  0  0  0
   -4.0650   22.5290  -31.5560 C   0  0  0  0  0  0  0  0  0  0  0  0
   -3.1000   23.3400  -31.5830 O   0  0  0  0  0  0  0  0  0  0  0  0
   -5.4100   23.0170  -31.4290 N   0  0  0  0  0  0  0  0  0  0  0  0
   -5.8200   24.1890  -30.8650 C   0  0  0  0  0  0  0  0  0  0  0  0
   -4.9440   25.2930  -30.4230 C   0  0  0  0  0  0  0  0  0  0  0  0
   -3.6090   25.0410  -29.9900 N   0  0  0  0  0  0  0  0  0  0  0  0
   -5.3620   26.4810  -30.4750 O   0  0  0  0  0  0  0  0  0  0  0  0
   -7.2120   24.2530  -30.8290 C   0  0  0  0  0  0  0  0  0  0  0  0
   -7.6460   23.0790  -31.4010 C   0  0  0  0  0  0  0  0  0  0  0  0
   -8.9410   22.6100  -31.6040 C   0  0  0  0  0  0  0  0  0  0  0  0
   -9.0970   21.3410  -32.1860 C   0  0  0  0  0  0  0  0  0  0  0  0
   -7.9640   20.5670  -32.5520 C   0  0  0  0  0  0  0  0  0  0  0  0
   -8.1380   19.2480  -33.1070 N   0  0  0  0  0  0  0  0  0  0  0  0
   -7.9380   18.2340  -32.0630 C   0  0  0  0  0  0  0  0  0  0  0  0
   -6.9040   17.2280  -32.4960 C   0  0  0  0  0  0  0  0  0  0  0  0
   -5.8820   16.8400  -31.6130 C   0  0  0  0  0  0  0  0  0  0  0  0
   -4.9010   15.9330  -32.0270 C   0  0  0  0  0  0  0  0  0  0  0  0
   -4.9270   15.4190  -33.3270 C   0  0  0  0  0  0  0  0  0  0  0  0
   -5.9310   15.8120  -34.2150 C   0  0  0  0  0  0  0  0  0  0  0  0
   -6.9140   16.7190  -33.8050 C   0  0  0  0  0  0  0  0  0  0  0  0
   -6.6660   21.0760  -32.3180 C   0  0  0  0  0  0  0  0  0  0  0  0
   -6.5410   22.3510  -31.7540 C   0  0  0  0  0  0  0  0  0  0  0  0
   -2.4810   19.8828  -32.5854 H   0  0  0  0  0  0  0  0  0  0  0  0
   -2.9215   21.3492  -33.5211 H   0  0  0  0  0  0  0  0  0  0  0  0
   -2.7930   25.2960  -30.5890 H   0  0  0  0  0  0  0  0  0  0  0  0
   -7.8319   25.0687  -30.4285 H   0  0  0  0  0  0  0  0  0  0  0  0
   -9.8146   23.2141  -31.3177 H   0  0  0  0  0  0  0  0  0  0  0  0
  -10.1074   20.9426  -32.3601 H   0  0  0  0  0  0  0  0  0  0  0  0
   -9.0990   19.1580  -33.5100 H   0  0  0  0  0  0  0  0  0  0  0  0
   -7.4470   19.1000  -33.8810 H   0  0  0  0  0  0  0  0  0  0  0  0
   -7.5992   18.7269  -31.1398 H   0  0  0  0  0  0  0  0  0  0  0  0
   -8.8902   17.7122  -31.8868 H   0  0  0  0  0  0  0  0  0  0  0  0
   -5.8534   17.2509  -30.5930 H   0  0  0  0  0  0  0  0  0  0  0  0
   -4.1086   15.6239  -31.3294 H   0  0  0  0  0  0  0  0  0  0  0  0
   -4.1560   14.7044  -33.6508 H   0  0  0  0  0  0  0  0  0  0  0  0
   -5.9488   15.4078  -35.2379 H   0  0  0  0  0  0  0  0  0  0  0  0
   -7.6972   17.0345  -34.5100 H   0  0  0  0  0  0  0  0  0  0  0  0
   -5.7749   20.4838  -32.5733 H   0  0  0  0  0  0  0  0  0  0  0  0
  1  2  3  0
  2  3  1  0
  3  4  1  0
  4  5  1  0
  5  6  2  0
  5  7  1  0
  7  8  1  0
  8  9  1  0
  9 10  1  0
  9 11  2  0
  8 12  2  0
 12 13  1  0
 13 14  2  0
 14 15  1  0
 15 16  2  0
 16 17  1  0
 17 18  1  0
 18 19  1  0
 19 20  2  0
 20 21  1  0
 21 22  2  0
 22 23  1  0
 23 24  2  0
 16 25  1  0
 25 26  2  0
 26  7  1  0
 26 13  1  0
 24 19  1  0
  3 27  1  0
  3 28  1  0
 10 29  1  0
 12 30  1  0
 14 31  1  0
 15 32  1  0
 17 33  1  0
 17 34  1  0
 18 35  1  0
 18 36  1  0
 20 37  1  0
 21 38  1  0
 22 39  1  0
 23 40  1  0
 24 41  1  0
 25 42  1  0
M  CHG  2  10  -1  17   1
M  END
>  <UniqueID>  (21) 
21

>  <SMILES>  (21) 
N#CCOC(=O)n1c(C([NH-])=O)cc2ccc([NH2+]Cc3ccccc3)cc21

>  <Energy>  (21) 
80.06578476695145

>  <Genealogy>  (21) 
N#CCOC(=O)n1c(C([NH-])=O)cc2ccc([NH2+]Cc3ccccc3)cc21 (protonated)
N#CCOC(=O)n1c(C([NH-])=O)cc2ccc([NH2+]Cc3ccccc3)cc21 (3D coordinates assigned)
N#CCOC(=O)n1c(C([NH-])=O)cc2ccc([NH2+]Cc3ccccc3)cc21 (optimized conformer: 80.06578476695145 kcal/mol)

>  <smiles>  (21) 
N#CCOC(=O)n1c(C(N)=O)cc2ccc(NCc3ccccc3)cc21

>  <score_type>  (21) 
oracle

>  <origin>  (21) 
adg

>  <m_score__min__energy>  (21) 
-10.75

>  <m_primary>  (21) 
energy

$$$$
22:0
     RDKit          3D

 40 42  0  0  0  0  0  0  0  0999 V2000
   -3.6660   25.2830  -30.4070 N   0  0  0  0  0  0  0  0  0  0  0  0
   -5.0860   25.3490  -30.5210 C   0  0  0  0  0  0  0  0  0  0  0  0
   -5.6590   26.4680  -30.4310 O   0  0  0  0  0  0  0  0  0  0  0  0
   -5.8860   24.1380  -30.7950 C   0  0  0  0  0  0  0  0  0  0  0  0
   -7.2690   24.1480  -30.9540 C   0  0  0  0  0  0  0  0  0  0  0  0
   -7.6070   22.8580  -31.2950 C   0  0  0  0  0  0  0  0  0  0  0  0
   -8.8510   22.3020  -31.5770 C   0  0  0  0  0  0  0  0  0  0  0  0
   -8.9070   20.9330  -31.8880 C   0  0  0  0  0  0  0  0  0  0  0  0
   -7.7290   20.1400  -31.8860 C   0  0  0  0  0  0  0  0  0  0  0  0
   -7.7960   18.6800  -32.2600 C   0  0  0  0  0  0  0  0  0  0  0  0
   -7.1820   18.4600  -33.4800 F   0  0  0  0  0  0  0  0  0  0  0  0
   -7.1610   17.9030  -31.3080 F   0  0  0  0  0  0  0  0  0  0  0  0
   -9.1210   18.2950  -32.3470 F   0  0  0  0  0  0  0  0  0  0  0  0
   -6.4810   20.7480  -31.6180 C   0  0  0  0  0  0  0  0  0  0  0  0
   -6.4560   22.1170  -31.3280 C   0  0  0  0  0  0  0  0  0  0  0  0
   -5.3900   22.8870  -31.0180 N   0  0  0  0  0  0  0  0  0  0  0  0
   -4.0320   22.4440  -30.8880 C   0  0  0  0  0  0  0  0  0  0  0  0
   -3.1580   22.8550  -31.6990 O   0  0  0  0  0  0  0  0  0  0  0  0
   -3.6850   21.5670  -29.8570 O   0  0  0  0  0  0  0  0  0  0  0  0
   -3.6920   21.9420  -28.4820 C   0  0  0  0  0  0  0  0  0  0  0  0
   -2.7730   23.0640  -28.2610 N   0  0  0  0  0  0  0  0  0  0  0  0
   -3.1400   24.0690  -27.4110 C   0  0  0  0  0  0  0  0  0  0  0  0
   -2.2730   25.1330  -27.1510 C   0  0  0  0  0  0  0  0  0  0  0  0
   -1.0140   25.1730  -27.7650 C   0  0  0  0  0  0  0  0  0  0  0  0
   -0.0830   26.2900  -27.4960 C   0  0  0  0  0  0  0  0  0  0  0  0
   -0.5210   27.4540  -27.3010 O   0  0  0  0  0  0  0  0  0  0  0  0
    1.2890   26.0700  -27.4540 O   0  0  0  0  0  0  0  0  0  0  0  0
   -0.6560   24.1310  -28.6350 C   0  0  0  0  0  0  0  0  0  0  0  0
   -1.5500   23.0850  -28.8700 C   0  0  0  0  0  0  0  0  0  0  0  0
   -3.0760   24.9560  -31.2040 H   0  0  0  0  0  0  0  0  0  0  0  0
   -7.9478   25.0051  -30.8328 H   0  0  0  0  0  0  0  0  0  0  0  0
   -9.7635   22.9160  -31.5570 H   0  0  0  0  0  0  0  0  0  0  0  0
   -9.8738   20.4705  -32.1357 H   0  0  0  0  0  0  0  0  0  0  0  0
   -5.5520   20.1592  -31.6370 H   0  0  0  0  0  0  0  0  0  0  0  0
   -4.7096   22.2426  -28.1920 H   0  0  0  0  0  0  0  0  0  0  0  0
   -3.3672   21.0852  -27.8734 H   0  0  0  0  0  0  0  0  0  0  0  0
   -4.1274   24.0399  -26.9270 H   0  0  0  0  0  0  0  0  0  0  0  0
   -2.5779   25.9377  -26.4658 H   0  0  0  0  0  0  0  0  0  0  0  0
    0.3262   24.1388  -29.1301 H   0  0  0  0  0  0  0  0  0  0  0  0
   -1.2672   22.2697  -29.5521 H   0  0  0  0  0  0  0  0  0  0  0  0
  1  2  1  0
  2  3  2  0
  2  4  1  0
  4  5  2  0
  5  6  1  0
  6  7  2  0
  7  8  1  0
  8  9  2  0
  9 10  1  0
 10 11  1  0
 10 12  1  0
 10 13  1  0
  9 14  1  0
 14 15  2  0
 15 16  1  0
 16 17  1  0
 17 18  2  0
 17 19  1  0
 19 20  1  0
 20 21  1  0
 21 22  2  0
 22 23  1  0
 23 24  2  0
 24 25  1  0
 25 26  2  0
 25 27  1  0
 24 28  1  0
 28 29  2  0
 16  4  1  0
 29 21  1  0
 15  6  1  0
  1 30  1  0
  5 31  1  0
  7 32  1  0
  8 33  1  0
 14 34  1  0
 20 35  1  0
 20 36  1  0
 22 37  1  0
 23 38  1  0
 28 39  1  0
 29 40  1  0
M  CHG  3   1  -1  21   1  27  -1
M  END
>  <UniqueID>  (22) 
22

>  <SMILES>  (22) 
[NH-]C(=O)c1cc2ccc(C(F)(F)F)cc2n1C(=O)OC[n+]1ccc(C(=O)[O-])cc1

>  <Energy>  (22) 
81.76683162430777

>  <Genealogy>  (22) 
[NH-]C(=O)c1cc2ccc(C(F)(F)F)cc2n1C(=O)OC[n+]1ccc(C(=O)[O-])cc1 (protonated)
[NH-]C(=O)c1cc2ccc(C(F)(F)F)cc2n1C(=O)OC[n+]1ccc(C(=O)[O-])cc1 (3D coordinates assigned)
[NH-]C(=O)c1cc2ccc(C(F)(F)F)cc2n1C(=O)OC[n+]1ccc(C(=O)[O-])cc1 (optimized conformer: 81.76683162430777 kcal/mol)

>  <smiles>  (22) 
NC(=O)c1cc2ccc(C(F)(F)F)cc2n1C(=O)OC[n+]1ccc(C(=O)O)cc1

>  <score_type>  (22) 
oracle

>  <origin>  (22) 
adg

>  <m_score__min__energy>  (22) 
-10.42

>  <m_primary>  (22) 
energy

$$$$
23:0
     RDKit          3D

 43 44  0  0  0  0  0  0  0  0999 V2000
   -0.5470   21.1950  -29.5470 C   0  0  0  0  0  0  0  0  0  0  0  0
   -0.7220   22.6120  -29.8710 N   0  0  0  0  0  0  0  0  0  0  0  0
   -0.8050   23.4500  -28.6570 C   0  0  2  0  0  0  0  0  0  0  0  0
   -0.7070   22.6160  -27.3700 C   0  0  0  0  0  0  0  0  0  0  0  0
   -2.0990   24.2130  -28.6670 C   0  0  0  0  0  0  0  0  0  0  0  0
   -2.2090   25.2670  -29.3530 O   0  0  0  0  0  0  0  0  0  0  0  0
   -3.1900   23.7160  -27.9460 O   0  0  0  0  0  0  0  0  0  0  0  0
   -4.0710   22.7220  -28.4650 C   0  0  0  0  0  0  0  0  0  0  0  0
   -3.5410   22.1780  -29.6700 O   0  0  0  0  0  0  0  0  0  0  0  0
   -3.9770   22.5760  -30.9370 C   0  0  0  0  0  0  0  0  0  0  0  0
   -3.1450   22.7560  -31.8680 O   0  0  0  0  0  0  0  0  0  0  0  0
   -5.3800   22.7620  -31.1800 N   0  0  0  0  0  0  0  0  0  0  0  0
   -6.1260   23.8690  -30.9090 C   0  0  0  0  0  0  0  0  0  0  0  0
   -5.6040   25.1690  -30.4430 C   0  0  0  0  0  0  0  0  0  0  0  0
   -4.2330   25.5320  -30.6430 N   0  0  0  0  0  0  0  0  0  0  0  0
   -6.3900   25.9960  -29.9060 O   0  0  0  0  0  0  0  0  0  0  0  0
   -7.4740   23.6310  -31.1640 C   0  0  0  0  0  0  0  0  0  0  0  0
   -7.5310   22.3310  -31.6120 C   0  0  0  0  0  0  0  0  0  0  0  0
   -8.6290   21.5660  -31.9960 C   0  0  0  0  0  0  0  0  0  0  0  0
   -8.4050   20.2300  -32.3700 C   0  0  0  0  0  0  0  0  0  0  0  0
   -7.0970   19.6760  -32.3280 C   0  0  0  0  0  0  0  0  0  0  0  0
   -6.8440   18.2430  -32.7290 C   0  0  0  0  0  0  0  0  0  0  0  0
   -7.9730   17.4610  -32.5530 F   0  0  0  0  0  0  0  0  0  0  0  0
   -6.4720   18.2000  -34.0600 F   0  0  0  0  0  0  0  0  0  0  0  0
   -5.8230   17.7130  -31.9580 F   0  0  0  0  0  0  0  0  0  0  0  0
   -6.0050   20.4920  -31.9490 C   0  0  0  0  0  0  0  0  0  0  0  0
   -6.2550   21.8270  -31.6070 C   0  0  0  0  0  0  0  0  0  0  0  0
   -0.5313   21.0679  -28.4545 H   0  0  0  0  0  0  0  0  0  0  0  0
   -1.3805   20.6161  -29.9715 H   0  0  0  0  0  0  0  0  0  0  0  0
    0.4023   20.8363  -29.9715 H   0  0  0  0  0  0  0  0  0  0  0  0
   -1.5930   22.7170  -30.4440 H   0  0  0  0  0  0  0  0  0  0  0  0
    0.0489   24.1433  -28.6676 H   0  0  0  0  0  0  0  0  0  0  0  0
   -0.7850   23.2796  -26.4962 H   0  0  0  0  0  0  0  0  0  0  0  0
   -1.5249   21.8809  -27.3463 H   0  0  0  0  0  0  0  0  0  0  0  0
    0.2591   22.0905  -27.3463 H   0  0  0  0  0  0  0  0  0  0  0  0
   -4.1888   21.9177  -27.7239 H   0  0  0  0  0  0  0  0  0  0  0  0
   -5.0474   23.1821  -28.6771 H   0  0  0  0  0  0  0  0  0  0  0  0
   -3.5980   24.9460  -31.2320 H   0  0  0  0  0  0  0  0  0  0  0  0
   -3.8630   26.4240  -30.2410 H   0  0  0  0  0  0  0  0  0  0  0  0
   -8.3126   24.3311  -31.0351 H   0  0  0  0  0  0  0  0  0  0  0  0
   -9.6420   21.9947  -32.0064 H   0  0  0  0  0  0  0  0  0  0  0  0
   -9.2501   19.6072  -32.6984 H   0  0  0  0  0  0  0  0  0  0  0  0
   -4.9826   20.0870  -31.9235 H   0  0  0  0  0  0  0  0  0  0  0  0
  1  2  1  0
  2  3  1  0
  3  4  1  0
  3  5  1  0
  5  6  2  0
  5  7  1  0
  7  8  1  0
  8  9  1  0
  9 10  1  0
 10 11  2  0
 10 12  1  0
 12 13  1  0
 13 14  1  0
 14 15  1  0
 14 16  2  0
 13 17  2  0
 17 18  1  0
 18 19  2  0
 19 20  1  0
 20 21  2  0
 21 22  1  0
 22 23  1  0
 22 24  1  0
 22 25  1  0
 21 26  1  0
 26 27  2  0
 27 12  1  0
 27 18  1  0
  1 28  1  0
  1 29  1  0
  1 30  1  0
  2 31  1  0
  3 32  1  6
  4 33  1  0
  4 34  1  0
  4 35  1  0
  8 36  1  0
  8 37  1  0
 15 38  1  0
 15 39  1  0
 17 40  1  0
 19 41  1  0
 20 42  1  0
 26 43  1  0
M  END
>  <UniqueID>  (23) 
23

>  <SMILES>  (23) 
CN[C@H](C)C(=O)OCOC(=O)n1c(C(N)=O)cc2ccc(C(F)(F)F)cc21

>  <Energy>  (23) 
76.79809892409344

>  <Genealogy>  (23) 
CN[C@H](C)C(=O)OCOC(=O)n1c(C(N)=O)cc2ccc(C(F)(F)F)cc21 (chirality)
CN[C@H](C)C(=O)OCOC(=O)n1c(C(N)=O)cc2ccc(C(F)(F)F)cc21 (3D coordinates assigned)
CN[C@H](C)C(=O)OCOC(=O)n1c(C(N)=O)cc2ccc(C(F)(F)F)cc21 (optimized conformer: 76.79809892409344 kcal/mol)

>  <smiles>  (23) 
CNC(C)C(=O)OCOC(=O)n1c(C(N)=O)cc2ccc(C(F)(F)F)cc21

>  <score_type>  (23) 
oracle

>  <origin>  (23) 
adg

>  <m_score__min__energy>  (23) 
-8.3200000000000003

>  <m_primary>  (23) 
energy

$$$$
24:0
     RDKit          3D

 40 41  0  0  0  0  0  0  0  0999 V2000
   -6.8140   17.8350  -33.4660 C   0  0  0  0  0  0  0  0  0  0  0  0
   -7.2210   19.1230  -32.8140 C   0  0  0  0  0  0  0  0  0  0  0  0
   -8.5940   19.4270  -32.6470 C   0  0  0  0  0  0  0  0  0  0  0  0
   -8.9900   20.6090  -31.9970 C   0  0  0  0  0  0  0  0  0  0  0  0
   -7.9950   21.4590  -31.5250 C   0  0  0  0  0  0  0  0  0  0  0  0
   -8.0990   22.6440  -30.8320 C   0  0  0  0  0  0  0  0  0  0  0  0
   -6.7880   23.0510  -30.6010 C   0  0  0  0  0  0  0  0  0  0  0  0
   -6.4340   24.3220  -29.9360 C   0  0  0  0  0  0  0  0  0  0  0  0
   -5.2120   24.4640  -29.2120 N   0  0  0  0  0  0  0  0  0  0  0  0
   -7.2010   25.3160  -30.0530 O   0  0  0  0  0  0  0  0  0  0  0  0
   -5.9060   22.1480  -31.1140 N   0  0  0  0  0  0  0  0  0  0  0  0
   -4.4750   22.1560  -30.9910 C   0  0  0  0  0  0  0  0  0  0  0  0
   -3.8280   23.1950  -31.2950 O   0  0  0  0  0  0  0  0  0  0  0  0
   -3.8140   21.0040  -30.5460 O   0  0  0  0  0  0  0  0  0  0  0  0
   -2.4420   20.9170  -30.2790 C   0  0  0  0  0  0  0  0  0  0  0  0
   -1.5910   21.2190  -31.1590 O   0  0  0  0  0  0  0  0  0  0  0  0
   -2.0320   20.4920  -29.0130 O   0  0  0  0  0  0  0  0  0  0  0  0
   -2.3160   21.2060  -27.8120 C   0  0  0  0  0  0  0  0  0  0  0  0
   -3.2600   22.2410  -28.0800 O   0  0  0  0  0  0  0  0  0  0  0  0
   -3.1380   23.5500  -27.6010 C   0  0  0  0  0  0  0  0  0  0  0  0
   -4.1140   24.1340  -27.0560 O   0  0  0  0  0  0  0  0  0  0  0  0
   -1.8430   24.2720  -27.7720 C   0  0  0  0  0  0  0  0  0  0  0  0
   -1.9760   25.2940  -28.8540 C   0  0  0  0  0  0  0  0  0  0  0  0
   -2.9480   25.2460  -29.6540 O   0  0  0  0  0  0  0  0  0  0  0  0
   -1.0510   26.3260  -28.9560 O   0  0  0  0  0  0  0  0  0  0  0  0
   -6.6600   21.1810  -31.6820 C   0  0  0  0  0  0  0  0  0  0  0  0
   -6.2380   20.0010  -32.3060 C   0  0  0  0  0  0  0  0  0  0  0  0
   -6.5787   17.0903  -32.6914 H   0  0  0  0  0  0  0  0  0  0  0  0
   -7.6388   17.4644  -34.0924 H   0  0  0  0  0  0  0  0  0  0  0  0
   -5.9260   18.0057  -34.0924 H   0  0  0  0  0  0  0  0  0  0  0  0
   -9.3569   18.7326  -33.0290 H   0  0  0  0  0  0  0  0  0  0  0  0
  -10.0542   20.8543  -31.8656 H   0  0  0  0  0  0  0  0  0  0  0  0
   -9.0214   23.1593  -30.5261 H   0  0  0  0  0  0  0  0  0  0  0  0
   -5.0080   25.3490  -28.6980 H   0  0  0  0  0  0  0  0  0  0  0  0
   -4.4750   23.7250  -29.2450 H   0  0  0  0  0  0  0  0  0  0  0  0
   -2.7337   20.5144  -27.0655 H   0  0  0  0  0  0  0  0  0  0  0  0
   -1.3877   21.6510  -27.4245 H   0  0  0  0  0  0  0  0  0  0  0  0
   -1.5749   24.7706  -26.8289 H   0  0  0  0  0  0  0  0  0  0  0  0
   -1.0575   23.5520  -28.0451 H   0  0  0  0  0  0  0  0  0  0  0  0
   -5.1679   19.7636  -32.3984 H   0  0  0  0  0  0  0  0  0  0  0  0
  1  2  1  0
  2  3  2  0
  3  4  1  0
  4  5  2  0
  5  6  1  0
  6  7  2  0
  7  8  1  0
  8  9  1  0
  8 10  2  0
  7 11  1  0
 11 12  1  0
 12 13  2  0
 12 14  1  0
 14 15  1  0
 15 16  2  0
 15 17  1  0
 17 18  1  0
 18 19  1  0
 19 20  1  0
 20 21  2  0
 20 22  1  0
 22 23  1  0
 23 24  2  0
 23 25  1  0
 11 26  1  0
 26 27  2  0
 27  2  1  0
 26  5  1  0
  1 28  1  0
  1 29  1  0
  1 30  1  0
  3 31  1  0
  4 32  1  0
  6 33  1  0
  9 34  1  0
  9 35  1  0
 18 36  1  0
 18 37  1  0
 22 38  1  0
 22 39  1  0
 27 40  1  0
M  CHG  1  25  -1
M  END
>  <UniqueID>  (24) 
24

>  <SMILES>  (24) 
Cc1ccc2cc(C(N)=O)n(C(=O)OC(=O)OCOC(=O)CC(=O)[O-])c2c1

>  <Energy>  (24) 
76.58056908391315

>  <Genealogy>  (24) 
Cc1ccc2cc(C(N)=O)n(C(=O)OC(=O)OCOC(=O)CC(=O)[O-])c2c1 (protonated)
Cc1ccc2cc(C(N)=O)n(C(=O)OC(=O)OCOC(=O)CC(=O)[O-])c2c1 (3D coordinates assigned)
Cc1ccc2cc(C(N)=O)n(C(=O)OC(=O)OCOC(=O)CC(=O)[O-])c2c1 (optimized conformer: 76.58056908391315 kcal/mol)

>  <smiles>  (24) 
Cc1ccc2cc(C(N)=O)n(C(=O)OC(=O)OCOC(=O)CC(=O)O)c2c1

>  <score_type>  (24) 
oracle

>  <origin>  (24) 
adg

>  <m_score__min__energy>  (24) 
-9.7699999999999996

>  <m_primary>  (24) 
energy

$$$$
25:0
     RDKit          3D

 33 34  0  0  0  0  0  0  0  0999 V2000
   -3.8990   22.6210  -28.5550 C   0  0  0  0  0  0  0  0  0  0  0  0
   -3.3020   23.0450  -29.6780 C   0  0  0  0  0  0  0  0  0  0  0  0
   -2.0950   23.9030  -29.5960 C   0  0  0  0  0  0  0  0  0  0  0  0
   -0.9440   23.4070  -29.7310 O   0  0  0  0  0  0  0  0  0  0  0  0
   -2.2110   25.2650  -29.3460 O   0  0  0  0  0  0  0  0  0  0  0  0
   -3.8680   22.6630  -30.9990 C   0  0  0  0  0  0  0  0  0  0  0  0
   -3.1030   22.2610  -31.9190 O   0  0  0  0  0  0  0  0  0  0  0  0
   -5.2810   22.7200  -31.2470 N   0  0  0  0  0  0  0  0  0  0  0  0
   -6.1390   23.7520  -31.0060 C   0  0  0  0  0  0  0  0  0  0  0  0
   -5.7630   25.0980  -30.5250 C   0  0  0  0  0  0  0  0  0  0  0  0
   -4.4900   25.6580  -30.8320 N   0  0  0  0  0  0  0  0  0  0  0  0
   -6.5920   25.7790  -29.8630 O   0  0  0  0  0  0  0  0  0  0  0  0
   -7.4440   23.3890  -31.3390 C   0  0  0  0  0  0  0  0  0  0  0  0
   -7.3540   22.0960  -31.8070 C   0  0  0  0  0  0  0  0  0  0  0  0
   -8.3450   21.2410  -32.2790 C   0  0  0  0  0  0  0  0  0  0  0  0
   -7.9630   19.9530  -32.6890 C   0  0  0  0  0  0  0  0  0  0  0  0
   -6.6080   19.5410  -32.6070 C   0  0  0  0  0  0  0  0  0  0  0  0
   -6.2080   18.1680  -33.0730 C   0  0  0  0  0  0  0  0  0  0  0  0
   -6.0950   17.2090  -31.8920 C   0  0  0  0  0  0  0  0  0  0  0  0
   -5.6280   20.4410  -32.1350 C   0  0  0  0  0  0  0  0  0  0  0  0
   -6.0380   21.7190  -31.7450 C   0  0  0  0  0  0  0  0  0  0  0  0
   -4.7942   21.9846  -28.6146 H   0  0  0  0  0  0  0  0  0  0  0  0
   -3.4936   22.9095  -27.5740 H   0  0  0  0  0  0  0  0  0  0  0  0
   -3.8800   26.0520  -30.0810 H   0  0  0  0  0  0  0  0  0  0  0  0
   -8.3515   24.0038  -31.2475 H   0  0  0  0  0  0  0  0  0  0  0  0
   -9.3954   21.5638  -32.3295 H   0  0  0  0  0  0  0  0  0  0  0  0
   -8.7215   19.2574  -33.0773 H   0  0  0  0  0  0  0  0  0  0  0  0
   -6.9664   17.7895  -33.7741 H   0  0  0  0  0  0  0  0  0  0  0  0
   -5.2286   18.2345  -33.5693 H   0  0  0  0  0  0  0  0  0  0  0  0
   -6.1618   17.7759  -30.9517 H   0  0  0  0  0  0  0  0  0  0  0  0
   -6.9128   16.4747  -31.9364 H   0  0  0  0  0  0  0  0  0  0  0  0
   -5.1289   16.6849  -31.9364 H   0  0  0  0  0  0  0  0  0  0  0  0
   -4.5704   20.1444  -32.0758 H   0  0  0  0  0  0  0  0  0  0  0  0
  1  2  2  0
  2  3  1  0
  3  4  2  0
  3  5  1  0
  2  6  1  0
  6  7  2  0
  6  8  1  0
  8  9  1  0
  9 10  1  0
 10 11  1  0
 10 12  2  0
  9 13  2  0
 13 14  1  0
 14 15  2  0
 15 16  1  0
 16 17  2  0
 17 18  1  0
 18 19  1  0
 17 20  1  0
 20 21  2  0
 21  8  1  0
 21 14  1  0
  1 22  1  0
  1 23  1  0
 11 24  1  0
 13 25  1  0
 15 26  1  0
 16 27  1  0
 18 28  1  0
 18 29  1  0
 19 30  1  0
 19 31  1  0
 19 32  1  0
 20 33  1  0
M  CHG  2   5  -1  11  -1
M  END
>  <UniqueID>  (25) 
25

>  <SMILES>  (25) 
C=C(C(=O)[O-])C(=O)n1c(C([NH-])=O)cc2ccc(CC)cc21

>  <Energy>  (25) 
71.58787539614694

>  <Genealogy>  (25) 
C=C(C(=O)[O-])C(=O)n1c(C([NH-])=O)cc2ccc(CC)cc21 (protonated)
C=C(C(=O)[O-])C(=O)n1c(C([NH-])=O)cc2ccc(CC)cc21 (3D coordinates assigned)
C=C(C(=O)[O-])C(=O)n1c(C([NH-])=O)cc2ccc(CC)cc21 (optimized conformer: 71.58787539614694 kcal/mol)

>  <smiles>  (25) 
C=C(C(=O)O)C(=O)n1c(C(N)=O)cc2ccc(CC)cc21

>  <score_type>  (25) 
oracle

>  <origin>  (25) 
adg

>  <m_score__min__energy>  (25) 
-11.880000000000001

>  <m_primary>  (25) 
energy

$$$$
26:0
     RDKit          3D

 37 39  0  0  0  0  0  0  0  0999 V2000
   -4.2400   25.5740  -30.4580 N   0  0  0  0  0  0  0  0  0  0  0  0
   -5.6240   25.2500  -30.3090 C   0  0  0  0  0  0  0  0  0  0  0  0
   -6.3800   26.0550  -29.7030 O   0  0  0  0  0  0  0  0  0  0  0  0
   -6.1610   23.9720  -30.8260 C   0  0  0  0  0  0  0  0  0  0  0  0
   -7.5210   23.7010  -30.9640 C   0  0  0  0  0  0  0  0  0  0  0  0
   -7.5870   22.4640  -31.5640 C   0  0  0  0  0  0  0  0  0  0  0  0
   -8.6950   21.7050  -31.9290 C   0  0  0  0  0  0  0  0  0  0  0  0
   -8.4700   20.4480  -32.5110 C   0  0  0  0  0  0  0  0  0  0  0  0
   -7.1470   19.9680  -32.7120 C   0  0  0  0  0  0  0  0  0  0  0  0
   -6.8980   18.6750  -33.2950 N   0  0  0  0  0  0  0  0  0  0  0  0
   -5.7090   17.8810  -32.9950 C   0  0  0  0  0  0  0  0  0  0  0  0
   -5.8400   17.0240  -31.7460 C   0  0  0  0  0  0  0  0  0  0  0  0
   -5.9380   16.3840  -33.1220 C   0  0  0  0  0  0  0  0  0  0  0  0
   -6.0500   20.7710  -32.3300 C   0  0  0  0  0  0  0  0  0  0  0  0
   -6.3050   22.0280  -31.7680 C   0  0  0  0  0  0  0  0  0  0  0  0
   -5.4160   22.9420  -31.3190 N   0  0  0  0  0  0  0  0  0  0  0  0
   -3.9860   22.8070  -31.2970 C   0  0  0  0  0  0  0  0  0  0  0  0
   -3.3560   22.6000  -32.3700 O   0  0  0  0  0  0  0  0  0  0  0  0
   -3.2780   22.8840  -30.0560 N   0  0  0  0  0  0  0  0  0  0  0  0
   -1.8260   22.8710  -29.9730 C   0  0  0  0  0  0  0  0  0  0  0  0
   -1.3550   24.1440  -29.3530 C   0  0  0  0  0  0  0  0  0  0  0  0
   -0.1910   24.2240  -28.8800 O   0  0  0  0  0  0  0  0  0  0  0  0
   -2.1800   25.2610  -29.3450 O   0  0  0  0  0  0  0  0  0  0  0  0
   -3.8640   26.4610  -30.0560 H   0  0  0  0  0  0  0  0  0  0  0  0
   -3.5940   24.9590  -30.9990 H   0  0  0  0  0  0  0  0  0  0  0  0
   -8.3627   24.3398  -30.6584 H   0  0  0  0  0  0  0  0  0  0  0  0
   -9.7165   22.0792  -31.7662 H   0  0  0  0  0  0  0  0  0  0  0  0
   -9.3261   19.8277  -32.8148 H   0  0  0  0  0  0  0  0  0  0  0  0
   -7.6350   18.2440  -33.8970 H   0  0  0  0  0  0  0  0  0  0  0  0
   -4.9626   18.5950  -33.3733 H   0  0  0  0  0  0  0  0  0  0  0  0
   -4.9601   16.8358  -31.1132 H   0  0  0  0  0  0  0  0  0  0  0  0
   -6.4789   17.0460  -30.8509 H   0  0  0  0  0  0  0  0  0  0  0  0
   -5.1291   15.7327  -33.4845 H   0  0  0  0  0  0  0  0  0  0  0  0
   -6.6774   15.7510  -33.6345 H   0  0  0  0  0  0  0  0  0  0  0  0
   -5.0181   20.4170  -32.4708 H   0  0  0  0  0  0  0  0  0  0  0  0
   -1.5010   22.0200  -29.3565 H   0  0  0  0  0  0  0  0  0  0  0  0
   -1.4005   22.7739  -30.9827 H   0  0  0  0  0  0  0  0  0  0  0  0
  1  2  1  0
  2  3  2  0
  2  4  1  0
  4  5  2  0
  5  6  1  0
  6  7  2  0
  7  8  1  0
  8  9  2  0
  9 10  1  0
 10 11  1  0
 11 12  1  0
 12 13  1  0
  9 14  1  0
 14 15  2  0
 15 16  1  0
 16 17  1  0
 17 18  2  0
 17 19  1  0
 19 20  1  0
 20 21  1  0
 21 22  2  0
 21 23  1  0
 16  4  1  0
 15  6  1  0
 13 11  1  0
  1 24  1  0
  1 25  1  0
  5 26  1  0
  7 27  1  0
  8 28  1  0
 10 29  1  0
 11 30  1  0
 12 31  1  0
 12 32  1  0
 13 33  1  0
 13 34  1  0
 14 35  1  0
 20 36  1  0
 20 37  1  0
M  CHG  2  19  -1  23  -1
M  END
>  <UniqueID>  (26) 
26

>  <SMILES>  (26) 
NC(=O)c1cc2ccc(NC3CC3)cc2n1C(=O)[N-]CC(=O)[O-]

>  <Energy>  (26) 
337.4928212457955

>  <Genealogy>  (26) 
NC(=O)c1cc2ccc(NC3CC3)cc2n1C(=O)[N-]CC(=O)[O-] (protonated)
NC(=O)c1cc2ccc(NC3CC3)cc2n1C(=O)[N-]CC(=O)[O-] (3D coordinates assigned)
NC(=O)c1cc2ccc(NC3CC3)cc2n1C(=O)[N-]CC(=O)[O-] (nonaromatic ring conformer: 337.4928212457955 kcal/mol)

>  <smiles>  (26) 
NC(=O)c1cc2ccc(NC3CC3)cc2n1C(=O)NCC(=O)O

>  <score_type>  (26) 
oracle

>  <origin>  (26) 
adg

>  <m_score__min__energy>  (26) 
-11.18

>  <m_primary>  (26) 
energy

$$$$
27:0
     RDKit          3D

 44 45  0  0  0  0  0  0  0  0999 V2000
   -7.0750   18.3910  -32.8930 C   0  0  0  0  0  0  0  0  0  0  0  0
   -7.2080   19.7830  -32.3530 C   0  0  0  0  0  0  0  0  0  0  0  0
   -8.4760   20.4150  -32.3260 C   0  0  0  0  0  0  0  0  0  0  0  0
   -8.6080   21.7370  -31.8680 C   0  0  0  0  0  0  0  0  0  0  0  0
   -7.4570   22.3980  -31.4480 C   0  0  0  0  0  0  0  0  0  0  0  0
   -7.2930   23.6850  -30.9890 C   0  0  0  0  0  0  0  0  0  0  0  0
   -5.9300   23.8170  -30.7340 C   0  0  0  0  0  0  0  0  0  0  0  0
   -5.3270   25.0290  -30.1390 C   0  0  0  0  0  0  0  0  0  0  0  0
   -4.1990   25.6600  -30.7400 N   0  0  0  0  0  0  0  0  0  0  0  0
   -5.7860   25.4870  -29.0590 O   0  0  0  0  0  0  0  0  0  0  0  0
   -5.2740   22.6600  -31.0350 N   0  0  0  0  0  0  0  0  0  0  0  0
   -3.8610   22.4120  -30.9880 C   0  0  0  0  0  0  0  0  0  0  0  0
   -3.0560   23.2810  -31.4190 O   0  0  0  0  0  0  0  0  0  0  0  0
   -3.3850   21.1970  -30.4830 O   0  0  0  0  0  0  0  0  0  0  0  0
   -2.6130   21.1130  -29.2900 C   0  0  0  0  0  0  0  0  0  0  0  0
   -2.5070   22.4070  -28.7040 O   0  0  0  0  0  0  0  0  0  0  0  0
   -3.5450   23.0000  -27.9820 C   0  0  0  0  0  0  0  0  0  0  0  0
   -4.5860   22.3450  -27.6990 O   0  0  0  0  0  0  0  0  0  0  0  0
   -3.3760   24.4140  -27.4860 C   0  0  1  0  0  0  0  0  0  0  0  0
   -4.6080   24.9070  -26.8640 N   0  0  0  0  0  0  0  0  0  0  0  0
   -2.2070   24.5180  -26.4890 C   0  0  0  0  0  0  0  0  0  0  0  0
   -1.1000   25.4580  -26.9880 C   0  0  0  0  0  0  0  0  0  0  0  0
   -0.8110   25.2070  -28.4330 C   0  0  0  0  0  0  0  0  0  0  0  0
   -1.5770   25.6650  -29.3210 O   0  0  0  0  0  0  0  0  0  0  0  0
    0.2790   24.4270  -28.8000 O   0  0  0  0  0  0  0  0  0  0  0  0
   -6.2230   21.8000  -31.4660 C   0  0  0  0  0  0  0  0  0  0  0  0
   -6.0600   20.4910  -31.9350 C   0  0  0  0  0  0  0  0  0  0  0  0
   -7.0069   17.6786  -32.0576 H   0  0  0  0  0  0  0  0  0  0  0  0
   -7.9543   18.1510  -33.5088 H   0  0  0  0  0  0  0  0  0  0  0  0
   -6.1662   18.3219  -33.5088 H   0  0  0  0  0  0  0  0  0  0  0  0
   -9.3658   19.8654  -32.6669 H   0  0  0  0  0  0  0  0  0  0  0  0
   -9.5892   22.2335  -31.8422 H   0  0  0  0  0  0  0  0  0  0  0  0
   -8.0733   24.4481  -30.8524 H   0  0  0  0  0  0  0  0  0  0  0  0
   -3.2350   25.2850  -30.5990 H   0  0  0  0  0  0  0  0  0  0  0  0
   -3.1039   20.4286  -28.5824 H   0  0  0  0  0  0  0  0  0  0  0  0
   -1.6083   20.7336  -29.5280 H   0  0  0  0  0  0  0  0  0  0  0  0
   -3.1482   25.0419  -28.3600 H   0  0  0  0  0  0  0  0  0  0  0  0
   -5.4260   24.3580  -27.2180 H   0  0  0  0  0  0  0  0  0  0  0  0
   -4.7510   25.9050  -27.1440 H   0  0  0  0  0  0  0  0  0  0  0  0
   -2.5910   24.9000  -25.5316 H   0  0  0  0  0  0  0  0  0  0  0  0
   -1.7712   23.5146  -26.3742 H   0  0  0  0  0  0  0  0  0  0  0  0
   -1.4258   26.5008  -26.8600 H   0  0  0  0  0  0  0  0  0  0  0  0
   -0.1859   25.2716  -26.4051 H   0  0  0  0  0  0  0  0  0  0  0  0
   -5.0639   20.0263  -31.9768 H   0  0  0  0  0  0  0  0  0  0  0  0
  1  2  1  0
  2  3  2  0
  3  4  1  0
  4  5  2  0
  5  6  1  0
  6  7  2  0
  7  8  1  0
  8  9  1  0
  8 10  2  0
  7 11  1  0
 11 12  1  0
 12 13  2  0
 12 14  1  0
 14 15  1  0
 15 16  1  0
 16 17  1  0
 17 18  2  0
 17 19  1  0
 19 20  1  0
 19 21  1  0
 21 22  1  0
 22 23  1  0
 23 24  2  0
 23 25  1  0
 11 26  1  0
 26 27  2  0
 27  2  1  0
 26  5  1  0
  1 28  1  0
  1 29  1  0
  1 30  1  0
  3 31  1  0
  4 32  1  0
  6 33  1  0
  9 34  1  0
 15 35  1  0
 15 36  1  0
 19 37  1  6
 20 38  1  0
 20 39  1  0
 21 40  1  0
 21 41  1  0
 22 42  1  0
 22 43  1  0
 27 44  1  0
M  CHG  2   9  -1  25  -1
M  END
>  <UniqueID>  (27) 
27

>  <SMILES>  (27) 
Cc1ccc2cc(C([NH-])=O)n(C(=O)OCOC(=O)[C@@H](N)CCC(=O)[O-])c2c1

>  <Energy>  (27) 
72.94524400782632

>  <Genealogy>  (27) 
Cc1ccc2cc(C([NH-])=O)n(C(=O)OCOC(=O)[C@@H](N)CCC(=O)[O-])c2c1 (protonated)
Cc1ccc2cc(C([NH-])=O)n(C(=O)OCOC(=O)[C@@H](N)CCC(=O)[O-])c2c1 (3D coordinates assigned)
Cc1ccc2cc(C([NH-])=O)n(C(=O)OCOC(=O)[C@@H](N)CCC(=O)[O-])c2c1 (optimized conformer: 72.94524400782632 kcal/mol)

>  <smiles>  (27) 
Cc1ccc2cc(C(N)=O)n(C(=O)OCOC(=O)[C@@H](N)CCC(=O)O)c2c1

>  <score_type>  (27) 
oracle

>  <origin>  (27) 
adg

>  <m_score__min__energy>  (27) 
-12.220000000000001

>  <m_primary>  (27) 
energy

$$$$
28:0
     RDKit          3D

 49 50  0  0  0  0  0  0  0  0999 V2000
   -7.2190   18.5640  -33.0690 C   0  0  0  0  0  0  0  0  0  0  0  0
   -7.3160   19.9230  -32.4380 C   0  0  0  0  0  0  0  0  0  0  0  0
   -8.5760   20.4340  -32.0430 C   0  0  0  0  0  0  0  0  0  0  0  0
   -8.6810   21.7140  -31.4710 C   0  0  0  0  0  0  0  0  0  0  0  0
   -7.5160   22.4630  -31.3300 C   0  0  0  0  0  0  0  0  0  0  0  0
   -7.3280   23.7140  -30.7880 C   0  0  0  0  0  0  0  0  0  0  0  0
   -5.9610   23.9640  -30.8990 C   0  0  0  0  0  0  0  0  0  0  0  0
   -5.3340   25.2430  -30.5040 C   0  0  0  0  0  0  0  0  0  0  0  0
   -4.0380   25.6000  -30.9770 N   0  0  0  0  0  0  0  0  0  0  0  0
   -5.9700   26.0500  -29.7750 O   0  0  0  0  0  0  0  0  0  0  0  0
   -5.3290   22.9060  -31.4800 N   0  0  0  0  0  0  0  0  0  0  0  0
   -3.9200   22.7320  -31.7030 C   0  0  0  0  0  0  0  0  0  0  0  0
   -3.5100   22.2570  -32.7980 O   0  0  0  0  0  0  0  0  0  0  0  0
   -3.0100   23.1110  -30.7120 O   0  0  0  0  0  0  0  0  0  0  0  0
   -3.2970   23.0260  -29.3220 C   0  0  0  0  0  0  0  0  0  0  0  0
   -3.0680   21.6960  -28.8670 O   0  0  0  0  0  0  0  0  0  0  0  0
   -2.3990   21.4120  -27.6740 C   0  0  0  0  0  0  0  0  0  0  0  0
   -2.3700   22.2600  -26.7400 O   0  0  0  0  0  0  0  0  0  0  0  0
   -1.6710   20.1070  -27.5410 C   0  0  0  0  0  0  0  0  0  0  0  0
   -0.4020   20.1260  -28.2810 N   0  0  0  0  0  0  0  0  0  0  0  0
   -0.1520   19.1400  -29.3360 C   0  0  0  0  0  0  0  0  0  0  0  0
    0.6230   21.0770  -27.9350 C   0  0  0  0  0  0  0  0  0  0  0  0
    1.8380   20.7380  -27.9720 O   0  0  0  0  0  0  0  0  0  0  0  0
    0.2680   22.3760  -27.5500 O   0  0  0  0  0  0  0  0  0  0  0  0
    0.0500   23.4240  -28.4860 C   0  0  0  0  0  0  0  0  0  0  0  0
    0.5300   24.6260  -27.9330 O   0  0  0  0  0  0  0  0  0  0  0  0
   -0.7540   25.7480  -27.8840 P   0  0  0  0  0  0  0  0  0  0  0  0
   -1.6950   25.4060  -26.7500 O   0  0  0  0  0  0  0  0  0  0  0  0
   -0.1620   27.3200  -27.6730 O   0  0  0  0  0  0  0  0  0  0  0  0
   -1.6050   25.6720  -29.3440 O   0  0  0  0  0  0  0  0  0  0  0  0
   -6.2940   21.9960  -31.7410 C   0  0  0  0  0  0  0  0  0  0  0  0
   -6.1570   20.7170  -32.2930 C   0  0  0  0  0  0  0  0  0  0  0  0
   -7.1643   17.7974  -32.2820 H   0  0  0  0  0  0  0  0  0  0  0  0
   -8.1067   18.3855  -33.6936 H   0  0  0  0  0  0  0  0  0  0  0  0
   -6.3150   18.5134  -33.6936 H   0  0  0  0  0  0  0  0  0  0  0  0
   -9.4805   19.8243  -32.1849 H   0  0  0  0  0  0  0  0  0  0  0  0
   -9.6535   22.1114  -31.1450 H   0  0  0  0  0  0  0  0  0  0  0  0
   -8.0940   24.3763  -30.3583 H   0  0  0  0  0  0  0  0  0  0  0  0
   -3.1770   25.2670  -30.4890 H   0  0  0  0  0  0  0  0  0  0  0  0
   -2.6446   23.7190  -28.7705 H   0  0  0  0  0  0  0  0  0  0  0  0
   -4.3496   23.2948  -29.1494 H   0  0  0  0  0  0  0  0  0  0  0  0
   -1.4628   19.9196  -26.4773 H   0  0  0  0  0  0  0  0  0  0  0  0
   -2.3051   19.3114  -27.9594 H   0  0  0  0  0  0  0  0  0  0  0  0
    0.0940   18.1696  -28.8801 H   0  0  0  0  0  0  0  0  0  0  0  0
   -1.0518   19.0344  -29.9599 H   0  0  0  0  0  0  0  0  0  0  0  0
    0.6894   19.4759  -29.9599 H   0  0  0  0  0  0  0  0  0  0  0  0
    0.5881   23.2047  -29.4200 H   0  0  0  0  0  0  0  0  0  0  0  0
   -1.0239   23.5139  -28.7066 H   0  0  0  0  0  0  0  0  0  0  0  0
   -5.1721   20.3400  -32.6058 H   0  0  0  0  0  0  0  0  0  0  0  0
  1  2  1  0
  2  3  2  0
  3  4  1  0
  4  5  2  0
  5  6  1  0
  6  7  2  0
  7  8  1  0
  8  9  1  0
  8 10  2  0
  7 11  1  0
 11 12  1  0
 12 13  2  0
 12 14  1  0
 14 15  1  0
 15 16  1  0
 16 17  1  0
 17 18  2  0
 17 19  1  0
 19 20  1  0
 20 21  1  0
 20 22  1  0
 22 23  2  0
 22 24  1  0
 24 25  1  0
 25 26  1  0
 26 27  1  0
 27 28  2  0
 27 29  1  0
 27 30  1  0
 11 31  1  0
 31 32  2  0
 32  2  1  0
 31  5  1  0
  1 33  1  0
  1 34  1  0
  1 35  1  0
  3 36  1  0
  4 37  1  0
  6 38  1  0
  9 39  1  0
 15 40  1  0
 15 41  1  0
 19 42  1  0
 19 43  1  0
 21 44  1  0
 21 45  1  0
 21 46  1  0
 25 47  1  0
 25 48  1  0
 32 49  1  0
M  CHG  3   9  -1  29  -1  30  -1
M  END
>  <UniqueID>  (28) 
28

>  <SMILES>  (28) 
Cc1ccc2cc(C([NH-])=O)n(C(=O)OCOC(=O)CN(C)C(=O)OCOP(=O)([O-])[O-])c2c1

>  <Energy>  (28) 
78.05539253669072

>  <Genealogy>  (28) 
Cc1ccc2cc(C([NH-])=O)n(C(=O)OCOC(=O)CN(C)C(=O)OCOP(=O)([O-])[O-])c2c1 (protonated)
Cc1ccc2cc(C([NH-])=O)n(C(=O)OCOC(=O)CN(C)C(=O)OCOP(=O)([O-])[O-])c2c1 (3D coordinates assigned)
Cc1ccc2cc(C([NH-])=O)n(C(=O)OCOC(=O)CN(C)C(=O)OCOP(=O)([O-])[O-])c2c1 (optimized conformer: 78.05539253669072 kcal/mol)

>  <smiles>  (28) 
Cc1ccc2cc(C(N)=O)n(C(=O)OCOC(=O)CN(C)C(=O)OCOP(=O)(O)O)c2c1

>  <score_type>  (28) 
oracle

>  <origin>  (28) 
adg

>  <m_score__min__energy>  (28) 
-12.98

>  <m_primary>  (28) 
energy

$$$$
29:0
     RDKit          3D

 47 48  0  0  0  0  0  0  0  0999 V2000
   -7.6600   18.6430  -32.3910 C   0  0  0  0  0  0  0  0  0  0  0  0
   -7.6070   20.0920  -32.0080 C   0  0  0  0  0  0  0  0  0  0  0  0
   -8.8010   20.8520  -31.9410 C   0  0  0  0  0  0  0  0  0  0  0  0
   -8.7610   22.2210  -31.6320 C   0  0  0  0  0  0  0  0  0  0  0  0
   -7.5170   22.8020  -31.3990 C   0  0  0  0  0  0  0  0  0  0  0  0
   -7.1890   24.1060  -31.1110 C   0  0  0  0  0  0  0  0  0  0  0  0
   -5.8020   24.1220  -30.9950 C   0  0  0  0  0  0  0  0  0  0  0  0
   -5.0340   25.3220  -30.6030 C   0  0  0  0  0  0  0  0  0  0  0  0
   -3.6130   25.2870  -30.5100 N   0  0  0  0  0  0  0  0  0  0  0  0
   -5.6460   26.3810  -30.2980 O   0  0  0  0  0  0  0  0  0  0  0  0
   -5.2890   22.8780  -31.2150 N   0  0  0  0  0  0  0  0  0  0  0  0
   -3.9060   22.4890  -31.2670 C   0  0  0  0  0  0  0  0  0  0  0  0
   -3.2760   22.5650  -32.3560 O   0  0  0  0  0  0  0  0  0  0  0  0
   -3.2840   22.0000  -30.1100 O   0  0  0  0  0  0  0  0  0  0  0  0
   -2.0990   22.5030  -29.5580 C   0  0  0  0  0  0  0  0  0  0  0  0
   -1.4820   23.4610  -30.0990 O   0  0  0  0  0  0  0  0  0  0  0  0
   -1.5710   21.9080  -28.3290 C   0  0  0  0  0  0  0  0  0  0  0  0
   -1.5570   20.6530  -28.1990 O   0  0  0  0  0  0  0  0  0  0  0  0
   -1.0780   22.7370  -27.3150 O   0  0  0  0  0  0  0  0  0  0  0  0
    0.2600   22.6680  -26.8240 C   0  0  0  0  0  0  0  0  0  0  0  0
    1.1370   23.7490  -27.4630 C   0  0  0  0  0  0  0  0  0  0  0  0
    0.3860   24.5040  -28.4630 N   0  0  0  0  0  0  0  0  0  0  0  0
   -0.6300   25.4560  -28.1390 C   0  0  0  0  0  0  0  0  0  0  0  0
   -1.2640   26.0480  -29.0570 O   0  0  0  0  0  0  0  0  0  0  0  0
   -0.9000   25.7310  -26.7940 O   0  0  0  0  0  0  0  0  0  0  0  0
   -1.8790   25.0330  -26.0260 C   0  0  0  0  0  0  0  0  0  0  0  0
   -3.2470   25.0950  -26.7010 C   0  0  0  0  0  0  0  0  0  0  0  0
   -3.2230   24.3880  -27.9110 O   0  0  0  0  0  0  0  0  0  0  0  0
   -6.3520   22.0800  -31.4560 C   0  0  0  0  0  0  0  0  0  0  0  0
   -6.3620   20.7180  -31.7830 C   0  0  0  0  0  0  0  0  0  0  0  0
   -7.6826   18.0241  -31.4819 H   0  0  0  0  0  0  0  0  0  0  0  0
   -8.5657   18.4539  -32.9860 H   0  0  0  0  0  0  0  0  0  0  0  0
   -6.7706   18.3882  -32.9860 H   0  0  0  0  0  0  0  0  0  0  0  0
   -9.7684   20.3648  -32.1329 H   0  0  0  0  0  0  0  0  0  0  0  0
   -9.6841   22.8165  -31.5757 H   0  0  0  0  0  0  0  0  0  0  0  0
   -7.8771   24.9565  -30.9965 H   0  0  0  0  0  0  0  0  0  0  0  0
   -3.1230   24.4810  -30.0630 H   0  0  0  0  0  0  0  0  0  0  0  0
    0.2505   22.8110  -25.7334 H   0  0  0  0  0  0  0  0  0  0  0  0
    0.6765   21.6827  -27.0805 H   0  0  0  0  0  0  0  0  0  0  0  0
    1.4880   24.4376  -26.6803 H   0  0  0  0  0  0  0  0  0  0  0  0
    1.9910   23.2628  -27.9572 H   0  0  0  0  0  0  0  0  0  0  0  0
   -1.5745   23.9808  -25.9252 H   0  0  0  0  0  0  0  0  0  0  0  0
   -1.9535   25.5080  -25.0366 H   0  0  0  0  0  0  0  0  0  0  0  0
   -4.0011   24.6499  -26.0352 H   0  0  0  0  0  0  0  0  0  0  0  0
   -3.4990   26.1462  -26.9048 H   0  0  0  0  0  0  0  0  0  0  0  0
   -2.2690   24.3410  -28.1830 H   0  0  0  0  0  0  0  0  0  0  0  0
   -5.4231   20.1504  -31.8625 H   0  0  0  0  0  0  0  0  0  0  0  0
  1  2  1  0
  2  3  2  0
  3  4  1  0
  4  5  2  0
  5  6  1  0
  6  7  2  0
  7  8  1  0
  8  9  1  0
  8 10  2  0
  7 11  1  0
 11 12  1  0
 12 13  2  0
 12 14  1  0
 14 15  1  0
 15 16  2  0
 15 17  1  0
 17 18  2  0
 17 19  1  0
 19 20  1  0
 20 21  1  0
 21 22  1  0
 22 23  1  0
 23 24  2  0
 23 25  1  0
 25 26  1  0
 26 27  1  0
 27 28  1  0
 11 29  1  0
 29 30  2  0
 30  2  1  0
 29  5  1  0
  1 31  1  0
  1 32  1  0
  1 33  1  0
  3 34  1  0
  4 35  1  0
  6 36  1  0
  9 37  1  0
 20 38  1  0
 20 39  1  0
 21 40  1  0
 21 41  1  0
 26 42  1  0
 26 43  1  0
 27 44  1  0
 27 45  1  0
 28 46  1  0
 30 47  1  0
M  CHG  2   9  -1  22  -1
M  END
>  <UniqueID>  (29) 
29

>  <SMILES>  (29) 
Cc1ccc2cc(C([NH-])=O)n(C(=O)OC(=O)C(=O)OCC[N-]C(=O)OCCO)c2c1

>  <Energy>  (29) 
76.4325592622329

>  <Genealogy>  (29) 
Cc1ccc2cc(C([NH-])=O)n(C(=O)OC(=O)C(=O)OCC[N-]C(=O)OCCO)c2c1 (protonated)
Cc1ccc2cc(C([NH-])=O)n(C(=O)OC(=O)C(=O)OCC[N-]C(=O)OCCO)c2c1 (3D coordinates assigned)
Cc1ccc2cc(C([NH-])=O)n(C(=O)OC(=O)C(=O)OCC[N-]C(=O)OCCO)c2c1 (optimized conformer: 76.4325592622329 kcal/mol)

>  <smiles>  (29) 
Cc1ccc2cc(C(N)=O)n(C(=O)OC(=O)C(=O)OCCNC(=O)OCCO)c2c1

>  <score_type>  (29) 
oracle

>  <origin>  (29) 
adg

>  <m_score__min__energy>  (29) 
-10.050000000000001

>  <m_primary>  (29) 
energy

$$$$
30:0
     RDKit          3D

 42 43  0  0  0  0  0  0  0  0999 V2000
   -7.4060   18.4210  -32.6860 C   0  0  0  0  0  0  0  0  0  0  0  0
   -7.4560   19.8440  -32.2170 C   0  0  0  0  0  0  0  0  0  0  0  0
   -8.7040   20.4970  -32.0700 C   0  0  0  0  0  0  0  0  0  0  0  0
   -8.7680   21.8380  -31.6500 C   0  0  0  0  0  0  0  0  0  0  0  0
   -7.5660   22.5020  -31.4100 C   0  0  0  0  0  0  0  0  0  0  0  0
   -7.3340   23.7900  -30.9850 C   0  0  0  0  0  0  0  0  0  0  0  0
   -5.9480   23.9140  -30.9180 C   0  0  0  0  0  0  0  0  0  0  0  0
   -5.2550   25.1630  -30.5400 C   0  0  0  0  0  0  0  0  0  0  0  0
   -3.8630   25.3370  -30.7960 N   0  0  0  0  0  0  0  0  0  0  0  0
   -5.9050   26.1020  -30.0090 O   0  0  0  0  0  0  0  0  0  0  0  0
   -5.3470   22.7470  -31.2930 N   0  0  0  0  0  0  0  0  0  0  0  0
   -3.9460   22.4280  -31.2570 C   0  0  0  0  0  0  0  0  0  0  0  0
   -3.2310   22.6750  -32.2650 O   0  0  0  0  0  0  0  0  0  0  0  0
   -3.3570   21.8320  -30.0810 N   0  0  0  0  0  0  0  0  0  0  0  0
   -2.7680   20.4890  -30.1440 C   0  0  0  0  0  0  0  0  0  0  0  0
   -3.4500   22.5040  -28.7770 C   0  0  0  0  0  0  0  0  0  0  0  0
   -2.4990   23.6750  -28.7190 C   0  0  0  0  0  0  0  0  0  0  0  0
   -1.6580   23.7970  -29.6510 O   0  0  0  0  0  0  0  0  0  0  0  0
   -2.5400   24.6630  -27.6630 N   0  0  0  0  0  0  0  0  0  0  0  0
   -3.6080   24.6650  -26.6600 C   0  0  0  0  0  0  0  0  0  0  0  0
   -1.4870   25.6840  -27.6110 C   0  0  0  0  0  0  0  0  0  0  0  0
   -6.3490   21.8910  -31.5820 C   0  0  0  0  0  0  0  0  0  0  0  0
   -6.2580   20.5520  -31.9720 C   0  0  0  0  0  0  0  0  0  0  0  0
   -7.3824   17.7487  -31.8157 H   0  0  0  0  0  0  0  0  0  0  0  0
   -8.2971   18.2035  -33.2932 H   0  0  0  0  0  0  0  0  0  0  0  0
   -6.5019   18.2666  -33.2932 H   0  0  0  0  0  0  0  0  0  0  0  0
   -9.6333   19.9497  -32.2866 H   0  0  0  0  0  0  0  0  0  0  0  0
   -9.7344   22.3458  -31.5154 H   0  0  0  0  0  0  0  0  0  0  0  0
   -8.0841   24.5590  -30.7483 H   0  0  0  0  0  0  0  0  0  0  0  0
   -3.2520   24.5130  -30.9970 H   0  0  0  0  0  0  0  0  0  0  0  0
   -2.6030   20.1128  -29.1236 H   0  0  0  0  0  0  0  0  0  0  0  0
   -3.4523   19.8132  -30.6778 H   0  0  0  0  0  0  0  0  0  0  0  0
   -1.8073   20.5346  -30.6778 H   0  0  0  0  0  0  0  0  0  0  0  0
   -4.4784   22.8646  -28.6277 H   0  0  0  0  0  0  0  0  0  0  0  0
   -3.1820   21.7874  -27.9866 H   0  0  0  0  0  0  0  0  0  0  0  0
   -3.1653   24.6642  -25.6530 H   0  0  0  0  0  0  0  0  0  0  0  0
   -4.2286   25.5643  -26.7870 H   0  0  0  0  0  0  0  0  0  0  0  0
   -4.2319   23.7680  -26.7870 H   0  0  0  0  0  0  0  0  0  0  0  0
   -1.2503   25.9135  -26.5616 H   0  0  0  0  0  0  0  0  0  0  0  0
   -0.5855   25.3071  -28.1162 H   0  0  0  0  0  0  0  0  0  0  0  0
   -1.8359   26.5967  -28.1162 H   0  0  0  0  0  0  0  0  0  0  0  0
   -5.2796   20.0622  -32.0852 H   0  0  0  0  0  0  0  0  0  0  0  0
  1  2  1  0
  2  3  2  0
  3  4  1  0
  4  5  2  0
  5  6  1  0
  6  7  2  0
  7  8  1  0
  8  9  1  0
  8 10  2  0
  7 11  1  0
 11 12  1  0
 12 13  2  0
 12 14  1  0
 14 15  1  0
 14 16  1  0
 16 17  1  0
 17 18  2  0
 17 19  1  0
 19 20  1  0
 19 21  1  0
 11 22  1  0
 22 23  2  0
 23  2  1  0
 22  5  1  0
  1 24  1  0
  1 25  1  0
  1 26  1  0
  3 27  1  0
  4 28  1  0
  6 29  1  0
  9 30  1  0
 15 31  1  0
 15 32  1  0
 15 33  1  0
 16 34  1  0
 16 35  1  0
 20 36  1  0
 20 37  1  0
 20 38  1  0
 21 39  1  0
 21 40  1  0
 21 41  1  0
 23 42  1  0
M  CHG  1   9  -1
M  END
>  <UniqueID>  (30) 
30

>  <SMILES>  (30) 
Cc1ccc2cc(C([NH-])=O)n(C(=O)N(C)CC(=O)N(C)C)c2c1

>  <Energy>  (30) 
74.96078984772709

>  <Genealogy>  (30) 
Cc1ccc2cc(C([NH-])=O)n(C(=O)N(C)CC(=O)N(C)C)c2c1 (protonated)
Cc1ccc2cc(C([NH-])=O)n(C(=O)N(C)CC(=O)N(C)C)c2c1 (3D coordinates assigned)
Cc1ccc2cc(C([NH-])=O)n(C(=O)N(C)CC(=O)N(C)C)c2c1 (optimized conformer: 74.96078984772709 kcal/mol)

>  <smiles>  (30) 
Cc1ccc2cc(C(N)=O)n(C(=O)N(C)CC(=O)N(C)C)c2c1

>  <score_type>  (30) 
oracle

>  <origin>  (30) 
adg

>  <m_score__min__energy>  (30) 
-10.44

>  <m_primary>  (30) 
energy

$$$$
31:0
     RDKit          3D

 38 39  0  0  0  0  0  0  0  0999 V2000
   -3.6300   25.2920  -30.4900 N   0  0  0  0  0  0  0  0  0  0  0  0
   -5.0520   25.2970  -30.5890 C   0  0  0  0  0  0  0  0  0  0  0  0
   -5.6770   26.3820  -30.4470 O   0  0  0  0  0  0  0  0  0  0  0  0
   -5.7970   24.0560  -30.8930 C   0  0  0  0  0  0  0  0  0  0  0  0
   -7.1760   24.0150  -31.1020 C   0  0  0  0  0  0  0  0  0  0  0  0
   -7.4560   22.7080  -31.4310 C   0  0  0  0  0  0  0  0  0  0  0  0
   -8.6700   22.0970  -31.7260 C   0  0  0  0  0  0  0  0  0  0  0  0
   -8.6640   20.7200  -32.0050 C   0  0  0  0  0  0  0  0  0  0  0  0
   -7.4500   19.9830  -32.0000 C   0  0  0  0  0  0  0  0  0  0  0  0
   -7.4660   18.4950  -32.2450 C   0  0  0  0  0  0  0  0  0  0  0  0
   -7.0170   18.2050  -33.5210 F   0  0  0  0  0  0  0  0  0  0  0  0
   -8.7580   18.0240  -32.1030 F   0  0  0  0  0  0  0  0  0  0  0  0
   -6.6470   17.8430  -31.3390 F   0  0  0  0  0  0  0  0  0  0  0  0
   -6.2400   20.6370  -31.6730 C   0  0  0  0  0  0  0  0  0  0  0  0
   -6.2770   22.0100  -31.4090 C   0  0  0  0  0  0  0  0  0  0  0  0
   -5.2530   22.8210  -31.0740 N   0  0  0  0  0  0  0  0  0  0  0  0
   -3.8870   22.4180  -30.8940 C   0  0  0  0  0  0  0  0  0  0  0  0
   -3.1640   22.2040  -31.9030 O   0  0  0  0  0  0  0  0  0  0  0  0
   -3.3370   22.1980  -29.5500 C   0  0  0  0  0  0  0  0  0  0  0  0
   -3.2770   21.0310  -29.0760 O   0  0  0  0  0  0  0  0  0  0  0  0
   -2.8740   23.2910  -28.8090 O   0  0  0  0  0  0  0  0  0  0  0  0
   -3.5510   23.8100  -27.6650 C   0  0  0  0  0  0  0  0  0  0  0  0
   -2.6930   24.8470  -26.9270 C   0  0  0  0  0  0  0  0  0  0  0  0
   -1.3550   25.1460  -27.6280 C   0  0  0  0  0  0  0  0  0  0  0  0
   -1.5360   25.7150  -28.9630 N   0  0  0  0  0  0  0  0  0  0  0  0
   -3.1560   25.3170  -29.5600 H   0  0  0  0  0  0  0  0  0  0  0  0
   -7.8880   24.8496  -31.0211 H   0  0  0  0  0  0  0  0  0  0  0  0
   -9.6063   22.6742  -31.7405 H   0  0  0  0  0  0  0  0  0  0  0  0
   -9.6106   20.2068  -32.2299 H   0  0  0  0  0  0  0  0  0  0  0  0
   -5.2927   20.0797  -31.6273 H   0  0  0  0  0  0  0  0  0  0  0  0
   -4.4877   24.2867  -27.9895 H   0  0  0  0  0  0  0  0  0  0  0  0
   -3.7543   22.9767  -26.9763 H   0  0  0  0  0  0  0  0  0  0  0  0
   -3.2649   25.7838  -26.8537 H   0  0  0  0  0  0  0  0  0  0  0  0
   -2.4544   24.4263  -25.9390 H   0  0  0  0  0  0  0  0  0  0  0  0
   -0.7873   25.8607  -27.0141 H   0  0  0  0  0  0  0  0  0  0  0  0
   -0.8173   24.1931  -27.7414 H   0  0  0  0  0  0  0  0  0  0  0  0
   -2.3780   26.3360  -28.9660 H   0  0  0  0  0  0  0  0  0  0  0  0
   -1.6980   24.9420  -29.6470 H   0  0  0  0  0  0  0  0  0  0  0  0
  1  2  1  0
  2  3  2  0
  2  4  1  0
  4  5  2  0
  5  6  1  0
  6  7  2  0
  7  8  1  0
  8  9  2  0
  9 10  1  0
 10 11  1  0
 10 12  1  0
 10 13  1  0
  9 14  1  0
 14 15  2  0
 15 16  1  0
 16 17  1  0
 17 18  2  0
 17 19  1  0
 19 20  2  0
 19 21  1  0
 21 22  1  0
 22 23  1  0
 23 24  1  0
 24 25  1  0
 16  4  1  0
 15  6  1  0
  1 26  1  0
  5 27  1  0
  7 28  1  0
  8 29  1  0
 14 30  1  0
 22 31  1  0
 22 32  1  0
 23 33  1  0
 23 34  1  0
 24 35  1  0
 24 36  1  0
 25 37  1  0
 25 38  1  0
M  CHG  1   1  -1
M  END
>  <UniqueID>  (31) 
31

>  <SMILES>  (31) 
[NH-]C(=O)c1cc2ccc(C(F)(F)F)cc2n1C(=O)C(=O)OCCCN

>  <Energy>  (31) 
72.91082585043198

>  <Genealogy>  (31) 
[NH-]C(=O)c1cc2ccc(C(F)(F)F)cc2n1C(=O)C(=O)OCCCN (protonated)
[NH-]C(=O)c1cc2ccc(C(F)(F)F)cc2n1C(=O)C(=O)OCCCN (3D coordinates assigned)
[NH-]C(=O)c1cc2ccc(C(F)(F)F)cc2n1C(=O)C(=O)OCCCN (optimized conformer: 72.91082585043198 kcal/mol)

>  <smiles>  (31) 
NCCCOC(=O)C(=O)n1c(C(N)=O)cc2ccc(C(F)(F)F)cc21

>  <score_type>  (31) 
oracle

>  <origin>  (31) 
adg

>  <m_score__min__energy>  (31) 
-9.6199999999999992

>  <m_primary>  (31) 
energy

$$$$
32:0
     RDKit          3D

 40 41  0  0  0  0  0  0  0  0999 V2000
   -1.5000   21.8180  -27.7260 C   0  0  0  0  0  0  0  0  0  0  0  0
   -2.1740   23.0930  -28.0340 N   0  0  0  0  0  0  0  0  0  0  0  0
   -3.6240   22.8670  -28.2260 C   0  0  0  0  0  0  0  0  0  0  0  0
   -3.8600   21.6910  -29.1860 C   0  0  0  0  0  0  0  0  0  0  0  0
   -4.2300   22.1680  -30.5630 C   0  0  0  0  0  0  0  0  0  0  0  0
   -3.3460   22.2280  -31.4600 O   0  0  0  0  0  0  0  0  0  0  0  0
   -5.5620   22.6290  -30.8460 N   0  0  0  0  0  0  0  0  0  0  0  0
   -6.0020   23.9190  -30.8730 C   0  0  0  0  0  0  0  0  0  0  0  0
   -5.2230   25.1100  -30.4700 C   0  0  0  0  0  0  0  0  0  0  0  0
   -3.8570   25.2590  -30.8480 N   0  0  0  0  0  0  0  0  0  0  0  0
   -5.7630   25.9930  -29.7520 O   0  0  0  0  0  0  0  0  0  0  0  0
   -7.3280   23.9730  -31.2980 C   0  0  0  0  0  0  0  0  0  0  0  0
   -7.6910   22.6670  -31.5270 C   0  0  0  0  0  0  0  0  0  0  0  0
   -8.8890   22.1430  -31.9990 C   0  0  0  0  0  0  0  0  0  0  0  0
   -8.9730   20.7520  -32.1840 C   0  0  0  0  0  0  0  0  0  0  0  0
   -7.8680   19.9130  -31.8910 C   0  0  0  0  0  0  0  0  0  0  0  0
   -7.9450   18.4290  -32.1500 C   0  0  0  0  0  0  0  0  0  0  0  0
   -7.1220   17.7360  -31.2800 F   0  0  0  0  0  0  0  0  0  0  0  0
   -9.2500   18.0050  -31.9770 F   0  0  0  0  0  0  0  0  0  0  0  0
   -7.5470   18.1450  -33.4450 F   0  0  0  0  0  0  0  0  0  0  0  0
   -6.6580   20.4900  -31.4430 C   0  0  0  0  0  0  0  0  0  0  0  0
   -6.6070   21.8750  -31.2490 C   0  0  0  0  0  0  0  0  0  0  0  0
   -1.5700   23.7160  -29.2320 C   0  0  0  0  0  0  0  0  0  0  0  0
   -0.8550   24.9770  -28.8570 C   0  0  0  0  0  0  0  0  0  0  0  0
   -1.2430   26.0850  -29.3120 O   0  0  0  0  0  0  0  0  0  0  0  0
    0.2310   24.9290  -27.9930 O   0  0  0  0  0  0  0  0  0  0  0  0
   -1.4336   21.6925  -26.6352 H   0  0  0  0  0  0  0  0  0  0  0  0
   -2.0758   20.9855  -28.1565 H   0  0  0  0  0  0  0  0  0  0  0  0
   -0.4878   21.8250  -28.1565 H   0  0  0  0  0  0  0  0  0  0  0  0
   -4.0873   22.6404  -27.2544 H   0  0  0  0  0  0  0  0  0  0  0  0
   -4.0728   23.7745  -28.6562 H   0  0  0  0  0  0  0  0  0  0  0  0
   -2.9394   21.0924  -29.2507 H   0  0  0  0  0  0  0  0  0  0  0  0
   -4.6929   21.0884  -28.7946 H   0  0  0  0  0  0  0  0  0  0  0  0
   -3.1020   25.2960  -30.1300 H   0  0  0  0  0  0  0  0  0  0  0  0
   -7.9519   24.8702  -31.4236 H   0  0  0  0  0  0  0  0  0  0  0  0
   -9.7452   22.7970  -32.2210 H   0  0  0  0  0  0  0  0  0  0  0  0
   -9.9069   20.3092  -32.5605 H   0  0  0  0  0  0  0  0  0  0  0  0
   -5.7746   19.8633  -31.2508 H   0  0  0  0  0  0  0  0  0  0  0  0
   -0.8543   23.0138  -29.6845 H   0  0  0  0  0  0  0  0  0  0  0  0
   -2.3672   23.9567  -29.9507 H   0  0  0  0  0  0  0  0  0  0  0  0
  1  2  1  0
  2  3  1  0
  3  4  1  0
  4  5  1  0
  5  6  2  0
  5  7  1  0
  7  8  1  0
  8  9  1  0
  9 10  1  0
  9 11  2  0
  8 12  2  0
 12 13  1  0
 13 14  2  0
 14 15  1  0
 15 16  2  0
 16 17  1  0
 17 18  1  0
 17 19  1  0
 17 20  1  0
 16 21  1  0
 21 22  2  0
  2 23  1  0
 23 24  1  0
 24 25  2  0
 24 26  1  0
 22  7  1  0
 22 13  1  0
  1 27  1  0
  1 28  1  0
  1 29  1  0
  3 30  1  0
  3 31  1  0
  4 32  1  0
  4 33  1  0
 10 34  1  0
 12 35  1  0
 14 36  1  0
 15 37  1  0
 21 38  1  0
 23 39  1  0
 23 40  1  0
M  CHG  2  10  -1  26  -1
M  END
>  <UniqueID>  (32) 
32

>  <SMILES>  (32) 
CN(CCC(=O)n1c(C([NH-])=O)cc2ccc(C(F)(F)F)cc21)CC(=O)[O-]

>  <Energy>  (32) 
79.43436459006865

>  <Genealogy>  (32) 
CN(CCC(=O)n1c(C([NH-])=O)cc2ccc(C(F)(F)F)cc21)CC(=O)[O-] (protonated)
CN(CCC(=O)n1c(C([NH-])=O)cc2ccc(C(F)(F)F)cc21)CC(=O)[O-] (3D coordinates assigned)
CN(CCC(=O)n1c(C([NH-])=O)cc2ccc(C(F)(F)F)cc21)CC(=O)[O-] (optimized conformer: 79.43436459006865 kcal/mol)

>  <smiles>  (32) 
CN(CCC(=O)n1c(C(N)=O)cc2ccc(C(F)(F)F)cc21)CC(=O)O

>  <score_type>  (32) 
oracle

>  <origin>  (32) 
adg

>  <m_score__min__energy>  (32) 
-12.51

>  <m_primary>  (32) 
energy

$$$$
33:0
     RDKit          3D

 37 38  0  0  0  0  0  0  0  0999 V2000
   -4.2010   25.5540  -30.7120 N   0  0  0  0  0  0  0  0  0  0  0  0
   -5.5520   25.1630  -30.4590 C   0  0  0  0  0  0  0  0  0  0  0  0
   -6.3300   25.9790  -29.8980 O   0  0  0  0  0  0  0  0  0  0  0  0
   -6.0280   23.8080  -30.8170 C   0  0  0  0  0  0  0  0  0  0  0  0
   -7.3520   23.5070  -31.1330 C   0  0  0  0  0  0  0  0  0  0  0  0
   -7.3500   22.1760  -31.4850 C   0  0  0  0  0  0  0  0  0  0  0  0
   -8.4010   21.3510  -31.8740 C   0  0  0  0  0  0  0  0  0  0  0  0
   -8.1140   20.0030  -32.1480 C   0  0  0  0  0  0  0  0  0  0  0  0
   -6.7930   19.5070  -32.0220 C   0  0  0  0  0  0  0  0  0  0  0  0
   -6.4930   18.0610  -32.2960 C   0  0  0  0  0  0  0  0  0  0  0  0
   -6.1430   17.4240  -31.1200 F   0  0  0  0  0  0  0  0  0  0  0  0
   -7.6100   17.4470  -32.8340 F   0  0  0  0  0  0  0  0  0  0  0  0
   -5.7510   20.3740  -31.6250 C   0  0  0  0  0  0  0  0  0  0  0  0
   -6.0630   21.7160  -31.3760 C   0  0  0  0  0  0  0  0  0  0  0  0
   -5.2400   22.7080  -30.9690 N   0  0  0  0  0  0  0  0  0  0  0  0
   -3.8400   22.5880  -30.6720 C   0  0  0  0  0  0  0  0  0  0  0  0
   -2.9850   22.8190  -31.5680 O   0  0  0  0  0  0  0  0  0  0  0  0
   -3.4350   22.1970  -29.3880 O   0  0  0  0  0  0  0  0  0  0  0  0
   -3.3790   23.0820  -28.2700 C   0  0  0  0  0  0  0  0  0  0  0  0
   -2.1540   24.0090  -28.3580 C   0  0  2  0  0  0  0  0  0  0  0  0
   -2.2680   24.8520  -29.4780 O   0  0  0  0  0  0  0  0  0  0  0  0
   -0.8270   23.2310  -28.4000 C   0  0  0  0  0  0  0  0  0  0  0  0
   -0.5800   22.7550  -29.6950 O   0  0  0  0  0  0  0  0  0  0  0  0
   -3.5420   24.9280  -31.2250 H   0  0  0  0  0  0  0  0  0  0  0  0
   -3.8660   26.4980  -30.4210 H   0  0  0  0  0  0  0  0  0  0  0  0
   -8.2152   24.1884  -31.1067 H   0  0  0  0  0  0  0  0  0  0  0  0
   -9.4251   21.7422  -31.9642 H   0  0  0  0  0  0  0  0  0  0  0  0
   -8.9223   19.3268  -32.4632 H   0  0  0  0  0  0  0  0  0  0  0  0
   -5.6581   17.9966  -33.0094 H   0  0  0  0  0  0  0  0  0  0  0  0
   -4.7209   20.0044  -31.5143 H   0  0  0  0  0  0  0  0  0  0  0  0
   -4.2924   23.6946  -28.2506 H   0  0  0  0  0  0  0  0  0  0  0  0
   -3.2970   22.4809  -27.3524 H   0  0  0  0  0  0  0  0  0  0  0  0
   -2.1363   24.6172  -27.4416 H   0  0  0  0  0  0  0  0  0  0  0  0
   -2.0500   24.3100  -30.2820 H   0  0  0  0  0  0  0  0  0  0  0  0
   -0.0064   23.8976  -28.0963 H   0  0  0  0  0  0  0  0  0  0  0  0
   -0.8934   22.3752  -27.7121 H   0  0  0  0  0  0  0  0  0  0  0  0
   -1.4370   22.8190  -30.1930 H   0  0  0  0  0  0  0  0  0  0  0  0
  1  2  1  0
  2  3  2  0
  2  4  1  0
  4  5  2  0
  5  6  1  0
  6  7  2  0
  7  8  1  0
  8  9  2  0
  9 10  1  0
 10 11  1  0
 10 12  1  0
  9 13  1  0
 13 14  2  0
 14 15  1  0
 15 16  1  0
 16 17  2  0
 16 18  1  0
 18 19  1  0
 19 20  1  0
 20 21  1  0
 20 22  1  0
 22 23  1  0
 15  4  1  0
 14  6  1  0
  1 24  1  0
  1 25  1  0
  5 26  1  0
  7 27  1  0
  8 28  1  0
 10 29  1  0
 13 30  1  0
 19 31  1  0
 19 32  1  0
 20 33  1  1
 21 34  1  0
 22 35  1  0
 22 36  1  0
 23 37  1  0
M  END
>  <UniqueID>  (33) 
33

>  <SMILES>  (33) 
NC(=O)c1cc2ccc(C(F)F)cc2n1C(=O)OC[C@H](O)CO

>  <Energy>  (33) 
72.33705907356536

>  <Genealogy>  (33) 
NC(=O)c1cc2ccc(C(F)F)cc2n1C(=O)OC[C@H](O)CO (3D coordinates assigned)
NC(=O)c1cc2ccc(C(F)F)cc2n1C(=O)OC[C@H](O)CO (optimized conformer: 72.33705907356536 kcal/mol)

>  <smiles>  (33) 
NC(=O)c1cc2ccc(C(F)F)cc2n1C(=O)OC[C@H](O)CO

>  <score_type>  (33) 
oracle

>  <origin>  (33) 
adg

>  <m_score__min__energy>  (33) 
-8.1300000000000008

>  <m_primary>  (33) 
energy

$$$$
34:0
     RDKit          3D

 38 39  0  0  0  0  0  0  0  0999 V2000
   -6.7450   18.2820  -32.8970 C   0  0  0  0  0  0  0  0  0  0  0  0
   -6.9890   19.6650  -32.3730 C   0  0  0  0  0  0  0  0  0  0  0  0
   -8.2970   20.2110  -32.3920 C   0  0  0  0  0  0  0  0  0  0  0  0
   -8.5290   21.5260  -31.9540 C   0  0  0  0  0  0  0  0  0  0  0  0
   -7.4400   22.2640  -31.5000 C   0  0  0  0  0  0  0  0  0  0  0  0
   -7.3670   23.5760  -31.0920 C   0  0  0  0  0  0  0  0  0  0  0  0
   -6.0190   23.8060  -30.8180 C   0  0  0  0  0  0  0  0  0  0  0  0
   -5.4840   25.1320  -30.4250 C   0  0  0  0  0  0  0  0  0  0  0  0
   -4.1830   25.5760  -30.8150 N   0  0  0  0  0  0  0  0  0  0  0  0
   -6.1890   25.8830  -29.6980 O   0  0  0  0  0  0  0  0  0  0  0  0
   -5.2920   22.6720  -31.0290 N   0  0  0  0  0  0  0  0  0  0  0  0
   -3.8640   22.5310  -31.0100 C   0  0  0  0  0  0  0  0  0  0  0  0
   -3.1940   22.9860  -31.9770 O   0  0  0  0  0  0  0  0  0  0  0  0
   -3.1900   21.8900  -29.9050 N   0  0  0  0  0  0  0  0  0  0  0  0
   -2.0570   21.0030  -30.1930 C   0  0  0  0  0  0  0  0  0  0  0  0
   -3.5890   22.1350  -28.5080 C   0  0  0  0  0  0  0  0  0  0  0  0
   -3.3300   23.5900  -28.1130 C   0  0  0  0  0  0  0  0  0  0  0  0
   -2.1930   24.1550  -28.9040 C   0  0  0  0  0  0  0  0  0  0  0  0
   -2.2920   25.2950  -29.4290 O   0  0  0  0  0  0  0  0  0  0  0  0
   -1.0050   23.4450  -29.0180 O   0  0  0  0  0  0  0  0  0  0  0  0
   -6.1720   21.7460  -31.4670 C   0  0  0  0  0  0  0  0  0  0  0  0
   -5.9050   20.4530  -31.9300 C   0  0  0  0  0  0  0  0  0  0  0  0
   -6.6223   17.5867  -32.0535 H   0  0  0  0  0  0  0  0  0  0  0  0
   -7.6013   17.9662  -33.5110 H   0  0  0  0  0  0  0  0  0  0  0  0
   -5.8323   18.2783  -33.5110 H   0  0  0  0  0  0  0  0  0  0  0  0
   -9.1377   19.6001  -32.7527 H   0  0  0  0  0  0  0  0  0  0  0  0
   -9.5402   21.9586  -31.9695 H   0  0  0  0  0  0  0  0  0  0  0  0
   -8.1968   24.2924  -31.0011 H   0  0  0  0  0  0  0  0  0  0  0  0
   -3.8710   26.5410  -30.5710 H   0  0  0  0  0  0  0  0  0  0  0  0
   -3.4870   24.9370  -31.2540 H   0  0  0  0  0  0  0  0  0  0  0  0
   -1.6136   20.6559  -29.2480 H   0  0  0  0  0  0  0  0  0  0  0  0
   -2.4077   20.1369  -30.7734 H   0  0  0  0  0  0  0  0  0  0  0  0
   -1.3004   21.5513  -30.7734 H   0  0  0  0  0  0  0  0  0  0  0  0
   -4.6614   21.9170  -28.3963 H   0  0  0  0  0  0  0  0  0  0  0  0
   -2.9937   21.4819  -27.8530 H   0  0  0  0  0  0  0  0  0  0  0  0
   -4.2355   24.1839  -28.3064 H   0  0  0  0  0  0  0  0  0  0  0  0
   -3.0721   23.6272  -27.0443 H   0  0  0  0  0  0  0  0  0  0  0  0
   -4.8774   20.0609  -31.9483 H   0  0  0  0  0  0  0  0  0  0  0  0
  1  2  1  0
  2  3  2  0
  3  4  1  0
  4  5  2  0
  5  6  1  0
  6  7  2  0
  7  8  1  0
  8  9  1  0
  8 10  2  0
  7 11  1  0
 11 12  1  0
 12 13  2  0
 12 14  1  0
 14 15  1  0
 14 16  1  0
 16 17  1  0
 17 18  1  0
 18 19  2  0
 18 20  1  0
 11 21  1  0
 21 22  2  0
 22  2  1  0
 21  5  1  0
  1 23  1  0
  1 24  1  0
  1 25  1  0
  3 26  1  0
  4 27  1  0
  6 28  1  0
  9 29  1  0
  9 30  1  0
 15 31  1  0
 15 32  1  0
 15 33  1  0
 16 34  1  0
 16 35  1  0
 17 36  1  0
 17 37  1  0
 22 38  1  0
M  CHG  1  20  -1
M  END
>  <UniqueID>  (34) 
34

>  <SMILES>  (34) 
Cc1ccc2cc(C(N)=O)n(C(=O)N(C)CCC(=O)[O-])c2c1

>  <Energy>  (34) 
72.31964234361789

>  <Genealogy>  (34) 
Cc1ccc2cc(C(N)=O)n(C(=O)N(C)CCC(=O)[O-])c2c1 (protonated)
Cc1ccc2cc(C(N)=O)n(C(=O)N(C)CCC(=O)[O-])c2c1 (3D coordinates assigned)
Cc1ccc2cc(C(N)=O)n(C(=O)N(C)CCC(=O)[O-])c2c1 (optimized conformer: 72.31964234361789 kcal/mol)

>  <smiles>  (34) 
Cc1ccc2cc(C(N)=O)n(C(=O)N(C)CCC(=O)O)c2c1

>  <score_type>  (34) 
oracle

>  <origin>  (34) 
adg

>  <m_score__min__energy>  (34) 
-11.039999999999999

>  <m_primary>  (34) 
energy

$$$$
35:0
     RDKit          3D

 45 47  0  0  0  0  0  0  0  0999 V2000
   -1.4930   21.1690  -33.5550 C   0  0  0  0  0  0  0  0  0  0  0  0
   -2.8410   20.7620  -32.9400 C   0  0  0  0  0  0  0  0  0  0  0  0
   -2.5990   20.2490  -31.5080 C   0  0  0  0  0  0  0  0  0  0  0  0
   -3.4750   19.6630  -33.8120 C   0  0  0  0  0  0  0  0  0  0  0  0
   -3.6680   21.9340  -32.9230 O   0  0  0  0  0  0  0  0  0  0  0  0
   -4.0230   22.6860  -31.7940 C   0  0  0  0  0  0  0  0  0  0  0  0
   -3.1400   23.1810  -31.0410 O   0  0  0  0  0  0  0  0  0  0  0  0
   -5.4110   22.8750  -31.4780 N   0  0  0  0  0  0  0  0  0  0  0  0
   -5.9890   23.9510  -30.8720 C   0  0  0  0  0  0  0  0  0  0  0  0
   -5.2730   25.0960  -30.2720 C   0  0  0  0  0  0  0  0  0  0  0  0
   -4.0600   25.5590  -30.8600 N   0  0  0  0  0  0  0  0  0  0  0  0
   -5.7400   25.6950  -29.2680 O   0  0  0  0  0  0  0  0  0  0  0  0
   -7.3720   23.7950  -30.8160 C   0  0  0  0  0  0  0  0  0  0  0  0
   -7.6260   22.5780  -31.4050 C   0  0  0  0  0  0  0  0  0  0  0  0
   -8.8370   21.9350  -31.6430 C   0  0  0  0  0  0  0  0  0  0  0  0
   -8.8060   20.6980  -32.3060 C   0  0  0  0  0  0  0  0  0  0  0  0
   -7.5740   20.1140  -32.7060 C   0  0  0  0  0  0  0  0  0  0  0  0
   -7.5590   18.8590  -33.4340 N   0  0  0  0  0  0  0  0  0  0  0  0
   -7.1670   17.6460  -32.6740 C   0  0  0  0  0  0  0  0  0  0  0  0
   -6.1310   17.8300  -31.5840 C   0  0  0  0  0  0  0  0  0  0  0  0
   -5.1940   17.0120  -32.2480 O   0  0  0  0  0  0  0  0  0  0  0  0
   -6.0980   16.7740  -33.3020 C   0  0  0  0  0  0  0  0  0  0  0  0
   -6.3690   20.8220  -32.4770 C   0  0  0  0  0  0  0  0  0  0  0  0
   -6.4280   22.0420  -31.7960 C   0  0  0  0  0  0  0  0  0  0  0  0
   -0.7740   21.3861  -32.7514 H   0  0  0  0  0  0  0  0  0  0  0  0
   -1.1104   20.3463  -34.1770 H   0  0  0  0  0  0  0  0  0  0  0  0
   -1.6296   22.0659  -34.1770 H   0  0  0  0  0  0  0  0  0  0  0  0
   -2.9528   20.9989  -30.7852 H   0  0  0  0  0  0  0  0  0  0  0  0
   -3.1480   19.3077  -31.3581 H   0  0  0  0  0  0  0  0  0  0  0  0
   -1.5234   20.0740  -31.3581 H   0  0  0  0  0  0  0  0  0  0  0  0
   -3.9195   18.8924  -33.1650 H   0  0  0  0  0  0  0  0  0  0  0  0
   -4.2572   20.1045  -34.4470 H   0  0  0  0  0  0  0  0  0  0  0  0
   -2.7013   19.2069  -34.4470 H   0  0  0  0  0  0  0  0  0  0  0  0
   -3.1320   25.2770  -30.4690 H   0  0  0  0  0  0  0  0  0  0  0  0
   -8.1054   24.4961  -30.3910 H   0  0  0  0  0  0  0  0  0  0  0  0
   -9.7892   22.3822  -31.3215 H   0  0  0  0  0  0  0  0  0  0  0  0
   -9.7491   20.1733  -32.5189 H   0  0  0  0  0  0  0  0  0  0  0  0
   -6.9130   18.9470  -34.2520 H   0  0  0  0  0  0  0  0  0  0  0  0
   -8.5110   18.6890  -33.8360 H   0  0  0  0  0  0  0  0  0  0  0  0
   -8.1980   17.3129  -32.4843 H   0  0  0  0  0  0  0  0  0  0  0  0
   -5.7983   18.8718  -31.4662 H   0  0  0  0  0  0  0  0  0  0  0  0
   -6.4028   17.5944  -30.5445 H   0  0  0  0  0  0  0  0  0  0  0  0
   -5.7447   17.1453  -34.2753 H   0  0  0  0  0  0  0  0  0  0  0  0
   -6.3452   15.7358  -33.5684 H   0  0  0  0  0  0  0  0  0  0  0  0
   -5.4067   20.4206  -32.8275 H   0  0  0  0  0  0  0  0  0  0  0  0
  1  2  1  0
  2  3  1  0
  2  4  1  0
  2  5  1  0
  5  6  1  0
  6  7  2  0
  6  8  1  0
  8  9  1  0
  9 10  1  0
 10 11  1  0
 10 12  2  0
  9 13  2  0
 13 14  1  0
 14 15  2  0
 15 16  1  0
 16 17  2  0
 17 18  1  0
 18 19  1  0
 19 20  1  0
 20 21  1  0
 21 22  1  0
 17 23  1  0
 23 24  2  0
 24  8  1  0
 24 14  1  0
 22 19  1  0
  1 25  1  0
  1 26  1  0
  1 27  1  0
  3 28  1  0
  3 29  1  0
  3 30  1  0
  4 31  1  0
  4 32  1  0
  4 33  1  0
 11 34  1  0
 13 35  1  0
 15 36  1  0
 16 37  1  0
 18 38  1  0
 18 39  1  0
 19 40  1  0
 20 41  1  0
 20 42  1  0
 22 43  1  0
 22 44  1  0
 23 45  1  0
M  CHG  2  11  -1  18   1
M  END
>  <UniqueID>  (35) 
35

>  <SMILES>  (35) 
CC(C)(C)OC(=O)n1c(C([NH-])=O)cc2ccc([NH2+]C3COC3)cc21

>  <Energy>  (35) 
152.16098003524422

>  <Genealogy>  (35) 
CC(C)(C)OC(=O)n1c(C([NH-])=O)cc2ccc([NH2+]C3COC3)cc21 (protonated)
CC(C)(C)OC(=O)n1c(C([NH-])=O)cc2ccc([NH2+]C3COC3)cc21 (3D coordinates assigned)
CC(C)(C)OC(=O)n1c(C([NH-])=O)cc2ccc([NH2+]C3COC3)cc21 (nonaromatic ring conformer: 152.16098003524422 kcal/mol)

>  <smiles>  (35) 
CC(C)(C)OC(=O)n1c(C(N)=O)cc2ccc(NC3COC3)cc21

>  <score_type>  (35) 
oracle

>  <origin>  (35) 
adg

>  <m_score__min__energy>  (35) 
-10.289999999999999

>  <m_primary>  (35) 
energy

$$$$
36:0
     RDKit          3D

 30 31  0  0  0  0  0  0  0  0999 V2000
   -6.1070   23.7500  -29.4170 N   0  0  0  0  0  0  0  0  0  0  0  0
   -6.5770   23.2840  -30.6840 C   0  0  0  0  0  0  0  0  0  0  0  0
   -7.5630   23.8550  -31.2200 O   0  0  0  0  0  0  0  0  0  0  0  0
   -5.8990   22.1830  -31.3980 C   0  0  0  0  0  0  0  0  0  0  0  0
   -6.4960   21.4470  -32.4210 C   0  0  0  0  0  0  0  0  0  0  0  0
   -5.5280   20.5660  -32.8490 C   0  0  0  0  0  0  0  0  0  0  0  0
   -5.5790   19.5850  -33.8340 C   0  0  0  0  0  0  0  0  0  0  0  0
   -4.4340   18.7940  -34.0350 C   0  0  0  0  0  0  0  0  0  0  0  0
   -3.2740   18.9930  -33.2470 C   0  0  0  0  0  0  0  0  0  0  0  0
   -2.1200   18.1740  -33.4530 N   0  0  0  0  0  0  0  0  0  0  0  0
   -3.2580   19.9970  -32.2570 C   0  0  0  0  0  0  0  0  0  0  0  0
   -4.4060   20.7790  -32.0910 C   0  0  0  0  0  0  0  0  0  0  0  0
   -4.6200   21.7650  -31.1930 N   0  0  0  0  0  0  0  0  0  0  0  0
   -3.7110   22.1670  -30.1580 C   0  0  0  0  0  0  0  0  0  0  0  0
   -3.8970   21.7700  -28.9750 O   0  0  0  0  0  0  0  0  0  0  0  0
   -2.6130   23.1450  -30.4410 C   0  0  0  0  0  0  0  0  0  0  0  0
   -3.0240   24.7590  -29.7130 P   0  0  0  0  0  0  0  0  0  0  0  0
   -3.8340   24.5600  -28.4530 O   0  0  0  0  0  0  0  0  0  0  0  0
   -1.5960   25.5820  -29.3380 O   0  0  0  0  0  0  0  0  0  0  0  0
   -3.9200   25.6700  -30.8200 O   0  0  0  0  0  0  0  0  0  0  0  0
   -6.6330   24.4910  -28.9060 H   0  0  0  0  0  0  0  0  0  0  0  0
   -5.1930   23.4310  -29.0280 H   0  0  0  0  0  0  0  0  0  0  0  0
   -7.5220   21.5486  -32.8045 H   0  0  0  0  0  0  0  0  0  0  0  0
   -6.4865   19.4329  -34.4367 H   0  0  0  0  0  0  0  0  0  0  0  0
   -4.4392   18.0141  -34.8107 H   0  0  0  0  0  0  0  0  0  0  0  0
   -2.0960   17.1880  -33.1100 H   0  0  0  0  0  0  0  0  0  0  0  0
   -1.2810   18.5490  -33.9500 H   0  0  0  0  0  0  0  0  0  0  0  0
   -2.3674   20.1608  -31.6325 H   0  0  0  0  0  0  0  0  0  0  0  0
   -1.6734   22.7758  -30.0041 H   0  0  0  0  0  0  0  0  0  0  0  0
   -2.4969   23.2562  -31.5292 H   0  0  0  0  0  0  0  0  0  0  0  0
  1  2  1  0
  2  3  2  0
  2  4  1  0
  4  5  2  0
  5  6  1  0
  6  7  2  0
  7  8  1  0
  8  9  2  0
  9 10  1  0
  9 11  1  0
 11 12  2  0
 12 13  1  0
 13 14  1  0
 14 15  2  0
 14 16  1  0
 16 17  1  0
 17 18  2  0
 17 19  1  0
 17 20  1  0
 13  4  1  0
 12  6  1  0
  1 21  1  0
  1 22  1  0
  5 23  1  0
  7 24  1  0
  8 25  1  0
 10 26  1  0
 10 27  1  0
 11 28  1  0
 16 29  1  0
 16 30  1  0
M  CHG  2  19  -1  20  -1
M  END
>  <UniqueID>  (36) 
36

>  <SMILES>  (36) 
NC(=O)c1cc2ccc(N)cc2n1C(=O)CP(=O)([O-])[O-]

>  <Energy>  (36) 
64.37039068427

>  <Genealogy>  (36) 
NC(=O)c1cc2ccc(N)cc2n1C(=O)CP(=O)([O-])[O-] (protonated)
NC(=O)c1cc2ccc(N)cc2n1C(=O)CP(=O)([O-])[O-] (3D coordinates assigned)
NC(=O)c1cc2ccc(N)cc2n1C(=O)CP(=O)([O-])[O-] (optimized conformer: 64.37039068427 kcal/mol)

>  <smiles>  (36) 
NC(=O)c1cc2ccc(N)cc2n1C(=O)CP(=O)(O)O

>  <score_type>  (36) 
oracle

>  <origin>  (36) 
adg

>  <m_score__min__energy>  (36) 
-11.16

>  <m_primary>  (36) 
energy

$$$$
37:0
     RDKit          3D

 37 38  0  0  0  0  0  0  0  0999 V2000
   -2.2480   21.1050  -29.9560 C   0  0  0  0  0  0  0  0  0  0  0  0
   -3.2100   22.0280  -29.8280 C   0  0  0  0  0  0  0  0  0  0  0  0
   -3.6020   22.5140  -28.4850 C   0  0  0  0  0  0  0  0  0  0  0  0
   -4.8220   22.6150  -28.1740 O   0  0  0  0  0  0  0  0  0  0  0  0
   -2.6110   22.8470  -27.5520 O   0  0  0  0  0  0  0  0  0  0  0  0
   -2.2210   24.1860  -27.2620 C   0  0  0  0  0  0  0  0  0  0  0  0
   -1.6000   24.8180  -28.4660 C   0  0  0  0  0  0  0  0  0  0  0  0
   -2.3260   25.3000  -29.3740 O   0  0  0  0  0  0  0  0  0  0  0  0
   -0.2190   24.8320  -28.6080 O   0  0  0  0  0  0  0  0  0  0  0  0
   -3.8730   22.5750  -31.0390 C   0  0  0  0  0  0  0  0  0  0  0  0
   -3.1770   22.9240  -32.0310 O   0  0  0  0  0  0  0  0  0  0  0  0
   -5.3020   22.7210  -31.0990 N   0  0  0  0  0  0  0  0  0  0  0  0
   -6.0390   23.8500  -30.8970 C   0  0  0  0  0  0  0  0  0  0  0  0
   -5.5170   25.1540  -30.4410 C   0  0  0  0  0  0  0  0  0  0  0  0
   -4.1960   25.5830  -30.7710 N   0  0  0  0  0  0  0  0  0  0  0  0
   -6.2360   25.8850  -29.7090 O   0  0  0  0  0  0  0  0  0  0  0  0
   -7.3840   23.6110  -31.1710 C   0  0  0  0  0  0  0  0  0  0  0  0
   -7.4500   22.2850  -31.5370 C   0  0  0  0  0  0  0  0  0  0  0  0
   -8.5430   21.5160  -31.9220 C   0  0  0  0  0  0  0  0  0  0  0  0
   -8.3130   20.1760  -32.2770 C   0  0  0  0  0  0  0  0  0  0  0  0
   -7.0000   19.6360  -32.2660 C   0  0  0  0  0  0  0  0  0  0  0  0
   -6.7700   18.1870  -32.6110 C   0  0  0  0  0  0  0  0  0  0  0  0
   -7.9350   17.4770  -32.3900 F   0  0  0  0  0  0  0  0  0  0  0  0
   -5.7610   17.6540  -31.8280 F   0  0  0  0  0  0  0  0  0  0  0  0
   -6.4050   18.0530  -33.9380 F   0  0  0  0  0  0  0  0  0  0  0  0
   -5.9180   20.4470  -31.8470 C   0  0  0  0  0  0  0  0  0  0  0  0
   -6.1810   21.7720  -31.4840 C   0  0  0  0  0  0  0  0  0  0  0  0
   -1.9594   20.7463  -30.9550 H   0  0  0  0  0  0  0  0  0  0  0  0
   -1.7465   20.7056  -29.0621 H   0  0  0  0  0  0  0  0  0  0  0  0
   -3.1072   24.7657  -26.9643 H   0  0  0  0  0  0  0  0  0  0  0  0
   -1.4855   24.1752  -26.4441 H   0  0  0  0  0  0  0  0  0  0  0  0
   -3.5110   24.9330  -31.2150 H   0  0  0  0  0  0  0  0  0  0  0  0
   -3.8680   26.5320  -30.4870 H   0  0  0  0  0  0  0  0  0  0  0  0
   -8.2156   24.3283  -31.1084 H   0  0  0  0  0  0  0  0  0  0  0  0
   -9.5562   21.9435  -31.9478 H   0  0  0  0  0  0  0  0  0  0  0  0
   -9.1606   19.5376  -32.5670 H   0  0  0  0  0  0  0  0  0  0  0  0
   -4.8949   20.0448  -31.8078 H   0  0  0  0  0  0  0  0  0  0  0  0
  1  2  2  0
  2  3  1  0
  3  4  2  0
  3  5  1  0
  5  6  1  0
  6  7  1  0
  7  8  2  0
  7  9  1  0
  2 10  1  0
 10 11  2  0
 10 12  1  0
 12 13  1  0
 13 14  1  0
 14 15  1  0
 14 16  2  0
 13 17  2  0
 17 18  1  0
 18 19  2  0
 19 20  1  0
 20 21  2  0
 21 22  1  0
 22 23  1  0
 22 24  1  0
 22 25  1  0
 21 26  1  0
 26 27  2  0
 27 12  1  0
 27 18  1  0
  1 28  1  0
  1 29  1  0
  6 30  1  0
  6 31  1  0
 15 32  1  0
 15 33  1  0
 17 34  1  0
 19 35  1  0
 20 36  1  0
 26 37  1  0
M  CHG  1   9  -1
M  END
>  <UniqueID>  (37) 
37

>  <SMILES>  (37) 
C=C(C(=O)OCC(=O)[O-])C(=O)n1c(C(N)=O)cc2ccc(C(F)(F)F)cc21

>  <Energy>  (37) 
75.29770274311139

>  <Genealogy>  (37) 
C=C(C(=O)OCC(=O)[O-])C(=O)n1c(C(N)=O)cc2ccc(C(F)(F)F)cc21 (protonated)
C=C(C(=O)OCC(=O)[O-])C(=O)n1c(C(N)=O)cc2ccc(C(F)(F)F)cc21 (3D coordinates assigned)
C=C(C(=O)OCC(=O)[O-])C(=O)n1c(C(N)=O)cc2ccc(C(F)(F)F)cc21 (optimized conformer: 75.29770274311139 kcal/mol)

>  <smiles>  (37) 
C=C(C(=O)OCC(=O)O)C(=O)n1c(C(N)=O)cc2ccc(C(F)(F)F)cc21

>  <score_type>  (37) 
oracle

>  <origin>  (37) 
adg

>  <m_score__min__energy>  (37) 
-10.35

>  <m_primary>  (37) 
energy

$$$$
38:0
     RDKit          3D

 38 40  0  0  0  0  0  0  0  0999 V2000
   -2.7220   18.5730  -34.2690 C   0  0  0  0  0  0  0  0  0  0  0  0
   -3.4160   19.2940  -33.1960 N   0  0  0  0  0  0  0  0  0  0  0  0
   -4.8500   19.1690  -33.0260 C   0  0  0  0  0  0  0  0  0  0  0  0
   -5.4130   17.9510  -32.5970 C   0  0  0  0  0  0  0  0  0  0  0  0
   -6.7920   17.8260  -32.4190 C   0  0  0  0  0  0  0  0  0  0  0  0
   -7.6460   18.9150  -32.6630 C   0  0  0  0  0  0  0  0  0  0  0  0
   -9.0680   18.7780  -32.4880 N   0  0  0  0  0  0  0  0  0  0  0  0
   -9.8600   19.5070  -33.1200 O   0  0  0  0  0  0  0  0  0  0  0  0
   -9.5790   17.8590  -31.6000 O   0  0  0  0  0  0  0  0  0  0  0  0
   -7.0880   20.1330  -33.0860 C   0  0  0  0  0  0  0  0  0  0  0  0
   -5.7080   20.2580  -33.2680 C   0  0  0  0  0  0  0  0  0  0  0  0
   -2.6330   20.0370  -32.2440 C   0  0  0  0  0  0  0  0  0  0  0  0
   -1.4110   19.5070  -31.7590 C   0  0  0  0  0  0  0  0  0  0  0  0
   -0.6440   20.2170  -30.8210 C   0  0  0  0  0  0  0  0  0  0  0  0
   -1.1290   21.4430  -30.3780 C   0  0  0  0  0  0  0  0  0  0  0  0
   -0.5810   22.3450  -29.4930 C   0  0  0  0  0  0  0  0  0  0  0  0
   -1.4890   23.4000  -29.4300 C   0  0  0  0  0  0  0  0  0  0  0  0
   -1.3260   24.5550  -28.5240 C   0  0  0  0  0  0  0  0  0  0  0  0
   -1.2520   25.8820  -29.0340 N   0  0  0  0  0  0  0  0  0  0  0  0
   -1.2940   24.3700  -27.2770 O   0  0  0  0  0  0  0  0  0  0  0  0
   -2.5520   23.1670  -30.2520 N   0  0  0  0  0  0  0  0  0  0  0  0
   -3.6420   24.0530  -30.5520 C   0  0  0  0  0  0  0  0  0  0  0  0
   -3.4970   25.2990  -30.4390 O   0  0  0  0  0  0  0  0  0  0  0  0
   -4.8740   23.5440  -30.9380 O   0  0  0  0  0  0  0  0  0  0  0  0
   -2.3170   21.9640  -30.8240 C   0  0  0  0  0  0  0  0  0  0  0  0
   -3.0890   21.2880  -31.7740 C   0  0  0  0  0  0  0  0  0  0  0  0
   -2.0226   17.8464  -33.8298 H   0  0  0  0  0  0  0  0  0  0  0  0
   -3.4586   18.0432  -34.8908 H   0  0  0  0  0  0  0  0  0  0  0  0
   -2.1645   19.2889  -34.8908 H   0  0  0  0  0  0  0  0  0  0  0  0
   -4.7588   17.0889  -32.4001 H   0  0  0  0  0  0  0  0  0  0  0  0
   -7.2138   16.8666  -32.0848 H   0  0  0  0  0  0  0  0  0  0  0  0
   -7.7432   20.9960  -33.2756 H   0  0  0  0  0  0  0  0  0  0  0  0
   -5.2880   21.2176  -33.6039 H   0  0  0  0  0  0  0  0  0  0  0  0
   -1.0599   18.5295  -32.1211 H   0  0  0  0  0  0  0  0  0  0  0  0
    0.3102   19.8162  -30.4484 H   0  0  0  0  0  0  0  0  0  0  0  0
    0.3716   22.2522  -28.9508 H   0  0  0  0  0  0  0  0  0  0  0  0
   -1.2360   26.0590  -30.0630 H   0  0  0  0  0  0  0  0  0  0  0  0
   -4.0293   21.7206  -32.1464 H   0  0  0  0  0  0  0  0  0  0  0  0
  1  2  1  0
  2  3  1  0
  3  4  2  0
  4  5  1  0
  5  6  2  0
  6  7  1  0
  7  8  2  0
  7  9  1  0
  6 10  1  0
 10 11  2  0
  2 12  1  0
 12 13  2  0
 13 14  1  0
 14 15  2  0
 15 16  1  0
 16 17  2  0
 17 18  1  0
 18 19  1  0
 18 20  2  0
 17 21  1  0
 21 22  1  0
 22 23  2  0
 22 24  1  0
 21 25  1  0
 25 26  2  0
 11  3  1  0
 26 12  1  0
 25 15  1  0
  1 27  1  0
  1 28  1  0
  1 29  1  0
  4 30  1  0
  5 31  1  0
 10 32  1  0
 11 33  1  0
 13 34  1  0
 14 35  1  0
 16 36  1  0
 19 37  1  0
 26 38  1  0
M  CHG  4   7   1   9  -1  19  -1  24  -1
M  END
>  <UniqueID>  (38) 
38

>  <SMILES>  (38) 
CN(c1ccc([N+](=O)[O-])cc1)c1ccc2cc(C([NH-])=O)n(C(=O)[O-])c2c1

>  <Energy>  (38) 
90.5285407044325

>  <Genealogy>  (38) 
CN(c1ccc([N+](=O)[O-])cc1)c1ccc2cc(C([NH-])=O)n(C(=O)[O-])c2c1 (protonated)
CN(c1ccc([N+](=O)[O-])cc1)c1ccc2cc(C([NH-])=O)n(C(=O)[O-])c2c1 (3D coordinates assigned)
CN(c1ccc([N+](=O)[O-])cc1)c1ccc2cc(C([NH-])=O)n(C(=O)[O-])c2c1 (optimized conformer: 90.5285407044325 kcal/mol)

>  <smiles>  (38) 
CN(c1ccc([N+](=O)[O-])cc1)c1ccc2cc(C(N)=O)n(C(=O)O)c2c1

>  <score_type>  (38) 
oracle

>  <origin>  (38) 
adg

>  <m_score__min__energy>  (38) 
-12.289999999999999

>  <m_primary>  (38) 
energy

$$$$
39:0
     RDKit          3D

 41 43  0  0  0  0  0  0  0  0999 V2000
   -5.7790   18.4480  -34.3180 C   0  0  0  0  0  0  0  0  0  0  0  0
   -6.8730   18.4730  -33.2570 C   0  0  0  0  0  0  0  0  0  0  0  0
   -7.0190   19.8530  -32.6750 C   0  0  0  0  0  0  0  0  0  0  0  0
   -8.3070   20.3680  -32.3840 C   0  0  0  0  0  0  0  0  0  0  0  0
   -8.4540   21.6480  -31.8220 C   0  0  0  0  0  0  0  0  0  0  0  0
   -7.3010   22.3770  -31.5490 C   0  0  0  0  0  0  0  0  0  0  0  0
   -7.1580   23.6440  -31.0300 C   0  0  0  0  0  0  0  0  0  0  0  0
   -5.7840   23.8690  -30.9780 C   0  0  0  0  0  0  0  0  0  0  0  0
   -5.1820   25.0890  -30.4010 C   0  0  0  0  0  0  0  0  0  0  0  0
   -3.9090   25.5560  -30.8380 N   0  0  0  0  0  0  0  0  0  0  0  0
   -5.7790   25.6990  -29.4740 O   0  0  0  0  0  0  0  0  0  0  0  0
   -5.1030   22.7870  -31.4530 N   0  0  0  0  0  0  0  0  0  0  0  0
   -3.6870   22.6650  -31.6560 C   0  0  0  0  0  0  0  0  0  0  0  0
   -3.2440   22.1420  -32.7160 O   0  0  0  0  0  0  0  0  0  0  0  0
   -2.8040   23.1470  -30.6870 O   0  0  0  0  0  0  0  0  0  0  0  0
   -2.2420   22.3170  -29.6740 C   0  0  0  0  0  0  0  0  0  0  0  0
   -1.0440   22.9080  -29.1830 O   0  0  0  0  0  0  0  0  0  0  0  0
   -1.0270   24.1130  -28.4740 C   0  0  0  0  0  0  0  0  0  0  0  0
   -0.0230   24.8750  -28.5210 O   0  0  0  0  0  0  0  0  0  0  0  0
   -2.1890   24.4960  -27.6650 C   0  0  0  0  0  0  0  0  0  0  0  0
   -3.4550   24.5140  -28.1220 N   0  0  0  0  0  0  0  0  0  0  0  0
   -4.1900   24.9180  -27.0730 C   0  0  0  0  0  0  0  0  0  0  0  0
   -3.3400   25.1330  -26.0090 C   0  0  0  0  0  0  0  0  0  0  0  0
   -2.1160   24.8650  -26.4050 O   0  0  0  0  0  0  0  0  0  0  0  0
   -6.0470   21.8820  -31.7960 C   0  0  0  0  0  0  0  0  0  0  0  0
   -5.8700   20.6180  -32.3730 C   0  0  0  0  0  0  0  0  0  0  0  0
   -4.7941   18.4255  -33.8287 H   0  0  0  0  0  0  0  0  0  0  0  0
   -5.8972   17.5523  -34.9455 H   0  0  0  0  0  0  0  0  0  0  0  0
   -5.8562   19.3481  -34.9455 H   0  0  0  0  0  0  0  0  0  0  0  0
   -7.8267   18.1715  -33.7147 H   0  0  0  0  0  0  0  0  0  0  0  0
   -6.5993   17.7766  -32.4507 H   0  0  0  0  0  0  0  0  0  0  0  0
   -9.1987   19.7611  -32.5997 H   0  0  0  0  0  0  0  0  0  0  0  0
   -9.4503   22.0606  -31.6047 H   0  0  0  0  0  0  0  0  0  0  0  0
   -7.9585   24.3326  -30.7218 H   0  0  0  0  0  0  0  0  0  0  0  0
   -3.0350   25.2820  -30.3350 H   0  0  0  0  0  0  0  0  0  0  0  0
   -2.9614   22.2082  -28.8490 H   0  0  0  0  0  0  0  0  0  0  0  0
   -2.0145   21.3274  -30.0970 H   0  0  0  0  0  0  0  0  0  0  0  0
   -3.7980   24.2690  -29.0780 H   0  0  0  0  0  0  0  0  0  0  0  0
   -5.2815   25.0539  -27.0643 H   0  0  0  0  0  0  0  0  0  0  0  0
   -3.6349   25.4700  -25.0043 H   0  0  0  0  0  0  0  0  0  0  0  0
   -4.8625   20.2309  -32.5855 H   0  0  0  0  0  0  0  0  0  0  0  0
  1  2  1  0
  2  3  1  0
  3  4  2  0
  4  5  1  0
  5  6  2  0
  6  7  1  0
  7  8  2  0
  8  9  1  0
  9 10  1  0
  9 11  2  0
  8 12  1  0
 12 13  1  0
 13 14  2  0
 13 15  1  0
 15 16  1  0
 16 17  1  0
 17 18  1  0
 18 19  2  0
 18 20  1  0
 20 21  2  0
 21 22  1  0
 22 23  2  0
 23 24  1  0
 12 25  1  0
 25 26  2  0
 26  3  1  0
 25  6  1  0
 24 20  1  0
  1 27  1  0
  1 28  1  0
  1 29  1  0
  2 30  1  0
  2 31  1  0
  4 32  1  0
  5 33  1  0
  7 34  1  0
 10 35  1  0
 16 36  1  0
 16 37  1  0
 21 38  1  0
 22 39  1  0
 23 40  1  0
 26 41  1  0
M  CHG  2  10  -1  21   1
M  END
>  <UniqueID>  (39) 
39

>  <SMILES>  (39) 
CCc1ccc2cc(C([NH-])=O)n(C(=O)OCOC(=O)c3[nH+]cco3)c2c1

>  <Energy>  (39) 
104.75182372794016

>  <Genealogy>  (39) 
CCc1ccc2cc(C([NH-])=O)n(C(=O)OCOC(=O)c3[nH+]cco3)c2c1 (protonated)
CCc1ccc2cc(C([NH-])=O)n(C(=O)OCOC(=O)c3[nH+]cco3)c2c1 (3D coordinates assigned)
CCc1ccc2cc(C([NH-])=O)n(C(=O)OCOC(=O)c3[nH+]cco3)c2c1 (optimized conformer: 104.75182372794016 kcal/mol)

>  <smiles>  (39) 
CCc1ccc2cc(C(N)=O)n(C(=O)OCOC(=O)c3ncco3)c2c1

>  <score_type>  (39) 
oracle

>  <origin>  (39) 
adg

>  <m_score__min__energy>  (39) 
-8.6899999999999995

>  <m_primary>  (39) 
energy

$$$$
40:0
     RDKit          3D

 70 73  0  0  0  0  0  0  0  0999 V2000
   -3.7740   23.0470  -28.1210 C   0  0  0  0  0  0  0  0  0  0  0  0
   -2.5840   22.5330  -28.9490 C   0  0  0  0  0  0  0  0  0  0  0  0
   -2.7010   21.0020  -29.0880 C   0  0  0  0  0  0  0  0  0  0  0  0
   -1.2760   22.9160  -28.2340 C   0  0  0  0  0  0  0  0  0  0  0  0
   -2.6550   23.1660  -30.2350 O   0  0  0  0  0  0  0  0  0  0  0  0
   -3.2720   22.6530  -31.3830 C   0  0  0  0  0  0  0  0  0  0  0  0
   -2.5790   22.0990  -32.2810 O   0  0  0  0  0  0  0  0  0  0  0  0
   -4.7020   22.7620  -31.5530 N   0  0  0  0  0  0  0  0  0  0  0  0
   -5.5240   23.7710  -31.1330 C   0  0  0  0  0  0  0  0  0  0  0  0
   -5.1210   25.0230  -30.4590 C   0  0  0  0  0  0  0  0  0  0  0  0
   -3.8950   25.6490  -30.8190 N   0  0  0  0  0  0  0  0  0  0  0  0
   -5.8150   25.5180  -29.5340 O   0  0  0  0  0  0  0  0  0  0  0  0
   -6.8610   23.4230  -31.3110 C   0  0  0  0  0  0  0  0  0  0  0  0
   -6.8430   22.1650  -31.8610 C   0  0  0  0  0  0  0  0  0  0  0  0
   -7.8990   21.3260  -32.2010 C   0  0  0  0  0  0  0  0  0  0  0  0
   -7.5910   20.0450  -32.6900 C   0  0  0  0  0  0  0  0  0  0  0  0
   -6.2430   19.6360  -32.8500 C   0  0  0  0  0  0  0  0  0  0  0  0
   -5.9420   18.2980  -33.2830 N   0  0  0  0  0  0  0  0  0  0  0  0
   -6.1050   17.9020  -34.6830 C   0  0  0  0  0  0  0  0  0  0  0  0
   -4.7490   17.4960  -35.2670 C   0  0  0  0  0  0  0  0  0  0  0  0
   -3.9320   16.5400  -34.3330 C   0  0  0  0  0  0  0  0  0  0  0  0
   -2.5240   16.9870  -34.0780 N   0  0  0  0  0  0  0  0  0  0  0  0
   -1.8250   16.2100  -33.0150 C   0  0  0  0  0  0  0  0  0  0  0  0
   -0.7420   17.0220  -32.2820 C   0  0  0  0  0  0  0  0  0  0  0  0
   -0.0760   17.9240  -33.2290 N   0  0  0  0  0  0  0  0  0  0  0  0
    1.2930   18.6990  -32.4620 S   0  0  0  0  0  0  0  0  0  0  0  0
    0.7620   19.7160  -31.0960 C   0  0  0  0  0  0  0  0  0  0  0  0
    2.0260   19.5590  -33.4550 O   0  0  0  0  0  0  0  0  0  0  0  0
    2.2260   17.6440  -31.9350 O   0  0  0  0  0  0  0  0  0  0  0  0
   -1.0090   18.9500  -33.7410 C   0  0  0  0  0  0  0  0  0  0  0  0
   -2.4680   18.4470  -33.8280 C   0  0  0  0  0  0  0  0  0  0  0  0
   -4.6890   16.1590  -33.0240 C   0  0  0  0  0  0  0  0  0  0  0  0
   -5.3710   17.3450  -32.3220 C   0  0  0  0  0  0  0  0  0  0  0  0
   -5.1980   20.5260  -32.5130 C   0  0  0  0  0  0  0  0  0  0  0  0
   -5.5310   21.7850  -31.9980 C   0  0  0  0  0  0  0  0  0  0  0  0
   -3.5452   22.9482  -27.0496 H   0  0  0  0  0  0  0  0  0  0  0  0
   -3.9578   24.1047  -28.3606 H   0  0  0  0  0  0  0  0  0  0  0  0
   -4.6701   22.4557  -28.3606 H   0  0  0  0  0  0  0  0  0  0  0  0
   -2.7359   20.5447  -28.0882 H   0  0  0  0  0  0  0  0  0  0  0  0
   -3.6208   20.7529  -29.6375 H   0  0  0  0  0  0  0  0  0  0  0  0
   -1.8297   20.6161  -29.6375 H   0  0  0  0  0  0  0  0  0  0  0  0
   -1.4268   22.8719  -27.1453 H   0  0  0  0  0  0  0  0  0  0  0  0
   -0.4808   22.2130  -28.5229 H   0  0  0  0  0  0  0  0  0  0  0  0
   -0.9856   23.9369  -28.5229 H   0  0  0  0  0  0  0  0  0  0  0  0
   -2.9800   25.2880  -30.4660 H   0  0  0  0  0  0  0  0  0  0  0  0
   -7.7452   24.0286  -31.0631 H   0  0  0  0  0  0  0  0  0  0  0  0
   -8.9428   21.6550  -32.0906 H   0  0  0  0  0  0  0  0  0  0  0  0
   -8.4045   19.3523  -32.9514 H   0  0  0  0  0  0  0  0  0  0  0  0
   -6.7987   17.0504  -34.7435 H   0  0  0  0  0  0  0  0  0  0  0  0
   -6.5088   18.7496  -35.2561 H   0  0  0  0  0  0  0  0  0  0  0  0
   -4.9210   16.9844  -36.2255 H   0  0  0  0  0  0  0  0  0  0  0  0
   -4.1582   18.4160  -35.3877 H   0  0  0  0  0  0  0  0  0  0  0  0
   -3.8370   15.6095  -34.9120 H   0  0  0  0  0  0  0  0  0  0  0  0
   -1.9930   16.8350  -34.9690 H   0  0  0  0  0  0  0  0  0  0  0  0
   -2.5707   15.8769  -32.2781 H   0  0  0  0  0  0  0  0  0  0  0  0
   -1.3222   15.3639  -33.5062 H   0  0  0  0  0  0  0  0  0  0  0  0
   -1.2080   17.6130  -31.4798 H   0  0  0  0  0  0  0  0  0  0  0  0
   -0.0002   16.3342  -31.8500 H   0  0  0  0  0  0  0  0  0  0  0  0
    1.0204   19.2211  -30.1482 H   0  0  0  0  0  0  0  0  0  0  0  0
    1.2652   20.6927  -31.1487 H   0  0  0  0  0  0  0  0  0  0  0  0
   -0.3271   19.8613  -31.1487 H   0  0  0  0  0  0  0  0  0  0  0  0
   -0.9773   19.8200  -33.0686 H   0  0  0  0  0  0  0  0  0  0  0  0
   -0.6878   19.2086  -34.7608 H   0  0  0  0  0  0  0  0  0  0  0  0
   -2.9794   18.6673  -32.8794 H   0  0  0  0  0  0  0  0  0  0  0  0
   -2.9612   18.9604  -34.6665 H   0  0  0  0  0  0  0  0  0  0  0  0
   -5.4609   15.4168  -33.2755 H   0  0  0  0  0  0  0  0  0  0  0  0
   -3.9346   15.7693  -32.3247 H   0  0  0  0  0  0  0  0  0  0  0  0
   -6.1776   16.9617  -31.6798 H   0  0  0  0  0  0  0  0  0  0  0  0
   -4.6092   17.8738  -31.7304 H   0  0  0  0  0  0  0  0  0  0  0  0
   -4.1461   20.2361  -32.6522 H   0  0  0  0  0  0  0  0  0  0  0  0
  1  2  1  0
  2  3  1  0
  2  4  1  0
  2  5  1  0
  5  6  1  0
  6  7  2  0
  6  8  1  0
  8  9  1  0
  9 10  1  0
 10 11  1  0
 10 12  2  0
  9 13  2  0
 13 14  1  0
 14 15  2  0
 15 16  1  0
 16 17  2  0
 17 18  1  0
 18 19  1  0
 19 20  1  0
 20 21  1  0
 21 22  1  0
 22 23  1  0
 23 24  1  0
 24 25  1  0
 25 26  1  0
 26 27  1  0
 26 28  2  0
 26 29  2  0
 25 30  1  0
 30 31  1  0
 21 32  1  0
 32 33  1  0
 17 34  1  0
 34 35  2  0
 35  8  1  0
 35 14  1  0
 33 18  1  0
 31 22  1  0
  1 36  1  0
  1 37  1  0
  1 38  1  0
  3 39  1  0
  3 40  1  0
  3 41  1  0
  4 42  1  0
  4 43  1  0
  4 44  1  0
 11 45  1  0
 13 46  1  0
 15 47  1  0
 16 48  1  0
 19 49  1  0
 19 50  1  0
 20 51  1  0
 20 52  1  0
 21 53  1  0
 22 54  1  0
 23 55  1  0
 23 56  1  0
 24 57  1  0
 24 58  1  0
 27 59  1  0
 27 60  1  0
 27 61  1  0
 30 62  1  0
 30 63  1  0
 31 64  1  0
 31 65  1  0
 32 66  1  0
 32 67  1  0
 33 68  1  0
 33 69  1  0
 34 70  1  0
M  CHG  2  11  -1  22   1
M  END
>  <UniqueID>  (40) 
40

>  <SMILES>  (40) 
CC(C)(C)OC(=O)n1c(C([NH-])=O)cc2ccc(N3CCC([NH+]4CCN(S(C)(=O)=O)CC4)CC3)cc21

>  <Energy>  (40) 
125.98572444946772

>  <Genealogy>  (40) 
CC(C)(C)OC(=O)n1c(C([NH-])=O)cc2ccc(N3CCC([NH+]4CCN(S(C)(=O)=O)CC4)CC3)cc21 (protonated)
CC(C)(C)OC(=O)n1c(C([NH-])=O)cc2ccc(N3CCC([NH+]4CCN(S(C)(=O)=O)CC4)CC3)cc21 (3D coordinates assigned)
CC(C)(C)OC(=O)n1c(C([NH-])=O)cc2ccc(N3CCC([NH+]4CCN(S(C)(=O)=O)CC4)CC3)cc21 (nonaromatic ring conformer: 125.98572444946772 kcal/mol)

>  <smiles>  (40) 
CC(C)(C)OC(=O)n1c(C(N)=O)cc2ccc(N3CCC(N4CCN(S(C)(=O)=O)CC4)CC3)cc21

>  <score_type>  (40) 
oracle

>  <origin>  (40) 
adg

>  <m_score__min__energy>  (40) 
-11.33

>  <m_primary>  (40) 
energy

$$$$
41:0
     RDKit          3D

 37 38  0  0  0  0  0  0  0  0999 V2000
   -2.3087   24.2235  -26.5499 H   0  0  0  0  0  0  0  0  0  0  0  0
   -1.8330   23.7530  -27.4230 C   0  0  0  0  0  0  0  0  0  0  0  0
   -1.3240   24.6510  -28.4750 C   0  0  0  0  0  0  0  0  0  0  0  0
   -0.0810   24.7620  -28.6420 O   0  0  0  0  0  0  0  0  0  0  0  0
   -2.1860   25.2930  -29.3550 O   0  0  0  0  0  0  0  0  0  0  0  0
   -1.7680   22.4130  -27.4350 C   0  0  0  0  0  0  0  0  0  0  0  0
   -2.0067   21.8933  -26.4954 H   0  0  0  0  0  0  0  0  0  0  0  0
   -1.4060   21.5720  -28.5920 C   0  0  0  0  0  0  0  0  0  0  0  0
   -0.3890   20.8340  -28.5080 O   0  0  0  0  0  0  0  0  0  0  0  0
   -2.2190   21.5270  -29.7290 O   0  0  0  0  0  0  0  0  0  0  0  0
   -3.6340   21.7040  -29.6990 C   0  0  0  0  0  0  0  0  0  0  0  0
   -3.9149   22.1888  -28.7524 H   0  0  0  0  0  0  0  0  0  0  0  0
   -4.1103   20.7162  -29.7855 H   0  0  0  0  0  0  0  0  0  0  0  0
   -4.1000   22.5590  -30.8450 C   0  0  0  0  0  0  0  0  0  0  0  0
   -3.2390   23.0700  -31.6110 O   0  0  0  0  0  0  0  0  0  0  0  0
   -5.4980   22.7980  -31.0890 N   0  0  0  0  0  0  0  0  0  0  0  0
   -6.1900   23.9500  -30.8560 C   0  0  0  0  0  0  0  0  0  0  0  0
   -5.6240   25.2230  -30.3590 C   0  0  0  0  0  0  0  0  0  0  0  0
   -6.3820   26.0500  -29.7850 O   0  0  0  0  0  0  0  0  0  0  0  0
   -4.2500   25.5610  -30.5550 N   0  0  0  0  0  0  0  0  0  0  0  0
   -3.8660   26.4410  -30.1460 H   0  0  0  0  0  0  0  0  0  0  0  0
   -3.6350   24.9990  -31.1800 H   0  0  0  0  0  0  0  0  0  0  0  0
   -7.5410   23.7770  -31.1420 C   0  0  0  0  0  0  0  0  0  0  0  0
   -8.3425   24.5248  -31.0507 H   0  0  0  0  0  0  0  0  0  0  0  0
   -7.6620   22.4730  -31.5630 C   0  0  0  0  0  0  0  0  0  0  0  0
   -8.7930   21.7590  -31.9480 C   0  0  0  0  0  0  0  0  0  0  0  0
   -9.7812   22.2405  -31.9882 H   0  0  0  0  0  0  0  0  0  0  0  0
   -8.6330   20.4030  -32.2840 C   0  0  0  0  0  0  0  0  0  0  0  0
   -9.5060   19.8127  -32.5993 H   0  0  0  0  0  0  0  0  0  0  0  0
   -7.3580   19.7910  -32.2200 C   0  0  0  0  0  0  0  0  0  0  0  0
   -7.2140   18.3300  -32.5220 C   0  0  0  0  0  0  0  0  0  0  0  0
   -7.1583   17.7646  -31.5801 H   0  0  0  0  0  0  0  0  0  0  0  0
   -8.0828   17.9885  -33.1038 H   0  0  0  0  0  0  0  0  0  0  0  0
   -6.2952   18.1647  -33.1038 H   0  0  0  0  0  0  0  0  0  0  0  0
   -6.2380   20.5410  -31.8020 C   0  0  0  0  0  0  0  0  0  0  0  0
   -5.2481   20.0707  -31.7078 H   0  0  0  0  0  0  0  0  0  0  0  0
   -6.4180   21.8990  -31.5100 C   0  0  0  0  0  0  0  0  0  0  0  0
  1  2  1  0
  2  3  1  0
  3  4  2  0
  3  5  1  0
  2  6  2  0
  6  7  1  0
  6  8  1  0
  8  9  2  0
  8 10  1  0
 10 11  1  0
 11 12  1  0
 11 13  1  0
 11 14  1  0
 14 15  2  0
 14 16  1  0
 16 17  1  0
 17 18  1  0
 18 19  2  0
 18 20  1  0
 20 21  1  0
 20 22  1  0
 17 23  2  0
 23 24  1  0
 23 25  1  0
 25 26  2  0
 26 27  1  0
 26 28  1  0
 28 29  1  0
 28 30  2  0
 30 31  1  0
 31 32  1  0
 31 33  1  0
 31 34  1  0
 30 35  1  0
 35 36  1  0
 35 37  2  0
 37 16  1  0
 37 25  1  0
M  CHG  1   5  -1
M  END
>  <UniqueID>  (41) 
41

>  <SMILES>  (41) 
Cc1ccc2cc(C(N)=O)n(C(=O)COC(=O)/C=C\C(=O)[O-])c2c1

>  <Energy>  (41) 
78.08774118735973

>  <Genealogy>  (41) 
Cc1ccc2cc(C(N)=O)n(C(=O)COC(=O)/C=C\C(=O)[O-])c2c1 (protonated)
Cc1ccc2cc(C(N)=O)n(C(=O)COC(=O)/C=C\C(=O)[O-])c2c1 (cis-trans isomerization)
Cc1ccc2cc(C(N)=O)n(C(=O)COC(=O)/C=C\C(=O)[O-])c2c1 (3D coordinates assigned)
Cc1ccc2cc(C(N)=O)n(C(=O)COC(=O)/C=C\C(=O)[O-])c2c1 (optimized conformer: 78.08774118735973 kcal/mol)

>  <smiles>  (41) 
Cc1ccc2cc(C(N)=O)n(C(=O)COC(=O)/C=C\C(=O)O)c2c1

>  <score_type>  (41) 
oracle

>  <origin>  (41) 
adg

>  <m_score__min__energy>  (41) 
-11.220000000000001

>  <m_primary>  (41) 
energy

$$$$
42:0
     RDKit          3D

 37 38  0  0  0  0  0  0  0  0999 V2000
   -3.0810   25.3000  -30.4870 H   0  0  0  0  0  0  0  0  0  0  0  0
   -4.0010   25.6400  -30.8460 N   0  0  0  0  0  0  0  0  0  0  0  0
   -5.2240   25.1110  -30.3410 C   0  0  0  0  0  0  0  0  0  0  0  0
   -5.7780   25.6720  -29.3580 O   0  0  0  0  0  0  0  0  0  0  0  0
   -5.8360   23.9030  -30.9360 C   0  0  0  0  0  0  0  0  0  0  0  0
   -7.2120   23.7040  -31.0410 C   0  0  0  0  0  0  0  0  0  0  0  0
   -8.0108   24.3958  -30.7356 H   0  0  0  0  0  0  0  0  0  0  0  0
   -7.3590   22.4580  -31.6080 C   0  0  0  0  0  0  0  0  0  0  0  0
   -8.5110   21.7600  -31.9590 C   0  0  0  0  0  0  0  0  0  0  0  0
   -9.5091   22.1834  -31.7731 H   0  0  0  0  0  0  0  0  0  0  0  0
   -8.3600   20.4980  -32.5580 C   0  0  0  0  0  0  0  0  0  0  0  0
   -9.2520   19.9237  -32.8488 H   0  0  0  0  0  0  0  0  0  0  0  0
   -7.0690   19.9560  -32.7920 C   0  0  0  0  0  0  0  0  0  0  0  0
   -6.9260   18.6760  -33.4390 N   0  0  0  0  0  0  0  0  0  0  0  0
   -7.6550   18.5630  -34.1810 H   0  0  0  0  0  0  0  0  0  0  0  0
   -7.0520   17.9050  -32.7420 H   0  0  0  0  0  0  0  0  0  0  0  0
   -5.5990   18.5620  -34.0470 C   0  0  0  0  0  0  0  0  0  0  0  0
   -4.8376   18.4966  -33.2558 H   0  0  0  0  0  0  0  0  0  0  0  0
   -5.5581   17.6570  -34.6710 H   0  0  0  0  0  0  0  0  0  0  0  0
   -5.4043   19.4467  -34.6710 H   0  0  0  0  0  0  0  0  0  0  0  0
   -5.9230   20.7020  -32.4330 C   0  0  0  0  0  0  0  0  0  0  0  0
   -4.9130   20.3114  -32.6263 H   0  0  0  0  0  0  0  0  0  0  0  0
   -6.1050   21.9490  -31.8260 C   0  0  0  0  0  0  0  0  0  0  0  0
   -5.1620   22.8210  -31.4130 N   0  0  0  0  0  0  0  0  0  0  0  0
   -3.7410   22.6640  -31.5560 C   0  0  0  0  0  0  0  0  0  0  0  0
   -2.9750   23.1550  -30.6850 O   0  0  0  0  0  0  0  0  0  0  0  0
   -3.1520   21.9560  -32.7080 C   0  0  0  0  0  0  0  0  0  0  0  0
   -3.7827   21.7591  -33.5875 H   0  0  0  0  0  0  0  0  0  0  0  0
   -1.8780   21.5440  -32.7230 C   0  0  0  0  0  0  0  0  0  0  0  0
   -1.2447   21.7363  -31.8444 H   0  0  0  0  0  0  0  0  0  0  0  0
   -1.3000   20.8420  -33.8790 C   0  0  0  0  0  0  0  0  0  0  0  0
   -1.7520   19.7090  -34.1980 O   0  0  0  0  0  0  0  0  0  0  0  0
   -0.2650   21.4250  -34.6180 O   0  0  0  0  0  0  0  0  0  0  0  0
    0.2800   20.8190  -35.7840 C   0  0  0  0  0  0  0  0  0  0  0  0
    0.9889   20.0308  -35.4904 H   0  0  0  0  0  0  0  0  0  0  0  0
   -0.5315   20.3782  -36.3816 H   0  0  0  0  0  0  0  0  0  0  0  0
    0.8041   21.5794  -36.3816 H   0  0  0  0  0  0  0  0  0  0  0  0
  1  2  1  0
  2  3  1  0
  3  4  2  0
  3  5  1  0
  5  6  2  0
  6  7  1  0
  6  8  1  0
  8  9  2  0
  9 10  1  0
  9 11  1  0
 11 12  1  0
 11 13  2  0
 13 14  1  0
 14 15  1  0
 14 16  1  0
 14 17  1  0
 17 18  1  0
 17 19  1  0
 17 20  1  0
 13 21  1  0
 21 22  1  0
 21 23  2  0
 23 24  1  0
 24 25  1  0
 25 26  2  0
 25 27  1  0
 27 28  1  0
 27 29  2  0
 29 30  1  0
 29 31  1  0
 31 32  2  0
 31 33  1  0
 33 34  1  0
 34 35  1  0
 34 36  1  0
 34 37  1  0
 24  5  1  0
 23  8  1  0
M  CHG  2   2  -1  14   1
M  END
>  <UniqueID>  (42) 
42

>  <SMILES>  (42) 
C[NH2+]c1ccc2cc(C([NH-])=O)n(C(=O)/C=C/C(=O)OC)c2c1

>  <Energy>  (42) 
72.3190053301491

>  <Genealogy>  (42) 
C[NH2+]c1ccc2cc(C([NH-])=O)n(C(=O)/C=C/C(=O)OC)c2c1 (protonated)
C[NH2+]c1ccc2cc(C([NH-])=O)n(C(=O)/C=C/C(=O)OC)c2c1 (cis-trans isomerization)
C[NH2+]c1ccc2cc(C([NH-])=O)n(C(=O)/C=C/C(=O)OC)c2c1 (3D coordinates assigned)
C[NH2+]c1ccc2cc(C([NH-])=O)n(C(=O)/C=C/C(=O)OC)c2c1 (optimized conformer: 72.3190053301491 kcal/mol)

>  <smiles>  (42) 
CNc1ccc2cc(C(N)=O)n(C(=O)/C=C/C(=O)OC)c2c1

>  <score_type>  (42) 
oracle

>  <origin>  (42) 
adg

>  <m_score__min__energy>  (42) 
-9.5199999999999996

>  <m_primary>  (42) 
energy

$$$$
43:0
     RDKit          3D

 49 50  0  0  0  0  0  0  0  0999 V2000
   -7.2820   18.4560  -32.7490 C   0  0  0  0  0  0  0  0  0  0  0  0
   -7.3520   19.9080  -32.3830 C   0  0  0  0  0  0  0  0  0  0  0  0
   -8.6040   20.5720  -32.3530 C   0  0  0  0  0  0  0  0  0  0  0  0
   -8.6920   21.9180  -31.9580 C   0  0  0  0  0  0  0  0  0  0  0  0
   -7.5180   22.5630  -31.5800 C   0  0  0  0  0  0  0  0  0  0  0  0
   -7.3190   23.8430  -31.1120 C   0  0  0  0  0  0  0  0  0  0  0  0
   -5.9510   23.9350  -30.8610 C   0  0  0  0  0  0  0  0  0  0  0  0
   -5.2810   25.1600  -30.3780 C   0  0  0  0  0  0  0  0  0  0  0  0
   -3.8770   25.3230  -30.5610 N   0  0  0  0  0  0  0  0  0  0  0  0
   -5.9350   26.0600  -29.7870 O   0  0  0  0  0  0  0  0  0  0  0  0
   -5.3330   22.7610  -31.1660 N   0  0  0  0  0  0  0  0  0  0  0  0
   -3.9440   22.4320  -31.0240 C   0  0  0  0  0  0  0  0  0  0  0  0
   -3.2720   22.1180  -32.0420 O   0  0  0  0  0  0  0  0  0  0  0  0
   -3.3140   22.3680  -29.6650 C   0  0  0  0  0  0  0  0  0  0  0  0
   -1.7970   22.1960  -29.7740 C   0  0  0  0  0  0  0  0  0  0  0  0
   -1.1550   23.4510  -29.9980 O   0  0  0  0  0  0  0  0  0  0  0  0
   -0.7980   24.3290  -28.9710 C   0  0  0  0  0  0  0  0  0  0  0  0
    0.3860   24.3550  -28.5340 O   0  0  0  0  0  0  0  0  0  0  0  0
   -1.7960   25.1860  -28.4070 N   0  0  0  0  0  0  0  0  0  0  0  0
   -1.5600   25.9990  -27.2150 C   0  0  0  0  0  0  0  0  0  0  0  0
   -2.3720   25.4870  -26.0180 C   0  0  0  0  0  0  0  0  0  0  0  0
   -1.5580   25.4210  -24.7840 N   0  0  0  0  0  0  0  0  0  0  0  0
   -0.4530   24.4580  -24.9280 C   0  0  0  0  0  0  0  0  0  0  0  0
   -1.0090   26.7540  -24.4840 C   0  0  0  0  0  0  0  0  0  0  0  0
   -6.3030   21.9330  -31.6040 C   0  0  0  0  0  0  0  0  0  0  0  0
   -6.1830   20.5960  -31.9950 C   0  0  0  0  0  0  0  0  0  0  0  0
   -7.2527   17.8479  -31.8328 H   0  0  0  0  0  0  0  0  0  0  0  0
   -8.1681   18.1840  -33.3414 H   0  0  0  0  0  0  0  0  0  0  0  0
   -6.3739   18.2705  -33.3414 H   0  0  0  0  0  0  0  0  0  0  0  0
   -9.5157   20.0285  -32.6417 H   0  0  0  0  0  0  0  0  0  0  0  0
   -9.6576   22.4447  -31.9479 H   0  0  0  0  0  0  0  0  0  0  0  0
   -8.0780   24.6259  -30.9672 H   0  0  0  0  0  0  0  0  0  0  0  0
   -3.5010   26.0430  -31.2160 H   0  0  0  0  0  0  0  0  0  0  0  0
   -3.5328   23.2995  -29.1223 H   0  0  0  0  0  0  0  0  0  0  0  0
   -3.7280   21.5031  -29.1260 H   0  0  0  0  0  0  0  0  0  0  0  0
   -1.4164   21.7590  -28.8391 H   0  0  0  0  0  0  0  0  0  0  0  0
   -1.5795   21.5341  -30.6252 H   0  0  0  0  0  0  0  0  0  0  0  0
   -2.7640   25.1450  -28.7990 H   0  0  0  0  0  0  0  0  0  0  0  0
   -0.4898   25.9627  -26.9632 H   0  0  0  0  0  0  0  0  0  0  0  0
   -1.8755   27.0303  -27.4315 H   0  0  0  0  0  0  0  0  0  0  0  0
   -3.2206   26.1660  -25.8479 H   0  0  0  0  0  0  0  0  0  0  0  0
   -2.7177   24.4693  -26.2521 H   0  0  0  0  0  0  0  0  0  0  0  0
   -0.1015   24.1516  -23.9317 H   0  0  0  0  0  0  0  0  0  0  0  0
   -0.8062   23.5745  -25.4799 H   0  0  0  0  0  0  0  0  0  0  0  0
    0.3740   24.9287  -25.4799 H   0  0  0  0  0  0  0  0  0  0  0  0
   -0.9528   26.8906  -23.3940 H   0  0  0  0  0  0  0  0  0  0  0  0
   -0.0016   26.8416  -24.9170 H   0  0  0  0  0  0  0  0  0  0  0  0
   -1.6625   27.5256  -24.9170 H   0  0  0  0  0  0  0  0  0  0  0  0
   -5.2041   20.0943  -32.0000 H   0  0  0  0  0  0  0  0  0  0  0  0
  1  2  1  0
  2  3  2  0
  3  4  1  0
  4  5  2  0
  5  6  1  0
  6  7  2  0
  7  8  1  0
  8  9  1  0
  8 10  2  0
  7 11  1  0
 11 12  1  0
 12 13  2  0
 12 14  1  0
 14 15  1  0
 15 16  1  0
 16 17  1  0
 17 18  2  0
 17 19  1  0
 19 20  1  0
 20 21  1  0
 21 22  1  0
 22 23  1  0
 22 24  1  0
 11 25  1  0
 25 26  2  0
 26  2  1  0
 25  5  1  0
  1 27  1  0
  1 28  1  0
  1 29  1  0
  3 30  1  0
  4 31  1  0
  6 32  1  0
  9 33  1  0
 14 34  1  0
 14 35  1  0
 15 36  1  0
 15 37  1  0
 19 38  1  0
 20 39  1  0
 20 40  1  0
 21 41  1  0
 21 42  1  0
 23 43  1  0
 23 44  1  0
 23 45  1  0
 24 46  1  0
 24 47  1  0
 24 48  1  0
 26 49  1  0
M  CHG  1   9  -1
M  END
>  <UniqueID>  (43) 
43

>  <SMILES>  (43) 
Cc1ccc2cc(C([NH-])=O)n(C(=O)CCOC(=O)NCCN(C)C)c2c1

>  <Energy>  (43) 
73.18695553922146

>  <Genealogy>  (43) 
Cc1ccc2cc(C([NH-])=O)n(C(=O)CCOC(=O)NCCN(C)C)c2c1 (protonated)
Cc1ccc2cc(C([NH-])=O)n(C(=O)CCOC(=O)NCCN(C)C)c2c1 (3D coordinates assigned)
Cc1ccc2cc(C([NH-])=O)n(C(=O)CCOC(=O)NCCN(C)C)c2c1 (optimized conformer: 73.18695553922146 kcal/mol)

>  <smiles>  (43) 
Cc1ccc2cc(C(N)=O)n(C(=O)CCOC(=O)NCCN(C)C)c2c1

>  <score_type>  (43) 
oracle

>  <origin>  (43) 
adg

>  <m_score__min__energy>  (43) 
-10.789999999999999

>  <m_primary>  (43) 
energy

$$$$
44:0
     RDKit          3D

 48 50  0  0  0  0  0  0  0  0999 V2000
   -6.8570   25.0280  -30.1830 C   0  0  0  0  0  0  0  0  0  0  0  0
   -6.0240   23.9330  -30.8780 C   0  0  0  0  0  0  0  0  0  0  0  0
   -6.2170   22.5740  -30.1770 C   0  0  0  0  0  0  0  0  0  0  0  0
   -6.4840   23.8080  -32.3370 C   0  0  0  0  0  0  0  0  0  0  0  0
   -4.6360   24.2930  -30.9010 O   0  0  0  0  0  0  0  0  0  0  0  0
   -3.7080   24.1010  -29.8680 C   0  0  0  0  0  0  0  0  0  0  0  0
   -3.9300   24.5390  -28.7060 O   0  0  0  0  0  0  0  0  0  0  0  0
   -2.5030   23.3660  -30.1330 N   0  0  0  0  0  0  0  0  0  0  0  0
   -1.2540   23.5940  -29.6380 C   0  0  0  0  0  0  0  0  0  0  0  0
   -0.8370   24.7650  -28.8360 C   0  0  0  0  0  0  0  0  0  0  0  0
   -1.5220   26.0090  -28.9430 N   0  0  0  0  0  0  0  0  0  0  0  0
    0.1680   24.6760  -28.0810 O   0  0  0  0  0  0  0  0  0  0  0  0
   -0.3730   22.6020  -30.0620 C   0  0  0  0  0  0  0  0  0  0  0  0
   -1.1240   21.7570  -30.8460 C   0  0  0  0  0  0  0  0  0  0  0  0
   -0.7580   20.5950  -31.5180 C   0  0  0  0  0  0  0  0  0  0  0  0
   -1.7510   19.9050  -32.2320 C   0  0  0  0  0  0  0  0  0  0  0  0
   -3.0900   20.3770  -32.2580 C   0  0  0  0  0  0  0  0  0  0  0  0
   -4.1350   19.6340  -33.0080 C   0  0  0  0  0  0  0  0  0  0  0  0
   -3.7880   18.5420  -33.8220 C   0  0  0  0  0  0  0  0  0  0  0  0
   -4.7710   17.8430  -34.5240 C   0  0  0  0  0  0  0  0  0  0  0  0
   -6.1120   18.2240  -34.4240 C   0  0  0  0  0  0  0  0  0  0  0  0
   -6.4800   19.3140  -33.6150 C   0  0  0  0  0  0  0  0  0  0  0  0
   -7.8110   19.7390  -33.4740 O   0  0  0  0  0  0  0  0  0  0  0  0
   -8.6180   19.5500  -32.3140 C   0  0  0  0  0  0  0  0  0  0  0  0
   -7.9500   18.7200  -31.4350 F   0  0  0  0  0  0  0  0  0  0  0  0
   -9.8200   18.9580  -32.6590 F   0  0  0  0  0  0  0  0  0  0  0  0
   -8.8510   20.7640  -31.6920 F   0  0  0  0  0  0  0  0  0  0  0  0
   -5.4870   20.0110  -32.9140 C   0  0  0  0  0  0  0  0  0  0  0  0
   -3.4210   21.5630  -31.5590 C   0  0  0  0  0  0  0  0  0  0  0  0
   -2.4070   22.2390  -30.8720 C   0  0  0  0  0  0  0  0  0  0  0  0
   -6.7720   24.9163  -29.0920 H   0  0  0  0  0  0  0  0  0  0  0  0
   -6.4819   26.0183  -30.4805 H   0  0  0  0  0  0  0  0  0  0  0  0
   -7.9115   24.9308  -30.4805 H   0  0  0  0  0  0  0  0  0  0  0  0
   -6.1966   22.7177  -29.0866 H   0  0  0  0  0  0  0  0  0  0  0  0
   -7.1853   22.1435  -30.4720 H   0  0  0  0  0  0  0  0  0  0  0  0
   -5.4069   21.8909  -30.4720 H   0  0  0  0  0  0  0  0  0  0  0  0
   -7.5452   23.5196  -32.3635 H   0  0  0  0  0  0  0  0  0  0  0  0
   -6.3538   24.7741  -32.8466 H   0  0  0  0  0  0  0  0  0  0  0  0
   -5.8827   23.0407  -32.8466 H   0  0  0  0  0  0  0  0  0  0  0  0
   -2.5640   26.0490  -28.9620 H   0  0  0  0  0  0  0  0  0  0  0  0
    0.6966   22.5130  -29.8211 H   0  0  0  0  0  0  0  0  0  0  0  0
    0.2785   20.2277  -31.4908 H   0  0  0  0  0  0  0  0  0  0  0  0
   -1.4882   18.9871  -32.7782 H   0  0  0  0  0  0  0  0  0  0  0  0
   -2.7347   18.2363  -33.9063 H   0  0  0  0  0  0  0  0  0  0  0  0
   -4.4895   16.9894  -35.1581 H   0  0  0  0  0  0  0  0  0  0  0  0
   -6.8823   17.6694  -34.9800 H   0  0  0  0  0  0  0  0  0  0  0  0
   -5.7687   20.8654  -32.2810 H   0  0  0  0  0  0  0  0  0  0  0  0
   -4.4527   21.9445  -31.5562 H   0  0  0  0  0  0  0  0  0  0  0  0
  1  2  1  0
  2  3  1  0
  2  4  1  0
  2  5  1  0
  5  6  1  0
  6  7  2  0
  6  8  1  0
  8  9  1  0
  9 10  1  0
 10 11  1  0
 10 12  2  0
  9 13  2  0
 13 14  1  0
 14 15  2  0
 15 16  1  0
 16 17  2  0
 17 18  1  0
 18 19  2  0
 19 20  1  0
 20 21  2  0
 21 22  1  0
 22 23  1  0
 23 24  1  0
 24 25  1  0
 24 26  1  0
 24 27  1  0
 22 28  2  0
 17 29  1  0
 29 30  2  0
 30  8  1  0
 30 14  1  0
 28 18  1  0
  1 31  1  0
  1 32  1  0
  1 33  1  0
  3 34  1  0
  3 35  1  0
  3 36  1  0
  4 37  1  0
  4 38  1  0
  4 39  1  0
 11 40  1  0
 13 41  1  0
 15 42  1  0
 16 43  1  0
 19 44  1  0
 20 45  1  0
 21 46  1  0
 28 47  1  0
 29 48  1  0
M  CHG  1  11  -1
M  END
>  <UniqueID>  (44) 
44

>  <SMILES>  (44) 
CC(C)(C)OC(=O)n1c(C([NH-])=O)cc2ccc(-c3cccc(OC(F)(F)F)c3)cc21

>  <Energy>  (44) 
89.71492817613435

>  <Genealogy>  (44) 
CC(C)(C)OC(=O)n1c(C([NH-])=O)cc2ccc(-c3cccc(OC(F)(F)F)c3)cc21 (protonated)
CC(C)(C)OC(=O)n1c(C([NH-])=O)cc2ccc(-c3cccc(OC(F)(F)F)c3)cc21 (3D coordinates assigned)
CC(C)(C)OC(=O)n1c(C([NH-])=O)cc2ccc(-c3cccc(OC(F)(F)F)c3)cc21 (optimized conformer: 89.71492817613435 kcal/mol)

>  <smiles>  (44) 
CC(C)(C)OC(=O)n1c(C(N)=O)cc2ccc(-c3cccc(OC(F)(F)F)c3)cc21

>  <score_type>  (44) 
oracle

>  <origin>  (44) 
adg

>  <m_score__min__energy>  (44) 
-11.57

>  <m_primary>  (44) 
energy

$$$$
45:0
     RDKit          3D

 32 33  0  0  0  0  0  0  0  0999 V2000
   -7.1360   17.0320  -33.0020 C   0  0  0  0  0  0  0  0  0  0  0  0
   -7.1520   18.1980  -32.6960 C   0  0  0  0  0  0  0  0  0  0  0  0
   -7.1700   19.5900  -32.3290 C   0  0  0  0  0  0  0  0  0  0  0  0
   -8.3960   20.2930  -32.2990 C   0  0  0  0  0  0  0  0  0  0  0  0
   -8.4260   21.6560  -31.9570 C   0  0  0  0  0  0  0  0  0  0  0  0
   -7.2190   22.2760  -31.6440 C   0  0  0  0  0  0  0  0  0  0  0  0
   -6.9590   23.5840  -31.3060 C   0  0  0  0  0  0  0  0  0  0  0  0
   -5.5810   23.6460  -31.1120 C   0  0  0  0  0  0  0  0  0  0  0  0
   -4.8760   24.8620  -30.6590 C   0  0  0  0  0  0  0  0  0  0  0  0
   -3.6210   24.7830  -29.9840 N   0  0  0  0  0  0  0  0  0  0  0  0
   -5.4210   25.9880  -30.8200 O   0  0  0  0  0  0  0  0  0  0  0  0
   -5.0090   22.4300  -31.3330 N   0  0  0  0  0  0  0  0  0  0  0  0
   -3.6090   22.1160  -31.3530 C   0  0  0  0  0  0  0  0  0  0  0  0
   -2.9700   22.1560  -32.4400 O   0  0  0  0  0  0  0  0  0  0  0  0
   -2.9560   21.7780  -30.1620 O   0  0  0  0  0  0  0  0  0  0  0  0
   -1.5870   22.1010  -29.9210 C   0  0  0  0  0  0  0  0  0  0  0  0
   -1.3020   23.4170  -30.3350 O   0  0  0  0  0  0  0  0  0  0  0  0
   -1.0220   24.3960  -28.9660 P   0  0  0  0  0  0  0  0  0  0  0  0
   -1.9990   24.0080  -27.8810 O   0  0  0  0  0  0  0  0  0  0  0  0
    0.5510   24.1430  -28.4010 O   0  0  0  0  0  0  0  0  0  0  0  0
   -1.2350   26.0360  -29.3290 O   0  0  0  0  0  0  0  0  0  0  0  0
   -6.0260   21.6000  -31.6530 C   0  0  0  0  0  0  0  0  0  0  0  0
   -5.9650   20.2470  -32.0110 C   0  0  0  0  0  0  0  0  0  0  0  0
   -7.1214   15.9681  -33.2812 H   0  0  0  0  0  0  0  0  0  0  0  0
   -9.3321   19.7703  -32.5448 H   0  0  0  0  0  0  0  0  0  0  0  0
   -9.3730   22.2153  -31.9372 H   0  0  0  0  0  0  0  0  0  0  0  0
   -7.6843   24.4054  -31.2096 H   0  0  0  0  0  0  0  0  0  0  0  0
   -3.1240   25.6570  -29.7020 H   0  0  0  0  0  0  0  0  0  0  0  0
   -3.2230   23.8660  -29.6860 H   0  0  0  0  0  0  0  0  0  0  0  0
   -1.3790   22.0087  -28.8448 H   0  0  0  0  0  0  0  0  0  0  0  0
   -0.9552   21.4069  -30.4946 H   0  0  0  0  0  0  0  0  0  0  0  0
   -5.0039   19.7129  -32.0429 H   0  0  0  0  0  0  0  0  0  0  0  0
  1  2  3  0
  2  3  1  0
  3  4  2  0
  4  5  1  0
  5  6  2  0
  6  7  1  0
  7  8  2  0
  8  9  1  0
  9 10  1  0
  9 11  2  0
  8 12  1  0
 12 13  1  0
 13 14  2  0
 13 15  1  0
 15 16  1  0
 16 17  1  0
 17 18  1  0
 18 19  2  0
 18 20  1  0
 18 21  1  0
 12 22  1  0
 22 23  2  0
 23  3  1  0
 22  6  1  0
  1 24  1  0
  4 25  1  0
  5 26  1  0
  7 27  1  0
 10 28  1  0
 10 29  1  0
 16 30  1  0
 16 31  1  0
 23 32  1  0
M  CHG  2  20  -1  21  -1
M  END
>  <UniqueID>  (45) 
45

>  <SMILES>  (45) 
C#Cc1ccc2cc(C(N)=O)n(C(=O)OCOP(=O)([O-])[O-])c2c1

>  <Energy>  (45) 
67.62638411726883

>  <Genealogy>  (45) 
C#Cc1ccc2cc(C(N)=O)n(C(=O)OCOP(=O)([O-])[O-])c2c1 (protonated)
C#Cc1ccc2cc(C(N)=O)n(C(=O)OCOP(=O)([O-])[O-])c2c1 (3D coordinates assigned)
C#Cc1ccc2cc(C(N)=O)n(C(=O)OCOP(=O)([O-])[O-])c2c1 (optimized conformer: 67.62638411726883 kcal/mol)

>  <smiles>  (45) 
C#Cc1ccc2cc(C(N)=O)n(C(=O)OCOP(=O)(O)O)c2c1

>  <score_type>  (45) 
oracle

>  <origin>  (45) 
adg

>  <m_score__min__energy>  (45) 
-13.109999999999999

>  <m_primary>  (45) 
energy

$$$$
46:0
     RDKit          3D

 38 39  0  0  0  0  0  0  0  0999 V2000
   -6.3084   16.4320  -34.3912 H   0  0  0  0  0  0  0  0  0  0  0  0
   -6.4690   17.4100  -33.9140 C   0  0  0  0  0  0  0  0  0  0  0  0
   -6.6450   18.4820  -33.3910 C   0  0  0  0  0  0  0  0  0  0  0  0
   -6.8540   19.7620  -32.7660 C   0  0  0  0  0  0  0  0  0  0  0  0
   -8.1680   20.2490  -32.5810 C   0  0  0  0  0  0  0  0  0  0  0  0
   -9.0258   19.6515  -32.9232 H   0  0  0  0  0  0  0  0  0  0  0  0
   -8.3850   21.4930  -31.9620 C   0  0  0  0  0  0  0  0  0  0  0  0
   -9.4032   21.8798  -31.8080 H   0  0  0  0  0  0  0  0  0  0  0  0
   -7.2710   22.2200  -31.5500 C   0  0  0  0  0  0  0  0  0  0  0  0
   -7.1960   23.4360  -30.9120 C   0  0  0  0  0  0  0  0  0  0  0  0
   -8.0330   24.0796  -30.6036 H   0  0  0  0  0  0  0  0  0  0  0  0
   -5.8350   23.6800  -30.7390 C   0  0  0  0  0  0  0  0  0  0  0  0
   -5.2900   24.9340  -30.1730 C   0  0  0  0  0  0  0  0  0  0  0  0
   -6.0610   25.7730  -29.6360 O   0  0  0  0  0  0  0  0  0  0  0  0
   -3.8860   25.1950  -30.1950 N   0  0  0  0  0  0  0  0  0  0  0  0
   -3.5070   26.0640  -29.7580 H   0  0  0  0  0  0  0  0  0  0  0  0
   -3.2220   24.5500  -30.6790 H   0  0  0  0  0  0  0  0  0  0  0  0
   -5.0970   22.6520  -31.2470 N   0  0  0  0  0  0  0  0  0  0  0  0
   -3.6670   22.4980  -31.2190 C   0  0  0  0  0  0  0  0  0  0  0  0
   -3.0360   22.2860  -32.2910 O   0  0  0  0  0  0  0  0  0  0  0  0
   -2.9830   22.6050  -30.0050 O   0  0  0  0  0  0  0  0  0  0  0  0
   -1.5980   22.7650  -29.9160 C   0  0  0  0  0  0  0  0  0  0  0  0
   -0.9277   21.9901  -30.3163 H   0  0  0  0  0  0  0  0  0  0  0  0
   -1.0910   23.8530  -29.3480 C   0  0  0  0  0  0  0  0  0  0  0  0
   -0.0002   23.9743  -29.2737 H   0  0  0  0  0  0  0  0  0  0  0  0
   -1.9360   24.8430  -28.8450 O   0  0  0  0  0  0  0  0  0  0  0  0
   -1.8640   25.2960  -27.4960 C   0  0  0  0  0  0  0  0  0  0  0  0
   -0.9802   24.8523  -27.0143 H   0  0  0  0  0  0  0  0  0  0  0  0
   -1.7914   26.3936  -27.4984 H   0  0  0  0  0  0  0  0  0  0  0  0
   -3.1160   24.8920  -26.7140 C   0  0  0  0  0  0  0  0  0  0  0  0
   -2.8596   24.0787  -26.0191 H   0  0  0  0  0  0  0  0  0  0  0  0
   -3.4827   25.7692  -26.1609 H   0  0  0  0  0  0  0  0  0  0  0  0
   -4.1690   24.4360  -27.6150 N   0  0  0  0  0  0  0  0  0  0  0  0
   -4.5940   25.2760  -28.0730 H   0  0  0  0  0  0  0  0  0  0  0  0
   -3.7160   23.8810  -28.3770 H   0  0  0  0  0  0  0  0  0  0  0  0
   -5.9910   21.7660  -31.7420 C   0  0  0  0  0  0  0  0  0  0  0  0
   -5.7470   20.5220  -32.3390 C   0  0  0  0  0  0  0  0  0  0  0  0
   -4.7204   20.1493  -32.4706 H   0  0  0  0  0  0  0  0  0  0  0  0
  1  2  1  0
  2  3  3  0
  3  4  1  0
  4  5  2  0
  5  6  1  0
  5  7  1  0
  7  8  1  0
  7  9  2  0
  9 10  1  0
 10 11  1  0
 10 12  2  0
 12 13  1  0
 13 14  2  0
 13 15  1  0
 15 16  1  0
 15 17  1  0
 12 18  1  0
 18 19  1  0
 19 20  2  0
 19 21  1  0
 21 22  1  0
 22 23  1  0
 22 24  2  0
 24 25  1  0
 24 26  1  0
 26 27  1  0
 27 28  1  0
 27 29  1  0
 27 30  1  0
 30 31  1  0
 30 32  1  0
 30 33  1  0
 33 34  1  0
 33 35  1  0
 18 36  1  0
 36 37  2  0
 37 38  1  0
 37  4  1  0
 36  9  1  0
M  END
>  <UniqueID>  (46) 
46

>  <SMILES>  (46) 
C#Cc1ccc2cc(C(N)=O)n(C(=O)O/C=C\OCCN)c2c1

>  <Energy>  (46) 
66.79534314442634

>  <Genealogy>  (46) 
C#Cc1ccc2cc(C(N)=O)n(C(=O)O/C=C\OCCN)c2c1 (cis-trans isomerization)
C#Cc1ccc2cc(C(N)=O)n(C(=O)O/C=C\OCCN)c2c1 (3D coordinates assigned)
C#Cc1ccc2cc(C(N)=O)n(C(=O)O/C=C\OCCN)c2c1 (optimized conformer: 66.79534314442634 kcal/mol)

>  <smiles>  (46) 
C#Cc1ccc2cc(C(N)=O)n(C(=O)OC=COCCN)c2c1

>  <score_type>  (46) 
oracle

>  <origin>  (46) 
adg

>  <m_score__min__energy>  (46) 
-8.4900000000000002

>  <m_primary>  (46) 
energy

$$$$
47:0
     RDKit          3D

 44 45  0  0  0  0  0  0  0  0999 V2000
   -0.2960   23.9720  -25.3090 C   0  0  0  0  0  0  0  0  0  0  0  0
   -1.2410   24.1080  -26.4200 N   0  0  0  0  0  0  0  0  0  0  0  0
   -1.5950   25.4370  -26.9370 C   0  0  0  0  0  0  0  0  0  0  0  0
   -0.8160   25.7490  -28.2160 C   0  0  0  0  0  0  0  0  0  0  0  0
   -1.5310   25.3270  -29.3460 O   0  0  0  0  0  0  0  0  0  0  0  0
   -1.7890   22.9190  -27.0190 C   0  0  0  0  0  0  0  0  0  0  0  0
   -1.4250   21.7800  -26.6140 O   0  0  0  0  0  0  0  0  0  0  0  0
   -2.7310   23.0290  -28.0490 O   0  0  0  0  0  0  0  0  0  0  0  0
   -2.7970   22.1130  -29.1380 C   0  0  0  0  0  0  0  0  0  0  0  0
   -2.8930   22.8240  -30.3680 O   0  0  0  0  0  0  0  0  0  0  0  0
   -3.6810   22.3850  -31.4390 C   0  0  0  0  0  0  0  0  0  0  0  0
   -3.1500   21.7850  -32.4140 O   0  0  0  0  0  0  0  0  0  0  0  0
   -5.0970   22.6220  -31.4290 N   0  0  0  0  0  0  0  0  0  0  0  0
   -5.7450   23.7620  -31.0580 C   0  0  0  0  0  0  0  0  0  0  0  0
   -5.1080   25.0570  -30.7450 C   0  0  0  0  0  0  0  0  0  0  0  0
   -3.9010   25.1240  -29.9840 N   0  0  0  0  0  0  0  0  0  0  0  0
   -5.6080   26.1190  -31.2020 O   0  0  0  0  0  0  0  0  0  0  0  0
   -7.1230   23.5630  -31.0470 C   0  0  0  0  0  0  0  0  0  0  0  0
   -7.3030   22.2550  -31.4350 C   0  0  0  0  0  0  0  0  0  0  0  0
   -8.4750   21.5190  -31.5840 C   0  0  0  0  0  0  0  0  0  0  0  0
   -8.3630   20.1690  -31.9570 C   0  0  0  0  0  0  0  0  0  0  0  0
   -7.0890   19.5710  -32.1460 C   0  0  0  0  0  0  0  0  0  0  0  0
   -6.9770   18.1300  -32.5730 C   0  0  0  0  0  0  0  0  0  0  0  0
   -8.1940   17.5020  -32.3760 F   0  0  0  0  0  0  0  0  0  0  0  0
   -6.6360   18.0440  -33.9120 F   0  0  0  0  0  0  0  0  0  0  0  0
   -6.0060   17.4740  -31.8370 F   0  0  0  0  0  0  0  0  0  0  0  0
   -5.9240   20.3610  -32.0090 C   0  0  0  0  0  0  0  0  0  0  0  0
   -6.0650   21.7090  -31.6570 C   0  0  0  0  0  0  0  0  0  0  0  0
   -0.8380   24.0500  -24.3550 H   0  0  0  0  0  0  0  0  0  0  0  0
    0.2019   22.9930  -25.3689 H   0  0  0  0  0  0  0  0  0  0  0  0
    0.4577   24.7709  -25.3689 H   0  0  0  0  0  0  0  0  0  0  0  0
   -2.6727   25.4632  -27.1560 H   0  0  0  0  0  0  0  0  0  0  0  0
   -1.3396   26.1899  -26.1768 H   0  0  0  0  0  0  0  0  0  0  0  0
   -0.6464   26.8340  -28.2802 H   0  0  0  0  0  0  0  0  0  0  0  0
    0.1448   25.2143  -28.1848 H   0  0  0  0  0  0  0  0  0  0  0  0
   -1.6760   24.3500  -29.2410 H   0  0  0  0  0  0  0  0  0  0  0  0
   -1.8895   21.4914  -29.1465 H   0  0  0  0  0  0  0  0  0  0  0  0
   -3.6853   21.4751  -29.0196 H   0  0  0  0  0  0  0  0  0  0  0  0
   -3.4890   26.0510  -29.7370 H   0  0  0  0  0  0  0  0  0  0  0  0
   -3.3660   24.2610  -29.7420 H   0  0  0  0  0  0  0  0  0  0  0  0
   -7.9012   24.2947  -30.7844 H   0  0  0  0  0  0  0  0  0  0  0  0
   -9.4592   21.9803  -31.4148 H   0  0  0  0  0  0  0  0  0  0  0  0
   -9.2727   19.5684  -32.1043 H   0  0  0  0  0  0  0  0  0  0  0  0
   -4.9277   19.9256  -32.1755 H   0  0  0  0  0  0  0  0  0  0  0  0
  1  2  1  0
  2  3  1  0
  3  4  1  0
  4  5  1  0
  2  6  1  0
  6  7  2  0
  6  8  1  0
  8  9  1  0
  9 10  1  0
 10 11  1  0
 11 12  2  0
 11 13  1  0
 13 14  1  0
 14 15  1  0
 15 16  1  0
 15 17  2  0
 14 18  2  0
 18 19  1  0
 19 20  2  0
 20 21  1  0
 21 22  2  0
 22 23  1  0
 23 24  1  0
 23 25  1  0
 23 26  1  0
 22 27  1  0
 27 28  2  0
 28 13  1  0
 28 19  1  0
  1 29  1  0
  1 30  1  0
  1 31  1  0
  3 32  1  0
  3 33  1  0
  4 34  1  0
  4 35  1  0
  5 36  1  0
  9 37  1  0
  9 38  1  0
 16 39  1  0
 16 40  1  0
 18 41  1  0
 20 42  1  0
 21 43  1  0
 27 44  1  0
M  END
>  <UniqueID>  (47) 
47

>  <SMILES>  (47) 
CN(CCO)C(=O)OCOC(=O)n1c(C(N)=O)cc2ccc(C(F)(F)F)cc21

>  <Energy>  (47) 
74.57739883907423

>  <Genealogy>  (47) 
CN(CCO)C(=O)OCOC(=O)n1c(C(N)=O)cc2ccc(C(F)(F)F)cc21 (3D coordinates assigned)
CN(CCO)C(=O)OCOC(=O)n1c(C(N)=O)cc2ccc(C(F)(F)F)cc21 (optimized conformer: 74.57739883907423 kcal/mol)

>  <smiles>  (47) 
CN(CCO)C(=O)OCOC(=O)n1c(C(N)=O)cc2ccc(C(F)(F)F)cc21

>  <score_type>  (47) 
oracle

>  <origin>  (47) 
adg

>  <m_score__min__energy>  (47) 
-8.2599999999999998

>  <m_primary>  (47) 
energy

$$$$
48:0
     RDKit          3D

 44 46  0  0  0  0  0  0  0  0999 V2000
   -0.9220   21.5590  -31.2560 C   0  0  0  0  0  0  0  0  0  0  0  0
   -2.4010   21.1310  -31.3080 C   0  0  0  0  0  0  0  0  0  0  0  0
   -2.5280   19.8850  -32.1980 C   0  0  0  0  0  0  0  0  0  0  0  0
   -2.9200   20.7910  -29.8980 C   0  0  0  0  0  0  0  0  0  0  0  0
   -3.2030   22.1590  -31.9060 O   0  0  0  0  0  0  0  0  0  0  0  0
   -3.9430   23.1400  -31.2280 C   0  0  0  0  0  0  0  0  0  0  0  0
   -3.3650   24.0620  -30.5930 O   0  0  0  0  0  0  0  0  0  0  0  0
   -5.3770   23.0870  -31.2590 N   0  0  0  0  0  0  0  0  0  0  0  0
   -6.2540   24.0070  -30.7660 C   0  0  0  0  0  0  0  0  0  0  0  0
   -5.9010   25.3390  -30.2310 C   0  0  0  0  0  0  0  0  0  0  0  0
   -6.4830   25.8290  -29.0230 N   0  0  0  0  0  0  0  0  0  0  0  0
   -5.0310   26.0320  -30.8220 O   0  0  0  0  0  0  0  0  0  0  0  0
   -7.5630   23.5490  -30.8790 C   0  0  0  0  0  0  0  0  0  0  0  0
   -7.4640   22.3120  -31.4750 C   0  0  0  0  0  0  0  0  0  0  0  0
   -8.4590   21.4040  -31.8200 C   0  0  0  0  0  0  0  0  0  0  0  0
   -8.0680   20.1840  -32.3950 C   0  0  0  0  0  0  0  0  0  0  0  0
   -6.6940   19.8830  -32.6010 C   0  0  0  0  0  0  0  0  0  0  0  0
   -6.2690   18.5930  -33.2030 C   0  0  0  0  0  0  0  0  0  0  0  0
   -6.9250   17.3840  -32.9050 C   0  0  0  0  0  0  0  0  0  0  0  0
   -6.4820   16.1960  -33.4930 C   0  0  0  0  0  0  0  0  0  0  0  0
   -5.3950   16.2160  -34.3670 C   0  0  0  0  0  0  0  0  0  0  0  0
   -4.9560   15.0700  -34.9420 F   0  0  0  0  0  0  0  0  0  0  0  0
   -4.7590   17.4290  -34.6360 C   0  0  0  0  0  0  0  0  0  0  0  0
   -5.2040   18.5740  -34.0550 N   0  0  0  0  0  0  0  0  0  0  0  0
   -5.7150   20.8380  -32.2420 C   0  0  0  0  0  0  0  0  0  0  0  0
   -6.1350   22.0560  -31.6930 C   0  0  0  0  0  0  0  0  0  0  0  0
   -0.6036   21.6511  -30.2071 H   0  0  0  0  0  0  0  0  0  0  0  0
   -0.3035   20.8030  -31.7619 H   0  0  0  0  0  0  0  0  0  0  0  0
   -0.8028   22.5285  -31.7619 H   0  0  0  0  0  0  0  0  0  0  0  0
   -2.6192   18.9900  -31.5650 H   0  0  0  0  0  0  0  0  0  0  0  0
   -3.4214   19.9775  -32.8331 H   0  0  0  0  0  0  0  0  0  0  0  0
   -1.6343   19.7954  -32.8331 H   0  0  0  0  0  0  0  0  0  0  0  0
   -2.2495   21.2303  -29.1447 H   0  0  0  0  0  0  0  0  0  0  0  0
   -3.9327   21.2013  -29.7712 H   0  0  0  0  0  0  0  0  0  0  0  0
   -2.9484   19.6987  -29.7712 H   0  0  0  0  0  0  0  0  0  0  0  0
   -7.0720   25.2140  -28.4180 H   0  0  0  0  0  0  0  0  0  0  0  0
   -6.2540   26.7890  -28.6840 H   0  0  0  0  0  0  0  0  0  0  0  0
   -8.4807   24.0650  -30.5603 H   0  0  0  0  0  0  0  0  0  0  0  0
   -9.5207   21.6345  -31.6477 H   0  0  0  0  0  0  0  0  0  0  0  0
   -8.8345   19.4521  -32.6897 H   0  0  0  0  0  0  0  0  0  0  0  0
   -7.7807   17.3742  -32.2139 H   0  0  0  0  0  0  0  0  0  0  0  0
   -6.9897   15.2467  -33.2669 H   0  0  0  0  0  0  0  0  0  0  0  0
   -3.8970   17.4581  -35.3187 H   0  0  0  0  0  0  0  0  0  0  0  0
   -4.6454   20.6286  -32.3909 H   0  0  0  0  0  0  0  0  0  0  0  0
  1  2  1  0
  2  3  1  0
  2  4  1  0
  2  5  1  0
  5  6  1  0
  6  7  2  0
  6  8  1  0
  8  9  1  0
  9 10  1  0
 10 11  1  0
 10 12  2  0
  9 13  2  0
 13 14  1  0
 14 15  2  0
 15 16  1  0
 16 17  2  0
 17 18  1  0
 18 19  2  0
 19 20  1  0
 20 21  2  0
 21 22  1  0
 21 23  1  0
 23 24  2  0
 17 25  1  0
 25 26  2  0
 26  8  1  0
 26 14  1  0
 24 18  1  0
  1 27  1  0
  1 28  1  0
  1 29  1  0
  3 30  1  0
  3 31  1  0
  3 32  1  0
  4 33  1  0
  4 34  1  0
  4 35  1  0
 11 36  1  0
 11 37  1  0
 13 38  1  0
 15 39  1  0
 16 40  1  0
 19 41  1  0
 20 42  1  0
 23 43  1  0
 25 44  1  0
M  END
>  <UniqueID>  (48) 
48

>  <SMILES>  (48) 
CC(C)(C)OC(=O)n1c(C(N)=O)cc2ccc(-c3ccc(F)cn3)cc21

>  <Energy>  (48) 
85.20517733391208

>  <Genealogy>  (48) 
CC(C)(C)OC(=O)n1c(C(N)=O)cc2ccc(-c3ccc(F)cn3)cc21 (3D coordinates assigned)
CC(C)(C)OC(=O)n1c(C(N)=O)cc2ccc(-c3ccc(F)cn3)cc21 (optimized conformer: 85.20517733391208 kcal/mol)

>  <smiles>  (48) 
CC(C)(C)OC(=O)n1c(C(N)=O)cc2ccc(-c3ccc(F)cn3)cc21

>  <score_type>  (48) 
oracle

>  <origin>  (48) 
adg

>  <m_score__min__energy>  (48) 
-9.6500000000000004

>  <m_primary>  (48) 
energy

$$$$
49:0
     RDKit          3D

 52 53  0  0  0  0  0  0  0  0999 V2000
   -2.9440   20.3980  -33.1390 C   0  0  0  0  0  0  0  0  0  0  0  0
   -2.0780   20.8050  -31.9490 C   0  0  0  0  0  0  0  0  0  0  0  0
   -2.7250   20.4330  -30.6080 C   0  0  0  0  0  0  0  0  0  0  0  0
   -3.3790   21.5920  -29.9870 N   0  0  0  0  0  0  0  0  0  0  0  0
   -3.5240   21.6660  -28.5300 C   0  0  0  0  0  0  0  0  0  0  0  0
   -2.9620   22.9520  -28.0000 C   0  0  0  0  0  0  0  0  0  0  0  0
   -3.5760   24.0320  -28.2040 O   0  0  0  0  0  0  0  0  0  0  0  0
   -1.7000   22.9740  -27.3210 N   0  0  0  0  0  0  0  0  0  0  0  0
   -1.3020   21.8030  -26.5390 C   0  0  0  0  0  0  0  0  0  0  0  0
   -0.8440   24.1640  -27.4030 C   0  0  0  0  0  0  0  0  0  0  0  0
   -0.5730   24.5420  -28.8590 C   0  0  0  0  0  0  0  0  0  0  0  0
   -1.6220   25.3360  -29.3380 O   0  0  0  0  0  0  0  0  0  0  0  0
   -3.8820   22.6580  -30.8080 C   0  0  0  0  0  0  0  0  0  0  0  0
   -3.0790   23.4630  -31.3490 O   0  0  0  0  0  0  0  0  0  0  0  0
   -5.2930   22.8540  -30.9590 N   0  0  0  0  0  0  0  0  0  0  0  0
   -5.9950   24.0160  -30.8480 C   0  0  0  0  0  0  0  0  0  0  0  0
   -5.4650   25.3020  -30.3570 C   0  0  0  0  0  0  0  0  0  0  0  0
   -4.1070   25.6650  -30.5850 N   0  0  0  0  0  0  0  0  0  0  0  0
   -6.2100   26.0760  -29.7010 O   0  0  0  0  0  0  0  0  0  0  0  0
   -7.3240   23.8190  -31.2220 C   0  0  0  0  0  0  0  0  0  0  0  0
   -7.4150   22.4850  -31.5490 C   0  0  0  0  0  0  0  0  0  0  0  0
   -8.5090   21.7390  -31.9770 C   0  0  0  0  0  0  0  0  0  0  0  0
   -8.3130   20.3720  -32.2360 C   0  0  0  0  0  0  0  0  0  0  0  0
   -7.0330   19.7800  -32.0740 C   0  0  0  0  0  0  0  0  0  0  0  0
   -6.8540   18.3010  -32.3030 C   0  0  0  0  0  0  0  0  0  0  0  0
   -6.1080   17.7300  -31.2860 F   0  0  0  0  0  0  0  0  0  0  0  0
   -8.0950   17.6930  -32.3450 F   0  0  0  0  0  0  0  0  0  0  0  0
   -6.1980   18.0740  -33.5010 F   0  0  0  0  0  0  0  0  0  0  0  0
   -5.9540   20.5680  -31.6090 C   0  0  0  0  0  0  0  0  0  0  0  0
   -6.1780   21.9270  -31.3750 C   0  0  0  0  0  0  0  0  0  0  0  0
   -3.8834   19.9565  -32.7749 H   0  0  0  0  0  0  0  0  0  0  0  0
   -3.1682   21.2850  -33.7497 H   0  0  0  0  0  0  0  0  0  0  0  0
   -2.4042   19.6593  -33.7497 H   0  0  0  0  0  0  0  0  0  0  0  0
   -1.1063   20.2954  -32.0271 H   0  0  0  0  0  0  0  0  0  0  0  0
   -1.9595   21.8983  -31.9754 H   0  0  0  0  0  0  0  0  0  0  0  0
   -3.4761   19.6477  -30.7790 H   0  0  0  0  0  0  0  0  0  0  0  0
   -1.9350   20.0778  -29.9300 H   0  0  0  0  0  0  0  0  0  0  0  0
   -4.5914   21.6057  -28.2709 H   0  0  0  0  0  0  0  0  0  0  0  0
   -2.9709   20.8289  -28.0791 H   0  0  0  0  0  0  0  0  0  0  0  0
   -1.3806   22.0343  -25.4665 H   0  0  0  0  0  0  0  0  0  0  0  0
   -1.9635   20.9582  -26.7813 H   0  0  0  0  0  0  0  0  0  0  0  0
   -0.2627   21.5362  -26.7813 H   0  0  0  0  0  0  0  0  0  0  0  0
   -1.3459   25.0039  -26.9003 H   0  0  0  0  0  0  0  0  0  0  0  0
    0.1155   23.9410  -26.9135 H   0  0  0  0  0  0  0  0  0  0  0  0
    0.3706   25.1038  -28.9225 H   0  0  0  0  0  0  0  0  0  0  0  0
   -0.4974   23.6285  -29.4670 H   0  0  0  0  0  0  0  0  0  0  0  0
   -2.2500   24.7190  -29.7930 H   0  0  0  0  0  0  0  0  0  0  0  0
   -3.3340   25.2150  -30.0450 H   0  0  0  0  0  0  0  0  0  0  0  0
   -8.1278   24.5694  -31.2498 H   0  0  0  0  0  0  0  0  0  0  0  0
   -9.4967   22.2051  -32.1085 H   0  0  0  0  0  0  0  0  0  0  0  0
   -9.1604   19.7540  -32.5678 H   0  0  0  0  0  0  0  0  0  0  0  0
   -4.9635   20.1219  -31.4360 H   0  0  0  0  0  0  0  0  0  0  0  0
  1  2  1  0
  2  3  1  0
  3  4  1  0
  4  5  1  0
  5  6  1  0
  6  7  2  0
  6  8  1  0
  8  9  1  0
  8 10  1  0
 10 11  1  0
 11 12  1  0
  4 13  1  0
 13 14  2  0
 13 15  1  0
 15 16  1  0
 16 17  1  0
 17 18  1  0
 17 19  2  0
 16 20  2  0
 20 21  1  0
 21 22  2  0
 22 23  1  0
 23 24  2  0
 24 25  1  0
 25 26  1  0
 25 27  1  0
 25 28  1  0
 24 29  1  0
 29 30  2  0
 30 15  1  0
 30 21  1  0
  1 31  1  0
  1 32  1  0
  1 33  1  0
  2 34  1  0
  2 35  1  0
  3 36  1  0
  3 37  1  0
  5 38  1  0
  5 39  1  0
  9 40  1  0
  9 41  1  0
  9 42  1  0
 10 43  1  0
 10 44  1  0
 11 45  1  0
 11 46  1  0
 12 47  1  0
 18 48  1  0
 20 49  1  0
 22 50  1  0
 23 51  1  0
 29 52  1  0
M  CHG  1  18  -1
M  END
>  <UniqueID>  (49) 
49

>  <SMILES>  (49) 
CCCN(CC(=O)N(C)CCO)C(=O)n1c(C([NH-])=O)cc2ccc(C(F)(F)F)cc21

>  <Energy>  (49) 
88.23028061796767

>  <Genealogy>  (49) 
CCCN(CC(=O)N(C)CCO)C(=O)n1c(C([NH-])=O)cc2ccc(C(F)(F)F)cc21 (protonated)
CCCN(CC(=O)N(C)CCO)C(=O)n1c(C([NH-])=O)cc2ccc(C(F)(F)F)cc21 (3D coordinates assigned)
CCCN(CC(=O)N(C)CCO)C(=O)n1c(C([NH-])=O)cc2ccc(C(F)(F)F)cc21 (optimized conformer: 88.23028061796767 kcal/mol)

>  <smiles>  (49) 
CCCN(CC(=O)N(C)CCO)C(=O)n1c(C(N)=O)cc2ccc(C(F)(F)F)cc21

>  <score_type>  (49) 
oracle

>  <origin>  (49) 
adg

>  <m_score__min__energy>  (49) 
-10.16

>  <m_primary>  (49) 
energy

$$$$
50:0
     RDKit          3D

 34 35  0  0  0  0  0  0  0  0999 V2000
   -3.3990   16.7640  -34.8610 N   0  0  0  0  0  0  0  0  0  0  0  0
   -4.4600   17.7210  -34.8470 C   0  0  0  0  0  0  0  0  0  0  0  0
   -5.3840   17.6280  -35.6980 O   0  0  0  0  0  0  0  0  0  0  0  0
   -4.4570   18.8530  -33.9000 C   0  0  0  0  0  0  0  0  0  0  0  0
   -5.6100   19.3560  -33.3050 C   0  0  0  0  0  0  0  0  0  0  0  0
   -5.1920   20.4290  -32.5540 C   0  0  0  0  0  0  0  0  0  0  0  0
   -5.9230   21.2890  -31.7420 C   0  0  0  0  0  0  0  0  0  0  0  0
   -5.2300   22.2920  -31.0470 C   0  0  0  0  0  0  0  0  0  0  0  0
   -3.8170   22.4150  -31.1640 C   0  0  0  0  0  0  0  0  0  0  0  0
   -3.0740   23.4250  -30.4500 N   0  0  0  0  0  0  0  0  0  0  0  0
   -3.2650   23.7570  -29.0330 C   0  0  2  0  0  0  0  0  0  0  0  0
   -4.5970   24.5060  -28.8440 C   0  0  0  0  0  0  0  0  0  0  0  0
   -4.9780   25.2710  -30.0750 C   0  0  0  0  0  0  0  0  0  0  0  0
   -4.0880   25.6830  -30.8650 O   0  0  0  0  0  0  0  0  0  0  0  0
   -6.3170   25.4890  -30.3730 O   0  0  0  0  0  0  0  0  0  0  0  0
   -2.1090   24.5910  -28.5440 C   0  0  0  0  0  0  0  0  0  0  0  0
   -1.5770   24.3430  -27.4290 O   0  0  0  0  0  0  0  0  0  0  0  0
   -1.6150   25.6310  -29.3220 O   0  0  0  0  0  0  0  0  0  0  0  0
   -3.1140   21.5170  -32.0000 C   0  0  0  0  0  0  0  0  0  0  0  0
   -3.8340   20.5410  -32.6990 C   0  0  0  0  0  0  0  0  0  0  0  0
   -3.3640   19.5760  -33.5220 N   0  0  0  0  0  0  0  0  0  0  0  0
   -1.9870   19.3040  -33.8300 C   0  0  0  0  0  0  0  0  0  0  0  0
   -1.4640   18.2100  -33.4900 O   0  0  0  0  0  0  0  0  0  0  0  0
   -1.2160   20.2420  -34.5030 O   0  0  0  0  0  0  0  0  0  0  0  0
   -3.4370   15.9490  -35.5110 H   0  0  0  0  0  0  0  0  0  0  0  0
   -2.5380   16.9070  -34.2890 H   0  0  0  0  0  0  0  0  0  0  0  0
   -6.6367   18.9762  -33.4126 H   0  0  0  0  0  0  0  0  0  0  0  0
   -7.0140   21.1860  -31.6470 H   0  0  0  0  0  0  0  0  0  0  0  0
   -5.7853   22.9911  -30.4044 H   0  0  0  0  0  0  0  0  0  0  0  0
   -2.3770   23.9840  -30.9960 H   0  0  0  0  0  0  0  0  0  0  0  0
   -3.3017   22.8297  -28.4425 H   0  0  0  0  0  0  0  0  0  0  0  0
   -5.3883   23.7761  -28.6179 H   0  0  0  0  0  0  0  0  0  0  0  0
   -4.4756   25.2216  -28.0175 H   0  0  0  0  0  0  0  0  0  0  0  0
   -2.0206   21.5842  -32.0993 H   0  0  0  0  0  0  0  0  0  0  0  0
  1  2  1  0
  2  3  2  0
  2  4  1  0
  4  5  2  0
  5  6  1  0
  6  7  2  0
  7  8  1  0
  8  9  2  0
  9 10  1  0
 10 11  1  0
 11 12  1  0
 12 13  1  0
 13 14  2  0
 13 15  1  0
 11 16  1  0
 16 17  2  0
 16 18  1  0
  9 19  1  0
 19 20  2  0
 20 21  1  0
 21 22  1  0
 22 23  2  0
 22 24  1  0
 21  4  1  0
 20  6  1  0
  1 25  1  0
  1 26  1  0
  5 27  1  0
  7 28  1  0
  8 29  1  0
 10 30  1  0
 11 31  1  1
 12 32  1  0
 12 33  1  0
 19 34  1  0
M  CHG  3  15  -1  18  -1  24  -1
M  END
>  <UniqueID>  (50) 
50

>  <SMILES>  (50) 
NC(=O)c1cc2ccc(N[C@H](CC(=O)[O-])C(=O)[O-])cc2n1C(=O)[O-]

>  <Energy>  (50) 
73.17659759963188

>  <Genealogy>  (50) 
NC(=O)c1cc2ccc(N[C@H](CC(=O)[O-])C(=O)[O-])cc2n1C(=O)[O-] (protonated)
NC(=O)c1cc2ccc(N[C@H](CC(=O)[O-])C(=O)[O-])cc2n1C(=O)[O-] (3D coordinates assigned)
NC(=O)c1cc2ccc(N[C@H](CC(=O)[O-])C(=O)[O-])cc2n1C(=O)[O-] (optimized conformer: 73.17659759963188 kcal/mol)

>  <smiles>  (50) 
NC(=O)c1cc2ccc(N[C@H](CC(=O)O)C(=O)O)cc2n1C(=O)O

>  <score_type>  (50) 
oracle

>  <origin>  (50) 
adg

>  <m_score__min__energy>  (50) 
-10.01

>  <m_primary>  (50) 
energy

$$$$
51:0
     RDKit          3D

 41 42  0  0  0  0  0  0  0  0999 V2000
   -1.1610   26.5170  -28.5170 N   0  0  0  0  0  0  0  0  0  0  0  0
   -0.8930   25.1200  -28.6210 C   0  0  0  0  0  0  0  0  0  0  0  0
    0.2450   24.6750  -28.3140 O   0  0  0  0  0  0  0  0  0  0  0  0
   -1.9620   24.1900  -29.1040 C   0  0  0  0  0  0  0  0  0  0  0  0
   -3.1580   24.9420  -29.4810 N   0  0  0  0  0  0  0  0  0  0  0  0
   -4.3590   24.3520  -30.0200 C   0  0  0  0  0  0  0  0  0  0  0  0
   -5.6470   24.8730  -29.7250 C   0  0  0  0  0  0  0  0  0  0  0  0
   -6.8020   24.2750  -30.2530 C   0  0  0  0  0  0  0  0  0  0  0  0
   -6.6460   23.1700  -31.0810 C   0  0  0  0  0  0  0  0  0  0  0  0
   -7.5970   22.3830  -31.6860 C   0  0  0  0  0  0  0  0  0  0  0  0
   -6.8820   21.4080  -32.3730 C   0  0  0  0  0  0  0  0  0  0  0  0
   -7.5190   20.3890  -33.2230 C   0  0  0  0  0  0  0  0  0  0  0  0
   -6.7570   19.6440  -34.1710 N   0  0  0  0  0  0  0  0  0  0  0  0
   -8.7660   20.2150  -33.1560 O   0  0  0  0  0  0  0  0  0  0  0  0
   -5.5400   21.5730  -32.1950 N   0  0  0  0  0  0  0  0  0  0  0  0
   -4.4910   20.6780  -32.6130 C   0  0  0  0  0  0  0  0  0  0  0  0
   -3.3830   21.1390  -32.9960 O   0  0  0  0  0  0  0  0  0  0  0  0
   -4.6900   19.2920  -32.5530 O   0  0  0  0  0  0  0  0  0  0  0  0
   -5.5500   18.6620  -31.6030 C   0  0  0  0  0  0  0  0  0  0  0  0
   -5.7580   17.1720  -31.9090 C   0  0  0  0  0  0  0  0  0  0  0  0
   -6.2950   16.9200  -33.3210 C   0  0  0  0  0  0  0  0  0  0  0  0
   -5.5080   17.5800  -34.2790 O   0  0  0  0  0  0  0  0  0  0  0  0
   -5.4120   22.6620  -31.3990 C   0  0  0  0  0  0  0  0  0  0  0  0
   -4.2450   23.2280  -30.8680 C   0  0  0  0  0  0  0  0  0  0  0  0
   -1.1960   27.1220  -29.3670 H   0  0  0  0  0  0  0  0  0  0  0  0
   -1.5919   23.6350  -29.9786 H   0  0  0  0  0  0  0  0  0  0  0  0
   -2.2198   23.4909  -28.2948 H   0  0  0  0  0  0  0  0  0  0  0  0
   -3.1230   25.9800  -29.3640 H   0  0  0  0  0  0  0  0  0  0  0  0
   -5.7405   25.7555  -29.0751 H   0  0  0  0  0  0  0  0  0  0  0  0
   -7.8015   24.6696  -30.0181 H   0  0  0  0  0  0  0  0  0  0  0  0
   -8.6897   22.4996  -31.6371 H   0  0  0  0  0  0  0  0  0  0  0  0
   -5.7560   19.8810  -34.3580 H   0  0  0  0  0  0  0  0  0  0  0  0
   -7.2140   18.9050  -34.7470 H   0  0  0  0  0  0  0  0  0  0  0  0
   -5.1042   18.7594  -30.6021 H   0  0  0  0  0  0  0  0  0  0  0  0
   -6.5307   19.1577  -31.6539 H   0  0  0  0  0  0  0  0  0  0  0  0
   -4.7931   16.6545  -31.8035 H   0  0  0  0  0  0  0  0  0  0  0  0
   -6.5077   16.7920  -31.1993 H   0  0  0  0  0  0  0  0  0  0  0  0
   -6.2804   15.8392  -33.5248 H   0  0  0  0  0  0  0  0  0  0  0  0
   -7.3228   17.3072  -33.3817 H   0  0  0  0  0  0  0  0  0  0  0  0
   -4.9030   18.1940  -33.7840 H   0  0  0  0  0  0  0  0  0  0  0  0
   -3.2583   22.8047  -31.1072 H   0  0  0  0  0  0  0  0  0  0  0  0
  1  2  1  0
  2  3  2  0
  2  4  1  0
  4  5  1  0
  5  6  1  0
  6  7  2  0
  7  8  1  0
  8  9  2  0
  9 10  1  0
 10 11  2  0
 11 12  1  0
 12 13  1  0
 12 14  2  0
 11 15  1  0
 15 16  1  0
 16 17  2  0
 16 18  1  0
 18 19  1  0
 19 20  1  0
 20 21  1  0
 21 22  1  0
 15 23  1  0
 23 24  2  0
 24  6  1  0
 23  9  1  0
  1 25  1  0
  4 26  1  0
  4 27  1  0
  5 28  1  0
  7 29  1  0
  8 30  1  0
 10 31  1  0
 13 32  1  0
 13 33  1  0
 19 34  1  0
 19 35  1  0
 20 36  1  0
 20 37  1  0
 21 38  1  0
 21 39  1  0
 22 40  1  0
 24 41  1  0
M  CHG  1   1  -1
M  END
>  <UniqueID>  (51) 
51

>  <SMILES>  (51) 
[NH-]C(=O)CNc1ccc2cc(C(N)=O)n(C(=O)OCCCO)c2c1

>  <Energy>  (51) 
74.42979441006494

>  <Genealogy>  (51) 
[NH-]C(=O)CNc1ccc2cc(C(N)=O)n(C(=O)OCCCO)c2c1 (protonated)
[NH-]C(=O)CNc1ccc2cc(C(N)=O)n(C(=O)OCCCO)c2c1 (3D coordinates assigned)
[NH-]C(=O)CNc1ccc2cc(C(N)=O)n(C(=O)OCCCO)c2c1 (optimized conformer: 74.42979441006494 kcal/mol)

>  <smiles>  (51) 
NC(=O)CNc1ccc2cc(C(N)=O)n(C(=O)OCCCO)c2c1

>  <score_type>  (51) 
oracle

>  <origin>  (51) 
adg

>  <m_score__min__energy>  (51) 
-9.5999999999999996

>  <m_primary>  (51) 
energy

$$$$
52:0
     RDKit          3D

 43 45  0  0  0  0  0  0  0  0999 V2000
   -5.6770   23.8710  -30.6570 N   0  0  0  0  0  0  0  0  0  0  0  0
   -6.8330   23.2030  -31.1710 C   0  0  0  0  0  0  0  0  0  0  0  0
   -7.9380   23.8090  -31.2050 O   0  0  0  0  0  0  0  0  0  0  0  0
   -6.7540   21.7900  -31.5820 C   0  0  0  0  0  0  0  0  0  0  0  0
   -7.8450   20.9320  -31.5120 C   0  0  0  0  0  0  0  0  0  0  0  0
   -7.4200   19.7570  -32.0810 C   0  0  0  0  0  0  0  0  0  0  0  0
   -8.1220   18.5780  -32.3050 C   0  0  0  0  0  0  0  0  0  0  0  0
   -7.4550   17.5220  -32.9470 C   0  0  0  0  0  0  0  0  0  0  0  0
   -6.1040   17.6590  -33.3550 C   0  0  0  0  0  0  0  0  0  0  0  0
   -5.4380   16.5760  -34.0410 N   0  0  0  0  0  0  0  0  0  0  0  0
   -4.2410   16.8620  -34.8480 C   0  0  0  0  0  0  0  0  0  0  0  0
   -3.4390   15.5950  -35.1600 C   0  0  0  0  0  0  0  0  0  0  0  0
   -3.1060   14.6550  -33.6290 S   0  0  0  0  0  0  0  0  0  0  0  0
   -4.8450   14.3700  -33.1010 C   0  0  0  0  0  0  0  0  0  0  0  0
   -5.8910   15.1900  -33.8670 C   0  0  0  0  0  0  0  0  0  0  0  0
   -5.4240   18.8770  -33.1100 C   0  0  0  0  0  0  0  0  0  0  0  0
   -6.1100   19.9190  -32.4640 C   0  0  0  0  0  0  0  0  0  0  0  0
   -5.6750   21.1680  -32.1490 N   0  0  0  0  0  0  0  0  0  0  0  0
   -4.3270   21.6850  -32.2400 C   0  0  0  0  0  0  0  0  0  0  0  0
   -3.9720   22.3810  -33.2340 O   0  0  0  0  0  0  0  0  0  0  0  0
   -3.3880   21.3810  -31.2460 O   0  0  0  0  0  0  0  0  0  0  0  0
   -3.1820   22.1920  -30.0920 C   0  0  0  0  0  0  0  0  0  0  0  0
   -2.4130   23.3220  -30.4340 O   0  0  0  0  0  0  0  0  0  0  0  0
   -3.1150   24.7100  -29.7250 P   0  0  0  0  0  0  0  0  0  0  0  0
   -4.1340   24.2950  -28.6870 O   0  0  0  0  0  0  0  0  0  0  0  0
   -1.9000   25.6130  -28.9680 O   0  0  0  0  0  0  0  0  0  0  0  0
   -3.8670   25.6750  -30.8980 O   0  0  0  0  0  0  0  0  0  0  0  0
   -5.7470   24.8500  -30.2980 H   0  0  0  0  0  0  0  0  0  0  0  0
   -4.7470   23.3940  -30.6450 H   0  0  0  0  0  0  0  0  0  0  0  0
   -8.8377   21.1482  -31.0904 H   0  0  0  0  0  0  0  0  0  0  0  0
   -9.1704   18.4752  -31.9883 H   0  0  0  0  0  0  0  0  0  0  0  0
   -7.9868   16.5777  -33.1355 H   0  0  0  0  0  0  0  0  0  0  0  0
   -4.5544   17.3254  -35.7951 H   0  0  0  0  0  0  0  0  0  0  0  0
   -3.5949   17.5369  -34.2674 H   0  0  0  0  0  0  0  0  0  0  0  0
   -4.0140   14.9644  -35.8541 H   0  0  0  0  0  0  0  0  0  0  0  0
   -2.4804   15.8840  -35.6156 H   0  0  0  0  0  0  0  0  0  0  0  0
   -5.0754   13.3037  -33.2421 H   0  0  0  0  0  0  0  0  0  0  0  0
   -4.9070   14.6914  -32.0508 H   0  0  0  0  0  0  0  0  0  0  0  0
   -6.0524   14.7360  -34.8559 H   0  0  0  0  0  0  0  0  0  0  0  0
   -6.8283   15.1938  -33.2913 H   0  0  0  0  0  0  0  0  0  0  0  0
   -4.3765   19.0049  -33.4203 H   0  0  0  0  0  0  0  0  0  0  0  0
   -4.1552   22.5186  -29.6967 H   0  0  0  0  0  0  0  0  0  0  0  0
   -2.6488   21.6075  -29.3277 H   0  0  0  0  0  0  0  0  0  0  0  0
  1  2  1  0
  2  3  2  0
  2  4  1  0
  4  5  2  0
  5  6  1  0
  6  7  2  0
  7  8  1  0
  8  9  2  0
  9 10  1  0
 10 11  1  0
 11 12  1  0
 12 13  1  0
 13 14  1  0
 14 15  1  0
  9 16  1  0
 16 17  2  0
 17 18  1  0
 18 19  1  0
 19 20  2  0
 19 21  1  0
 21 22  1  0
 22 23  1  0
 23 24  1  0
 24 25  2  0
 24 26  1  0
 24 27  1  0
 18  4  1  0
 17  6  1  0
 15 10  1  0
  1 28  1  0
  1 29  1  0
  5 30  1  0
  7 31  1  0
  8 32  1  0
 11 33  1  0
 11 34  1  0
 12 35  1  0
 12 36  1  0
 14 37  1  0
 14 38  1  0
 15 39  1  0
 15 40  1  0
 16 41  1  0
 22 42  1  0
 22 43  1  0
M  CHG  2  26  -1  27  -1
M  END
>  <UniqueID>  (52) 
52

>  <SMILES>  (52) 
NC(=O)c1cc2ccc(N3CCSCC3)cc2n1C(=O)OCOP(=O)([O-])[O-]

>  <Energy>  (52) 
87.24690125252214

>  <Genealogy>  (52) 
NC(=O)c1cc2ccc(N3CCSCC3)cc2n1C(=O)OCOP(=O)([O-])[O-] (protonated)
NC(=O)c1cc2ccc(N3CCSCC3)cc2n1C(=O)OCOP(=O)([O-])[O-] (3D coordinates assigned)
NC(=O)c1cc2ccc(N3CCSCC3)cc2n1C(=O)OCOP(=O)([O-])[O-] (nonaromatic ring conformer: 87.24690125252214 kcal/mol)

>  <smiles>  (52) 
NC(=O)c1cc2ccc(N3CCSCC3)cc2n1C(=O)OCOP(=O)(O)O

>  <score_type>  (52) 
oracle

>  <origin>  (52) 
adg

>  <m_score__min__energy>  (52) 
-13.24

>  <m_primary>  (52) 
energy

$$$$
53:0
     RDKit          3D

 38 39  0  0  0  0  0  0  0  0999 V2000
   -7.6010   18.4640  -32.4260 C   0  0  0  0  0  0  0  0  0  0  0  0
   -7.6100   19.9160  -32.0540 C   0  0  0  0  0  0  0  0  0  0  0  0
   -8.8260   20.6430  -32.0550 C   0  0  0  0  0  0  0  0  0  0  0  0
   -8.8440   22.0090  -31.7310 C   0  0  0  0  0  0  0  0  0  0  0  0
   -7.6320   22.6250  -31.4320 C   0  0  0  0  0  0  0  0  0  0  0  0
   -7.3660   23.9230  -31.0640 C   0  0  0  0  0  0  0  0  0  0  0  0
   -5.9860   23.9810  -30.8820 C   0  0  0  0  0  0  0  0  0  0  0  0
   -5.2610   25.2260  -30.5580 C   0  0  0  0  0  0  0  0  0  0  0  0
   -3.8700   25.3600  -30.8390 N   0  0  0  0  0  0  0  0  0  0  0  0
   -5.8890   26.2050  -30.0710 O   0  0  0  0  0  0  0  0  0  0  0  0
   -5.4200   22.7640  -31.1220 N   0  0  0  0  0  0  0  0  0  0  0  0
   -4.0450   22.3890  -30.9440 C   0  0  0  0  0  0  0  0  0  0  0  0
   -3.1410   23.0010  -31.5750 O   0  0  0  0  0  0  0  0  0  0  0  0
   -3.7280   21.3340  -30.0790 O   0  0  0  0  0  0  0  0  0  0  0  0
   -3.2060   21.4790  -28.7850 C   0  0  0  0  0  0  0  0  0  0  0  0
   -3.0750   20.4860  -28.0190 O   0  0  0  0  0  0  0  0  0  0  0  0
   -2.8180   22.8450  -28.3030 C   0  0  2  0  0  0  0  0  0  0  0  0
   -4.0840   23.7030  -28.1390 C   0  0  0  0  0  0  0  0  0  0  0  0
   -1.8710   23.4330  -29.2670 N   0  0  0  0  0  0  0  0  0  0  0  0
   -0.9140   24.7260  -28.5470 P   0  0  0  0  0  0  0  0  0  0  0  0
    0.5610   24.4080  -28.6460 O   0  0  0  0  0  0  0  0  0  0  0  0
   -1.2310   26.1900  -29.3330 O   0  0  0  0  0  0  0  0  0  0  0  0
   -1.3350   24.8770  -26.9160 O   0  0  0  0  0  0  0  0  0  0  0  0
   -6.4410   21.9440  -31.4600 C   0  0  0  0  0  0  0  0  0  0  0  0
   -6.3970   20.5770  -31.7600 C   0  0  0  0  0  0  0  0  0  0  0  0
   -7.5972   17.8514  -31.5124 H   0  0  0  0  0  0  0  0  0  0  0  0
   -8.4977   18.2319  -33.0193 H   0  0  0  0  0  0  0  0  0  0  0  0
   -6.7015   18.2431  -33.0193 H   0  0  0  0  0  0  0  0  0  0  0  0
   -9.7656   20.1321  -32.3122 H   0  0  0  0  0  0  0  0  0  0  0  0
   -9.7870   22.5751  -31.7140 H   0  0  0  0  0  0  0  0  0  0  0  0
   -8.0896   24.7421  -30.9397 H   0  0  0  0  0  0  0  0  0  0  0  0
   -3.1590   24.8120  -30.3060 H   0  0  0  0  0  0  0  0  0  0  0  0
   -2.3223   22.7932  -27.3224 H   0  0  0  0  0  0  0  0  0  0  0  0
   -4.2943   23.8455  -27.0687 H   0  0  0  0  0  0  0  0  0  0  0  0
   -3.9277   24.6820  -28.6155 H   0  0  0  0  0  0  0  0  0  0  0  0
   -4.9354   23.1951  -28.6155 H   0  0  0  0  0  0  0  0  0  0  0  0
   -2.3790   23.8260  -30.0930 H   0  0  0  0  0  0  0  0  0  0  0  0
   -5.4417   20.0316  -31.7665 H   0  0  0  0  0  0  0  0  0  0  0  0
  1  2  1  0
  2  3  2  0
  3  4  1  0
  4  5  2  0
  5  6  1  0
  6  7  2  0
  7  8  1  0
  8  9  1  0
  8 10  2  0
  7 11  1  0
 11 12  1  0
 12 13  2  0
 12 14  1  0
 14 15  1  0
 15 16  2  0
 15 17  1  0
 17 18  1  0
 17 19  1  0
 19 20  1  0
 20 21  2  0
 20 22  1  0
 20 23  1  0
 11 24  1  0
 24 25  2  0
 25  2  1  0
 24  5  1  0
  1 26  1  0
  1 27  1  0
  1 28  1  0
  3 29  1  0
  4 30  1  0
  6 31  1  0
  9 32  1  0
 17 33  1  1
 18 34  1  0
 18 35  1  0
 18 36  1  0
 19 37  1  0
 25 38  1  0
M  CHG  3   9  -1  22  -1  23  -1
M  END
>  <UniqueID>  (53) 
53

>  <SMILES>  (53) 
Cc1ccc2cc(C([NH-])=O)n(C(=O)OC(=O)[C@H](C)NP(=O)([O-])[O-])c2c1

>  <Energy>  (53) 
73.45583889375744

>  <Genealogy>  (53) 
Cc1ccc2cc(C([NH-])=O)n(C(=O)OC(=O)C(C)NP(=O)([O-])[O-])c2c1 (protonated)
Cc1ccc2cc(C([NH-])=O)n(C(=O)OC(=O)[C@H](C)NP(=O)([O-])[O-])c2c1 (chirality)
Cc1ccc2cc(C([NH-])=O)n(C(=O)OC(=O)[C@H](C)NP(=O)([O-])[O-])c2c1 (3D coordinates assigned)
Cc1ccc2cc(C([NH-])=O)n(C(=O)OC(=O)[C@H](C)NP(=O)([O-])[O-])c2c1 (optimized conformer: 73.45583889375744 kcal/mol)

>  <smiles>  (53) 
Cc1ccc2cc(C(N)=O)n(C(=O)OC(=O)C(C)NP(=O)(O)O)c2c1

>  <score_type>  (53) 
oracle

>  <origin>  (53) 
adg

>  <m_score__min__energy>  (53) 
-13.880000000000001

>  <m_primary>  (53) 
energy

$$$$
54:0
     RDKit          3D

 45 46  0  0  0  0  0  0  0  0999 V2000
   -7.4830   17.5480  -32.5020 C   0  0  0  0  0  0  0  0  0  0  0  0
   -6.8600   18.6990  -33.1650 N   0  0  0  0  0  0  0  0  0  0  0  0
   -6.1060   18.5020  -34.4160 C   0  0  0  0  0  0  0  0  0  0  0  0
   -4.7290   17.8800  -34.1460 C   0  0  0  0  0  0  0  0  0  0  0  0
   -4.5520   16.6300  -34.8880 N   0  0  0  0  0  0  0  0  0  0  0  0
   -5.2130   15.2560  -34.0430 S   0  0  0  0  0  0  0  0  0  0  0  0
   -4.8280   15.3850  -32.3110 C   0  0  0  0  0  0  0  0  0  0  0  0
   -6.7070   15.2630  -34.2050 O   0  0  0  0  0  0  0  0  0  0  0  0
   -4.6710   13.9570  -34.5710 O   0  0  0  0  0  0  0  0  0  0  0  0
   -7.0110   20.0140  -32.5850 C   0  0  0  0  0  0  0  0  0  0  0  0
   -8.3000   20.5200  -32.2660 C   0  0  0  0  0  0  0  0  0  0  0  0
   -8.4510   21.7910  -31.6880 C   0  0  0  0  0  0  0  0  0  0  0  0
   -7.3040   22.5400  -31.4490 C   0  0  0  0  0  0  0  0  0  0  0  0
   -7.1620   23.7860  -30.8810 C   0  0  0  0  0  0  0  0  0  0  0  0
   -5.7930   24.0390  -30.8820 C   0  0  0  0  0  0  0  0  0  0  0  0
   -5.2030   25.3190  -30.4360 C   0  0  0  0  0  0  0  0  0  0  0  0
   -3.8820   25.6700  -30.8440 N   0  0  0  0  0  0  0  0  0  0  0  0
   -5.8360   26.0890  -29.6680 O   0  0  0  0  0  0  0  0  0  0  0  0
   -5.1120   22.9870  -31.4220 N   0  0  0  0  0  0  0  0  0  0  0  0
   -3.6910   22.8250  -31.5550 C   0  0  0  0  0  0  0  0  0  0  0  0
   -3.2160   22.2790  -32.5880 O   0  0  0  0  0  0  0  0  0  0  0  0
   -2.8460   23.3030  -30.5430 O   0  0  0  0  0  0  0  0  0  0  0  0
   -3.1030   23.2150  -29.1690 C   0  0  0  0  0  0  0  0  0  0  0  0
   -3.2600   24.2490  -28.4650 O   0  0  0  0  0  0  0  0  0  0  0  0
   -3.2600   21.8670  -28.5420 C   0  0  0  0  0  0  0  0  0  0  0  0
   -4.2000   21.9200  -27.5310 F   0  0  0  0  0  0  0  0  0  0  0  0
   -2.0530   21.4490  -28.0130 F   0  0  0  0  0  0  0  0  0  0  0  0
   -3.6720   20.9610  -29.5020 F   0  0  0  0  0  0  0  0  0  0  0  0
   -6.0540   22.0800  -31.7670 C   0  0  0  0  0  0  0  0  0  0  0  0
   -5.8720   20.8100  -32.3250 C   0  0  0  0  0  0  0  0  0  0  0  0
   -7.4156   17.6725  -31.4111 H   0  0  0  0  0  0  0  0  0  0  0  0
   -8.5401   17.4818  -32.7989 H   0  0  0  0  0  0  0  0  0  0  0  0
   -6.9604   16.6267  -32.7989 H   0  0  0  0  0  0  0  0  0  0  0  0
   -6.6774   17.8339  -35.0772 H   0  0  0  0  0  0  0  0  0  0  0  0
   -5.9564   19.4837  -34.8891 H   0  0  0  0  0  0  0  0  0  0  0  0
   -3.9485   18.5918  -34.4528 H   0  0  0  0  0  0  0  0  0  0  0  0
   -4.6544   17.6579  -33.0712 H   0  0  0  0  0  0  0  0  0  0  0  0
   -5.7060   15.0908  -31.7173 H   0  0  0  0  0  0  0  0  0  0  0  0
   -3.9846   14.7204  -32.0724 H   0  0  0  0  0  0  0  0  0  0  0  0
   -4.5553   16.4236  -32.0724 H   0  0  0  0  0  0  0  0  0  0  0  0
   -9.1904   19.9087  -32.4743 H   0  0  0  0  0  0  0  0  0  0  0  0
   -9.4467   22.1823  -31.4320 H   0  0  0  0  0  0  0  0  0  0  0  0
   -7.9609   24.4425  -30.5059 H   0  0  0  0  0  0  0  0  0  0  0  0
   -3.0480   25.2950  -30.3400 H   0  0  0  0  0  0  0  0  0  0  0  0
   -4.8630   20.4383  -32.5568 H   0  0  0  0  0  0  0  0  0  0  0  0
  1  2  1  0
  2  3  1  0
  3  4  1  0
  4  5  1  0
  5  6  1  0
  6  7  1  0
  6  8  2  0
  6  9  2  0
  2 10  1  0
 10 11  2  0
 11 12  1  0
 12 13  2  0
 13 14  1  0
 14 15  2  0
 15 16  1  0
 16 17  1  0
 16 18  2  0
 15 19  1  0
 19 20  1  0
 20 21  2  0
 20 22  1  0
 22 23  1  0
 23 24  2  0
 23 25  1  0
 25 26  1  0
 25 27  1  0
 25 28  1  0
 19 29  1  0
 29 30  2  0
 30 10  1  0
 29 13  1  0
  1 31  1  0
  1 32  1  0
  1 33  1  0
  3 34  1  0
  3 35  1  0
  4 36  1  0
  4 37  1  0
  7 38  1  0
  7 39  1  0
  7 40  1  0
 11 41  1  0
 12 42  1  0
 14 43  1  0
 17 44  1  0
 30 45  1  0
M  CHG  2   5  -1  17  -1
M  END
>  <UniqueID>  (54) 
54

>  <SMILES>  (54) 
CN(CC[N-]S(C)(=O)=O)c1ccc2cc(C([NH-])=O)n(C(=O)OC(=O)C(F)(F)F)c2c1

>  <Energy>  (54) 
78.8277249824355

>  <Genealogy>  (54) 
CN(CC[N-]S(C)(=O)=O)c1ccc2cc(C([NH-])=O)n(C(=O)OC(=O)C(F)(F)F)c2c1 (protonated)
CN(CC[N-]S(C)(=O)=O)c1ccc2cc(C([NH-])=O)n(C(=O)OC(=O)C(F)(F)F)c2c1 (3D coordinates assigned)
CN(CC[N-]S(C)(=O)=O)c1ccc2cc(C([NH-])=O)n(C(=O)OC(=O)C(F)(F)F)c2c1 (optimized conformer: 78.8277249824355 kcal/mol)

>  <smiles>  (54) 
CN(CCNS(C)(=O)=O)c1ccc2cc(C(N)=O)n(C(=O)OC(=O)C(F)(F)F)c2c1

>  <score_type>  (54) 
oracle

>  <origin>  (54) 
adg

>  <m_score__min__energy>  (54) 
-9.6400000000000006

>  <m_primary>  (54) 
energy

$$$$
55:0
     RDKit          3D

 43 44  0  0  0  0  0  0  0  0999 V2000
   -3.9530   25.1450  -29.9520 N   0  0  0  0  0  0  0  0  0  0  0  0
   -5.2690   25.1350  -30.5070 C   0  0  0  0  0  0  0  0  0  0  0  0
   -5.8220   26.2280  -30.7990 O   0  0  0  0  0  0  0  0  0  0  0  0
   -5.9650   23.8680  -30.8070 C   0  0  0  0  0  0  0  0  0  0  0  0
   -7.3500   23.7510  -30.8620 C   0  0  0  0  0  0  0  0  0  0  0  0
   -7.5910   22.4470  -31.2290 C   0  0  0  0  0  0  0  0  0  0  0  0
   -8.7970   21.7790  -31.4110 C   0  0  0  0  0  0  0  0  0  0  0  0
   -8.7520   20.4150  -31.7440 C   0  0  0  0  0  0  0  0  0  0  0  0
   -7.5110   19.7430  -31.8880 C   0  0  0  0  0  0  0  0  0  0  0  0
   -7.4900   18.2610  -32.1630 C   0  0  0  0  0  0  0  0  0  0  0  0
   -7.1290   18.0520  -33.4800 F   0  0  0  0  0  0  0  0  0  0  0  0
   -8.7350   17.6950  -31.9400 F   0  0  0  0  0  0  0  0  0  0  0  0
   -6.5730   17.6330  -31.3370 F   0  0  0  0  0  0  0  0  0  0  0  0
   -6.3060   20.4520  -31.6730 C   0  0  0  0  0  0  0  0  0  0  0  0
   -6.3800   21.8190  -31.3690 C   0  0  0  0  0  0  0  0  0  0  0  0
   -5.3690   22.6800  -31.1130 N   0  0  0  0  0  0  0  0  0  0  0  0
   -3.9660   22.3670  -31.0860 C   0  0  0  0  0  0  0  0  0  0  0  0
   -3.1380   23.1330  -31.6510 O   0  0  0  0  0  0  0  0  0  0  0  0
   -3.5240   21.2160  -30.4270 O   0  0  0  0  0  0  0  0  0  0  0  0
   -2.1530   20.8500  -30.3470 C   0  0  0  0  0  0  0  0  0  0  0  0
   -1.4400   21.7590  -29.3500 C   0  0  0  0  0  0  0  0  0  0  0  0
   -1.5450   23.1270  -29.7480 O   0  0  0  0  0  0  0  0  0  0  0  0
   -1.0530   24.1890  -28.9830 C   0  0  0  0  0  0  0  0  0  0  0  0
    0.1860   24.3160  -28.7800 O   0  0  0  0  0  0  0  0  0  0  0  0
   -1.9720   25.1270  -28.4210 N   0  0  0  0  0  0  0  0  0  0  0  0
   -2.5540   24.9570  -27.0950 C   0  0  0  0  0  0  0  0  0  0  0  0
   -3.9260   24.2930  -27.2020 C   0  0  0  0  0  0  0  0  0  0  0  0
   -3.8780   23.1980  -28.0750 O   0  0  0  0  0  0  0  0  0  0  0  0
   -3.4900   26.0520  -29.7210 H   0  0  0  0  0  0  0  0  0  0  0  0
   -3.3970   24.2660  -29.8670 H   0  0  0  0  0  0  0  0  0  0  0  0
   -8.0943   24.5343  -30.6559 H   0  0  0  0  0  0  0  0  0  0  0  0
   -9.7575   22.3030  -31.2976 H   0  0  0  0  0  0  0  0  0  0  0  0
   -9.6904   19.8613  -31.8949 H   0  0  0  0  0  0  0  0  0  0  0  0
   -5.3334   19.9429  -31.7427 H   0  0  0  0  0  0  0  0  0  0  0  0
   -2.0715   19.8050  -30.0134 H   0  0  0  0  0  0  0  0  0  0  0  0
   -1.6871   20.9565  -31.3378 H   0  0  0  0  0  0  0  0  0  0  0  0
   -1.8981   21.6357  -28.3575 H   0  0  0  0  0  0  0  0  0  0  0  0
   -0.3761   21.4814  -29.3170 H   0  0  0  0  0  0  0  0  0  0  0  0
   -1.8911   24.3252  -26.4855 H   0  0  0  0  0  0  0  0  0  0  0  0
   -2.6689   25.9445  -26.6242 H   0  0  0  0  0  0  0  0  0  0  0  0
   -4.2389   23.9474  -26.2057 H   0  0  0  0  0  0  0  0  0  0  0  0
   -4.6454   25.0272  -27.5938 H   0  0  0  0  0  0  0  0  0  0  0  0
   -3.1530   23.3830  -28.7270 H   0  0  0  0  0  0  0  0  0  0  0  0
  1  2  1  0
  2  3  2  0
  2  4  1  0
  4  5  2  0
  5  6  1  0
  6  7  2  0
  7  8  1  0
  8  9  2  0
  9 10  1  0
 10 11  1  0
 10 12  1  0
 10 13  1  0
  9 14  1  0
 14 15  2  0
 15 16  1  0
 16 17  1  0
 17 18  2  0
 17 19  1  0
 19 20  1  0
 20 21  1  0
 21 22  1  0
 22 23  1  0
 23 24  2  0
 23 25  1  0
 25 26  1  0
 26 27  1  0
 27 28  1  0
 16  4  1  0
 15  6  1  0
  1 29  1  0
  1 30  1  0
  5 31  1  0
  7 32  1  0
  8 33  1  0
 14 34  1  0
 20 35  1  0
 20 36  1  0
 21 37  1  0
 21 38  1  0
 26 39  1  0
 26 40  1  0
 27 41  1  0
 27 42  1  0
 28 43  1  0
M  CHG  1  25  -1
M  END
>  <UniqueID>  (55) 
55

>  <SMILES>  (55) 
NC(=O)c1cc2ccc(C(F)(F)F)cc2n1C(=O)OCCOC(=O)[N-]CCO

>  <Energy>  (55) 
71.3799954868961

>  <Genealogy>  (55) 
NC(=O)c1cc2ccc(C(F)(F)F)cc2n1C(=O)OCCOC(=O)[N-]CCO (protonated)
NC(=O)c1cc2ccc(C(F)(F)F)cc2n1C(=O)OCCOC(=O)[N-]CCO (3D coordinates assigned)
NC(=O)c1cc2ccc(C(F)(F)F)cc2n1C(=O)OCCOC(=O)[N-]CCO (optimized conformer: 71.3799954868961 kcal/mol)

>  <smiles>  (55) 
NC(=O)c1cc2ccc(C(F)(F)F)cc2n1C(=O)OCCOC(=O)NCCO

>  <score_type>  (55) 
oracle

>  <origin>  (55) 
adg

>  <m_score__min__energy>  (55) 
-8.1199999999999992

>  <m_primary>  (55) 
energy

$$$$
56:0
     RDKit          3D

 45 46  0  0  0  0  0  0  0  0999 V2000
   -6.8170   17.7230  -33.8220 C   0  0  0  0  0  0  0  0  0  0  0  0
   -7.1730   18.8860  -32.9460 C   0  0  0  0  0  0  0  0  0  0  0  0
   -8.3530   18.8500  -32.1650 C   0  0  0  0  0  0  0  0  0  0  0  0
   -8.6720   19.9120  -31.3020 C   0  0  0  0  0  0  0  0  0  0  0  0
   -7.7940   20.9890  -31.2390 C   0  0  0  0  0  0  0  0  0  0  0  0
   -7.8390   22.1220  -30.4600 C   0  0  0  0  0  0  0  0  0  0  0  0
   -6.6920   22.8390  -30.7880 C   0  0  0  0  0  0  0  0  0  0  0  0
   -6.3700   24.1630  -30.2160 C   0  0  0  0  0  0  0  0  0  0  0  0
   -5.1670   24.3760  -29.4770 N   0  0  0  0  0  0  0  0  0  0  0  0
   -7.1440   25.1330  -30.4300 O   0  0  0  0  0  0  0  0  0  0  0  0
   -5.9580   22.1740  -31.7220 N   0  0  0  0  0  0  0  0  0  0  0  0
   -4.6560   22.5280  -32.2190 C   0  0  0  0  0  0  0  0  0  0  0  0
   -4.2890   22.1400  -33.3620 O   0  0  0  0  0  0  0  0  0  0  0  0
   -3.7970   23.3000  -31.4280 O   0  0  0  0  0  0  0  0  0  0  0  0
   -2.6510   22.7620  -30.7790 C   0  0  0  0  0  0  0  0  0  0  0  0
   -3.0580   21.9870  -29.6560 O   0  0  0  0  0  0  0  0  0  0  0  0
   -2.1480   21.3650  -28.7950 C   0  0  0  0  0  0  0  0  0  0  0  0
   -1.5700   20.3000  -29.1490 O   0  0  0  0  0  0  0  0  0  0  0  0
   -1.8800   21.9400  -27.5020 N   0  0  0  0  0  0  0  0  0  0  0  0
   -1.5810   21.0500  -26.3780 C   0  0  0  0  0  0  0  0  0  0  0  0
   -1.8750   23.3990  -27.3180 C   0  0  0  0  0  0  0  0  0  0  0  0
   -0.9660   24.0840  -28.3440 C   0  0  0  0  0  0  0  0  0  0  0  0
   -1.6220   25.2970  -28.9260 C   0  0  0  0  0  0  0  0  0  0  0  0
   -1.0180   26.4010  -28.9400 O   0  0  0  0  0  0  0  0  0  0  0  0
   -2.8870   25.1970  -29.4930 O   0  0  0  0  0  0  0  0  0  0  0  0
   -6.6470   21.0420  -31.9920 C   0  0  0  0  0  0  0  0  0  0  0  0
   -6.2940   19.9880  -32.8440 C   0  0  0  0  0  0  0  0  0  0  0  0
   -6.5525   16.8589  -33.1947 H   0  0  0  0  0  0  0  0  0  0  0  0
   -7.6774   17.4654  -34.4571 H   0  0  0  0  0  0  0  0  0  0  0  0
   -5.9598   17.9912  -34.4571 H   0  0  0  0  0  0  0  0  0  0  0  0
   -9.0263   17.9829  -32.2343 H   0  0  0  0  0  0  0  0  0  0  0  0
   -9.5887   19.8923  -30.6944 H   0  0  0  0  0  0  0  0  0  0  0  0
   -8.6157   22.4016  -29.7330 H   0  0  0  0  0  0  0  0  0  0  0  0
   -4.4280   23.6420  -29.4240 H   0  0  0  0  0  0  0  0  0  0  0  0
   -4.9760   25.3080  -29.0460 H   0  0  0  0  0  0  0  0  0  0  0  0
   -2.0975   22.1235  -31.4832 H   0  0  0  0  0  0  0  0  0  0  0  0
   -2.0034   23.5841  -30.4402 H   0  0  0  0  0  0  0  0  0  0  0  0
   -1.7596   21.5817  -25.4317 H   0  0  0  0  0  0  0  0  0  0  0  0
   -2.2308   20.1639  -26.4290 H   0  0  0  0  0  0  0  0  0  0  0  0
   -0.5280   20.7359  -26.4290 H   0  0  0  0  0  0  0  0  0  0  0  0
   -2.9004   23.7791  -27.4368 H   0  0  0  0  0  0  0  0  0  0  0  0
   -1.4930   23.6217  -26.3108 H   0  0  0  0  0  0  0  0  0  0  0  0
   -0.0304   24.3847  -27.8498 H   0  0  0  0  0  0  0  0  0  0  0  0
   -0.7640   23.3732  -29.1589 H   0  0  0  0  0  0  0  0  0  0  0  0
   -5.3567   20.0171  -33.4190 H   0  0  0  0  0  0  0  0  0  0  0  0
  1  2  1  0
  2  3  2  0
  3  4  1  0
  4  5  2  0
  5  6  1  0
  6  7  2  0
  7  8  1  0
  8  9  1  0
  8 10  2  0
  7 11  1  0
 11 12  1  0
 12 13  2  0
 12 14  1  0
 14 15  1  0
 15 16  1  0
 16 17  1  0
 17 18  2  0
 17 19  1  0
 19 20  1  0
 19 21  1  0
 21 22  1  0
 22 23  1  0
 23 24  2  0
 23 25  1  0
 11 26  1  0
 26 27  2  0
 27  2  1  0
 26  5  1  0
  1 28  1  0
  1 29  1  0
  1 30  1  0
  3 31  1  0
  4 32  1  0
  6 33  1  0
  9 34  1  0
  9 35  1  0
 15 36  1  0
 15 37  1  0
 20 38  1  0
 20 39  1  0
 20 40  1  0
 21 41  1  0
 21 42  1  0
 22 43  1  0
 22 44  1  0
 27 45  1  0
M  CHG  1  25  -1
M  END
>  <UniqueID>  (56) 
56

>  <SMILES>  (56) 
Cc1ccc2cc(C(N)=O)n(C(=O)OCOC(=O)N(C)CCC(=O)[O-])c2c1

>  <Energy>  (56) 
73.72392018253801

>  <Genealogy>  (56) 
Cc1ccc2cc(C(N)=O)n(C(=O)OCOC(=O)N(C)CCC(=O)[O-])c2c1 (protonated)
Cc1ccc2cc(C(N)=O)n(C(=O)OCOC(=O)N(C)CCC(=O)[O-])c2c1 (3D coordinates assigned)
Cc1ccc2cc(C(N)=O)n(C(=O)OCOC(=O)N(C)CCC(=O)[O-])c2c1 (optimized conformer: 73.72392018253801 kcal/mol)

>  <smiles>  (56) 
Cc1ccc2cc(C(N)=O)n(C(=O)OCOC(=O)N(C)CCC(=O)O)c2c1

>  <score_type>  (56) 
oracle

>  <origin>  (56) 
adg

>  <m_score__min__energy>  (56) 
-10.43

>  <m_primary>  (56) 
energy

$$$$
57:0
     RDKit          3D

 40 41  0  0  0  0  0  0  0  0999 V2000
   -0.7770   22.5120  -29.3160 C   0  0  0  0  0  0  0  0  0  0  0  0
   -1.7950   23.5400  -29.0370 N   0  0  0  0  0  0  0  0  0  0  0  0
   -1.1670   24.8530  -28.8040 C   0  0  0  0  0  0  0  0  0  0  0  0
   -2.7330   23.1430  -27.9560 C   0  0  0  0  0  0  0  0  0  0  0  0
   -3.8550   22.1770  -28.3790 C   0  0  0  0  0  0  0  0  0  0  0  0
   -3.6330   21.7030  -29.7010 O   0  0  0  0  0  0  0  0  0  0  0  0
   -3.9970   22.4230  -30.8410 C   0  0  0  0  0  0  0  0  0  0  0  0
   -3.1360   22.7010  -31.7200 O   0  0  0  0  0  0  0  0  0  0  0  0
   -5.3550   22.8660  -30.9980 N   0  0  0  0  0  0  0  0  0  0  0  0
   -5.8530   24.1220  -30.8070 C   0  0  0  0  0  0  0  0  0  0  0  0
   -5.0620   25.3430  -30.5470 C   0  0  0  0  0  0  0  0  0  0  0  0
   -3.6400   25.2920  -30.4670 N   0  0  0  0  0  0  0  0  0  0  0  0
   -5.6480   26.4540  -30.4480 O   0  0  0  0  0  0  0  0  0  0  0  0
   -7.2350   24.1310  -30.9840 C   0  0  0  0  0  0  0  0  0  0  0  0
   -7.5700   22.8360  -31.3090 C   0  0  0  0  0  0  0  0  0  0  0  0
   -8.8110   22.2830  -31.6040 C   0  0  0  0  0  0  0  0  0  0  0  0
   -8.8680   20.9100  -31.8950 C   0  0  0  0  0  0  0  0  0  0  0  0
   -7.6950   20.1120  -31.8610 C   0  0  0  0  0  0  0  0  0  0  0  0
   -7.7600   18.6470  -32.2140 C   0  0  0  0  0  0  0  0  0  0  0  0
   -9.0730   18.2170  -32.2810 F   0  0  0  0  0  0  0  0  0  0  0  0
   -7.1570   18.4490  -33.4420 F   0  0  0  0  0  0  0  0  0  0  0  0
   -7.1030   17.8870  -31.2620 F   0  0  0  0  0  0  0  0  0  0  0  0
   -6.4490   20.7180  -31.5770 C   0  0  0  0  0  0  0  0  0  0  0  0
   -6.4190   22.0930  -31.3100 C   0  0  0  0  0  0  0  0  0  0  0  0
   -0.3855   22.1166  -28.3671 H   0  0  0  0  0  0  0  0  0  0  0  0
   -1.2309   21.6940  -29.8946 H   0  0  0  0  0  0  0  0  0  0  0  0
    0.0454   22.9579  -29.8946 H   0  0  0  0  0  0  0  0  0  0  0  0
   -2.3740   23.6340  -29.9060 H   0  0  0  0  0  0  0  0  0  0  0  0
   -1.0815   25.0317  -27.7220 H   0  0  0  0  0  0  0  0  0  0  0  0
   -0.1652   24.8660  -29.2581 H   0  0  0  0  0  0  0  0  0  0  0  0
   -1.7856   25.6411  -29.2581 H   0  0  0  0  0  0  0  0  0  0  0  0
   -2.1486   22.6574  -27.1606 H   0  0  0  0  0  0  0  0  0  0  0  0
   -3.2339   24.0678  -27.6336 H   0  0  0  0  0  0  0  0  0  0  0  0
   -3.8765   21.3222  -27.6870 H   0  0  0  0  0  0  0  0  0  0  0  0
   -4.8151   22.7131  -28.3502 H   0  0  0  0  0  0  0  0  0  0  0  0
   -3.0800   24.7950  -31.1940 H   0  0  0  0  0  0  0  0  0  0  0  0
   -7.9142   24.9906  -30.8850 H   0  0  0  0  0  0  0  0  0  0  0  0
   -9.7204   22.9018  -31.6094 H   0  0  0  0  0  0  0  0  0  0  0  0
   -9.8327   20.4482  -32.1521 H   0  0  0  0  0  0  0  0  0  0  0  0
   -5.5239   20.1229  -31.5660 H   0  0  0  0  0  0  0  0  0  0  0  0
  1  2  1  0
  2  3  1  0
  2  4  1  0
  4  5  1  0
  5  6  1  0
  6  7  1  0
  7  8  2  0
  7  9  1  0
  9 10  1  0
 10 11  1  0
 11 12  1  0
 11 13  2  0
 10 14  2  0
 14 15  1  0
 15 16  2  0
 16 17  1  0
 17 18  2  0
 18 19  1  0
 19 20  1  0
 19 21  1  0
 19 22  1  0
 18 23  1  0
 23 24  2  0
 24  9  1  0
 24 15  1  0
  1 25  1  0
  1 26  1  0
  1 27  1  0
  2 28  1  0
  3 29  1  0
  3 30  1  0
  3 31  1  0
  4 32  1  0
  4 33  1  0
  5 34  1  0
  5 35  1  0
 12 36  1  0
 14 37  1  0
 16 38  1  0
 17 39  1  0
 23 40  1  0
M  CHG  2   2   1  12  -1
M  END
>  <UniqueID>  (57) 
57

>  <SMILES>  (57) 
C[NH+](C)CCOC(=O)n1c(C([NH-])=O)cc2ccc(C(F)(F)F)cc21

>  <Energy>  (57) 
79.3404373039237

>  <Genealogy>  (57) 
C[NH+](C)CCOC(=O)n1c(C([NH-])=O)cc2ccc(C(F)(F)F)cc21 (protonated)
C[NH+](C)CCOC(=O)n1c(C([NH-])=O)cc2ccc(C(F)(F)F)cc21 (3D coordinates assigned)
C[NH+](C)CCOC(=O)n1c(C([NH-])=O)cc2ccc(C(F)(F)F)cc21 (optimized conformer: 79.3404373039237 kcal/mol)

>  <smiles>  (57) 
CN(C)CCOC(=O)n1c(C(N)=O)cc2ccc(C(F)(F)F)cc21

>  <score_type>  (57) 
oracle

>  <origin>  (57) 
adg

>  <m_score__min__energy>  (57) 
-8.4700000000000006

>  <m_primary>  (57) 
energy

$$$$
58:0
     RDKit          3D

 49 50  0  0  0  0  0  0  0  0999 V2000
   -1.5520   25.5750  -27.5920 C   0  0  0  0  0  0  0  0  0  0  0  0
   -1.5870   25.2940  -28.9750 O   0  0  0  0  0  0  0  0  0  0  0  0
   -0.8780   24.1020  -29.2330 C   0  0  0  0  0  0  0  0  0  0  0  0
   -1.0120   23.1570  -28.0410 C   0  0  0  0  0  0  0  0  0  0  0  0
   -1.7380   21.9400  -28.4280 N   0  0  0  0  0  0  0  0  0  0  0  0
   -3.1020   21.7250  -27.9320 C   0  0  0  0  0  0  0  0  0  0  0  0
   -1.0960   20.9500  -29.2590 C   0  0  0  0  0  0  0  0  0  0  0  0
   -0.6740   19.8760  -28.7450 O   0  0  0  0  0  0  0  0  0  0  0  0
   -0.9710   21.1330  -30.7450 C   0  0  0  0  0  0  0  0  0  0  0  0
   -2.2000   20.0940  -31.6120 S   0  0  0  0  0  0  0  0  0  0  0  0
   -2.9500   21.4190  -32.6250 C   0  0  0  0  0  0  0  0  0  0  0  0
   -3.5290   22.4940  -31.7470 C   0  0  0  0  0  0  0  0  0  0  0  0
   -2.7580   23.3400  -31.2170 O   0  0  0  0  0  0  0  0  0  0  0  0
   -4.9580   22.6330  -31.5990 N   0  0  0  0  0  0  0  0  0  0  0  0
   -5.6480   23.6650  -31.0380 C   0  0  0  0  0  0  0  0  0  0  0  0
   -5.0940   24.9890  -30.6980 C   0  0  0  0  0  0  0  0  0  0  0  0
   -3.8850   25.1040  -29.9470 N   0  0  0  0  0  0  0  0  0  0  0  0
   -5.6840   26.0330  -31.0960 O   0  0  0  0  0  0  0  0  0  0  0  0
   -6.9980   23.3550  -30.9350 C   0  0  0  0  0  0  0  0  0  0  0  0
   -7.1220   22.0930  -31.4710 C   0  0  0  0  0  0  0  0  0  0  0  0
   -8.2510   21.2940  -31.6200 C   0  0  0  0  0  0  0  0  0  0  0  0
   -8.0860   20.0190  -32.1790 C   0  0  0  0  0  0  0  0  0  0  0  0
   -6.8000   19.5580  -32.5570 C   0  0  0  0  0  0  0  0  0  0  0  0
   -6.6230   18.2040  -33.2020 C   0  0  0  0  0  0  0  0  0  0  0  0
   -5.5240   17.5390  -32.6830 F   0  0  0  0  0  0  0  0  0  0  0  0
   -6.4360   18.3450  -34.5640 F   0  0  0  0  0  0  0  0  0  0  0  0
   -7.7550   17.4440  -32.9790 F   0  0  0  0  0  0  0  0  0  0  0  0
   -5.6800   20.4060  -32.4010 C   0  0  0  0  0  0  0  0  0  0  0  0
   -5.8780   21.6780  -31.8640 C   0  0  0  0  0  0  0  0  0  0  0  0
   -1.6685   24.6398  -27.0248 H   0  0  0  0  0  0  0  0  0  0  0  0
   -0.5889   26.0411  -27.3368 H   0  0  0  0  0  0  0  0  0  0  0  0
   -2.3714   26.2631  -27.3368 H   0  0  0  0  0  0  0  0  0  0  0  0
   -1.2896   23.6186  -30.1313 H   0  0  0  0  0  0  0  0  0  0  0  0
    0.1844   24.3370  -29.3948 H   0  0  0  0  0  0  0  0  0  0  0  0
   -0.0090   22.8817  -27.6828 H   0  0  0  0  0  0  0  0  0  0  0  0
   -1.5726   23.6672  -27.2439 H   0  0  0  0  0  0  0  0  0  0  0  0
   -3.0966   21.7259  -26.8320 H   0  0  0  0  0  0  0  0  0  0  0  0
   -3.7559   22.5312  -28.2961 H   0  0  0  0  0  0  0  0  0  0  0  0
   -3.4762   20.7568  -28.2961 H   0  0  0  0  0  0  0  0  0  0  0  0
   -1.1451   22.1894  -30.9973 H   0  0  0  0  0  0  0  0  0  0  0  0
    0.0395   20.8342  -31.0606 H   0  0  0  0  0  0  0  0  0  0  0  0
   -2.1781   21.8589  -33.2735 H   0  0  0  0  0  0  0  0  0  0  0  0
   -3.7573   20.9857  -33.2338 H   0  0  0  0  0  0  0  0  0  0  0  0
   -3.3250   24.2580  -29.6940 H   0  0  0  0  0  0  0  0  0  0  0  0
   -3.4960   26.0440  -29.7100 H   0  0  0  0  0  0  0  0  0  0  0  0
   -7.7972   23.9834  -30.5150 H   0  0  0  0  0  0  0  0  0  0  0  0
   -9.2434   21.6519  -31.3085 H   0  0  0  0  0  0  0  0  0  0  0  0
   -8.9624   19.3705  -32.3256 H   0  0  0  0  0  0  0  0  0  0  0  0
   -4.6750   20.0704  -32.6964 H   0  0  0  0  0  0  0  0  0  0  0  0
  1  2  1  0
  2  3  1  0
  3  4  1  0
  4  5  1  0
  5  6  1  0
  5  7  1  0
  7  8  2  0
  7  9  1  0
  9 10  1  0
 10 11  1  0
 11 12  1  0
 12 13  2  0
 12 14  1  0
 14 15  1  0
 15 16  1  0
 16 17  1  0
 16 18  2  0
 15 19  2  0
 19 20  1  0
 20 21  2  0
 21 22  1  0
 22 23  2  0
 23 24  1  0
 24 25  1  0
 24 26  1  0
 24 27  1  0
 23 28  1  0
 28 29  2  0
 29 14  1  0
 29 20  1  0
  1 30  1  0
  1 31  1  0
  1 32  1  0
  3 33  1  0
  3 34  1  0
  4 35  1  0
  4 36  1  0
  6 37  1  0
  6 38  1  0
  6 39  1  0
  9 40  1  0
  9 41  1  0
 11 42  1  0
 11 43  1  0
 17 44  1  0
 17 45  1  0
 19 46  1  0
 21 47  1  0
 22 48  1  0
 28 49  1  0
M  END
>  <UniqueID>  (58) 
58

>  <SMILES>  (58) 
COCCN(C)C(=O)CSCC(=O)n1c(C(N)=O)cc2ccc(C(F)(F)F)cc21

>  <Energy>  (58) 
82.93865448198414

>  <Genealogy>  (58) 
COCCN(C)C(=O)CSCC(=O)n1c(C(N)=O)cc2ccc(C(F)(F)F)cc21 (3D coordinates assigned)
COCCN(C)C(=O)CSCC(=O)n1c(C(N)=O)cc2ccc(C(F)(F)F)cc21 (optimized conformer: 82.93865448198414 kcal/mol)

>  <smiles>  (58) 
COCCN(C)C(=O)CSCC(=O)n1c(C(N)=O)cc2ccc(C(F)(F)F)cc21

>  <score_type>  (58) 
oracle

>  <origin>  (58) 
adg

>  <m_score__min__energy>  (58) 
-8.6099999999999994

>  <m_primary>  (58) 
energy

$$$$
59:0
     RDKit          3D

 50 51  0  0  0  0  0  0  0  0999 V2000
   -1.5490   21.2780  -33.7860 C   0  0  0  0  0  0  0  0  0  0  0  0
   -1.2600   20.2940  -32.7370 N   0  0  0  0  0  0  0  0  0  0  0  0
    0.0310   19.5870  -32.7460 C   0  0  0  0  0  0  0  0  0  0  0  0
    0.6120   19.5430  -34.1580 C   0  0  0  0  0  0  0  0  0  0  0  0
    1.1090   20.8160  -34.4970 O   0  0  0  0  0  0  0  0  0  0  0  0
    1.5350   20.8030  -36.1470 P   0  0  2  0  0  0  0  0  0  0  0  0
    0.2770   20.7430  -36.9860 O   0  0  0  0  0  0  0  0  0  0  0  0
    2.4570   19.4230  -36.4760 O   0  0  0  0  0  0  0  0  0  0  0  0
    2.4560   22.1790  -36.5490 O   0  0  0  0  0  0  0  0  0  0  0  0
    1.5230   23.5540  -36.1770 P   0  0  1  0  0  0  0  0  0  0  0  0
    2.1880   24.2940  -35.0390 O   0  0  0  0  0  0  0  0  0  0  0  0
    1.4430   24.5830  -37.5180 O   0  0  0  0  0  0  0  0  0  0  0  0
   -0.0420   23.1160  -35.7020 O   0  0  0  0  0  0  0  0  0  0  0  0
   -2.2760   20.0110  -31.7480 C   0  0  0  0  0  0  0  0  0  0  0  0
   -3.2210   19.2250  -32.0310 O   0  0  0  0  0  0  0  0  0  0  0  0
   -2.2780   20.6680  -30.3950 C   0  0  0  0  0  0  0  0  0  0  0  0
   -3.5010   21.3690  -30.1860 O   0  0  0  0  0  0  0  0  0  0  0  0
   -3.9220   22.4360  -30.9870 C   0  0  0  0  0  0  0  0  0  0  0  0
   -3.0790   23.1410  -31.6060 O   0  0  0  0  0  0  0  0  0  0  0  0
   -5.3210   22.7440  -31.0850 N   0  0  0  0  0  0  0  0  0  0  0  0
   -5.9250   23.9510  -30.8920 C   0  0  0  0  0  0  0  0  0  0  0  0
   -5.2760   25.1730  -30.3740 C   0  0  0  0  0  0  0  0  0  0  0  0
   -3.8570   25.2920  -30.3380 N   0  0  0  0  0  0  0  0  0  0  0  0
   -5.9860   26.1070  -29.9130 O   0  0  0  0  0  0  0  0  0  0  0  0
   -7.2860   23.8660  -31.1750 C   0  0  0  0  0  0  0  0  0  0  0  0
   -7.5030   22.5580  -31.5440 C   0  0  0  0  0  0  0  0  0  0  0  0
   -8.6760   21.9200  -31.9360 C   0  0  0  0  0  0  0  0  0  0  0  0
   -8.6010   20.5620  -32.2870 C   0  0  0  0  0  0  0  0  0  0  0  0
   -7.3640   19.8730  -32.2490 C   0  0  0  0  0  0  0  0  0  0  0  0
   -7.3030   18.4260  -32.6470 C   0  0  0  0  0  0  0  0  0  0  0  0
   -6.4610   18.2750  -33.7340 F   0  0  0  0  0  0  0  0  0  0  0  0
   -6.8260   17.6720  -31.5900 F   0  0  0  0  0  0  0  0  0  0  0  0
   -6.1930   20.5540  -31.8470 C   0  0  0  0  0  0  0  0  0  0  0  0
   -6.3010   21.9030  -31.4830 C   0  0  0  0  0  0  0  0  0  0  0  0
   -1.8302   22.2355  -33.3232 H   0  0  0  0  0  0  0  0  0  0  0  0
   -0.6550   21.4213  -34.4107 H   0  0  0  0  0  0  0  0  0  0  0  0
   -2.3785   20.9151  -34.4107 H   0  0  0  0  0  0  0  0  0  0  0  0
    0.7344   20.1110  -32.0822 H   0  0  0  0  0  0  0  0  0  0  0  0
   -0.1276   18.5562  -32.3963 H   0  0  0  0  0  0  0  0  0  0  0  0
    1.4290   18.8075  -34.1963 H   0  0  0  0  0  0  0  0  0  0  0  0
   -0.1739   19.2527  -34.8708 H   0  0  0  0  0  0  0  0  0  0  0  0
   -0.0650   22.1290  -35.7810 H   0  0  0  0  0  0  0  0  0  0  0  0
   -2.1640   19.8980  -29.6178 H   0  0  0  0  0  0  0  0  0  0  0  0
   -1.4433   21.3826  -30.3437 H   0  0  0  0  0  0  0  0  0  0  0  0
   -3.2950   25.2850  -31.2160 H   0  0  0  0  0  0  0  0  0  0  0  0
   -8.0304   24.6738  -31.1160 H   0  0  0  0  0  0  0  0  0  0  0  0
   -9.6324   22.4624  -31.9699 H   0  0  0  0  0  0  0  0  0  0  0  0
   -9.5123   20.0281  -32.5945 H   0  0  0  0  0  0  0  0  0  0  0  0
   -8.3132   18.0839  -32.9162 H   0  0  0  0  0  0  0  0  0  0  0  0
   -5.2216   20.0385  -31.8204 H   0  0  0  0  0  0  0  0  0  0  0  0
  1  2  1  0
  2  3  1  0
  3  4  1  0
  4  5  1  0
  5  6  1  0
  6  7  2  0
  6  8  1  1
  6  9  1  0
  9 10  1  0
 10 11  2  0
 10 12  1  6
 10 13  1  0
  2 14  1  0
 14 15  2  0
 14 16  1  0
 16 17  1  0
 17 18  1  0
 18 19  2  0
 18 20  1  0
 20 21  1  0
 21 22  1  0
 22 23  1  0
 22 24  2  0
 21 25  2  0
 25 26  1  0
 26 27  2  0
 27 28  1  0
 28 29  2  0
 29 30  1  0
 30 31  1  0
 30 32  1  0
 29 33  1  0
 33 34  2  0
 34 20  1  0
 34 26  1  0
  1 35  1  0
  1 36  1  0
  1 37  1  0
  3 38  1  0
  3 39  1  0
  4 40  1  0
  4 41  1  0
 13 42  1  0
 16 43  1  0
 16 44  1  0
 23 45  1  0
 25 46  1  0
 27 47  1  0
 28 48  1  0
 30 49  1  0
 33 50  1  0
M  CHG  3   8  -1  12  -1  23  -1
M  END
>  <UniqueID>  (59) 
59

>  <SMILES>  (59) 
CN(CCO[P@](=O)([O-])O[P@@](=O)([O-])O)C(=O)COC(=O)n1c(C([NH-])=O)cc2ccc(C(F)F)cc21

>  <Energy>  (59) 
77.61632285026403

>  <Genealogy>  (59) 
CN(CCOP(=O)([O-])OP(=O)([O-])O)C(=O)COC(=O)n1c(C([NH-])=O)cc2ccc(C(F)F)cc21 (protonated)
CN(CCO[P@](=O)([O-])O[P@@](=O)([O-])O)C(=O)COC(=O)n1c(C([NH-])=O)cc2ccc(C(F)F)cc21 (chirality)
CN(CCO[P@](=O)([O-])O[P@@](=O)([O-])O)C(=O)COC(=O)n1c(C([NH-])=O)cc2ccc(C(F)F)cc21 (3D coordinates assigned)
CN(CCO[P@](=O)([O-])O[P@@](=O)([O-])O)C(=O)COC(=O)n1c(C([NH-])=O)cc2ccc(C(F)F)cc21 (optimized conformer: 77.61632285026403 kcal/mol)

>  <smiles>  (59) 
CN(CCOP(=O)(O)OP(=O)(O)O)C(=O)COC(=O)n1c(C(N)=O)cc2ccc(C(F)F)cc21

>  <score_type>  (59) 
oracle

>  <origin>  (59) 
adg

>  <m_score__min__energy>  (59) 
-12.199999999999999

>  <m_primary>  (59) 
energy

$$$$
60:0
     RDKit          3D

 37 38  0  0  0  0  0  0  0  0999 V2000
   -4.8200   18.5560  -34.5040 C   0  0  0  0  0  0  0  0  0  0  0  0
   -6.2040   18.0740  -34.5010 N   0  0  0  0  0  0  0  0  0  0  0  0
   -6.6320   17.5990  -33.1740 C   0  0  0  0  0  0  0  0  0  0  0  0
   -7.9910   18.1640  -32.7190 C   0  0  0  0  0  0  0  0  0  0  0  0
   -7.8870   19.5910  -32.2430 C   0  0  0  0  0  0  0  0  0  0  0  0
   -9.0510   20.3870  -32.1100 C   0  0  0  0  0  0  0  0  0  0  0  0
   -8.9630   21.7140  -31.6590 C   0  0  0  0  0  0  0  0  0  0  0  0
   -7.7030   22.2130  -31.3410 C   0  0  0  0  0  0  0  0  0  0  0  0
   -7.3320   23.4630  -30.9020 C   0  0  0  0  0  0  0  0  0  0  0  0
   -5.9480   23.4050  -30.7470 C   0  0  0  0  0  0  0  0  0  0  0  0
   -5.1330   24.5130  -30.2010 C   0  0  0  0  0  0  0  0  0  0  0  0
   -5.2620   24.9100  -28.8350 N   0  0  0  0  0  0  0  0  0  0  0  0
   -4.2900   25.0980  -30.9320 O   0  0  0  0  0  0  0  0  0  0  0  0
   -5.4820   22.1670  -31.0790 N   0  0  0  0  0  0  0  0  0  0  0  0
   -4.1170   21.7210  -31.1070 C   0  0  0  0  0  0  0  0  0  0  0  0
   -3.6670   21.0090  -30.1680 O   0  0  0  0  0  0  0  0  0  0  0  0
   -3.2850   22.0900  -32.1690 O   0  0  0  0  0  0  0  0  0  0  0  0
   -3.1860   21.3300  -33.3670 C   0  0  0  0  0  0  0  0  0  0  0  0
   -6.5690   21.4490  -31.4410 C   0  0  0  0  0  0  0  0  0  0  0  0
   -6.6240   20.1310  -31.9070 C   0  0  0  0  0  0  0  0  0  0  0  0
   -4.4717   18.6773  -33.4677 H   0  0  0  0  0  0  0  0  0  0  0  0
   -4.1793   17.8281  -35.0233 H   0  0  0  0  0  0  0  0  0  0  0  0
   -4.7701   19.5244  -35.0233 H   0  0  0  0  0  0  0  0  0  0  0  0
   -6.8340   18.8390  -34.8340 H   0  0  0  0  0  0  0  0  0  0  0  0
   -6.7058   16.5019  -33.2057 H   0  0  0  0  0  0  0  0  0  0  0  0
   -5.8811   17.9502  -32.4509 H   0  0  0  0  0  0  0  0  0  0  0  0
   -8.6922   18.1237  -33.5656 H   0  0  0  0  0  0  0  0  0  0  0  0
   -8.3442   17.5527  -31.8754 H   0  0  0  0  0  0  0  0  0  0  0  0
  -10.0335   19.9616  -32.3624 H   0  0  0  0  0  0  0  0  0  0  0  0
   -9.8621   22.3399  -31.5601 H   0  0  0  0  0  0  0  0  0  0  0  0
   -7.9884   24.3253  -30.7133 H   0  0  0  0  0  0  0  0  0  0  0  0
   -4.6540   25.6670  -28.4500 H   0  0  0  0  0  0  0  0  0  0  0  0
   -5.9870   24.4880  -28.2140 H   0  0  0  0  0  0  0  0  0  0  0  0
   -3.0476   20.2678  -33.1170 H   0  0  0  0  0  0  0  0  0  0  0  0
   -4.1075   21.4512  -33.9553 H   0  0  0  0  0  0  0  0  0  0  0  0
   -2.3263   21.6832  -33.9553 H   0  0  0  0  0  0  0  0  0  0  0  0
   -5.7083   19.5302  -32.0094 H   0  0  0  0  0  0  0  0  0  0  0  0
  1  2  1  0
  2  3  1  0
  3  4  1  0
  4  5  1  0
  5  6  2  0
  6  7  1  0
  7  8  2  0
  8  9  1  0
  9 10  2  0
 10 11  1  0
 11 12  1  0
 11 13  2  0
 10 14  1  0
 14 15  1  0
 15 16  2  0
 15 17  1  0
 17 18  1  0
 14 19  1  0
 19 20  2  0
 20  5  1  0
 19  8  1  0
  1 21  1  0
  1 22  1  0
  1 23  1  0
  2 24  1  0
  3 25  1  0
  3 26  1  0
  4 27  1  0
  4 28  1  0
  6 29  1  0
  7 30  1  0
  9 31  1  0
 12 32  1  0
 12 33  1  0
 18 34  1  0
 18 35  1  0
 18 36  1  0
 20 37  1  0
M  END
>  <UniqueID>  (60) 
60

>  <SMILES>  (60) 
CNCCc1ccc2cc(C(N)=O)n(C(=O)OC)c2c1

>  <Energy>  (60) 
71.51755128850664

>  <Genealogy>  (60) 
CNCCc1ccc2cc(C(N)=O)n(C(=O)OC)c2c1 (3D coordinates assigned)
CNCCc1ccc2cc(C(N)=O)n(C(=O)OC)c2c1 (optimized conformer: 71.51755128850664 kcal/mol)

>  <smiles>  (60) 
CNCCc1ccc2cc(C(N)=O)n(C(=O)OC)c2c1

>  <score_type>  (60) 
oracle

>  <origin>  (60) 
adg

>  <m_score__min__energy>  (60) 
-8.0899999999999999

>  <m_primary>  (60) 
energy

$$$$
61:0
     RDKit          3D

 37 38  0  0  0  0  0  0  0  0999 V2000
   -3.8760   25.5380  -30.8300 N   0  0  0  0  0  0  0  0  0  0  0  0
   -5.2250   25.2800  -30.4490 C   0  0  0  0  0  0  0  0  0  0  0  0
   -5.8810   26.1790  -29.8580 O   0  0  0  0  0  0  0  0  0  0  0  0
   -5.8790   23.9980  -30.7850 C   0  0  0  0  0  0  0  0  0  0  0  0
   -7.2570   23.8570  -30.9340 C   0  0  0  0  0  0  0  0  0  0  0  0
   -7.4480   22.5520  -31.3270 C   0  0  0  0  0  0  0  0  0  0  0  0
   -8.6250   21.8670  -31.6130 C   0  0  0  0  0  0  0  0  0  0  0  0
   -8.5290   20.5120  -31.9710 C   0  0  0  0  0  0  0  0  0  0  0  0
   -7.2690   19.8590  -32.0110 C   0  0  0  0  0  0  0  0  0  0  0  0
   -7.1740   18.4150  -32.4310 C   0  0  0  0  0  0  0  0  0  0  0  0
   -6.2410   17.7420  -31.6600 F   0  0  0  0  0  0  0  0  0  0  0  0
   -6.7910   18.3150  -33.7570 F   0  0  0  0  0  0  0  0  0  0  0  0
   -8.4080   17.8120  -32.2700 F   0  0  0  0  0  0  0  0  0  0  0  0
   -6.0930   20.5970  -31.7340 C   0  0  0  0  0  0  0  0  0  0  0  0
   -6.2190   21.9510  -31.4000 C   0  0  0  0  0  0  0  0  0  0  0  0
   -5.2440   22.8260  -31.0700 N   0  0  0  0  0  0  0  0  0  0  0  0
   -3.8440   22.5330  -30.9410 C   0  0  0  0  0  0  0  0  0  0  0  0
   -3.0230   23.0200  -31.7650 O   0  0  0  0  0  0  0  0  0  0  0  0
   -3.4030   21.6890  -29.9170 O   0  0  0  0  0  0  0  0  0  0  0  0
   -2.5320   22.1140  -28.8720 C   0  0  0  0  0  0  0  0  0  0  0  0
   -2.2540   23.5780  -28.9960 C   0  0  0  0  0  0  0  0  0  0  0  0
   -1.2840   23.9700  -29.6980 O   0  0  0  0  0  0  0  0  0  0  0  0
   -3.1050   24.4960  -28.3710 O   0  0  0  0  0  0  0  0  0  0  0  0
   -3.8980   24.1800  -27.2290 C   0  0  0  0  0  0  0  0  0  0  0  0
   -3.7690   25.2690  -26.1680 C   0  0  0  0  0  0  0  0  0  0  0  0
   -1.9000   25.6360  -25.8130 Br  0  0  0  0  0  0  0  0  0  0  0  0
   -3.1030   24.9010  -30.5360 H   0  0  0  0  0  0  0  0  0  0  0  0
   -8.0278   24.6249  -30.7721 H   0  0  0  0  0  0  0  0  0  0  0  0
   -9.6012   22.3713  -31.5603 H   0  0  0  0  0  0  0  0  0  0  0  0
   -9.4406   19.9504  -32.2232 H   0  0  0  0  0  0  0  0  0  0  0  0
   -5.1038   20.1181  -31.7801 H   0  0  0  0  0  0  0  0  0  0  0  0
   -3.0066   21.9152  -27.8998 H   0  0  0  0  0  0  0  0  0  0  0  0
   -1.5842   21.5607  -28.9469 H   0  0  0  0  0  0  0  0  0  0  0  0
   -4.9517   24.0943  -27.5330 H   0  0  0  0  0  0  0  0  0  0  0  0
   -3.5459   23.2281  -26.8050 H   0  0  0  0  0  0  0  0  0  0  0  0
   -4.2579   26.1865  -26.5273 H   0  0  0  0  0  0  0  0  0  0  0  0
   -4.2508   24.9263  -25.2404 H   0  0  0  0  0  0  0  0  0  0  0  0
  1  2  1  0
  2  3  2  0
  2  4  1  0
  4  5  2  0
  5  6  1  0
  6  7  2  0
  7  8  1  0
  8  9  2  0
  9 10  1  0
 10 11  1  0
 10 12  1  0
 10 13  1  0
  9 14  1  0
 14 15  2  0
 15 16  1  0
 16 17  1  0
 17 18  2  0
 17 19  1  0
 19 20  1  0
 20 21  1  0
 21 22  2  0
 21 23  1  0
 23 24  1  0
 24 25  1  0
 25 26  1  0
 16  4  1  0
 15  6  1  0
  1 27  1  0
  5 28  1  0
  7 29  1  0
  8 30  1  0
 14 31  1  0
 20 32  1  0
 20 33  1  0
 24 34  1  0
 24 35  1  0
 25 36  1  0
 25 37  1  0
M  CHG  1   1  -1
M  END
>  <UniqueID>  (61) 
61

>  <SMILES>  (61) 
[NH-]C(=O)c1cc2ccc(C(F)(F)F)cc2n1C(=O)OCC(=O)OCCBr

>  <Energy>  (61) 
70.26589815345426

>  <Genealogy>  (61) 
[NH-]C(=O)c1cc2ccc(C(F)(F)F)cc2n1C(=O)OCC(=O)OCCBr (protonated)
[NH-]C(=O)c1cc2ccc(C(F)(F)F)cc2n1C(=O)OCC(=O)OCCBr (3D coordinates assigned)
[NH-]C(=O)c1cc2ccc(C(F)(F)F)cc2n1C(=O)OCC(=O)OCCBr (optimized conformer: 70.26589815345426 kcal/mol)

>  <smiles>  (61) 
NC(=O)c1cc2ccc(C(F)(F)F)cc2n1C(=O)OCC(=O)OCCBr

>  <score_type>  (61) 
oracle

>  <origin>  (61) 
adg

>  <m_score__min__energy>  (61) 
-10.51

>  <m_primary>  (61) 
energy

$$$$
62:0
     RDKit          3D

 38 39  0  0  0  0  0  0  0  0999 V2000
   -7.8970   18.7860  -32.7080 C   0  0  0  0  0  0  0  0  0  0  0  0
   -7.7830   20.1880  -32.1830 C   0  0  0  0  0  0  0  0  0  0  0  0
   -8.9550   20.9450  -31.9270 C   0  0  0  0  0  0  0  0  0  0  0  0
   -8.8660   22.2790  -31.4950 C   0  0  0  0  0  0  0  0  0  0  0  0
   -7.5960   22.8280  -31.3330 C   0  0  0  0  0  0  0  0  0  0  0  0
   -7.2250   24.1040  -30.9750 C   0  0  0  0  0  0  0  0  0  0  0  0
   -5.8310   24.1060  -31.0080 C   0  0  0  0  0  0  0  0  0  0  0  0
   -5.0100   25.2740  -30.6220 C   0  0  0  0  0  0  0  0  0  0  0  0
   -3.5990   25.1290  -30.4750 N   0  0  0  0  0  0  0  0  0  0  0  0
   -5.5340   26.4060  -30.4570 O   0  0  0  0  0  0  0  0  0  0  0  0
   -5.3590   22.8810  -31.3760 N   0  0  0  0  0  0  0  0  0  0  0  0
   -3.9940   22.4970  -31.6030 C   0  0  0  0  0  0  0  0  0  0  0  0
   -3.5800   22.3010  -32.7810 O   0  0  0  0  0  0  0  0  0  0  0  0
   -3.1210   22.3690  -30.5190 O   0  0  0  0  0  0  0  0  0  0  0  0
   -3.5350   21.8790  -29.2490 C   0  0  0  0  0  0  0  0  0  0  0  0
   -3.5180   22.9400  -28.3000 O   0  0  0  0  0  0  0  0  0  0  0  0
   -2.4800   23.1110  -27.3770 C   0  0  0  0  0  0  0  0  0  0  0  0
   -2.0270   22.1270  -26.7270 O   0  0  0  0  0  0  0  0  0  0  0  0
   -1.9230   24.4760  -27.1420 C   0  0  0  0  0  0  0  0  0  0  0  0
   -0.8870   24.9820  -28.5500 P   0  0  1  0  0  0  0  0  0  0  0  0
   -1.2380   26.3930  -28.9640 O   0  0  0  0  0  0  0  0  0  0  0  0
    0.7460   24.9140  -28.1020 O   0  0  0  0  0  0  0  0  0  0  0  0
   -1.1520   23.9320  -29.8510 O   0  0  0  0  0  0  0  0  0  0  0  0
   -6.4520   22.1090  -31.5720 C   0  0  0  0  0  0  0  0  0  0  0  0
   -6.5120   20.7830  -32.0170 C   0  0  0  0  0  0  0  0  0  0  0  0
   -7.9542   18.0822  -31.8646 H   0  0  0  0  0  0  0  0  0  0  0  0
   -8.8053   18.6971  -33.3220 H   0  0  0  0  0  0  0  0  0  0  0  0
   -7.0150   18.5515  -33.3220 H   0  0  0  0  0  0  0  0  0  0  0  0
   -9.9433   20.4831  -32.0681 H   0  0  0  0  0  0  0  0  0  0  0  0
   -9.7704   22.8710  -31.2912 H   0  0  0  0  0  0  0  0  0  0  0  0
   -7.8873   24.9437  -30.7176 H   0  0  0  0  0  0  0  0  0  0  0  0
   -3.1960   24.4220  -29.8190 H   0  0  0  0  0  0  0  0  0  0  0  0
   -4.5547   21.4740  -29.3274 H   0  0  0  0  0  0  0  0  0  0  0  0
   -2.8479   21.0847  -28.9218 H   0  0  0  0  0  0  0  0  0  0  0  0
   -2.7506   25.1910  -27.0242 H   0  0  0  0  0  0  0  0  0  0  0  0
   -1.3077   24.4609  -26.2303 H   0  0  0  0  0  0  0  0  0  0  0  0
   -2.1160   23.7050  -29.8040 H   0  0  0  0  0  0  0  0  0  0  0  0
   -5.5928   20.2184  -32.2321 H   0  0  0  0  0  0  0  0  0  0  0  0
  1  2  1  0
  2  3  2  0
  3  4  1  0
  4  5  2  0
  5  6  1  0
  6  7  2  0
  7  8  1  0
  8  9  1  0
  8 10  2  0
  7 11  1  0
 11 12  1  0
 12 13  2  0
 12 14  1  0
 14 15  1  0
 15 16  1  0
 16 17  1  0
 17 18  2  0
 17 19  1  0
 19 20  1  0
 20 21  2  0
 20 22  1  1
 20 23  1  0
 11 24  1  0
 24 25  2  0
 25  2  1  0
 24  5  1  0
  1 26  1  0
  1 27  1  0
  1 28  1  0
  3 29  1  0
  4 30  1  0
  6 31  1  0
  9 32  1  0
 15 33  1  0
 15 34  1  0
 19 35  1  0
 19 36  1  0
 23 37  1  0
 25 38  1  0
M  CHG  2   9  -1  22  -1
M  END
>  <UniqueID>  (62) 
62

>  <SMILES>  (62) 
Cc1ccc2cc(C([NH-])=O)n(C(=O)OCOC(=O)C[P@@](=O)([O-])O)c2c1

>  <Energy>  (62) 
66.36741971694923

>  <Genealogy>  (62) 
Cc1ccc2cc(C([NH-])=O)n(C(=O)OCOC(=O)CP(=O)([O-])O)c2c1 (protonated)
Cc1ccc2cc(C([NH-])=O)n(C(=O)OCOC(=O)C[P@@](=O)([O-])O)c2c1 (chirality)
Cc1ccc2cc(C([NH-])=O)n(C(=O)OCOC(=O)C[P@@](=O)([O-])O)c2c1 (3D coordinates assigned)
Cc1ccc2cc(C([NH-])=O)n(C(=O)OCOC(=O)C[P@@](=O)([O-])O)c2c1 (optimized conformer: 66.36741971694923 kcal/mol)

>  <smiles>  (62) 
Cc1ccc2cc(C(N)=O)n(C(=O)OCOC(=O)CP(=O)(O)O)c2c1

>  <score_type>  (62) 
oracle

>  <origin>  (62) 
adg

>  <m_score__min__energy>  (62) 
-11.82

>  <m_primary>  (62) 
energy

$$$$
63:0
     RDKit          3D

 46 48  0  0  0  0  0  0  0  0999 V2000
   -4.1250   24.4730  -26.9710 C   0  0  0  0  0  0  0  0  0  0  0  0
   -3.0480   23.6930  -27.5960 N   0  0  0  0  0  0  0  0  0  0  0  0
   -3.3940   22.3750  -28.0930 C   0  0  0  0  0  0  0  0  0  0  0  0
   -4.2230   21.6740  -27.4480 O   0  0  0  0  0  0  0  0  0  0  0  0
   -2.7960   21.7830  -29.3400 C   0  0  0  0  0  0  0  0  0  0  0  0
   -2.9460   22.6930  -30.4240 O   0  0  0  0  0  0  0  0  0  0  0  0
   -3.8690   22.4980  -31.4560 C   0  0  0  0  0  0  0  0  0  0  0  0
   -3.4790   22.1200  -32.5950 O   0  0  0  0  0  0  0  0  0  0  0  0
   -5.2620   22.7560  -31.2220 N   0  0  0  0  0  0  0  0  0  0  0  0
   -5.8390   23.9040  -30.7640 C   0  0  0  0  0  0  0  0  0  0  0  0
   -5.1500   25.1920  -30.5370 C   0  0  0  0  0  0  0  0  0  0  0  0
   -3.7620   25.3140  -30.8390 N   0  0  0  0  0  0  0  0  0  0  0  0
   -5.7630   26.1750  -30.0470 O   0  0  0  0  0  0  0  0  0  0  0  0
   -7.2140   23.7330  -30.6130 C   0  0  0  0  0  0  0  0  0  0  0  0
   -7.4650   22.4370  -31.0020 C   0  0  0  0  0  0  0  0  0  0  0  0
   -8.6660   21.7380  -31.0560 C   0  0  0  0  0  0  0  0  0  0  0  0
   -8.6310   20.4000  -31.4830 C   0  0  0  0  0  0  0  0  0  0  0  0
   -7.4010   19.7790  -31.8220 C   0  0  0  0  0  0  0  0  0  0  0  0
   -7.3800   18.3540  -32.3170 C   0  0  0  0  0  0  0  0  0  0  0  0
   -6.5490   17.5760  -31.5310 F   0  0  0  0  0  0  0  0  0  0  0  0
   -6.9190   18.2970  -33.6210 F   0  0  0  0  0  0  0  0  0  0  0  0
   -8.6610   17.8380  -32.2690 F   0  0  0  0  0  0  0  0  0  0  0  0
   -6.2050   20.5320  -31.7760 C   0  0  0  0  0  0  0  0  0  0  0  0
   -6.2730   21.8690  -31.3640 C   0  0  0  0  0  0  0  0  0  0  0  0
   -1.6850   24.2780  -27.6180 C   0  0  2  0  0  0  0  0  0  0  0  0
   -1.6000   25.5680  -26.8380 C   0  0  0  0  0  0  0  0  0  0  0  0
   -1.0460   26.5650  -27.8430 C   0  0  0  0  0  0  0  0  0  0  0  0
   -1.2030   26.0450  -29.1420 O   0  0  0  0  0  0  0  0  0  0  0  0
   -1.1930   24.6440  -29.0160 C   0  0  0  0  0  0  0  0  0  0  0  0
   -4.0365   24.4089  -25.8764 H   0  0  0  0  0  0  0  0  0  0  0  0
   -4.0456   25.5244  -27.2843 H   0  0  0  0  0  0  0  0  0  0  0  0
   -5.0992   24.0696  -27.2843 H   0  0  0  0  0  0  0  0  0  0  0  0
   -1.7267   21.5852  -29.1742 H   0  0  0  0  0  0  0  0  0  0  0  0
   -3.3133   20.8424  -29.5804 H   0  0  0  0  0  0  0  0  0  0  0  0
   -3.0420   25.2650  -30.0830 H   0  0  0  0  0  0  0  0  0  0  0  0
   -7.9435   24.4760  -30.2583 H   0  0  0  0  0  0  0  0  0  0  0  0
   -9.6144   22.2180  -30.7730 H   0  0  0  0  0  0  0  0  0  0  0  0
   -9.5675   19.8275  -31.5553 H   0  0  0  0  0  0  0  0  0  0  0  0
   -5.2433   20.0782  -32.0573 H   0  0  0  0  0  0  0  0  0  0  0  0
   -1.0685   23.4795  -27.1794 H   0  0  0  0  0  0  0  0  0  0  0  0
   -2.5945   25.8788  -26.4855 H   0  0  0  0  0  0  0  0  0  0  0  0
   -0.9741   25.4798  -25.9378 H   0  0  0  0  0  0  0  0  0  0  0  0
   -1.5926   27.5158  -27.7583 H   0  0  0  0  0  0  0  0  0  0  0  0
    0.0208   26.7413  -27.6407 H   0  0  0  0  0  0  0  0  0  0  0  0
   -1.8576   24.1991  -29.7712 H   0  0  0  0  0  0  0  0  0  0  0  0
   -0.1736   24.2599  -29.1685 H   0  0  0  0  0  0  0  0  0  0  0  0
  1  2  1  0
  2  3  1  0
  3  4  2  0
  3  5  1  0
  5  6  1  0
  6  7  1  0
  7  8  2  0
  7  9  1  0
  9 10  1  0
 10 11  1  0
 11 12  1  0
 11 13  2  0
 10 14  2  0
 14 15  1  0
 15 16  2  0
 16 17  1  0
 17 18  2  0
 18 19  1  0
 19 20  1  0
 19 21  1  0
 19 22  1  0
 18 23  1  0
 23 24  2  0
  2 25  1  0
 25 26  1  0
 26 27  1  0
 27 28  1  0
 28 29  1  0
 24  9  1  0
 29 25  1  0
 24 15  1  0
  1 30  1  0
  1 31  1  0
  1 32  1  0
  5 33  1  0
  5 34  1  0
 12 35  1  0
 14 36  1  0
 16 37  1  0
 17 38  1  0
 23 39  1  0
 25 40  1  1
 26 41  1  0
 26 42  1  0
 27 43  1  0
 27 44  1  0
 29 45  1  0
 29 46  1  0
M  CHG  1  12  -1
M  END
>  <UniqueID>  (63) 
63

>  <SMILES>  (63) 
CN(C(=O)COC(=O)n1c(C([NH-])=O)cc2ccc(C(F)(F)F)cc21)[C@@H]1CCOC1

>  <Energy>  (63) 
88.8414985180896

>  <Genealogy>  (63) 
CN(C(=O)COC(=O)n1c(C([NH-])=O)cc2ccc(C(F)(F)F)cc21)[C@@H]1CCOC1 (protonated)
CN(C(=O)COC(=O)n1c(C([NH-])=O)cc2ccc(C(F)(F)F)cc21)[C@@H]1CCOC1 (3D coordinates assigned)
CN(C(=O)COC(=O)n1c(C([NH-])=O)cc2ccc(C(F)(F)F)cc21)[C@@H]1CCOC1 (nonaromatic ring conformer: 88.8414985180896 kcal/mol)

>  <smiles>  (63) 
CN(C(=O)COC(=O)n1c(C(N)=O)cc2ccc(C(F)(F)F)cc21)[C@@H]1CCOC1

>  <score_type>  (63) 
oracle

>  <origin>  (63) 
adg

>  <m_score__min__energy>  (63) 
-10.65

>  <m_primary>  (63) 
energy

$$$$
64:0
     RDKit          3D

 42 43  0  0  0  0  0  0  0  0999 V2000
   -2.8110   25.2940  -30.1430 H   0  0  0  0  0  0  0  0  0  0  0  0
   -3.5040   24.9290  -30.8340 N   0  0  0  0  0  0  0  0  0  0  0  0
   -4.8970   24.9110  -30.5330 C   0  0  0  0  0  0  0  0  0  0  0  0
   -5.4160   25.8920  -29.9380 O   0  0  0  0  0  0  0  0  0  0  0  0
   -5.7120   23.7320  -30.8810 C   0  0  0  0  0  0  0  0  0  0  0  0
   -7.0590   23.7950  -31.2320 C   0  0  0  0  0  0  0  0  0  0  0  0
   -7.7076   24.6834  -31.2335 H   0  0  0  0  0  0  0  0  0  0  0  0
   -7.4050   22.5060  -31.5770 C   0  0  0  0  0  0  0  0  0  0  0  0
   -8.6270   21.9860  -31.9890 C   0  0  0  0  0  0  0  0  0  0  0  0
   -9.5081   22.6337  -32.1077 H   0  0  0  0  0  0  0  0  0  0  0  0
   -8.7010   20.6070  -32.2490 C   0  0  0  0  0  0  0  0  0  0  0  0
   -9.6543   20.1646  -32.5737 H   0  0  0  0  0  0  0  0  0  0  0  0
   -7.5590   19.7800  -32.0970 C   0  0  0  0  0  0  0  0  0  0  0  0
   -7.6630   18.3030  -32.3330 C   0  0  0  0  0  0  0  0  0  0  0  0
   -7.4439   17.7671  -31.3977 H   0  0  0  0  0  0  0  0  0  0  0  0
   -8.6815   18.0589  -32.6691 H   0  0  0  0  0  0  0  0  0  0  0  0
   -6.4960   17.8110  -33.5840 Cl  0  0  0  0  0  0  0  0  0  0  0  0
   -6.3390   20.3420  -31.6620 C   0  0  0  0  0  0  0  0  0  0  0  0
   -5.4491   19.7129  -31.5126 H   0  0  0  0  0  0  0  0  0  0  0  0
   -6.2920   21.7200  -31.4260 C   0  0  0  0  0  0  0  0  0  0  0  0
   -5.2470   22.4590  -30.9950 N   0  0  0  0  0  0  0  0  0  0  0  0
   -3.9500   21.9680  -30.6320 C   0  0  0  0  0  0  0  0  0  0  0  0
   -2.9280   22.3860  -31.2410 O   0  0  0  0  0  0  0  0  0  0  0  0
   -3.8340   20.9950  -29.6320 O   0  0  0  0  0  0  0  0  0  0  0  0
   -2.6010   20.7040  -28.9820 C   0  0  0  0  0  0  0  0  0  0  0  0
   -1.9091   20.2434  -29.7025 H   0  0  0  0  0  0  0  0  0  0  0  0
   -2.7869   20.0110  -28.1483 H   0  0  0  0  0  0  0  0  0  0  0  0
   -1.9910   21.9710  -28.4450 C   0  0  0  0  0  0  0  0  0  0  0  0
   -0.9086   22.1167  -28.5764 H   0  0  0  0  0  0  0  0  0  0  0  0
   -2.6870   22.9410  -27.8120 C   0  0  0  0  0  0  0  0  0  0  0  0
   -4.1750   22.8310  -27.5870 C   0  0  0  0  0  0  0  0  0  0  0  0
   -4.3824   22.8157  -26.5068 H   0  0  0  0  0  0  0  0  0  0  0  0
   -4.6799   23.6943  -28.0451 H   0  0  0  0  0  0  0  0  0  0  0  0
   -4.5475   21.9029  -28.0451 H   0  0  0  0  0  0  0  0  0  0  0  0
   -1.9560   24.1630  -27.3090 C   0  0  0  0  0  0  0  0  0  0  0  0
   -2.6892   24.9123  -26.9759 H   0  0  0  0  0  0  0  0  0  0  0  0
   -1.3068   23.8702  -26.4706 H   0  0  0  0  0  0  0  0  0  0  0  0
   -0.9270   24.8770  -28.6310 P   0  0  2  0  0  5  0  0  0  0  0  0
    0.5150   24.9000  -28.1820 O   0  0  0  0  0  0  0  0  0  0  0  0
   -1.4320   26.4570  -28.9630 O   0  0  0  0  0  0  0  0  0  0  0  0
   -1.0610   23.9350  -30.0300 O   0  0  0  0  0  0  0  0  0  0  0  0
   -1.9720   24.1190  -30.3750 H   0  0  0  0  0  0  0  0  0  0  0  0
  1  2  1  0
  2  3  1  0
  3  4  2  0
  3  5  1  0
  5  6  2  0
  6  7  1  0
  6  8  1  0
  8  9  2  0
  9 10  1  0
  9 11  1  0
 11 12  1  0
 11 13  2  0
 13 14  1  0
 14 15  1  0
 14 16  1  0
 14 17  1  0
 13 18  1  0
 18 19  1  0
 18 20  2  0
 20 21  1  0
 21 22  1  0
 22 23  2  0
 22 24  1  0
 24 25  1  0
 25 26  1  0
 25 27  1  0
 25 28  1  0
 28 29  1  0
 28 30  2  0
 30 31  1  0
 31 32  1  0
 31 33  1  0
 31 34  1  0
 30 35  1  0
 35 36  1  0
 35 37  1  0
 35 38  1  0
 38 39  2  0
 38 40  1  6
 38 41  1  0
 41 42  1  0
 21  5  1  0
 20  8  1  0
M  CHG  2   2  -1  40  -1
M  END
>  <UniqueID>  (64) 
64

>  <SMILES>  (64) 
C/C(=C\COC(=O)n1c(C([NH-])=O)cc2ccc(CCl)cc21)C[P@](=O)([O-])O

>  <Energy>  (64) 
68.32614920649654

>  <Genealogy>  (64) 
CC(=CCOC(=O)n1c(C([NH-])=O)cc2ccc(CCl)cc21)CP(=O)([O-])O (protonated)
CC(=CCOC(=O)n1c(C([NH-])=O)cc2ccc(CCl)cc21)C[P@](=O)([O-])O (chirality)
C/C(=C\COC(=O)n1c(C([NH-])=O)cc2ccc(CCl)cc21)C[P@](=O)([O-])O (cis-trans isomerization)
C/C(=C\COC(=O)n1c(C([NH-])=O)cc2ccc(CCl)cc21)C[P@](=O)([O-])O (3D coordinates assigned)
C/C(=C\COC(=O)n1c(C([NH-])=O)cc2ccc(CCl)cc21)C[P@](=O)([O-])O (optimized conformer: 68.32614920649654 kcal/mol)

>  <smiles>  (64) 
CC(=CCOC(=O)n1c(C(N)=O)cc2ccc(CCl)cc21)CP(=O)(O)O

>  <score_type>  (64) 
oracle

>  <origin>  (64) 
adg

>  <m_score__min__energy>  (64) 
-13.789999999999999

>  <m_primary>  (64) 
energy

$$$$
65:0
     RDKit          3D

 34 36  0  0  0  0  0  0  0  0999 V2000
   -3.8950   25.6680  -30.8450 N   0  0  0  0  0  0  0  0  0  0  0  0
   -5.1530   25.1220  -30.4570 C   0  0  0  0  0  0  0  0  0  0  0  0
   -5.8200   25.6900  -29.5530 O   0  0  0  0  0  0  0  0  0  0  0  0
   -5.6540   23.8690  -31.0590 C   0  0  0  0  0  0  0  0  0  0  0  0
   -7.0080   23.6030  -31.2570 C   0  0  0  0  0  0  0  0  0  0  0  0
   -7.0590   22.3190  -31.7480 C   0  0  0  0  0  0  0  0  0  0  0  0
   -8.1540   21.5510  -32.1310 C   0  0  0  0  0  0  0  0  0  0  0  0
   -7.9110   20.2630  -32.6360 C   0  0  0  0  0  0  0  0  0  0  0  0
   -6.5870   19.7660  -32.7560 C   0  0  0  0  0  0  0  0  0  0  0  0
   -6.3410   18.4070  -33.3020 C   0  0  0  0  0  0  0  0  0  0  0  0
   -5.2180   18.1410  -34.0970 C   0  0  0  0  0  0  0  0  0  0  0  0
   -5.0160   16.8540  -34.5940 C   0  0  0  0  0  0  0  0  0  0  0  0
   -5.9090   15.8740  -34.3040 N   0  0  0  0  0  0  0  0  0  0  0  0
   -6.9820   16.1180  -33.5500 N   0  0  0  0  0  0  0  0  0  0  0  0
   -7.2280   17.3510  -33.0370 C   0  0  0  0  0  0  0  0  0  0  0  0
   -5.5000   20.5810  -32.3540 C   0  0  0  0  0  0  0  0  0  0  0  0
   -5.7740   21.8520  -31.8380 C   0  0  0  0  0  0  0  0  0  0  0  0
   -4.8980   22.7940  -31.4220 N   0  0  0  0  0  0  0  0  0  0  0  0
   -3.4650   22.7050  -31.4600 C   0  0  0  0  0  0  0  0  0  0  0  0
   -2.8890   22.2450  -32.4830 O   0  0  0  0  0  0  0  0  0  0  0  0
   -2.7130   23.1470  -30.3680 O   0  0  0  0  0  0  0  0  0  0  0  0
   -3.0070   22.7710  -29.0280 C   0  0  0  0  0  0  0  0  0  0  0  0
   -2.8160   24.1860  -27.9690 Cl  0  0  0  0  0  0  0  0  0  0  0  0
   -3.0020   25.2870  -30.4580 H   0  0  0  0  0  0  0  0  0  0  0  0
   -7.8555   24.2766  -31.0621 H   0  0  0  0  0  0  0  0  0  0  0  0
   -9.1788   21.9405  -32.0411 H   0  0  0  0  0  0  0  0  0  0  0  0
   -8.7578   19.6314  -32.9424 H   0  0  0  0  0  0  0  0  0  0  0  0
   -4.5005   18.9423  -34.3274 H   0  0  0  0  0  0  0  0  0  0  0  0
   -4.1372   16.6341  -35.2180 H   0  0  0  0  0  0  0  0  0  0  0  0
   -5.7550   14.9110  -34.6770 H   0  0  0  0  0  0  0  0  0  0  0  0
   -8.1194   17.5221  -32.4157 H   0  0  0  0  0  0  0  0  0  0  0  0
   -4.4641   20.2224  -32.4456 H   0  0  0  0  0  0  0  0  0  0  0  0
   -4.0419   22.4032  -28.9676 H   0  0  0  0  0  0  0  0  0  0  0  0
   -2.3192   21.9743  -28.7082 H   0  0  0  0  0  0  0  0  0  0  0  0
  1  2  1  0
  2  3  2  0
  2  4  1  0
  4  5  2  0
  5  6  1  0
  6  7  2  0
  7  8  1  0
  8  9  2  0
  9 10  1  0
 10 11  2  0
 11 12  1  0
 12 13  2  0
 13 14  1  0
 14 15  2  0
  9 16  1  0
 16 17  2  0
 17 18  1  0
 18 19  1  0
 19 20  2  0
 19 21  1  0
 21 22  1  0
 22 23  1  0
 18  4  1  0
 17  6  1  0
 15 10  1  0
  1 24  1  0
  5 25  1  0
  7 26  1  0
  8 27  1  0
 11 28  1  0
 12 29  1  0
 13 30  1  0
 15 31  1  0
 16 32  1  0
 22 33  1  0
 22 34  1  0
M  CHG  2   1  -1  13   1
M  END
>  <UniqueID>  (65) 
65

>  <SMILES>  (65) 
[NH-]C(=O)c1cc2ccc(-c3cc[nH+]nc3)cc2n1C(=O)OCCl

>  <Energy>  (65) 
79.16080498127613

>  <Genealogy>  (65) 
[NH-]C(=O)c1cc2ccc(-c3cc[nH+]nc3)cc2n1C(=O)OCCl (protonated)
[NH-]C(=O)c1cc2ccc(-c3cc[nH+]nc3)cc2n1C(=O)OCCl (3D coordinates assigned)
[NH-]C(=O)c1cc2ccc(-c3cc[nH+]nc3)cc2n1C(=O)OCCl (optimized conformer: 79.16080498127613 kcal/mol)

>  <smiles>  (65) 
NC(=O)c1cc2ccc(-c3ccnnc3)cc2n1C(=O)OCCl

>  <score_type>  (65) 
oracle

>  <origin>  (65) 
adg

>  <m_score__min__energy>  (65) 
-10.050000000000001

>  <m_primary>  (65) 
energy

$$$$
66:0
     RDKit          3D

 41 42  0  0  0  0  0  0  0  0999 V2000
   -3.7810   25.2910  -30.4880 N   0  0  0  0  0  0  0  0  0  0  0  0
   -5.1090   24.8570  -30.2070 C   0  0  0  0  0  0  0  0  0  0  0  0
   -5.8300   25.5410  -29.4320 O   0  0  0  0  0  0  0  0  0  0  0  0
   -5.6220   23.6110  -30.8140 C   0  0  0  0  0  0  0  0  0  0  0  0
   -6.9560   23.4050  -31.1610 C   0  0  0  0  0  0  0  0  0  0  0  0
   -7.0000   22.1440  -31.7130 C   0  0  0  0  0  0  0  0  0  0  0  0
   -8.0750   21.4260  -32.2250 C   0  0  0  0  0  0  0  0  0  0  0  0
   -7.8280   20.1340  -32.7190 C   0  0  0  0  0  0  0  0  0  0  0  0
   -6.5260   19.5730  -32.6690 C   0  0  0  0  0  0  0  0  0  0  0  0
   -6.2660   18.2030  -33.2400 C   0  0  0  0  0  0  0  0  0  0  0  0
   -4.9580   17.8170  -33.0060 F   0  0  0  0  0  0  0  0  0  0  0  0
   -7.1180   17.2930  -32.6430 F   0  0  0  0  0  0  0  0  0  0  0  0
   -6.4830   18.1930  -34.6070 F   0  0  0  0  0  0  0  0  0  0  0  0
   -5.4550   20.3460  -32.1590 C   0  0  0  0  0  0  0  0  0  0  0  0
   -5.7290   21.6330  -31.6880 C   0  0  0  0  0  0  0  0  0  0  0  0
   -4.8720   22.5240  -31.1460 N   0  0  0  0  0  0  0  0  0  0  0  0
   -3.4690   22.3280  -30.9120 C   0  0  0  0  0  0  0  0  0  0  0  0
   -2.6360   23.0420  -31.5340 O   0  0  0  0  0  0  0  0  0  0  0  0
   -2.9860   21.2050  -30.0350 C   0  0  0  0  0  0  0  0  0  0  0  0
   -1.7450   20.7970  -30.4820 F   0  0  0  0  0  0  0  0  0  0  0  0
   -3.8540   20.1300  -30.1060 F   0  0  0  0  0  0  0  0  0  0  0  0
   -2.8500   21.7250  -28.3270 S   0  0  0  0  0  0  0  0  0  0  0  0
   -4.1070   22.4280  -27.8950 O   0  0  0  0  0  0  0  0  0  0  0  0
   -2.6390   20.5260  -27.4450 O   0  0  0  0  0  0  0  0  0  0  0  0
   -1.4990   22.7920  -28.1480 N   0  0  0  0  0  0  0  0  0  0  0  0
   -1.4670   24.1030  -28.7110 C   0  0  0  0  0  0  0  0  0  0  0  0
   -0.7520   24.3450  -29.7230 O   0  0  0  0  0  0  0  0  0  0  0  0
   -2.2430   25.1110  -28.1320 O   0  0  0  0  0  0  0  0  0  0  0  0
   -2.3400   25.3180  -26.7240 C   0  0  0  0  0  0  0  0  0  0  0  0
   -3.8030   25.2960  -26.2770 C   0  0  0  0  0  0  0  0  0  0  0  0
   -4.6180   24.8100  -27.3080 O   0  0  0  0  0  0  0  0  0  0  0  0
   -2.9560   24.7380  -30.1660 H   0  0  0  0  0  0  0  0  0  0  0  0
   -7.7958   24.1019  -31.0232 H   0  0  0  0  0  0  0  0  0  0  0  0
   -9.0873   21.8560  -32.2428 H   0  0  0  0  0  0  0  0  0  0  0  0
   -8.6547   19.5502  -33.1500 H   0  0  0  0  0  0  0  0  0  0  0  0
   -4.4317   19.9432  -32.1341 H   0  0  0  0  0  0  0  0  0  0  0  0
   -1.7904   24.5205  -26.2025 H   0  0  0  0  0  0  0  0  0  0  0  0
   -1.9086   26.2998  -26.4789 H   0  0  0  0  0  0  0  0  0  0  0  0
   -3.9039   24.6444  -25.3966 H   0  0  0  0  0  0  0  0  0  0  0  0
   -4.1162   26.3199  -26.0251 H   0  0  0  0  0  0  0  0  0  0  0  0
   -4.1610   25.0360  -28.1610 H   0  0  0  0  0  0  0  0  0  0  0  0
  1  2  1  0
  2  3  2  0
  2  4  1  0
  4  5  2  0
  5  6  1  0
  6  7  2  0
  7  8  1  0
  8  9  2  0
  9 10  1  0
 10 11  1  0
 10 12  1  0
 10 13  1  0
  9 14  1  0
 14 15  2  0
 15 16  1  0
 16 17  1  0
 17 18  2  0
 17 19  1  0
 19 20  1  0
 19 21  1  0
 19 22  1  0
 22 23  2  0
 22 24  2  0
 22 25  1  0
 25 26  1  0
 26 27  2  0
 26 28  1  0
 28 29  1  0
 29 30  1  0
 30 31  1  0
 16  4  1  0
 15  6  1  0
  1 32  1  0
  5 33  1  0
  7 34  1  0
  8 35  1  0
 14 36  1  0
 29 37  1  0
 29 38  1  0
 30 39  1  0
 30 40  1  0
 31 41  1  0
M  CHG  2   1  -1  25  -1
M  END
>  <UniqueID>  (66) 
66

>  <SMILES>  (66) 
[NH-]C(=O)c1cc2ccc(C(F)(F)F)cc2n1C(=O)C(F)(F)S(=O)(=O)[N-]C(=O)OCCO

>  <Energy>  (66) 
75.92263590707535

>  <Genealogy>  (66) 
[NH-]C(=O)c1cc2ccc(C(F)(F)F)cc2n1C(=O)C(F)(F)S(=O)(=O)[N-]C(=O)OCCO (protonated)
[NH-]C(=O)c1cc2ccc(C(F)(F)F)cc2n1C(=O)C(F)(F)S(=O)(=O)[N-]C(=O)OCCO (3D coordinates assigned)
[NH-]C(=O)c1cc2ccc(C(F)(F)F)cc2n1C(=O)C(F)(F)S(=O)(=O)[N-]C(=O)OCCO (optimized conformer: 75.92263590707535 kcal/mol)

>  <smiles>  (66) 
NC(=O)c1cc2ccc(C(F)(F)F)cc2n1C(=O)C(F)(F)S(=O)(=O)NC(=O)OCCO

>  <score_type>  (66) 
oracle

>  <origin>  (66) 
adg

>  <m_score__min__energy>  (66) 
-10.449999999999999

>  <m_primary>  (66) 
energy

$$$$
67:0
     RDKit          3D

 68 71  0  0  0  0  0  0  0  0999 V2000
   -2.9830   21.2220  -30.4010 C   0  0  0  0  0  0  0  0  0  0  0  0
   -3.5410   22.4310  -31.0800 C   0  0  0  0  0  0  0  0  0  0  0  0
   -2.7560   23.2900  -31.5580 O   0  0  0  0  0  0  0  0  0  0  0  0
   -4.9600   22.6260  -31.1740 N   0  0  0  0  0  0  0  0  0  0  0  0
   -5.6970   23.6650  -30.6910 C   0  0  0  0  0  0  0  0  0  0  0  0
   -5.1610   24.8700  -30.0230 C   0  0  0  0  0  0  0  0  0  0  0  0
   -3.8200   25.3020  -30.2460 N   0  0  0  0  0  0  0  0  0  0  0  0
   -5.8990   25.5340  -29.2470 O   0  0  0  0  0  0  0  0  0  0  0  0
   -7.0510   23.4630  -30.9570 C   0  0  0  0  0  0  0  0  0  0  0  0
   -7.1180   22.2580  -31.6200 C   0  0  0  0  0  0  0  0  0  0  0  0
   -8.2210   21.5650  -32.1150 C   0  0  0  0  0  0  0  0  0  0  0  0
   -7.9940   20.3200  -32.7280 C   0  0  0  0  0  0  0  0  0  0  0  0
   -6.6830   19.7890  -32.8230 C   0  0  0  0  0  0  0  0  0  0  0  0
   -6.4660   18.5040  -33.4370 N   0  0  0  0  0  0  0  0  0  0  0  0
   -6.6910   17.2640  -32.6940 C   0  0  0  0  0  0  0  0  0  0  0  0
   -5.3860   16.4580  -32.5820 C   0  0  0  0  0  0  0  0  0  0  0  0
   -4.3650   16.7370  -33.7270 C   0  0  0  0  0  0  0  0  0  0  0  0
   -3.4570   15.5600  -33.9260 N   0  0  0  0  0  0  0  0  0  0  0  0
   -2.5380   15.6740  -35.0780 C   0  0  0  0  0  0  0  0  0  0  0  0
   -1.5910   16.8740  -34.9500 C   0  0  0  0  0  0  0  0  0  0  0  0
   -1.1240   17.1080  -33.5710 N   0  0  0  0  0  0  0  0  0  0  0  0
   -0.2370   18.2220  -33.3490 C   0  0  0  0  0  0  0  0  0  0  0  0
    0.2110   18.4500  -32.1920 O   0  0  0  0  0  0  0  0  0  0  0  0
    0.1030   19.0620  -34.4230 O   0  0  0  0  0  0  0  0  0  0  0  0
   -0.2640   20.4390  -34.5740 C   0  0  0  0  0  0  0  0  0  0  0  0
    0.6380   21.2500  -33.6290 C   0  0  0  0  0  0  0  0  0  0  0  0
   -0.0180   20.9100  -36.0210 C   0  0  0  0  0  0  0  0  0  0  0  0
   -1.7350   20.6560  -34.1740 C   0  0  0  0  0  0  0  0  0  0  0  0
   -1.6610   16.4020  -32.3910 C   0  0  0  0  0  0  0  0  0  0  0  0
   -2.6240   15.2580  -32.7410 C   0  0  0  0  0  0  0  0  0  0  0  0
   -5.1370   17.1220  -35.0180 C   0  0  0  0  0  0  0  0  0  0  0  0
   -5.9360   18.4220  -34.8040 C   0  0  0  0  0  0  0  0  0  0  0  0
   -5.5890   20.5330  -32.3250 C   0  0  0  0  0  0  0  0  0  0  0  0
   -5.8430   21.7730  -31.7350 C   0  0  0  0  0  0  0  0  0  0  0  0
   -3.0435   21.3532  -29.3105 H   0  0  0  0  0  0  0  0  0  0  0  0
   -3.5629   20.3352  -30.6964 H   0  0  0  0  0  0  0  0  0  0  0  0
   -1.9319   21.0879  -30.6964 H   0  0  0  0  0  0  0  0  0  0  0  0
   -3.4190   25.3310  -31.2080 H   0  0  0  0  0  0  0  0  0  0  0  0
   -7.8882   24.1259  -30.6931 H   0  0  0  0  0  0  0  0  0  0  0  0
   -9.2366   21.9786  -32.0290 H   0  0  0  0  0  0  0  0  0  0  0  0
   -8.8423   19.7523  -33.1380 H   0  0  0  0  0  0  0  0  0  0  0  0
   -7.0535   17.5078  -31.6845 H   0  0  0  0  0  0  0  0  0  0  0  0
   -7.4375   16.6591  -33.2296 H   0  0  0  0  0  0  0  0  0  0  0  0
   -4.9070   16.7076  -31.6237 H   0  0  0  0  0  0  0  0  0  0  0  0
   -5.6621   15.3957  -32.6551 H   0  0  0  0  0  0  0  0  0  0  0  0
   -3.7181   17.5841  -33.4550 H   0  0  0  0  0  0  0  0  0  0  0  0
   -1.9375   14.7548  -35.1439 H   0  0  0  0  0  0  0  0  0  0  0  0
   -3.1475   15.8209  -35.9818 H   0  0  0  0  0  0  0  0  0  0  0  0
   -0.7139   16.6956  -35.5894 H   0  0  0  0  0  0  0  0  0  0  0  0
   -2.1554   17.7668  -35.2572 H   0  0  0  0  0  0  0  0  0  0  0  0
    0.3791   21.0172  -32.5855 H   0  0  0  0  0  0  0  0  0  0  0  0
    1.6906   20.9886  -33.8127 H   0  0  0  0  0  0  0  0  0  0  0  0
    0.4896   22.3243  -33.8127 H   0  0  0  0  0  0  0  0  0  0  0  0
    0.4912   21.8850  -36.0077 H   0  0  0  0  0  0  0  0  0  0  0  0
    0.6113   20.1748  -36.5439 H   0  0  0  0  0  0  0  0  0  0  0  0
   -0.9809   21.0064  -36.5439 H   0  0  0  0  0  0  0  0  0  0  0  0
   -1.8188   20.6684  -33.0773 H   0  0  0  0  0  0  0  0  0  0  0  0
   -2.0875   21.6159  -34.5795 H   0  0  0  0  0  0  0  0  0  0  0  0
   -2.3496   19.8388  -34.5795 H   0  0  0  0  0  0  0  0  0  0  0  0
   -0.8171   15.9839  -31.8227 H   0  0  0  0  0  0  0  0  0  0  0  0
   -2.2349   17.1385  -31.8095 H   0  0  0  0  0  0  0  0  0  0  0  0
   -2.0352   14.3516  -32.9456 H   0  0  0  0  0  0  0  0  0  0  0  0
   -3.3001   15.1170  -31.8848 H   0  0  0  0  0  0  0  0  0  0  0  0
   -4.4191   17.2697  -35.8382 H   0  0  0  0  0  0  0  0  0  0  0  0
   -5.8378   16.3117  -35.2674 H   0  0  0  0  0  0  0  0  0  0  0  0
   -5.2750   19.2826  -34.9842 H   0  0  0  0  0  0  0  0  0  0  0  0
   -6.7832   18.4282  -35.5056 H   0  0  0  0  0  0  0  0  0  0  0  0
   -4.5626   20.1446  -32.4004 H   0  0  0  0  0  0  0  0  0  0  0  0
  1  2  1  0
  2  3  2  0
  2  4  1  0
  4  5  1  0
  5  6  1  0
  6  7  1  0
  6  8  2  0
  5  9  2  0
  9 10  1  0
 10 11  2  0
 11 12  1  0
 12 13  2  0
 13 14  1  0
 14 15  1  0
 15 16  1  0
 16 17  1  0
 17 18  1  0
 18 19  1  0
 19 20  1  0
 20 21  1  0
 21 22  1  0
 22 23  2  0
 22 24  1  0
 24 25  1  0
 25 26  1  0
 25 27  1  0
 25 28  1  0
 21 29  1  0
 29 30  1  0
 17 31  1  0
 31 32  1  0
 13 33  1  0
 33 34  2  0
 34  4  1  0
 34 10  1  0
 32 14  1  0
 30 18  1  0
  1 35  1  0
  1 36  1  0
  1 37  1  0
  7 38  1  0
  9 39  1  0
 11 40  1  0
 12 41  1  0
 15 42  1  0
 15 43  1  0
 16 44  1  0
 16 45  1  0
 17 46  1  0
 19 47  1  0
 19 48  1  0
 20 49  1  0
 20 50  1  0
 26 51  1  0
 26 52  1  0
 26 53  1  0
 27 54  1  0
 27 55  1  0
 27 56  1  0
 28 57  1  0
 28 58  1  0
 28 59  1  0
 29 60  1  0
 29 61  1  0
 30 62  1  0
 30 63  1  0
 31 64  1  0
 31 65  1  0
 32 66  1  0
 32 67  1  0
 33 68  1  0
M  CHG  1   7  -1
M  END
>  <UniqueID>  (67) 
67

>  <SMILES>  (67) 
CC(=O)n1c(C([NH-])=O)cc2ccc(N3CCC(N4CCN(C(=O)OC(C)(C)C)CC4)CC3)cc21

>  <Energy>  (67) 
120.42849216247778

>  <Genealogy>  (67) 
CC(=O)n1c(C([NH-])=O)cc2ccc(N3CCC(N4CCN(C(=O)OC(C)(C)C)CC4)CC3)cc21 (protonated)
CC(=O)n1c(C([NH-])=O)cc2ccc(N3CCC(N4CCN(C(=O)OC(C)(C)C)CC4)CC3)cc21 (3D coordinates assigned)
CC(=O)n1c(C([NH-])=O)cc2ccc(N3CCC(N4CCN(C(=O)OC(C)(C)C)CC4)CC3)cc21 (nonaromatic ring conformer: 120.42849216247778 kcal/mol)

>  <smiles>  (67) 
CC(=O)n1c(C(N)=O)cc2ccc(N3CCC(N4CCN(C(=O)OC(C)(C)C)CC4)CC3)cc21

>  <score_type>  (67) 
oracle

>  <origin>  (67) 
adg

>  <m_score__min__energy>  (67) 
-11.710000000000001

>  <m_primary>  (67) 
energy

$$$$
68:0
     RDKit          3D

 68 69  0  0  0  0  0  0  0  0999 V2000
   -1.2100   19.1910  -27.6090 C   0  0  0  0  0  0  0  0  0  0  0  0
   -0.1790   19.8430  -28.4200 N   0  0  0  0  0  0  0  0  0  0  0  0
    0.9060   19.0490  -29.0190 C   0  0  0  0  0  0  0  0  0  0  0  0
    1.3630   19.6550  -30.3530 C   0  0  0  0  0  0  0  0  0  0  0  0
    0.3850   19.3870  -31.4180 N   0  0  0  0  0  0  0  0  0  0  0  0
   -0.4440   18.1800  -31.3680 C   0  0  0  0  0  0  0  0  0  0  0  0
    0.1810   20.3490  -32.4700 C   0  0  0  0  0  0  0  0  0  0  0  0
    0.9290   20.3400  -33.4860 O   0  0  0  0  0  0  0  0  0  0  0  0
   -0.8520   21.2880  -32.3700 O   0  0  0  0  0  0  0  0  0  0  0  0
   -2.1910   21.0150  -32.7680 C   0  0  0  0  0  0  0  0  0  0  0  0
   -2.9580   22.2140  -32.7300 O   0  0  0  0  0  0  0  0  0  0  0  0
   -3.5210   22.7100  -31.5500 C   0  0  0  0  0  0  0  0  0  0  0  0
   -2.7780   23.1100  -30.6120 O   0  0  0  0  0  0  0  0  0  0  0  0
   -4.9490   22.7880  -31.4150 N   0  0  0  0  0  0  0  0  0  0  0  0
   -5.6780   23.7630  -30.8000 C   0  0  0  0  0  0  0  0  0  0  0  0
   -5.1430   25.0090  -30.2130 C   0  0  0  0  0  0  0  0  0  0  0  0
   -3.9460   25.5810  -30.7380 N   0  0  0  0  0  0  0  0  0  0  0  0
   -5.7160   25.5610  -29.2370 O   0  0  0  0  0  0  0  0  0  0  0  0
   -7.0350   23.4530  -30.8360 C   0  0  0  0  0  0  0  0  0  0  0  0
   -7.1170   22.2470  -31.4940 C   0  0  0  0  0  0  0  0  0  0  0  0
   -8.2270   21.4620  -31.7930 C   0  0  0  0  0  0  0  0  0  0  0  0
   -8.0120   20.2330  -32.4410 C   0  0  0  0  0  0  0  0  0  0  0  0
   -6.6960   19.8000  -32.7580 C   0  0  0  0  0  0  0  0  0  0  0  0
   -6.4660   18.4840  -33.4620 C   0  0  0  0  0  0  0  0  0  0  0  0
   -6.1640   18.7010  -34.7960 F   0  0  0  0  0  0  0  0  0  0  0  0
   -5.4150   17.7900  -32.8870 F   0  0  0  0  0  0  0  0  0  0  0  0
   -7.6130   17.7150  -33.3780 F   0  0  0  0  0  0  0  0  0  0  0  0
   -5.5980   20.6410  -32.4630 C   0  0  0  0  0  0  0  0  0  0  0  0
   -5.8450   21.8660  -31.8320 C   0  0  0  0  0  0  0  0  0  0  0  0
   -0.2270   21.2690  -28.6120 C   0  0  0  0  0  0  0  0  0  0  0  0
   -0.4800   21.7440  -29.7550 O   0  0  0  0  0  0  0  0  0  0  0  0
    0.0110   22.1290  -27.5310 O   0  0  0  0  0  0  0  0  0  0  0  0
    0.7100   23.3630  -27.6580 C   0  0  0  0  0  0  0  0  0  0  0  0
    0.0550   24.1920  -28.6120 O   0  0  0  0  0  0  0  0  0  0  0  0
   -1.2360   24.6920  -28.4190 C   0  0  0  0  0  0  0  0  0  0  0  0
   -1.6530   25.6750  -29.0900 O   0  0  0  0  0  0  0  0  0  0  0  0
   -2.1360   24.0440  -27.4090 C   0  0  0  0  0  0  0  0  0  0  0  0
   -3.5660   24.2410  -27.7410 N   0  0  0  0  0  0  0  0  0  0  0  0
   -4.2380   22.9560  -28.0100 C   0  0  0  0  0  0  0  0  0  0  0  0
   -4.2450   24.9360  -26.6340 C   0  0  0  0  0  0  0  0  0  0  0  0
   -0.9828   19.3347  -26.5424 H   0  0  0  0  0  0  0  0  0  0  0  0
   -2.1908   19.6334  -27.8378 H   0  0  0  0  0  0  0  0  0  0  0  0
   -1.2307   18.1153  -27.8378 H   0  0  0  0  0  0  0  0  0  0  0  0
    1.7588   19.0246  -28.3246 H   0  0  0  0  0  0  0  0  0  0  0  0
    0.5315   18.0320  -29.2075 H   0  0  0  0  0  0  0  0  0  0  0  0
    1.4756   20.7427  -30.2338 H   0  0  0  0  0  0  0  0  0  0  0  0
    2.3220   19.1961  -30.6353 H   0  0  0  0  0  0  0  0  0  0  0  0
   -0.6314   17.9071  -30.3190 H   0  0  0  0  0  0  0  0  0  0  0  0
   -1.4018   18.3718  -31.8737 H   0  0  0  0  0  0  0  0  0  0  0  0
    0.0789   17.3549  -31.8737 H   0  0  0  0  0  0  0  0  0  0  0  0
   -2.1931   20.6121  -33.7916 H   0  0  0  0  0  0  0  0  0  0  0  0
   -2.6322   20.2789  -32.0798 H   0  0  0  0  0  0  0  0  0  0  0  0
   -3.0110   25.2650  -30.4030 H   0  0  0  0  0  0  0  0  0  0  0  0
   -7.8654   24.0462  -30.4255 H   0  0  0  0  0  0  0  0  0  0  0  0
   -9.2424   21.7935  -31.5300 H   0  0  0  0  0  0  0  0  0  0  0  0
   -8.8716   19.5997  -32.7055 H   0  0  0  0  0  0  0  0  0  0  0  0
   -4.5728   20.3393  -32.7235 H   0  0  0  0  0  0  0  0  0  0  0  0
    0.7303   23.8732  -26.6837 H   0  0  0  0  0  0  0  0  0  0  0  0
    1.7385   23.1650  -27.9941 H   0  0  0  0  0  0  0  0  0  0  0  0
   -1.9221   22.9654  -27.3814 H   0  0  0  0  0  0  0  0  0  0  0  0
   -1.9444   24.5098  -26.4311 H   0  0  0  0  0  0  0  0  0  0  0  0
   -3.6470   24.8470  -28.5930 H   0  0  0  0  0  0  0  0  0  0  0  0
   -4.4927   22.4689  -27.0572 H   0  0  0  0  0  0  0  0  0  0  0  0
   -5.1571   23.1366  -28.5867 H   0  0  0  0  0  0  0  0  0  0  0  0
   -3.5654   22.3041  -28.5867 H   0  0  0  0  0  0  0  0  0  0  0  0
   -3.8693   24.5515  -25.6743 H   0  0  0  0  0  0  0  0  0  0  0  0
   -4.0439   26.0154  -26.7005 H   0  0  0  0  0  0  0  0  0  0  0  0
   -5.3288   24.7601  -26.7005 H   0  0  0  0  0  0  0  0  0  0  0  0
  1  2  1  0
  2  3  1  0
  3  4  1  0
  4  5  1  0
  5  6  1  0
  5  7  1  0
  7  8  2  0
  7  9  1  0
  9 10  1  0
 10 11  1  0
 11 12  1  0
 12 13  2  0
 12 14  1  0
 14 15  1  0
 15 16  1  0
 16 17  1  0
 16 18  2  0
 15 19  2  0
 19 20  1  0
 20 21  2  0
 21 22  1  0
 22 23  2  0
 23 24  1  0
 24 25  1  0
 24 26  1  0
 24 27  1  0
 23 28  1  0
 28 29  2  0
  2 30  1  0
 30 31  2  0
 30 32  1  0
 32 33  1  0
 33 34  1  0
 34 35  1  0
 35 36  2  0
 35 37  1  0
 37 38  1  0
 38 39  1  0
 38 40  1  0
 29 14  1  0
 29 20  1  0
  1 41  1  0
  1 42  1  0
  1 43  1  0
  3 44  1  0
  3 45  1  0
  4 46  1  0
  4 47  1  0
  6 48  1  0
  6 49  1  0
  6 50  1  0
 10 51  1  0
 10 52  1  0
 17 53  1  0
 19 54  1  0
 21 55  1  0
 22 56  1  0
 28 57  1  0
 33 58  1  0
 33 59  1  0
 37 60  1  0
 37 61  1  0
 38 62  1  0
 39 63  1  0
 39 64  1  0
 39 65  1  0
 40 66  1  0
 40 67  1  0
 40 68  1  0
M  CHG  2  17  -1  38   1
M  END
>  <UniqueID>  (68) 
68

>  <SMILES>  (68) 
CN(CCN(C)C(=O)OCOC(=O)n1c(C([NH-])=O)cc2ccc(C(F)(F)F)cc21)C(=O)OCOC(=O)C[NH+](C)C

>  <Energy>  (68) 
89.91688204533642

>  <Genealogy>  (68) 
CN(CCN(C)C(=O)OCOC(=O)n1c(C([NH-])=O)cc2ccc(C(F)(F)F)cc21)C(=O)OCOC(=O)C[NH+](C)C (protonated)
CN(CCN(C)C(=O)OCOC(=O)n1c(C([NH-])=O)cc2ccc(C(F)(F)F)cc21)C(=O)OCOC(=O)C[NH+](C)C (3D coordinates assigned)
CN(CCN(C)C(=O)OCOC(=O)n1c(C([NH-])=O)cc2ccc(C(F)(F)F)cc21)C(=O)OCOC(=O)C[NH+](C)C (optimized conformer: 89.91688204533642 kcal/mol)

>  <smiles>  (68) 
CN(C)CC(=O)OCOC(=O)N(C)CCN(C)C(=O)OCOC(=O)n1c(C(N)=O)cc2ccc(C(F)(F)F)cc21

>  <score_type>  (68) 
oracle

>  <origin>  (68) 
adg

>  <m_score__min__energy>  (68) 
-10.43

>  <m_primary>  (68) 
energy

$$$$
69:0
     RDKit          3D

 33 34  0  0  0  0  0  0  0  0999 V2000
   -6.2610   18.1370  -32.7980 C   0  0  0  0  0  0  0  0  0  0  0  0
   -6.5280   19.5590  -32.4100 C   0  0  0  0  0  0  0  0  0  0  0  0
   -7.8080   20.1270  -32.6280 C   0  0  0  0  0  0  0  0  0  0  0  0
   -8.0630   21.4660  -32.2890 C   0  0  0  0  0  0  0  0  0  0  0  0
   -7.0170   22.2160  -31.7590 C   0  0  0  0  0  0  0  0  0  0  0  0
   -6.9930   23.5230  -31.3250 C   0  0  0  0  0  0  0  0  0  0  0  0
   -5.6900   23.7410  -30.8840 C   0  0  0  0  0  0  0  0  0  0  0  0
   -5.2010   25.0460  -30.3880 C   0  0  0  0  0  0  0  0  0  0  0  0
   -3.9750   25.5790  -30.8850 N   0  0  0  0  0  0  0  0  0  0  0  0
   -5.8410   25.6840  -29.5110 O   0  0  0  0  0  0  0  0  0  0  0  0
   -4.9380   22.6150  -31.0410 N   0  0  0  0  0  0  0  0  0  0  0  0
   -3.5670   22.4120  -30.6640 C   0  0  0  0  0  0  0  0  0  0  0  0
   -2.9450   21.4020  -31.0890 O   0  0  0  0  0  0  0  0  0  0  0  0
   -2.9100   23.3580  -29.8100 N   0  0  0  0  0  0  0  0  0  0  0  0
   -1.4860   23.2750  -29.4900 C   0  0  0  0  0  0  0  0  0  0  0  0
   -1.0220   24.5280  -28.7450 C   0  0  0  0  0  0  0  0  0  0  0  0
   -1.9060   25.5930  -28.9660 O   0  0  0  0  0  0  0  0  0  0  0  0
   -5.7650   21.6910  -31.5740 C   0  0  0  0  0  0  0  0  0  0  0  0
   -5.4870   20.3540  -31.8830 C   0  0  0  0  0  0  0  0  0  0  0  0
   -6.1461   17.5249  -31.8913 H   0  0  0  0  0  0  0  0  0  0  0  0
   -7.1032   17.7552  -33.3938 H   0  0  0  0  0  0  0  0  0  0  0  0
   -5.3377   18.0867  -33.3938 H   0  0  0  0  0  0  0  0  0  0  0  0
   -8.6090   19.5137  -33.0666 H   0  0  0  0  0  0  0  0  0  0  0  0
   -9.0590   21.9085  -32.4378 H   0  0  0  0  0  0  0  0  0  0  0  0
   -7.8257   24.2417  -31.3264 H   0  0  0  0  0  0  0  0  0  0  0  0
   -3.0590   25.2910  -30.4740 H   0  0  0  0  0  0  0  0  0  0  0  0
   -3.4810   24.1040  -29.3530 H   0  0  0  0  0  0  0  0  0  0  0  0
   -1.3096   22.3930  -28.8568 H   0  0  0  0  0  0  0  0  0  0  0  0
   -0.9182   23.1927  -30.4285 H   0  0  0  0  0  0  0  0  0  0  0  0
   -0.9795   24.3120  -27.6672 H   0  0  0  0  0  0  0  0  0  0  0  0
   -0.0267   24.8121  -29.1175 H   0  0  0  0  0  0  0  0  0  0  0  0
   -2.0100   25.6770  -29.9500 H   0  0  0  0  0  0  0  0  0  0  0  0
   -4.4836   19.9339  -31.7194 H   0  0  0  0  0  0  0  0  0  0  0  0
  1  2  1  0
  2  3  2  0
  3  4  1  0
  4  5  2  0
  5  6  1  0
  6  7  2  0
  7  8  1  0
  8  9  1  0
  8 10  2  0
  7 11  1  0
 11 12  1  0
 12 13  2  0
 12 14  1  0
 14 15  1  0
 15 16  1  0
 16 17  1  0
 11 18  1  0
 18 19  2  0
 19  2  1  0
 18  5  1  0
  1 20  1  0
  1 21  1  0
  1 22  1  0
  3 23  1  0
  4 24  1  0
  6 25  1  0
  9 26  1  0
 14 27  1  0
 15 28  1  0
 15 29  1  0
 16 30  1  0
 16 31  1  0
 17 32  1  0
 19 33  1  0
M  CHG  1   9  -1
M  END
>  <UniqueID>  (69) 
69

>  <SMILES>  (69) 
Cc1ccc2cc(C([NH-])=O)n(C(=O)NCCO)c2c1

>  <Energy>  (69) 
66.5386842774847

>  <Genealogy>  (69) 
Cc1ccc2cc(C([NH-])=O)n(C(=O)NCCO)c2c1 (protonated)
Cc1ccc2cc(C([NH-])=O)n(C(=O)NCCO)c2c1 (3D coordinates assigned)
Cc1ccc2cc(C([NH-])=O)n(C(=O)NCCO)c2c1 (optimized conformer: 66.5386842774847 kcal/mol)

>  <smiles>  (69) 
Cc1ccc2cc(C(N)=O)n(C(=O)NCCO)c2c1

>  <score_type>  (69) 
oracle

>  <origin>  (69) 
adg

>  <m_score__min__energy>  (69) 
-9.9499999999999993

>  <m_primary>  (69) 
energy

$$$$
70:0
     RDKit          3D

 30 31  0  0  0  0  0  0  0  0999 V2000
   -4.0180   25.5980  -30.8730 N   0  0  0  0  0  0  0  0  0  0  0  0
   -5.2610   25.1470  -30.3420 C   0  0  0  0  0  0  0  0  0  0  0  0
   -5.7710   25.7580  -29.3650 O   0  0  0  0  0  0  0  0  0  0  0  0
   -5.9250   23.9420  -30.8790 C   0  0  0  0  0  0  0  0  0  0  0  0
   -7.3020   23.7410  -30.8300 C   0  0  0  0  0  0  0  0  0  0  0  0
   -7.5060   22.4810  -31.3440 C   0  0  0  0  0  0  0  0  0  0  0  0
   -8.6890   21.7750  -31.5430 C   0  0  0  0  0  0  0  0  0  0  0  0
   -8.6060   20.5000  -32.1260 C   0  0  0  0  0  0  0  0  0  0  0  0
   -7.3530   19.9630  -32.5040 C   0  0  0  0  0  0  0  0  0  0  0  0
   -7.2830   18.6680  -33.1070 N   0  0  0  0  0  0  0  0  0  0  0  0
   -6.1720   20.7060  -32.2890 C   0  0  0  0  0  0  0  0  0  0  0  0
   -6.2820   21.9670  -31.6890 C   0  0  0  0  0  0  0  0  0  0  0  0
   -5.3000   22.8530  -31.4100 N   0  0  0  0  0  0  0  0  0  0  0  0
   -3.9050   22.7100  -31.7240 C   0  0  0  0  0  0  0  0  0  0  0  0
   -3.5570   22.2080  -32.8280 O   0  0  0  0  0  0  0  0  0  0  0  0
   -2.9430   23.1450  -30.8080 O   0  0  0  0  0  0  0  0  0  0  0  0
   -2.9610   22.7990  -29.4540 C   0  0  0  0  0  0  0  0  0  0  0  0
   -2.1380   23.3780  -28.5750 C   0  0  0  0  0  0  0  0  0  0  0  0
   -1.1520   24.4180  -28.9230 C   0  0  0  0  0  0  0  0  0  0  0  0
    0.0870   24.1920  -28.8810 O   0  0  0  0  0  0  0  0  0  0  0  0
   -1.5980   25.6750  -29.3040 O   0  0  0  0  0  0  0  0  0  0  0  0
   -3.1110   25.2780  -30.4670 H   0  0  0  0  0  0  0  0  0  0  0  0
   -8.0650   24.4411  -30.4590 H   0  0  0  0  0  0  0  0  0  0  0  0
   -9.6598   22.2029  -31.2523 H   0  0  0  0  0  0  0  0  0  0  0  0
   -9.5225   19.9143  -32.2900 H   0  0  0  0  0  0  0  0  0  0  0  0
   -6.5540   17.9800  -32.8130 H   0  0  0  0  0  0  0  0  0  0  0  0
   -7.9590   18.3890  -33.8520 H   0  0  0  0  0  0  0  0  0  0  0  0
   -5.1912   20.3053  -32.5848 H   0  0  0  0  0  0  0  0  0  0  0  0
   -3.6686   22.0329  -29.1042 H   0  0  0  0  0  0  0  0  0  0  0  0
   -2.1999   23.0584  -27.5243 H   0  0  0  0  0  0  0  0  0  0  0  0
  1  2  1  0
  2  3  2  0
  2  4  1  0
  4  5  2  0
  5  6  1  0
  6  7  2  0
  7  8  1  0
  8  9  2  0
  9 10  1  0
  9 11  1  0
 11 12  2  0
 12 13  1  0
 13 14  1  0
 14 15  2  0
 14 16  1  0
 16 17  1  0
 17 18  2  3
 18 19  1  0
 19 20  2  0
 19 21  1  0
 13  4  1  0
 12  6  1  0
  1 22  1  0
  5 23  1  0
  7 24  1  0
  8 25  1  0
 10 26  1  0
 10 27  1  0
 11 28  1  0
 17 29  1  0
 18 30  1  0
M  CHG  2   1  -1  21  -1
M  END
>  <UniqueID>  (70) 
70

>  <SMILES>  (70) 
[NH-]C(=O)c1cc2ccc(N)cc2n1C(=O)OC=CC(=O)[O-]

>  <Energy>  (70) 
67.0947930500091

>  <Genealogy>  (70) 
[NH-]C(=O)c1cc2ccc(N)cc2n1C(=O)OC=CC(=O)[O-] (protonated)
[NH-]C(=O)c1cc2ccc(N)cc2n1C(=O)OC=CC(=O)[O-] (3D coordinates assigned)
[NH-]C(=O)c1cc2ccc(N)cc2n1C(=O)OC=CC(=O)[O-] (optimized conformer: 67.0947930500091 kcal/mol)

>  <smiles>  (70) 
NC(=O)c1cc2ccc(N)cc2n1C(=O)OC=CC(=O)O

>  <score_type>  (70) 
oracle

>  <origin>  (70) 
adg

>  <m_score__min__energy>  (70) 
-11.91

>  <m_primary>  (70) 
energy

$$$$
71:0
     RDKit          3D

 43 44  0  0  0  0  0  0  0  0999 V2000
   -3.4560   24.5080  -27.1690 C   0  0  0  0  0  0  0  0  0  0  0  0
   -2.5050   24.5880  -28.2820 N   0  0  0  0  0  0  0  0  0  0  0  0
   -1.1610   24.1490  -27.8760 C   0  0  0  0  0  0  0  0  0  0  0  0
   -0.4050   23.5150  -29.0500 C   0  0  0  0  0  0  0  0  0  0  0  0
   -1.3360   23.0760  -30.0890 N   0  0  0  0  0  0  0  0  0  0  0  0
   -1.0830   21.9410  -30.9280 C   0  0  0  0  0  0  0  0  0  0  0  0
   -0.0720   21.2130  -30.7290 O   0  0  0  0  0  0  0  0  0  0  0  0
   -2.0350   21.5840  -32.0280 C   0  0  0  0  0  0  0  0  0  0  0  0
   -3.2030   22.3990  -31.9520 O   0  0  0  0  0  0  0  0  0  0  0  0
   -4.0470   22.4300  -30.8350 C   0  0  0  0  0  0  0  0  0  0  0  0
   -3.6240   22.0610  -29.7050 O   0  0  0  0  0  0  0  0  0  0  0  0
   -5.4090   22.8630  -30.9830 N   0  0  0  0  0  0  0  0  0  0  0  0
   -5.8900   24.1370  -30.9070 C   0  0  0  0  0  0  0  0  0  0  0  0
   -5.1250   25.3280  -30.4810 C   0  0  0  0  0  0  0  0  0  0  0  0
   -3.7000   25.2970  -30.4910 N   0  0  0  0  0  0  0  0  0  0  0  0
   -5.7180   26.3870  -30.1460 O   0  0  0  0  0  0  0  0  0  0  0  0
   -7.2490   24.1650  -31.2090 C   0  0  0  0  0  0  0  0  0  0  0  0
   -7.5920   22.8590  -31.4740 C   0  0  0  0  0  0  0  0  0  0  0  0
   -8.8190   22.3110  -31.8380 C   0  0  0  0  0  0  0  0  0  0  0  0
   -8.8780   20.9270  -32.0760 C   0  0  0  0  0  0  0  0  0  0  0  0
   -7.7150   20.1260  -31.9640 C   0  0  0  0  0  0  0  0  0  0  0  0
   -7.7990   18.6460  -32.1940 C   0  0  0  0  0  0  0  0  0  0  0  0
   -6.4900   20.7140  -31.5780 C   0  0  0  0  0  0  0  0  0  0  0  0
   -6.4640   22.0920  -31.3300 C   0  0  0  0  0  0  0  0  0  0  0  0
   -2.9093   24.5540  -26.2156 H   0  0  0  0  0  0  0  0  0  0  0  0
   -4.1614   25.3500  -27.2282 H   0  0  0  0  0  0  0  0  0  0  0  0
   -4.0108   23.5600  -27.2282 H   0  0  0  0  0  0  0  0  0  0  0  0
   -2.8490   23.9350  -29.0260 H   0  0  0  0  0  0  0  0  0  0  0  0
   -0.5943   25.0188  -27.5124 H   0  0  0  0  0  0  0  0  0  0  0  0
   -1.2665   23.3947  -27.0823 H   0  0  0  0  0  0  0  0  0  0  0  0
    0.2876   24.2561  -29.4757 H   0  0  0  0  0  0  0  0  0  0  0  0
    0.1507   22.6403  -28.6812 H   0  0  0  0  0  0  0  0  0  0  0  0
   -2.1980   23.6440  -30.2490 H   0  0  0  0  0  0  0  0  0  0  0  0
   -1.5438   21.7425  -32.9994 H   0  0  0  0  0  0  0  0  0  0  0  0
   -2.3262   20.5285  -31.9224 H   0  0  0  0  0  0  0  0  0  0  0  0
   -3.1810   24.4020  -30.3560 H   0  0  0  0  0  0  0  0  0  0  0  0
   -7.9088   25.0449  -31.2311 H   0  0  0  0  0  0  0  0  0  0  0  0
   -9.7148   22.9418  -31.9363 H   0  0  0  0  0  0  0  0  0  0  0  0
   -9.8358   20.4617  -32.3517 H   0  0  0  0  0  0  0  0  0  0  0  0
   -7.8285   18.1255  -31.2254 H   0  0  0  0  0  0  0  0  0  0  0  0
   -8.7117   18.4145  -32.7626 H   0  0  0  0  0  0  0  0  0  0  0  0
   -6.9183   18.3127  -32.7626 H   0  0  0  0  0  0  0  0  0  0  0  0
   -5.5798   20.1050  -31.4749 H   0  0  0  0  0  0  0  0  0  0  0  0
  1  2  1  0
  2  3  1  0
  3  4  1  0
  4  5  1  0
  5  6  1  0
  6  7  2  0
  6  8  1  0
  8  9  1  0
  9 10  1  0
 10 11  2  0
 10 12  1  0
 12 13  1  0
 13 14  1  0
 14 15  1  0
 14 16  2  0
 13 17  2  0
 17 18  1  0
 18 19  2  0
 19 20  1  0
 20 21  2  0
 21 22  1  0
 21 23  1  0
 23 24  2  0
 24 12  1  0
 24 18  1  0
  1 25  1  0
  1 26  1  0
  1 27  1  0
  2 28  1  0
  3 29  1  0
  3 30  1  0
  4 31  1  0
  4 32  1  0
  5 33  1  0
  8 34  1  0
  8 35  1  0
 15 36  1  0
 17 37  1  0
 19 38  1  0
 20 39  1  0
 22 40  1  0
 22 41  1  0
 22 42  1  0
 23 43  1  0
M  CHG  1  15  -1
M  END
>  <UniqueID>  (71) 
71

>  <SMILES>  (71) 
CNCCNC(=O)COC(=O)n1c(C([NH-])=O)cc2ccc(C)cc21

>  <Energy>  (71) 
73.8159313694552

>  <Genealogy>  (71) 
CNCCNC(=O)COC(=O)n1c(C([NH-])=O)cc2ccc(C)cc21 (protonated)
CNCCNC(=O)COC(=O)n1c(C([NH-])=O)cc2ccc(C)cc21 (3D coordinates assigned)
CNCCNC(=O)COC(=O)n1c(C([NH-])=O)cc2ccc(C)cc21 (optimized conformer: 73.8159313694552 kcal/mol)

>  <smiles>  (71) 
CNCCNC(=O)COC(=O)n1c(C(N)=O)cc2ccc(C)cc21

>  <score_type>  (71) 
oracle

>  <origin>  (71) 
adg

>  <m_score__min__energy>  (71) 
-9.1699999999999999

>  <m_primary>  (71) 
energy

$$$$
72:0
     RDKit          3D

 44 46  0  0  0  0  0  0  0  0999 V2000
   -5.7970   25.0980  -29.0750 N   0  0  0  0  0  0  0  0  0  0  0  0
   -5.6380   24.6480  -30.4210 C   0  0  0  0  0  0  0  0  0  0  0  0
   -4.9190   25.3190  -31.2090 O   0  0  0  0  0  0  0  0  0  0  0  0
   -6.3240   23.4280  -30.9000 C   0  0  0  0  0  0  0  0  0  0  0  0
   -7.6780   23.3660  -31.2310 C   0  0  0  0  0  0  0  0  0  0  0  0
   -7.8870   22.0820  -31.6800 C   0  0  0  0  0  0  0  0  0  0  0  0
   -9.0600   21.4550  -32.0920 C   0  0  0  0  0  0  0  0  0  0  0  0
   -8.9930   20.0950  -32.4380 C   0  0  0  0  0  0  0  0  0  0  0  0
   -7.7630   19.3930  -32.3730 C   0  0  0  0  0  0  0  0  0  0  0  0
   -7.7100   17.9220  -32.6730 C   0  0  0  0  0  0  0  0  0  0  0  0
   -6.5150   17.6190  -33.4550 N   0  0  0  0  0  0  0  0  0  0  0  0
   -5.5500   16.7380  -33.1460 C   0  0  0  0  0  0  0  0  0  0  0  0
   -4.5670   16.8380  -34.1040 C   0  0  0  0  0  0  0  0  0  0  0  0
   -4.9040   17.7860  -35.0040 N   0  0  0  0  0  0  0  0  0  0  0  0
   -6.0970   18.2470  -34.5720 C   0  0  0  0  0  0  0  0  0  0  0  0
   -6.5960   20.0610  -31.9470 C   0  0  0  0  0  0  0  0  0  0  0  0
   -6.6900   21.4180  -31.6190 C   0  0  0  0  0  0  0  0  0  0  0  0
   -5.7220   22.2320  -31.1450 N   0  0  0  0  0  0  0  0  0  0  0  0
   -4.3720   21.8510  -30.8400 C   0  0  0  0  0  0  0  0  0  0  0  0
   -3.7740   21.0160  -31.5730 O   0  0  0  0  0  0  0  0  0  0  0  0
   -3.7440   22.3790  -29.7060 O   0  0  0  0  0  0  0  0  0  0  0  0
   -2.4450   22.9690  -29.7250 C   0  0  0  0  0  0  0  0  0  0  0  0
   -2.3460   24.1340  -28.7260 C   0  0  1  0  0  0  0  0  0  0  0  0
   -2.8550   25.2960  -29.3280 O   0  0  0  0  0  0  0  0  0  0  0  0
   -3.0950   23.8590  -27.4130 C   0  0  0  0  0  0  0  0  0  0  0  0
   -4.2620   24.6320  -27.3460 O   0  0  0  0  0  0  0  0  0  0  0  0
   -6.3330   24.5400  -28.3740 H   0  0  0  0  0  0  0  0  0  0  0  0
   -5.3370   25.9810  -28.7600 H   0  0  0  0  0  0  0  0  0  0  0  0
   -8.4213   24.1728  -31.1502 H   0  0  0  0  0  0  0  0  0  0  0  0
  -10.0098   22.0074  -32.1449 H   0  0  0  0  0  0  0  0  0  0  0  0
   -9.9035   19.5699  -32.7624 H   0  0  0  0  0  0  0  0  0  0  0  0
   -7.6815   17.3577  -31.7292 H   0  0  0  0  0  0  0  0  0  0  0  0
   -8.6027   17.6366  -33.2489 H   0  0  0  0  0  0  0  0  0  0  0  0
   -5.5459   16.0578  -32.2815 H   0  0  0  0  0  0  0  0  0  0  0  0
   -3.6464   16.2367  -34.1321 H   0  0  0  0  0  0  0  0  0  0  0  0
   -6.6637   19.0447  -35.0746 H   0  0  0  0  0  0  0  0  0  0  0  0
   -5.6362   19.5286  -31.8745 H   0  0  0  0  0  0  0  0  0  0  0  0
   -1.7002   22.2045  -29.4589 H   0  0  0  0  0  0  0  0  0  0  0  0
   -2.2563   23.3609  -30.7353 H   0  0  0  0  0  0  0  0  0  0  0  0
   -1.2846   24.2605  -28.4663 H   0  0  0  0  0  0  0  0  0  0  0  0
   -3.8450   25.2230  -29.3060 H   0  0  0  0  0  0  0  0  0  0  0  0
   -3.3628   22.7932  -27.3647 H   0  0  0  0  0  0  0  0  0  0  0  0
   -2.4426   24.1231  -26.5676 H   0  0  0  0  0  0  0  0  0  0  0  0
   -3.9800   25.5690  -27.5080 H   0  0  0  0  0  0  0  0  0  0  0  0
  1  2  1  0
  2  3  2  0
  2  4  1  0
  4  5  2  0
  5  6  1  0
  6  7  2  0
  7  8  1  0
  8  9  2  0
  9 10  1  0
 10 11  1  0
 11 12  1  0
 12 13  2  0
 13 14  1  0
 14 15  2  0
  9 16  1  0
 16 17  2  0
 17 18  1  0
 18 19  1  0
 19 20  2  0
 19 21  1  0
 21 22  1  0
 22 23  1  0
 23 24  1  0
 23 25  1  0
 25 26  1  0
 18  4  1  0
 17  6  1  0
 15 11  1  0
  1 27  1  0
  1 28  1  0
  5 29  1  0
  7 30  1  0
  8 31  1  0
 10 32  1  0
 10 33  1  0
 12 34  1  0
 13 35  1  0
 15 36  1  0
 16 37  1  0
 22 38  1  0
 22 39  1  0
 23 40  1  1
 24 41  1  0
 25 42  1  0
 25 43  1  0
 26 44  1  0
M  END
>  <UniqueID>  (72) 
72

>  <SMILES>  (72) 
NC(=O)c1cc2ccc(Cn3ccnc3)cc2n1C(=O)OC[C@@H](O)CO

>  <Energy>  (72) 
107.39805793940099

>  <Genealogy>  (72) 
NC(=O)c1cc2ccc(Cn3ccnc3)cc2n1C(=O)OC[C@@H](O)CO (chirality)
NC(=O)c1cc2ccc(Cn3ccnc3)cc2n1C(=O)OC[C@@H](O)CO (3D coordinates assigned)
NC(=O)c1cc2ccc(Cn3ccnc3)cc2n1C(=O)OC[C@@H](O)CO (optimized conformer: 107.39805793940099 kcal/mol)

>  <smiles>  (72) 
NC(=O)c1cc2ccc(Cn3ccnc3)cc2n1C(=O)OCC(O)CO

>  <score_type>  (72) 
oracle

>  <origin>  (72) 
adg

>  <m_score__min__energy>  (72) 
-9.0700000000000003

>  <m_primary>  (72) 
energy

$$$$
73:0
     RDKit          3D

 51 52  0  0  0  0  0  0  0  0999 V2000
    0.2550   20.9890  -28.3690 C   0  0  0  0  0  0  0  0  0  0  0  0
   -1.0720   21.4000  -27.9020 N   0  0  0  0  0  0  0  0  0  0  0  0
   -2.1450   21.6280  -28.8770 C   0  0  0  0  0  0  0  0  0  0  0  0
   -2.2720   20.4580  -29.8620 C   0  0  0  0  0  0  0  0  0  0  0  0
   -2.9950   20.8370  -31.0850 N   0  0  0  0  0  0  0  0  0  0  0  0
   -3.0010   19.9210  -32.2310 C   0  0  0  0  0  0  0  0  0  0  0  0
   -3.5380   22.1600  -31.2570 C   0  0  0  0  0  0  0  0  0  0  0  0
   -2.7980   23.0930  -31.6530 O   0  0  0  0  0  0  0  0  0  0  0  0
   -4.9300   22.4230  -31.0450 N   0  0  0  0  0  0  0  0  0  0  0  0
   -5.4690   23.4710  -30.3620 C   0  0  0  0  0  0  0  0  0  0  0  0
   -4.7130   24.5870  -29.7530 C   0  0  0  0  0  0  0  0  0  0  0  0
   -3.7260   25.3020  -30.4940 N   0  0  0  0  0  0  0  0  0  0  0  0
   -4.9520   24.9270  -28.5610 O   0  0  0  0  0  0  0  0  0  0  0  0
   -6.8510   23.3220  -30.2470 C   0  0  0  0  0  0  0  0  0  0  0  0
   -7.1350   22.1180  -30.8610 C   0  0  0  0  0  0  0  0  0  0  0  0
   -8.3440   21.4460  -30.9930 C   0  0  0  0  0  0  0  0  0  0  0  0
   -8.3340   20.1930  -31.6350 C   0  0  0  0  0  0  0  0  0  0  0  0
   -7.1250   19.6350  -32.1260 C   0  0  0  0  0  0  0  0  0  0  0  0
   -7.1260   18.2730  -32.7740 C   0  0  0  0  0  0  0  0  0  0  0  0
   -6.1880   17.4510  -32.1750 F   0  0  0  0  0  0  0  0  0  0  0  0
   -6.8180   18.4040  -34.1160 F   0  0  0  0  0  0  0  0  0  0  0  0
   -8.3660   17.6770  -32.6550 F   0  0  0  0  0  0  0  0  0  0  0  0
   -5.9100   20.3330  -31.9320 C   0  0  0  0  0  0  0  0  0  0  0  0
   -5.9560   21.5900  -31.3200 C   0  0  0  0  0  0  0  0  0  0  0  0
   -1.3390   21.4370  -26.4890 C   0  0  0  0  0  0  0  0  0  0  0  0
   -1.9860   20.4980  -25.9490 O   0  0  0  0  0  0  0  0  0  0  0  0
   -0.8940   22.5170  -25.7150 O   0  0  0  0  0  0  0  0  0  0  0  0
   -0.8870   23.8600  -26.1900 C   0  0  0  0  0  0  0  0  0  0  0  0
   -1.7570   23.9750  -27.2930 O   0  0  0  0  0  0  0  0  0  0  0  0
   -0.9120   24.7110  -28.5820 P   0  0  2  0  0  0  0  0  0  0  0  0
    0.5400   24.9130  -28.2080 O   0  0  0  0  0  0  0  0  0  0  0  0
   -1.6080   26.2220  -28.8870 O   0  0  0  0  0  0  0  0  0  0  0  0
   -1.0200   23.7680  -29.9850 O   0  0  0  0  0  0  0  0  0  0  0  0
    0.9027   20.7884  -27.5028 H   0  0  0  0  0  0  0  0  0  0  0  0
    0.1634   20.0771  -28.9774 H   0  0  0  0  0  0  0  0  0  0  0  0
    0.6949   21.7930  -28.9774 H   0  0  0  0  0  0  0  0  0  0  0  0
   -3.0970   21.7464  -28.3388 H   0  0  0  0  0  0  0  0  0  0  0  0
   -1.9019   22.5350  -29.4500 H   0  0  0  0  0  0  0  0  0  0  0  0
   -1.2635   20.1165  -30.1382 H   0  0  0  0  0  0  0  0  0  0  0  0
   -2.8434   19.6596  -29.3659 H   0  0  0  0  0  0  0  0  0  0  0  0
   -3.0078   18.8820  -31.8699 H   0  0  0  0  0  0  0  0  0  0  0  0
   -3.8980   20.1030  -32.8412 H   0  0  0  0  0  0  0  0  0  0  0  0
   -2.1017   20.0912  -32.8412 H   0  0  0  0  0  0  0  0  0  0  0  0
   -2.7130   25.0810  -30.3980 H   0  0  0  0  0  0  0  0  0  0  0  0
   -7.5611   24.0138  -29.7704 H   0  0  0  0  0  0  0  0  0  0  0  0
   -9.2791   21.8791  -30.6082 H   0  0  0  0  0  0  0  0  0  0  0  0
   -9.2763   19.6389  -31.7577 H   0  0  0  0  0  0  0  0  0  0  0  0
   -4.9525   19.8980  -32.2545 H   0  0  0  0  0  0  0  0  0  0  0  0
   -1.2217   24.5340  -25.3877 H   0  0  0  0  0  0  0  0  0  0  0  0
    0.1328   24.1335  -26.4985 H   0  0  0  0  0  0  0  0  0  0  0  0
   -1.8560   24.0640  -30.4290 H   0  0  0  0  0  0  0  0  0  0  0  0
  1  2  1  0
  2  3  1  0
  3  4  1  0
  4  5  1  0
  5  6  1  0
  5  7  1  0
  7  8  2  0
  7  9  1  0
  9 10  1  0
 10 11  1  0
 11 12  1  0
 11 13  2  0
 10 14  2  0
 14 15  1  0
 15 16  2  0
 16 17  1  0
 17 18  2  0
 18 19  1  0
 19 20  1  0
 19 21  1  0
 19 22  1  0
 18 23  1  0
 23 24  2  0
  2 25  1  0
 25 26  2  0
 25 27  1  0
 27 28  1  0
 28 29  1  0
 29 30  1  0
 30 31  2  0
 30 32  1  6
 30 33  1  0
 24  9  1  0
 24 15  1  0
  1 34  1  0
  1 35  1  0
  1 36  1  0
  3 37  1  0
  3 38  1  0
  4 39  1  0
  4 40  1  0
  6 41  1  0
  6 42  1  0
  6 43  1  0
 12 44  1  0
 14 45  1  0
 16 46  1  0
 17 47  1  0
 23 48  1  0
 28 49  1  0
 28 50  1  0
 33 51  1  0
M  CHG  2  12  -1  32  -1
M  END
>  <UniqueID>  (73) 
73

>  <SMILES>  (73) 
CN(CCN(C)C(=O)n1c(C([NH-])=O)cc2ccc(C(F)(F)F)cc21)C(=O)OCO[P@](=O)([O-])O

>  <Energy>  (73) 
81.93921756522602

>  <Genealogy>  (73) 
CN(CCN(C)C(=O)n1c(C([NH-])=O)cc2ccc(C(F)(F)F)cc21)C(=O)OCOP(=O)([O-])O (protonated)
CN(CCN(C)C(=O)n1c(C([NH-])=O)cc2ccc(C(F)(F)F)cc21)C(=O)OCO[P@](=O)([O-])O (chirality)
CN(CCN(C)C(=O)n1c(C([NH-])=O)cc2ccc(C(F)(F)F)cc21)C(=O)OCO[P@](=O)([O-])O (3D coordinates assigned)
CN(CCN(C)C(=O)n1c(C([NH-])=O)cc2ccc(C(F)(F)F)cc21)C(=O)OCO[P@](=O)([O-])O (optimized conformer: 81.93921756522602 kcal/mol)

>  <smiles>  (73) 
CN(CCN(C)C(=O)n1c(C(N)=O)cc2ccc(C(F)(F)F)cc21)C(=O)OCOP(=O)(O)O

>  <score_type>  (73) 
oracle

>  <origin>  (73) 
adg

>  <m_score__min__energy>  (73) 
-11.859999999999999

>  <m_primary>  (73) 
energy

$$$$
74:0
     RDKit          3D

 48 49  0  0  0  0  0  0  0  0999 V2000
   -2.7140   19.8320  -26.7170 C   0  0  0  0  0  0  0  0  0  0  0  0
   -2.4990   20.3350  -28.1510 C   0  0  2  0  0  0  0  0  0  0  0  0
   -1.2270   19.7340  -28.7710 C   0  0  0  0  0  0  0  0  0  0  0  0
    0.0070   20.4410  -28.3020 C   0  0  0  0  0  0  0  0  0  0  0  0
    0.9010   19.8010  -27.6840 O   0  0  0  0  0  0  0  0  0  0  0  0
    0.1650   21.8020  -28.5780 O   0  0  0  0  0  0  0  0  0  0  0  0
    0.5980   22.7390  -27.5980 C   0  0  0  0  0  0  0  0  0  0  0  0
    0.2810   24.1580  -28.0600 C   0  0  0  0  0  0  0  0  0  0  0  0
   -0.5680   24.1330  -29.1750 O   0  0  0  0  0  0  0  0  0  0  0  0
   -2.3730   21.7570  -28.1490 O   0  0  0  0  0  0  0  0  0  0  0  0
   -3.4140   22.6280  -28.4860 C   0  0  0  0  0  0  0  0  0  0  0  0
   -4.5110   22.5850  -27.8640 O   0  0  0  0  0  0  0  0  0  0  0  0
   -3.2130   23.5400  -29.5300 O   0  0  0  0  0  0  0  0  0  0  0  0
   -3.9850   23.6130  -30.6980 C   0  0  0  0  0  0  0  0  0  0  0  0
   -4.5290   24.6970  -31.0450 O   0  0  0  0  0  0  0  0  0  0  0  0
   -4.1570   22.4390  -31.5090 N   0  0  0  0  0  0  0  0  0  0  0  0
   -3.1820   21.6260  -32.0070 C   0  0  0  0  0  0  0  0  0  0  0  0
   -1.7290   21.8810  -31.9500 C   0  0  0  0  0  0  0  0  0  0  0  0
   -1.0770   22.1740  -30.7140 N   0  0  0  0  0  0  0  0  0  0  0  0
   -1.0610   21.8920  -33.0180 O   0  0  0  0  0  0  0  0  0  0  0  0
   -3.7410   20.5200  -32.6410 C   0  0  0  0  0  0  0  0  0  0  0  0
   -5.1020   20.6860  -32.5270 C   0  0  0  0  0  0  0  0  0  0  0  0
   -6.1400   19.8790  -32.9790 C   0  0  0  0  0  0  0  0  0  0  0  0
   -7.4570   20.2770  -32.6950 C   0  0  0  0  0  0  0  0  0  0  0  0
   -7.7120   21.4530  -31.9430 C   0  0  0  0  0  0  0  0  0  0  0  0
   -9.1300   21.8890  -31.6730 C   0  0  0  0  0  0  0  0  0  0  0  0
   -9.3540   21.8920  -30.3100 F   0  0  0  0  0  0  0  0  0  0  0  0
  -10.0300   21.0270  -32.2760 F   0  0  0  0  0  0  0  0  0  0  0  0
   -9.3540   23.1620  -32.1700 F   0  0  0  0  0  0  0  0  0  0  0  0
   -6.6290   22.2590  -31.5210 C   0  0  0  0  0  0  0  0  0  0  0  0
   -5.3280   21.8490  -31.8380 C   0  0  0  0  0  0  0  0  0  0  0  0
   -2.3845   20.6028  -26.0048 H   0  0  0  0  0  0  0  0  0  0  0  0
   -3.7817   19.6193  -26.5592 H   0  0  0  0  0  0  0  0  0  0  0  0
   -2.1299   18.9133  -26.5592 H   0  0  0  0  0  0  0  0  0  0  0  0
   -3.3688   20.0238  -28.7482 H   0  0  0  0  0  0  0  0  0  0  0  0
   -1.1594   18.6734  -28.4873 H   0  0  0  0  0  0  0  0  0  0  0  0
   -1.2922   19.8474  -29.8632 H   0  0  0  0  0  0  0  0  0  0  0  0
    0.0790   22.5400  -26.6488 H   0  0  0  0  0  0  0  0  0  0  0  0
    1.6842   22.6386  -27.4562 H   0  0  0  0  0  0  0  0  0  0  0  0
   -0.2120   24.7035  -27.2418 H   0  0  0  0  0  0  0  0  0  0  0  0
    1.2196   24.6595  -28.3386 H   0  0  0  0  0  0  0  0  0  0  0  0
   -1.2190   23.3980  -29.0230 H   0  0  0  0  0  0  0  0  0  0  0  0
   -1.6250   22.3420  -29.8410 H   0  0  0  0  0  0  0  0  0  0  0  0
   -0.0420   22.3100  -30.6870 H   0  0  0  0  0  0  0  0  0  0  0  0
   -3.2083   19.6904  -33.1289 H   0  0  0  0  0  0  0  0  0  0  0  0
   -5.9361   18.9564  -33.5422 H   0  0  0  0  0  0  0  0  0  0  0  0
   -8.2994   19.6707  -33.0594 H   0  0  0  0  0  0  0  0  0  0  0  0
   -6.8047   23.1867  -30.9567 H   0  0  0  0  0  0  0  0  0  0  0  0
  1  2  1  0
  2  3  1  0
  3  4  1  0
  4  5  2  0
  4  6  1  0
  6  7  1  0
  7  8  1  0
  8  9  1  0
  2 10  1  0
 10 11  1  0
 11 12  2  0
 11 13  1  0
 13 14  1  0
 14 15  2  0
 14 16  1  0
 16 17  1  0
 17 18  1  0
 18 19  1  0
 18 20  2  0
 17 21  2  0
 21 22  1  0
 22 23  2  0
 23 24  1  0
 24 25  2  0
 25 26  1  0
 26 27  1  0
 26 28  1  0
 26 29  1  0
 25 30  1  0
 30 31  2  0
 31 16  1  0
 31 22  1  0
  1 32  1  0
  1 33  1  0
  1 34  1  0
  2 35  1  6
  3 36  1  0
  3 37  1  0
  7 38  1  0
  7 39  1  0
  8 40  1  0
  8 41  1  0
  9 42  1  0
 19 43  1  0
 19 44  1  0
 21 45  1  0
 23 46  1  0
 24 47  1  0
 30 48  1  0
M  END
>  <UniqueID>  (74) 
74

>  <SMILES>  (74) 
C[C@H](CC(=O)OCCO)OC(=O)OC(=O)n1c(C(N)=O)cc2ccc(C(F)(F)F)cc21

>  <Energy>  (74) 
78.78056975116193

>  <Genealogy>  (74) 
C[C@H](CC(=O)OCCO)OC(=O)OC(=O)n1c(C(N)=O)cc2ccc(C(F)(F)F)cc21 (chirality)
C[C@H](CC(=O)OCCO)OC(=O)OC(=O)n1c(C(N)=O)cc2ccc(C(F)(F)F)cc21 (3D coordinates assigned)
C[C@H](CC(=O)OCCO)OC(=O)OC(=O)n1c(C(N)=O)cc2ccc(C(F)(F)F)cc21 (optimized conformer: 78.78056975116193 kcal/mol)

>  <smiles>  (74) 
CC(CC(=O)OCCO)OC(=O)OC(=O)n1c(C(N)=O)cc2ccc(C(F)(F)F)cc21

>  <score_type>  (74) 
oracle

>  <origin>  (74) 
adg

>  <m_score__min__energy>  (74) 
-7.9299999999999997

>  <m_primary>  (74) 
energy

$$$$
75:0
     RDKit          3D

 35 36  0  0  0  0  0  0  0  0999 V2000
   -5.7250   17.8980  -32.0480 C   0  0  0  0  0  0  0  0  0  0  0  0
   -6.0320   19.3650  -31.9980 C   0  0  0  0  0  0  0  0  0  0  0  0
   -7.1280   19.8890  -32.7250 C   0  0  0  0  0  0  0  0  0  0  0  0
   -7.4100   21.2650  -32.6980 C   0  0  0  0  0  0  0  0  0  0  0  0
   -6.5670   22.0900  -31.9610 C   0  0  0  0  0  0  0  0  0  0  0  0
   -6.6210   23.4480  -31.7520 C   0  0  0  0  0  0  0  0  0  0  0  0
   -5.5340   23.7390  -30.9290 C   0  0  0  0  0  0  0  0  0  0  0  0
   -5.1900   25.1060  -30.4870 C   0  0  0  0  0  0  0  0  0  0  0  0
   -3.9250   25.6650  -30.8320 N   0  0  0  0  0  0  0  0  0  0  0  0
   -5.9890   25.7790  -29.7870 O   0  0  0  0  0  0  0  0  0  0  0  0
   -4.8320   22.6050  -30.6440 N   0  0  0  0  0  0  0  0  0  0  0  0
   -3.6840   22.4780  -29.7870 C   0  0  0  0  0  0  0  0  0  0  0  0
   -3.8130   21.9160  -28.6640 O   0  0  0  0  0  0  0  0  0  0  0  0
   -2.4100   23.0460  -30.1800 N   0  0  2  0  0  0  0  0  0  0  0  0
   -1.8060   22.2970  -31.2990 C   0  0  0  0  0  0  0  0  0  0  0  0
   -1.4980   23.1820  -29.0200 C   0  0  0  0  0  0  0  0  0  0  0  0
   -0.8990   24.5570  -28.8750 C   0  0  0  0  0  0  0  0  0  0  0  0
    0.2380   24.7080  -28.3560 O   0  0  0  0  0  0  0  0  0  0  0  0
   -1.5970   25.6680  -29.3290 O   0  0  0  0  0  0  0  0  0  0  0  0
   -5.4800   21.6030  -31.2810 C   0  0  0  0  0  0  0  0  0  0  0  0
   -5.1900   20.2350  -31.2690 C   0  0  0  0  0  0  0  0  0  0  0  0
   -5.6429   17.5055  -31.0237 H   0  0  0  0  0  0  0  0  0  0  0  0
   -6.5326   17.3723  -32.5785 H   0  0  0  0  0  0  0  0  0  0  0  0
   -4.7744   17.7402  -32.5785 H   0  0  0  0  0  0  0  0  0  0  0  0
   -7.7639   19.2133  -33.3158 H   0  0  0  0  0  0  0  0  0  0  0  0
   -8.2716   21.6775  -33.2434 H   0  0  0  0  0  0  0  0  0  0  0  0
   -7.3642   24.1548  -32.1498 H   0  0  0  0  0  0  0  0  0  0  0  0
   -3.0410   25.2930  -30.4200 H   0  0  0  0  0  0  0  0  0  0  0  0
   -2.5860   24.0170  -30.5290 H   0  0  0  0  0  0  0  0  0  0  0  0
   -1.1623   21.4988  -30.9009 H   0  0  0  0  0  0  0  0  0  0  0  0
   -2.6019   21.8532  -31.9151 H   0  0  0  0  0  0  0  0  0  0  0  0
   -1.2036   22.9808  -31.9151 H   0  0  0  0  0  0  0  0  0  0  0  0
   -2.0639   22.9520  -28.1052 H   0  0  0  0  0  0  0  0  0  0  0  0
   -0.6633   22.4849  -29.1853 H   0  0  0  0  0  0  0  0  0  0  0  0
   -4.3285   19.8460  -30.7065 H   0  0  0  0  0  0  0  0  0  0  0  0
  1  2  1  0
  2  3  2  0
  3  4  1  0
  4  5  2  0
  5  6  1  0
  6  7  2  0
  7  8  1  0
  8  9  1  0
  8 10  2  0
  7 11  1  0
 11 12  1  0
 12 13  2  0
 12 14  1  0
 14 15  1  0
 14 16  1  0
 16 17  1  0
 17 18  2  0
 17 19  1  0
 11 20  1  0
 20 21  2  0
 21  2  1  0
 20  5  1  0
  1 22  1  0
  1 23  1  0
  1 24  1  0
  3 25  1  0
  4 26  1  0
  6 27  1  0
  9 28  1  0
 14 29  1  6
 15 30  1  0
 15 31  1  0
 15 32  1  0
 16 33  1  0
 16 34  1  0
 21 35  1  0
M  CHG  3   9  -1  14   1  19  -1
M  END
>  <UniqueID>  (75) 
75

>  <SMILES>  (75) 
Cc1ccc2cc(C([NH-])=O)n(C(=O)[N@H+](C)CC(=O)[O-])c2c1

>  <Energy>  (75) 
77.887555230236

>  <Genealogy>  (75) 
Cc1ccc2cc(C([NH-])=O)n(C(=O)[NH+](C)CC(=O)[O-])c2c1 (protonated)
Cc1ccc2cc(C([NH-])=O)n(C(=O)[N@H+](C)CC(=O)[O-])c2c1 (chirality)
Cc1ccc2cc(C([NH-])=O)n(C(=O)[N@H+](C)CC(=O)[O-])c2c1 (3D coordinates assigned)
Cc1ccc2cc(C([NH-])=O)n(C(=O)[N@H+](C)CC(=O)[O-])c2c1 (optimized conformer: 77.887555230236 kcal/mol)

>  <smiles>  (75) 
Cc1ccc2cc(C(N)=O)n(C(=O)N(C)CC(=O)O)c2c1

>  <score_type>  (75) 
oracle

>  <origin>  (75) 
adg

>  <m_score__min__energy>  (75) 
-10.15

>  <m_primary>  (75) 
energy

$$$$
76:0
     RDKit          3D

 40 41  0  0  0  0  0  0  0  0999 V2000
   -3.9510   22.6280  -28.7570 C   0  0  0  0  0  0  0  0  0  0  0  0
   -3.1240   22.7480  -29.9610 N   0  0  0  0  0  0  0  0  0  0  0  0
   -1.6660   22.8770  -29.8500 C   0  0  0  0  0  0  0  0  0  0  0  0
   -1.3130   24.2300  -29.3210 C   0  0  0  0  0  0  0  0  0  0  0  0
   -0.1830   24.4310  -28.8040 O   0  0  0  0  0  0  0  0  0  0  0  0
   -2.2480   25.2570  -29.3490 O   0  0  0  0  0  0  0  0  0  0  0  0
   -3.7470   22.6880  -31.2600 C   0  0  0  0  0  0  0  0  0  0  0  0
   -3.0390   22.5760  -32.2970 O   0  0  0  0  0  0  0  0  0  0  0  0
   -5.1740   22.7610  -31.3920 N   0  0  0  0  0  0  0  0  0  0  0  0
   -5.9920   23.7820  -31.0180 C   0  0  0  0  0  0  0  0  0  0  0  0
   -5.5340   25.0900  -30.4920 C   0  0  0  0  0  0  0  0  0  0  0  0
   -4.1810   25.5180  -30.6550 N   0  0  0  0  0  0  0  0  0  0  0  0
   -6.3410   25.8410  -29.8810 O   0  0  0  0  0  0  0  0  0  0  0  0
   -7.3260   23.4400  -31.2500 C   0  0  0  0  0  0  0  0  0  0  0  0
   -7.2910   22.1640  -31.7670 C   0  0  0  0  0  0  0  0  0  0  0  0
   -8.3250   21.3260  -32.1630 C   0  0  0  0  0  0  0  0  0  0  0  0
   -7.9950   20.0460  -32.6380 C   0  0  0  0  0  0  0  0  0  0  0  0
   -6.6390   19.6120  -32.7070 C   0  0  0  0  0  0  0  0  0  0  0  0
   -6.3060   18.2860  -33.1960 N   0  0  0  0  0  0  0  0  0  0  0  0
   -6.5670   17.0990  -32.3740 C   0  0  0  0  0  0  0  0  0  0  0  0
   -5.6990   18.1110  -34.5220 C   0  0  0  0  0  0  0  0  0  0  0  0
   -5.6190   20.5050  -32.2860 C   0  0  0  0  0  0  0  0  0  0  0  0
   -5.9820   21.7770  -31.8370 C   0  0  0  0  0  0  0  0  0  0  0  0
   -3.3147   22.7203  -27.8644 H   0  0  0  0  0  0  0  0  0  0  0  0
   -4.7085   23.4256  -28.7514 H   0  0  0  0  0  0  0  0  0  0  0  0
   -4.4505   21.6480  -28.7514 H   0  0  0  0  0  0  0  0  0  0  0  0
   -1.2829   22.1063  -29.1650 H   0  0  0  0  0  0  0  0  0  0  0  0
   -1.2146   22.7484  -30.8448 H   0  0  0  0  0  0  0  0  0  0  0  0
   -3.4930   24.9630  -31.2080 H   0  0  0  0  0  0  0  0  0  0  0  0
   -3.8690   26.4280  -30.2490 H   0  0  0  0  0  0  0  0  0  0  0  0
   -8.2157   24.0584  -31.0601 H   0  0  0  0  0  0  0  0  0  0  0  0
   -9.3730   21.6553  -32.1063 H   0  0  0  0  0  0  0  0  0  0  0  0
   -8.7970   19.3666  -32.9624 H   0  0  0  0  0  0  0  0  0  0  0  0
   -6.5074   17.3698  -31.3095 H   0  0  0  0  0  0  0  0  0  0  0  0
   -7.5718   16.7115  -32.5981 H   0  0  0  0  0  0  0  0  0  0  0  0
   -5.8174   16.3258  -32.5981 H   0  0  0  0  0  0  0  0  0  0  0  0
   -4.6478   17.8080  -34.4070 H   0  0  0  0  0  0  0  0  0  0  0  0
   -6.2461   17.3340  -35.0760 H   0  0  0  0  0  0  0  0  0  0  0  0
   -5.7485   19.0600  -35.0760 H   0  0  0  0  0  0  0  0  0  0  0  0
   -4.5622   20.2009  -32.3128 H   0  0  0  0  0  0  0  0  0  0  0  0
  1  2  1  0
  2  3  1  0
  3  4  1  0
  4  5  2  0
  4  6  1  0
  2  7  1  0
  7  8  2  0
  7  9  1  0
  9 10  1  0
 10 11  1  0
 11 12  1  0
 11 13  2  0
 10 14  2  0
 14 15  1  0
 15 16  2  0
 16 17  1  0
 17 18  2  0
 18 19  1  0
 19 20  1  0
 19 21  1  0
 18 22  1  0
 22 23  2  0
 23  9  1  0
 23 15  1  0
  1 24  1  0
  1 25  1  0
  1 26  1  0
  3 27  1  0
  3 28  1  0
 12 29  1  0
 12 30  1  0
 14 31  1  0
 16 32  1  0
 17 33  1  0
 20 34  1  0
 20 35  1  0
 20 36  1  0
 21 37  1  0
 21 38  1  0
 21 39  1  0
 22 40  1  0
M  CHG  1   6  -1
M  END
>  <UniqueID>  (76) 
76

>  <SMILES>  (76) 
CN(CC(=O)[O-])C(=O)n1c(C(N)=O)cc2ccc(N(C)C)cc21

>  <Energy>  (76) 
76.96338305572866

>  <Genealogy>  (76) 
CN(CC(=O)[O-])C(=O)n1c(C(N)=O)cc2ccc(N(C)C)cc21 (protonated)
CN(CC(=O)[O-])C(=O)n1c(C(N)=O)cc2ccc(N(C)C)cc21 (3D coordinates assigned)
CN(CC(=O)[O-])C(=O)n1c(C(N)=O)cc2ccc(N(C)C)cc21 (optimized conformer: 76.96338305572866 kcal/mol)

>  <smiles>  (76) 
CN(CC(=O)O)C(=O)n1c(C(N)=O)cc2ccc(N(C)C)cc21

>  <score_type>  (76) 
oracle

>  <origin>  (76) 
adg

>  <m_score__min__energy>  (76) 
-10.789999999999999

>  <m_primary>  (76) 
energy

$$$$
77:0
     RDKit          3D

 44 45  0  0  0  0  0  0  0  0999 V2000
   -8.5580   22.6590  -31.8100 C   0  0  0  0  0  0  0  0  0  0  0  0
   -8.1800   21.2370  -32.1020 C   0  0  0  0  0  0  0  0  0  0  0  0
   -9.1580   20.2160  -32.0310 C   0  0  0  0  0  0  0  0  0  0  0  0
   -8.8220   18.8840  -32.3240 C   0  0  0  0  0  0  0  0  0  0  0  0
   -7.5120   18.6100  -32.7070 C   0  0  0  0  0  0  0  0  0  0  0  0
   -6.9180   17.4100  -33.0170 C   0  0  0  0  0  0  0  0  0  0  0  0
   -5.5970   17.7220  -33.3200 C   0  0  0  0  0  0  0  0  0  0  0  0
   -4.6110   16.7180  -33.7680 C   0  0  0  0  0  0  0  0  0  0  0  0
   -3.2200   16.8640  -33.4770 N   0  0  0  0  0  0  0  0  0  0  0  0
   -4.9960   15.7460  -34.4720 O   0  0  0  0  0  0  0  0  0  0  0  0
   -5.3720   19.0610  -33.1900 N   0  0  0  0  0  0  0  0  0  0  0  0
   -4.1090   19.7440  -33.2890 C   0  0  0  0  0  0  0  0  0  0  0  0
   -3.3150   19.4790  -34.2320 O   0  0  0  0  0  0  0  0  0  0  0  0
   -3.7670   20.7020  -32.3320 O   0  0  0  0  0  0  0  0  0  0  0  0
   -3.1080   21.9230  -32.6550 C   0  0  0  0  0  0  0  0  0  0  0  0
   -1.7090   21.7790  -32.4340 O   0  0  0  0  0  0  0  0  0  0  0  0
   -0.8600   21.1480  -33.3470 C   0  0  0  0  0  0  0  0  0  0  0  0
   -1.1850   21.0510  -34.5620 O   0  0  0  0  0  0  0  0  0  0  0  0
    0.3880   20.6240  -32.8870 N   0  0  0  0  0  0  0  0  0  0  0  0
    0.5320   19.7810  -31.7030 C   0  0  0  0  0  0  0  0  0  0  0  0
   -0.4530   18.5970  -31.7370 C   0  0  1  0  0  0  0  0  0  0  0  0
   -1.7760   19.0740  -31.7380 O   0  0  0  0  0  0  0  0  0  0  0  0
   -0.2200   17.6670  -32.9390 C   0  0  0  0  0  0  0  0  0  0  0  0
   -1.0460   18.0540  -34.0030 O   0  0  0  0  0  0  0  0  0  0  0  0
   -6.5600   19.5930  -32.8150 C   0  0  0  0  0  0  0  0  0  0  0  0
   -6.8640   20.9250  -32.5060 C   0  0  0  0  0  0  0  0  0  0  0  0
   -8.5985   22.8115  -30.7214 H   0  0  0  0  0  0  0  0  0  0  0  0
   -7.8083   23.3349  -32.2473 H   0  0  0  0  0  0  0  0  0  0  0  0
   -9.5443   22.8734  -32.2473 H   0  0  0  0  0  0  0  0  0  0  0  0
  -10.1896   20.4678  -31.7440 H   0  0  0  0  0  0  0  0  0  0  0  0
   -9.5712   18.0818  -32.2530 H   0  0  0  0  0  0  0  0  0  0  0  0
   -7.3873   16.4151  -33.0240 H   0  0  0  0  0  0  0  0  0  0  0  0
   -2.5440   16.1230  -33.7670 H   0  0  0  0  0  0  0  0  0  0  0  0
   -2.8510   17.7370  -33.0420 H   0  0  0  0  0  0  0  0  0  0  0  0
   -3.2890   22.1692  -33.7117 H   0  0  0  0  0  0  0  0  0  0  0  0
   -3.4989   22.7306  -32.0187 H   0  0  0  0  0  0  0  0  0  0  0  0
    1.5599   19.3912  -31.6633 H   0  0  0  0  0  0  0  0  0  0  0  0
    0.3127   20.3902  -30.8137 H   0  0  0  0  0  0  0  0  0  0  0  0
   -0.2747   17.9983  -30.8316 H   0  0  0  0  0  0  0  0  0  0  0  0
   -1.9070   19.5940  -32.5730 H   0  0  0  0  0  0  0  0  0  0  0  0
    0.8327   17.7304  -33.2516 H   0  0  0  0  0  0  0  0  0  0  0  0
   -0.4582   16.6325  -32.6506 H   0  0  0  0  0  0  0  0  0  0  0  0
   -1.2490   19.0140  -33.8590 H   0  0  0  0  0  0  0  0  0  0  0  0
   -6.0957   21.7090  -32.5765 H   0  0  0  0  0  0  0  0  0  0  0  0
  1  2  1  0
  2  3  2  0
  3  4  1  0
  4  5  2  0
  5  6  1  0
  6  7  2  0
  7  8  1  0
  8  9  1  0
  8 10  2  0
  7 11  1  0
 11 12  1  0
 12 13  2  0
 12 14  1  0
 14 15  1  0
 15 16  1  0
 16 17  1  0
 17 18  2  0
 17 19  1  0
 19 20  1  0
 20 21  1  0
 21 22  1  0
 21 23  1  0
 23 24  1  0
 11 25  1  0
 25 26  2  0
 26  2  1  0
 25  5  1  0
  1 27  1  0
  1 28  1  0
  1 29  1  0
  3 30  1  0
  4 31  1  0
  6 32  1  0
  9 33  1  0
  9 34  1  0
 15 35  1  0
 15 36  1  0
 20 37  1  0
 20 38  1  0
 21 39  1  1
 22 40  1  0
 23 41  1  0
 23 42  1  0
 24 43  1  0
 26 44  1  0
M  CHG  1  19  -1
M  END
>  <UniqueID>  (77) 
77

>  <SMILES>  (77) 
Cc1ccc2cc(C(N)=O)n(C(=O)OCOC(=O)[N-]C[C@@H](O)CO)c2c1

>  <Energy>  (77) 
74.3975679459915

>  <Genealogy>  (77) 
Cc1ccc2cc(C(N)=O)n(C(=O)OCOC(=O)[N-]C[C@@H](O)CO)c2c1 (protonated)
Cc1ccc2cc(C(N)=O)n(C(=O)OCOC(=O)[N-]C[C@@H](O)CO)c2c1 (3D coordinates assigned)
Cc1ccc2cc(C(N)=O)n(C(=O)OCOC(=O)[N-]C[C@@H](O)CO)c2c1 (optimized conformer: 74.3975679459915 kcal/mol)

>  <smiles>  (77) 
Cc1ccc2cc(C(N)=O)n(C(=O)OCOC(=O)NC[C@@H](O)CO)c2c1

>  <score_type>  (77) 
oracle

>  <origin>  (77) 
adg

>  <m_score__min__energy>  (77) 
-7.7999999999999998

>  <m_primary>  (77) 
energy

$$$$
78:0
     RDKit          3D

 55 58  0  0  0  0  0  0  0  0999 V2000
   -5.7510   25.2970  -29.0740 N   0  0  0  0  0  0  0  0  0  0  0  0
   -5.2210   24.7780  -30.2960 C   0  0  0  0  0  0  0  0  0  0  0  0
   -4.2550   25.3690  -30.8480 O   0  0  0  0  0  0  0  0  0  0  0  0
   -5.7500   23.5370  -30.8970 C   0  0  0  0  0  0  0  0  0  0  0  0
   -7.1090   23.2390  -30.9850 C   0  0  0  0  0  0  0  0  0  0  0  0
   -7.1710   22.0150  -31.6140 C   0  0  0  0  0  0  0  0  0  0  0  0
   -8.2720   21.2250  -31.9300 C   0  0  0  0  0  0  0  0  0  0  0  0
   -8.0380   19.9790  -32.5350 C   0  0  0  0  0  0  0  0  0  0  0  0
   -6.7150   19.5470  -32.8180 C   0  0  0  0  0  0  0  0  0  0  0  0
   -6.4720   18.1830  -33.4130 C   0  0  0  0  0  0  0  0  0  0  0  0
   -5.4480   17.5620  -32.7210 F   0  0  0  0  0  0  0  0  0  0  0  0
   -7.6110   17.4020  -33.3290 F   0  0  0  0  0  0  0  0  0  0  0  0
   -6.1160   18.2900  -34.7470 F   0  0  0  0  0  0  0  0  0  0  0  0
   -5.6220   20.3660  -32.4520 C   0  0  0  0  0  0  0  0  0  0  0  0
   -5.8880   21.6120  -31.8730 C   0  0  0  0  0  0  0  0  0  0  0  0
   -5.0050   22.5380  -31.4450 N   0  0  0  0  0  0  0  0  0  0  0  0
   -3.5750   22.4040  -31.4160 C   0  0  0  0  0  0  0  0  0  0  0  0
   -2.9730   22.0260  -32.4580 O   0  0  0  0  0  0  0  0  0  0  0  0
   -2.8050   22.6780  -30.1790 C   0  0  0  0  0  0  0  0  0  0  0  0
   -3.4250   22.5830  -28.9220 C   0  0  0  0  0  0  0  0  0  0  0  0
   -2.7080   22.8610  -27.7550 C   0  0  0  0  0  0  0  0  0  0  0  0
   -1.3650   23.2610  -27.8230 C   0  0  0  0  0  0  0  0  0  0  0  0
   -0.6030   23.5890  -26.5590 C   0  0  0  0  0  0  0  0  0  0  0  0
   -1.4180   24.2960  -25.5460 N   0  0  0  0  0  0  0  0  0  0  0  0
   -0.7760   24.5020  -24.2260 C   0  0  0  0  0  0  0  0  0  0  0  0
   -0.8590   25.9500  -23.7250 C   0  0  0  0  0  0  0  0  0  0  0  0
   -0.5600   26.9220  -24.8670 C   0  0  0  0  0  0  0  0  0  0  0  0
   -0.5340   28.2970  -24.3660 N   0  0  0  0  0  0  0  0  0  0  0  0
   -1.6150   26.7820  -25.9840 C   0  0  0  0  0  0  0  0  0  0  0  0
   -2.2780   25.3880  -26.0490 C   0  0  0  0  0  0  0  0  0  0  0  0
   -0.7370   23.3310  -29.0770 C   0  0  0  0  0  0  0  0  0  0  0  0
   -1.4520   23.0550  -30.2440 C   0  0  0  0  0  0  0  0  0  0  0  0
   -5.4010   26.2070  -28.6990 H   0  0  0  0  0  0  0  0  0  0  0  0
   -6.4090   24.7390  -28.4890 H   0  0  0  0  0  0  0  0  0  0  0  0
   -7.9513   23.8502  -30.6286 H   0  0  0  0  0  0  0  0  0  0  0  0
   -9.2950   21.5660  -31.7126 H   0  0  0  0  0  0  0  0  0  0  0  0
   -8.8887   19.3309  -32.7924 H   0  0  0  0  0  0  0  0  0  0  0  0
   -4.5873   20.0317  -32.6184 H   0  0  0  0  0  0  0  0  0  0  0  0
   -4.4825   22.2876  -28.8558 H   0  0  0  0  0  0  0  0  0  0  0  0
   -3.2003   22.7655  -26.7760 H   0  0  0  0  0  0  0  0  0  0  0  0
   -0.2381   22.6494  -26.1185 H   0  0  0  0  0  0  0  0  0  0  0  0
    0.2187   24.2634  -26.8419 H   0  0  0  0  0  0  0  0  0  0  0  0
   -1.2724   23.8504  -23.4918 H   0  0  0  0  0  0  0  0  0  0  0  0
    0.2907   24.2607  -24.3435 H   0  0  0  0  0  0  0  0  0  0  0  0
   -1.8706   26.1434  -23.3388 H   0  0  0  0  0  0  0  0  0  0  0  0
   -0.1175   26.0963  -22.9258 H   0  0  0  0  0  0  0  0  0  0  0  0
    0.4275   26.6778  -25.2855 H   0  0  0  0  0  0  0  0  0  0  0  0
   -0.1520   28.2820  -23.3930 H   0  0  0  0  0  0  0  0  0  0  0  0
   -1.5200   28.6360  -24.2820 H   0  0  0  0  0  0  0  0  0  0  0  0
   -2.4015   27.5318  -25.8132 H   0  0  0  0  0  0  0  0  0  0  0  0
   -1.0898   26.9302  -26.9391 H   0  0  0  0  0  0  0  0  0  0  0  0
   -3.1971   25.4122  -25.4451 H   0  0  0  0  0  0  0  0  0  0  0  0
   -2.4778   25.1766  -27.1099 H   0  0  0  0  0  0  0  0  0  0  0  0
    0.3263   23.6054  -29.1404 H   0  0  0  0  0  0  0  0  0  0  0  0
   -0.9532   23.1331  -31.2213 H   0  0  0  0  0  0  0  0  0  0  0  0
  1  2  1  0
  2  3  2  0
  2  4  1  0
  4  5  2  0
  5  6  1  0
  6  7  2  0
  7  8  1  0
  8  9  2  0
  9 10  1  0
 10 11  1  0
 10 12  1  0
 10 13  1  0
  9 14  1  0
 14 15  2  0
 15 16  1  0
 16 17  1  0
 17 18  2  0
 17 19  1  0
 19 20  2  0
 20 21  1  0
 21 22  2  0
 22 23  1  0
 23 24  1  0
 24 25  1  0
 25 26  1  0
 26 27  1  0
 27 28  1  0
 27 29  1  0
 29 30  1  0
 22 31  1  0
 31 32  2  0
 16  4  1  0
 32 19  1  0
 15  6  1  0
 30 24  1  0
  1 33  1  0
  1 34  1  0
  5 35  1  0
  7 36  1  0
  8 37  1  0
 14 38  1  0
 20 39  1  0
 21 40  1  0
 23 41  1  0
 23 42  1  0
 25 43  1  0
 25 44  1  0
 26 45  1  0
 26 46  1  0
 27 47  1  0
 28 48  1  0
 28 49  1  0
 29 50  1  0
 29 51  1  0
 30 52  1  0
 30 53  1  0
 31 54  1  0
 32 55  1  0
M  END
>  <UniqueID>  (78) 
78

>  <SMILES>  (78) 
NC(=O)c1cc2ccc(C(F)(F)F)cc2n1C(=O)c1ccc(CN2CCC(N)CC2)cc1

>  <Energy>  (78) 
110.98769707945526

>  <Genealogy>  (78) 
NC(=O)c1cc2ccc(C(F)(F)F)cc2n1C(=O)c1ccc(CN2CCC(N)CC2)cc1 (3D coordinates assigned)
NC(=O)c1cc2ccc(C(F)(F)F)cc2n1C(=O)c1ccc(CN2CCC(N)CC2)cc1 (nonaromatic ring conformer: 110.98769707945526 kcal/mol)

>  <smiles>  (78) 
NC(=O)c1cc2ccc(C(F)(F)F)cc2n1C(=O)c1ccc(CN2CCC(N)CC2)cc1

>  <score_type>  (78) 
oracle

>  <origin>  (78) 
adg

>  <m_score__min__energy>  (78) 
-11.07

>  <m_primary>  (78) 
energy

$$$$
79:0
     RDKit          3D

 38 40  0  0  0  0  0  0  0  0999 V2000
   -3.5850   25.2810  -30.8210 N   0  0  0  0  0  0  0  0  0  0  0  0
   -4.9910   25.3260  -30.5940 C   0  0  0  0  0  0  0  0  0  0  0  0
   -5.5040   26.3670  -30.1070 O   0  0  0  0  0  0  0  0  0  0  0  0
   -5.8220   24.1390  -30.8890 C   0  0  0  0  0  0  0  0  0  0  0  0
   -7.2140   24.1420  -30.8250 C   0  0  0  0  0  0  0  0  0  0  0  0
   -7.6000   22.8920  -31.2520 C   0  0  0  0  0  0  0  0  0  0  0  0
   -8.8740   22.3440  -31.3760 C   0  0  0  0  0  0  0  0  0  0  0  0
   -8.9780   21.0130  -31.8160 C   0  0  0  0  0  0  0  0  0  0  0  0
   -7.8160   20.2590  -32.1150 C   0  0  0  0  0  0  0  0  0  0  0  0
   -7.9490   18.8320  -32.5680 C   0  0  0  0  0  0  0  0  0  0  0  0
   -7.3880   17.9910  -31.6240 F   0  0  0  0  0  0  0  0  0  0  0  0
   -9.2860   18.5160  -32.7250 F   0  0  0  0  0  0  0  0  0  0  0  0
   -6.5400   20.8480  -31.9740 C   0  0  0  0  0  0  0  0  0  0  0  0
   -6.4670   22.1810  -31.5520 C   0  0  0  0  0  0  0  0  0  0  0  0
   -5.3650   22.9330  -31.3310 N   0  0  0  0  0  0  0  0  0  0  0  0
   -4.0000   22.5070  -31.4620 C   0  0  0  0  0  0  0  0  0  0  0  0
   -3.4610   22.4790  -32.6030 O   0  0  0  0  0  0  0  0  0  0  0  0
   -3.2890   22.1070  -30.3220 O   0  0  0  0  0  0  0  0  0  0  0  0
   -2.5460   22.9580  -29.4960 C   0  0  0  0  0  0  0  0  0  0  0  0
   -1.5470   23.5880  -29.9400 O   0  0  0  0  0  0  0  0  0  0  0  0
   -2.9360   23.1020  -28.1610 O   0  0  0  0  0  0  0  0  0  0  0  0
   -3.3920   24.3340  -27.6070 C   0  0  0  0  0  0  0  0  0  0  0  0
   -2.2460   25.2760  -27.4120 C   0  0  0  0  0  0  0  0  0  0  0  0
   -1.7280   25.6740  -26.1970 C   0  0  0  0  0  0  0  0  0  0  0  0
   -0.7070   26.5490  -26.5000 C   0  0  0  0  0  0  0  0  0  0  0  0
   -0.6670   26.6300  -27.8780 C   0  0  0  0  0  0  0  0  0  0  0  0
   -1.5980   25.8600  -28.3930 O   0  0  0  0  0  0  0  0  0  0  0  0
   -2.9100   25.2990  -30.0230 H   0  0  0  0  0  0  0  0  0  0  0  0
   -7.8654   24.9675  -30.5020 H   0  0  0  0  0  0  0  0  0  0  0  0
   -9.7710   22.9342  -31.1371 H   0  0  0  0  0  0  0  0  0  0  0  0
   -9.9705   20.5525  -31.9293 H   0  0  0  0  0  0  0  0  0  0  0  0
   -7.4273   18.7075  -33.5284 H   0  0  0  0  0  0  0  0  0  0  0  0
   -5.6269   20.2740  -32.1902 H   0  0  0  0  0  0  0  0  0  0  0  0
   -4.1232   24.7899  -28.2907 H   0  0  0  0  0  0  0  0  0  0  0  0
   -3.8589   24.1345  -26.6312 H   0  0  0  0  0  0  0  0  0  0  0  0
   -2.0600   25.3592  -25.1966 H   0  0  0  0  0  0  0  0  0  0  0  0
   -0.0554   27.0764  -25.7878 H   0  0  0  0  0  0  0  0  0  0  0  0
    0.0375   27.2458  -28.4564 H   0  0  0  0  0  0  0  0  0  0  0  0
  1  2  1  0
  2  3  2  0
  2  4  1  0
  4  5  2  0
  5  6  1  0
  6  7  2  0
  7  8  1  0
  8  9  2  0
  9 10  1  0
 10 11  1  0
 10 12  1  0
  9 13  1  0
 13 14  2  0
 14 15  1  0
 15 16  1  0
 16 17  2  0
 16 18  1  0
 18 19  1  0
 19 20  2  0
 19 21  1  0
 21 22  1  0
 22 23  1  0
 23 24  2  0
 24 25  1  0
 25 26  2  0
 26 27  1  0
 15  4  1  0
 27 23  1  0
 14  6  1  0
  1 28  1  0
  5 29  1  0
  7 30  1  0
  8 31  1  0
 10 32  1  0
 13 33  1  0
 22 34  1  0
 22 35  1  0
 24 36  1  0
 25 37  1  0
 26 38  1  0
M  CHG  1   1  -1
M  END
>  <UniqueID>  (79) 
79

>  <SMILES>  (79) 
[NH-]C(=O)c1cc2ccc(C(F)F)cc2n1C(=O)OC(=O)OCc1ccco1

>  <Energy>  (79) 
103.5074739507783

>  <Genealogy>  (79) 
[NH-]C(=O)c1cc2ccc(C(F)F)cc2n1C(=O)OC(=O)OCc1ccco1 (protonated)
[NH-]C(=O)c1cc2ccc(C(F)F)cc2n1C(=O)OC(=O)OCc1ccco1 (3D coordinates assigned)
[NH-]C(=O)c1cc2ccc(C(F)F)cc2n1C(=O)OC(=O)OCc1ccco1 (optimized conformer: 103.5074739507783 kcal/mol)

>  <smiles>  (79) 
NC(=O)c1cc2ccc(C(F)F)cc2n1C(=O)OC(=O)OCc1ccco1

>  <score_type>  (79) 
oracle

>  <origin>  (79) 
adg

>  <m_score__min__energy>  (79) 
-9.9000000000000004

>  <m_primary>  (79) 
energy

$$$$
80:0
     RDKit          3D

 49 51  0  0  0  0  0  0  0  0999 V2000
   -0.4910   22.5550  -24.6620 C   0  0  0  0  0  0  0  0  0  0  0  0
   -1.0010   21.7480  -25.7180 O   0  0  0  0  0  0  0  0  0  0  0  0
   -1.4980   22.2490  -26.9310 C   0  0  0  0  0  0  0  0  0  0  0  0
   -2.1880   21.3750  -27.7750 C   0  0  0  0  0  0  0  0  0  0  0  0
   -2.7050   21.8230  -28.9910 C   0  0  0  0  0  0  0  0  0  0  0  0
   -2.5460   23.1640  -29.3810 C   0  0  0  0  0  0  0  0  0  0  0  0
   -3.0390   23.6440  -30.6050 O   0  0  0  0  0  0  0  0  0  0  0  0
   -3.7750   22.8960  -31.5330 C   0  0  0  0  0  0  0  0  0  0  0  0
   -3.1870   22.2060  -32.4110 O   0  0  0  0  0  0  0  0  0  0  0  0
   -5.2100   22.8740  -31.4450 N   0  0  0  0  0  0  0  0  0  0  0  0
   -6.0070   23.7970  -30.8360 C   0  0  0  0  0  0  0  0  0  0  0  0
   -5.5640   25.0950  -30.2880 C   0  0  0  0  0  0  0  0  0  0  0  0
   -6.1800   25.6590  -29.1300 N   0  0  0  0  0  0  0  0  0  0  0  0
   -4.5890   25.6910  -30.8200 O   0  0  0  0  0  0  0  0  0  0  0  0
   -7.3330   23.3770  -30.8330 C   0  0  0  0  0  0  0  0  0  0  0  0
   -7.3280   22.1610  -31.4770 C   0  0  0  0  0  0  0  0  0  0  0  0
   -8.3780   21.2900  -31.7420 C   0  0  0  0  0  0  0  0  0  0  0  0
   -8.0850   20.0800  -32.3890 C   0  0  0  0  0  0  0  0  0  0  0  0
   -6.7490   19.7460  -32.7550 C   0  0  0  0  0  0  0  0  0  0  0  0
   -6.4550   18.4850  -33.4120 N   0  0  0  0  0  0  0  0  0  0  0  0
   -6.8930   17.2140  -32.8190 C   0  0  0  0  0  0  0  0  0  0  0  0
   -5.7170   18.4570  -34.6800 C   0  0  0  0  0  0  0  0  0  0  0  0
   -5.7110   20.6670  -32.4600 C   0  0  0  0  0  0  0  0  0  0  0  0
   -6.0370   21.8760  -31.8330 C   0  0  0  0  0  0  0  0  0  0  0  0
   -1.8380   24.0480  -28.5530 C   0  0  0  0  0  0  0  0  0  0  0  0
   -1.6740   25.3740  -28.9830 O   0  0  0  0  0  0  0  0  0  0  0  0
   -0.9750   26.3790  -28.2550 C   0  0  0  0  0  0  0  0  0  0  0  0
   -1.3190   23.5890  -27.3260 C   0  0  0  0  0  0  0  0  0  0  0  0
   -0.7706   22.1125  -23.6945 H   0  0  0  0  0  0  0  0  0  0  0  0
    0.6051   22.6082  -24.7377 H   0  0  0  0  0  0  0  0  0  0  0  0
   -0.9134   23.5678  -24.7377 H   0  0  0  0  0  0  0  0  0  0  0  0
   -2.3248   20.3247  -27.4782 H   0  0  0  0  0  0  0  0  0  0  0  0
   -3.2404   21.1224  -29.6486 H   0  0  0  0  0  0  0  0  0  0  0  0
   -5.8860   26.5990  -28.7850 H   0  0  0  0  0  0  0  0  0  0  0  0
   -6.8720   25.1150  -28.5680 H   0  0  0  0  0  0  0  0  0  0  0  0
   -8.1997   23.9039  -30.4072 H   0  0  0  0  0  0  0  0  0  0  0  0
   -9.4090   21.5419  -31.4529 H   0  0  0  0  0  0  0  0  0  0  0  0
   -8.9001   19.3776  -32.6175 H   0  0  0  0  0  0  0  0  0  0  0  0
   -6.8659   17.2925  -31.7221 H   0  0  0  0  0  0  0  0  0  0  0  0
   -7.9196   16.9916  -33.1455 H   0  0  0  0  0  0  0  0  0  0  0  0
   -6.2213   16.4063  -33.1455 H   0  0  0  0  0  0  0  0  0  0  0  0
   -4.6371   18.4160  -34.4749 H   0  0  0  0  0  0  0  0  0  0  0  0
   -6.0144   17.5695  -35.2578 H   0  0  0  0  0  0  0  0  0  0  0  0
   -5.9463   19.3645  -35.2578 H   0  0  0  0  0  0  0  0  0  0  0  0
   -4.6675   20.4353  -32.7195 H   0  0  0  0  0  0  0  0  0  0  0  0
   -1.0977   26.2025  -27.1762 H   0  0  0  0  0  0  0  0  0  0  0  0
    0.0936   26.3425  -28.5133 H   0  0  0  0  0  0  0  0  0  0  0  0
   -1.3810   27.3682  -28.5133 H   0  0  0  0  0  0  0  0  0  0  0  0
   -0.7700   24.2823  -26.6719 H   0  0  0  0  0  0  0  0  0  0  0  0
  1  2  1  0
  2  3  1  0
  3  4  2  0
  4  5  1  0
  5  6  2  0
  6  7  1  0
  7  8  1  0
  8  9  2  0
  8 10  1  0
 10 11  1  0
 11 12  1  0
 12 13  1  0
 12 14  2  0
 11 15  2  0
 15 16  1  0
 16 17  2  0
 17 18  1  0
 18 19  2  0
 19 20  1  0
 20 21  1  0
 20 22  1  0
 19 23  1  0
 23 24  2  0
  6 25  1  0
 25 26  1  0
 26 27  1  0
 25 28  2  0
 28  3  1  0
 24 10  1  0
 24 16  1  0
  1 29  1  0
  1 30  1  0
  1 31  1  0
  4 32  1  0
  5 33  1  0
 13 34  1  0
 13 35  1  0
 15 36  1  0
 17 37  1  0
 18 38  1  0
 21 39  1  0
 21 40  1  0
 21 41  1  0
 22 42  1  0
 22 43  1  0
 22 44  1  0
 23 45  1  0
 27 46  1  0
 27 47  1  0
 27 48  1  0
 28 49  1  0
M  END
>  <UniqueID>  (80) 
80

>  <SMILES>  (80) 
COc1ccc(OC(=O)n2c(C(N)=O)cc3ccc(N(C)C)cc32)c(OC)c1

>  <Energy>  (80) 
94.9372828018454

>  <Genealogy>  (80) 
COc1ccc(OC(=O)n2c(C(N)=O)cc3ccc(N(C)C)cc32)c(OC)c1 (3D coordinates assigned)
COc1ccc(OC(=O)n2c(C(N)=O)cc3ccc(N(C)C)cc32)c(OC)c1 (optimized conformer: 94.9372828018454 kcal/mol)

>  <smiles>  (80) 
COc1ccc(OC(=O)n2c(C(N)=O)cc3ccc(N(C)C)cc32)c(OC)c1

>  <score_type>  (80) 
oracle

>  <origin>  (80) 
adg

>  <m_score__min__energy>  (80) 
-9.7200000000000006

>  <m_primary>  (80) 
energy

$$$$
81:0
     RDKit          3D

 35 36  0  0  0  0  0  0  0  0999 V2000
   -5.1413   17.3108  -31.2701 H   0  0  0  0  0  0  0  0  0  0  0  0
   -5.5880   18.0400  -31.9620 C   0  0  0  0  0  0  0  0  0  0  0  0
   -6.2320   17.5040  -33.1740 C   0  0  0  0  0  0  0  0  0  0  0  0
   -5.6250   17.4550  -34.2760 O   0  0  0  0  0  0  0  0  0  0  0  0
   -7.5630   17.1180  -33.1150 O   0  0  0  0  0  0  0  0  0  0  0  0
   -5.4960   19.3360  -31.6240 C   0  0  0  0  0  0  0  0  0  0  0  0
   -5.1300   19.5633  -30.6119 H   0  0  0  0  0  0  0  0  0  0  0  0
   -5.8410   20.4850  -32.4860 C   0  0  0  0  0  0  0  0  0  0  0  0
   -5.3470   20.5900  -33.6410 O   0  0  0  0  0  0  0  0  0  0  0  0
   -6.6620   21.5460  -31.9670 N   0  0  0  0  0  0  0  0  0  0  0  0
   -8.0210   21.5750  -31.8810 C   0  0  0  0  0  0  0  0  0  0  0  0
   -8.9470   20.5590  -32.4260 C   0  0  0  0  0  0  0  0  0  0  0  0
  -10.1900   20.7440  -32.3350 O   0  0  0  0  0  0  0  0  0  0  0  0
   -8.4610   19.4010  -33.1070 N   0  0  0  0  0  0  0  0  0  0  0  0
   -7.4520   19.3070  -33.3560 H   0  0  0  0  0  0  0  0  0  0  0  0
   -9.1270   18.6670  -33.4330 H   0  0  0  0  0  0  0  0  0  0  0  0
   -8.4460   22.7260  -31.2210 C   0  0  0  0  0  0  0  0  0  0  0  0
   -9.4813   23.0233  -30.9979 H   0  0  0  0  0  0  0  0  0  0  0  0
   -7.2960   23.4110  -30.9080 C   0  0  0  0  0  0  0  0  0  0  0  0
   -7.1300   24.6150  -30.2300 C   0  0  0  0  0  0  0  0  0  0  0  0
   -7.9984   25.1938  -29.8823 H   0  0  0  0  0  0  0  0  0  0  0  0
   -5.8200   25.0690  -30.0030 C   0  0  0  0  0  0  0  0  0  0  0  0
   -5.6578   26.0229  -29.4799 H   0  0  0  0  0  0  0  0  0  0  0  0
   -4.7020   24.3090  -30.4420 C   0  0  0  0  0  0  0  0  0  0  0  0
   -3.3520   24.7490  -30.2030 N   0  0  0  0  0  0  0  0  0  0  0  0
   -3.0600   25.6740  -30.5950 H   0  0  0  0  0  0  0  0  0  0  0  0
   -2.3800   23.9710  -29.4330 C   0  0  0  0  0  0  0  0  0  0  0  0
   -2.8539   23.6182  -28.5051 H   0  0  0  0  0  0  0  0  0  0  0  0
   -2.0494   23.1168  -30.0421 H   0  0  0  0  0  0  0  0  0  0  0  0
   -1.1860   24.8060  -29.0880 C   0  0  0  0  0  0  0  0  0  0  0  0
   -0.1500   24.2680  -28.6110 O   0  0  0  0  0  0  0  0  0  0  0  0
   -1.2100   26.1780  -29.3160 O   0  0  0  0  0  0  0  0  0  0  0  0
   -4.9160   23.0900  -31.1240 C   0  0  0  0  0  0  0  0  0  0  0  0
   -4.0660   22.4784  -31.4608 H   0  0  0  0  0  0  0  0  0  0  0  0
   -6.2320   22.6770  -31.3620 C   0  0  0  0  0  0  0  0  0  0  0  0
  1  2  1  0
  2  3  1  0
  3  4  2  0
  3  5  1  0
  2  6  2  0
  6  7  1  0
  6  8  1  0
  8  9  2  0
  8 10  1  0
 10 11  1  0
 11 12  1  0
 12 13  2  0
 12 14  1  0
 14 15  1  0
 14 16  1  0
 11 17  2  0
 17 18  1  0
 17 19  1  0
 19 20  2  0
 20 21  1  0
 20 22  1  0
 22 23  1  0
 22 24  2  0
 24 25  1  0
 25 26  1  0
 25 27  1  0
 27 28  1  0
 27 29  1  0
 27 30  1  0
 30 31  2  0
 30 32  1  0
 24 33  1  0
 33 34  1  0
 33 35  2  0
 35 10  1  0
 35 19  1  0
M  CHG  2   5  -1  32  -1
M  END
>  <UniqueID>  (81) 
81

>  <SMILES>  (81) 
NC(=O)c1cc2ccc(NCC(=O)[O-])cc2n1C(=O)/C=C\C(=O)[O-]

>  <Energy>  (81) 
80.07204630020112

>  <Genealogy>  (81) 
NC(=O)c1cc2ccc(NCC(=O)[O-])cc2n1C(=O)/C=C\C(=O)[O-] (protonated)
NC(=O)c1cc2ccc(NCC(=O)[O-])cc2n1C(=O)/C=C\C(=O)[O-] (cis-trans isomerization)
NC(=O)c1cc2ccc(NCC(=O)[O-])cc2n1C(=O)/C=C\C(=O)[O-] (3D coordinates assigned)
NC(=O)c1cc2ccc(NCC(=O)[O-])cc2n1C(=O)/C=C\C(=O)[O-] (optimized conformer: 80.07204630020112 kcal/mol)

>  <smiles>  (81) 
NC(=O)c1cc2ccc(NCC(=O)O)cc2n1C(=O)/C=C\C(=O)O

>  <score_type>  (81) 
oracle

>  <origin>  (81) 
adg

>  <m_score__min__energy>  (81) 
-10.06

>  <m_primary>  (81) 
energy

$$$$
82:0
     RDKit          3D

 36 37  0  0  0  0  0  0  0  0999 V2000
   -0.8690   26.7960  -28.0310 C   0  0  0  0  0  0  0  0  0  0  0  0
   -1.4340   25.8580  -28.9390 O   0  0  0  0  0  0  0  0  0  0  0  0
   -1.1800   24.4860  -28.8580 C   0  0  0  0  0  0  0  0  0  0  0  0
   -0.0160   24.0360  -29.0420 O   0  0  0  0  0  0  0  0  0  0  0  0
   -2.3110   23.5410  -28.5970 C   0  0  0  0  0  0  0  0  0  0  0  0
   -2.4390   22.5140  -29.7240 C   0  0  0  0  0  0  0  0  0  0  0  0
   -2.7020   23.1510  -30.9750 O   0  0  0  0  0  0  0  0  0  0  0  0
   -3.6170   22.6610  -31.9120 C   0  0  0  0  0  0  0  0  0  0  0  0
   -3.2130   22.1210  -32.9780 O   0  0  0  0  0  0  0  0  0  0  0  0
   -5.0240   22.7530  -31.6460 N   0  0  0  0  0  0  0  0  0  0  0  0
   -5.6920   23.7610  -31.0170 C   0  0  0  0  0  0  0  0  0  0  0  0
   -5.0750   24.9130  -30.3260 C   0  0  0  0  0  0  0  0  0  0  0  0
   -3.8940   25.5280  -30.8350 N   0  0  0  0  0  0  0  0  0  0  0  0
   -5.5720   25.3320  -29.2460 O   0  0  0  0  0  0  0  0  0  0  0  0
   -7.0640   23.5190  -31.0270 C   0  0  0  0  0  0  0  0  0  0  0  0
   -7.2180   22.3170  -31.6790 C   0  0  0  0  0  0  0  0  0  0  0  0
   -8.3730   21.6010  -31.9790 C   0  0  0  0  0  0  0  0  0  0  0  0
   -8.2350   20.3950  -32.6870 C   0  0  0  0  0  0  0  0  0  0  0  0
   -6.9560   19.9340  -33.0820 C   0  0  0  0  0  0  0  0  0  0  0  0
   -6.8300   18.7110  -33.8110 N   0  0  0  0  0  0  0  0  0  0  0  0
   -5.8060   20.6860  -32.7620 C   0  0  0  0  0  0  0  0  0  0  0  0
   -5.9710   21.8750  -32.0420 C   0  0  0  0  0  0  0  0  0  0  0  0
   -1.0649   26.4707  -26.9986 H   0  0  0  0  0  0  0  0  0  0  0  0
    0.2168   26.8579  -28.1961 H   0  0  0  0  0  0  0  0  0  0  0  0
   -1.3219   27.7847  -28.1961 H   0  0  0  0  0  0  0  0  0  0  0  0
   -2.1278   23.0138  -27.6491 H   0  0  0  0  0  0  0  0  0  0  0  0
   -3.2451   24.1193  -28.5422 H   0  0  0  0  0  0  0  0  0  0  0  0
   -1.4999   21.9464  -29.8007 H   0  0  0  0  0  0  0  0  0  0  0  0
   -3.2792   21.8434  -29.4908 H   0  0  0  0  0  0  0  0  0  0  0  0
   -2.9550   25.2890  -30.4480 H   0  0  0  0  0  0  0  0  0  0  0  0
   -7.8561   24.1540  -30.6035 H   0  0  0  0  0  0  0  0  0  0  0  0
   -9.3634   21.9678  -31.6714 H   0  0  0  0  0  0  0  0  0  0  0  0
   -9.1286   19.8040  -32.9365 H   0  0  0  0  0  0  0  0  0  0  0  0
   -6.5890   17.8190  -33.3220 H   0  0  0  0  0  0  0  0  0  0  0  0
   -6.9750   18.6870  -34.8440 H   0  0  0  0  0  0  0  0  0  0  0  0
   -4.8060   20.3469  -33.0702 H   0  0  0  0  0  0  0  0  0  0  0  0
  1  2  1  0
  2  3  1  0
  3  4  2  0
  3  5  1  0
  5  6  1  0
  6  7  1  0
  7  8  1  0
  8  9  2  0
  8 10  1  0
 10 11  1  0
 11 12  1  0
 12 13  1  0
 12 14  2  0
 11 15  2  0
 15 16  1  0
 16 17  2  0
 17 18  1  0
 18 19  2  0
 19 20  1  0
 19 21  1  0
 21 22  2  0
 22 10  1  0
 22 16  1  0
  1 23  1  0
  1 24  1  0
  1 25  1  0
  5 26  1  0
  5 27  1  0
  6 28  1  0
  6 29  1  0
 13 30  1  0
 15 31  1  0
 17 32  1  0
 18 33  1  0
 20 34  1  0
 20 35  1  0
 21 36  1  0
M  CHG  1  13  -1
M  END
>  <UniqueID>  (82) 
82

>  <SMILES>  (82) 
COC(=O)CCOC(=O)n1c(C([NH-])=O)cc2ccc(N)cc21

>  <Energy>  (82) 
67.47118840841712

>  <Genealogy>  (82) 
COC(=O)CCOC(=O)n1c(C([NH-])=O)cc2ccc(N)cc21 (protonated)
COC(=O)CCOC(=O)n1c(C([NH-])=O)cc2ccc(N)cc21 (3D coordinates assigned)
COC(=O)CCOC(=O)n1c(C([NH-])=O)cc2ccc(N)cc21 (optimized conformer: 67.47118840841712 kcal/mol)

>  <smiles>  (82) 
COC(=O)CCOC(=O)n1c(C(N)=O)cc2ccc(N)cc21

>  <score_type>  (82) 
oracle

>  <origin>  (82) 
adg

>  <m_score__min__energy>  (82) 
-9.5899999999999999

>  <m_primary>  (82) 
energy

$$$$
83:0
     RDKit          3D

 42 43  0  0  0  0  0  0  0  0999 V2000
   -6.6150   17.6540  -32.1750 C   0  0  0  0  0  0  0  0  0  0  0  0
   -7.2570   18.7370  -32.9130 N   0  0  0  0  0  0  0  0  0  0  0  0
   -7.3500   20.0870  -32.4240 C   0  0  0  0  0  0  0  0  0  0  0  0
   -8.6080   20.7180  -32.2170 C   0  0  0  0  0  0  0  0  0  0  0  0
   -8.6790   22.0410  -31.7450 C   0  0  0  0  0  0  0  0  0  0  0  0
   -7.4850   22.7070  -31.4850 C   0  0  0  0  0  0  0  0  0  0  0  0
   -7.2630   23.9880  -31.0360 C   0  0  0  0  0  0  0  0  0  0  0  0
   -5.8770   24.1180  -30.9590 C   0  0  0  0  0  0  0  0  0  0  0  0
   -5.1940   25.3220  -30.4390 C   0  0  0  0  0  0  0  0  0  0  0  0
   -3.8680   25.6480  -30.8490 N   0  0  0  0  0  0  0  0  0  0  0  0
   -5.7740   26.0520  -29.5930 O   0  0  0  0  0  0  0  0  0  0  0  0
   -5.2700   22.9640  -31.3590 N   0  0  0  0  0  0  0  0  0  0  0  0
   -3.8650   22.7040  -31.4870 C   0  0  0  0  0  0  0  0  0  0  0  0
   -3.4030   22.3000  -32.5880 O   0  0  0  0  0  0  0  0  0  0  0  0
   -2.9520   22.9310  -30.3590 C   0  0  0  0  0  0  0  0  0  0  0  0
   -1.7320   22.6270  -30.4660 O   0  0  0  0  0  0  0  0  0  0  0  0
   -3.4450   23.4920  -29.1770 O   0  0  0  0  0  0  0  0  0  0  0  0
   -2.6520   23.6800  -28.0070 C   0  0  0  0  0  0  0  0  0  0  0  0
   -1.8520   24.9520  -28.1020 C   0  0  0  0  0  0  0  0  0  0  0  0
   -1.4730   25.3370  -29.2430 O   0  0  0  0  0  0  0  0  0  0  0  0
   -1.5200   25.7380  -26.9350 N   0  0  0  0  0  0  0  0  0  0  0  0
   -0.7710   26.9860  -27.1090 C   0  0  0  0  0  0  0  0  0  0  0  0
   -1.9190   25.3000  -25.5930 C   0  0  0  0  0  0  0  0  0  0  0  0
   -6.2660   22.1100  -31.6680 C   0  0  0  0  0  0  0  0  0  0  0  0
   -6.1630   20.8000  -32.1470 C   0  0  0  0  0  0  0  0  0  0  0  0
   -6.7211   17.8330  -31.0949 H   0  0  0  0  0  0  0  0  0  0  0  0
   -7.0926   16.6983  -32.4369 H   0  0  0  0  0  0  0  0  0  0  0  0
   -5.5474   17.6143  -32.4369 H   0  0  0  0  0  0  0  0  0  0  0  0
   -7.6660   18.5090  -33.8480 H   0  0  0  0  0  0  0  0  0  0  0  0
   -9.5353   20.1653  -32.4284 H   0  0  0  0  0  0  0  0  0  0  0  0
   -9.6492   22.5345  -31.5861 H   0  0  0  0  0  0  0  0  0  0  0  0
   -8.0187   24.7485  -30.7899 H   0  0  0  0  0  0  0  0  0  0  0  0
   -3.0390   25.2810  -30.3290 H   0  0  0  0  0  0  0  0  0  0  0  0
   -3.3121   23.7339  -27.1287 H   0  0  0  0  0  0  0  0  0  0  0  0
   -1.9570   22.8326  -27.9122 H   0  0  0  0  0  0  0  0  0  0  0  0
   -0.5203   27.4037  -26.1228 H   0  0  0  0  0  0  0  0  0  0  0  0
    0.1548   26.7832  -27.6674 H   0  0  0  0  0  0  0  0  0  0  0  0
   -1.3854   27.7076  -27.6674 H   0  0  0  0  0  0  0  0  0  0  0  0
   -1.3798   25.8919  -24.8387 H   0  0  0  0  0  0  0  0  0  0  0  0
   -3.0021   25.4447  -25.4670 H   0  0  0  0  0  0  0  0  0  0  0  0
   -1.6742   24.2350  -25.4670 H   0  0  0  0  0  0  0  0  0  0  0  0
   -5.1786   20.3351  -32.3046 H   0  0  0  0  0  0  0  0  0  0  0  0
  1  2  1  0
  2  3  1  0
  3  4  2  0
  4  5  1  0
  5  6  2  0
  6  7  1  0
  7  8  2  0
  8  9  1  0
  9 10  1  0
  9 11  2  0
  8 12  1  0
 12 13  1  0
 13 14  2  0
 13 15  1  0
 15 16  2  0
 15 17  1  0
 17 18  1  0
 18 19  1  0
 19 20  2  0
 19 21  1  0
 21 22  1  0
 21 23  1  0
 12 24  1  0
 24 25  2  0
 25  3  1  0
 24  6  1  0
  1 26  1  0
  1 27  1  0
  1 28  1  0
  2 29  1  0
  4 30  1  0
  5 31  1  0
  7 32  1  0
 10 33  1  0
 18 34  1  0
 18 35  1  0
 22 36  1  0
 22 37  1  0
 22 38  1  0
 23 39  1  0
 23 40  1  0
 23 41  1  0
 25 42  1  0
M  CHG  1  10  -1
M  END
>  <UniqueID>  (83) 
83

>  <SMILES>  (83) 
CNc1ccc2cc(C([NH-])=O)n(C(=O)C(=O)OCC(=O)N(C)C)c2c1

>  <Energy>  (83) 
74.30430397546284

>  <Genealogy>  (83) 
CNc1ccc2cc(C([NH-])=O)n(C(=O)C(=O)OCC(=O)N(C)C)c2c1 (protonated)
CNc1ccc2cc(C([NH-])=O)n(C(=O)C(=O)OCC(=O)N(C)C)c2c1 (3D coordinates assigned)
CNc1ccc2cc(C([NH-])=O)n(C(=O)C(=O)OCC(=O)N(C)C)c2c1 (optimized conformer: 74.30430397546284 kcal/mol)

>  <smiles>  (83) 
CNc1ccc2cc(C(N)=O)n(C(=O)C(=O)OCC(=O)N(C)C)c2c1

>  <score_type>  (83) 
oracle

>  <origin>  (83) 
adg

>  <m_score__min__energy>  (83) 
-10.32

>  <m_primary>  (83) 
energy

$$$$
84:0
     RDKit          3D

 37 39  0  0  0  0  0  0  0  0999 V2000
   -3.9100   25.6750  -30.8440 N   0  0  0  0  0  0  0  0  0  0  0  0
   -5.1720   25.1220  -30.4750 C   0  0  0  0  0  0  0  0  0  0  0  0
   -5.9120   25.7530  -29.6760 O   0  0  0  0  0  0  0  0  0  0  0  0
   -5.5780   23.8020  -31.0010 C   0  0  0  0  0  0  0  0  0  0  0  0
   -6.8950   23.4730  -31.3160 C   0  0  0  0  0  0  0  0  0  0  0  0
   -6.8360   22.2070  -31.8520 C   0  0  0  0  0  0  0  0  0  0  0  0
   -7.8570   21.3900  -32.3300 C   0  0  0  0  0  0  0  0  0  0  0  0
   -7.5120   20.1150  -32.8060 C   0  0  0  0  0  0  0  0  0  0  0  0
   -6.1610   19.6730  -32.7910 C   0  0  0  0  0  0  0  0  0  0  0  0
   -5.8110   18.3180  -33.2850 C   0  0  0  0  0  0  0  0  0  0  0  0
   -6.7950   17.3140  -33.3810 C   0  0  0  0  0  0  0  0  0  0  0  0
   -6.4630   16.0390  -33.8490 C   0  0  0  0  0  0  0  0  0  0  0  0
   -5.1490   15.7510  -34.2260 C   0  0  0  0  0  0  0  0  0  0  0  0
   -4.1650   16.7370  -34.1360 C   0  0  0  0  0  0  0  0  0  0  0  0
   -4.4900   18.0140  -33.6700 C   0  0  0  0  0  0  0  0  0  0  0  0
   -5.1550   20.5350  -32.2960 C   0  0  0  0  0  0  0  0  0  0  0  0
   -5.5250   21.8070  -31.8450 C   0  0  0  0  0  0  0  0  0  0  0  0
   -4.7390   22.7750  -31.3230 N   0  0  0  0  0  0  0  0  0  0  0  0
   -3.3220   22.6910  -31.1050 C   0  0  0  0  0  0  0  0  0  0  0  0
   -2.5870   22.1210  -31.9570 O   0  0  0  0  0  0  0  0  0  0  0  0
   -2.7610   23.2670  -29.9590 O   0  0  0  0  0  0  0  0  0  0  0  0
   -1.3840   23.1410  -29.6130 C   0  0  0  0  0  0  0  0  0  0  0  0
   -0.8430   24.4520  -29.1390 C   0  0  0  0  0  0  0  0  0  0  0  0
    0.2960   24.5090  -28.6070 O   0  0  0  0  0  0  0  0  0  0  0  0
   -1.5830   25.6150  -29.3110 O   0  0  0  0  0  0  0  0  0  0  0  0
   -3.0220   25.2890  -30.4560 H   0  0  0  0  0  0  0  0  0  0  0  0
   -7.7912   24.0934  -31.1677 H   0  0  0  0  0  0  0  0  0  0  0  0
   -8.9021   21.7330  -32.3346 H   0  0  0  0  0  0  0  0  0  0  0  0
   -8.2968   19.4498  -33.1954 H   0  0  0  0  0  0  0  0  0  0  0  0
   -7.8314   17.5348  -33.0858 H   0  0  0  0  0  0  0  0  0  0  0  0
   -7.2377   15.2614  -33.9205 H   0  0  0  0  0  0  0  0  0  0  0  0
   -4.8898   14.7472  -34.5938 H   0  0  0  0  0  0  0  0  0  0  0  0
   -3.1308   16.5083  -34.4327 H   0  0  0  0  0  0  0  0  0  0  0  0
   -3.7097   18.7865  -33.6034 H   0  0  0  0  0  0  0  0  0  0  0  0
   -4.1038   20.2124  -32.2661 H   0  0  0  0  0  0  0  0  0  0  0  0
   -1.2785   22.3945  -28.8120 H   0  0  0  0  0  0  0  0  0  0  0  0
   -0.8204   22.8234  -30.5026 H   0  0  0  0  0  0  0  0  0  0  0  0
  1  2  1  0
  2  3  2  0
  2  4  1  0
  4  5  2  0
  5  6  1  0
  6  7  2  0
  7  8  1  0
  8  9  2  0
  9 10  1  0
 10 11  2  0
 11 12  1  0
 12 13  2  0
 13 14  1  0
 14 15  2  0
  9 16  1  0
 16 17  2  0
 17 18  1  0
 18 19  1  0
 19 20  2  0
 19 21  1  0
 21 22  1  0
 22 23  1  0
 23 24  2  0
 23 25  1  0
 18  4  1  0
 17  6  1  0
 15 10  1  0
  1 26  1  0
  5 27  1  0
  7 28  1  0
  8 29  1  0
 11 30  1  0
 12 31  1  0
 13 32  1  0
 14 33  1  0
 15 34  1  0
 16 35  1  0
 22 36  1  0
 22 37  1  0
M  CHG  2   1  -1  25  -1
M  END
>  <UniqueID>  (84) 
84

>  <SMILES>  (84) 
[NH-]C(=O)c1cc2ccc(-c3ccccc3)cc2n1C(=O)OCC(=O)[O-]

>  <Energy>  (84) 
81.49393762895482

>  <Genealogy>  (84) 
[NH-]C(=O)c1cc2ccc(-c3ccccc3)cc2n1C(=O)OCC(=O)[O-] (protonated)
[NH-]C(=O)c1cc2ccc(-c3ccccc3)cc2n1C(=O)OCC(=O)[O-] (3D coordinates assigned)
[NH-]C(=O)c1cc2ccc(-c3ccccc3)cc2n1C(=O)OCC(=O)[O-] (optimized conformer: 81.49393762895482 kcal/mol)

>  <smiles>  (84) 
NC(=O)c1cc2ccc(-c3ccccc3)cc2n1C(=O)OCC(=O)O

>  <score_type>  (84) 
oracle

>  <origin>  (84) 
adg

>  <m_score__min__energy>  (84) 
-13.460000000000001

>  <m_primary>  (84) 
energy

$$$$
85:0
     RDKit          3D

 46 48  0  0  0  0  0  0  0  0999 V2000
   -8.3090   18.8540  -32.6020 C   0  0  0  0  0  0  0  0  0  0  0  0
   -8.0990   20.2700  -32.1560 C   0  0  0  0  0  0  0  0  0  0  0  0
   -9.1950   21.0360  -31.6860 C   0  0  0  0  0  0  0  0  0  0  0  0
   -9.0030   22.3480  -31.2180 C   0  0  0  0  0  0  0  0  0  0  0  0
   -7.7090   22.8610  -31.2290 C   0  0  0  0  0  0  0  0  0  0  0  0
   -7.2350   24.0820  -30.8030 C   0  0  0  0  0  0  0  0  0  0  0  0
   -5.8600   24.0430  -31.0250 C   0  0  0  0  0  0  0  0  0  0  0  0
   -4.9560   25.1820  -30.7640 C   0  0  0  0  0  0  0  0  0  0  0  0
   -3.5820   24.9440  -30.4670 N   0  0  0  0  0  0  0  0  0  0  0  0
   -5.3880   26.3650  -30.7750 O   0  0  0  0  0  0  0  0  0  0  0  0
   -5.4990   22.8450  -31.5660 N   0  0  0  0  0  0  0  0  0  0  0  0
   -4.1750   22.3900  -31.8910 C   0  0  0  0  0  0  0  0  0  0  0  0
   -3.2660   22.4500  -31.0210 O   0  0  0  0  0  0  0  0  0  0  0  0
   -3.9010   21.8700  -33.2010 N   0  0  0  0  0  0  0  0  0  0  0  0
   -2.6500   21.2800  -33.5780 C   0  0  0  0  0  0  0  0  0  0  0  0
   -2.5180   20.0980  -34.2150 N   0  0  0  0  0  0  0  0  0  0  0  0
   -1.2130   19.9480  -34.3720 N   0  0  0  0  0  0  0  0  0  0  0  0
   -0.5940   20.9960  -33.8530 N   0  0  0  0  0  0  0  0  0  0  0  0
    0.8220   21.1780  -33.8430 C   0  0  0  0  0  0  0  0  0  0  0  0
    1.3350   22.0970  -34.5360 O   0  0  0  0  0  0  0  0  0  0  0  0
    1.6170   20.3290  -33.0600 O   0  0  0  0  0  0  0  0  0  0  0  0
    1.1880   19.5820  -31.9110 C   0  0  0  0  0  0  0  0  0  0  0  0
    0.2140   20.4140  -31.0550 C   0  0  0  0  0  0  0  0  0  0  0  0
    0.4540   18.3360  -32.4280 C   0  0  0  0  0  0  0  0  0  0  0  0
    2.4000   19.1330  -31.0720 C   0  0  0  0  0  0  0  0  0  0  0  0
   -1.4570   21.8590  -33.3450 N   0  0  0  0  0  0  0  0  0  0  0  0
   -6.6400   22.1330  -31.6830 C   0  0  0  0  0  0  0  0  0  0  0  0
   -6.7990   20.8170  -32.1350 C   0  0  0  0  0  0  0  0  0  0  0  0
   -8.4056   18.2026  -31.7209 H   0  0  0  0  0  0  0  0  0  0  0  0
   -9.2262   18.7921  -33.2061 H   0  0  0  0  0  0  0  0  0  0  0  0
   -7.4493   18.5285  -33.2061 H   0  0  0  0  0  0  0  0  0  0  0  0
  -10.2050   20.6002  -31.6874 H   0  0  0  0  0  0  0  0  0  0  0  0
   -9.8488   22.9501  -30.8546 H   0  0  0  0  0  0  0  0  0  0  0  0
   -7.8183   24.9120  -30.3777 H   0  0  0  0  0  0  0  0  0  0  0  0
   -2.9290   24.5860  -31.1980 H   0  0  0  0  0  0  0  0  0  0  0  0
   -4.6490   21.9310  -33.9260 H   0  0  0  0  0  0  0  0  0  0  0  0
    0.4203   20.2378  -29.9890 H   0  0  0  0  0  0  0  0  0  0  0  0
    0.3465   21.4820  -31.2824 H   0  0  0  0  0  0  0  0  0  0  0  0
   -0.8202   20.1162  -31.2824 H   0  0  0  0  0  0  0  0  0  0  0  0
    0.1016   17.7377  -31.5749 H   0  0  0  0  0  0  0  0  0  0  0  0
   -0.4065   18.6448  -33.0397 H   0  0  0  0  0  0  0  0  0  0  0  0
    1.1412   17.7331  -33.0397 H   0  0  0  0  0  0  0  0  0  0  0  0
    2.1589   19.2223  -30.0025 H   0  0  0  0  0  0  0  0  0  0  0  0
    2.6411   18.0859  -31.3073 H   0  0  0  0  0  0  0  0  0  0  0  0
    3.2652   19.7703  -31.3073 H   0  0  0  0  0  0  0  0  0  0  0  0
   -5.9325   20.2252  -32.4651 H   0  0  0  0  0  0  0  0  0  0  0  0
  1  2  1  0
  2  3  2  0
  3  4  1  0
  4  5  2  0
  5  6  1  0
  6  7  2  0
  7  8  1  0
  8  9  1  0
  8 10  2  0
  7 11  1  0
 11 12  1  0
 12 13  2  0
 12 14  1  0
 14 15  1  0
 15 16  1  0
 16 17  2  0
 17 18  1  0
 18 19  1  0
 19 20  2  0
 19 21  1  0
 21 22  1  0
 22 23  1  0
 22 24  1  0
 22 25  1  0
 18 26  1  0
 11 27  1  0
 27 28  2  0
 28  2  1  0
 27  5  1  0
 26 15  2  0
  1 29  1  0
  1 30  1  0
  1 31  1  0
  3 32  1  0
  4 33  1  0
  6 34  1  0
  9 35  1  0
 14 36  1  0
 23 37  1  0
 23 38  1  0
 23 39  1  0
 24 40  1  0
 24 41  1  0
 24 42  1  0
 25 43  1  0
 25 44  1  0
 25 45  1  0
 28 46  1  0
M  CHG  1   9  -1
M  END
>  <UniqueID>  (85) 
85

>  <SMILES>  (85) 
Cc1ccc2cc(C([NH-])=O)n(C(=O)Nc3nnn(C(=O)OC(C)(C)C)n3)c2c1

>  <Energy>  (85) 
119.5509754916189

>  <Genealogy>  (85) 
Cc1ccc2cc(C([NH-])=O)n(C(=O)Nc3nnn(C(=O)OC(C)(C)C)n3)c2c1 (protonated)
Cc1ccc2cc(C([NH-])=O)n(C(=O)Nc3nnn(C(=O)OC(C)(C)C)n3)c2c1 (3D coordinates assigned)
Cc1ccc2cc(C([NH-])=O)n(C(=O)Nc3nnn(C(=O)OC(C)(C)C)n3)c2c1 (optimized conformer: 119.5509754916189 kcal/mol)

>  <smiles>  (85) 
Cc1ccc2cc(C(N)=O)n(C(=O)Nc3nnn(C(=O)OC(C)(C)C)n3)c2c1

>  <score_type>  (85) 
oracle

>  <origin>  (85) 
adg

>  <m_score__min__energy>  (85) 
-11.449999999999999

>  <m_primary>  (85) 
energy

$$$$
86:0
     RDKit          3D

 48 49  0  0  0  0  0  0  0  0999 V2000
   -1.6230   25.3150  -27.8070 C   0  0  0  0  0  0  0  0  0  0  0  0
   -1.6430   25.1140  -29.2030 O   0  0  0  0  0  0  0  0  0  0  0  0
   -1.7040   23.7320  -29.4860 C   0  0  0  0  0  0  0  0  0  0  0  0
   -3.0620   23.3010  -29.5100 O   0  0  0  0  0  0  0  0  0  0  0  0
   -3.6280   22.6290  -30.5960 C   0  0  0  0  0  0  0  0  0  0  0  0
   -2.9140   21.8920  -31.3280 O   0  0  0  0  0  0  0  0  0  0  0  0
   -5.0220   22.8020  -30.8890 N   0  0  0  0  0  0  0  0  0  0  0  0
   -5.7690   23.9410  -30.7920 C   0  0  0  0  0  0  0  0  0  0  0  0
   -5.2620   25.2870  -30.4550 C   0  0  0  0  0  0  0  0  0  0  0  0
   -3.9450   25.6680  -30.8470 N   0  0  0  0  0  0  0  0  0  0  0  0
   -5.9630   26.0930  -29.7900 O   0  0  0  0  0  0  0  0  0  0  0  0
   -7.0900   23.6880  -31.1590 C   0  0  0  0  0  0  0  0  0  0  0  0
   -7.1280   22.3550  -31.4970 C   0  0  0  0  0  0  0  0  0  0  0  0
   -8.1880   21.5750  -31.9450 C   0  0  0  0  0  0  0  0  0  0  0  0
   -7.9410   20.2200  -32.2170 C   0  0  0  0  0  0  0  0  0  0  0  0
   -6.6480   19.6600  -32.0260 C   0  0  0  0  0  0  0  0  0  0  0  0
   -6.4030   18.2640  -32.3260 N   0  0  0  0  0  0  0  0  0  0  0  0
   -6.1130   17.3280  -31.2350 C   0  0  0  0  0  0  0  0  0  0  0  0
   -6.5150   17.7480  -33.7030 C   0  0  0  0  0  0  0  0  0  0  0  0
   -5.7220   18.6160  -34.6940 C   0  0  0  0  0  0  0  0  0  0  0  0
   -4.3000   18.2100  -34.7390 N   0  0  0  0  0  0  0  0  0  0  0  0
   -3.5100   19.0090  -33.7900 C   0  0  0  0  0  0  0  0  0  0  0  0
   -4.1480   16.7780  -34.4290 C   0  0  0  0  0  0  0  0  0  0  0  0
   -5.6010   20.4900  -31.5570 C   0  0  0  0  0  0  0  0  0  0  0  0
   -5.8700   21.8430  -31.3240 C   0  0  0  0  0  0  0  0  0  0  0  0
   -1.7194   24.3459  -27.2956 H   0  0  0  0  0  0  0  0  0  0  0  0
   -0.6733   25.7890  -27.5184 H   0  0  0  0  0  0  0  0  0  0  0  0
   -2.4607   25.9669  -27.5184 H   0  0  0  0  0  0  0  0  0  0  0  0
   -1.2430   23.5398  -30.4661 H   0  0  0  0  0  0  0  0  0  0  0  0
   -1.1622   23.1783  -28.7050 H   0  0  0  0  0  0  0  0  0  0  0  0
   -3.1060   25.2990  -30.3460 H   0  0  0  0  0  0  0  0  0  0  0  0
   -7.9255   24.4033  -31.1749 H   0  0  0  0  0  0  0  0  0  0  0  0
   -9.1904   22.0066  -32.0823 H   0  0  0  0  0  0  0  0  0  0  0  0
   -8.7593   19.5825  -32.5831 H   0  0  0  0  0  0  0  0  0  0  0  0
   -6.2688   17.8310  -30.2692 H   0  0  0  0  0  0  0  0  0  0  0  0
   -6.7842   16.4597  -31.3087 H   0  0  0  0  0  0  0  0  0  0  0  0
   -5.0684   16.9913  -31.3087 H   0  0  0  0  0  0  0  0  0  0  0  0
   -6.1224   16.7209  -33.7333 H   0  0  0  0  0  0  0  0  0  0  0  0
   -7.5752   17.7696  -33.9955 H   0  0  0  0  0  0  0  0  0  0  0  0
   -6.1589   18.5057  -35.6975 H   0  0  0  0  0  0  0  0  0  0  0  0
   -5.7758   19.6632  -34.3615 H   0  0  0  0  0  0  0  0  0  0  0  0
   -3.7835   18.7323  -32.7611 H   0  0  0  0  0  0  0  0  0  0  0  0
   -2.4391   18.8146  -33.9496 H   0  0  0  0  0  0  0  0  0  0  0  0
   -3.7165   20.0776  -33.9496 H   0  0  0  0  0  0  0  0  0  0  0  0
   -4.1332   16.6386  -33.3380 H   0  0  0  0  0  0  0  0  0  0  0  0
   -4.9918   16.2182  -34.8588 H   0  0  0  0  0  0  0  0  0  0  0  0
   -3.2055   16.4078  -34.8588 H   0  0  0  0  0  0  0  0  0  0  0  0
   -4.5962   20.0791  -31.3794 H   0  0  0  0  0  0  0  0  0  0  0  0
  1  2  1  0
  2  3  1  0
  3  4  1  0
  4  5  1  0
  5  6  2  0
  5  7  1  0
  7  8  1  0
  8  9  1  0
  9 10  1  0
  9 11  2  0
  8 12  2  0
 12 13  1  0
 13 14  2  0
 14 15  1  0
 15 16  2  0
 16 17  1  0
 17 18  1  0
 17 19  1  0
 19 20  1  0
 20 21  1  0
 21 22  1  0
 21 23  1  0
 16 24  1  0
 24 25  2  0
 25  7  1  0
 25 13  1  0
  1 26  1  0
  1 27  1  0
  1 28  1  0
  3 29  1  0
  3 30  1  0
 10 31  1  0
 12 32  1  0
 14 33  1  0
 15 34  1  0
 18 35  1  0
 18 36  1  0
 18 37  1  0
 19 38  1  0
 19 39  1  0
 20 40  1  0
 20 41  1  0
 22 42  1  0
 22 43  1  0
 22 44  1  0
 23 45  1  0
 23 46  1  0
 23 47  1  0
 24 48  1  0
M  CHG  1  10  -1
M  END
>  <UniqueID>  (86) 
86

>  <SMILES>  (86) 
COCOC(=O)n1c(C([NH-])=O)cc2ccc(N(C)CCN(C)C)cc21

>  <Energy>  (86) 
85.45511967008594

>  <Genealogy>  (86) 
COCOC(=O)n1c(C([NH-])=O)cc2ccc(N(C)CCN(C)C)cc21 (protonated)
COCOC(=O)n1c(C([NH-])=O)cc2ccc(N(C)CCN(C)C)cc21 (3D coordinates assigned)
COCOC(=O)n1c(C([NH-])=O)cc2ccc(N(C)CCN(C)C)cc21 (optimized conformer: 85.45511967008594 kcal/mol)

>  <smiles>  (86) 
COCOC(=O)n1c(C(N)=O)cc2ccc(N(C)CCN(C)C)cc21

>  <score_type>  (86) 
oracle

>  <origin>  (86) 
adg

>  <m_score__min__energy>  (86) 
-9.5500000000000007

>  <m_primary>  (86) 
energy

$$$$
87:0
     RDKit          3D

 41 43  0  0  0  0  0  0  0  0999 V2000
   -3.8780   25.4550  -30.5400 N   0  0  0  0  0  0  0  0  0  0  0  0
   -3.8250   24.0350  -30.6600 C   0  0  0  0  0  0  0  0  0  0  0  0
   -2.7200   23.4460  -30.5140 O   0  0  0  0  0  0  0  0  0  0  0  0
   -5.0390   23.2500  -30.9670 C   0  0  0  0  0  0  0  0  0  0  0  0
   -6.3350   23.7630  -30.9010 C   0  0  0  0  0  0  0  0  0  0  0  0
   -7.1630   22.7080  -31.2190 C   0  0  0  0  0  0  0  0  0  0  0  0
   -8.5480   22.6490  -31.3160 C   0  0  0  0  0  0  0  0  0  0  0  0
   -9.1330   21.4220  -31.6770 C   0  0  0  0  0  0  0  0  0  0  0  0
   -8.3270   20.2790  -31.9230 C   0  0  0  0  0  0  0  0  0  0  0  0
   -8.9560   18.9790  -32.3550 C   0  0  0  0  0  0  0  0  0  0  0  0
   -8.0180   18.2230  -33.0320 F   0  0  0  0  0  0  0  0  0  0  0  0
  -10.0350   19.2120  -33.1910 F   0  0  0  0  0  0  0  0  0  0  0  0
   -9.4050   18.2660  -31.2570 F   0  0  0  0  0  0  0  0  0  0  0  0
   -6.9200   20.3910  -31.8430 C   0  0  0  0  0  0  0  0  0  0  0  0
   -6.3710   21.6180  -31.4650 C   0  0  0  0  0  0  0  0  0  0  0  0
   -5.0710   21.9320  -31.3100 N   0  0  0  0  0  0  0  0  0  0  0  0
   -3.9590   21.0430  -31.4820 C   0  0  0  0  0  0  0  0  0  0  0  0
   -3.3620   20.6100  -30.4590 O   0  0  0  0  0  0  0  0  0  0  0  0
   -3.5190   20.6470  -32.8000 N   0  0  0  0  0  0  0  0  0  0  0  0
   -4.1260   19.4850  -33.4750 C   0  0  0  0  0  0  0  0  0  0  0  0
   -3.3580   18.1770  -33.2050 C   0  0  0  0  0  0  0  0  0  0  0  0
   -1.8550   18.2210  -33.5320 C   0  0  0  0  0  0  0  0  0  0  0  0
   -1.1230   19.2820  -32.8220 N   0  0  0  0  0  0  0  0  0  0  0  0
   -1.0820   20.6010  -33.4850 C   0  0  0  0  0  0  0  0  0  0  0  0
   -2.4050   21.3940  -33.4180 C   0  0  0  0  0  0  0  0  0  0  0  0
   -3.5260   26.0720  -31.3050 H   0  0  0  0  0  0  0  0  0  0  0  0
   -6.6327   24.7914  -30.6487 H   0  0  0  0  0  0  0  0  0  0  0  0
   -9.1682   23.5353  -31.1164 H   0  0  0  0  0  0  0  0  0  0  0  0
  -10.2265   21.3469  -31.7698 H   0  0  0  0  0  0  0  0  0  0  0  0
   -6.2729   19.5317  -32.0731 H   0  0  0  0  0  0  0  0  0  0  0  0
   -5.1589   19.3681  -33.1151 H   0  0  0  0  0  0  0  0  0  0  0  0
   -4.0935   19.6737  -34.5582 H   0  0  0  0  0  0  0  0  0  0  0  0
   -3.4673   17.9321  -32.1382 H   0  0  0  0  0  0  0  0  0  0  0  0
   -3.7946   17.4223  -33.8757 H   0  0  0  0  0  0  0  0  0  0  0  0
   -1.4122   17.2518  -33.2588 H   0  0  0  0  0  0  0  0  0  0  0  0
   -1.7675   18.4361  -34.6072 H   0  0  0  0  0  0  0  0  0  0  0  0
   -1.5460   19.4030  -31.8720 H   0  0  0  0  0  0  0  0  0  0  0  0
   -0.2964   21.2026  -33.0044 H   0  0  0  0  0  0  0  0  0  0  0  0
   -0.8865   20.4091  -34.5503 H   0  0  0  0  0  0  0  0  0  0  0  0
   -2.2320   22.3074  -32.8300 H   0  0  0  0  0  0  0  0  0  0  0  0
   -2.7013   21.6096  -34.4552 H   0  0  0  0  0  0  0  0  0  0  0  0
  1  2  1  0
  2  3  2  0
  2  4  1  0
  4  5  2  0
  5  6  1  0
  6  7  2  0
  7  8  1  0
  8  9  2  0
  9 10  1  0
 10 11  1  0
 10 12  1  0
 10 13  1  0
  9 14  1  0
 14 15  2  0
 15 16  1  0
 16 17  1  0
 17 18  2  0
 17 19  1  0
 19 20  1  0
 20 21  1  0
 21 22  1  0
 22 23  1  0
 23 24  1  0
 24 25  1  0
 16  4  1  0
 25 19  1  0
 15  6  1  0
  1 26  1  0
  5 27  1  0
  7 28  1  0
  8 29  1  0
 14 30  1  0
 20 31  1  0
 20 32  1  0
 21 33  1  0
 21 34  1  0
 22 35  1  0
 22 36  1  0
 23 37  1  0
 24 38  1  0
 24 39  1  0
 25 40  1  0
 25 41  1  0
M  CHG  1   1  -1
M  END
>  <UniqueID>  (87) 
87

>  <SMILES>  (87) 
[NH-]C(=O)c1cc2ccc(C(F)(F)F)cc2n1C(=O)N1CCCNCC1

>  <Energy>  (87) 
91.36674028971275

>  <Genealogy>  (87) 
[NH-]C(=O)c1cc2ccc(C(F)(F)F)cc2n1C(=O)N1CCCNCC1 (protonated)
[NH-]C(=O)c1cc2ccc(C(F)(F)F)cc2n1C(=O)N1CCCNCC1 (3D coordinates assigned)
[NH-]C(=O)c1cc2ccc(C(F)(F)F)cc2n1C(=O)N1CCCNCC1 (nonaromatic ring conformer: 91.36674028971275 kcal/mol)

>  <smiles>  (87) 
NC(=O)c1cc2ccc(C(F)(F)F)cc2n1C(=O)N1CCCNCC1

>  <score_type>  (87) 
oracle

>  <origin>  (87) 
adg

>  <m_score__min__energy>  (87) 
-8.6600000000000001

>  <m_primary>  (87) 
energy

$$$$
88:0
     RDKit          3D

 41 42  0  0  0  0  0  0  0  0999 V2000
   -4.1060   16.2370  -33.0700 C   0  0  0  0  0  0  0  0  0  0  0  0
   -5.2090   17.2490  -32.9780 C   0  0  0  0  0  0  0  0  0  0  0  0
   -6.5630   16.8320  -33.0320 C   0  0  0  0  0  0  0  0  0  0  0  0
   -7.6050   17.7680  -32.9160 C   0  0  0  0  0  0  0  0  0  0  0  0
   -7.2640   19.1040  -32.7310 C   0  0  0  0  0  0  0  0  0  0  0  0
   -8.0650   20.2190  -32.6050 C   0  0  0  0  0  0  0  0  0  0  0  0
   -7.1850   21.2910  -32.4480 C   0  0  0  0  0  0  0  0  0  0  0  0
   -7.5950   22.7000  -32.2440 C   0  0  0  0  0  0  0  0  0  0  0  0
   -6.7490   23.7820  -32.6450 N   0  0  0  0  0  0  0  0  0  0  0  0
   -8.7090   22.9630  -31.7180 O   0  0  0  0  0  0  0  0  0  0  0  0
   -5.8980   20.8490  -32.4660 N   0  0  0  0  0  0  0  0  0  0  0  0
   -4.7010   21.6370  -32.3880 C   0  0  0  0  0  0  0  0  0  0  0  0
   -4.2190   22.1270  -33.4450 O   0  0  0  0  0  0  0  0  0  0  0  0
   -4.0610   21.8800  -31.1200 N   0  0  0  0  0  0  0  0  0  0  0  0
   -2.9010   21.0750  -30.7220 C   0  0  0  0  0  0  0  0  0  0  0  0
   -4.6480   22.8330  -30.1680 C   0  0  0  0  0  0  0  0  0  0  0  0
   -4.3220   24.2550  -30.5450 C   0  0  0  0  0  0  0  0  0  0  0  0
   -5.0850   24.8940  -31.3170 O   0  0  0  0  0  0  0  0  0  0  0  0
   -3.1770   24.9230  -30.0010 N   0  0  0  0  0  0  0  0  0  0  0  0
   -2.2820   24.3350  -29.0140 C   0  0  0  0  0  0  0  0  0  0  0  0
   -1.1210   25.2460  -28.7980 C   0  0  0  0  0  0  0  0  0  0  0  0
   -1.2480   26.4870  -28.9660 O   0  0  0  0  0  0  0  0  0  0  0  0
    0.1210   24.7210  -28.4610 O   0  0  0  0  0  0  0  0  0  0  0  0
   -5.9600   19.5150  -32.6490 C   0  0  0  0  0  0  0  0  0  0  0  0
   -4.9020   18.6100  -32.7740 C   0  0  0  0  0  0  0  0  0  0  0  0
   -3.7895   15.9466  -32.0574 H   0  0  0  0  0  0  0  0  0  0  0  0
   -4.4670   15.3493  -33.6101 H   0  0  0  0  0  0  0  0  0  0  0  0
   -3.2526   16.6729  -33.6101 H   0  0  0  0  0  0  0  0  0  0  0  0
   -6.8001   15.7662  -33.1659 H   0  0  0  0  0  0  0  0  0  0  0  0
   -8.6578   17.4539  -32.9698 H   0  0  0  0  0  0  0  0  0  0  0  0
   -9.1642   20.2560  -32.6241 H   0  0  0  0  0  0  0  0  0  0  0  0
   -5.7930   23.6160  -33.0290 H   0  0  0  0  0  0  0  0  0  0  0  0
   -7.0670   24.7670  -32.5170 H   0  0  0  0  0  0  0  0  0  0  0  0
   -2.8422   21.0342  -29.6243 H   0  0  0  0  0  0  0  0  0  0  0  0
   -3.0075   20.0557  -31.1216 H   0  0  0  0  0  0  0  0  0  0  0  0
   -1.9834   21.5315  -31.1216 H   0  0  0  0  0  0  0  0  0  0  0  0
   -5.7406   22.7056  -30.1612 H   0  0  0  0  0  0  0  0  0  0  0  0
   -4.2265   22.6327  -29.1719 H   0  0  0  0  0  0  0  0  0  0  0  0
   -2.8214   24.1957  -28.0655 H   0  0  0  0  0  0  0  0  0  0  0  0
   -1.9235   23.3600  -29.3757 H   0  0  0  0  0  0  0  0  0  0  0  0
   -3.8577   18.9505  -32.7148 H   0  0  0  0  0  0  0  0  0  0  0  0
  1  2  1  0
  2  3  2  0
  3  4  1  0
  4  5  2  0
  5  6  1  0
  6  7  2  0
  7  8  1  0
  8  9  1  0
  8 10  2  0
  7 11  1  0
 11 12  1  0
 12 13  2  0
 12 14  1  0
 14 15  1  0
 14 16  1  0
 16 17  1  0
 17 18  2  0
 17 19  1  0
 19 20  1  0
 20 21  1  0
 21 22  2  0
 21 23  1  0
 11 24  1  0
 24 25  2  0
 25  2  1  0
 24  5  1  0
  1 26  1  0
  1 27  1  0
  1 28  1  0
  3 29  1  0
  4 30  1  0
  6 31  1  0
  9 32  1  0
  9 33  1  0
 15 34  1  0
 15 35  1  0
 15 36  1  0
 16 37  1  0
 16 38  1  0
 20 39  1  0
 20 40  1  0
 25 41  1  0
M  CHG  2  19  -1  23  -1
M  END
>  <UniqueID>  (88) 
88

>  <SMILES>  (88) 
Cc1ccc2cc(C(N)=O)n(C(=O)N(C)CC(=O)[N-]CC(=O)[O-])c2c1

>  <Energy>  (88) 
74.03826788016637

>  <Genealogy>  (88) 
Cc1ccc2cc(C(N)=O)n(C(=O)N(C)CC(=O)[N-]CC(=O)[O-])c2c1 (protonated)
Cc1ccc2cc(C(N)=O)n(C(=O)N(C)CC(=O)[N-]CC(=O)[O-])c2c1 (3D coordinates assigned)
Cc1ccc2cc(C(N)=O)n(C(=O)N(C)CC(=O)[N-]CC(=O)[O-])c2c1 (optimized conformer: 74.03826788016637 kcal/mol)

>  <smiles>  (88) 
Cc1ccc2cc(C(N)=O)n(C(=O)N(C)CC(=O)NCC(=O)O)c2c1

>  <score_type>  (88) 
oracle

>  <origin>  (88) 
adg

>  <m_score__min__energy>  (88) 
-12.140000000000001

>  <m_primary>  (88) 
energy

$$$$
89:0
     RDKit          3D

 45 46  0  0  0  0  0  0  0  0999 V2000
   -2.6490   24.9340  -26.7540 C   0  0  0  0  0  0  0  0  0  0  0  0
   -1.5740   25.5890  -27.6130 C   0  0  0  0  0  0  0  0  0  0  0  0
   -1.2650   24.7730  -28.7420 O   0  0  0  0  0  0  0  0  0  0  0  0
   -0.2140   23.8500  -28.7620 C   0  0  0  0  0  0  0  0  0  0  0  0
    0.9560   24.1970  -28.4370 O   0  0  0  0  0  0  0  0  0  0  0  0
   -0.4840   22.4340  -29.1570 C   0  0  0  0  0  0  0  0  0  0  0  0
   -1.4780   22.3040  -30.3380 C   0  0  0  0  0  0  0  0  0  0  0  0
   -2.8690   22.7930  -30.1090 N   0  0  2  0  0  0  0  0  0  0  0  0
   -3.5050   22.2920  -28.8790 C   0  0  0  0  0  0  0  0  0  0  0  0
   -3.7390   22.5760  -31.2440 C   0  0  0  0  0  0  0  0  0  0  0  0
   -3.3040   22.0200  -32.2890 O   0  0  0  0  0  0  0  0  0  0  0  0
   -5.1360   22.9050  -31.1620 N   0  0  0  0  0  0  0  0  0  0  0  0
   -5.6830   24.0990  -30.7990 C   0  0  0  0  0  0  0  0  0  0  0  0
   -4.9350   25.3390  -30.5010 C   0  0  0  0  0  0  0  0  0  0  0  0
   -3.5370   25.2780  -30.2330 N   0  0  0  0  0  0  0  0  0  0  0  0
   -5.5220   26.4530  -30.4610 O   0  0  0  0  0  0  0  0  0  0  0  0
   -7.0750   24.0150  -30.7910 C   0  0  0  0  0  0  0  0  0  0  0  0
   -7.3630   22.7200  -31.1620 C   0  0  0  0  0  0  0  0  0  0  0  0
   -8.5910   22.0850  -31.3140 C   0  0  0  0  0  0  0  0  0  0  0  0
   -8.5910   20.7310  -31.6880 C   0  0  0  0  0  0  0  0  0  0  0  0
   -7.3710   20.0300  -31.8770 C   0  0  0  0  0  0  0  0  0  0  0  0
   -7.3860   18.5890  -32.3180 C   0  0  0  0  0  0  0  0  0  0  0  0
   -8.6790   18.0940  -32.3210 F   0  0  0  0  0  0  0  0  0  0  0  0
   -6.8650   18.4990  -33.5950 F   0  0  0  0  0  0  0  0  0  0  0  0
   -6.6260   17.8060  -31.4650 F   0  0  0  0  0  0  0  0  0  0  0  0
   -6.1440   20.7180  -31.7320 C   0  0  0  0  0  0  0  0  0  0  0  0
   -6.1760   22.0710  -31.3770 C   0  0  0  0  0  0  0  0  0  0  0  0
   -2.4084   25.0806  -25.6907 H   0  0  0  0  0  0  0  0  0  0  0  0
   -3.6246   25.3913  -26.9756 H   0  0  0  0  0  0  0  0  0  0  0  0
   -2.6899   23.8573  -26.9756 H   0  0  0  0  0  0  0  0  0  0  0  0
   -1.9370   26.5668  -27.9625 H   0  0  0  0  0  0  0  0  0  0  0  0
   -0.6644   25.7143  -27.0072 H   0  0  0  0  0  0  0  0  0  0  0  0
    0.4676   21.9659  -29.4490 H   0  0  0  0  0  0  0  0  0  0  0  0
   -0.9430   21.9367  -28.2898 H   0  0  0  0  0  0  0  0  0  0  0  0
   -1.0626   22.8694  -31.1852 H   0  0  0  0  0  0  0  0  0  0  0  0
   -1.5797   21.2220  -30.5083 H   0  0  0  0  0  0  0  0  0  0  0  0
   -2.7930   23.8300  -29.9800 H   0  0  0  0  0  0  0  0  0  0  0  0
   -2.9829   22.7033  -28.0025 H   0  0  0  0  0  0  0  0  0  0  0  0
   -4.5594   22.6048  -28.8578 H   0  0  0  0  0  0  0  0  0  0  0  0
   -3.4478   21.1937  -28.8578 H   0  0  0  0  0  0  0  0  0  0  0  0
   -3.1450   25.6400  -29.3370 H   0  0  0  0  0  0  0  0  0  0  0  0
   -7.7903   24.8126  -30.5417 H   0  0  0  0  0  0  0  0  0  0  0  0
   -9.5336   22.6266  -31.1464 H   0  0  0  0  0  0  0  0  0  0  0  0
   -9.5472   20.2079  -31.8361 H   0  0  0  0  0  0  0  0  0  0  0  0
   -5.1866   20.2014  -31.8946 H   0  0  0  0  0  0  0  0  0  0  0  0
  1  2  1  0
  2  3  1  0
  3  4  1  0
  4  5  2  0
  4  6  1  0
  6  7  1  0
  7  8  1  0
  8  9  1  0
  8 10  1  0
 10 11  2  0
 10 12  1  0
 12 13  1  0
 13 14  1  0
 14 15  1  0
 14 16  2  0
 13 17  2  0
 17 18  1  0
 18 19  2  0
 19 20  1  0
 20 21  2  0
 21 22  1  0
 22 23  1  0
 22 24  1  0
 22 25  1  0
 21 26  1  0
 26 27  2  0
 27 12  1  0
 27 18  1  0
  1 28  1  0
  1 29  1  0
  1 30  1  0
  2 31  1  0
  2 32  1  0
  6 33  1  0
  6 34  1  0
  7 35  1  0
  7 36  1  0
  8 37  1  1
  9 38  1  0
  9 39  1  0
  9 40  1  0
 15 41  1  0
 17 42  1  0
 19 43  1  0
 20 44  1  0
 26 45  1  0
M  CHG  2   8   1  15  -1
M  END
>  <UniqueID>  (89) 
89

>  <SMILES>  (89) 
CCOC(=O)CC[N@H+](C)C(=O)n1c(C([NH-])=O)cc2ccc(C(F)(F)F)cc21

>  <Energy>  (89) 
86.88946406847887

>  <Genealogy>  (89) 
CCOC(=O)CC[NH+](C)C(=O)n1c(C([NH-])=O)cc2ccc(C(F)(F)F)cc21 (protonated)
CCOC(=O)CC[N@H+](C)C(=O)n1c(C([NH-])=O)cc2ccc(C(F)(F)F)cc21 (chirality)
CCOC(=O)CC[N@H+](C)C(=O)n1c(C([NH-])=O)cc2ccc(C(F)(F)F)cc21 (3D coordinates assigned)
CCOC(=O)CC[N@H+](C)C(=O)n1c(C([NH-])=O)cc2ccc(C(F)(F)F)cc21 (optimized conformer: 86.88946406847887 kcal/mol)

>  <smiles>  (89) 
CCOC(=O)CCN(C)C(=O)n1c(C(N)=O)cc2ccc(C(F)(F)F)cc21

>  <score_type>  (89) 
oracle

>  <origin>  (89) 
adg

>  <m_score__min__energy>  (89) 
-9.2699999999999996

>  <m_primary>  (89) 
energy

$$$$
90:0
     RDKit          3D

 41 43  0  0  0  0  0  0  0  0999 V2000
   -4.5300   17.4660  -35.2520 C   0  0  0  0  0  0  0  0  0  0  0  0
   -5.2740   17.5200  -34.0010 N   0  0  0  0  0  0  0  0  0  0  0  0
   -4.9080   16.9840  -32.8200 C   0  0  0  0  0  0  0  0  0  0  0  0
   -5.8570   17.3290  -31.8780 C   0  0  0  0  0  0  0  0  0  0  0  0
   -6.7870   18.0970  -32.4780 N   0  0  0  0  0  0  0  0  0  0  0  0
   -8.0040   18.6310  -31.8750 C   0  0  0  0  0  0  0  0  0  0  0  0
   -7.8830   20.1210  -31.7160 C   0  0  0  0  0  0  0  0  0  0  0  0
   -9.0290   20.9440  -31.8420 C   0  0  0  0  0  0  0  0  0  0  0  0
   -8.9350   22.3340  -31.6650 C   0  0  0  0  0  0  0  0  0  0  0  0
   -7.6890   22.8670  -31.3440 C   0  0  0  0  0  0  0  0  0  0  0  0
   -7.3120   24.1740  -31.1380 C   0  0  0  0  0  0  0  0  0  0  0  0
   -5.9490   24.1250  -30.8520 C   0  0  0  0  0  0  0  0  0  0  0  0
   -5.1530   25.3130  -30.4800 C   0  0  0  0  0  0  0  0  0  0  0  0
   -3.7300   25.2610  -30.4440 N   0  0  0  0  0  0  0  0  0  0  0  0
   -5.7400   26.3760  -30.1420 O   0  0  0  0  0  0  0  0  0  0  0  0
   -5.5000   22.8390  -30.8860 N   0  0  0  0  0  0  0  0  0  0  0  0
   -4.1470   22.3780  -30.7400 C   0  0  0  0  0  0  0  0  0  0  0  0
   -3.7400   21.9690  -29.6190 O   0  0  0  0  0  0  0  0  0  0  0  0
   -3.2950   22.3640  -31.8510 O   0  0  0  0  0  0  0  0  0  0  0  0
   -3.6620   21.8130  -33.1130 C   0  0  0  0  0  0  0  0  0  0  0  0
   -3.5070   20.3250  -33.0940 C   0  0  0  0  0  0  0  0  0  0  0  0
   -3.0160   19.7260  -34.0870 O   0  0  0  0  0  0  0  0  0  0  0  0
   -3.8780   19.6040  -31.9680 O   0  0  0  0  0  0  0  0  0  0  0  0
   -6.5770   22.0800  -31.1870 C   0  0  0  0  0  0  0  0  0  0  0  0
   -6.6380   20.6960  -31.3780 C   0  0  0  0  0  0  0  0  0  0  0  0
   -6.4150   18.1980  -33.7700 C   0  0  0  0  0  0  0  0  0  0  0  0
   -3.4543   17.3879  -35.0358 H   0  0  0  0  0  0  0  0  0  0  0  0
   -4.8519   16.5889  -35.8325 H   0  0  0  0  0  0  0  0  0  0  0  0
   -4.7219   18.3804  -35.8325 H   0  0  0  0  0  0  0  0  0  0  0  0
   -4.0090   16.3768  -32.6379 H   0  0  0  0  0  0  0  0  0  0  0  0
   -5.8540   17.0284  -30.8199 H   0  0  0  0  0  0  0  0  0  0  0  0
   -8.8632   18.4016  -32.5224 H   0  0  0  0  0  0  0  0  0  0  0  0
   -8.1511   18.1713  -30.8865 H   0  0  0  0  0  0  0  0  0  0  0  0
  -10.0020   20.4899  -32.0808 H   0  0  0  0  0  0  0  0  0  0  0  0
   -9.8175   22.9812  -31.7764 H   0  0  0  0  0  0  0  0  0  0  0  0
   -7.9509   25.0680  -31.1884 H   0  0  0  0  0  0  0  0  0  0  0  0
   -3.1570   25.6740  -31.2120 H   0  0  0  0  0  0  0  0  0  0  0  0
   -4.7106   22.0660  -33.3284 H   0  0  0  0  0  0  0  0  0  0  0  0
   -3.0063   22.2314  -33.8908 H   0  0  0  0  0  0  0  0  0  0  0  0
   -5.7394   20.0712  -31.2678 H   0  0  0  0  0  0  0  0  0  0  0  0
   -6.9703   18.7603  -34.5352 H   0  0  0  0  0  0  0  0  0  0  0  0
  1  2  1  0
  2  3  1  0
  3  4  2  0
  4  5  1  0
  5  6  1  0
  6  7  1  0
  7  8  2  0
  8  9  1  0
  9 10  2  0
 10 11  1  0
 11 12  2  0
 12 13  1  0
 13 14  1  0
 13 15  2  0
 12 16  1  0
 16 17  1  0
 17 18  2  0
 17 19  1  0
 19 20  1  0
 20 21  1  0
 21 22  2  0
 21 23  1  0
 16 24  1  0
 24 25  2  0
  5 26  2  0
 26  2  1  0
 25  7  1  0
 24 10  1  0
  1 27  1  0
  1 28  1  0
  1 29  1  0
  3 30  1  0
  4 31  1  0
  6 32  1  0
  6 33  1  0
  8 34  1  0
  9 35  1  0
 11 36  1  0
 14 37  1  0
 20 38  1  0
 20 39  1  0
 25 40  1  0
 26 41  1  0
M  CHG  3   5   1  14  -1  23  -1
M  END
>  <UniqueID>  (90) 
90

>  <SMILES>  (90) 
Cn1cc[n+](Cc2ccc3cc(C([NH-])=O)n(C(=O)OCC(=O)[O-])c3c2)c1

>  <Energy>  (90) 
107.9801035394289

>  <Genealogy>  (90) 
Cn1cc[n+](Cc2ccc3cc(C([NH-])=O)n(C(=O)OCC(=O)[O-])c3c2)c1 (protonated)
Cn1cc[n+](Cc2ccc3cc(C([NH-])=O)n(C(=O)OCC(=O)[O-])c3c2)c1 (3D coordinates assigned)
Cn1cc[n+](Cc2ccc3cc(C([NH-])=O)n(C(=O)OCC(=O)[O-])c3c2)c1 (optimized conformer: 107.9801035394289 kcal/mol)

>  <smiles>  (90) 
Cn1cc[n+](Cc2ccc3cc(C(N)=O)n(C(=O)OCC(=O)O)c3c2)c1

>  <score_type>  (90) 
oracle

>  <origin>  (90) 
adg

>  <m_score__min__energy>  (90) 
-12.039999999999999

>  <m_primary>  (90) 
energy

$$$$
91:0
     RDKit          3D

 40 42  0  0  0  0  0  0  0  0999 V2000
   -0.7780   21.2300  -32.9230 C   0  0  0  0  0  0  0  0  0  0  0  0
   -2.2610   20.9450  -32.6170 C   0  0  0  0  0  0  0  0  0  0  0  0
   -2.8440   20.0780  -33.7420 C   0  0  0  0  0  0  0  0  0  0  0  0
   -2.4070   20.1920  -31.2810 C   0  0  0  0  0  0  0  0  0  0  0  0
   -3.0150   22.1660  -32.5920 O   0  0  0  0  0  0  0  0  0  0  0  0
   -3.6040   22.7570  -31.4640 C   0  0  0  0  0  0  0  0  0  0  0  0
   -2.9020   23.1330  -30.4880 O   0  0  0  0  0  0  0  0  0  0  0  0
   -5.0310   22.9070  -31.4140 N   0  0  0  0  0  0  0  0  0  0  0  0
   -5.7480   23.9530  -30.9120 C   0  0  0  0  0  0  0  0  0  0  0  0
   -5.1960   25.2410  -30.4450 C   0  0  0  0  0  0  0  0  0  0  0  0
   -3.8920   25.6660  -30.8340 N   0  0  0  0  0  0  0  0  0  0  0  0
   -5.9030   26.0010  -29.7310 O   0  0  0  0  0  0  0  0  0  0  0  0
   -7.1130   23.6800  -30.9700 C   0  0  0  0  0  0  0  0  0  0  0  0
   -7.2120   22.4300  -31.5380 C   0  0  0  0  0  0  0  0  0  0  0  0
   -8.3350   21.6630  -31.8260 C   0  0  0  0  0  0  0  0  0  0  0  0
   -8.1400   20.3910  -32.3890 C   0  0  0  0  0  0  0  0  0  0  0  0
   -6.8310   19.9040  -32.6480 C   0  0  0  0  0  0  0  0  0  0  0  0
   -6.6250   18.5590  -33.2320 C   0  0  0  0  0  0  0  0  0  0  0  0
   -7.2020   17.4370  -32.7430 N   0  0  0  0  0  0  0  0  0  0  0  0
   -6.8560   16.3280  -33.4500 C   0  0  0  0  0  0  0  0  0  0  0  0
   -5.9940   16.5510  -34.5150 C   0  0  0  0  0  0  0  0  0  0  0  0
   -5.6590   18.1970  -34.5650 S   0  0  0  0  0  0  0  0  0  0  0  0
   -5.7150   20.7160  -32.3390 C   0  0  0  0  0  0  0  0  0  0  0  0
   -5.9410   21.9860  -31.7960 C   0  0  0  0  0  0  0  0  0  0  0  0
   -0.2228   21.3367  -31.9794 H   0  0  0  0  0  0  0  0  0  0  0  0
   -0.3567   20.3964  -33.5040 H   0  0  0  0  0  0  0  0  0  0  0  0
   -0.6957   22.1604  -33.5040 H   0  0  0  0  0  0  0  0  0  0  0  0
   -3.4073   19.2403  -33.3049 H   0  0  0  0  0  0  0  0  0  0  0  0
   -3.5165   20.6874  -34.3635 H   0  0  0  0  0  0  0  0  0  0  0  0
   -2.0259   19.6851  -34.3635 H   0  0  0  0  0  0  0  0  0  0  0  0
   -2.2706   20.8957  -30.4467 H   0  0  0  0  0  0  0  0  0  0  0  0
   -3.4091   19.7423  -31.2212 H   0  0  0  0  0  0  0  0  0  0  0  0
   -1.6456   19.4003  -31.2212 H   0  0  0  0  0  0  0  0  0  0  0  0
   -3.0400   25.2850  -30.3660 H   0  0  0  0  0  0  0  0  0  0  0  0
   -7.9369   24.3263  -30.6333 H   0  0  0  0  0  0  0  0  0  0  0  0
   -9.3470   22.0412  -31.6190 H   0  0  0  0  0  0  0  0  0  0  0  0
   -9.0110   19.7648  -32.6321 H   0  0  0  0  0  0  0  0  0  0  0  0
   -7.2323   15.3260  -33.1961 H   0  0  0  0  0  0  0  0  0  0  0  0
   -5.6009   15.7876  -35.2025 H   0  0  0  0  0  0  0  0  0  0  0  0
   -4.6913   20.3571  -32.5215 H   0  0  0  0  0  0  0  0  0  0  0  0
  1  2  1  0
  2  3  1  0
  2  4  1  0
  2  5  1  0
  5  6  1  0
  6  7  2  0
  6  8  1  0
  8  9  1  0
  9 10  1  0
 10 11  1  0
 10 12  2  0
  9 13  2  0
 13 14  1  0
 14 15  2  0
 15 16  1  0
 16 17  2  0
 17 18  1  0
 18 19  2  0
 19 20  1  0
 20 21  2  0
 21 22  1  0
 17 23  1  0
 23 24  2  0
 24  8  1  0
 24 14  1  0
 22 18  1  0
  1 25  1  0
  1 26  1  0
  1 27  1  0
  3 28  1  0
  3 29  1  0
  3 30  1  0
  4 31  1  0
  4 32  1  0
  4 33  1  0
 11 34  1  0
 13 35  1  0
 15 36  1  0
 16 37  1  0
 20 38  1  0
 21 39  1  0
 23 40  1  0
M  CHG  1  11  -1
M  END
>  <UniqueID>  (91) 
91

>  <SMILES>  (91) 
CC(C)(C)OC(=O)n1c(C([NH-])=O)cc2ccc(-c3nccs3)cc21

>  <Energy>  (91) 
106.93712676328128

>  <Genealogy>  (91) 
CC(C)(C)OC(=O)n1c(C([NH-])=O)cc2ccc(-c3nccs3)cc21 (protonated)
CC(C)(C)OC(=O)n1c(C([NH-])=O)cc2ccc(-c3nccs3)cc21 (3D coordinates assigned)
CC(C)(C)OC(=O)n1c(C([NH-])=O)cc2ccc(-c3nccs3)cc21 (optimized conformer: 106.93712676328128 kcal/mol)

>  <smiles>  (91) 
CC(C)(C)OC(=O)n1c(C(N)=O)cc2ccc(-c3nccs3)cc21

>  <score_type>  (91) 
oracle

>  <origin>  (91) 
adg

>  <m_score__min__energy>  (91) 
-10.84

>  <m_primary>  (91) 
energy

$$$$
92:0
     RDKit          3D

 41 42  0  0  0  0  0  0  0  0999 V2000
   -4.2420   24.9560  -26.3900 C   0  0  0  0  0  0  0  0  0  0  0  0
   -2.4500   25.1020  -26.6940 S   0  0  0  0  0  0  0  0  0  0  0  0
   -2.2250   23.4180  -27.3790 C   0  0  2  0  0  0  0  0  0  0  0  0
   -1.1180   22.6780  -26.6270 C   0  0  0  0  0  0  0  0  0  0  0  0
   -1.8860   23.5220  -28.8350 C   0  0  0  0  0  0  0  0  0  0  0  0
   -1.4910   24.6200  -29.3180 O   0  0  0  0  0  0  0  0  0  0  0  0
   -2.0110   22.3940  -29.6500 O   0  0  0  0  0  0  0  0  0  0  0  0
   -3.0260   21.4140  -29.4560 C   0  0  0  0  0  0  0  0  0  0  0  0
   -3.6760   21.1460  -30.6940 O   0  0  0  0  0  0  0  0  0  0  0  0
   -4.1900   22.1540  -31.5160 C   0  0  0  0  0  0  0  0  0  0  0  0
   -3.4690   22.6690  -32.4140 O   0  0  0  0  0  0  0  0  0  0  0  0
   -5.5440   22.6020  -31.3390 N   0  0  0  0  0  0  0  0  0  0  0  0
   -5.9680   23.8570  -31.0220 C   0  0  0  0  0  0  0  0  0  0  0  0
   -5.1040   24.9900  -30.6370 C   0  0  0  0  0  0  0  0  0  0  0  0
   -3.6850   24.8460  -30.5560 N   0  0  0  0  0  0  0  0  0  0  0  0
   -5.6300   26.0910  -30.3210 O   0  0  0  0  0  0  0  0  0  0  0  0
   -7.3570   23.9330  -31.0640 C   0  0  0  0  0  0  0  0  0  0  0  0
   -7.7790   22.6690  -31.4050 C   0  0  0  0  0  0  0  0  0  0  0  0
   -9.0680   22.1790  -31.6030 C   0  0  0  0  0  0  0  0  0  0  0  0
   -9.2100   20.8370  -31.9910 C   0  0  0  0  0  0  0  0  0  0  0  0
   -8.0700   20.0200  -32.1850 C   0  0  0  0  0  0  0  0  0  0  0  0
   -8.2290   18.6590  -32.5970 N   0  0  0  0  0  0  0  0  0  0  0  0
   -6.7790   20.5480  -31.9780 C   0  0  0  0  0  0  0  0  0  0  0  0
   -6.6660   21.8830  -31.5690 C   0  0  0  0  0  0  0  0  0  0  0  0
   -4.4300   24.9407  -25.3063 H   0  0  0  0  0  0  0  0  0  0  0  0
   -4.7614   25.8148  -26.8402 H   0  0  0  0  0  0  0  0  0  0  0  0
   -4.6156   24.0244  -26.8402 H   0  0  0  0  0  0  0  0  0  0  0  0
   -3.1584   22.8484  -27.2595 H   0  0  0  0  0  0  0  0  0  0  0  0
   -1.2766   22.7840  -25.5437 H   0  0  0  0  0  0  0  0  0  0  0  0
   -1.1397   21.6122  -26.8982 H   0  0  0  0  0  0  0  0  0  0  0  0
   -0.1414   23.1055  -26.8982 H   0  0  0  0  0  0  0  0  0  0  0  0
   -2.5721   20.4880  -29.0732 H   0  0  0  0  0  0  0  0  0  0  0  0
   -3.7628   21.7907  -28.7313 H   0  0  0  0  0  0  0  0  0  0  0  0
   -3.2340   23.9090  -30.6400 H   0  0  0  0  0  0  0  0  0  0  0  0
   -3.0870   25.6700  -30.3260 H   0  0  0  0  0  0  0  0  0  0  0  0
   -7.9835   24.8153  -30.8667 H   0  0  0  0  0  0  0  0  0  0  0  0
   -9.9477   22.8237  -31.4598 H   0  0  0  0  0  0  0  0  0  0  0  0
  -10.2149   20.4171  -32.1455 H   0  0  0  0  0  0  0  0  0  0  0  0
   -7.8270   17.8790  -32.0300 H   0  0  0  0  0  0  0  0  0  0  0  0
   -8.7470   18.4230  -33.4720 H   0  0  0  0  0  0  0  0  0  0  0  0
   -5.8840   19.9278  -32.1336 H   0  0  0  0  0  0  0  0  0  0  0  0
  1  2  1  0
  2  3  1  0
  3  4  1  0
  3  5  1  0
  5  6  2  0
  5  7  1  0
  7  8  1  0
  8  9  1  0
  9 10  1  0
 10 11  2  0
 10 12  1  0
 12 13  1  0
 13 14  1  0
 14 15  1  0
 14 16  2  0
 13 17  2  0
 17 18  1  0
 18 19  2  0
 19 20  1  0
 20 21  2  0
 21 22  1  0
 21 23  1  0
 23 24  2  0
 24 12  1  0
 24 18  1  0
  1 25  1  0
  1 26  1  0
  1 27  1  0
  3 28  1  6
  4 29  1  0
  4 30  1  0
  4 31  1  0
  8 32  1  0
  8 33  1  0
 15 34  1  0
 15 35  1  0
 17 36  1  0
 19 37  1  0
 20 38  1  0
 22 39  1  0
 22 40  1  0
 23 41  1  0
M  END
>  <UniqueID>  (92) 
92

>  <SMILES>  (92) 
CS[C@H](C)C(=O)OCOC(=O)n1c(C(N)=O)cc2ccc(N)cc21

>  <Energy>  (92) 
70.18340146214727

>  <Genealogy>  (92) 
CS[C@H](C)C(=O)OCOC(=O)n1c(C(N)=O)cc2ccc(N)cc21 (chirality)
CS[C@H](C)C(=O)OCOC(=O)n1c(C(N)=O)cc2ccc(N)cc21 (3D coordinates assigned)
CS[C@H](C)C(=O)OCOC(=O)n1c(C(N)=O)cc2ccc(N)cc21 (optimized conformer: 70.18340146214727 kcal/mol)

>  <smiles>  (92) 
CSC(C)C(=O)OCOC(=O)n1c(C(N)=O)cc2ccc(N)cc21

>  <score_type>  (92) 
oracle

>  <origin>  (92) 
adg

>  <m_score__min__energy>  (92) 
-7.7699999999999996

>  <m_primary>  (92) 
energy

$$$$
93:0
     RDKit          3D

 41 42  0  0  0  0  0  0  0  0999 V2000
   -1.6140   25.1590  -25.7750 C   0  0  0  0  0  0  0  0  0  0  0  0
   -2.0410   25.1470  -27.2400 C   0  0  2  0  0  0  0  0  0  0  0  0
   -2.2660   23.8050  -27.6310 O   0  0  0  0  0  0  0  0  0  0  0  0
   -2.7110   23.7420  -29.2790 P   0  0  2  0  0  0  0  0  0  0  0  0
   -1.5410   23.2540  -30.1050 O   0  0  0  0  0  0  0  0  0  0  0  0
   -3.1190   25.3000  -29.8000 O   0  0  0  0  0  0  0  0  0  0  0  0
   -4.0310   22.6810  -29.5000 O   0  0  0  0  0  0  0  0  0  0  0  0
   -3.7260   21.8120  -30.5650 C   0  0  0  0  0  0  0  0  0  0  0  0
   -4.5870   22.1560  -31.7410 C   0  0  0  0  0  0  0  0  0  0  0  0
   -4.0520   22.6210  -32.7840 O   0  0  0  0  0  0  0  0  0  0  0  0
   -6.0160   22.0030  -31.6780 N   0  0  0  0  0  0  0  0  0  0  0  0
   -6.9430   22.9340  -31.3140 C   0  0  0  0  0  0  0  0  0  0  0  0
   -6.6400   24.2630  -30.7420 C   0  0  0  0  0  0  0  0  0  0  0  0
   -5.3030   24.7640  -30.7260 N   0  0  0  0  0  0  0  0  0  0  0  0
   -7.5690   24.9800  -30.2870 O   0  0  0  0  0  0  0  0  0  0  0  0
   -8.2300   22.4190  -31.4570 C   0  0  0  0  0  0  0  0  0  0  0  0
   -8.0610   21.1330  -31.9150 C   0  0  0  0  0  0  0  0  0  0  0  0
   -9.0050   20.1570  -32.2160 C   0  0  0  0  0  0  0  0  0  0  0  0
   -8.5430   18.9180  -32.6880 C   0  0  0  0  0  0  0  0  0  0  0  0
   -7.1550   18.6820  -32.8750 C   0  0  0  0  0  0  0  0  0  0  0  0
   -6.6560   17.3510  -33.3760 C   0  0  0  0  0  0  0  0  0  0  0  0
   -6.4040   17.4340  -34.7310 F   0  0  0  0  0  0  0  0  0  0  0  0
   -5.4940   16.9790  -32.7270 F   0  0  0  0  0  0  0  0  0  0  0  0
   -7.6050   16.3740  -33.1570 F   0  0  0  0  0  0  0  0  0  0  0  0
   -6.2280   19.6880  -32.5260 C   0  0  0  0  0  0  0  0  0  0  0  0
   -6.7160   20.9070  -32.0420 C   0  0  0  0  0  0  0  0  0  0  0  0
   -0.9460   25.7420  -28.0780 C   0  0  0  0  0  0  0  0  0  0  0  0
    0.2280   25.2920  -28.0000 O   0  0  0  0  0  0  0  0  0  0  0  0
   -1.2300   26.7600  -28.9780 O   0  0  0  0  0  0  0  0  0  0  0  0
   -2.5066   25.1339  -25.1327 H   0  0  0  0  0  0  0  0  0  0  0  0
   -0.9885   24.2781  -25.5681 H   0  0  0  0  0  0  0  0  0  0  0  0
   -1.0390   26.0737  -25.5681 H   0  0  0  0  0  0  0  0  0  0  0  0
   -2.9605   25.7352  -27.3761 H   0  0  0  0  0  0  0  0  0  0  0  0
   -2.6666   21.9233  -30.8392 H   0  0  0  0  0  0  0  0  0  0  0  0
   -3.9142   20.7721  -30.2599 H   0  0  0  0  0  0  0  0  0  0  0  0
   -5.1040   25.7160  -30.3440 H   0  0  0  0  0  0  0  0  0  0  0  0
   -4.5000   24.1840  -31.0550 H   0  0  0  0  0  0  0  0  0  0  0  0
   -9.1801   22.9323  -31.2478 H   0  0  0  0  0  0  0  0  0  0  0  0
  -10.0804   20.3498  -32.0882 H   0  0  0  0  0  0  0  0  0  0  0  0
   -9.2651   18.1201  -32.9158 H   0  0  0  0  0  0  0  0  0  0  0  0
   -5.1465   19.5175  -32.6321 H   0  0  0  0  0  0  0  0  0  0  0  0
  1  2  1  0
  2  3  1  0
  3  4  1  0
  4  5  2  0
  4  6  1  6
  4  7  1  0
  7  8  1  0
  8  9  1  0
  9 10  2  0
  9 11  1  0
 11 12  1  0
 12 13  1  0
 13 14  1  0
 13 15  2  0
 12 16  2  0
 16 17  1  0
 17 18  2  0
 18 19  1  0
 19 20  2  0
 20 21  1  0
 21 22  1  0
 21 23  1  0
 21 24  1  0
 20 25  1  0
 25 26  2  0
  2 27  1  0
 27 28  2  0
 27 29  1  0
 26 11  1  0
 26 17  1  0
  1 30  1  0
  1 31  1  0
  1 32  1  0
  2 33  1  1
  8 34  1  0
  8 35  1  0
 14 36  1  0
 14 37  1  0
 16 38  1  0
 18 39  1  0
 19 40  1  0
 25 41  1  0
M  CHG  2   6  -1  29  -1
M  END
>  <UniqueID>  (93) 
93

>  <SMILES>  (93) 
C[C@H](O[P@](=O)([O-])OCC(=O)n1c(C(N)=O)cc2ccc(C(F)(F)F)cc21)C(=O)[O-]

>  <Energy>  (93) 
77.02738029705787

>  <Genealogy>  (93) 
CC(OP(=O)([O-])OCC(=O)n1c(C(N)=O)cc2ccc(C(F)(F)F)cc21)C(=O)[O-] (protonated)
C[C@H](O[P@](=O)([O-])OCC(=O)n1c(C(N)=O)cc2ccc(C(F)(F)F)cc21)C(=O)[O-] (chirality)
C[C@H](O[P@](=O)([O-])OCC(=O)n1c(C(N)=O)cc2ccc(C(F)(F)F)cc21)C(=O)[O-] (3D coordinates assigned)
C[C@H](O[P@](=O)([O-])OCC(=O)n1c(C(N)=O)cc2ccc(C(F)(F)F)cc21)C(=O)[O-] (optimized conformer: 77.02738029705787 kcal/mol)

>  <smiles>  (93) 
CC(OP(=O)(O)OCC(=O)n1c(C(N)=O)cc2ccc(C(F)(F)F)cc21)C(=O)O

>  <score_type>  (93) 
oracle

>  <origin>  (93) 
adg

>  <m_score__min__energy>  (93) 
-11.84

>  <m_primary>  (93) 
energy

$$$$
94:0
     RDKit          3D

 48 50  0  0  0  0  0  0  0  0999 V2000
   -2.9210   24.8970  -28.5280 N   0  0  0  0  0  0  0  0  0  0  0  0
   -1.9590   23.9460  -28.9850 C   0  0  0  0  0  0  0  0  0  0  0  0
   -0.7980   23.9690  -28.4960 O   0  0  0  0  0  0  0  0  0  0  0  0
   -2.3050   22.9590  -30.0340 C   0  0  0  0  0  0  0  0  0  0  0  0
   -1.3770   22.3540  -30.8800 C   0  0  0  0  0  0  0  0  0  0  0  0
   -2.1010   21.4660  -31.6420 C   0  0  0  0  0  0  0  0  0  0  0  0
   -1.6810   20.5960  -32.6460 C   0  0  0  0  0  0  0  0  0  0  0  0
   -2.6540   19.8010  -33.2770 C   0  0  0  0  0  0  0  0  0  0  0  0
   -4.0190   19.9040  -32.9100 C   0  0  0  0  0  0  0  0  0  0  0  0
   -5.0490   19.0290  -33.5710 C   0  0  0  0  0  0  0  0  0  0  0  0
   -6.4120   19.7310  -33.6030 C   0  0  0  0  0  0  0  0  0  0  0  0
   -7.0800   19.6200  -32.2860 N   0  0  0  0  0  0  0  0  0  0  0  0
   -8.1630   18.6260  -32.3180 C   0  0  0  0  0  0  0  0  0  0  0  0
   -9.4380   19.3500  -32.7120 C   0  0  0  0  0  0  0  0  0  0  0  0
   -9.2070   20.7950  -32.3150 C   0  0  0  0  0  0  0  0  0  0  0  0
   -7.7410   20.8800  -31.9060 C   0  0  0  0  0  0  0  0  0  0  0  0
   -4.4040   20.7910  -31.8810 C   0  0  0  0  0  0  0  0  0  0  0  0
   -3.4120   21.5510  -31.2530 C   0  0  0  0  0  0  0  0  0  0  0  0
   -3.5530   22.4570  -30.2610 N   0  0  0  0  0  0  0  0  0  0  0  0
   -4.7770   22.8500  -29.6170 C   0  0  0  0  0  0  0  0  0  0  0  0
   -4.8180   22.9350  -28.3600 O   0  0  0  0  0  0  0  0  0  0  0  0
   -6.0300   23.0670  -30.4180 C   0  0  0  0  0  0  0  0  0  0  0  0
   -5.9440   24.3460  -31.2580 C   0  0  0  0  0  0  0  0  0  0  0  0
   -5.1830   25.4030  -30.5230 C   0  0  0  0  0  0  0  0  0  0  0  0
   -5.7480   26.0840  -29.6270 O   0  0  0  0  0  0  0  0  0  0  0  0
   -3.8640   25.6730  -30.8640 O   0  0  0  0  0  0  0  0  0  0  0  0
   -3.9120   24.8730  -28.8570 H   0  0  0  0  0  0  0  0  0  0  0  0
   -2.6530   25.6120  -27.8160 H   0  0  0  0  0  0  0  0  0  0  0  0
   -0.2949   22.5458  -30.9283 H   0  0  0  0  0  0  0  0  0  0  0  0
   -0.6217   20.5331  -32.9358 H   0  0  0  0  0  0  0  0  0  0  0  0
   -2.3530   19.0925  -34.0628 H   0  0  0  0  0  0  0  0  0  0  0  0
   -4.7305   18.8103  -34.6009 H   0  0  0  0  0  0  0  0  0  0  0  0
   -5.1437   18.0959  -32.9962 H   0  0  0  0  0  0  0  0  0  0  0  0
   -6.2669   20.7936  -33.8476 H   0  0  0  0  0  0  0  0  0  0  0  0
   -7.0432   19.2509  -34.3652 H   0  0  0  0  0  0  0  0  0  0  0  0
   -7.9325   17.8435  -33.0560 H   0  0  0  0  0  0  0  0  0  0  0  0
   -8.2782   18.1478  -31.3341 H   0  0  0  0  0  0  0  0  0  0  0  0
   -9.6094   19.2694  -33.7956 H   0  0  0  0  0  0  0  0  0  0  0  0
  -10.3246   18.9230  -32.2204 H   0  0  0  0  0  0  0  0  0  0  0  0
   -9.4075   21.4633  -33.1654 H   0  0  0  0  0  0  0  0  0  0  0  0
   -9.8755   21.1038  -31.4978 H   0  0  0  0  0  0  0  0  0  0  0  0
   -7.2592   21.7231  -32.4227 H   0  0  0  0  0  0  0  0  0  0  0  0
   -7.6594   21.0379  -30.8204 H   0  0  0  0  0  0  0  0  0  0  0  0
   -5.4583   20.8820  -31.5807 H   0  0  0  0  0  0  0  0  0  0  0  0
   -6.1789   22.2080  -31.0887 H   0  0  0  0  0  0  0  0  0  0  0  0
   -6.8735   23.1685  -29.7193 H   0  0  0  0  0  0  0  0  0  0  0  0
   -5.4316   24.1234  -32.2056 H   0  0  0  0  0  0  0  0  0  0  0  0
   -6.9623   24.7120  -31.4555 H   0  0  0  0  0  0  0  0  0  0  0  0
  1  2  1  0
  2  3  2  0
  2  4  1  0
  4  5  2  0
  5  6  1  0
  6  7  2  0
  7  8  1  0
  8  9  2  0
  9 10  1  0
 10 11  1  0
 11 12  1  0
 12 13  1  0
 13 14  1  0
 14 15  1  0
 15 16  1  0
  9 17  1  0
 17 18  2  0
 18 19  1  0
 19 20  1  0
 20 21  2  0
 20 22  1  0
 22 23  1  0
 23 24  1  0
 24 25  2  0
 24 26  1  0
 19  4  1  0
 18  6  1  0
 16 12  1  0
  1 27  1  0
  1 28  1  0
  5 29  1  0
  7 30  1  0
  8 31  1  0
 10 32  1  0
 10 33  1  0
 11 34  1  0
 11 35  1  0
 13 36  1  0
 13 37  1  0
 14 38  1  0
 14 39  1  0
 15 40  1  0
 15 41  1  0
 16 42  1  0
 16 43  1  0
 17 44  1  0
 22 45  1  0
 22 46  1  0
 23 47  1  0
 23 48  1  0
M  CHG  1  26  -1
M  END
>  <UniqueID>  (94) 
94

>  <SMILES>  (94) 
NC(=O)c1cc2ccc(CCN3CCCC3)cc2n1C(=O)CCC(=O)[O-]

>  <Energy>  (94) 
85.27489538371633

>  <Genealogy>  (94) 
NC(=O)c1cc2ccc(CCN3CCCC3)cc2n1C(=O)CCC(=O)[O-] (protonated)
NC(=O)c1cc2ccc(CCN3CCCC3)cc2n1C(=O)CCC(=O)[O-] (3D coordinates assigned)
NC(=O)c1cc2ccc(CCN3CCCC3)cc2n1C(=O)CCC(=O)[O-] (nonaromatic ring conformer: 85.27489538371633 kcal/mol)

>  <smiles>  (94) 
NC(=O)c1cc2ccc(CCN3CCCC3)cc2n1C(=O)CCC(=O)O

>  <score_type>  (94) 
oracle

>  <origin>  (94) 
adg

>  <m_score__min__energy>  (94) 
-12

>  <m_primary>  (94) 
energy

$$$$
95:0
     RDKit          3D

 40 42  0  0  0  0  0  0  0  0999 V2000
   -1.6180   25.7290  -28.8900 N   0  0  0  0  0  0  0  0  0  0  0  0
   -1.0780   24.4160  -29.0220 C   0  0  0  0  0  0  0  0  0  0  0  0
    0.0630   24.1690  -28.5490 O   0  0  0  0  0  0  0  0  0  0  0  0
   -1.8100   23.3640  -29.7600 C   0  0  0  0  0  0  0  0  0  0  0  0
   -1.2590   22.6560  -30.8270 C   0  0  0  0  0  0  0  0  0  0  0  0
   -2.2750   21.8560  -31.2960 C   0  0  0  0  0  0  0  0  0  0  0  0
   -2.2800   20.9410  -32.3460 C   0  0  0  0  0  0  0  0  0  0  0  0
   -3.4660   20.2320  -32.5950 C   0  0  0  0  0  0  0  0  0  0  0  0
   -4.6130   20.4360  -31.7860 C   0  0  0  0  0  0  0  0  0  0  0  0
   -5.8860   19.6930  -32.0830 C   0  0  0  0  0  0  0  0  0  0  0  0
   -7.0520   20.6430  -32.0550 C   0  0  0  0  0  0  0  0  0  0  0  0
   -8.3280   20.1850  -31.6910 C   0  0  0  0  0  0  0  0  0  0  0  0
   -9.3900   21.0890  -31.6270 C   0  0  0  0  0  0  0  0  0  0  0  0
   -9.1730   22.4360  -31.9150 C   0  0  0  0  0  0  0  0  0  0  0  0
   -7.8890   22.8620  -32.2640 C   0  0  0  0  0  0  0  0  0  0  0  0
   -6.8630   21.9690  -32.3230 N   0  0  0  0  0  0  0  0  0  0  0  0
   -4.5730   21.3770  -30.7350 C   0  0  0  0  0  0  0  0  0  0  0  0
   -3.3840   22.0850  -30.5200 C   0  0  0  0  0  0  0  0  0  0  0  0
   -3.1130   23.0090  -29.5700 N   0  0  0  0  0  0  0  0  0  0  0  0
   -3.9930   23.4310  -28.5150 C   0  0  0  0  0  0  0  0  0  0  0  0
   -3.5540   23.5540  -27.3390 O   0  0  0  0  0  0  0  0  0  0  0  0
   -5.3280   23.7300  -28.8020 O   0  0  0  0  0  0  0  0  0  0  0  0
   -5.7180   24.8830  -29.5420 C   0  0  0  0  0  0  0  0  0  0  0  0
   -4.9090   24.9570  -30.7930 C   0  0  0  0  0  0  0  0  0  0  0  0
   -3.8740   25.6770  -30.8370 O   0  0  0  0  0  0  0  0  0  0  0  0
   -5.3260   24.2730  -31.9300 O   0  0  0  0  0  0  0  0  0  0  0  0
   -2.6440   25.9000  -28.9940 H   0  0  0  0  0  0  0  0  0  0  0  0
   -0.2307   22.7228  -31.2119 H   0  0  0  0  0  0  0  0  0  0  0  0
   -1.3826   20.7788  -32.9611 H   0  0  0  0  0  0  0  0  0  0  0  0
   -3.5060   19.5116  -33.4253 H   0  0  0  0  0  0  0  0  0  0  0  0
   -5.8152   19.2318  -33.0791 H   0  0  0  0  0  0  0  0  0  0  0  0
   -6.0360   18.9131  -31.3219 H   0  0  0  0  0  0  0  0  0  0  0  0
   -8.4899   19.1222  -31.4580 H   0  0  0  0  0  0  0  0  0  0  0  0
  -10.3956   20.7395  -31.3500 H   0  0  0  0  0  0  0  0  0  0  0  0
  -10.0038   23.1554  -31.8679 H   0  0  0  0  0  0  0  0  0  0  0  0
   -7.7064   23.9225  -32.4919 H   0  0  0  0  0  0  0  0  0  0  0  0
   -5.9100   22.3170  -32.5770 H   0  0  0  0  0  0  0  0  0  0  0  0
   -5.4544   21.5501  -30.1001 H   0  0  0  0  0  0  0  0  0  0  0  0
   -6.7856   24.8130  -29.7974 H   0  0  0  0  0  0  0  0  0  0  0  0
   -5.5486   25.7861  -28.9373 H   0  0  0  0  0  0  0  0  0  0  0  0
  1  2  1  0
  2  3  2  0
  2  4  1  0
  4  5  2  0
  5  6  1  0
  6  7  2  0
  7  8  1  0
  8  9  2  0
  9 10  1  0
 10 11  1  0
 11 12  2  0
 12 13  1  0
 13 14  2  0
 14 15  1  0
 15 16  2  0
  9 17  1  0
 17 18  2  0
 18 19  1  0
 19 20  1  0
 20 21  2  0
 20 22  1  0
 22 23  1  0
 23 24  1  0
 24 25  2  0
 24 26  1  0
 19  4  1  0
 18  6  1  0
 16 11  1  0
  1 27  1  0
  5 28  1  0
  7 29  1  0
  8 30  1  0
 10 31  1  0
 10 32  1  0
 12 33  1  0
 13 34  1  0
 14 35  1  0
 15 36  1  0
 16 37  1  0
 17 38  1  0
 23 39  1  0
 23 40  1  0
M  CHG  3   1  -1  16   1  26  -1
M  END
>  <UniqueID>  (95) 
95

>  <SMILES>  (95) 
[NH-]C(=O)c1cc2ccc(Cc3cccc[nH+]3)cc2n1C(=O)OCC(=O)[O-]

>  <Energy>  (95) 
76.93570449479917

>  <Genealogy>  (95) 
[NH-]C(=O)c1cc2ccc(Cc3cccc[nH+]3)cc2n1C(=O)OCC(=O)[O-] (protonated)
[NH-]C(=O)c1cc2ccc(Cc3cccc[nH+]3)cc2n1C(=O)OCC(=O)[O-] (3D coordinates assigned)
[NH-]C(=O)c1cc2ccc(Cc3cccc[nH+]3)cc2n1C(=O)OCC(=O)[O-] (optimized conformer: 76.93570449479917 kcal/mol)

>  <smiles>  (95) 
NC(=O)c1cc2ccc(Cc3ccccn3)cc2n1C(=O)OCC(=O)O

>  <score_type>  (95) 
oracle

>  <origin>  (95) 
adg

>  <m_score__min__energy>  (95) 
-12.67

>  <m_primary>  (95) 
energy

$$$$
96:0
     RDKit          3D

 39 40  0  0  0  0  0  0  0  0999 V2000
   -0.8760   26.5370  -26.3400 C   0  0  0  0  0  0  0  0  0  0  0  0
   -0.5780   26.9560  -27.7710 C   0  0  0  0  0  0  0  0  0  0  0  0
   -1.4340   26.2510  -28.6640 O   0  0  0  0  0  0  0  0  0  0  0  0
   -1.2640   24.8960  -28.9580 C   0  0  0  0  0  0  0  0  0  0  0  0
   -0.1770   24.3120  -28.6890 O   0  0  0  0  0  0  0  0  0  0  0  0
   -2.3150   24.1960  -29.5540 O   0  0  0  0  0  0  0  0  0  0  0  0
   -2.9410   23.0760  -28.9350 C   0  0  0  0  0  0  0  0  0  0  0  0
   -3.4350   22.1890  -29.9310 O   0  0  0  0  0  0  0  0  0  0  0  0
   -3.9540   22.6270  -31.1530 C   0  0  0  0  0  0  0  0  0  0  0  0
   -3.1790   22.8690  -32.1210 O   0  0  0  0  0  0  0  0  0  0  0  0
   -5.3760   22.7830  -31.3090 N   0  0  0  0  0  0  0  0  0  0  0  0
   -6.1290   23.8560  -30.9350 C   0  0  0  0  0  0  0  0  0  0  0  0
   -5.6080   25.1590  -30.4730 C   0  0  0  0  0  0  0  0  0  0  0  0
   -4.2350   25.5100  -30.6550 N   0  0  0  0  0  0  0  0  0  0  0  0
   -6.4010   26.0000  -29.9680 O   0  0  0  0  0  0  0  0  0  0  0  0
   -7.4850   23.5880  -31.1010 C   0  0  0  0  0  0  0  0  0  0  0  0
   -7.5430   22.3090  -31.6090 C   0  0  0  0  0  0  0  0  0  0  0  0
   -8.6480   21.5300  -31.9400 C   0  0  0  0  0  0  0  0  0  0  0  0
   -8.4180   20.2240  -32.4010 C   0  0  0  0  0  0  0  0  0  0  0  0
   -7.1000   19.7230  -32.5210 C   0  0  0  0  0  0  0  0  0  0  0  0
   -6.8740   18.3050  -32.9560 C   0  0  0  0  0  0  0  0  0  0  0  0
   -6.0020   20.5370  -32.1590 C   0  0  0  0  0  0  0  0  0  0  0  0
   -6.2570   21.8420  -31.7240 C   0  0  0  0  0  0  0  0  0  0  0  0
   -0.3822   27.2313  -25.6443 H   0  0  0  0  0  0  0  0  0  0  0  0
   -1.9626   26.5588  -26.1703 H   0  0  0  0  0  0  0  0  0  0  0  0
   -0.4988   25.5177  -26.1703 H   0  0  0  0  0  0  0  0  0  0  0  0
   -0.7478   28.0375  -27.8786 H   0  0  0  0  0  0  0  0  0  0  0  0
    0.4701   26.7220  -28.0091 H   0  0  0  0  0  0  0  0  0  0  0  0
   -2.2076   22.5484  -28.3074 H   0  0  0  0  0  0  0  0  0  0  0  0
   -3.7779   23.4257  -28.3126 H   0  0  0  0  0  0  0  0  0  0  0  0
   -3.8790   26.4300  -30.3160 H   0  0  0  0  0  0  0  0  0  0  0  0
   -3.5950   24.9080  -31.2170 H   0  0  0  0  0  0  0  0  0  0  0  0
   -8.3298   24.2552  -30.8748 H   0  0  0  0  0  0  0  0  0  0  0  0
   -9.6699   21.9254  -31.8434 H   0  0  0  0  0  0  0  0  0  0  0  0
   -9.2707   19.5839  -32.6716 H   0  0  0  0  0  0  0  0  0  0  0  0
   -6.7714   17.6615  -32.0698 H   0  0  0  0  0  0  0  0  0  0  0  0
   -7.7294   17.9656  -33.5586 H   0  0  0  0  0  0  0  0  0  0  0  0
   -5.9555   18.2483  -33.5586 H   0  0  0  0  0  0  0  0  0  0  0  0
   -4.9727   20.1536  -32.2179 H   0  0  0  0  0  0  0  0  0  0  0  0
  1  2  1  0
  2  3  1  0
  3  4  1  0
  4  5  2  0
  4  6  1  0
  6  7  1  0
  7  8  1  0
  8  9  1  0
  9 10  2  0
  9 11  1  0
 11 12  1  0
 12 13  1  0
 13 14  1  0
 13 15  2  0
 12 16  2  0
 16 17  1  0
 17 18  2  0
 18 19  1  0
 19 20  2  0
 20 21  1  0
 20 22  1  0
 22 23  2  0
 23 11  1  0
 23 17  1  0
  1 24  1  0
  1 25  1  0
  1 26  1  0
  2 27  1  0
  2 28  1  0
  7 29  1  0
  7 30  1  0
 14 31  1  0
 14 32  1  0
 16 33  1  0
 18 34  1  0
 19 35  1  0
 21 36  1  0
 21 37  1  0
 21 38  1  0
 22 39  1  0
M  END
>  <UniqueID>  (96) 
96

>  <SMILES>  (96) 
CCOC(=O)OCOC(=O)n1c(C(N)=O)cc2ccc(C)cc21

>  <Energy>  (96) 
69.29431794725615

>  <Genealogy>  (96) 
CCOC(=O)OCOC(=O)n1c(C(N)=O)cc2ccc(C)cc21 (3D coordinates assigned)
CCOC(=O)OCOC(=O)n1c(C(N)=O)cc2ccc(C)cc21 (optimized conformer: 69.29431794725615 kcal/mol)

>  <smiles>  (96) 
CCOC(=O)OCOC(=O)n1c(C(N)=O)cc2ccc(C)cc21

>  <score_type>  (96) 
oracle

>  <origin>  (96) 
adg

>  <m_score__min__energy>  (96) 
-8.5299999999999994

>  <m_primary>  (96) 
energy

$$$$
97:0
     RDKit          3D

 51 52  0  0  0  0  0  0  0  0999 V2000
   -4.8440   15.7750  -32.6040 C   0  0  0  0  0  0  0  0  0  0  0  0
   -5.9450   16.8420  -32.4560 C   0  0  0  0  0  0  0  0  0  0  0  0
   -6.1080   17.1550  -30.9480 C   0  0  0  0  0  0  0  0  0  0  0  0
   -5.6350   18.1410  -33.2820 C   0  0  2  0  0  0  0  0  0  0  0  0
   -6.8800   18.8180  -33.7260 N   0  0  0  0  0  0  0  0  0  0  0  0
   -7.0290   20.0990  -33.0780 C   0  0  0  0  0  0  0  0  0  0  0  0
   -8.3190   20.5610  -32.6970 C   0  0  0  0  0  0  0  0  0  0  0  0
   -8.4700   21.7760  -32.0090 C   0  0  0  0  0  0  0  0  0  0  0  0
   -7.3200   22.5020  -31.7030 C   0  0  0  0  0  0  0  0  0  0  0  0
   -7.1730   23.6720  -30.9920 C   0  0  0  0  0  0  0  0  0  0  0  0
   -5.7990   23.9070  -30.9440 C   0  0  0  0  0  0  0  0  0  0  0  0
   -5.1980   25.1010  -30.3110 C   0  0  0  0  0  0  0  0  0  0  0  0
   -3.9720   25.6300  -30.8220 N   0  0  0  0  0  0  0  0  0  0  0  0
   -5.7340   25.6440  -29.3090 O   0  0  0  0  0  0  0  0  0  0  0  0
   -5.1220   22.9230  -31.6030 N   0  0  0  0  0  0  0  0  0  0  0  0
   -3.7000   22.7340  -31.7030 C   0  0  0  0  0  0  0  0  0  0  0  0
   -2.9450   23.1680  -30.7930 O   0  0  0  0  0  0  0  0  0  0  0  0
   -3.1810   22.0110  -32.7860 O   0  0  0  0  0  0  0  0  0  0  0  0
   -2.2700   20.9040  -32.7180 C   0  0  0  0  0  0  0  0  0  0  0  0
   -0.9370   21.3360  -32.0770 C   0  0  0  0  0  0  0  0  0  0  0  0
   -2.0020   20.4450  -34.1620 C   0  0  0  0  0  0  0  0  0  0  0  0
   -2.9010   19.7330  -31.9340 C   0  0  0  0  0  0  0  0  0  0  0  0
   -6.0680   22.0760  -32.0670 C   0  0  0  0  0  0  0  0  0  0  0  0
   -5.8860   20.8710  -32.7560 C   0  0  0  0  0  0  0  0  0  0  0  0
   -4.7700   17.8410  -34.4920 C   0  0  0  0  0  0  0  0  0  0  0  0
   -3.5300   17.6560  -34.3580 O   0  0  0  0  0  0  0  0  0  0  0  0
   -5.3370   17.8130  -35.7640 O   0  0  0  0  0  0  0  0  0  0  0  0
   -4.5104   15.4517  -31.6069 H   0  0  0  0  0  0  0  0  0  0  0  0
   -5.2427   14.9107  -33.1554 H   0  0  0  0  0  0  0  0  0  0  0  0
   -3.9926   16.2006  -33.1554 H   0  0  0  0  0  0  0  0  0  0  0  0
   -6.8869   16.4491  -32.8664 H   0  0  0  0  0  0  0  0  0  0  0  0
   -5.6802   16.3335  -30.3547 H   0  0  0  0  0  0  0  0  0  0  0  0
   -5.5832   18.0918  -30.7091 H   0  0  0  0  0  0  0  0  0  0  0  0
   -7.1764   17.2621  -30.7091 H   0  0  0  0  0  0  0  0  0  0  0  0
   -5.0846   18.8137  -32.6078 H   0  0  0  0  0  0  0  0  0  0  0  0
   -7.7270   18.2440  -33.5220 H   0  0  0  0  0  0  0  0  0  0  0  0
   -6.8820   18.9540  -34.7630 H   0  0  0  0  0  0  0  0  0  0  0  0
   -9.2072   19.9608  -32.9436 H   0  0  0  0  0  0  0  0  0  0  0  0
   -9.4657   22.1437  -31.7203 H   0  0  0  0  0  0  0  0  0  0  0  0
   -7.9705   24.2905  -30.5544 H   0  0  0  0  0  0  0  0  0  0  0  0
   -3.0490   25.2910  -30.4660 H   0  0  0  0  0  0  0  0  0  0  0  0
   -1.0302   21.3058  -30.9814 H   0  0  0  0  0  0  0  0  0  0  0  0
   -0.1377   20.6509  -32.3960 H   0  0  0  0  0  0  0  0  0  0  0  0
   -0.6915   22.3597  -32.3960 H   0  0  0  0  0  0  0  0  0  0  0  0
   -1.4474   19.4951  -34.1479 H   0  0  0  0  0  0  0  0  0  0  0  0
   -2.9591   20.3030  -34.6852 H   0  0  0  0  0  0  0  0  0  0  0  0
   -1.4079   21.2087  -34.6852 H   0  0  0  0  0  0  0  0  0  0  0  0
   -2.8010   19.9185  -30.8544 H   0  0  0  0  0  0  0  0  0  0  0  0
   -3.9664   19.6492  -32.1945 H   0  0  0  0  0  0  0  0  0  0  0  0
   -2.3851   18.7971  -32.1945 H   0  0  0  0  0  0  0  0  0  0  0  0
   -4.8791   20.5317  -33.0406 H   0  0  0  0  0  0  0  0  0  0  0  0
  1  2  1  0
  2  3  1  0
  2  4  1  0
  4  5  1  0
  5  6  1  0
  6  7  2  0
  7  8  1  0
  8  9  2  0
  9 10  1  0
 10 11  2  0
 11 12  1  0
 12 13  1  0
 12 14  2  0
 11 15  1  0
 15 16  1  0
 16 17  2  0
 16 18  1  0
 18 19  1  0
 19 20  1  0
 19 21  1  0
 19 22  1  0
 15 23  1  0
 23 24  2  0
  4 25  1  0
 25 26  2  0
 25 27  1  0
 24  6  1  0
 23  9  1  0
  1 28  1  0
  1 29  1  0
  1 30  1  0
  2 31  1  0
  3 32  1  0
  3 33  1  0
  3 34  1  0
  4 35  1  1
  5 36  1  0
  5 37  1  0
  7 38  1  0
  8 39  1  0
 10 40  1  0
 13 41  1  0
 20 42  1  0
 20 43  1  0
 20 44  1  0
 21 45  1  0
 21 46  1  0
 21 47  1  0
 22 48  1  0
 22 49  1  0
 22 50  1  0
 24 51  1  0
M  CHG  3   5   1  13  -1  27  -1
M  END
>  <UniqueID>  (97) 
97

>  <SMILES>  (97) 
CC(C)[C@H]([NH2+]c1ccc2cc(C([NH-])=O)n(C(=O)OC(C)(C)C)c2c1)C(=O)[O-]

>  <Energy>  (97) 
85.87681568355146

>  <Genealogy>  (97) 
CC(C)C([NH2+]c1ccc2cc(C([NH-])=O)n(C(=O)OC(C)(C)C)c2c1)C(=O)[O-] (protonated)
CC(C)[C@H]([NH2+]c1ccc2cc(C([NH-])=O)n(C(=O)OC(C)(C)C)c2c1)C(=O)[O-] (chirality)
CC(C)[C@H]([NH2+]c1ccc2cc(C([NH-])=O)n(C(=O)OC(C)(C)C)c2c1)C(=O)[O-] (3D coordinates assigned)
CC(C)[C@H]([NH2+]c1ccc2cc(C([NH-])=O)n(C(=O)OC(C)(C)C)c2c1)C(=O)[O-] (optimized conformer: 85.87681568355146 kcal/mol)

>  <smiles>  (97) 
CC(C)C(Nc1ccc2cc(C(N)=O)n(C(=O)OC(C)(C)C)c2c1)C(=O)O

>  <score_type>  (97) 
oracle

>  <origin>  (97) 
adg

>  <m_score__min__energy>  (97) 
-10.380000000000001

>  <m_primary>  (97) 
energy

$$$$
