0:0
     RDKit          3D

 40 41  0  0  0  0  0  0  0  0999 V2000
   -4.5530   17.9440  -33.0110 C   0  0  0  0  0  0  0  0  0  0  0  0
   -5.0910   19.3280  -32.8000 C   0  0  0  0  0  0  0  0  0  0  0  0
   -6.3660   19.6780  -33.3080 C   0  0  0  0  0  0  0  0  0  0  0  0
   -6.9020   20.9560  -33.0780 C   0  0  0  0  0  0  0  0  0  0  0  0
   -6.1440   21.8570  -32.3350 C   0  0  0  0  0  0  0  0  0  0  0  0
   -6.4300   23.1450  -31.9420 C   0  0  0  0  0  0  0  0  0  0  0  0
   -5.3230   23.5610  -31.2030 C   0  0  0  0  0  0  0  0  0  0  0  0
   -5.1730   24.9240  -30.6550 C   0  0  0  0  0  0  0  0  0  0  0  0
   -3.8830   25.5070  -30.4840 N   0  0  0  0  0  0  0  0  0  0  0  0
   -6.1970   25.6010  -30.3730 O   0  0  0  0  0  0  0  0  0  0  0  0
   -4.3950   22.5650  -31.1360 N   0  0  0  0  0  0  0  0  0  0  0  0
   -3.1590   22.5570  -30.4050 C   0  0  0  0  0  0  0  0  0  0  0  0
   -2.2420   21.7660  -30.7540 O   0  0  0  0  0  0  0  0  0  0  0  0
   -2.9970   23.4130  -29.2600 N   0  0  0  0  0  0  0  0  0  0  0  0
   -1.7750   23.5120  -28.4340 C   0  0  0  0  0  0  0  0  0  0  0  0
   -1.1850   22.1040  -28.1930 C   0  0  0  0  0  0  0  0  0  0  0  0
   -0.7420   24.4220  -29.1490 C   0  0  0  0  0  0  0  0  0  0  0  0
   -1.2260   25.7320  -29.3010 O   0  0  0  0  0  0  0  0  0  0  0  0
   -2.1420   24.1450  -27.0670 C   0  0  0  0  0  0  0  0  0  0  0  0
   -3.1300   25.1290  -27.2300 O   0  0  0  0  0  0  0  0  0  0  0  0
   -4.9100   21.5320  -31.8360 C   0  0  0  0  0  0  0  0  0  0  0  0
   -4.3570   20.2630  -32.0360 C   0  0  0  0  0  0  0  0  0  0  0  0
   -4.3686   17.4697  -32.0358 H   0  0  0  0  0  0  0  0  0  0  0  0
   -5.2850   17.3482  -33.5760 H   0  0  0  0  0  0  0  0  0  0  0  0
   -3.6108   17.9991  -33.5760 H   0  0  0  0  0  0  0  0  0  0  0  0
   -6.9420   18.9421  -33.8882 H   0  0  0  0  0  0  0  0  0  0  0  0
   -7.8898   21.2361  -33.4726 H   0  0  0  0  0  0  0  0  0  0  0  0
   -7.3390   23.7234  -32.1639 H   0  0  0  0  0  0  0  0  0  0  0  0
   -3.4820   25.6540  -29.5320 H   0  0  0  0  0  0  0  0  0  0  0  0
   -3.8270   23.9940  -29.0000 H   0  0  0  0  0  0  0  0  0  0  0  0
   -1.1075   21.9191  -27.1114 H   0  0  0  0  0  0  0  0  0  0  0  0
   -1.8421   21.3483  -28.6480 H   0  0  0  0  0  0  0  0  0  0  0  0
   -0.1854   22.0425  -28.6480 H   0  0  0  0  0  0  0  0  0  0  0  0
    0.1823   24.4496  -28.5533 H   0  0  0  0  0  0  0  0  0  0  0  0
   -0.5516   24.0068  -30.1497 H   0  0  0  0  0  0  0  0  0  0  0  0
   -2.1050   25.6640  -29.7570 H   0  0  0  0  0  0  0  0  0  0  0  0
   -2.5198   23.3606  -26.3947 H   0  0  0  0  0  0  0  0  0  0  0  0
   -1.2428   24.6114  -26.6382 H   0  0  0  0  0  0  0  0  0  0  0  0
   -3.1220   25.3710  -28.1930 H   0  0  0  0  0  0  0  0  0  0  0  0
   -3.3775   20.0000  -31.6102 H   0  0  0  0  0  0  0  0  0  0  0  0
  1  2  1  0
  2  3  2  0
  3  4  1  0
  4  5  2  0
  5  6  1  0
  6  7  2  0
  7  8  1  0
  8  9  1  0
  8 10  2  0
  7 11  1  0
 11 12  1  0
 12 13  2  0
 12 14  1  0
 14 15  1  0
 15 16  1  0
 15 17  1  0
 17 18  1  0
 15 19  1  0
 19 20  1  0
 11 21  1  0
 21 22  2  0
 22  2  1  0
 21  5  1  0
  1 23  1  0
  1 24  1  0
  1 25  1  0
  3 26  1  0
  4 27  1  0
  6 28  1  0
  9 29  1  0
 14 30  1  0
 16 31  1  0
 16 32  1  0
 16 33  1  0
 17 34  1  0
 17 35  1  0
 18 36  1  0
 19 37  1  0
 19 38  1  0
 20 39  1  0
 22 40  1  0
M  CHG  1   9  -1
M  END
>  <UniqueID>  (1) 
1

>  <SMILES>  (1) 
Cc1ccc2cc(C([NH-])=O)n(C(=O)NC(C)(CO)CO)c2c1

>  <Energy>  (1) 
76.01191171750419

>  <Genealogy>  (1) 
Cc1ccc2cc(C([NH-])=O)n(C(=O)NC(C)(CO)CO)c2c1 (protonated)
Cc1ccc2cc(C([NH-])=O)n(C(=O)NC(C)(CO)CO)c2c1 (3D coordinates assigned)
Cc1ccc2cc(C([NH-])=O)n(C(=O)NC(C)(CO)CO)c2c1 (optimized conformer: 76.01191171750419 kcal/mol)

>  <smiles>  (1) 
Cc1ccc2cc(C(N)=O)n(C(=O)NC(C)(CO)CO)c2c1

>  <score_type>  (1) 
oracle

>  <origin>  (1) 
adg

>  <m_score__min__energy>  (1) 
-9.6500000000000004

>  <m_primary>  (1) 
energy

$$$$
1:0
     RDKit          3D

 35 36  0  0  0  0  0  0  0  0999 V2000
   -6.3290   17.9620  -33.5790 C   0  0  0  0  0  0  0  0  0  0  0  0
   -7.0720   18.2460  -32.2760 C   0  0  0  0  0  0  0  0  0  0  0  0
   -8.3340   17.6810  -32.3420 F   0  0  0  0  0  0  0  0  0  0  0  0
   -6.3930   17.6490  -31.2270 F   0  0  0  0  0  0  0  0  0  0  0  0
   -7.1780   19.7380  -32.0510 C   0  0  0  0  0  0  0  0  0  0  0  0
   -8.4400   20.3860  -32.1130 C   0  0  0  0  0  0  0  0  0  0  0  0
   -8.5530   21.7650  -31.8740 C   0  0  0  0  0  0  0  0  0  0  0  0
   -7.3960   22.4680  -31.5510 C   0  0  0  0  0  0  0  0  0  0  0  0
   -7.2200   23.8070  -31.2850 C   0  0  0  0  0  0  0  0  0  0  0  0
   -5.8610   23.9560  -31.0190 C   0  0  0  0  0  0  0  0  0  0  0  0
   -5.2510   25.2330  -30.5960 C   0  0  0  0  0  0  0  0  0  0  0  0
   -3.8680   25.4740  -30.8420 N   0  0  0  0  0  0  0  0  0  0  0  0
   -5.9450   26.1310  -30.0500 O   0  0  0  0  0  0  0  0  0  0  0  0
   -5.2200   22.7560  -31.1230 N   0  0  0  0  0  0  0  0  0  0  0  0
   -3.8170   22.4870  -30.9780 C   0  0  0  0  0  0  0  0  0  0  0  0
   -3.0360   22.6660  -31.9530 O   0  0  0  0  0  0  0  0  0  0  0  0
   -3.3260   22.0030  -29.7640 O   0  0  0  0  0  0  0  0  0  0  0  0
   -3.6490   22.5930  -28.5100 C   0  0  0  0  0  0  0  0  0  0  0  0
   -2.9200   23.9260  -28.3730 C   0  0  0  0  0  0  0  0  0  0  0  0
   -1.9820   24.0750  -29.4050 O   0  0  0  0  0  0  0  0  0  0  0  0
   -6.1750   21.8560  -31.4480 C   0  0  0  0  0  0  0  0  0  0  0  0
   -6.0300   20.4870  -31.7000 C   0  0  0  0  0  0  0  0  0  0  0  0
   -5.3237   17.5777  -33.3516 H   0  0  0  0  0  0  0  0  0  0  0  0
   -6.8846   17.2129  -34.1621 H   0  0  0  0  0  0  0  0  0  0  0  0
   -6.2433   18.8908  -34.1621 H   0  0  0  0  0  0  0  0  0  0  0  0
   -9.3402   19.8004  -32.3512 H   0  0  0  0  0  0  0  0  0  0  0  0
   -9.5259   22.2740  -31.9400 H   0  0  0  0  0  0  0  0  0  0  0  0
   -7.9896   24.5929  -31.2829 H   0  0  0  0  0  0  0  0  0  0  0  0
   -3.2170   24.6870  -31.0630 H   0  0  0  0  0  0  0  0  0  0  0  0
   -4.7346   22.7610  -28.4525 H   0  0  0  0  0  0  0  0  0  0  0  0
   -3.3388   21.9200  -27.6971 H   0  0  0  0  0  0  0  0  0  0  0  0
   -3.6508   24.7465  -28.4253 H   0  0  0  0  0  0  0  0  0  0  0  0
   -2.3958   23.9500  -27.4062 H   0  0  0  0  0  0  0  0  0  0  0  0
   -2.4730   23.9350  -30.2560 H   0  0  0  0  0  0  0  0  0  0  0  0
   -5.0446   20.0036  -31.6268 H   0  0  0  0  0  0  0  0  0  0  0  0
  1  2  1  0
  2  3  1  0
  2  4  1  0
  2  5  1  0
  5  6  2  0
  6  7  1  0
  7  8  2  0
  8  9  1  0
  9 10  2  0
 10 11  1  0
 11 12  1  0
 11 13  2  0
 10 14  1  0
 14 15  1  0
 15 16  2  0
 15 17  1  0
 17 18  1  0
 18 19  1  0
 19 20  1  0
 14 21  1  0
 21 22  2  0
 22  5  1  0
 21  8  1  0
  1 23  1  0
  1 24  1  0
  1 25  1  0
  6 26  1  0
  7 27  1  0
  9 28  1  0
 12 29  1  0
 18 30  1  0
 18 31  1  0
 19 32  1  0
 19 33  1  0
 20 34  1  0
 22 35  1  0
M  CHG  1  12  -1
M  END
>  <UniqueID>  (2) 
2

>  <SMILES>  (2) 
CC(F)(F)c1ccc2cc(C([NH-])=O)n(C(=O)OCCO)c2c1

>  <Energy>  (2) 
67.28198643180414

>  <Genealogy>  (2) 
CC(F)(F)c1ccc2cc(C([NH-])=O)n(C(=O)OCCO)c2c1 (protonated)
CC(F)(F)c1ccc2cc(C([NH-])=O)n(C(=O)OCCO)c2c1 (3D coordinates assigned)
CC(F)(F)c1ccc2cc(C([NH-])=O)n(C(=O)OCCO)c2c1 (optimized conformer: 67.28198643180414 kcal/mol)

>  <smiles>  (2) 
CC(F)(F)c1ccc2cc(C(N)=O)n(C(=O)OCCO)c2c1

>  <score_type>  (2) 
oracle

>  <origin>  (2) 
adg

>  <m_score__min__energy>  (2) 
-10.119999999999999

>  <m_primary>  (2) 
energy

$$$$
2:0
     RDKit          3D

 54 56  0  0  0  0  0  0  0  0999 V2000
   -1.7970   19.3520  -34.2280 C   0  0  0  0  0  0  0  0  0  0  0  0
   -2.4060   19.5630  -32.9120 N   0  0  0  0  0  0  0  0  0  0  0  0
   -3.8420   19.6120  -32.8690 C   0  0  0  0  0  0  0  0  0  0  0  0
   -4.5910   18.4270  -33.0590 C   0  0  0  0  0  0  0  0  0  0  0  0
   -5.9940   18.4450  -32.9700 C   0  0  0  0  0  0  0  0  0  0  0  0
   -6.6160   19.6610  -32.6960 C   0  0  0  0  0  0  0  0  0  0  0  0
   -7.9470   19.9540  -32.4960 C   0  0  0  0  0  0  0  0  0  0  0  0
   -7.9890   21.3220  -32.2170 C   0  0  0  0  0  0  0  0  0  0  0  0
   -9.2330   22.0880  -31.9770 C   0  0  0  0  0  0  0  0  0  0  0  0
   -9.3270   23.4730  -32.3210 N   0  0  0  0  0  0  0  0  0  0  0  0
  -10.2330   21.5210  -31.4660 O   0  0  0  0  0  0  0  0  0  0  0  0
   -6.7310   21.8450  -32.2560 N   0  0  0  0  0  0  0  0  0  0  0  0
   -6.3280   23.1930  -31.9880 C   0  0  0  0  0  0  0  0  0  0  0  0
   -5.2620   23.6360  -32.4910 O   0  0  0  0  0  0  0  0  0  0  0  0
   -7.1260   24.0070  -31.1750 O   0  0  0  0  0  0  0  0  0  0  0  0
   -6.8280   24.2620  -29.7970 C   0  0  0  0  0  0  0  0  0  0  0  0
   -6.1470   25.6300  -29.6310 C   0  0  0  0  0  0  0  0  0  0  0  0
   -5.6030   26.0630  -30.8500 O   0  0  0  0  0  0  0  0  0  0  0  0
   -5.9050   20.8210  -32.5480 C   0  0  0  0  0  0  0  0  0  0  0  0
   -4.5070   20.8320  -32.6150 C   0  0  0  0  0  0  0  0  0  0  0  0
   -1.5890   20.0330  -31.7720 C   0  0  1  0  0  0  0  0  0  0  0  0
   -0.6900   21.2320  -32.1200 C   0  0  0  0  0  0  0  0  0  0  0  0
   -0.5470   22.0050  -30.8240 C   0  0  0  0  0  0  0  0  0  0  0  0
   -1.7080   21.6400  -30.0260 N   0  0  0  0  0  0  0  0  0  0  0  0
   -2.1040   22.2930  -28.8070 C   0  0  0  0  0  0  0  0  0  0  0  0
   -1.5740   21.9490  -27.7160 O   0  0  0  0  0  0  0  0  0  0  0  0
   -3.1940   23.3400  -28.7920 C   0  0  0  0  0  0  0  0  0  0  0  0
   -2.8570   24.5210  -29.6530 C   0  0  0  0  0  0  0  0  0  0  0  0
   -3.5090   24.7360  -30.7050 O   0  0  0  0  0  0  0  0  0  0  0  0
   -1.7770   25.3460  -29.3380 O   0  0  0  0  0  0  0  0  0  0  0  0
   -2.4520   20.5410  -30.6070 C   0  0  0  0  0  0  0  0  0  0  0  0
   -0.7646   18.9943  -34.1011 H   0  0  0  0  0  0  0  0  0  0  0  0
   -2.3787   18.6030  -34.7854 H   0  0  0  0  0  0  0  0  0  0  0  0
   -1.7906   20.3003  -34.7854 H   0  0  0  0  0  0  0  0  0  0  0  0
   -4.0709   17.4829  -33.2784 H   0  0  0  0  0  0  0  0  0  0  0  0
   -6.5827   17.5268  -33.1124 H   0  0  0  0  0  0  0  0  0  0  0  0
   -8.7972   19.2578  -32.5455 H   0  0  0  0  0  0  0  0  0  0  0  0
  -10.1990   24.0060  -32.1000 H   0  0  0  0  0  0  0  0  0  0  0  0
   -8.5590   23.9690  -32.8310 H   0  0  0  0  0  0  0  0  0  0  0  0
   -7.7631   24.2518  -29.2177 H   0  0  0  0  0  0  0  0  0  0  0  0
   -6.1443   23.4808  -29.4333 H   0  0  0  0  0  0  0  0  0  0  0  0
   -6.8900   26.3640  -29.2859 H   0  0  0  0  0  0  0  0  0  0  0  0
   -5.3353   25.5346  -28.8948 H   0  0  0  0  0  0  0  0  0  0  0  0
   -5.3590   25.2490  -31.3640 H   0  0  0  0  0  0  0  0  0  0  0  0
   -3.9417   21.7650  -32.4737 H   0  0  0  0  0  0  0  0  0  0  0  0
   -0.9959   19.1459  -31.5049 H   0  0  0  0  0  0  0  0  0  0  0  0
    0.2926   20.8881  -32.4754 H   0  0  0  0  0  0  0  0  0  0  0  0
   -1.1176   21.8492  -32.9239 H   0  0  0  0  0  0  0  0  0  0  0  0
    0.3808   21.7200  -30.3063 H   0  0  0  0  0  0  0  0  0  0  0  0
   -0.4952   23.0899  -30.9984 H   0  0  0  0  0  0  0  0  0  0  0  0
   -4.1257   22.8867  -29.1613 H   0  0  0  0  0  0  0  0  0  0  0  0
   -3.3051   23.6970  -27.7575 H   0  0  0  0  0  0  0  0  0  0  0  0
   -2.6033   19.7438  -29.8643 H   0  0  0  0  0  0  0  0  0  0  0  0
   -3.4499   20.8569  -30.9453 H   0  0  0  0  0  0  0  0  0  0  0  0
  1  2  1  0
  2  3  1  0
  3  4  2  0
  4  5  1  0
  5  6  2  0
  6  7  1  0
  7  8  2  0
  8  9  1  0
  9 10  1  0
  9 11  2  0
  8 12  1  0
 12 13  1  0
 13 14  2  0
 13 15  1  0
 15 16  1  0
 16 17  1  0
 17 18  1  0
 12 19  1  0
 19 20  2  0
  2 21  1  0
 21 22  1  0
 22 23  1  0
 23 24  1  0
 24 25  1  0
 25 26  2  0
 25 27  1  0
 27 28  1  0
 28 29  2  0
 28 30  1  0
 24 31  1  0
 20  3  1  0
 31 21  1  0
 19  6  1  0
  1 32  1  0
  1 33  1  0
  1 34  1  0
  4 35  1  0
  5 36  1  0
  7 37  1  0
 10 38  1  0
 10 39  1  0
 16 40  1  0
 16 41  1  0
 17 42  1  0
 17 43  1  0
 18 44  1  0
 20 45  1  0
 21 46  1  1
 22 47  1  0
 22 48  1  0
 23 49  1  0
 23 50  1  0
 27 51  1  0
 27 52  1  0
 31 53  1  0
 31 54  1  0
M  CHG  1  30  -1
M  END
>  <UniqueID>  (3) 
3

>  <SMILES>  (3) 
CN(c1ccc2cc(C(N)=O)n(C(=O)OCCO)c2c1)[C@H]1CCN(C(=O)CC(=O)[O-])C1

>  <Energy>  (3) 
96.8105616826637

>  <Genealogy>  (3) 
CN(c1ccc2cc(C(N)=O)n(C(=O)OCCO)c2c1)C1CCN(C(=O)CC(=O)[O-])C1 (protonated)
CN(c1ccc2cc(C(N)=O)n(C(=O)OCCO)c2c1)[C@H]1CCN(C(=O)CC(=O)[O-])C1 (chirality)
CN(c1ccc2cc(C(N)=O)n(C(=O)OCCO)c2c1)[C@H]1CCN(C(=O)CC(=O)[O-])C1 (3D coordinates assigned)
CN(c1ccc2cc(C(N)=O)n(C(=O)OCCO)c2c1)[C@H]1CCN(C(=O)CC(=O)[O-])C1 (nonaromatic ring conformer: 96.8105616826637 kcal/mol)

>  <smiles>  (3) 
CN(c1ccc2cc(C(N)=O)n(C(=O)OCCO)c2c1)C1CCN(C(=O)CC(=O)O)C1

>  <score_type>  (3) 
oracle

>  <origin>  (3) 
adg

>  <m_score__min__energy>  (3) 
-10.84

>  <m_primary>  (3) 
energy

$$$$
3:0
     RDKit          3D

 35 36  0  0  0  0  0  0  0  0999 V2000
    4.7670   19.3600  -27.1530 N   0  0  0  0  0  0  0  0  0  0  0  0
    3.4160   19.0720  -27.5030 C   0  0  0  0  0  0  0  0  0  0  0  0
    2.8990   17.9770  -27.1590 O   0  0  0  0  0  0  0  0  0  0  0  0
    2.6250   20.0570  -28.3070 C   0  0  0  0  0  0  0  0  0  0  0  0
    1.2390   19.6080  -28.4540 N   0  0  0  0  0  0  0  0  0  0  0  0
    0.2810   20.2030  -29.3510 C   0  0  0  0  0  0  0  0  0  0  0  0
    0.2270   19.8530  -30.7280 C   0  0  0  0  0  0  0  0  0  0  0  0
   -0.7180   20.4470  -31.5850 C   0  0  0  0  0  0  0  0  0  0  0  0
   -1.5900   21.3840  -31.0450 C   0  0  0  0  0  0  0  0  0  0  0  0
   -2.6020   22.1060  -31.6410 C   0  0  0  0  0  0  0  0  0  0  0  0
   -3.1410   22.8920  -30.6240 C   0  0  0  0  0  0  0  0  0  0  0  0
   -4.2020   23.8970  -30.8380 C   0  0  0  0  0  0  0  0  0  0  0  0
   -3.9020   25.2850  -30.7190 N   0  0  0  0  0  0  0  0  0  0  0  0
   -5.3830   23.5400  -31.0960 O   0  0  0  0  0  0  0  0  0  0  0  0
   -2.4950   22.6580  -29.4490 N   0  0  0  0  0  0  0  0  0  0  0  0
   -2.7720   23.2240  -28.1590 C   0  0  0  0  0  0  0  0  0  0  0  0
   -3.9670   23.4310  -27.8110 O   0  0  0  0  0  0  0  0  0  0  0  0
   -1.6530   23.6690  -27.2670 C   0  0  0  0  0  0  0  0  0  0  0  0
   -0.7660   25.0610  -28.0270 P   0  0  0  0  0  0  0  0  0  0  0  0
   -0.5570   26.1550  -27.0050 O   0  0  0  0  0  0  0  0  0  0  0  0
    0.7360   24.5270  -28.5880 O   0  0  0  0  0  0  0  0  0  0  0  0
   -1.6640   25.6660  -29.3250 O   0  0  0  0  0  0  0  0  0  0  0  0
   -1.5480   21.7390  -29.7240 C   0  0  0  0  0  0  0  0  0  0  0  0
   -0.6290   21.1570  -28.8450 C   0  0  0  0  0  0  0  0  0  0  0  0
    5.0400   20.3070  -26.8120 H   0  0  0  0  0  0  0  0  0  0  0  0
    2.6370   21.0319  -27.7976 H   0  0  0  0  0  0  0  0  0  0  0  0
    3.0773   20.1438  -29.3059 H   0  0  0  0  0  0  0  0  0  0  0  0
    0.9240   18.8300  -27.8310 H   0  0  0  0  0  0  0  0  0  0  0  0
    0.9320   19.1094  -31.1280 H   0  0  0  0  0  0  0  0  0  0  0  0
   -0.7648   20.1775  -32.6504 H   0  0  0  0  0  0  0  0  0  0  0  0
   -2.9169   22.0695  -32.6943 H   0  0  0  0  0  0  0  0  0  0  0  0
   -3.1090   25.7090  -31.2500 H   0  0  0  0  0  0  0  0  0  0  0  0
   -2.0645   23.9855  -26.2972 H   0  0  0  0  0  0  0  0  0  0  0  0
   -0.9537   22.8324  -27.1213 H   0  0  0  0  0  0  0  0  0  0  0  0
   -0.6153   21.4366  -27.7812 H   0  0  0  0  0  0  0  0  0  0  0  0
  1  2  1  0
  2  3  2  0
  2  4  1  0
  4  5  1  0
  5  6  1  0
  6  7  2  0
  7  8  1  0
  8  9  2  0
  9 10  1  0
 10 11  2  0
 11 12  1  0
 12 13  1  0
 12 14  2  0
 11 15  1  0
 15 16  1  0
 16 17  2  0
 16 18  1  0
 18 19  1  0
 19 20  2  0
 19 21  1  0
 19 22  1  0
 15 23  1  0
 23 24  2  0
 24  6  1  0
 23  9  1  0
  1 25  1  0
  4 26  1  0
  4 27  1  0
  5 28  1  0
  7 29  1  0
  8 30  1  0
 10 31  1  0
 13 32  1  0
 18 33  1  0
 18 34  1  0
 24 35  1  0
M  CHG  4   1  -1  13  -1  21  -1  22  -1
M  END
>  <UniqueID>  (4) 
4

>  <SMILES>  (4) 
[NH-]C(=O)CNc1ccc2cc(C([NH-])=O)n(C(=O)CP(=O)([O-])[O-])c2c1

>  <Energy>  (4) 
67.59372241340118

>  <Genealogy>  (4) 
[NH-]C(=O)CNc1ccc2cc(C([NH-])=O)n(C(=O)CP(=O)([O-])[O-])c2c1 (protonated)
[NH-]C(=O)CNc1ccc2cc(C([NH-])=O)n(C(=O)CP(=O)([O-])[O-])c2c1 (3D coordinates assigned)
[NH-]C(=O)CNc1ccc2cc(C([NH-])=O)n(C(=O)CP(=O)([O-])[O-])c2c1 (optimized conformer: 67.59372241340118 kcal/mol)

>  <smiles>  (4) 
NC(=O)CNc1ccc2cc(C(N)=O)n(C(=O)CP(=O)(O)O)c2c1

>  <score_type>  (4) 
oracle

>  <origin>  (4) 
adg

>  <m_score__min__energy>  (4) 
-12.300000000000001

>  <m_primary>  (4) 
energy

$$$$
4:0
     RDKit          3D

 39 40  0  0  0  0  0  0  0  0999 V2000
   -4.1060   24.3000  -27.4630 C   0  0  0  0  0  0  0  0  0  0  0  0
   -3.1530   23.6020  -28.3440 N   0  0  1  0  0  0  0  0  0  0  0  0
   -1.7470   23.7550  -27.9000 C   0  0  0  0  0  0  0  0  0  0  0  0
   -1.0260   24.9220  -28.5240 C   0  0  0  0  0  0  0  0  0  0  0  0
   -1.6190   25.6690  -29.3460 O   0  0  0  0  0  0  0  0  0  0  0  0
    0.3010   25.1770  -28.1990 O   0  0  0  0  0  0  0  0  0  0  0  0
   -3.5280   22.2080  -28.5060 C   0  0  0  0  0  0  0  0  0  0  0  0
   -3.8740   21.5420  -27.5390 O   0  0  0  0  0  0  0  0  0  0  0  0
   -3.5070   21.5570  -29.8650 C   0  0  0  0  0  0  0  0  0  0  0  0
   -3.9340   22.5460  -30.9060 C   0  0  0  0  0  0  0  0  0  0  0  0
   -3.0770   23.0380  -31.6880 O   0  0  0  0  0  0  0  0  0  0  0  0
   -5.3230   22.8500  -31.0940 N   0  0  0  0  0  0  0  0  0  0  0  0
   -5.9790   24.0080  -30.8000 C   0  0  0  0  0  0  0  0  0  0  0  0
   -5.3500   25.2690  -30.3520 C   0  0  0  0  0  0  0  0  0  0  0  0
   -3.9900   25.5590  -30.6610 N   0  0  0  0  0  0  0  0  0  0  0  0
   -6.0310   26.1170  -29.7160 O   0  0  0  0  0  0  0  0  0  0  0  0
   -7.3420   23.8740  -31.0630 C   0  0  0  0  0  0  0  0  0  0  0  0
   -7.4980   22.5900  -31.5360 C   0  0  0  0  0  0  0  0  0  0  0  0
   -8.6430   21.9180  -31.9550 C   0  0  0  0  0  0  0  0  0  0  0  0
   -8.5020   20.5880  -32.3910 C   0  0  0  0  0  0  0  0  0  0  0  0
   -7.2320   19.9620  -32.4000 C   0  0  0  0  0  0  0  0  0  0  0  0
   -7.1030   18.6090  -32.8420 N   0  0  0  0  0  0  0  0  0  0  0  0
   -6.0930   20.6750  -31.9710 C   0  0  0  0  0  0  0  0  0  0  0  0
   -6.2620   21.9970  -31.5490 C   0  0  0  0  0  0  0  0  0  0  0  0
   -3.8429   24.1073  -26.4124 H   0  0  0  0  0  0  0  0  0  0  0  0
   -4.0625   25.3814  -27.6595 H   0  0  0  0  0  0  0  0  0  0  0  0
   -5.1239   23.9323  -27.6595 H   0  0  0  0  0  0  0  0  0  0  0  0
   -3.2150   24.0730  -29.2790 H   0  0  0  0  0  0  0  0  0  0  0  0
   -1.7427   23.8905  -26.8084 H   0  0  0  0  0  0  0  0  0  0  0  0
   -1.2141   22.8470  -28.2187 H   0  0  0  0  0  0  0  0  0  0  0  0
   -2.4876   21.2089  -30.0878 H   0  0  0  0  0  0  0  0  0  0  0  0
   -4.1990   20.7019  -29.8697 H   0  0  0  0  0  0  0  0  0  0  0  0
   -3.2390   24.8490  -30.5020 H   0  0  0  0  0  0  0  0  0  0  0  0
   -8.1260   24.6327  -30.9225 H   0  0  0  0  0  0  0  0  0  0  0  0
   -9.6262   22.4111  -31.9454 H   0  0  0  0  0  0  0  0  0  0  0  0
   -9.3872   20.0288  -32.7283 H   0  0  0  0  0  0  0  0  0  0  0  0
   -7.5800   18.2840  -33.7110 H   0  0  0  0  0  0  0  0  0  0  0  0
   -6.5350   17.9230  -32.2970 H   0  0  0  0  0  0  0  0  0  0  0  0
   -5.0991   20.2037  -31.9686 H   0  0  0  0  0  0  0  0  0  0  0  0
  1  2  1  0
  2  3  1  0
  3  4  1  0
  4  5  2  0
  4  6  1  0
  2  7  1  0
  7  8  2  0
  7  9  1  0
  9 10  1  0
 10 11  2  0
 10 12  1  0
 12 13  1  0
 13 14  1  0
 14 15  1  0
 14 16  2  0
 13 17  2  0
 17 18  1  0
 18 19  2  0
 19 20  1  0
 20 21  2  0
 21 22  1  0
 21 23  1  0
 23 24  2  0
 24 12  1  0
 24 18  1  0
  1 25  1  0
  1 26  1  0
  1 27  1  0
  2 28  1  6
  3 29  1  0
  3 30  1  0
  9 31  1  0
  9 32  1  0
 15 33  1  0
 17 34  1  0
 19 35  1  0
 20 36  1  0
 22 37  1  0
 22 38  1  0
 23 39  1  0
M  CHG  3   2   1   6  -1  15  -1
M  END
>  <UniqueID>  (5) 
5

>  <SMILES>  (5) 
C[N@@H+](CC(=O)[O-])C(=O)CC(=O)n1c(C([NH-])=O)cc2ccc(N)cc21

>  <Energy>  (5) 
77.95205000221456

>  <Genealogy>  (5) 
C[NH+](CC(=O)[O-])C(=O)CC(=O)n1c(C([NH-])=O)cc2ccc(N)cc21 (protonated)
C[N@@H+](CC(=O)[O-])C(=O)CC(=O)n1c(C([NH-])=O)cc2ccc(N)cc21 (chirality)
C[N@@H+](CC(=O)[O-])C(=O)CC(=O)n1c(C([NH-])=O)cc2ccc(N)cc21 (3D coordinates assigned)
C[N@@H+](CC(=O)[O-])C(=O)CC(=O)n1c(C([NH-])=O)cc2ccc(N)cc21 (optimized conformer: 77.95205000221456 kcal/mol)

>  <smiles>  (5) 
CN(CC(=O)O)C(=O)CC(=O)n1c(C(N)=O)cc2ccc(N)cc21

>  <score_type>  (5) 
oracle

>  <origin>  (5) 
adg

>  <m_score__min__energy>  (5) 
-10.83

>  <m_primary>  (5) 
energy

$$$$
5:0
     RDKit          3D

 33 34  0  0  0  0  0  0  0  0999 V2000
   -3.8030   25.2650  -30.4500 N   0  0  0  0  0  0  0  0  0  0  0  0
   -5.2100   25.3360  -30.6680 C   0  0  0  0  0  0  0  0  0  0  0  0
   -5.8080   26.4270  -30.4750 O   0  0  0  0  0  0  0  0  0  0  0  0
   -5.9790   24.1400  -31.0740 C   0  0  0  0  0  0  0  0  0  0  0  0
   -7.3720   24.0780  -31.0570 C   0  0  0  0  0  0  0  0  0  0  0  0
   -7.6840   22.7920  -31.4350 C   0  0  0  0  0  0  0  0  0  0  0  0
   -8.9260   22.1850  -31.6040 C   0  0  0  0  0  0  0  0  0  0  0  0
   -8.9500   20.8480  -32.0380 C   0  0  0  0  0  0  0  0  0  0  0  0
   -7.7450   20.1540  -32.3010 C   0  0  0  0  0  0  0  0  0  0  0  0
   -7.7830   18.7990  -32.7550 N   0  0  0  0  0  0  0  0  0  0  0  0
   -6.5050   20.8020  -32.1220 C   0  0  0  0  0  0  0  0  0  0  0  0
   -6.5090   22.1260  -31.6690 C   0  0  0  0  0  0  0  0  0  0  0  0
   -5.4530   22.9400  -31.4510 N   0  0  0  0  0  0  0  0  0  0  0  0
   -4.0730   22.6110  -31.6640 C   0  0  0  0  0  0  0  0  0  0  0  0
   -3.6920   22.2410  -32.8070 O   0  0  0  0  0  0  0  0  0  0  0  0
   -3.1380   22.7050  -30.5770 N   0  0  0  0  0  0  0  0  0  0  0  0
   -1.7660   22.3010  -30.6560 C   0  0  0  0  0  0  0  0  0  0  0  0
   -1.3070   21.7860  -31.7130 O   0  0  0  0  0  0  0  0  0  0  0  0
   -0.9400   22.4750  -29.5390 O   0  0  0  0  0  0  0  0  0  0  0  0
   -0.3420   23.7220  -29.1930 C   0  0  0  0  0  0  0  0  0  0  0  0
   -1.3940   24.7350  -28.8730 C   0  0  0  0  0  0  0  0  0  0  0  0
   -2.4330   24.3910  -28.2500 O   0  0  0  0  0  0  0  0  0  0  0  0
   -1.2420   26.0530  -29.2820 O   0  0  0  0  0  0  0  0  0  0  0  0
   -3.3720   25.6680  -29.5880 H   0  0  0  0  0  0  0  0  0  0  0  0
   -8.0725   24.8853  -30.7968 H   0  0  0  0  0  0  0  0  0  0  0  0
   -9.8581   22.7339  -31.4044 H   0  0  0  0  0  0  0  0  0  0  0  0
   -9.9143   20.3366  -32.1744 H   0  0  0  0  0  0  0  0  0  0  0  0
   -8.4620   18.5010  -33.4910 H   0  0  0  0  0  0  0  0  0  0  0  0
   -7.1340   18.0840  -32.3590 H   0  0  0  0  0  0  0  0  0  0  0  0
   -5.5598   20.2804  -32.3329 H   0  0  0  0  0  0  0  0  0  0  0  0
   -3.4720   23.1090  -29.6720 H   0  0  0  0  0  0  0  0  0  0  0  0
    0.3052   23.5820  -28.3146 H   0  0  0  0  0  0  0  0  0  0  0  0
    0.2510   24.0818  -30.0467 H   0  0  0  0  0  0  0  0  0  0  0  0
  1  2  1  0
  2  3  2  0
  2  4  1  0
  4  5  2  0
  5  6  1  0
  6  7  2  0
  7  8  1  0
  8  9  2  0
  9 10  1  0
  9 11  1  0
 11 12  2  0
 12 13  1  0
 13 14  1  0
 14 15  2  0
 14 16  1  0
 16 17  1  0
 17 18  2  0
 17 19  1  0
 19 20  1  0
 20 21  1  0
 21 22  2  0
 21 23  1  0
 13  4  1  0
 12  6  1  0
  1 24  1  0
  5 25  1  0
  7 26  1  0
  8 27  1  0
 10 28  1  0
 10 29  1  0
 11 30  1  0
 16 31  1  0
 20 32  1  0
 20 33  1  0
M  CHG  2   1  -1  23  -1
M  END
>  <UniqueID>  (6) 
6

>  <SMILES>  (6) 
[NH-]C(=O)c1cc2ccc(N)cc2n1C(=O)NC(=O)OCC(=O)[O-]

>  <Energy>  (6) 
69.62821488974346

>  <Genealogy>  (6) 
[NH-]C(=O)c1cc2ccc(N)cc2n1C(=O)NC(=O)OCC(=O)[O-] (protonated)
[NH-]C(=O)c1cc2ccc(N)cc2n1C(=O)NC(=O)OCC(=O)[O-] (3D coordinates assigned)
[NH-]C(=O)c1cc2ccc(N)cc2n1C(=O)NC(=O)OCC(=O)[O-] (optimized conformer: 69.62821488974346 kcal/mol)

>  <smiles>  (6) 
NC(=O)c1cc2ccc(N)cc2n1C(=O)NC(=O)OCC(=O)O

>  <score_type>  (6) 
oracle

>  <origin>  (6) 
adg

>  <m_score__min__energy>  (6) 
-11.199999999999999

>  <m_primary>  (6) 
energy

$$$$
6:0
     RDKit          3D

 45 46  0  0  0  0  0  0  0  0999 V2000
   -6.5450   16.5240  -34.2000 C   0  0  0  0  0  0  0  0  0  0  0  0
   -6.4590   17.9300  -34.2750 O   0  0  0  0  0  0  0  0  0  0  0  0
   -5.1430   18.3460  -33.9760 C   0  0  0  0  0  0  0  0  0  0  0  0
   -5.0990   18.9160  -32.6720 O   0  0  0  0  0  0  0  0  0  0  0  0
   -6.2470   19.2710  -31.9600 C   0  0  0  0  0  0  0  0  0  0  0  0
   -7.0410   18.3800  -31.5500 O   0  0  0  0  0  0  0  0  0  0  0  0
   -6.5300   20.6570  -31.7030 N   0  0  0  0  0  0  0  0  0  0  0  0
   -7.6930   21.3280  -31.9460 C   0  0  0  0  0  0  0  0  0  0  0  0
   -8.9690   20.7200  -32.3740 C   0  0  0  0  0  0  0  0  0  0  0  0
   -8.9940   19.5300  -33.1650 N   0  0  0  0  0  0  0  0  0  0  0  0
  -10.0560   21.2250  -31.9850 O   0  0  0  0  0  0  0  0  0  0  0  0
   -7.5450   22.6860  -31.6780 C   0  0  0  0  0  0  0  0  0  0  0  0
   -6.2470   22.8310  -31.2450 C   0  0  0  0  0  0  0  0  0  0  0  0
   -5.5600   23.9750  -30.8450 C   0  0  0  0  0  0  0  0  0  0  0  0
   -4.2130   23.8360  -30.4680 C   0  0  0  0  0  0  0  0  0  0  0  0
   -3.5810   22.5720  -30.5200 C   0  0  0  0  0  0  0  0  0  0  0  0
   -2.2040   22.4450  -30.1270 N   0  0  0  0  0  0  0  0  0  0  0  0
   -1.2540   22.1230  -31.2000 C   0  0  0  0  0  0  0  0  0  0  0  0
   -1.7270   22.8670  -28.7840 C   0  0  2  0  0  0  0  0  0  0  0  0
   -0.5360   22.0030  -28.3090 C   0  0  0  0  0  0  0  0  0  0  0  0
   -2.8700   22.7270  -27.7970 C   0  0  0  0  0  0  0  0  0  0  0  0
   -3.3410   21.6320  -27.5280 O   0  0  0  0  0  0  0  0  0  0  0  0
   -1.2380   24.3030  -28.8450 C   0  0  0  0  0  0  0  0  0  0  0  0
   -0.0560   24.6020  -28.5210 O   0  0  0  0  0  0  0  0  0  0  0  0
   -2.0760   25.2960  -29.3420 O   0  0  0  0  0  0  0  0  0  0  0  0
   -4.3070   21.4330  -30.9280 C   0  0  0  0  0  0  0  0  0  0  0  0
   -5.6540   21.5930  -31.2720 C   0  0  0  0  0  0  0  0  0  0  0  0
   -6.5640   16.2136  -33.1449 H   0  0  0  0  0  0  0  0  0  0  0  0
   -7.4655   16.1858  -34.6983 H   0  0  0  0  0  0  0  0  0  0  0  0
   -5.6726   16.0762  -34.6983 H   0  0  0  0  0  0  0  0  0  0  0  0
   -4.4680   17.4785  -34.0177 H   0  0  0  0  0  0  0  0  0  0  0  0
   -4.8258   19.0999  -34.7115 H   0  0  0  0  0  0  0  0  0  0  0  0
   -9.9030   19.1400  -33.4960 H   0  0  0  0  0  0  0  0  0  0  0  0
   -8.1200   18.9890  -33.3510 H   0  0  0  0  0  0  0  0  0  0  0  0
   -8.3037   23.4747  -31.7887 H   0  0  0  0  0  0  0  0  0  0  0  0
   -6.0562   24.9565  -30.8248 H   0  0  0  0  0  0  0  0  0  0  0  0
   -3.6466   24.7164  -30.1302 H   0  0  0  0  0  0  0  0  0  0  0  0
   -0.2994   21.7994  -30.7596 H   0  0  0  0  0  0  0  0  0  0  0  0
   -1.6639   21.3136  -31.8220 H   0  0  0  0  0  0  0  0  0  0  0  0
   -1.0873   23.0148  -31.8220 H   0  0  0  0  0  0  0  0  0  0  0  0
   -0.5115   21.9852  -27.2094 H   0  0  0  0  0  0  0  0  0  0  0  0
   -0.6520   20.9776  -28.6898 H   0  0  0  0  0  0  0  0  0  0  0  0
    0.4028   22.4316  -28.6898 H   0  0  0  0  0  0  0  0  0  0  0  0
   -3.2819   23.6261  -27.3153 H   0  0  0  0  0  0  0  0  0  0  0  0
   -3.8265   20.4446  -30.9745 H   0  0  0  0  0  0  0  0  0  0  0  0
  1  2  1  0
  2  3  1  0
  3  4  1  0
  4  5  1  0
  5  6  2  0
  5  7  1  0
  7  8  1  0
  8  9  1  0
  9 10  1  0
  9 11  2  0
  8 12  2  0
 12 13  1  0
 13 14  2  0
 14 15  1  0
 15 16  2  0
 16 17  1  0
 17 18  1  0
 19 17  1  6
 19 20  1  0
 19 21  1  0
 21 22  2  0
 19 23  1  0
 23 24  2  0
 23 25  1  0
 16 26  1  0
 26 27  2  0
 27  7  1  0
 27 13  1  0
  1 28  1  0
  1 29  1  0
  1 30  1  0
  3 31  1  0
  3 32  1  0
 10 33  1  0
 10 34  1  0
 12 35  1  0
 14 36  1  0
 15 37  1  0
 18 38  1  0
 18 39  1  0
 18 40  1  0
 20 41  1  0
 20 42  1  0
 20 43  1  0
 21 44  1  0
 26 45  1  0
M  CHG  1  25  -1
M  END
>  <UniqueID>  (7) 
7

>  <SMILES>  (7) 
COCOC(=O)n1c(C(N)=O)cc2ccc(N(C)[C@](C)(C=O)C(=O)[O-])cc21

>  <Energy>  (7) 
91.29009326824568

>  <Genealogy>  (7) 
COCOC(=O)n1c(C(N)=O)cc2ccc(N(C)C(C)(C=O)C(=O)[O-])cc21 (protonated)
COCOC(=O)n1c(C(N)=O)cc2ccc(N(C)[C@](C)(C=O)C(=O)[O-])cc21 (chirality)
COCOC(=O)n1c(C(N)=O)cc2ccc(N(C)[C@](C)(C=O)C(=O)[O-])cc21 (3D coordinates assigned)
COCOC(=O)n1c(C(N)=O)cc2ccc(N(C)[C@](C)(C=O)C(=O)[O-])cc21 (optimized conformer: 91.29009326824568 kcal/mol)

>  <smiles>  (7) 
COCOC(=O)n1c(C(N)=O)cc2ccc(N(C)C(C)(C=O)C(=O)O)cc21

>  <score_type>  (7) 
oracle

>  <origin>  (7) 
adg

>  <m_score__min__energy>  (7) 
-9.4100000000000001

>  <m_primary>  (7) 
energy

$$$$
7:0
     RDKit          3D

 40 41  0  0  0  0  0  0  0  0999 V2000
   -6.1410   17.5420  -31.3030 C   0  0  0  0  0  0  0  0  0  0  0  0
   -6.8610   17.9320  -32.5200 N   0  0  0  0  0  0  0  0  0  0  0  0
   -6.8380   17.0260  -33.6780 C   0  0  0  0  0  0  0  0  0  0  0  0
   -5.6020   17.2730  -34.5460 C   0  0  0  0  0  0  0  0  0  0  0  0
   -5.7620   18.4310  -35.3200 O   0  0  0  0  0  0  0  0  0  0  0  0
   -7.5120   19.2200  -32.6160 C   0  0  0  0  0  0  0  0  0  0  0  0
   -8.7550   19.3110  -32.4200 O   0  0  0  0  0  0  0  0  0  0  0  0
   -6.7490   20.4790  -32.9370 C   0  0  0  0  0  0  0  0  0  0  0  0
   -5.3580   20.1750  -33.2780 N   0  0  0  0  0  0  0  0  0  0  0  0
   -4.2140   20.6740  -32.5580 C   0  0  0  0  0  0  0  0  0  0  0  0
   -3.0160   19.9160  -32.5670 C   0  0  0  0  0  0  0  0  0  0  0  0
   -1.8800   20.3550  -31.8690 C   0  0  0  0  0  0  0  0  0  0  0  0
   -1.9640   21.5590  -31.1790 C   0  0  0  0  0  0  0  0  0  0  0  0
   -1.0260   22.2030  -30.4040 C   0  0  0  0  0  0  0  0  0  0  0  0
   -1.6510   23.3630  -29.9530 C   0  0  0  0  0  0  0  0  0  0  0  0
   -0.9650   24.3960  -29.1510 C   0  0  0  0  0  0  0  0  0  0  0  0
   -1.5770   25.6700  -28.9610 N   0  0  0  0  0  0  0  0  0  0  0  0
    0.1400   24.1550  -28.5970 O   0  0  0  0  0  0  0  0  0  0  0  0
   -2.9290   23.4320  -30.4250 N   0  0  0  0  0  0  0  0  0  0  0  0
   -3.9210   24.4280  -30.1290 C   0  0  0  0  0  0  0  0  0  0  0  0
   -4.8100   24.2040  -29.2650 O   0  0  0  0  0  0  0  0  0  0  0  0
   -3.8950   25.6590  -30.7730 O   0  0  0  0  0  0  0  0  0  0  0  0
   -3.1040   22.3210  -31.1760 C   0  0  0  0  0  0  0  0  0  0  0  0
   -4.2560   21.9000  -31.8510 C   0  0  0  0  0  0  0  0  0  0  0  0
   -6.7176   17.8543  -30.4198 H   0  0  0  0  0  0  0  0  0  0  0  0
   -6.0105   16.4499  -31.2883 H   0  0  0  0  0  0  0  0  0  0  0  0
   -5.1550   18.0293  -31.2883 H   0  0  0  0  0  0  0  0  0  0  0  0
   -6.8238   15.9859  -33.3202 H   0  0  0  0  0  0  0  0  0  0  0  0
   -7.7353   17.2133  -34.2862 H   0  0  0  0  0  0  0  0  0  0  0  0
   -4.7225   17.3920  -33.8961 H   0  0  0  0  0  0  0  0  0  0  0  0
   -5.4661   16.4140  -35.2196 H   0  0  0  0  0  0  0  0  0  0  0  0
   -6.7360   18.6240  -35.3470 H   0  0  0  0  0  0  0  0  0  0  0  0
   -7.2272   20.9821  -33.7903 H   0  0  0  0  0  0  0  0  0  0  0  0
   -6.7590   21.1312  -32.0512 H   0  0  0  0  0  0  0  0  0  0  0  0
   -5.1940   19.5370  -34.0890 H   0  0  0  0  0  0  0  0  0  0  0  0
   -2.9761   18.9710  -33.1286 H   0  0  0  0  0  0  0  0  0  0  0  0
   -0.9519   19.7646  -31.8680 H   0  0  0  0  0  0  0  0  0  0  0  0
    0.0001   21.8715  -30.1869 H   0  0  0  0  0  0  0  0  0  0  0  0
   -2.6140   25.7790  -28.9950 H   0  0  0  0  0  0  0  0  0  0  0  0
   -5.1727   22.5077  -31.8325 H   0  0  0  0  0  0  0  0  0  0  0  0
  1  2  1  0
  2  3  1  0
  3  4  1  0
  4  5  1  0
  2  6  1  0
  6  7  2  0
  6  8  1  0
  8  9  1  0
  9 10  1  0
 10 11  2  0
 11 12  1  0
 12 13  2  0
 13 14  1  0
 14 15  2  0
 15 16  1  0
 16 17  1  0
 16 18  2  0
 15 19  1  0
 19 20  1  0
 20 21  2  0
 20 22  1  0
 19 23  1  0
 23 24  2  0
 24 10  1  0
 23 13  1  0
  1 25  1  0
  1 26  1  0
  1 27  1  0
  3 28  1  0
  3 29  1  0
  4 30  1  0
  4 31  1  0
  5 32  1  0
  8 33  1  0
  8 34  1  0
  9 35  1  0
 11 36  1  0
 12 37  1  0
 14 38  1  0
 17 39  1  0
 24 40  1  0
M  CHG  2  17  -1  22  -1
M  END
>  <UniqueID>  (8) 
8

>  <SMILES>  (8) 
CN(CCO)C(=O)CNc1ccc2cc(C([NH-])=O)n(C(=O)[O-])c2c1

>  <Energy>  (8) 
74.6865251942193

>  <Genealogy>  (8) 
CN(CCO)C(=O)CNc1ccc2cc(C([NH-])=O)n(C(=O)[O-])c2c1 (protonated)
CN(CCO)C(=O)CNc1ccc2cc(C([NH-])=O)n(C(=O)[O-])c2c1 (3D coordinates assigned)
CN(CCO)C(=O)CNc1ccc2cc(C([NH-])=O)n(C(=O)[O-])c2c1 (optimized conformer: 74.6865251942193 kcal/mol)

>  <smiles>  (8) 
CN(CCO)C(=O)CNc1ccc2cc(C(N)=O)n(C(=O)O)c2c1

>  <score_type>  (8) 
oracle

>  <origin>  (8) 
adg

>  <m_score__min__energy>  (8) 
-10.699999999999999

>  <m_primary>  (8) 
energy

$$$$
8:0
     RDKit          3D

 64 66  0  0  0  0  0  0  0  0999 V2000
    1.7720   24.4570  -24.4250 C   0  0  0  0  0  0  0  0  0  0  0  0
    0.4610   24.0860  -25.1450 C   0  0  0  0  0  0  0  0  0  0  0  0
   -0.5560   25.2190  -24.9320 C   0  0  0  0  0  0  0  0  0  0  0  0
   -0.1220   22.7790  -24.5720 C   0  0  0  0  0  0  0  0  0  0  0  0
    0.6760   23.9680  -26.5590 O   0  0  0  0  0  0  0  0  0  0  0  0
    0.2820   22.8950  -27.3760 C   0  0  0  0  0  0  0  0  0  0  0  0
    0.9720   21.8400  -27.4190 O   0  0  0  0  0  0  0  0  0  0  0  0
   -0.9150   23.0050  -28.1740 N   0  0  0  0  0  0  0  0  0  0  0  0
   -1.4390   21.8250  -28.8840 C   0  0  0  0  0  0  0  0  0  0  0  0
   -2.0800   22.2370  -30.2100 C   0  0  0  0  0  0  0  0  0  0  0  0
   -2.9920   23.3590  -29.9840 N   0  0  0  0  0  0  0  0  0  0  0  0
   -4.3770   23.2840  -30.3690 C   0  0  0  0  0  0  0  0  0  0  0  0
   -5.1970   24.4380  -30.3120 C   0  0  0  0  0  0  0  0  0  0  0  0
   -6.5480   24.3740  -30.6850 C   0  0  0  0  0  0  0  0  0  0  0  0
   -7.0550   23.1470  -31.1010 C   0  0  0  0  0  0  0  0  0  0  0  0
   -8.3190   22.8210  -31.5250 C   0  0  0  0  0  0  0  0  0  0  0  0
   -8.2630   21.4670  -31.8320 C   0  0  0  0  0  0  0  0  0  0  0  0
   -9.4170   20.7220  -32.3610 C   0  0  0  0  0  0  0  0  0  0  0  0
   -9.2250   19.5510  -33.1560 N   0  0  0  0  0  0  0  0  0  0  0  0
  -10.5810   21.1640  -32.1740 O   0  0  0  0  0  0  0  0  0  0  0  0
   -7.0210   20.9560  -31.5820 N   0  0  0  0  0  0  0  0  0  0  0  0
   -6.6290   19.5640  -31.6180 C   0  0  0  0  0  0  0  0  0  0  0  0
   -7.4880   18.6630  -31.4270 O   0  0  0  0  0  0  0  0  0  0  0  0
   -5.3020   19.2190  -31.9130 O   0  0  0  0  0  0  0  0  0  0  0  0
   -4.7060   19.1470  -33.2170 C   0  0  0  0  0  0  0  0  0  0  0  0
   -3.9040   17.8380  -33.2730 C   0  0  0  0  0  0  0  0  0  0  0  0
   -3.7450   20.3300  -33.4390 C   0  0  0  0  0  0  0  0  0  0  0  0
   -5.7920   19.1130  -34.3110 C   0  0  0  0  0  0  0  0  0  0  0  0
   -6.2850   22.0110  -31.1470 C   0  0  0  0  0  0  0  0  0  0  0  0
   -4.9270   22.0550  -30.7960 C   0  0  0  0  0  0  0  0  0  0  0  0
   -2.4400   24.5530  -29.3360 C   0  0  0  0  0  0  0  0  0  0  0  0
   -1.8070   24.1620  -27.9990 C   0  0  0  0  0  0  0  0  0  0  0  0
    1.6177   24.4133  -23.3368 H   0  0  0  0  0  0  0  0  0  0  0  0
    2.5616   23.7470  -24.7122 H   0  0  0  0  0  0  0  0  0  0  0  0
    2.0725   25.4755  -24.7122 H   0  0  0  0  0  0  0  0  0  0  0  0
   -0.7026   25.3823  -23.8541 H   0  0  0  0  0  0  0  0  0  0  0  0
   -0.1782   26.1426  -25.3947 H   0  0  0  0  0  0  0  0  0  0  0  0
   -1.5149   24.9428  -25.3947 H   0  0  0  0  0  0  0  0  0  0  0  0
   -0.1036   22.8202  -23.4729 H   0  0  0  0  0  0  0  0  0  0  0  0
   -1.1594   22.6580  -24.9171 H   0  0  0  0  0  0  0  0  0  0  0  0
    0.4811   21.9262  -24.9171 H   0  0  0  0  0  0  0  0  0  0  0  0
   -0.6130   21.1263  -29.0831 H   0  0  0  0  0  0  0  0  0  0  0  0
   -2.2019   21.3421  -28.2556 H   0  0  0  0  0  0  0  0  0  0  0  0
   -1.2947   22.5399  -30.9182 H   0  0  0  0  0  0  0  0  0  0  0  0
   -2.6410   21.3869  -30.6255 H   0  0  0  0  0  0  0  0  0  0  0  0
   -4.7704   25.3932  -29.9721 H   0  0  0  0  0  0  0  0  0  0  0  0
   -7.1878   25.2681  -30.6496 H   0  0  0  0  0  0  0  0  0  0  0  0
   -9.1897   23.4885  -31.6047 H   0  0  0  0  0  0  0  0  0  0  0  0
  -10.0470   19.0230  -33.5250 H   0  0  0  0  0  0  0  0  0  0  0  0
   -8.2630   19.2200  -33.3930 H   0  0  0  0  0  0  0  0  0  0  0  0
   -3.6928   17.4933  -32.2500 H   0  0  0  0  0  0  0  0  0  0  0  0
   -4.4883   17.0725  -33.8046 H   0  0  0  0  0  0  0  0  0  0  0  0
   -2.9566   18.0109  -33.8046 H   0  0  0  0  0  0  0  0  0  0  0  0
   -3.4220   20.7276  -32.4656 H   0  0  0  0  0  0  0  0  0  0  0  0
   -2.8662   19.9873  -34.0050 H   0  0  0  0  0  0  0  0  0  0  0  0
   -4.2605   21.1199  -34.0050 H   0  0  0  0  0  0  0  0  0  0  0  0
   -6.7857   19.0819  -33.8403 H   0  0  0  0  0  0  0  0  0  0  0  0
   -5.7106   20.0141  -34.9366 H   0  0  0  0  0  0  0  0  0  0  0  0
   -5.6544   18.2187  -34.9366 H   0  0  0  0  0  0  0  0  0  0  0  0
   -4.3034   21.1506  -30.8523 H   0  0  0  0  0  0  0  0  0  0  0  0
   -1.6750   25.0024  -29.9862 H   0  0  0  0  0  0  0  0  0  0  0  0
   -3.2462   25.2806  -29.1608 H   0  0  0  0  0  0  0  0  0  0  0  0
   -1.2267   25.0118  -27.6102 H   0  0  0  0  0  0  0  0  0  0  0  0
   -2.6048   23.8942  -27.2907 H   0  0  0  0  0  0  0  0  0  0  0  0
  1  2  1  0
  2  3  1  0
  2  4  1  0
  2  5  1  0
  5  6  1  0
  6  7  2  0
  6  8  1  0
  8  9  1  0
  9 10  1  0
 10 11  1  0
 11 12  1  0
 12 13  2  0
 13 14  1  0
 14 15  2  0
 15 16  1  0
 16 17  2  0
 17 18  1  0
 18 19  1  0
 18 20  2  0
 17 21  1  0
 21 22  1  0
 22 23  2  0
 22 24  1  0
 24 25  1  0
 25 26  1  0
 25 27  1  0
 25 28  1  0
 21 29  1  0
 29 30  2  0
 11 31  1  0
 31 32  1  0
 32  8  1  0
 30 12  1  0
 29 15  1  0
  1 33  1  0
  1 34  1  0
  1 35  1  0
  3 36  1  0
  3 37  1  0
  3 38  1  0
  4 39  1  0
  4 40  1  0
  4 41  1  0
  9 42  1  0
  9 43  1  0
 10 44  1  0
 10 45  1  0
 13 46  1  0
 14 47  1  0
 16 48  1  0
 19 49  1  0
 19 50  1  0
 26 51  1  0
 26 52  1  0
 26 53  1  0
 27 54  1  0
 27 55  1  0
 27 56  1  0
 28 57  1  0
 28 58  1  0
 28 59  1  0
 30 60  1  0
 31 61  1  0
 31 62  1  0
 32 63  1  0
 32 64  1  0
M  END
>  <UniqueID>  (9) 
9

>  <SMILES>  (9) 
CC(C)(C)OC(=O)N1CCN(c2ccc3cc(C(N)=O)n(C(=O)OC(C)(C)C)c3c2)CC1

>  <Energy>  (9) 
100.00831158849516

>  <Genealogy>  (9) 
CC(C)(C)OC(=O)N1CCN(c2ccc3cc(C(N)=O)n(C(=O)OC(C)(C)C)c3c2)CC1 (3D coordinates assigned)
CC(C)(C)OC(=O)N1CCN(c2ccc3cc(C(N)=O)n(C(=O)OC(C)(C)C)c3c2)CC1 (nonaromatic ring conformer: 100.00831158849516 kcal/mol)

>  <smiles>  (9) 
CC(C)(C)OC(=O)N1CCN(c2ccc3cc(C(N)=O)n(C(=O)OC(C)(C)C)c3c2)CC1

>  <score_type>  (9) 
oracle

>  <origin>  (9) 
adg

>  <m_score__min__energy>  (9) 
-9.6899999999999995

>  <m_primary>  (9) 
energy

$$$$
9:0
     RDKit          3D

 38 39  0  0  0  0  0  0  0  0999 V2000
   -3.9620   25.5780  -30.8640 N   0  0  0  0  0  0  0  0  0  0  0  0
   -5.1630   25.0100  -30.3460 C   0  0  0  0  0  0  0  0  0  0  0  0
   -5.7930   25.6210  -29.4430 O   0  0  0  0  0  0  0  0  0  0  0  0
   -5.6550   23.7010  -30.8250 C   0  0  0  0  0  0  0  0  0  0  0  0
   -6.9040   23.5160  -31.4170 C   0  0  0  0  0  0  0  0  0  0  0  0
   -6.9980   22.1630  -31.6550 C   0  0  0  0  0  0  0  0  0  0  0  0
   -8.0210   21.4250  -32.2400 C   0  0  0  0  0  0  0  0  0  0  0  0
   -7.8320   20.0410  -32.3880 C   0  0  0  0  0  0  0  0  0  0  0  0
   -6.6300   19.4190  -31.9660 C   0  0  0  0  0  0  0  0  0  0  0  0
   -6.4810   17.9970  -32.1490 N   0  0  0  0  0  0  0  0  0  0  0  0
   -6.6490   17.2970  -33.4240 C   0  0  0  0  0  0  0  0  0  0  0  0
   -5.6150   17.7690  -34.4510 C   0  0  0  0  0  0  0  0  0  0  0  0
   -6.0900   18.9630  -35.1450 N   0  0  0  0  0  0  0  0  0  0  0  0
   -5.6140   20.2070  -31.3700 C   0  0  0  0  0  0  0  0  0  0  0  0
   -5.8380   21.5800  -31.2180 C   0  0  0  0  0  0  0  0  0  0  0  0
   -5.0050   22.5100  -30.7060 N   0  0  0  0  0  0  0  0  0  0  0  0
   -3.6750   22.2800  -30.2190 C   0  0  0  0  0  0  0  0  0  0  0  0
   -3.1570   21.1360  -30.3310 O   0  0  0  0  0  0  0  0  0  0  0  0
   -2.9410   23.3470  -29.6010 N   0  0  0  0  0  0  0  0  0  0  0  0
   -1.5980   23.1640  -29.0600 C   0  0  0  0  0  0  0  0  0  0  0  0
   -0.8980   24.4820  -28.9600 C   0  0  0  0  0  0  0  0  0  0  0  0
    0.2940   24.5340  -28.5580 O   0  0  0  0  0  0  0  0  0  0  0  0
   -1.5700   25.6550  -29.2770 O   0  0  0  0  0  0  0  0  0  0  0  0
   -3.0300   25.3000  -30.4840 H   0  0  0  0  0  0  0  0  0  0  0  0
   -7.6546   24.2870  -31.6453 H   0  0  0  0  0  0  0  0  0  0  0  0
   -8.9493   21.9098  -32.5764 H   0  0  0  0  0  0  0  0  0  0  0  0
   -8.6287   19.4306  -32.8382 H   0  0  0  0  0  0  0  0  0  0  0  0
   -6.2220   17.4160  -31.3200 H   0  0  0  0  0  0  0  0  0  0  0  0
   -6.5254   16.2164  -33.2599 H   0  0  0  0  0  0  0  0  0  0  0  0
   -7.6542   17.5156  -33.8135 H   0  0  0  0  0  0  0  0  0  0  0  0
   -4.6722   18.0018  -33.9344 H   0  0  0  0  0  0  0  0  0  0  0  0
   -5.4562   16.9688  -35.1888 H   0  0  0  0  0  0  0  0  0  0  0  0
   -6.8680   19.3800  -34.5850 H   0  0  0  0  0  0  0  0  0  0  0  0
   -6.5070   18.6580  -36.0540 H   0  0  0  0  0  0  0  0  0  0  0  0
   -4.6713   19.7500  -31.0347 H   0  0  0  0  0  0  0  0  0  0  0  0
   -3.3770   24.2950  -29.5460 H   0  0  0  0  0  0  0  0  0  0  0  0
   -1.6677   22.7126  -28.0593 H   0  0  0  0  0  0  0  0  0  0  0  0
   -1.0276   22.5043  -29.7304 H   0  0  0  0  0  0  0  0  0  0  0  0
  1  2  1  0
  2  3  2  0
  2  4  1  0
  4  5  2  0
  5  6  1  0
  6  7  2  0
  7  8  1  0
  8  9  2  0
  9 10  1  0
 10 11  1  0
 11 12  1  0
 12 13  1  0
  9 14  1  0
 14 15  2  0
 15 16  1  0
 16 17  1  0
 17 18  2  0
 17 19  1  0
 19 20  1  0
 20 21  1  0
 21 22  2  0
 21 23  1  0
 16  4  1  0
 15  6  1  0
  1 24  1  0
  5 25  1  0
  7 26  1  0
  8 27  1  0
 10 28  1  0
 11 29  1  0
 11 30  1  0
 12 31  1  0
 12 32  1  0
 13 33  1  0
 13 34  1  0
 14 35  1  0
 19 36  1  0
 20 37  1  0
 20 38  1  0
M  CHG  2   1  -1  23  -1
M  END
>  <UniqueID>  (10) 
10

>  <SMILES>  (10) 
[NH-]C(=O)c1cc2ccc(NCCN)cc2n1C(=O)NCC(=O)[O-]

>  <Energy>  (10) 
70.57779668280028

>  <Genealogy>  (10) 
[NH-]C(=O)c1cc2ccc(NCCN)cc2n1C(=O)NCC(=O)[O-] (protonated)
[NH-]C(=O)c1cc2ccc(NCCN)cc2n1C(=O)NCC(=O)[O-] (3D coordinates assigned)
[NH-]C(=O)c1cc2ccc(NCCN)cc2n1C(=O)NCC(=O)[O-] (optimized conformer: 70.57779668280028 kcal/mol)

>  <smiles>  (10) 
NCCNc1ccc2cc(C(N)=O)n(C(=O)NCC(=O)O)c2c1

>  <score_type>  (10) 
oracle

>  <origin>  (10) 
adg

>  <m_score__min__energy>  (10) 
-11.869999999999999

>  <m_primary>  (10) 
energy

$$$$
10:0
     RDKit          3D

 39 41  0  0  0  0  0  0  0  0999 V2000
   -3.7090   15.8760  -33.8110 C   0  0  0  0  0  0  0  0  0  0  0  0
   -4.8160   16.8150  -33.4360 C   0  0  0  0  0  0  0  0  0  0  0  0
   -6.1620   16.3740  -33.4730 C   0  0  0  0  0  0  0  0  0  0  0  0
   -7.2120   17.2580  -33.1740 C   0  0  0  0  0  0  0  0  0  0  0  0
   -6.8860   18.5710  -32.8460 C   0  0  0  0  0  0  0  0  0  0  0  0
   -7.7050   19.6390  -32.5570 C   0  0  0  0  0  0  0  0  0  0  0  0
   -6.8450   20.7110  -32.3340 C   0  0  0  0  0  0  0  0  0  0  0  0
   -7.3100   22.0550  -31.9350 C   0  0  0  0  0  0  0  0  0  0  0  0
   -6.6930   23.2340  -32.4520 N   0  0  0  0  0  0  0  0  0  0  0  0
   -8.2320   22.1640  -31.0830 O   0  0  0  0  0  0  0  0  0  0  0  0
   -5.5480   20.3290  -32.4910 N   0  0  0  0  0  0  0  0  0  0  0  0
   -4.3850   21.1720  -32.4680 C   0  0  0  0  0  0  0  0  0  0  0  0
   -4.2120   22.0340  -33.3720 O   0  0  0  0  0  0  0  0  0  0  0  0
   -3.4490   21.0370  -31.4340 O   0  0  0  0  0  0  0  0  0  0  0  0
   -3.5970   21.6550  -30.1590 C   0  0  0  0  0  0  0  0  0  0  0  0
   -3.8990   23.1140  -30.3230 C   0  0  0  0  0  0  0  0  0  0  0  0
   -5.0150   23.5850  -30.8310 O   0  0  0  0  0  0  0  0  0  0  0  0
   -4.8990   24.8920  -30.8030 C   0  0  0  0  0  0  0  0  0  0  0  0
   -5.7900   25.6800  -31.2160 O   0  0  0  0  0  0  0  0  0  0  0  0
   -3.7540   25.2880  -30.2970 O   0  0  0  0  0  0  0  0  0  0  0  0
   -3.1000   24.1930  -29.9870 C   0  0  0  0  0  0  0  0  0  0  0  0
   -1.7420   24.1670  -29.3640 C   0  0  0  0  0  0  0  0  0  0  0  0
   -1.2950   25.4790  -29.1690 O   0  0  0  0  0  0  0  0  0  0  0  0
   -5.5880   19.0130  -32.8010 C   0  0  0  0  0  0  0  0  0  0  0  0
   -4.5230   18.1590  -33.1170 C   0  0  0  0  0  0  0  0  0  0  0  0
   -3.2405   15.4786  -32.8986 H   0  0  0  0  0  0  0  0  0  0  0  0
   -4.1182   15.0453  -34.4048 H   0  0  0  0  0  0  0  0  0  0  0  0
   -2.9562   16.4152  -34.4048 H   0  0  0  0  0  0  0  0  0  0  0  0
   -6.3867   15.3304  -33.7382 H   0  0  0  0  0  0  0  0  0  0  0  0
   -8.2595   16.9230  -33.1983 H   0  0  0  0  0  0  0  0  0  0  0  0
   -8.8041   19.6444  -32.5119 H   0  0  0  0  0  0  0  0  0  0  0  0
   -7.0610   24.1750  -32.1910 H   0  0  0  0  0  0  0  0  0  0  0  0
   -5.8230   23.1810  -33.0250 H   0  0  0  0  0  0  0  0  0  0  0  0
   -4.4220   21.1721  -29.6147 H   0  0  0  0  0  0  0  0  0  0  0  0
   -2.6591   21.5437  -29.5951 H   0  0  0  0  0  0  0  0  0  0  0  0
   -1.7925   23.6486  -28.3951 H   0  0  0  0  0  0  0  0  0  0  0  0
   -1.0436   23.6355  -30.0271 H   0  0  0  0  0  0  0  0  0  0  0  0
   -2.0820   26.0640  -29.3310 H   0  0  0  0  0  0  0  0  0  0  0  0
   -3.4860   18.5259  -33.1166 H   0  0  0  0  0  0  0  0  0  0  0  0
  1  2  1  0
  2  3  2  0
  3  4  1  0
  4  5  2  0
  5  6  1  0
  6  7  2  0
  7  8  1  0
  8  9  1  0
  8 10  2  0
  7 11  1  0
 11 12  1  0
 12 13  2  0
 12 14  1  0
 14 15  1  0
 15 16  1  0
 16 17  1  0
 17 18  1  0
 18 19  2  0
 18 20  1  0
 20 21  1  0
 21 22  1  0
 22 23  1  0
 11 24  1  0
 24 25  2  0
 25  2  1  0
 24  5  1  0
 21 16  2  0
  1 26  1  0
  1 27  1  0
  1 28  1  0
  3 29  1  0
  4 30  1  0
  6 31  1  0
  9 32  1  0
  9 33  1  0
 15 34  1  0
 15 35  1  0
 22 36  1  0
 22 37  1  0
 23 38  1  0
 25 39  1  0
M  END
>  <UniqueID>  (11) 
11

>  <SMILES>  (11) 
Cc1ccc2cc(C(N)=O)n(C(=O)OCc3oc(=O)oc3CO)c2c1

>  <Energy>  (11) 
109.06241768826605

>  <Genealogy>  (11) 
Cc1ccc2cc(C(N)=O)n(C(=O)OCc3oc(=O)oc3CO)c2c1 (3D coordinates assigned)
Cc1ccc2cc(C(N)=O)n(C(=O)OCc3oc(=O)oc3CO)c2c1 (optimized conformer: 109.06241768826605 kcal/mol)

>  <smiles>  (11) 
Cc1ccc2cc(C(N)=O)n(C(=O)OCc3oc(=O)oc3CO)c2c1

>  <score_type>  (11) 
oracle

>  <origin>  (11) 
adg

>  <m_score__min__energy>  (11) 
-8.8399999999999999

>  <m_primary>  (11) 
energy

$$$$
11:0
     RDKit          3D

 49 51  0  0  0  0  0  0  0  0999 V2000
   -8.3030   22.0440  -31.9090 C   0  0  0  0  0  0  0  0  0  0  0  0
   -7.3330   21.0130  -32.2980 N   0  0  0  0  0  0  0  0  0  0  0  0
   -7.7880   19.9070  -33.1550 C   0  0  0  0  0  0  0  0  0  0  0  0
   -8.0470   18.6690  -32.3430 C   0  0  0  0  0  0  0  0  0  0  0  0
   -9.0970   18.5880  -31.6460 O   0  0  0  0  0  0  0  0  0  0  0  0
   -7.1310   17.5610  -32.3830 N   0  0  0  0  0  0  0  0  0  0  0  0
   -6.3050   17.3720  -31.1850 C   0  0  0  0  0  0  0  0  0  0  0  0
   -6.7090   16.9270  -33.6550 C   0  0  1  0  0  0  0  0  0  0  0  0
   -5.9130   17.9070  -34.5170 C   0  0  0  0  0  0  0  0  0  0  0  0
   -4.4530   17.4750  -34.4090 C   0  0  0  0  0  0  0  0  0  0  0  0
   -4.3850   16.3210  -33.5160 N   0  0  0  0  0  0  0  0  0  0  0  0
   -5.7300   15.7580  -33.4910 C   0  0  0  0  0  0  0  0  0  0  0  0
   -5.9480   21.1270  -31.8880 C   0  0  0  0  0  0  0  0  0  0  0  0
   -5.0380   20.0610  -32.1170 C   0  0  0  0  0  0  0  0  0  0  0  0
   -3.6980   20.1490  -31.7080 C   0  0  0  0  0  0  0  0  0  0  0  0
   -3.2840   21.3160  -31.0800 C   0  0  0  0  0  0  0  0  0  0  0  0
   -2.0550   21.6480  -30.5590 C   0  0  0  0  0  0  0  0  0  0  0  0
   -2.2130   22.9310  -30.0430 C   0  0  0  0  0  0  0  0  0  0  0  0
   -1.1070   23.7100  -29.4500 C   0  0  0  0  0  0  0  0  0  0  0  0
   -1.1940   25.1290  -29.3120 N   0  0  0  0  0  0  0  0  0  0  0  0
   -0.0440   23.1220  -29.1150 O   0  0  0  0  0  0  0  0  0  0  0  0
   -3.4910   23.3710  -30.2210 N   0  0  0  0  0  0  0  0  0  0  0  0
   -4.0710   24.5890  -29.7240 C   0  0  0  0  0  0  0  0  0  0  0  0
   -3.9550   25.6600  -30.3770 O   0  0  0  0  0  0  0  0  0  0  0  0
   -4.7610   24.6010  -28.5180 O   0  0  0  0  0  0  0  0  0  0  0  0
   -4.1350   22.3680  -30.8610 C   0  0  0  0  0  0  0  0  0  0  0  0
   -5.4830   22.2960  -31.2360 C   0  0  0  0  0  0  0  0  0  0  0  0
   -8.3570   22.1014  -30.8118 H   0  0  0  0  0  0  0  0  0  0  0  0
   -7.9853   23.0170  -32.3119 H   0  0  0  0  0  0  0  0  0  0  0  0
   -9.2936   21.7861  -32.3119 H   0  0  0  0  0  0  0  0  0  0  0  0
   -8.7168   20.2046  -33.6637 H   0  0  0  0  0  0  0  0  0  0  0  0
   -7.0002   19.6859  -33.8902 H   0  0  0  0  0  0  0  0  0  0  0  0
   -6.9240   17.5136  -30.2868 H   0  0  0  0  0  0  0  0  0  0  0  0
   -5.8862   16.3548  -31.1851 H   0  0  0  0  0  0  0  0  0  0  0  0
   -5.4856   18.1059  -31.1851 H   0  0  0  0  0  0  0  0  0  0  0  0
   -7.6617   16.5932  -34.0919 H   0  0  0  0  0  0  0  0  0  0  0  0
   -6.2499   17.8564  -35.5629 H   0  0  0  0  0  0  0  0  0  0  0  0
   -6.0516   18.9445  -34.1788 H   0  0  0  0  0  0  0  0  0  0  0  0
   -4.0713   17.1998  -35.4033 H   0  0  0  0  0  0  0  0  0  0  0  0
   -3.8405   18.2988  -34.0137 H   0  0  0  0  0  0  0  0  0  0  0  0
   -3.7230   15.6120  -33.9090 H   0  0  0  0  0  0  0  0  0  0  0  0
   -5.8551   15.0419  -34.3166 H   0  0  0  0  0  0  0  0  0  0  0  0
   -5.9135   15.2219  -32.5482 H   0  0  0  0  0  0  0  0  0  0  0  0
   -5.3894   19.1502  -32.6239 H   0  0  0  0  0  0  0  0  0  0  0  0
   -2.9973   19.3186  -31.8798 H   0  0  0  0  0  0  0  0  0  0  0  0
   -1.1436   21.0322  -30.5517 H   0  0  0  0  0  0  0  0  0  0  0  0
   -1.9960   25.6630  -29.7210 H   0  0  0  0  0  0  0  0  0  0  0  0
   -0.4060   25.6650  -28.8860 H   0  0  0  0  0  0  0  0  0  0  0  0
   -6.1677   23.1315  -31.0281 H   0  0  0  0  0  0  0  0  0  0  0  0
  1  2  1  0
  2  3  1  0
  3  4  1  0
  4  5  2  0
  4  6  1  0
  6  7  1  0
  6  8  1  0
  8  9  1  0
  9 10  1  0
 10 11  1  0
 11 12  1  0
  2 13  1  0
 13 14  2  0
 14 15  1  0
 15 16  2  0
 16 17  1  0
 17 18  2  0
 18 19  1  0
 19 20  1  0
 19 21  2  0
 18 22  1  0
 22 23  1  0
 23 24  2  0
 23 25  1  0
 22 26  1  0
 26 27  2  0
 12  8  1  0
 27 13  1  0
 26 16  1  0
  1 28  1  0
  1 29  1  0
  1 30  1  0
  3 31  1  0
  3 32  1  0
  7 33  1  0
  7 34  1  0
  7 35  1  0
  8 36  1  6
  9 37  1  0
  9 38  1  0
 10 39  1  0
 10 40  1  0
 11 41  1  0
 12 42  1  0
 12 43  1  0
 14 44  1  0
 15 45  1  0
 17 46  1  0
 20 47  1  0
 20 48  1  0
 27 49  1  0
M  CHG  1  25  -1
M  END
>  <UniqueID>  (12) 
12

>  <SMILES>  (12) 
CN(CC(=O)N(C)[C@H]1CCNC1)c1ccc2cc(C(N)=O)n(C(=O)[O-])c2c1

>  <Energy>  (12) 
98.57109071726394

>  <Genealogy>  (12) 
CN(CC(=O)N(C)C1CCNC1)c1ccc2cc(C(N)=O)n(C(=O)[O-])c2c1 (protonated)
CN(CC(=O)N(C)[C@H]1CCNC1)c1ccc2cc(C(N)=O)n(C(=O)[O-])c2c1 (chirality)
CN(CC(=O)N(C)[C@H]1CCNC1)c1ccc2cc(C(N)=O)n(C(=O)[O-])c2c1 (3D coordinates assigned)
CN(CC(=O)N(C)[C@H]1CCNC1)c1ccc2cc(C(N)=O)n(C(=O)[O-])c2c1 (nonaromatic ring conformer: 98.57109071726394 kcal/mol)

>  <smiles>  (12) 
CN(CC(=O)N(C)C1CCNC1)c1ccc2cc(C(N)=O)n(C(=O)O)c2c1

>  <score_type>  (12) 
oracle

>  <origin>  (12) 
adg

>  <m_score__min__energy>  (12) 
-9.5399999999999991

>  <m_primary>  (12) 
energy

$$$$
12:0
     RDKit          3D

 45 46  0  0  0  0  0  0  0  0999 V2000
   -3.5540   20.0730  -31.4000 C   0  0  0  0  0  0  0  0  0  0  0  0
   -3.5590   21.2540  -30.5360 N   0  0  0  0  0  0  0  0  0  0  0  0
   -3.1590   21.1410  -29.1250 C   0  0  0  0  0  0  0  0  0  0  0  0
   -3.0180   22.5050  -28.4910 C   0  0  0  0  0  0  0  0  0  0  0  0
   -3.7950   22.8330  -27.6020 O   0  0  0  0  0  0  0  0  0  0  0  0
   -1.9410   23.3920  -28.8980 N   0  0  2  0  0  0  0  0  0  0  0  0
   -0.8520   22.6520  -29.5610 C   0  0  0  0  0  0  0  0  0  0  0  0
   -1.4590   24.2280  -27.7760 C   0  0  0  0  0  0  0  0  0  0  0  0
   -1.1890   25.6620  -28.1520 C   0  0  0  0  0  0  0  0  0  0  0  0
   -1.2360   26.0260  -29.3570 O   0  0  0  0  0  0  0  0  0  0  0  0
   -0.8810   26.5880  -27.1690 O   0  0  0  0  0  0  0  0  0  0  0  0
   -3.9680   22.5250  -31.0790 C   0  0  0  0  0  0  0  0  0  0  0  0
   -3.1270   23.2870  -31.6290 O   0  0  0  0  0  0  0  0  0  0  0  0
   -5.3410   22.9300  -31.0250 N   0  0  0  0  0  0  0  0  0  0  0  0
   -5.8330   24.1710  -30.7660 C   0  0  0  0  0  0  0  0  0  0  0  0
   -5.0230   25.3680  -30.4580 C   0  0  0  0  0  0  0  0  0  0  0  0
   -3.6610   25.2480  -30.0570 N   0  0  0  0  0  0  0  0  0  0  0  0
   -5.5380   26.5140  -30.5540 O   0  0  0  0  0  0  0  0  0  0  0  0
   -7.2270   24.1660  -30.8530 C   0  0  0  0  0  0  0  0  0  0  0  0
   -7.5670   22.8690  -31.1790 C   0  0  0  0  0  0  0  0  0  0  0  0
   -8.8140   22.3010  -31.4180 C   0  0  0  0  0  0  0  0  0  0  0  0
   -8.8590   20.9440  -31.7790 C   0  0  0  0  0  0  0  0  0  0  0  0
   -7.6670   20.1830  -31.9130 C   0  0  0  0  0  0  0  0  0  0  0  0
   -7.7360   18.7250  -32.2860 C   0  0  0  0  0  0  0  0  0  0  0  0
   -7.1620   18.5180  -33.5270 F   0  0  0  0  0  0  0  0  0  0  0  0
   -9.0600   18.3300  -32.3280 F   0  0  0  0  0  0  0  0  0  0  0  0
   -7.0600   17.9460  -31.3620 F   0  0  0  0  0  0  0  0  0  0  0  0
   -6.4210   20.7920  -31.6310 C   0  0  0  0  0  0  0  0  0  0  0  0
   -6.4090   22.1440  -31.2740 C   0  0  0  0  0  0  0  0  0  0  0  0
   -3.5502   19.1647  -30.7795 H   0  0  0  0  0  0  0  0  0  0  0  0
   -4.4522   20.0794  -32.0350 H   0  0  0  0  0  0  0  0  0  0  0  0
   -2.6559   20.0870  -32.0350 H   0  0  0  0  0  0  0  0  0  0  0  0
   -3.9231   20.5680  -28.5793 H   0  0  0  0  0  0  0  0  0  0  0  0
   -2.1862   20.6299  -29.0765 H   0  0  0  0  0  0  0  0  0  0  0  0
   -2.3260   24.0530  -29.6150 H   0  0  0  0  0  0  0  0  0  0  0  0
   -0.1953   22.2058  -28.7996 H   0  0  0  0  0  0  0  0  0  0  0  0
   -1.2788   21.8562  -30.1891 H   0  0  0  0  0  0  0  0  0  0  0  0
   -0.2692   23.3419  -30.1891 H   0  0  0  0  0  0  0  0  0  0  0  0
   -2.2215   24.2160  -26.9833 H   0  0  0  0  0  0  0  0  0  0  0  0
   -0.5005   23.7990  -27.4484 H   0  0  0  0  0  0  0  0  0  0  0  0
   -2.8880   25.2910  -30.7590 H   0  0  0  0  0  0  0  0  0  0  0  0
   -7.9085   25.0149  -30.6953 H   0  0  0  0  0  0  0  0  0  0  0  0
   -9.7353   22.8952  -31.3273 H   0  0  0  0  0  0  0  0  0  0  0  0
   -9.8318   20.4636  -31.9606 H   0  0  0  0  0  0  0  0  0  0  0  0
   -5.4856   20.2164  -31.6911 H   0  0  0  0  0  0  0  0  0  0  0  0
  1  2  1  0
  2  3  1  0
  3  4  1  0
  4  5  2  0
  4  6  1  0
  6  7  1  0
  6  8  1  0
  8  9  1  0
  9 10  2  0
  9 11  1  0
  2 12  1  0
 12 13  2  0
 12 14  1  0
 14 15  1  0
 15 16  1  0
 16 17  1  0
 16 18  2  0
 15 19  2  0
 19 20  1  0
 20 21  2  0
 21 22  1  0
 22 23  2  0
 23 24  1  0
 24 25  1  0
 24 26  1  0
 24 27  1  0
 23 28  1  0
 28 29  2  0
 29 14  1  0
 29 20  1  0
  1 30  1  0
  1 31  1  0
  1 32  1  0
  3 33  1  0
  3 34  1  0
  6 35  1  6
  7 36  1  0
  7 37  1  0
  7 38  1  0
  8 39  1  0
  8 40  1  0
 17 41  1  0
 19 42  1  0
 21 43  1  0
 22 44  1  0
 28 45  1  0
M  CHG  3   6   1  11  -1  17  -1
M  END
>  <UniqueID>  (13) 
13

>  <SMILES>  (13) 
CN(CC(=O)[N@H+](C)CC(=O)[O-])C(=O)n1c(C([NH-])=O)cc2ccc(C(F)(F)F)cc21

>  <Energy>  (13) 
85.78384521883558

>  <Genealogy>  (13) 
CN(CC(=O)[NH+](C)CC(=O)[O-])C(=O)n1c(C([NH-])=O)cc2ccc(C(F)(F)F)cc21 (protonated)
CN(CC(=O)[N@H+](C)CC(=O)[O-])C(=O)n1c(C([NH-])=O)cc2ccc(C(F)(F)F)cc21 (chirality)
CN(CC(=O)[N@H+](C)CC(=O)[O-])C(=O)n1c(C([NH-])=O)cc2ccc(C(F)(F)F)cc21 (3D coordinates assigned)
CN(CC(=O)[N@H+](C)CC(=O)[O-])C(=O)n1c(C([NH-])=O)cc2ccc(C(F)(F)F)cc21 (optimized conformer: 85.78384521883558 kcal/mol)

>  <smiles>  (13) 
CN(CC(=O)O)C(=O)CN(C)C(=O)n1c(C(N)=O)cc2ccc(C(F)(F)F)cc21

>  <score_type>  (13) 
oracle

>  <origin>  (13) 
adg

>  <m_score__min__energy>  (13) 
-11.1

>  <m_primary>  (13) 
energy

$$$$
13:0
     RDKit          3D

 48 49  0  0  0  0  0  0  0  0999 V2000
   -2.7100   20.2040  -27.4670 C   0  0  0  0  0  0  0  0  0  0  0  0
   -2.6320   21.4280  -27.8480 N   0  0  0  0  0  0  0  0  0  0  0  0
   -3.5950   22.0200  -28.7490 C   0  0  0  0  0  0  0  0  0  0  0  0
   -2.9180   22.5770  -29.9260 N   0  0  0  0  0  0  0  0  0  0  0  0
   -1.7350   23.3760  -29.7190 C   0  0  0  0  0  0  0  0  0  0  0  0
   -0.6110   22.9520  -30.0940 O   0  0  0  0  0  0  0  0  0  0  0  0
   -1.8520   24.6390  -29.1120 O   0  0  0  0  0  0  0  0  0  0  0  0
   -1.4560   24.9760  -27.7720 C   0  0  0  0  0  0  0  0  0  0  0  0
   -0.8710   26.4020  -27.7150 C   0  0  0  0  0  0  0  0  0  0  0  0
   -2.7190   24.9230  -26.8990 C   0  0  0  0  0  0  0  0  0  0  0  0
   -0.4390   23.9500  -27.2380 C   0  0  0  0  0  0  0  0  0  0  0  0
   -3.4960   22.3930  -31.2390 C   0  0  0  0  0  0  0  0  0  0  0  0
   -2.7650   22.0490  -32.2070 O   0  0  0  0  0  0  0  0  0  0  0  0
   -4.9000   22.5770  -31.4720 N   0  0  0  0  0  0  0  0  0  0  0  0
   -5.6870   23.5730  -30.9760 C   0  0  0  0  0  0  0  0  0  0  0  0
   -5.2060   24.7970  -30.3030 C   0  0  0  0  0  0  0  0  0  0  0  0
   -5.7360   25.2070  -29.0380 N   0  0  0  0  0  0  0  0  0  0  0  0
   -4.2660   25.4580  -30.8210 O   0  0  0  0  0  0  0  0  0  0  0  0
   -7.0330   23.2840  -31.1940 C   0  0  0  0  0  0  0  0  0  0  0  0
   -7.0460   22.0710  -31.8450 C   0  0  0  0  0  0  0  0  0  0  0  0
   -8.1160   21.2830  -32.2570 C   0  0  0  0  0  0  0  0  0  0  0  0
   -7.8340   20.0370  -32.8410 C   0  0  0  0  0  0  0  0  0  0  0  0
   -6.4910   19.6090  -33.0250 C   0  0  0  0  0  0  0  0  0  0  0  0
   -6.2100   18.2440  -33.5970 C   0  0  0  0  0  0  0  0  0  0  0  0
   -5.0270   17.7660  -33.0610 F   0  0  0  0  0  0  0  0  0  0  0  0
   -7.2350   17.3700  -33.2800 F   0  0  0  0  0  0  0  0  0  0  0  0
   -6.0900   18.2930  -34.9750 F   0  0  0  0  0  0  0  0  0  0  0  0
   -5.4300   20.4340  -32.5790 C   0  0  0  0  0  0  0  0  0  0  0  0
   -5.7450   21.6650  -31.9960 C   0  0  0  0  0  0  0  0  0  0  0  0
   -1.9558   19.7927  -26.7800 H   0  0  0  0  0  0  0  0  0  0  0  0
   -3.5310   19.5670  -27.8277 H   0  0  0  0  0  0  0  0  0  0  0  0
   -4.3101   21.2494  -29.0728 H   0  0  0  0  0  0  0  0  0  0  0  0
   -4.1240   22.8295  -28.2248 H   0  0  0  0  0  0  0  0  0  0  0  0
   -0.7465   26.7055  -26.6651 H   0  0  0  0  0  0  0  0  0  0  0  0
    0.1063   26.4178  -28.2196 H   0  0  0  0  0  0  0  0  0  0  0  0
   -1.5556   27.0996  -28.2196 H   0  0  0  0  0  0  0  0  0  0  0  0
   -2.4316   24.9351  -25.8373 H   0  0  0  0  0  0  0  0  0  0  0  0
   -3.3525   25.7954  -27.1173 H   0  0  0  0  0  0  0  0  0  0  0  0
   -3.2772   24.0006  -27.1173 H   0  0  0  0  0  0  0  0  0  0  0  0
   -0.4500   23.9611  -26.1381 H   0  0  0  0  0  0  0  0  0  0  0  0
   -0.7082   22.9458  -27.5973 H   0  0  0  0  0  0  0  0  0  0  0  0
    0.5676   24.2103  -27.5973 H   0  0  0  0  0  0  0  0  0  0  0  0
   -6.3980   24.6050  -28.5010 H   0  0  0  0  0  0  0  0  0  0  0  0
   -5.3770   26.0760  -28.5800 H   0  0  0  0  0  0  0  0  0  0  0  0
   -7.9010   23.8956  -30.9067 H   0  0  0  0  0  0  0  0  0  0  0  0
   -9.1533   21.6260  -32.1291 H   0  0  0  0  0  0  0  0  0  0  0  0
   -8.6612   19.3855  -33.1593 H   0  0  0  0  0  0  0  0  0  0  0  0
   -4.3833   20.1140  -32.6886 H   0  0  0  0  0  0  0  0  0  0  0  0
  1  2  2  0
  2  3  1  0
  3  4  1  0
  4  5  1  0
  5  6  2  0
  5  7  1  0
  7  8  1  0
  8  9  1  0
  8 10  1  0
  8 11  1  0
  4 12  1  0
 12 13  2  0
 12 14  1  0
 14 15  1  0
 15 16  1  0
 16 17  1  0
 16 18  2  0
 15 19  2  0
 19 20  1  0
 20 21  2  0
 21 22  1  0
 22 23  2  0
 23 24  1  0
 24 25  1  0
 24 26  1  0
 24 27  1  0
 23 28  1  0
 28 29  2  0
 29 14  1  0
 29 20  1  0
  1 30  1  0
  1 31  1  0
  3 32  1  0
  3 33  1  0
  9 34  1  0
  9 35  1  0
  9 36  1  0
 10 37  1  0
 10 38  1  0
 10 39  1  0
 11 40  1  0
 11 41  1  0
 11 42  1  0
 17 43  1  0
 17 44  1  0
 19 45  1  0
 21 46  1  0
 22 47  1  0
 28 48  1  0
M  END
>  <UniqueID>  (14) 
14

>  <SMILES>  (14) 
C=NCN(C(=O)OC(C)(C)C)C(=O)n1c(C(N)=O)cc2ccc(C(F)(F)F)cc21

>  <Energy>  (14) 
83.93316086821216

>  <Genealogy>  (14) 
C=NCN(C(=O)OC(C)(C)C)C(=O)n1c(C(N)=O)cc2ccc(C(F)(F)F)cc21 (3D coordinates assigned)
C=NCN(C(=O)OC(C)(C)C)C(=O)n1c(C(N)=O)cc2ccc(C(F)(F)F)cc21 (optimized conformer: 83.93316086821216 kcal/mol)

>  <smiles>  (14) 
C=NCN(C(=O)OC(C)(C)C)C(=O)n1c(C(N)=O)cc2ccc(C(F)(F)F)cc21

>  <score_type>  (14) 
oracle

>  <origin>  (14) 
adg

>  <m_score__min__energy>  (14) 
-8.9499999999999993

>  <m_primary>  (14) 
energy

$$$$
14:0
     RDKit          3D

 42 44  0  0  0  0  0  0  0  0999 V2000
   -3.6930   25.0920  -30.4920 N   0  0  0  0  0  0  0  0  0  0  0  0
   -5.1160   25.1650  -30.4320 C   0  0  0  0  0  0  0  0  0  0  0  0
   -5.6650   26.2270  -30.0360 O   0  0  0  0  0  0  0  0  0  0  0  0
   -5.9290   24.0040  -30.8500 C   0  0  0  0  0  0  0  0  0  0  0  0
   -7.2930   24.0610  -31.1350 C   0  0  0  0  0  0  0  0  0  0  0  0
   -7.6600   22.7650  -31.4270 C   0  0  0  0  0  0  0  0  0  0  0  0
   -8.9030   22.2360  -31.7600 C   0  0  0  0  0  0  0  0  0  0  0  0
   -8.9890   20.8510  -31.9880 C   0  0  0  0  0  0  0  0  0  0  0  0
   -7.8370   20.0230  -31.8860 C   0  0  0  0  0  0  0  0  0  0  0  0
   -7.9560   18.5330  -32.0760 C   0  0  0  0  0  0  0  0  0  0  0  0
   -7.5650   18.1720  -33.3550 F   0  0  0  0  0  0  0  0  0  0  0  0
   -9.2630   18.1180  -31.8910 F   0  0  0  0  0  0  0  0  0  0  0  0
   -7.1450   17.8930  -31.1580 F   0  0  0  0  0  0  0  0  0  0  0  0
   -6.5980   20.5990  -31.5190 C   0  0  0  0  0  0  0  0  0  0  0  0
   -6.5460   21.9780  -31.3060 C   0  0  0  0  0  0  0  0  0  0  0  0
   -5.4790   22.7240  -30.9590 N   0  0  0  0  0  0  0  0  0  0  0  0
   -4.1570   22.2350  -30.6940 C   0  0  0  0  0  0  0  0  0  0  0  0
   -3.8570   21.8540  -29.5320 O   0  0  0  0  0  0  0  0  0  0  0  0
   -3.1610   22.1650  -31.7660 C   0  0  0  0  0  0  0  0  0  0  0  0
   -3.5270   22.2940  -32.9690 O   0  0  0  0  0  0  0  0  0  0  0  0
   -1.8110   21.9940  -31.4450 O   0  0  0  0  0  0  0  0  0  0  0  0
   -1.3660   21.1540  -30.3830 C   0  0  0  0  0  0  0  0  0  0  0  0
   -1.1220   21.9640  -29.1390 C   0  0  0  0  0  0  0  0  0  0  0  0
   -0.4950   21.4660  -28.2130 O   0  0  0  0  0  0  0  0  0  0  0  0
   -1.6790   23.3030  -29.0320 N   0  0  2  0  0  0  0  0  0  0  0  0
   -0.7120   24.4060  -28.8760 C   0  0  0  0  0  0  0  0  0  0  0  0
   -1.2360   24.7630  -27.4950 C   0  0  1  0  0  0  0  0  0  0  0  0
   -1.9020   25.9760  -27.4820 F   0  0  0  0  0  0  0  0  0  0  0  0
   -2.1850   23.5940  -27.6830 C   0  0  0  0  0  0  0  0  0  0  0  0
   -3.1570   25.6440  -31.1950 H   0  0  0  0  0  0  0  0  0  0  0  0
   -7.9389   24.9514  -31.1282 H   0  0  0  0  0  0  0  0  0  0  0  0
   -9.7904   22.8808  -31.8423 H   0  0  0  0  0  0  0  0  0  0  0  0
   -9.9591   20.4025  -32.2484 H   0  0  0  0  0  0  0  0  0  0  0  0
   -5.6985   19.9763  -31.4044 H   0  0  0  0  0  0  0  0  0  0  0  0
   -2.1342   20.3944  -30.1758 H   0  0  0  0  0  0  0  0  0  0  0  0
   -0.4252   20.6691  -30.6826 H   0  0  0  0  0  0  0  0  0  0  0  0
   -2.3970   23.5030  -29.7700 H   0  0  0  0  0  0  0  0  0  0  0  0
    0.3365   24.0733  -28.8749 H   0  0  0  0  0  0  0  0  0  0  0  0
   -0.6667   25.1885  -29.6478 H   0  0  0  0  0  0  0  0  0  0  0  0
   -0.5824   24.8735  -26.6171 H   0  0  0  0  0  0  0  0  0  0  0  0
   -2.0182   22.7756  -26.9672 H   0  0  0  0  0  0  0  0  0  0  0  0
   -3.2638   23.7591  -27.5453 H   0  0  0  0  0  0  0  0  0  0  0  0
  1  2  1  0
  2  3  2  0
  2  4  1  0
  4  5  2  0
  5  6  1  0
  6  7  2  0
  7  8  1  0
  8  9  2  0
  9 10  1  0
 10 11  1  0
 10 12  1  0
 10 13  1  0
  9 14  1  0
 14 15  2  0
 15 16  1  0
 16 17  1  0
 17 18  2  0
 17 19  1  0
 19 20  2  0
 19 21  1  0
 21 22  1  0
 22 23  1  0
 23 24  2  0
 23 25  1  0
 25 26  1  0
 26 27  1  0
 27 28  1  0
 27 29  1  0
 16  4  1  0
 29 25  1  0
 15  6  1  0
  1 30  1  0
  5 31  1  0
  7 32  1  0
  8 33  1  0
 14 34  1  0
 22 35  1  0
 22 36  1  0
 25 37  1  6
 26 38  1  0
 26 39  1  0
 27 40  1  1
 29 41  1  0
 29 42  1  0
M  CHG  2   1  -1  25   1
M  END
>  <UniqueID>  (15) 
15

>  <SMILES>  (15) 
[NH-]C(=O)c1cc2ccc(C(F)(F)F)cc2n1C(=O)C(=O)OCC(=O)[NH+]1CC(F)C1

>  <Energy>  (15) 
158.62876388585684

>  <Genealogy>  (15) 
[NH-]C(=O)c1cc2ccc(C(F)(F)F)cc2n1C(=O)C(=O)OCC(=O)[NH+]1CC(F)C1 (protonated)
[NH-]C(=O)c1cc2ccc(C(F)(F)F)cc2n1C(=O)C(=O)OCC(=O)[NH+]1CC(F)C1 (3D coordinates assigned)
[NH-]C(=O)c1cc2ccc(C(F)(F)F)cc2n1C(=O)C(=O)OCC(=O)[NH+]1CC(F)C1 (nonaromatic ring conformer: 158.62876388585684 kcal/mol)

>  <smiles>  (15) 
NC(=O)c1cc2ccc(C(F)(F)F)cc2n1C(=O)C(=O)OCC(=O)N1CC(F)C1

>  <score_type>  (15) 
oracle

>  <origin>  (15) 
adg

>  <m_score__min__energy>  (15) 
-8.6400000000000006

>  <m_primary>  (15) 
energy

$$$$
15:0
     RDKit          3D

 41 42  0  0  0  0  0  0  0  0999 V2000
   -2.0760   22.3430  -27.0960 C   0  0  0  0  0  0  0  0  0  0  0  0
   -2.2530   23.3790  -28.1170 N   0  0  0  0  0  0  0  0  0  0  0  0
   -2.4890   24.7650  -27.6850 C   0  0  0  0  0  0  0  0  0  0  0  0
   -1.2730   25.6520  -27.9790 C   0  0  0  0  0  0  0  0  0  0  0  0
   -1.2260   25.9830  -29.3370 O   0  0  0  0  0  0  0  0  0  0  0  0
   -2.2520   22.9820  -29.5080 C   0  0  0  0  0  0  0  0  0  0  0  0
   -1.4460   23.5360  -30.3040 O   0  0  0  0  0  0  0  0  0  0  0  0
   -3.1940   21.9460  -30.0680 C   0  0  0  0  0  0  0  0  0  0  0  0
   -3.9180   22.4930  -31.2630 C   0  0  0  0  0  0  0  0  0  0  0  0
   -3.2870   22.6960  -32.3350 O   0  0  0  0  0  0  0  0  0  0  0  0
   -5.3080   22.8410  -31.1820 N   0  0  0  0  0  0  0  0  0  0  0  0
   -5.8410   24.0680  -30.9470 C   0  0  0  0  0  0  0  0  0  0  0  0
   -5.0860   25.2990  -30.6290 C   0  0  0  0  0  0  0  0  0  0  0  0
   -3.6620   25.2950  -30.5790 N   0  0  0  0  0  0  0  0  0  0  0  0
   -5.7100   26.3670  -30.3750 O   0  0  0  0  0  0  0  0  0  0  0  0
   -7.2320   24.0080  -30.9920 C   0  0  0  0  0  0  0  0  0  0  0  0
   -7.5350   22.6940  -31.2640 C   0  0  0  0  0  0  0  0  0  0  0  0
   -8.7710   22.0700  -31.4110 C   0  0  0  0  0  0  0  0  0  0  0  0
   -8.7850   20.6960  -31.6980 C   0  0  0  0  0  0  0  0  0  0  0  0
   -7.5710   19.9810  -31.8600 C   0  0  0  0  0  0  0  0  0  0  0  0
   -7.6010   18.4980  -32.1220 C   0  0  0  0  0  0  0  0  0  0  0  0
   -7.1820   18.2560  -33.4150 F   0  0  0  0  0  0  0  0  0  0  0  0
   -6.7620   17.8310  -31.2450 F   0  0  0  0  0  0  0  0  0  0  0  0
   -8.8810   17.9990  -31.9610 F   0  0  0  0  0  0  0  0  0  0  0  0
   -6.3350   20.6490  -31.6890 C   0  0  0  0  0  0  0  0  0  0  0  0
   -6.3550   22.0120  -31.3800 C   0  0  0  0  0  0  0  0  0  0  0  0
   -2.1534   22.7961  -26.0966 H   0  0  0  0  0  0  0  0  0  0  0  0
   -2.8562   21.5763  -27.2124 H   0  0  0  0  0  0  0  0  0  0  0  0
   -1.0855   21.8789  -27.2124 H   0  0  0  0  0  0  0  0  0  0  0  0
   -3.3625   25.1642  -28.2213 H   0  0  0  0  0  0  0  0  0  0  0  0
   -2.6667   24.7661  -26.5995 H   0  0  0  0  0  0  0  0  0  0  0  0
   -1.3451   26.5742  -27.3838 H   0  0  0  0  0  0  0  0  0  0  0  0
   -0.3582   25.1012  -27.7149 H   0  0  0  0  0  0  0  0  0  0  0  0
   -2.0750   25.6540  -29.7330 H   0  0  0  0  0  0  0  0  0  0  0  0
   -2.6195   21.0570  -30.3673 H   0  0  0  0  0  0  0  0  0  0  0  0
   -3.9298   21.6765  -29.2960 H   0  0  0  0  0  0  0  0  0  0  0  0
   -3.1080   24.6330  -31.1650 H   0  0  0  0  0  0  0  0  0  0  0  0
   -7.9393   24.8369  -30.8417 H   0  0  0  0  0  0  0  0  0  0  0  0
   -9.7080   22.6365  -31.3054 H   0  0  0  0  0  0  0  0  0  0  0  0
   -9.7456   20.1695  -31.7981 H   0  0  0  0  0  0  0  0  0  0  0  0
   -5.3827   20.1091  -31.7966 H   0  0  0  0  0  0  0  0  0  0  0  0
  1  2  1  0
  2  3  1  0
  3  4  1  0
  4  5  1  0
  2  6  1  0
  6  7  2  0
  6  8  1  0
  8  9  1  0
  9 10  2  0
  9 11  1  0
 11 12  1  0
 12 13  1  0
 13 14  1  0
 13 15  2  0
 12 16  2  0
 16 17  1  0
 17 18  2  0
 18 19  1  0
 19 20  2  0
 20 21  1  0
 21 22  1  0
 21 23  1  0
 21 24  1  0
 20 25  1  0
 25 26  2  0
 26 11  1  0
 26 17  1  0
  1 27  1  0
  1 28  1  0
  1 29  1  0
  3 30  1  0
  3 31  1  0
  4 32  1  0
  4 33  1  0
  5 34  1  0
  8 35  1  0
  8 36  1  0
 14 37  1  0
 16 38  1  0
 18 39  1  0
 19 40  1  0
 25 41  1  0
M  CHG  1  14  -1
M  END
>  <UniqueID>  (16) 
16

>  <SMILES>  (16) 
CN(CCO)C(=O)CC(=O)n1c(C([NH-])=O)cc2ccc(C(F)(F)F)cc21

>  <Energy>  (16) 
76.52202782320241

>  <Genealogy>  (16) 
CN(CCO)C(=O)CC(=O)n1c(C([NH-])=O)cc2ccc(C(F)(F)F)cc21 (protonated)
CN(CCO)C(=O)CC(=O)n1c(C([NH-])=O)cc2ccc(C(F)(F)F)cc21 (3D coordinates assigned)
CN(CCO)C(=O)CC(=O)n1c(C([NH-])=O)cc2ccc(C(F)(F)F)cc21 (optimized conformer: 76.52202782320241 kcal/mol)

>  <smiles>  (16) 
CN(CCO)C(=O)CC(=O)n1c(C(N)=O)cc2ccc(C(F)(F)F)cc21

>  <score_type>  (16) 
oracle

>  <origin>  (16) 
adg

>  <m_score__min__energy>  (16) 
-10.6

>  <m_primary>  (16) 
energy

$$$$
16:0
     RDKit          3D

 33 34  0  0  0  0  0  0  0  0999 V2000
   -5.8670   24.0550  -30.5400 N   0  0  0  0  0  0  0  0  0  0  0  0
   -7.0080   23.4480  -31.1490 C   0  0  0  0  0  0  0  0  0  0  0  0
   -8.0540   24.1320  -31.3090 O   0  0  0  0  0  0  0  0  0  0  0  0
   -6.9820   22.0250  -31.5540 C   0  0  0  0  0  0  0  0  0  0  0  0
   -8.0510   21.1480  -31.3750 C   0  0  0  0  0  0  0  0  0  0  0  0
   -7.6580   19.9700  -31.9680 C   0  0  0  0  0  0  0  0  0  0  0  0
   -8.3360   18.7600  -32.0860 C   0  0  0  0  0  0  0  0  0  0  0  0
   -7.6820   17.7000  -32.7330 C   0  0  0  0  0  0  0  0  0  0  0  0
   -6.3610   17.8540  -33.2280 C   0  0  0  0  0  0  0  0  0  0  0  0
   -5.6840   16.7200  -33.9540 C   0  0  0  0  0  0  0  0  0  0  0  0
   -6.6210   15.8670  -34.5110 F   0  0  0  0  0  0  0  0  0  0  0  0
   -4.8780   17.2010  -34.9720 F   0  0  0  0  0  0  0  0  0  0  0  0
   -4.9040   16.0100  -33.0590 F   0  0  0  0  0  0  0  0  0  0  0  0
   -5.7170   19.1080  -33.1100 C   0  0  0  0  0  0  0  0  0  0  0  0
   -6.3990   20.1530  -32.4750 C   0  0  0  0  0  0  0  0  0  0  0  0
   -5.9690   21.4120  -32.2300 N   0  0  0  0  0  0  0  0  0  0  0  0
   -4.6780   21.9570  -32.5460 C   0  0  0  0  0  0  0  0  0  0  0  0
   -4.1300   21.6850  -33.6490 O   0  0  0  0  0  0  0  0  0  0  0  0
   -4.0260   22.7800  -31.6220 O   0  0  0  0  0  0  0  0  0  0  0  0
   -3.0300   22.2970  -30.7290 C   0  0  0  0  0  0  0  0  0  0  0  0
   -2.1200   23.3370  -30.4670 O   0  0  0  0  0  0  0  0  0  0  0  0
   -2.9590   24.6050  -29.6930 P   0  0  0  0  0  0  0  0  0  0  0  0
   -3.8900   24.0450  -28.6390 O   0  0  0  0  0  0  0  0  0  0  0  0
   -3.8710   25.4410  -30.8450 O   0  0  0  0  0  0  0  0  0  0  0  0
   -1.8680   25.6780  -28.9710 O   0  0  0  0  0  0  0  0  0  0  0  0
   -5.9090   25.0490  -30.2230 H   0  0  0  0  0  0  0  0  0  0  0  0
   -4.9670   23.5370  -30.4390 H   0  0  0  0  0  0  0  0  0  0  0  0
   -9.0052   21.3538  -30.8679 H   0  0  0  0  0  0  0  0  0  0  0  0
   -9.3529   18.6383  -31.6846 H   0  0  0  0  0  0  0  0  0  0  0  0
   -8.2000   16.7377  -32.8580 H   0  0  0  0  0  0  0  0  0  0  0  0
   -4.7028   19.2588  -33.5083 H   0  0  0  0  0  0  0  0  0  0  0  0
   -3.5009   21.9712  -29.7898 H   0  0  0  0  0  0  0  0  0  0  0  0
   -2.5043   21.4421  -31.1792 H   0  0  0  0  0  0  0  0  0  0  0  0
  1  2  1  0
  2  3  2  0
  2  4  1  0
  4  5  2  0
  5  6  1  0
  6  7  2  0
  7  8  1  0
  8  9  2  0
  9 10  1  0
 10 11  1  0
 10 12  1  0
 10 13  1  0
  9 14  1  0
 14 15  2  0
 15 16  1  0
 16 17  1  0
 17 18  2  0
 17 19  1  0
 19 20  1  0
 20 21  1  0
 21 22  1  0
 22 23  2  0
 22 24  1  0
 22 25  1  0
 16  4  1  0
 15  6  1  0
  1 26  1  0
  1 27  1  0
  5 28  1  0
  7 29  1  0
  8 30  1  0
 14 31  1  0
 20 32  1  0
 20 33  1  0
M  CHG  2  24  -1  25  -1
M  END
>  <UniqueID>  (17) 
17

>  <SMILES>  (17) 
NC(=O)c1cc2ccc(C(F)(F)F)cc2n1C(=O)OCOP(=O)([O-])[O-]

>  <Energy>  (17) 
69.69205571939735

>  <Genealogy>  (17) 
NC(=O)c1cc2ccc(C(F)(F)F)cc2n1C(=O)OCOP(=O)([O-])[O-] (protonated)
NC(=O)c1cc2ccc(C(F)(F)F)cc2n1C(=O)OCOP(=O)([O-])[O-] (3D coordinates assigned)
NC(=O)c1cc2ccc(C(F)(F)F)cc2n1C(=O)OCOP(=O)([O-])[O-] (optimized conformer: 69.69205571939735 kcal/mol)

>  <smiles>  (17) 
NC(=O)c1cc2ccc(C(F)(F)F)cc2n1C(=O)OCOP(=O)([O-])O

>  <score_type>  (17) 
oracle

>  <origin>  (17) 
adg

>  <m_score__min__energy>  (17) 
-12.119999999999999

>  <m_primary>  (17) 
energy

$$$$
17:0
     RDKit          3D

 41 43  0  0  0  0  0  0  0  0999 V2000
   -3.6360   18.5950  -34.2020 C   0  0  0  0  0  0  0  0  0  0  0  0
   -4.8850   17.8150  -33.9410 C   0  0  0  0  0  0  0  0  0  0  0  0
   -5.0310   16.5240  -34.3030 N   0  0  0  0  0  0  0  0  0  0  0  0
   -6.2510   16.1500  -33.9530 N   0  0  0  0  0  0  0  0  0  0  0  0
   -6.8110   14.8360  -34.2410 C   0  0  0  0  0  0  0  0  0  0  0  0
   -6.9090   17.1780  -33.3870 C   0  0  0  0  0  0  0  0  0  0  0  0
   -6.0570   18.2650  -33.3390 C   0  0  0  0  0  0  0  0  0  0  0  0
   -6.3760   19.6050  -32.8000 C   0  0  0  0  0  0  0  0  0  0  0  0
   -7.7020   20.1060  -32.8340 C   0  0  0  0  0  0  0  0  0  0  0  0
   -8.0040   21.3770  -32.3180 C   0  0  0  0  0  0  0  0  0  0  0  0
   -6.9610   22.1320  -31.7910 C   0  0  0  0  0  0  0  0  0  0  0  0
   -6.9810   23.3750  -31.2020 C   0  0  0  0  0  0  0  0  0  0  0  0
   -5.6590   23.6370  -30.8540 C   0  0  0  0  0  0  0  0  0  0  0  0
   -5.2180   24.9060  -30.2390 C   0  0  0  0  0  0  0  0  0  0  0  0
   -5.7140   25.3230  -28.9660 N   0  0  0  0  0  0  0  0  0  0  0  0
   -4.3480   25.6050  -30.8220 O   0  0  0  0  0  0  0  0  0  0  0  0
   -4.8520   22.5950  -31.2000 N   0  0  0  0  0  0  0  0  0  0  0  0
   -3.4560   22.4410  -30.9000 C   0  0  0  0  0  0  0  0  0  0  0  0
   -2.8900   21.3260  -31.0690 O   0  0  0  0  0  0  0  0  0  0  0  0
   -2.7260   23.5330  -30.4200 O   0  0  0  0  0  0  0  0  0  0  0  0
   -2.2780   23.6270  -29.0720 C   0  0  0  0  0  0  0  0  0  0  0  0
   -1.2430   24.6960  -28.9730 C   0  0  0  0  0  0  0  0  0  0  0  0
   -0.0210   24.3910  -28.9450 O   0  0  0  0  0  0  0  0  0  0  0  0
   -1.6210   26.0320  -28.9670 O   0  0  0  0  0  0  0  0  0  0  0  0
   -5.6660   21.6810  -31.7780 C   0  0  0  0  0  0  0  0  0  0  0  0
   -5.3410   20.4080  -32.2660 C   0  0  0  0  0  0  0  0  0  0  0  0
   -3.1763   18.8821  -33.2448 H   0  0  0  0  0  0  0  0  0  0  0  0
   -2.9308   17.9765  -34.7766 H   0  0  0  0  0  0  0  0  0  0  0  0
   -3.8823   19.5001  -34.7766 H   0  0  0  0  0  0  0  0  0  0  0  0
   -7.0323   14.3168  -33.2968 H   0  0  0  0  0  0  0  0  0  0  0  0
   -7.7380   14.9518  -34.8218 H   0  0  0  0  0  0  0  0  0  0  0  0
   -6.0855   14.2475  -34.8218 H   0  0  0  0  0  0  0  0  0  0  0  0
   -7.9473   17.1569  -33.0245 H   0  0  0  0  0  0  0  0  0  0  0  0
   -8.5039   19.4919  -33.2697 H   0  0  0  0  0  0  0  0  0  0  0  0
   -9.0337   21.7636  -32.3302 H   0  0  0  0  0  0  0  0  0  0  0  0
   -7.8549   24.0233  -31.0406 H   0  0  0  0  0  0  0  0  0  0  0  0
   -5.4250   26.2440  -28.5670 H   0  0  0  0  0  0  0  0  0  0  0  0
   -6.3060   24.6900  -28.3840 H   0  0  0  0  0  0  0  0  0  0  0  0
   -3.1272   23.8754  -28.4185 H   0  0  0  0  0  0  0  0  0  0  0  0
   -1.8471   22.6650  -28.7577 H   0  0  0  0  0  0  0  0  0  0  0  0
   -4.3043   20.0415  -32.2345 H   0  0  0  0  0  0  0  0  0  0  0  0
  1  2  1  0
  2  3  2  0
  3  4  1  0
  4  5  1  0
  4  6  1  0
  6  7  2  0
  7  8  1  0
  8  9  2  0
  9 10  1  0
 10 11  2  0
 11 12  1  0
 12 13  2  0
 13 14  1  0
 14 15  1  0
 14 16  2  0
 13 17  1  0
 17 18  1  0
 18 19  2  0
 18 20  1  0
 20 21  1  0
 21 22  1  0
 22 23  2  0
 22 24  1  0
 17 25  1  0
 25 26  2  0
  7  2  1  0
 26  8  1  0
 25 11  1  0
  1 27  1  0
  1 28  1  0
  1 29  1  0
  5 30  1  0
  5 31  1  0
  5 32  1  0
  6 33  1  0
  9 34  1  0
 10 35  1  0
 12 36  1  0
 15 37  1  0
 15 38  1  0
 21 39  1  0
 21 40  1  0
 26 41  1  0
M  CHG  1  24  -1
M  END
>  <UniqueID>  (18) 
18

>  <SMILES>  (18) 
Cc1nn(C)cc1-c1ccc2cc(C(N)=O)n(C(=O)OCC(=O)[O-])c2c1

>  <Energy>  (18) 
111.18863303343193

>  <Genealogy>  (18) 
Cc1nn(C)cc1-c1ccc2cc(C(N)=O)n(C(=O)OCC(=O)[O-])c2c1 (protonated)
Cc1nn(C)cc1-c1ccc2cc(C(N)=O)n(C(=O)OCC(=O)[O-])c2c1 (3D coordinates assigned)
Cc1nn(C)cc1-c1ccc2cc(C(N)=O)n(C(=O)OCC(=O)[O-])c2c1 (optimized conformer: 111.18863303343193 kcal/mol)

>  <smiles>  (18) 
Cc1nn(C)cc1-c1ccc2cc(C(N)=O)n(C(=O)OCC(=O)O)c2c1

>  <score_type>  (18) 
oracle

>  <origin>  (18) 
adg

>  <m_score__min__energy>  (18) 
-11.9

>  <m_primary>  (18) 
energy

$$$$
18:0
     RDKit          3D

 42 43  0  0  0  0  0  0  0  0999 V2000
   -4.1420   24.5340  -26.8310 C   0  0  0  0  0  0  0  0  0  0  0  0
   -2.7870   24.3300  -27.3490 N   0  0  0  0  0  0  0  0  0  0  0  0
   -1.7330   25.3180  -27.0870 C   0  0  0  0  0  0  0  0  0  0  0  0
   -0.8330   25.4440  -28.2750 C   0  0  0  0  0  0  0  0  0  0  0  0
   -1.2440   25.9970  -29.3280 O   0  0  0  0  0  0  0  0  0  0  0  0
    0.4660   24.9520  -28.2170 O   0  0  0  0  0  0  0  0  0  0  0  0
   -2.4820   23.1400  -28.1020 C   0  0  0  0  0  0  0  0  0  0  0  0
   -1.3050   22.6850  -28.1090 O   0  0  0  0  0  0  0  0  0  0  0  0
   -3.5040   22.4910  -28.8090 O   0  0  0  0  0  0  0  0  0  0  0  0
   -3.6060   22.4220  -30.2040 C   0  0  0  0  0  0  0  0  0  0  0  0
   -2.5840   22.2260  -30.9170 O   0  0  0  0  0  0  0  0  0  0  0  0
   -4.8860   22.6120  -30.8280 N   0  0  0  0  0  0  0  0  0  0  0  0
   -5.6260   23.7560  -30.8870 C   0  0  0  0  0  0  0  0  0  0  0  0
   -5.1920   25.0990  -30.4460 C   0  0  0  0  0  0  0  0  0  0  0  0
   -3.9340   25.6320  -30.8490 N   0  0  0  0  0  0  0  0  0  0  0  0
   -5.9670   25.8050  -29.7490 O   0  0  0  0  0  0  0  0  0  0  0  0
   -6.8450   23.5160  -31.5160 C   0  0  0  0  0  0  0  0  0  0  0  0
   -6.8230   22.1830  -31.8560 C   0  0  0  0  0  0  0  0  0  0  0  0
   -7.7810   21.4100  -32.5020 C   0  0  0  0  0  0  0  0  0  0  0  0
   -7.5020   20.0490  -32.7090 C   0  0  0  0  0  0  0  0  0  0  0  0
   -6.2780   19.4760  -32.2650 C   0  0  0  0  0  0  0  0  0  0  0  0
   -6.0030   18.0680  -32.4780 N   0  0  0  0  0  0  0  0  0  0  0  0
   -5.6240   17.5760  -33.8070 C   0  0  0  0  0  0  0  0  0  0  0  0
   -6.1000   17.1160  -31.3660 C   0  0  0  0  0  0  0  0  0  0  0  0
   -5.3340   20.3030  -31.6070 C   0  0  0  0  0  0  0  0  0  0  0  0
   -5.6310   21.6600  -31.4330 C   0  0  0  0  0  0  0  0  0  0  0  0
   -4.1185   24.5305  -25.7313 H   0  0  0  0  0  0  0  0  0  0  0  0
   -4.5288   25.5005  -27.1864 H   0  0  0  0  0  0  0  0  0  0  0  0
   -4.7962   23.7242  -27.1864 H   0  0  0  0  0  0  0  0  0  0  0  0
   -2.1947   26.2939  -26.8763 H   0  0  0  0  0  0  0  0  0  0  0  0
   -1.1395   24.9874  -26.2219 H   0  0  0  0  0  0  0  0  0  0  0  0
   -3.0430   25.2700  -30.4420 H   0  0  0  0  0  0  0  0  0  0  0  0
   -7.6535   24.2384  -31.7015 H   0  0  0  0  0  0  0  0  0  0  0  0
   -8.7298   21.8513  -32.8411 H   0  0  0  0  0  0  0  0  0  0  0  0
   -8.2413   19.4166  -33.2223 H   0  0  0  0  0  0  0  0  0  0  0  0
   -4.9559   16.7087  -33.7001 H   0  0  0  0  0  0  0  0  0  0  0  0
   -6.5275   17.2771  -34.3587 H   0  0  0  0  0  0  0  0  0  0  0  0
   -5.1044   18.3733  -34.3587 H   0  0  0  0  0  0  0  0  0  0  0  0
   -6.0446   17.6601  -30.4116 H   0  0  0  0  0  0  0  0  0  0  0  0
   -7.0576   16.5781  -31.4263 H   0  0  0  0  0  0  0  0  0  0  0  0
   -5.2706   16.3960  -31.4263 H   0  0  0  0  0  0  0  0  0  0  0  0
   -4.3847   19.8861  -31.2395 H   0  0  0  0  0  0  0  0  0  0  0  0
  1  2  1  0
  2  3  1  0
  3  4  1  0
  4  5  2  0
  4  6  1  0
  2  7  1  0
  7  8  2  0
  7  9  1  0
  9 10  1  0
 10 11  2  0
 10 12  1  0
 12 13  1  0
 13 14  1  0
 14 15  1  0
 14 16  2  0
 13 17  2  0
 17 18  1  0
 18 19  2  0
 19 20  1  0
 20 21  2  0
 21 22  1  0
 22 23  1  0
 22 24  1  0
 21 25  1  0
 25 26  2  0
 26 12  1  0
 26 18  1  0
  1 27  1  0
  1 28  1  0
  1 29  1  0
  3 30  1  0
  3 31  1  0
 15 32  1  0
 17 33  1  0
 19 34  1  0
 20 35  1  0
 23 36  1  0
 23 37  1  0
 23 38  1  0
 24 39  1  0
 24 40  1  0
 24 41  1  0
 25 42  1  0
M  CHG  2   6  -1  15  -1
M  END
>  <UniqueID>  (19) 
19

>  <SMILES>  (19) 
CN(CC(=O)[O-])C(=O)OC(=O)n1c(C([NH-])=O)cc2ccc(N(C)C)cc21

>  <Energy>  (19) 
78.32660282394784

>  <Genealogy>  (19) 
CN(CC(=O)[O-])C(=O)OC(=O)n1c(C([NH-])=O)cc2ccc(N(C)C)cc21 (protonated)
CN(CC(=O)[O-])C(=O)OC(=O)n1c(C([NH-])=O)cc2ccc(N(C)C)cc21 (3D coordinates assigned)
CN(CC(=O)[O-])C(=O)OC(=O)n1c(C([NH-])=O)cc2ccc(N(C)C)cc21 (optimized conformer: 78.32660282394784 kcal/mol)

>  <smiles>  (19) 
CN(CC(=O)O)C(=O)OC(=O)n1c(C(N)=O)cc2ccc(N(C)C)cc21

>  <score_type>  (19) 
oracle

>  <origin>  (19) 
adg

>  <m_score__min__energy>  (19) 
-12.59

>  <m_primary>  (19) 
energy

$$$$
19:0
     RDKit          3D

 34 35  0  0  0  0  0  0  0  0999 V2000
   -6.9520   17.6140  -32.6600 C   0  0  0  0  0  0  0  0  0  0  0  0
   -7.8280   18.7230  -33.0230 N   0  0  0  0  0  0  0  0  0  0  0  0
   -7.7020   20.0470  -32.4720 C   0  0  0  0  0  0  0  0  0  0  0  0
   -8.8640   20.8460  -32.3300 C   0  0  0  0  0  0  0  0  0  0  0  0
   -8.7840   22.1490  -31.8100 C   0  0  0  0  0  0  0  0  0  0  0  0
   -7.5320   22.6240  -31.4320 C   0  0  0  0  0  0  0  0  0  0  0  0
   -7.1650   23.8540  -30.9330 C   0  0  0  0  0  0  0  0  0  0  0  0
   -5.7860   23.7830  -30.7540 C   0  0  0  0  0  0  0  0  0  0  0  0
   -4.9850   24.8740  -30.1600 C   0  0  0  0  0  0  0  0  0  0  0  0
   -3.8600   25.4150  -30.8460 N   0  0  0  0  0  0  0  0  0  0  0  0
   -5.2710   25.3030  -29.0100 O   0  0  0  0  0  0  0  0  0  0  0  0
   -5.3170   22.5600  -31.1320 N   0  0  0  0  0  0  0  0  0  0  0  0
   -3.9500   22.1270  -31.1960 C   0  0  0  0  0  0  0  0  0  0  0  0
   -3.2960   22.2650  -32.2660 O   0  0  0  0  0  0  0  0  0  0  0  0
   -3.3420   21.5830  -30.0600 O   0  0  0  0  0  0  0  0  0  0  0  0
   -2.2720   22.2240  -29.3680 C   0  0  0  0  0  0  0  0  0  0  0  0
   -1.9250   23.4400  -29.9910 O   0  0  0  0  0  0  0  0  0  0  0  0
   -1.0690   24.4160  -28.8820 P   0  0  0  0  0  0  0  0  0  0  0  0
   -1.6230   24.2340  -27.4870 O   0  0  0  0  0  0  0  0  0  0  0  0
   -1.2450   26.0360  -29.3340 O   0  0  0  0  0  0  0  0  0  0  0  0
    0.5760   24.0200  -28.8950 O   0  0  0  0  0  0  0  0  0  0  0  0
   -6.3990   21.8620  -31.5430 C   0  0  0  0  0  0  0  0  0  0  0  0
   -6.4450   20.5690  -32.0770 C   0  0  0  0  0  0  0  0  0  0  0  0
   -6.8918   17.5378  -31.5643 H   0  0  0  0  0  0  0  0  0  0  0  0
   -7.3567   16.6774  -33.0710 H   0  0  0  0  0  0  0  0  0  0  0  0
   -5.9471   17.7908  -33.0710 H   0  0  0  0  0  0  0  0  0  0  0  0
   -8.5820   18.5360  -33.7210 H   0  0  0  0  0  0  0  0  0  0  0  0
   -9.8414   20.4408  -32.6308 H   0  0  0  0  0  0  0  0  0  0  0  0
   -9.6831   22.7740  -31.7050 H   0  0  0  0  0  0  0  0  0  0  0  0
   -7.8218   24.7106  -30.7209 H   0  0  0  0  0  0  0  0  0  0  0  0
   -2.8950   25.3150  -30.4590 H   0  0  0  0  0  0  0  0  0  0  0  0
   -2.5831   22.4262  -28.3325 H   0  0  0  0  0  0  0  0  0  0  0  0
   -1.3958   21.5592  -29.3840 H   0  0  0  0  0  0  0  0  0  0  0  0
   -5.5275   19.9723  -32.1874 H   0  0  0  0  0  0  0  0  0  0  0  0
  1  2  1  0
  2  3  1  0
  3  4  2  0
  4  5  1  0
  5  6  2  0
  6  7  1  0
  7  8  2  0
  8  9  1  0
  9 10  1  0
  9 11  2  0
  8 12  1  0
 12 13  1  0
 13 14  2  0
 13 15  1  0
 15 16  1  0
 16 17  1  0
 17 18  1  0
 18 19  2  0
 18 20  1  0
 18 21  1  0
 12 22  1  0
 22 23  2  0
 23  3  1  0
 22  6  1  0
  1 24  1  0
  1 25  1  0
  1 26  1  0
  2 27  1  0
  4 28  1  0
  5 29  1  0
  7 30  1  0
 10 31  1  0
 16 32  1  0
 16 33  1  0
 23 34  1  0
M  CHG  3  10  -1  20  -1  21  -1
M  END
>  <UniqueID>  (20) 
20

>  <SMILES>  (20) 
CNc1ccc2cc(C([NH-])=O)n(C(=O)OCOP(=O)([O-])[O-])c2c1

>  <Energy>  (20) 
70.08343003721313

>  <Genealogy>  (20) 
CNc1ccc2cc(C([NH-])=O)n(C(=O)OCOP(=O)([O-])[O-])c2c1 (protonated)
CNc1ccc2cc(C([NH-])=O)n(C(=O)OCOP(=O)([O-])[O-])c2c1 (3D coordinates assigned)
CNc1ccc2cc(C([NH-])=O)n(C(=O)OCOP(=O)([O-])[O-])c2c1 (optimized conformer: 70.08343003721313 kcal/mol)

>  <smiles>  (20) 
CNc1ccc2cc(C(N)=O)n(C(=O)OCOP(=O)(O)O)c2c1

>  <score_type>  (20) 
oracle

>  <origin>  (20) 
adg

>  <m_score__min__energy>  (20) 
-13.41

>  <m_primary>  (20) 
energy

$$$$
20:0
     RDKit          3D

 43 44  0  0  0  0  0  0  0  0999 V2000
   -8.7490   18.6380  -31.2980 C   0  0  0  0  0  0  0  0  0  0  0  0
   -8.3720   18.7030  -32.7070 N   0  0  0  0  0  0  0  0  0  0  0  0
   -7.0440   18.4230  -33.1860 C   0  0  0  0  0  0  0  0  0  0  0  0
   -6.7920   17.1910  -33.8390 C   0  0  0  0  0  0  0  0  0  0  0  0
   -5.5130   16.8830  -34.3310 C   0  0  0  0  0  0  0  0  0  0  0  0
   -4.5000   17.8190  -34.1450 C   0  0  0  0  0  0  0  0  0  0  0  0
   -3.1880   17.7990  -34.5610 C   0  0  0  0  0  0  0  0  0  0  0  0
   -2.6470   19.0070  -34.1280 C   0  0  0  0  0  0  0  0  0  0  0  0
   -1.2420   19.4030  -34.3590 C   0  0  0  0  0  0  0  0  0  0  0  0
   -0.8940   20.7470  -34.6940 N   0  0  0  0  0  0  0  0  0  0  0  0
   -0.3270   18.5480  -34.2160 O   0  0  0  0  0  0  0  0  0  0  0  0
   -3.5850   19.7440  -33.4720 N   0  0  0  0  0  0  0  0  0  0  0  0
   -3.4570   21.0950  -33.0010 C   0  0  0  0  0  0  0  0  0  0  0  0
   -3.5510   22.0510  -33.8170 O   0  0  0  0  0  0  0  0  0  0  0  0
   -3.2050   21.3780  -31.5800 C   0  0  0  0  0  0  0  0  0  0  0  0
   -2.0390   21.2700  -31.1150 O   0  0  0  0  0  0  0  0  0  0  0  0
   -4.2860   21.7790  -30.7330 N   0  0  0  0  0  0  0  0  0  0  0  0
   -4.7990   23.1430  -30.6780 C   0  0  0  0  0  0  0  0  0  0  0  0
   -3.7180   24.0900  -30.2510 C   0  0  0  0  0  0  0  0  0  0  0  0
   -3.8640   25.3260  -30.4570 O   0  0  0  0  0  0  0  0  0  0  0  0
   -2.5320   23.5860  -29.6170 N   0  0  0  0  0  0  0  0  0  0  0  0
   -1.4440   24.4070  -29.1740 C   0  0  0  0  0  0  0  0  0  0  0  0
   -1.5020   25.6640  -29.2760 O   0  0  0  0  0  0  0  0  0  0  0  0
   -0.3130   23.7980  -28.6240 O   0  0  0  0  0  0  0  0  0  0  0  0
   -0.2850   22.4250  -28.2540 C   0  0  0  0  0  0  0  0  0  0  0  0
   -4.7160   19.0070  -33.4970 C   0  0  0  0  0  0  0  0  0  0  0  0
   -5.9870   19.3530  -33.0220 C   0  0  0  0  0  0  0  0  0  0  0  0
   -7.8574   18.7917  -30.6724 H   0  0  0  0  0  0  0  0  0  0  0  0
   -9.4894   19.4217  -31.0800 H   0  0  0  0  0  0  0  0  0  0  0  0
   -9.1842   17.6516  -31.0800 H   0  0  0  0  0  0  0  0  0  0  0  0
   -9.1150   18.9550  -33.3960 H   0  0  0  0  0  0  0  0  0  0  0  0
   -7.6096   16.4655  -33.9624 H   0  0  0  0  0  0  0  0  0  0  0  0
   -5.3180   15.9315  -34.8473 H   0  0  0  0  0  0  0  0  0  0  0  0
   -2.6762   16.9995  -35.1168 H   0  0  0  0  0  0  0  0  0  0  0  0
    0.0980   20.9920  -34.9090 H   0  0  0  0  0  0  0  0  0  0  0  0
   -1.5920   21.5200  -34.6300 H   0  0  0  0  0  0  0  0  0  0  0  0
   -5.1632   23.4339  -31.6744 H   0  0  0  0  0  0  0  0  0  0  0  0
   -5.6208   23.1864  -29.9481 H   0  0  0  0  0  0  0  0  0  0  0  0
   -2.4450   22.5540  -29.4780 H   0  0  0  0  0  0  0  0  0  0  0  0
   -0.2833   22.3408  -27.1572 H   0  0  0  0  0  0  0  0  0  0  0  0
   -1.1730   21.9178  -28.6593 H   0  0  0  0  0  0  0  0  0  0  0  0
    0.6229   21.9545  -28.6593 H   0  0  0  0  0  0  0  0  0  0  0  0
   -6.1609   20.3231  -32.5334 H   0  0  0  0  0  0  0  0  0  0  0  0
  1  2  1  0
  2  3  1  0
  3  4  2  0
  4  5  1  0
  5  6  2  0
  6  7  1  0
  7  8  2  0
  8  9  1  0
  9 10  1  0
  9 11  2  0
  8 12  1  0
 12 13  1  0
 13 14  2  0
 13 15  1  0
 15 16  2  0
 15 17  1  0
 17 18  1  0
 18 19  1  0
 19 20  2  0
 19 21  1  0
 21 22  1  0
 22 23  2  0
 22 24  1  0
 24 25  1  0
 12 26  1  0
 26 27  2  0
 27  3  1  0
 26  6  1  0
  1 28  1  0
  1 29  1  0
  1 30  1  0
  2 31  1  0
  4 32  1  0
  5 33  1  0
  7 34  1  0
 10 35  1  0
 10 36  1  0
 18 37  1  0
 18 38  1  0
 21 39  1  0
 25 40  1  0
 25 41  1  0
 25 42  1  0
 27 43  1  0
M  CHG  1  17  -1
M  END
>  <UniqueID>  (21) 
21

>  <SMILES>  (21) 
CNc1ccc2cc(C(N)=O)n(C(=O)C(=O)[N-]CC(=O)NC(=O)OC)c2c1

>  <Energy>  (21) 
73.63307334108363

>  <Genealogy>  (21) 
CNc1ccc2cc(C(N)=O)n(C(=O)C(=O)[N-]CC(=O)NC(=O)OC)c2c1 (protonated)
CNc1ccc2cc(C(N)=O)n(C(=O)C(=O)[N-]CC(=O)NC(=O)OC)c2c1 (3D coordinates assigned)
CNc1ccc2cc(C(N)=O)n(C(=O)C(=O)[N-]CC(=O)NC(=O)OC)c2c1 (optimized conformer: 73.63307334108363 kcal/mol)

>  <smiles>  (21) 
CNc1ccc2cc(C(N)=O)n(C(=O)C(=O)NCC(=O)NC(=O)OC)c2c1

>  <score_type>  (21) 
oracle

>  <origin>  (21) 
adg

>  <m_score__min__energy>  (21) 
-9.2799999999999994

>  <m_primary>  (21) 
energy

$$$$
21:0
     RDKit          3D

 42 45  0  0  0  0  0  0  0  0999 V2000
   -2.7670   17.5690  -34.7240 N   0  0  0  0  0  0  0  0  0  0  0  0
   -3.5640   17.1480  -33.6150 C   0  0  0  0  0  0  0  0  0  0  0  0
   -3.2440   16.0980  -32.9970 O   0  0  0  0  0  0  0  0  0  0  0  0
   -4.7400   17.9360  -33.1780 C   0  0  0  0  0  0  0  0  0  0  0  0
   -6.0080   17.4020  -32.9430 C   0  0  0  0  0  0  0  0  0  0  0  0
   -6.8030   18.4780  -32.6150 C   0  0  0  0  0  0  0  0  0  0  0  0
   -8.1490   18.5250  -32.2660 C   0  0  0  0  0  0  0  0  0  0  0  0
   -8.7030   19.7760  -31.9470 C   0  0  0  0  0  0  0  0  0  0  0  0
   -7.9120   20.9540  -31.9910 C   0  0  0  0  0  0  0  0  0  0  0  0
   -8.5030   22.2820  -31.5930 C   0  0  0  0  0  0  0  0  0  0  0  0
   -9.8500   22.3300  -31.9070 F   0  0  0  0  0  0  0  0  0  0  0  0
   -8.3690   22.4890  -30.2310 F   0  0  0  0  0  0  0  0  0  0  0  0
   -7.8470   23.2940  -32.2690 F   0  0  0  0  0  0  0  0  0  0  0  0
   -6.5400   20.8590  -32.3230 C   0  0  0  0  0  0  0  0  0  0  0  0
   -6.0230   19.6030  -32.6550 C   0  0  0  0  0  0  0  0  0  0  0  0
   -4.7580   19.2870  -33.0070 N   0  0  0  0  0  0  0  0  0  0  0  0
   -3.6500   20.1940  -33.1120 C   0  0  0  0  0  0  0  0  0  0  0  0
   -2.9740   20.2270  -34.1750 O   0  0  0  0  0  0  0  0  0  0  0  0
   -3.3070   21.0980  -32.0010 C   0  0  0  0  0  0  0  0  0  0  0  0
   -2.5940   20.7720  -30.8660 C   0  0  0  0  0  0  0  0  0  0  0  0
   -2.4820   21.8370  -30.1070 O   0  0  0  0  0  0  0  0  0  0  0  0
   -3.0780   22.8520  -30.6930 C   0  0  0  0  0  0  0  0  0  0  0  0
   -3.1390   24.1970  -30.0810 C   0  0  0  0  0  0  0  0  0  0  0  0
   -2.4750   24.4000  -29.0320 O   0  0  0  0  0  0  0  0  0  0  0  0
   -3.8830   25.2930  -30.6350 N   0  0  0  0  0  0  0  0  0  0  0  0
   -5.3250   25.3470  -30.8310 C   0  0  0  0  0  0  0  0  0  0  0  0
   -6.1170   25.6650  -29.5740 C   0  0  0  0  0  0  0  0  0  0  0  0
   -6.0470   24.2360  -30.0900 C   0  0  0  0  0  0  0  0  0  0  0  0
   -3.6220   22.4370  -31.8970 C   0  0  0  0  0  0  0  0  0  0  0  0
   -1.9210   17.0210  -34.9950 H   0  0  0  0  0  0  0  0  0  0  0  0
   -3.0320   18.3930  -35.3060 H   0  0  0  0  0  0  0  0  0  0  0  0
   -6.3087   16.3458  -33.0063 H   0  0  0  0  0  0  0  0  0  0  0  0
   -8.7605   17.6110  -32.2406 H   0  0  0  0  0  0  0  0  0  0  0  0
   -9.7626   19.8436  -31.6596 H   0  0  0  0  0  0  0  0  0  0  0  0
   -5.8961   21.7509  -32.3200 H   0  0  0  0  0  0  0  0  0  0  0  0
   -2.1845   19.7778  -30.6339 H   0  0  0  0  0  0  0  0  0  0  0  0
   -5.3203   25.7431  -31.8572 H   0  0  0  0  0  0  0  0  0  0  0  0
   -5.5918   25.9420  -28.6481 H   0  0  0  0  0  0  0  0  0  0  0  0
   -6.9293   26.3624  -29.3215 H   0  0  0  0  0  0  0  0  0  0  0  0
   -5.4713   23.4791  -29.5370 H   0  0  0  0  0  0  0  0  0  0  0  0
   -6.7881   23.4712  -30.3652 H   0  0  0  0  0  0  0  0  0  0  0  0
   -4.1862   23.0465  -32.6182 H   0  0  0  0  0  0  0  0  0  0  0  0
  1  2  1  0
  2  3  2  0
  2  4  1  0
  4  5  2  0
  5  6  1  0
  6  7  2  0
  7  8  1  0
  8  9  2  0
  9 10  1  0
 10 11  1  0
 10 12  1  0
 10 13  1  0
  9 14  1  0
 14 15  2  0
 15 16  1  0
 16 17  1  0
 17 18  2  0
 17 19  1  0
 19 20  2  0
 20 21  1  0
 21 22  1  0
 22 23  1  0
 23 24  2  0
 23 25  1  0
 25 26  1  0
 26 27  1  0
 27 28  1  0
 22 29  2  0
 16  4  1  0
 29 19  1  0
 15  6  1  0
 28 26  1  0
  1 30  1  0
  1 31  1  0
  5 32  1  0
  7 33  1  0
  8 34  1  0
 14 35  1  0
 20 36  1  0
 26 37  1  0
 27 38  1  0
 27 39  1  0
 28 40  1  0
 28 41  1  0
 29 42  1  0
M  CHG  1  25  -1
M  END
>  <UniqueID>  (22) 
22

>  <SMILES>  (22) 
NC(=O)c1cc2ccc(C(F)(F)F)cc2n1C(=O)c1coc(C(=O)[N-]C2CC2)c1

>  <Energy>  (22) 
376.583960725828

>  <Genealogy>  (22) 
NC(=O)c1cc2ccc(C(F)(F)F)cc2n1C(=O)c1coc(C(=O)[N-]C2CC2)c1 (protonated)
NC(=O)c1cc2ccc(C(F)(F)F)cc2n1C(=O)c1coc(C(=O)[N-]C2CC2)c1 (3D coordinates assigned)
NC(=O)c1cc2ccc(C(F)(F)F)cc2n1C(=O)c1coc(C(=O)[N-]C2CC2)c1 (nonaromatic ring conformer: 376.583960725828 kcal/mol)

>  <smiles>  (22) 
NC(=O)c1cc2ccc(C(F)(F)F)cc2n1C(=O)c1coc(C(=O)NC2CC2)c1

>  <score_type>  (22) 
oracle

>  <origin>  (22) 
adg

>  <m_score__min__energy>  (22) 
-10.01

>  <m_primary>  (22) 
energy

$$$$
22:0
     RDKit          3D

 40 41  0  0  0  0  0  0  0  0999 V2000
   -2.7580   22.0670  -27.6090 C   0  0  0  0  0  0  0  0  0  0  0  0
   -1.4690   22.0730  -28.4420 C   0  0  0  0  0  0  0  0  0  0  0  0
   -1.1720   20.6600  -28.9710 C   0  0  0  0  0  0  0  0  0  0  0  0
   -1.5200   23.1500  -29.5600 C   0  0  1  0  0  0  0  0  0  0  0  0
   -2.9040   23.3620  -30.0000 N   0  0  0  0  0  0  0  0  0  0  0  0
   -3.5850   22.4550  -30.8780 C   0  0  0  0  0  0  0  0  0  0  0  0
   -2.9580   21.5200  -31.4460 O   0  0  0  0  0  0  0  0  0  0  0  0
   -4.9940   22.6040  -31.1100 N   0  0  0  0  0  0  0  0  0  0  0  0
   -5.7590   23.7170  -30.9340 C   0  0  0  0  0  0  0  0  0  0  0  0
   -5.3060   25.0000  -30.3530 C   0  0  0  0  0  0  0  0  0  0  0  0
   -4.1430   25.6600  -30.8470 N   0  0  0  0  0  0  0  0  0  0  0  0
   -5.9370   25.5050  -29.3880 O   0  0  0  0  0  0  0  0  0  0  0  0
   -7.0740   23.4700  -31.3270 C   0  0  0  0  0  0  0  0  0  0  0  0
   -7.0880   22.1610  -31.7530 C   0  0  0  0  0  0  0  0  0  0  0  0
   -8.1290   21.3940  -32.2670 C   0  0  0  0  0  0  0  0  0  0  0  0
   -7.8450   20.0740  -32.6560 C   0  0  0  0  0  0  0  0  0  0  0  0
   -6.5330   19.5510  -32.5350 C   0  0  0  0  0  0  0  0  0  0  0  0
   -6.2450   18.1450  -32.9770 C   0  0  0  0  0  0  0  0  0  0  0  0
   -5.1490   17.6540  -32.2900 F   0  0  0  0  0  0  0  0  0  0  0  0
   -7.3410   17.3420  -32.7190 F   0  0  0  0  0  0  0  0  0  0  0  0
   -5.5010   20.3620  -32.0150 C   0  0  0  0  0  0  0  0  0  0  0  0
   -5.8180   21.6630  -31.6140 C   0  0  0  0  0  0  0  0  0  0  0  0
   -0.9000   24.4590  -29.1410 C   0  0  0  0  0  0  0  0  0  0  0  0
    0.2480   24.4740  -28.6210 O   0  0  0  0  0  0  0  0  0  0  0  0
   -1.5960   25.6540  -29.2870 O   0  0  0  0  0  0  0  0  0  0  0  0
   -2.5031   22.0682  -26.5389 H   0  0  0  0  0  0  0  0  0  0  0  0
   -3.3516   22.9624  -27.8455 H   0  0  0  0  0  0  0  0  0  0  0  0
   -3.3432   21.1661  -27.8455 H   0  0  0  0  0  0  0  0  0  0  0  0
   -0.6258   22.3576  -27.7955 H   0  0  0  0  0  0  0  0  0  0  0  0
   -1.0278   19.9739  -28.1233 H   0  0  0  0  0  0  0  0  0  0  0  0
   -2.0168   20.3129  -29.5840 H   0  0  0  0  0  0  0  0  0  0  0  0
   -0.2589   20.6824  -29.5840 H   0  0  0  0  0  0  0  0  0  0  0  0
   -0.9204   22.7664  -30.3986 H   0  0  0  0  0  0  0  0  0  0  0  0
   -3.4630   24.1350  -29.5720 H   0  0  0  0  0  0  0  0  0  0  0  0
   -3.1880   25.3010  -30.6270 H   0  0  0  0  0  0  0  0  0  0  0  0
   -7.9204   24.1721  -31.3019 H   0  0  0  0  0  0  0  0  0  0  0  0
   -9.1432   21.8083  -32.3658 H   0  0  0  0  0  0  0  0  0  0  0  0
   -8.6488   19.4401  -33.0585 H   0  0  0  0  0  0  0  0  0  0  0  0
   -6.0328   18.1442  -34.0563 H   0  0  0  0  0  0  0  0  0  0  0  0
   -4.4733   19.9797  -31.9276 H   0  0  0  0  0  0  0  0  0  0  0  0
  1  2  1  0
  2  3  1  0
  2  4  1  0
  4  5  1  0
  5  6  1  0
  6  7  2  0
  6  8  1  0
  8  9  1  0
  9 10  1  0
 10 11  1  0
 10 12  2  0
  9 13  2  0
 13 14  1  0
 14 15  2  0
 15 16  1  0
 16 17  2  0
 17 18  1  0
 18 19  1  0
 18 20  1  0
 17 21  1  0
 21 22  2  0
  4 23  1  0
 23 24  2  0
 23 25  1  0
 22  8  1  0
 22 14  1  0
  1 26  1  0
  1 27  1  0
  1 28  1  0
  2 29  1  0
  3 30  1  0
  3 31  1  0
  3 32  1  0
  4 33  1  6
  5 34  1  0
 11 35  1  0
 13 36  1  0
 15 37  1  0
 16 38  1  0
 18 39  1  0
 21 40  1  0
M  CHG  2  11  -1  25  -1
M  END
>  <UniqueID>  (23) 
23

>  <SMILES>  (23) 
CC(C)[C@@H](NC(=O)n1c(C([NH-])=O)cc2ccc(C(F)F)cc21)C(=O)[O-]

>  <Energy>  (23) 
73.80527126751035

>  <Genealogy>  (23) 
CC(C)C(NC(=O)n1c(C([NH-])=O)cc2ccc(C(F)F)cc21)C(=O)[O-] (protonated)
CC(C)[C@@H](NC(=O)n1c(C([NH-])=O)cc2ccc(C(F)F)cc21)C(=O)[O-] (chirality)
CC(C)[C@@H](NC(=O)n1c(C([NH-])=O)cc2ccc(C(F)F)cc21)C(=O)[O-] (3D coordinates assigned)
CC(C)[C@@H](NC(=O)n1c(C([NH-])=O)cc2ccc(C(F)F)cc21)C(=O)[O-] (optimized conformer: 73.80527126751035 kcal/mol)

>  <smiles>  (23) 
CC(C)C(NC(=O)n1c(C(N)=O)cc2ccc(C(F)F)cc21)C(=O)O

>  <score_type>  (23) 
oracle

>  <origin>  (23) 
adg

>  <m_score__min__energy>  (23) 
-12.34

>  <m_primary>  (23) 
energy

$$$$
23:0
     RDKit          3D

 37 38  0  0  0  0  0  0  0  0999 V2000
   -3.8410   16.1430  -33.0970 C   0  0  0  0  0  0  0  0  0  0  0  0
   -4.9790   17.1180  -33.0420 C   0  0  0  0  0  0  0  0  0  0  0  0
   -6.3120   16.6620  -33.1860 C   0  0  0  0  0  0  0  0  0  0  0  0
   -7.3870   17.5620  -33.1130 C   0  0  0  0  0  0  0  0  0  0  0  0
   -7.1010   18.9030  -32.8730 C   0  0  0  0  0  0  0  0  0  0  0  0
   -7.9480   19.9840  -32.7840 C   0  0  0  0  0  0  0  0  0  0  0  0
   -7.1220   21.0770  -32.5390 C   0  0  0  0  0  0  0  0  0  0  0  0
   -7.6310   22.4440  -32.3150 C   0  0  0  0  0  0  0  0  0  0  0  0
   -6.8910   23.5890  -32.7400 N   0  0  0  0  0  0  0  0  0  0  0  0
   -8.7120   22.6070  -31.6890 O   0  0  0  0  0  0  0  0  0  0  0  0
   -5.8140   20.6950  -32.4910 N   0  0  0  0  0  0  0  0  0  0  0  0
   -4.6630   21.5490  -32.3810 C   0  0  0  0  0  0  0  0  0  0  0  0
   -4.1110   22.0030  -33.4190 O   0  0  0  0  0  0  0  0  0  0  0  0
   -4.1600   21.8720  -31.1180 O   0  0  0  0  0  0  0  0  0  0  0  0
   -4.7930   22.8080  -30.2520 C   0  0  0  0  0  0  0  0  0  0  0  0
   -4.4420   24.2120  -30.6560 C   0  0  0  0  0  0  0  0  0  0  0  0
   -5.1290   24.7970  -31.5340 O   0  0  0  0  0  0  0  0  0  0  0  0
   -3.3610   24.9240  -30.0400 N   0  0  0  0  0  0  0  0  0  0  0  0
   -2.5050   24.4030  -28.9790 C   0  0  0  0  0  0  0  0  0  0  0  0
   -1.2260   25.1760  -28.9100 C   0  0  0  0  0  0  0  0  0  0  0  0
   -1.2370   26.4310  -29.0130 O   0  0  0  0  0  0  0  0  0  0  0  0
   -0.0220   24.5120  -28.7180 O   0  0  0  0  0  0  0  0  0  0  0  0
   -5.8190   19.3570  -32.6950 C   0  0  0  0  0  0  0  0  0  0  0  0
   -4.7260   18.4830  -32.7850 C   0  0  0  0  0  0  0  0  0  0  0  0
   -3.5339   15.8799  -32.0741 H   0  0  0  0  0  0  0  0  0  0  0  0
   -4.1615   15.2349  -33.6286 H   0  0  0  0  0  0  0  0  0  0  0  0
   -2.9928   16.5990  -33.6286 H   0  0  0  0  0  0  0  0  0  0  0  0
   -6.5069   15.5929  -33.3566 H   0  0  0  0  0  0  0  0  0  0  0  0
   -8.4239   17.2179  -33.2416 H   0  0  0  0  0  0  0  0  0  0  0  0
   -9.0434   19.9841  -32.8849 H   0  0  0  0  0  0  0  0  0  0  0  0
   -5.9190   23.4960  -33.1110 H   0  0  0  0  0  0  0  0  0  0  0  0
   -7.2860   24.5470  -32.6120 H   0  0  0  0  0  0  0  0  0  0  0  0
   -5.8835   22.6757  -30.3095 H   0  0  0  0  0  0  0  0  0  0  0  0
   -4.4462   22.6345  -29.2226 H   0  0  0  0  0  0  0  0  0  0  0  0
   -3.0306   24.4863  -28.0163 H   0  0  0  0  0  0  0  0  0  0  0  0
   -2.2727   23.3497  -29.1946 H   0  0  0  0  0  0  0  0  0  0  0  0
   -3.6974   18.8517  -32.6585 H   0  0  0  0  0  0  0  0  0  0  0  0
  1  2  1  0
  2  3  2  0
  3  4  1  0
  4  5  2  0
  5  6  1  0
  6  7  2  0
  7  8  1  0
  8  9  1  0
  8 10  2  0
  7 11  1  0
 11 12  1  0
 12 13  2  0
 12 14  1  0
 14 15  1  0
 15 16  1  0
 16 17  2  0
 16 18  1  0
 18 19  1  0
 19 20  1  0
 20 21  2  0
 20 22  1  0
 11 23  1  0
 23 24  2  0
 24  2  1  0
 23  5  1  0
  1 25  1  0
  1 26  1  0
  1 27  1  0
  3 28  1  0
  4 29  1  0
  6 30  1  0
  9 31  1  0
  9 32  1  0
 15 33  1  0
 15 34  1  0
 19 35  1  0
 19 36  1  0
 24 37  1  0
M  CHG  2  18  -1  22  -1
M  END
>  <UniqueID>  (24) 
24

>  <SMILES>  (24) 
Cc1ccc2cc(C(N)=O)n(C(=O)OCC(=O)[N-]CC(=O)[O-])c2c1

>  <Energy>  (24) 
70.64095474787007

>  <Genealogy>  (24) 
Cc1ccc2cc(C(N)=O)n(C(=O)OCC(=O)[N-]CC(=O)[O-])c2c1 (protonated)
Cc1ccc2cc(C(N)=O)n(C(=O)OCC(=O)[N-]CC(=O)[O-])c2c1 (3D coordinates assigned)
Cc1ccc2cc(C(N)=O)n(C(=O)OCC(=O)[N-]CC(=O)[O-])c2c1 (optimized conformer: 70.64095474787007 kcal/mol)

>  <smiles>  (24) 
Cc1ccc2cc(C(N)=O)n(C(=O)OCC(=O)NCC(=O)O)c2c1

>  <score_type>  (24) 
oracle

>  <origin>  (24) 
adg

>  <m_score__min__energy>  (24) 
-12.16

>  <m_primary>  (24) 
energy

$$$$
24:0
     RDKit          3D

 37 38  0  0  0  0  0  0  0  0999 V2000
   -5.8230   16.8350  -32.3630 C   0  0  0  0  0  0  0  0  0  0  0  0
   -5.8970   17.9740  -33.2850 N   0  0  0  0  0  0  0  0  0  0  0  0
   -5.6680   17.7430  -34.7180 C   0  0  0  0  0  0  0  0  0  0  0  0
   -6.1850   19.3080  -32.7900 C   0  0  0  0  0  0  0  0  0  0  0  0
   -7.4960   19.8580  -32.8970 C   0  0  0  0  0  0  0  0  0  0  0  0
   -7.7820   21.1530  -32.4320 C   0  0  0  0  0  0  0  0  0  0  0  0
   -6.7500   21.8820  -31.8570 C   0  0  0  0  0  0  0  0  0  0  0  0
   -6.7410   23.1660  -31.3550 C   0  0  0  0  0  0  0  0  0  0  0  0
   -5.4330   23.3860  -30.9290 C   0  0  0  0  0  0  0  0  0  0  0  0
   -4.9800   24.6320  -30.2760 C   0  0  0  0  0  0  0  0  0  0  0  0
   -3.9030   25.3780  -30.8400 N   0  0  0  0  0  0  0  0  0  0  0  0
   -5.5470   25.0580  -29.2350 O   0  0  0  0  0  0  0  0  0  0  0  0
   -4.6670   22.2830  -31.1550 N   0  0  0  0  0  0  0  0  0  0  0  0
   -3.2590   22.1250  -30.9190 C   0  0  0  0  0  0  0  0  0  0  0  0
   -2.4540   22.2500  -31.8800 O   0  0  0  0  0  0  0  0  0  0  0  0
   -2.7610   21.8460  -29.5570 C   0  0  0  0  0  0  0  0  0  0  0  0
   -3.2570   20.8810  -28.9180 O   0  0  0  0  0  0  0  0  0  0  0  0
   -1.7300   22.6230  -28.9310 N   0  0  0  0  0  0  0  0  0  0  0  0
   -1.9130   23.8780  -28.2080 C   0  0  0  0  0  0  0  0  0  0  0  0
   -0.8690   24.8710  -28.6140 C   0  0  0  0  0  0  0  0  0  0  0  0
    0.3370   24.6870  -28.3070 O   0  0  0  0  0  0  0  0  0  0  0  0
   -1.2340   26.0100  -29.3200 O   0  0  0  0  0  0  0  0  0  0  0  0
   -5.4860   21.3730  -31.7270 C   0  0  0  0  0  0  0  0  0  0  0  0
   -5.1650   20.0960  -32.1950 C   0  0  0  0  0  0  0  0  0  0  0  0
   -5.8468   17.2007  -31.3258 H   0  0  0  0  0  0  0  0  0  0  0  0
   -6.6796   16.1670  -32.5360 H   0  0  0  0  0  0  0  0  0  0  0  0
   -4.8871   16.2834  -32.5360 H   0  0  0  0  0  0  0  0  0  0  0  0
   -4.8988   16.9671  -34.8460 H   0  0  0  0  0  0  0  0  0  0  0  0
   -6.6047   17.4122  -35.1904 H   0  0  0  0  0  0  0  0  0  0  0  0
   -5.3290   18.6768  -35.1904 H   0  0  0  0  0  0  0  0  0  0  0  0
   -8.2980   19.2580  -33.3517 H   0  0  0  0  0  0  0  0  0  0  0  0
   -8.7934   21.5763  -32.5210 H   0  0  0  0  0  0  0  0  0  0  0  0
   -7.5867   23.8675  -31.3021 H   0  0  0  0  0  0  0  0  0  0  0  0
   -2.9310   25.2770  -30.4740 H   0  0  0  0  0  0  0  0  0  0  0  0
   -2.9090   24.2856  -28.4357 H   0  0  0  0  0  0  0  0  0  0  0  0
   -1.8214   23.6849  -27.1290 H   0  0  0  0  0  0  0  0  0  0  0  0
   -4.1397   19.7081  -32.1039 H   0  0  0  0  0  0  0  0  0  0  0  0
  1  2  1  0
  2  3  1  0
  2  4  1  0
  4  5  2  0
  5  6  1  0
  6  7  2  0
  7  8  1  0
  8  9  2  0
  9 10  1  0
 10 11  1  0
 10 12  2  0
  9 13  1  0
 13 14  1  0
 14 15  2  0
 14 16  1  0
 16 17  2  0
 16 18  1  0
 18 19  1  0
 19 20  1  0
 20 21  2  0
 20 22  1  0
 13 23  1  0
 23 24  2  0
 24  4  1  0
 23  7  1  0
  1 25  1  0
  1 26  1  0
  1 27  1  0
  3 28  1  0
  3 29  1  0
  3 30  1  0
  5 31  1  0
  6 32  1  0
  8 33  1  0
 11 34  1  0
 19 35  1  0
 19 36  1  0
 24 37  1  0
M  CHG  3  11  -1  18  -1  22  -1
M  END
>  <UniqueID>  (25) 
25

>  <SMILES>  (25) 
CN(C)c1ccc2cc(C([NH-])=O)n(C(=O)C(=O)[N-]CC(=O)[O-])c2c1

>  <Energy>  (25) 
76.8134172493586

>  <Genealogy>  (25) 
CN(C)c1ccc2cc(C([NH-])=O)n(C(=O)C(=O)[N-]CC(=O)[O-])c2c1 (protonated)
CN(C)c1ccc2cc(C([NH-])=O)n(C(=O)C(=O)[N-]CC(=O)[O-])c2c1 (3D coordinates assigned)
CN(C)c1ccc2cc(C([NH-])=O)n(C(=O)C(=O)[N-]CC(=O)[O-])c2c1 (optimized conformer: 76.8134172493586 kcal/mol)

>  <smiles>  (25) 
CN(C)c1ccc2cc(C(N)=O)n(C(=O)C(=O)NCC(=O)O)c2c1

>  <score_type>  (25) 
oracle

>  <origin>  (25) 
adg

>  <m_score__min__energy>  (25) 
-12.640000000000001

>  <m_primary>  (25) 
energy

$$$$
25:0
     RDKit          3D

 30 31  0  0  0  0  0  0  0  0999 V2000
   -3.8960   25.6150  -30.8470 N   0  0  0  0  0  0  0  0  0  0  0  0
   -5.2130   25.2730  -30.4220 C   0  0  0  0  0  0  0  0  0  0  0  0
   -5.8450   26.0700  -29.6770 O   0  0  0  0  0  0  0  0  0  0  0  0
   -5.8570   24.0190  -30.8670 C   0  0  0  0  0  0  0  0  0  0  0  0
   -7.2300   23.8830  -31.0660 C   0  0  0  0  0  0  0  0  0  0  0  0
   -7.4090   22.5950  -31.5180 C   0  0  0  0  0  0  0  0  0  0  0  0
   -8.5770   21.9170  -31.8560 C   0  0  0  0  0  0  0  0  0  0  0  0
   -8.4650   20.5750  -32.2610 C   0  0  0  0  0  0  0  0  0  0  0  0
   -7.1990   19.9390  -32.3130 C   0  0  0  0  0  0  0  0  0  0  0  0
   -7.0850   18.5010  -32.7300 C   0  0  0  0  0  0  0  0  0  0  0  0
   -8.2010   17.8050  -32.3030 F   0  0  0  0  0  0  0  0  0  0  0  0
   -5.9530   17.9400  -32.1690 F   0  0  0  0  0  0  0  0  0  0  0  0
   -6.0370   20.6600  -31.9570 C   0  0  0  0  0  0  0  0  0  0  0  0
   -6.1770   21.9980  -31.5770 C   0  0  0  0  0  0  0  0  0  0  0  0
   -5.2140   22.8610  -31.1860 N   0  0  0  0  0  0  0  0  0  0  0  0
   -3.8160   22.5660  -31.0500 C   0  0  0  0  0  0  0  0  0  0  0  0
   -3.1300   22.3050  -32.0760 O   0  0  0  0  0  0  0  0  0  0  0  0
   -3.1710   22.5650  -29.7310 C   0  0  0  0  0  0  0  0  0  0  0  0
   -3.3930   21.6230  -28.9220 O   0  0  0  0  0  0  0  0  0  0  0  0
   -2.3030   23.6070  -29.3860 O   0  0  0  0  0  0  0  0  0  0  0  0
   -2.4250   24.3540  -28.1800 C   0  0  0  0  0  0  0  0  0  0  0  0
   -1.2160   25.6640  -28.1400 Cl  0  0  0  0  0  0  0  0  0  0  0  0
   -3.0590   25.2970  -30.3100 H   0  0  0  0  0  0  0  0  0  0  0  0
   -8.0063   24.6439  -30.8975 H   0  0  0  0  0  0  0  0  0  0  0  0
   -9.5565   22.4153  -31.8078 H   0  0  0  0  0  0  0  0  0  0  0  0
   -9.3686   20.0132  -32.5402 H   0  0  0  0  0  0  0  0  0  0  0  0
   -7.0142   18.4474  -33.8264 H   0  0  0  0  0  0  0  0  0  0  0  0
   -5.0472   20.1805  -31.9784 H   0  0  0  0  0  0  0  0  0  0  0  0
   -3.4337   24.7890  -28.1228 H   0  0  0  0  0  0  0  0  0  0  0  0
   -2.2553   23.6836  -27.3246 H   0  0  0  0  0  0  0  0  0  0  0  0
  1  2  1  0
  2  3  2  0
  2  4  1  0
  4  5  2  0
  5  6  1  0
  6  7  2  0
  7  8  1  0
  8  9  2  0
  9 10  1  0
 10 11  1  0
 10 12  1  0
  9 13  1  0
 13 14  2  0
 14 15  1  0
 15 16  1  0
 16 17  2  0
 16 18  1  0
 18 19  2  0
 18 20  1  0
 20 21  1  0
 21 22  1  0
 15  4  1  0
 14  6  1  0
  1 23  1  0
  5 24  1  0
  7 25  1  0
  8 26  1  0
 10 27  1  0
 13 28  1  0
 21 29  1  0
 21 30  1  0
M  CHG  1   1  -1
M  END
>  <UniqueID>  (26) 
26

>  <SMILES>  (26) 
[NH-]C(=O)c1cc2ccc(C(F)F)cc2n1C(=O)C(=O)OCCl

>  <Energy>  (26) 
67.29749295464744

>  <Genealogy>  (26) 
[NH-]C(=O)c1cc2ccc(C(F)F)cc2n1C(=O)C(=O)OCCl (protonated)
[NH-]C(=O)c1cc2ccc(C(F)F)cc2n1C(=O)C(=O)OCCl (3D coordinates assigned)
[NH-]C(=O)c1cc2ccc(C(F)F)cc2n1C(=O)C(=O)OCCl (optimized conformer: 67.29749295464744 kcal/mol)

>  <smiles>  (26) 
NC(=O)c1cc2ccc(C(F)F)cc2n1C(=O)C(=O)OCCl

>  <score_type>  (26) 
oracle

>  <origin>  (26) 
adg

>  <m_score__min__energy>  (26) 
-8.9900000000000002

>  <m_primary>  (26) 
energy

$$$$
26:0
     RDKit          3D

 55 57  0  0  0  0  0  0  0  0999 V2000
   -0.3380   14.4300  -34.0970 C   0  0  0  0  0  0  0  0  0  0  0  0
   -1.4550   15.3320  -34.6470 C   0  0  0  0  0  0  0  0  0  0  0  0
   -1.1870   15.5960  -36.1420 C   0  0  0  0  0  0  0  0  0  0  0  0
   -1.4630   16.6520  -33.8540 C   0  0  0  0  0  0  0  0  0  0  0  0
   -2.6930   14.6270  -34.4720 O   0  0  0  0  0  0  0  0  0  0  0  0
   -3.6450   14.8530  -33.4640 C   0  0  0  0  0  0  0  0  0  0  0  0
   -3.6190   14.1820  -32.3980 O   0  0  0  0  0  0  0  0  0  0  0  0
   -4.6590   15.8580  -33.6490 N   0  0  0  0  0  0  0  0  0  0  0  0
   -5.7270   15.9950  -32.6450 C   0  0  0  0  0  0  0  0  0  0  0  0
   -6.7690   17.0320  -33.0720 C   0  0  0  0  0  0  0  0  0  0  0  0
   -6.0880   18.2420  -33.5460 N   0  0  0  0  0  0  0  0  0  0  0  0
   -6.3870   19.5290  -32.9720 C   0  0  0  0  0  0  0  0  0  0  0  0
   -7.7270   19.9910  -32.9150 C   0  0  0  0  0  0  0  0  0  0  0  0
   -8.0310   21.2440  -32.3580 C   0  0  0  0  0  0  0  0  0  0  0  0
   -6.9830   22.0040  -31.8500 C   0  0  0  0  0  0  0  0  0  0  0  0
   -6.9940   23.2540  -31.2770 C   0  0  0  0  0  0  0  0  0  0  0  0
   -5.6660   23.5270  -30.9600 C   0  0  0  0  0  0  0  0  0  0  0  0
   -5.2380   24.7430  -30.2380 C   0  0  0  0  0  0  0  0  0  0  0  0
   -4.3310   25.6660  -30.8340 N   0  0  0  0  0  0  0  0  0  0  0  0
   -5.6420   24.9450  -29.0630 O   0  0  0  0  0  0  0  0  0  0  0  0
   -4.8610   22.4900  -31.3310 N   0  0  0  0  0  0  0  0  0  0  0  0
   -3.4290   22.4220  -31.2550 C   0  0  0  0  0  0  0  0  0  0  0  0
   -2.8270   21.3850  -31.6470 O   0  0  0  0  0  0  0  0  0  0  0  0
   -2.7060   23.5130  -30.7610 O   0  0  0  0  0  0  0  0  0  0  0  0
   -2.4470   23.7110  -29.3750 C   0  0  0  0  0  0  0  0  0  0  0  0
   -2.5320   25.0750  -29.0690 O   0  0  0  0  0  0  0  0  0  0  0  0
   -5.6850   21.5630  -31.8730 C   0  0  0  0  0  0  0  0  0  0  0  0
   -5.3500   20.3300  -32.4420 C   0  0  0  0  0  0  0  0  0  0  0  0
   -5.0210   18.1280  -34.5530 C   0  0  0  0  0  0  0  0  0  0  0  0
   -4.6990   16.6630  -34.8810 C   0  0  0  0  0  0  0  0  0  0  0  0
   -0.3603   14.4480  -32.9974 H   0  0  0  0  0  0  0  0  0  0  0  0
   -0.4916   13.3996  -34.4501 H   0  0  0  0  0  0  0  0  0  0  0  0
    0.6370   14.7971  -34.4501 H   0  0  0  0  0  0  0  0  0  0  0  0
   -0.4068   16.3646  -36.2445 H   0  0  0  0  0  0  0  0  0  0  0  0
   -0.8512   14.6661  -36.6241 H   0  0  0  0  0  0  0  0  0  0  0  0
   -2.1118   15.9457  -36.6241 H   0  0  0  0  0  0  0  0  0  0  0  0
   -1.4617   16.4322  -32.7762 H   0  0  0  0  0  0  0  0  0  0  0  0
   -0.5684   17.2388  -34.1097 H   0  0  0  0  0  0  0  0  0  0  0  0
   -2.3647   17.2279  -34.1097 H   0  0  0  0  0  0  0  0  0  0  0  0
   -6.2233   15.0218  -32.5160 H   0  0  0  0  0  0  0  0  0  0  0  0
   -5.2724   16.3310  -31.7013 H   0  0  0  0  0  0  0  0  0  0  0  0
   -7.3878   16.6182  -33.8819 H   0  0  0  0  0  0  0  0  0  0  0  0
   -7.4094   17.2837  -32.2138 H   0  0  0  0  0  0  0  0  0  0  0  0
   -8.5369   19.3610  -33.3114 H   0  0  0  0  0  0  0  0  0  0  0  0
   -9.0667   21.6130  -32.3246 H   0  0  0  0  0  0  0  0  0  0  0  0
   -7.8669   23.9010  -31.1055 H   0  0  0  0  0  0  0  0  0  0  0  0
   -3.3480   25.3890  -31.0530 H   0  0  0  0  0  0  0  0  0  0  0  0
   -3.1887   23.1562  -28.7815 H   0  0  0  0  0  0  0  0  0  0  0  0
   -1.4366   23.3467  -29.1376 H   0  0  0  0  0  0  0  0  0  0  0  0
   -3.4900   25.2580  -28.8940 H   0  0  0  0  0  0  0  0  0  0  0  0
   -4.3039   19.9916  -32.4762 H   0  0  0  0  0  0  0  0  0  0  0  0
   -5.3447   18.6359  -35.4735 H   0  0  0  0  0  0  0  0  0  0  0  0
   -4.1129   18.5935  -34.1423 H   0  0  0  0  0  0  0  0  0  0  0  0
   -5.4745   16.2626  -35.5505 H   0  0  0  0  0  0  0  0  0  0  0  0
   -3.7152   16.6149  -35.3707 H   0  0  0  0  0  0  0  0  0  0  0  0
  1  2  1  0
  2  3  1  0
  2  4  1  0
  2  5  1  0
  5  6  1  0
  6  7  2  0
  6  8  1  0
  8  9  1  0
  9 10  1  0
 10 11  1  0
 11 12  1  0
 12 13  2  0
 13 14  1  0
 14 15  2  0
 15 16  1  0
 16 17  2  0
 17 18  1  0
 18 19  1  0
 18 20  2  0
 17 21  1  0
 21 22  1  0
 22 23  2  0
 22 24  1  0
 24 25  1  0
 25 26  1  0
 21 27  1  0
 27 28  2  0
 11 29  1  0
 29 30  1  0
 30  8  1  0
 28 12  1  0
 27 15  1  0
  1 31  1  0
  1 32  1  0
  1 33  1  0
  3 34  1  0
  3 35  1  0
  3 36  1  0
  4 37  1  0
  4 38  1  0
  4 39  1  0
  9 40  1  0
  9 41  1  0
 10 42  1  0
 10 43  1  0
 13 44  1  0
 14 45  1  0
 16 46  1  0
 19 47  1  0
 25 48  1  0
 25 49  1  0
 26 50  1  0
 28 51  1  0
 29 52  1  0
 29 53  1  0
 30 54  1  0
 30 55  1  0
M  CHG  1  19  -1
M  END
>  <UniqueID>  (27) 
27

>  <SMILES>  (27) 
CC(C)(C)OC(=O)N1CCN(c2ccc3cc(C([NH-])=O)n(C(=O)OCO)c3c2)CC1

>  <Energy>  (27) 
92.36985837038574

>  <Genealogy>  (27) 
CC(C)(C)OC(=O)N1CCN(c2ccc3cc(C([NH-])=O)n(C(=O)OCO)c3c2)CC1 (protonated)
CC(C)(C)OC(=O)N1CCN(c2ccc3cc(C([NH-])=O)n(C(=O)OCO)c3c2)CC1 (3D coordinates assigned)
CC(C)(C)OC(=O)N1CCN(c2ccc3cc(C([NH-])=O)n(C(=O)OCO)c3c2)CC1 (nonaromatic ring conformer: 92.36985837038574 kcal/mol)

>  <smiles>  (27) 
CC(C)(C)OC(=O)N1CCN(c2ccc3cc(C(N)=O)n(C(=O)OCO)c3c2)CC1

>  <score_type>  (27) 
oracle

>  <origin>  (27) 
adg

>  <m_score__min__energy>  (27) 
-10.039999999999999

>  <m_primary>  (27) 
energy

$$$$
27:0
     RDKit          3D

 53 55  0  0  0  0  0  0  0  0999 V2000
   -3.8410   19.3390  -32.4930 C   0  0  0  0  0  0  0  0  0  0  0  0
   -4.5050   18.4480  -33.4400 N   0  0  0  0  0  0  0  0  0  0  0  0
   -4.0980   18.2750  -34.6870 N   0  0  0  0  0  0  0  0  0  0  0  0
   -4.9430   17.4000  -35.2730 C   0  0  0  0  0  0  0  0  0  0  0  0
   -5.9130   17.0100  -34.3670 C   0  0  0  0  0  0  0  0  0  0  0  0
   -5.6100   17.7080  -33.2170 C   0  0  0  0  0  0  0  0  0  0  0  0
   -6.3410   17.6050  -31.9100 C   0  0  0  0  0  0  0  0  0  0  0  0
   -7.8150   18.0060  -32.0820 C   0  0  0  0  0  0  0  0  0  0  0  0
   -7.9870   19.0480  -33.1080 N   0  0  0  0  0  0  0  0  0  0  0  0
   -7.9070   20.3680  -32.5300 C   0  0  0  0  0  0  0  0  0  0  0  0
   -9.0780   21.0000  -32.0330 C   0  0  0  0  0  0  0  0  0  0  0  0
   -9.0140   22.2740  -31.4490 C   0  0  0  0  0  0  0  0  0  0  0  0
   -7.7690   22.8880  -31.3570 C   0  0  0  0  0  0  0  0  0  0  0  0
   -7.4240   24.1170  -30.8450 C   0  0  0  0  0  0  0  0  0  0  0  0
   -6.0440   24.2130  -31.0070 C   0  0  0  0  0  0  0  0  0  0  0  0
   -5.2420   25.3460  -30.5010 C   0  0  0  0  0  0  0  0  0  0  0  0
   -3.9030   25.5230  -30.9530 N   0  0  0  0  0  0  0  0  0  0  0  0
   -5.7400   26.1840  -29.7050 O   0  0  0  0  0  0  0  0  0  0  0  0
   -5.5550   23.0890  -31.6050 N   0  0  0  0  0  0  0  0  0  0  0  0
   -4.1990   22.8250  -32.0000 C   0  0  0  0  0  0  0  0  0  0  0  0
   -3.9700   22.2610  -33.1040 O   0  0  0  0  0  0  0  0  0  0  0  0
   -3.1470   23.2120  -31.1560 O   0  0  0  0  0  0  0  0  0  0  0  0
   -2.4940   22.3900  -30.1790 C   0  0  0  0  0  0  0  0  0  0  0  0
   -3.4670   21.3320  -29.6250 C   0  0  0  0  0  0  0  0  0  0  0  0
   -1.9220   23.2510  -29.0360 C   0  0  0  0  0  0  0  0  0  0  0  0
   -1.3350   21.6750  -30.8880 C   0  0  0  0  0  0  0  0  0  0  0  0
   -6.6230   22.2880  -31.8120 C   0  0  0  0  0  0  0  0  0  0  0  0
   -6.6610   21.0300  -32.4260 C   0  0  0  0  0  0  0  0  0  0  0  0
   -4.0762   19.0234  -31.4658 H   0  0  0  0  0  0  0  0  0  0  0  0
   -2.7531   19.2958  -32.6498 H   0  0  0  0  0  0  0  0  0  0  0  0
   -4.1934   20.3691  -32.6498 H   0  0  0  0  0  0  0  0  0  0  0  0
   -4.8710   17.0502  -36.3134 H   0  0  0  0  0  0  0  0  0  0  0  0
   -6.7398   16.3025  -34.5278 H   0  0  0  0  0  0  0  0  0  0  0  0
   -6.2884   16.5680  -31.5470 H   0  0  0  0  0  0  0  0  0  0  0  0
   -5.8703   18.2858  -31.1855 H   0  0  0  0  0  0  0  0  0  0  0  0
   -8.3925   17.1177  -32.3776 H   0  0  0  0  0  0  0  0  0  0  0  0
   -8.1710   18.4111  -31.1233 H   0  0  0  0  0  0  0  0  0  0  0  0
   -7.2760   18.9310  -33.8670 H   0  0  0  0  0  0  0  0  0  0  0  0
   -8.9290   18.9310  -33.5510 H   0  0  0  0  0  0  0  0  0  0  0  0
  -10.0468   20.4842  -32.1069 H   0  0  0  0  0  0  0  0  0  0  0  0
   -9.9206   22.7723  -31.0752 H   0  0  0  0  0  0  0  0  0  0  0  0
   -8.0962   24.8661  -30.4012 H   0  0  0  0  0  0  0  0  0  0  0  0
   -3.0940   25.2480  -30.3530 H   0  0  0  0  0  0  0  0  0  0  0  0
   -3.4461   21.3547  -28.5254 H   0  0  0  0  0  0  0  0  0  0  0  0
   -4.4859   21.5509  -29.9770 H   0  0  0  0  0  0  0  0  0  0  0  0
   -3.1638   20.3349  -29.9770 H   0  0  0  0  0  0  0  0  0  0  0  0
   -2.2115   22.8152  -28.0684 H   0  0  0  0  0  0  0  0  0  0  0  0
   -0.8250   23.2792  -29.1119 H   0  0  0  0  0  0  0  0  0  0  0  0
   -2.3212   24.2732  -29.1119 H   0  0  0  0  0  0  0  0  0  0  0  0
   -0.6506   21.2528  -30.1374 H   0  0  0  0  0  0  0  0  0  0  0  0
   -1.7336   20.8656  -31.5173 H   0  0  0  0  0  0  0  0  0  0  0  0
   -0.7904   22.3944  -31.5173 H   0  0  0  0  0  0  0  0  0  0  0  0
   -5.7434   20.5673  -32.8183 H   0  0  0  0  0  0  0  0  0  0  0  0
  1  2  1  0
  2  3  1  0
  3  4  2  0
  4  5  1  0
  5  6  2  0
  6  7  1  0
  7  8  1  0
  8  9  1  0
  9 10  1  0
 10 11  2  0
 11 12  1  0
 12 13  2  0
 13 14  1  0
 14 15  2  0
 15 16  1  0
 16 17  1  0
 16 18  2  0
 15 19  1  0
 19 20  1  0
 20 21  2  0
 20 22  1  0
 22 23  1  0
 23 24  1  0
 23 25  1  0
 23 26  1  0
 19 27  1  0
 27 28  2  0
  6  2  1  0
 28 10  1  0
 27 13  1  0
  1 29  1  0
  1 30  1  0
  1 31  1  0
  4 32  1  0
  5 33  1  0
  7 34  1  0
  7 35  1  0
  8 36  1  0
  8 37  1  0
  9 38  1  0
  9 39  1  0
 11 40  1  0
 12 41  1  0
 14 42  1  0
 17 43  1  0
 24 44  1  0
 24 45  1  0
 24 46  1  0
 25 47  1  0
 25 48  1  0
 25 49  1  0
 26 50  1  0
 26 51  1  0
 26 52  1  0
 28 53  1  0
M  CHG  2   9   1  17  -1
M  END
>  <UniqueID>  (28) 
28

>  <SMILES>  (28) 
Cn1nccc1CC[NH2+]c1ccc2cc(C([NH-])=O)n(C(=O)OC(C)(C)C)c2c1

>  <Energy>  (28) 
115.21913317794794

>  <Genealogy>  (28) 
Cn1nccc1CC[NH2+]c1ccc2cc(C([NH-])=O)n(C(=O)OC(C)(C)C)c2c1 (protonated)
Cn1nccc1CC[NH2+]c1ccc2cc(C([NH-])=O)n(C(=O)OC(C)(C)C)c2c1 (3D coordinates assigned)
Cn1nccc1CC[NH2+]c1ccc2cc(C([NH-])=O)n(C(=O)OC(C)(C)C)c2c1 (optimized conformer: 115.21913317794794 kcal/mol)

>  <smiles>  (28) 
Cn1nccc1CCNc1ccc2cc(C(N)=O)n(C(=O)OC(C)(C)C)c2c1

>  <score_type>  (28) 
oracle

>  <origin>  (28) 
adg

>  <m_score__min__energy>  (28) 
-10.859999999999999

>  <m_primary>  (28) 
energy

$$$$
28:0
     RDKit          3D

 38 40  0  0  0  0  0  0  0  0999 V2000
   -3.8690   25.4480  -30.8960 N   0  0  0  0  0  0  0  0  0  0  0  0
   -5.1910   25.1550  -30.4510 C   0  0  0  0  0  0  0  0  0  0  0  0
   -5.7700   25.9560  -29.6700 O   0  0  0  0  0  0  0  0  0  0  0  0
   -5.8820   23.9190  -30.8790 C   0  0  0  0  0  0  0  0  0  0  0  0
   -7.2190   23.8720  -31.2760 C   0  0  0  0  0  0  0  0  0  0  0  0
   -7.4700   22.5470  -31.5560 C   0  0  0  0  0  0  0  0  0  0  0  0
   -8.6360   21.9240  -31.9880 C   0  0  0  0  0  0  0  0  0  0  0  0
   -8.6020   20.5350  -32.2010 C   0  0  0  0  0  0  0  0  0  0  0  0
   -7.4040   19.7990  -32.0020 C   0  0  0  0  0  0  0  0  0  0  0  0
   -7.3920   18.3030  -32.1860 C   0  0  0  0  0  0  0  0  0  0  0  0
   -6.9760   17.9720  -33.4650 F   0  0  0  0  0  0  0  0  0  0  0  0
   -6.5300   17.7060  -31.2830 F   0  0  0  0  0  0  0  0  0  0  0  0
   -8.6680   17.8110  -31.9850 F   0  0  0  0  0  0  0  0  0  0  0  0
   -6.2460   20.4670  -31.5430 C   0  0  0  0  0  0  0  0  0  0  0  0
   -6.3160   21.8470  -31.3300 C   0  0  0  0  0  0  0  0  0  0  0  0
   -5.3370   22.6730  -30.9100 N   0  0  0  0  0  0  0  0  0  0  0  0
   -3.9860   22.2980  -30.6170 C   0  0  0  0  0  0  0  0  0  0  0  0
   -3.4370   21.3840  -31.2910 O   0  0  0  0  0  0  0  0  0  0  0  0
   -3.2570   22.9540  -29.5690 N   0  0  0  0  0  0  0  0  0  0  0  0
   -1.8920   23.4290  -29.7240 C   0  0  0  0  0  0  0  0  0  0  0  0
   -1.6070   24.2950  -28.4980 C   0  0  1  0  0  0  0  0  0  0  0  0
   -1.7150   25.6510  -28.8530 O   0  0  0  0  0  0  0  0  0  0  0  0
   -2.6870   23.8960  -27.4730 C   0  0  1  0  0  0  0  0  0  0  0  0
   -3.0920   24.9590  -26.6440 O   0  0  0  0  0  0  0  0  0  0  0  0
   -3.8400   23.3030  -28.2850 C   0  0  0  0  0  0  0  0  0  0  0  0
   -3.0440   25.2740  -30.2810 H   0  0  0  0  0  0  0  0  0  0  0  0
   -7.9228   24.7141  -31.3497 H   0  0  0  0  0  0  0  0  0  0  0  0
   -9.5571   22.5009  -32.1579 H   0  0  0  0  0  0  0  0  0  0  0  0
   -9.5138   20.0122  -32.5255 H   0  0  0  0  0  0  0  0  0  0  0  0
   -5.3128   19.9148  -31.3580 H   0  0  0  0  0  0  0  0  0  0  0  0
   -1.1937   22.5799  -29.7631 H   0  0  0  0  0  0  0  0  0  0  0  0
   -1.7662   23.9973  -30.6574 H   0  0  0  0  0  0  0  0  0  0  0  0
   -0.5963   24.1494  -28.0891 H   0  0  0  0  0  0  0  0  0  0  0  0
   -1.9970   25.6740  -29.8050 H   0  0  0  0  0  0  0  0  0  0  0  0
   -2.2866   23.1601  -26.7602 H   0  0  0  0  0  0  0  0  0  0  0  0
   -3.1490   25.7800  -27.1990 H   0  0  0  0  0  0  0  0  0  0  0  0
   -4.2428   22.4084  -27.7876 H   0  0  0  0  0  0  0  0  0  0  0  0
   -4.6767   24.0093  -28.3901 H   0  0  0  0  0  0  0  0  0  0  0  0
  1  2  1  0
  2  3  2  0
  2  4  1  0
  4  5  2  0
  5  6  1  0
  6  7  2  0
  7  8  1  0
  8  9  2  0
  9 10  1  0
 10 11  1  0
 10 12  1  0
 10 13  1  0
  9 14  1  0
 14 15  2  0
 15 16  1  0
 16 17  1  0
 17 18  2  0
 17 19  1  0
 19 20  1  0
 20 21  1  0
 21 22  1  0
 21 23  1  0
 23 24  1  0
 23 25  1  0
 16  4  1  0
 25 19  1  0
 15  6  1  0
  1 26  1  0
  5 27  1  0
  7 28  1  0
  8 29  1  0
 14 30  1  0
 20 31  1  0
 20 32  1  0
 21 33  1  1
 22 34  1  0
 23 35  1  1
 24 36  1  0
 25 37  1  0
 25 38  1  0
M  CHG  1   1  -1
M  END
>  <UniqueID>  (29) 
29

>  <SMILES>  (29) 
[NH-]C(=O)c1cc2ccc(C(F)(F)F)cc2n1C(=O)N1C[C@@H](O)[C@@H](O)C1

>  <Energy>  (29) 
82.28998108714515

>  <Genealogy>  (29) 
[NH-]C(=O)c1cc2ccc(C(F)(F)F)cc2n1C(=O)N1C[C@@H](O)[C@@H](O)C1 (protonated)
[NH-]C(=O)c1cc2ccc(C(F)(F)F)cc2n1C(=O)N1C[C@@H](O)[C@@H](O)C1 (3D coordinates assigned)
[NH-]C(=O)c1cc2ccc(C(F)(F)F)cc2n1C(=O)N1C[C@@H](O)[C@@H](O)C1 (nonaromatic ring conformer: 82.28998108714515 kcal/mol)

>  <smiles>  (29) 
NC(=O)c1cc2ccc(C(F)(F)F)cc2n1C(=O)N1C[C@@H](O)[C@@H](O)C1

>  <score_type>  (29) 
oracle

>  <origin>  (29) 
adg

>  <m_score__min__energy>  (29) 
-11.449999999999999

>  <m_primary>  (29) 
energy

$$$$
29:0
     RDKit          3D

 56 57  0  0  0  0  0  0  0  0999 V2000
   -0.5450   21.1240  -34.9660 C   0  0  0  0  0  0  0  0  0  0  0  0
   -0.4190   20.9410  -33.4450 C   0  0  0  0  0  0  0  0  0  0  0  0
    0.9500   20.3070  -33.1290 C   0  0  0  0  0  0  0  0  0  0  0  0
   -1.5940   20.0950  -32.8620 C   0  0  2  0  0  0  0  0  0  0  0  0
   -2.8810   20.4400  -33.4920 N   0  0  0  0  0  0  0  0  0  0  0  0
   -1.6880   20.2810  -31.3670 C   0  0  0  0  0  0  0  0  0  0  0  0
   -0.6420   20.3110  -30.6590 O   0  0  0  0  0  0  0  0  0  0  0  0
   -2.9480   20.3320  -30.7660 O   0  0  0  0  0  0  0  0  0  0  0  0
   -3.4860   21.5240  -30.2000 C   0  0  0  0  0  0  0  0  0  0  0  0
   -4.1070   22.3440  -31.2850 C   0  0  0  0  0  0  0  0  0  0  0  0
   -3.4190   22.6630  -32.2930 O   0  0  0  0  0  0  0  0  0  0  0  0
   -5.4560   22.8170  -31.1700 N   0  0  0  0  0  0  0  0  0  0  0  0
   -5.8860   24.0900  -30.9400 C   0  0  0  0  0  0  0  0  0  0  0  0
   -5.0280   25.2580  -30.6540 C   0  0  0  0  0  0  0  0  0  0  0  0
   -3.6130   25.1190  -30.5220 N   0  0  0  0  0  0  0  0  0  0  0  0
   -5.5570   26.3900  -30.4640 O   0  0  0  0  0  0  0  0  0  0  0  0
   -7.2840   24.1320  -30.9270 C   0  0  0  0  0  0  0  0  0  0  0  0
   -7.6920   22.8340  -31.1490 C   0  0  0  0  0  0  0  0  0  0  0  0
   -8.9760   22.2950  -31.2410 C   0  0  0  0  0  0  0  0  0  0  0  0
   -9.0960   20.9200  -31.5060 C   0  0  0  0  0  0  0  0  0  0  0  0
   -7.9450   20.1110  -31.6910 C   0  0  0  0  0  0  0  0  0  0  0  0
   -8.1130   18.7130  -31.9870 N   0  0  0  0  0  0  0  0  0  0  0  0
   -9.3710   18.2280  -32.1120 F   0  0  0  0  0  0  0  0  0  0  0  0
   -6.9940   17.7680  -32.0560 C   0  0  0  0  0  0  0  0  0  0  0  0
   -6.5180   17.5750  -33.5000 C   0  0  0  0  0  0  0  0  0  0  0  0
   -4.9870   18.4460  -33.8360 S   0  0  0  0  0  0  0  0  0  0  0  0
   -4.0750   17.6920  -35.1640 C   0  0  0  0  0  0  0  0  0  0  0  0
   -4.1420   18.4180  -32.5940 O   0  0  0  0  0  0  0  0  0  0  0  0
   -5.2870   19.8760  -34.1900 O   0  0  0  0  0  0  0  0  0  0  0  0
   -6.6610   20.6900  -31.5710 C   0  0  0  0  0  0  0  0  0  0  0  0
   -6.5710   22.0620  -31.2940 C   0  0  0  0  0  0  0  0  0  0  0  0
   -1.1570   22.0129  -35.1789 H   0  0  0  0  0  0  0  0  0  0  0  0
    0.4557   21.2544  -35.4038 H   0  0  0  0  0  0  0  0  0  0  0  0
   -1.0238   20.2357  -35.4038 H   0  0  0  0  0  0  0  0  0  0  0  0
   -0.4820   21.9261  -32.9597 H   0  0  0  0  0  0  0  0  0  0  0  0
    1.0827   20.2455  -32.0388 H   0  0  0  0  0  0  0  0  0  0  0  0
    0.9947   19.2965  -33.5614 H   0  0  0  0  0  0  0  0  0  0  0  0
    1.7495   20.9265  -33.5614 H   0  0  0  0  0  0  0  0  0  0  0  0
   -1.3795   19.0393  -33.0844 H   0  0  0  0  0  0  0  0  0  0  0  0
   -3.1500   19.7130  -34.1930 H   0  0  0  0  0  0  0  0  0  0  0  0
   -2.8050   21.3710  -33.9650 H   0  0  0  0  0  0  0  0  0  0  0  0
   -3.6310   20.5240  -32.7660 H   0  0  0  0  0  0  0  0  0  0  0  0
   -4.2494   21.2645  -29.4517 H   0  0  0  0  0  0  0  0  0  0  0  0
   -2.6834   22.0986  -29.7145 H   0  0  0  0  0  0  0  0  0  0  0  0
   -3.0590   24.5380  -31.1910 H   0  0  0  0  0  0  0  0  0  0  0  0
   -7.9228   25.0141  -30.7724 H   0  0  0  0  0  0  0  0  0  0  0  0
   -9.8668   22.9269  -31.1101 H   0  0  0  0  0  0  0  0  0  0  0  0
  -10.0954   20.4650  -31.5709 H   0  0  0  0  0  0  0  0  0  0  0  0
   -6.1600   18.1552  -31.4523 H   0  0  0  0  0  0  0  0  0  0  0  0
   -7.3351   16.7963  -31.6695 H   0  0  0  0  0  0  0  0  0  0  0  0
   -6.3606   16.5013  -33.6797 H   0  0  0  0  0  0  0  0  0  0  0  0
   -7.2911   17.9855  -34.1662 H   0  0  0  0  0  0  0  0  0  0  0  0
   -3.2902   17.0432  -34.7478 H   0  0  0  0  0  0  0  0  0  0  0  0
   -4.7577   17.0910  -35.7827 H   0  0  0  0  0  0  0  0  0  0  0  0
   -3.6131   18.4755  -35.7827 H   0  0  0  0  0  0  0  0  0  0  0  0
   -5.7542   20.0792  -31.6920 H   0  0  0  0  0  0  0  0  0  0  0  0
  1  2  1  0
  2  3  1  0
  2  4  1  0
  4  5  1  0
  4  6  1  0
  6  7  2  0
  6  8  1  0
  8  9  1  0
  9 10  1  0
 10 11  2  0
 10 12  1  0
 12 13  1  0
 13 14  1  0
 14 15  1  0
 14 16  2  0
 13 17  2  0
 17 18  1  0
 18 19  2  0
 19 20  1  0
 20 21  2  0
 21 22  1  0
 22 23  1  0
 22 24  1  0
 24 25  1  0
 25 26  1  0
 26 27  1  0
 26 28  2  0
 26 29  2  0
 21 30  1  0
 30 31  2  0
 31 12  1  0
 31 18  1  0
  1 32  1  0
  1 33  1  0
  1 34  1  0
  2 35  1  0
  3 36  1  0
  3 37  1  0
  3 38  1  0
  4 39  1  1
  5 40  1  0
  5 41  1  0
  5 42  1  0
  9 43  1  0
  9 44  1  0
 15 45  1  0
 17 46  1  0
 19 47  1  0
 20 48  1  0
 24 49  1  0
 24 50  1  0
 25 51  1  0
 25 52  1  0
 27 53  1  0
 27 54  1  0
 27 55  1  0
 30 56  1  0
M  CHG  2   5   1  15  -1
M  END
>  <UniqueID>  (30) 
30

>  <SMILES>  (30) 
CC(C)[C@H]([NH3+])C(=O)OCC(=O)n1c(C([NH-])=O)cc2ccc(N(F)CCS(C)(=O)=O)cc21

>  <Energy>  (30) 
82.54449070810031

>  <Genealogy>  (30) 
CC(C)C([NH3+])C(=O)OCC(=O)n1c(C([NH-])=O)cc2ccc(N(F)CCS(C)(=O)=O)cc21 (protonated)
CC(C)[C@H]([NH3+])C(=O)OCC(=O)n1c(C([NH-])=O)cc2ccc(N(F)CCS(C)(=O)=O)cc21 (chirality)
CC(C)[C@H]([NH3+])C(=O)OCC(=O)n1c(C([NH-])=O)cc2ccc(N(F)CCS(C)(=O)=O)cc21 (3D coordinates assigned)
CC(C)[C@H]([NH3+])C(=O)OCC(=O)n1c(C([NH-])=O)cc2ccc(N(F)CCS(C)(=O)=O)cc21 (optimized conformer: 82.54449070810031 kcal/mol)

>  <smiles>  (30) 
CC(C)C(N)C(=O)OCC(=O)n1c(C(N)=O)cc2ccc(N(F)CCS(C)(=O)=O)cc21

>  <score_type>  (30) 
oracle

>  <origin>  (30) 
adg

>  <m_score__min__energy>  (30) 
-10.81

>  <m_primary>  (30) 
energy

$$$$
30:0
     RDKit          3D

 40 41  0  0  0  0  0  0  0  0999 V2000
   -3.6660   22.4110  -28.7410 C   0  0  0  0  0  0  0  0  0  0  0  0
   -3.0040   22.7030  -30.0150 N   0  0  0  0  0  0  0  0  0  0  0  0
   -1.5800   23.0650  -30.0300 C   0  0  0  0  0  0  0  0  0  0  0  0
   -1.3540   24.3750  -29.3420 C   0  0  0  0  0  0  0  0  0  0  0  0
   -2.2310   25.2770  -29.3890 O   0  0  0  0  0  0  0  0  0  0  0  0
   -0.1850   24.5900  -28.6230 O   0  0  0  0  0  0  0  0  0  0  0  0
   -3.7480   22.5660  -31.2420 C   0  0  0  0  0  0  0  0  0  0  0  0
   -3.1410   22.3840  -32.3310 O   0  0  0  0  0  0  0  0  0  0  0  0
   -5.1790   22.6420  -31.2460 N   0  0  0  0  0  0  0  0  0  0  0  0
   -5.9550   23.7190  -30.9420 C   0  0  0  0  0  0  0  0  0  0  0  0
   -5.4700   25.0150  -30.4190 C   0  0  0  0  0  0  0  0  0  0  0  0
   -4.1750   25.5180  -30.7490 N   0  0  0  0  0  0  0  0  0  0  0  0
   -6.2020   25.6750  -29.6340 O   0  0  0  0  0  0  0  0  0  0  0  0
   -7.2920   23.4490  -31.2230 C   0  0  0  0  0  0  0  0  0  0  0  0
   -7.3080   22.1640  -31.7190 C   0  0  0  0  0  0  0  0  0  0  0  0
   -8.3650   21.3990  -32.1950 C   0  0  0  0  0  0  0  0  0  0  0  0
   -8.0800   20.1220  -32.7060 C   0  0  0  0  0  0  0  0  0  0  0  0
   -6.7440   19.6290  -32.7500 C   0  0  0  0  0  0  0  0  0  0  0  0
   -6.4570   18.3120  -33.2850 N   0  0  0  0  0  0  0  0  0  0  0  0
   -6.8700   17.1050  -32.5590 C   0  0  0  0  0  0  0  0  0  0  0  0
   -5.7390   18.1660  -34.5570 C   0  0  0  0  0  0  0  0  0  0  0  0
   -5.6980   20.4530  -32.2610 C   0  0  0  0  0  0  0  0  0  0  0  0
   -6.0190   21.7060  -31.7320 C   0  0  0  0  0  0  0  0  0  0  0  0
   -3.0066   22.7019  -27.9100 H   0  0  0  0  0  0  0  0  0  0  0  0
   -4.6067   22.9777  -28.6782 H   0  0  0  0  0  0  0  0  0  0  0  0
   -3.8818   21.3342  -28.6782 H   0  0  0  0  0  0  0  0  0  0  0  0
   -1.0042   22.2830  -29.5134 H   0  0  0  0  0  0  0  0  0  0  0  0
   -1.2519   23.1564  -31.0759 H   0  0  0  0  0  0  0  0  0  0  0  0
   -3.4600   24.9200  -31.2180 H   0  0  0  0  0  0  0  0  0  0  0  0
   -3.8860   26.4660  -30.4210 H   0  0  0  0  0  0  0  0  0  0  0  0
   -8.1523   24.1193  -31.0794 H   0  0  0  0  0  0  0  0  0  0  0  0
   -9.3958   21.7822  -32.1725 H   0  0  0  0  0  0  0  0  0  0  0  0
   -8.9016   19.4924  -33.0782 H   0  0  0  0  0  0  0  0  0  0  0  0
   -6.8071   17.2888  -31.4763 H   0  0  0  0  0  0  0  0  0  0  0  0
   -7.9060   16.8516  -32.8283 H   0  0  0  0  0  0  0  0  0  0  0  0
   -6.2064   16.2701  -32.8283 H   0  0  0  0  0  0  0  0  0  0  0  0
   -4.6790   17.9505  -34.3571 H   0  0  0  0  0  0  0  0  0  0  0  0
   -6.1789   17.3389  -35.1336 H   0  0  0  0  0  0  0  0  0  0  0  0
   -5.8210   19.0992  -35.1336 H   0  0  0  0  0  0  0  0  0  0  0  0
   -4.6529   20.1118  -32.2976 H   0  0  0  0  0  0  0  0  0  0  0  0
  1  2  1  0
  2  3  1  0
  3  4  1  0
  4  5  2  0
  4  6  1  0
  2  7  1  0
  7  8  2  0
  7  9  1  0
  9 10  1  0
 10 11  1  0
 11 12  1  0
 11 13  2  0
 10 14  2  0
 14 15  1  0
 15 16  2  0
 16 17  1  0
 17 18  2  0
 18 19  1  0
 19 20  1  0
 19 21  1  0
 18 22  1  0
 22 23  2  0
 23  9  1  0
 23 15  1  0
  1 24  1  0
  1 25  1  0
  1 26  1  0
  3 27  1  0
  3 28  1  0
 12 29  1  0
 12 30  1  0
 14 31  1  0
 16 32  1  0
 17 33  1  0
 20 34  1  0
 20 35  1  0
 20 36  1  0
 21 37  1  0
 21 38  1  0
 21 39  1  0
 22 40  1  0
M  CHG  1   6  -1
M  END
>  <UniqueID>  (31) 
31

>  <SMILES>  (31) 
CN(CC(=O)[O-])C(=O)n1c(C(N)=O)cc2ccc(N(C)C)cc21

>  <Energy>  (31) 
78.41361557247536

>  <Genealogy>  (31) 
CN(CC(=O)[O-])C(=O)n1c(C(N)=O)cc2ccc(N(C)C)cc21 (protonated)
CN(CC(=O)[O-])C(=O)n1c(C(N)=O)cc2ccc(N(C)C)cc21 (3D coordinates assigned)
CN(CC(=O)[O-])C(=O)n1c(C(N)=O)cc2ccc(N(C)C)cc21 (optimized conformer: 78.41361557247536 kcal/mol)

>  <smiles>  (31) 
CN(CC(=O)O)C(=O)n1c(C(N)=O)cc2ccc(N(C)C)cc21

>  <score_type>  (31) 
oracle

>  <origin>  (31) 
adg

>  <m_score__min__energy>  (31) 
-10.529999999999999

>  <m_primary>  (31) 
energy

$$$$
31:0
     RDKit          3D

 41 42  0  0  0  0  0  0  0  0999 V2000
   -7.8420   18.7120  -32.3310 C   0  0  0  0  0  0  0  0  0  0  0  0
   -7.7270   20.1760  -32.0300 C   0  0  0  0  0  0  0  0  0  0  0  0
   -8.8870   20.9910  -32.0180 C   0  0  0  0  0  0  0  0  0  0  0  0
   -8.7940   22.3600  -31.7160 C   0  0  0  0  0  0  0  0  0  0  0  0
   -7.5390   22.8790  -31.4140 C   0  0  0  0  0  0  0  0  0  0  0  0
   -7.1590   24.1680  -31.1180 C   0  0  0  0  0  0  0  0  0  0  0  0
   -5.7820   24.1130  -30.9180 C   0  0  0  0  0  0  0  0  0  0  0  0
   -4.9700   25.2770  -30.5070 C   0  0  0  0  0  0  0  0  0  0  0  0
   -3.6290   25.1120  -30.0520 N   0  0  0  0  0  0  0  0  0  0  0  0
   -5.4810   26.4290  -30.5150 O   0  0  0  0  0  0  0  0  0  0  0  0
   -5.3270   22.8390  -31.0850 N   0  0  0  0  0  0  0  0  0  0  0  0
   -3.9660   22.3850  -31.0730 C   0  0  0  0  0  0  0  0  0  0  0  0
   -3.0510   23.1290  -31.5210 O   0  0  0  0  0  0  0  0  0  0  0  0
   -3.6580   21.1330  -30.5290 O   0  0  0  0  0  0  0  0  0  0  0  0
   -2.7850   20.9590  -29.4150 C   0  0  0  0  0  0  0  0  0  0  0  0
   -2.7920   22.1910  -28.5490 C   0  0  0  0  0  0  0  0  0  0  0  0
   -3.5190   22.2190  -27.5650 O   0  0  0  0  0  0  0  0  0  0  0  0
   -1.9200   23.3100  -28.8560 N   0  0  2  0  0  0  0  0  0  0  0  0
   -0.6540   22.8430  -29.4460 C   0  0  0  0  0  0  0  0  0  0  0  0
   -1.7190   24.1940  -27.6830 C   0  0  0  0  0  0  0  0  0  0  0  0
   -1.1890   25.5600  -28.0310 C   0  0  0  0  0  0  0  0  0  0  0  0
   -0.6970   26.2970  -27.1360 O   0  0  0  0  0  0  0  0  0  0  0  0
   -1.2410   26.0140  -29.3420 O   0  0  0  0  0  0  0  0  0  0  0  0
   -6.4130   22.0960  -31.3880 C   0  0  0  0  0  0  0  0  0  0  0  0
   -6.4730   20.7330  -31.7020 C   0  0  0  0  0  0  0  0  0  0  0  0
   -7.8864   18.1463  -31.3887 H   0  0  0  0  0  0  0  0  0  0  0  0
   -8.7574   18.5280  -32.9126 H   0  0  0  0  0  0  0  0  0  0  0  0
   -6.9666   18.3874  -32.9126 H   0  0  0  0  0  0  0  0  0  0  0  0
   -9.8675   20.5481  -32.2469 H   0  0  0  0  0  0  0  0  0  0  0  0
   -9.6869   23.0024  -31.7183 H   0  0  0  0  0  0  0  0  0  0  0  0
   -7.8065   25.0549  -31.0531 H   0  0  0  0  0  0  0  0  0  0  0  0
   -2.8220   25.2620  -30.6970 H   0  0  0  0  0  0  0  0  0  0  0  0
   -3.1214   20.0961  -28.8215 H   0  0  0  0  0  0  0  0  0  0  0  0
   -1.7633   20.7866  -29.7842 H   0  0  0  0  0  0  0  0  0  0  0  0
   -2.3900   23.8970  -29.5870 H   0  0  0  0  0  0  0  0  0  0  0  0
    0.0510   22.5829  -28.6427 H   0  0  0  0  0  0  0  0  0  0  0  0
   -0.8445   21.9560  -30.0680 H   0  0  0  0  0  0  0  0  0  0  0  0
   -0.2229   23.6413  -30.0680 H   0  0  0  0  0  0  0  0  0  0  0  0
   -2.6857   24.3174  -27.1728 H   0  0  0  0  0  0  0  0  0  0  0  0
   -0.9632   23.7115  -27.0458 H   0  0  0  0  0  0  0  0  0  0  0  0
   -5.5652   20.1119  -31.6932 H   0  0  0  0  0  0  0  0  0  0  0  0
  1  2  1  0
  2  3  2  0
  3  4  1  0
  4  5  2  0
  5  6  1  0
  6  7  2  0
  7  8  1  0
  8  9  1  0
  8 10  2  0
  7 11  1  0
 11 12  1  0
 12 13  2  0
 12 14  1  0
 14 15  1  0
 15 16  1  0
 16 17  2  0
 16 18  1  0
 18 19  1  0
 18 20  1  0
 20 21  1  0
 21 22  2  0
 21 23  1  0
 11 24  1  0
 24 25  2  0
 25  2  1  0
 24  5  1  0
  1 26  1  0
  1 27  1  0
  1 28  1  0
  3 29  1  0
  4 30  1  0
  6 31  1  0
  9 32  1  0
 15 33  1  0
 15 34  1  0
 18 35  1  6
 19 36  1  0
 19 37  1  0
 19 38  1  0
 20 39  1  0
 20 40  1  0
 25 41  1  0
M  CHG  3   9  -1  18   1  23  -1
M  END
>  <UniqueID>  (32) 
32

>  <SMILES>  (32) 
Cc1ccc2cc(C([NH-])=O)n(C(=O)OCC(=O)[N@H+](C)CC(=O)[O-])c2c1

>  <Energy>  (32) 
79.2497330372375

>  <Genealogy>  (32) 
Cc1ccc2cc(C([NH-])=O)n(C(=O)OCC(=O)[NH+](C)CC(=O)[O-])c2c1 (protonated)
Cc1ccc2cc(C([NH-])=O)n(C(=O)OCC(=O)[N@H+](C)CC(=O)[O-])c2c1 (chirality)
Cc1ccc2cc(C([NH-])=O)n(C(=O)OCC(=O)[N@H+](C)CC(=O)[O-])c2c1 (3D coordinates assigned)
Cc1ccc2cc(C([NH-])=O)n(C(=O)OCC(=O)[N@H+](C)CC(=O)[O-])c2c1 (optimized conformer: 79.2497330372375 kcal/mol)

>  <smiles>  (32) 
Cc1ccc2cc(C(N)=O)n(C(=O)OCC(=O)N(C)CC(=O)O)c2c1

>  <score_type>  (32) 
oracle

>  <origin>  (32) 
adg

>  <m_score__min__energy>  (32) 
-11.01

>  <m_primary>  (32) 
energy

$$$$
32:0
     RDKit          3D

 34 36  0  0  0  0  0  0  0  0999 V2000
   -6.2680   18.7600  -33.8770 C   0  0  0  0  0  0  0  0  0  0  0  0
   -7.1830   19.5830  -33.0230 C   0  0  0  0  0  0  0  0  0  0  0  0
   -8.5250   19.5540  -33.1160 N   0  0  0  0  0  0  0  0  0  0  0  0
   -9.0110   20.3830  -32.2410 O   0  0  0  0  0  0  0  0  0  0  0  0
   -8.0440   20.9740  -31.5750 C   0  0  0  0  0  0  0  0  0  0  0  0
   -8.2740   21.9890  -30.5040 C   0  0  0  0  0  0  0  0  0  0  0  0
   -6.8270   20.4930  -32.0400 C   0  0  0  0  0  0  0  0  0  0  0  0
   -5.4680   20.8700  -31.5950 C   0  0  0  0  0  0  0  0  0  0  0  0
   -4.3960   19.9520  -31.7230 C   0  0  0  0  0  0  0  0  0  0  0  0
   -3.1040   20.2940  -31.2940 C   0  0  0  0  0  0  0  0  0  0  0  0
   -2.9110   21.5620  -30.7530 C   0  0  0  0  0  0  0  0  0  0  0  0
   -1.7720   22.1340  -30.2370 C   0  0  0  0  0  0  0  0  0  0  0  0
   -2.1540   23.4070  -29.8220 C   0  0  0  0  0  0  0  0  0  0  0  0
   -1.2070   24.3900  -29.2510 C   0  0  0  0  0  0  0  0  0  0  0  0
   -1.6130   25.7250  -28.9630 N   0  0  0  0  0  0  0  0  0  0  0  0
   -0.0060   24.0580  -29.0580 O   0  0  0  0  0  0  0  0  0  0  0  0
   -3.4800   23.6150  -30.0660 N   0  0  0  0  0  0  0  0  0  0  0  0
   -4.2550   24.7740  -29.7120 C   0  0  0  0  0  0  0  0  0  0  0  0
   -4.2600   25.7970  -30.4440 O   0  0  0  0  0  0  0  0  0  0  0  0
   -3.9290   22.4720  -30.6380 C   0  0  0  0  0  0  0  0  0  0  0  0
   -5.2320   22.1470  -31.0380 C   0  0  0  0  0  0  0  0  0  0  0  0
   -5.6044   18.1632  -33.2340 H   0  0  0  0  0  0  0  0  0  0  0  0
   -6.8645   18.0885  -34.5121 H   0  0  0  0  0  0  0  0  0  0  0  0
   -5.6632   19.4240  -34.5121 H   0  0  0  0  0  0  0  0  0  0  0  0
   -9.0960   18.9680  -33.7640 H   0  0  0  0  0  0  0  0  0  0  0  0
   -8.1661   21.5128  -29.5183 H   0  0  0  0  0  0  0  0  0  0  0  0
   -7.5367   22.7994  -30.6024 H   0  0  0  0  0  0  0  0  0  0  0  0
   -9.2886   22.4024  -30.6024 H   0  0  0  0  0  0  0  0  0  0  0  0
   -4.5784   18.9606  -32.1633 H   0  0  0  0  0  0  0  0  0  0  0  0
   -2.2700   19.5822  -31.3826 H   0  0  0  0  0  0  0  0  0  0  0  0
   -0.7716   21.6819  -30.1670 H   0  0  0  0  0  0  0  0  0  0  0  0
   -2.6220   25.9930  -28.9690 H   0  0  0  0  0  0  0  0  0  0  0  0
   -4.8518   24.7656  -28.7880 H   0  0  0  0  0  0  0  0  0  0  0  0
   -6.0529   22.8698  -30.9210 H   0  0  0  0  0  0  0  0  0  0  0  0
  1  2  1  0
  2  3  2  0
  3  4  1  0
  4  5  1  0
  5  6  1  0
  5  7  2  0
  7  8  1  0
  8  9  2  0
  9 10  1  0
 10 11  2  0
 11 12  1  0
 12 13  2  0
 13 14  1  0
 14 15  1  0
 14 16  2  0
 13 17  1  0
 17 18  1  0
 18 19  2  0
 17 20  1  0
 20 21  2  0
  7  2  1  0
 21  8  1  0
 20 11  1  0
  1 22  1  0
  1 23  1  0
  1 24  1  0
  3 25  1  0
  6 26  1  0
  6 27  1  0
  6 28  1  0
  9 29  1  0
 10 30  1  0
 12 31  1  0
 15 32  1  0
 18 33  1  0
 21 34  1  0
M  CHG  2   3   1  15  -1
M  END
>  <UniqueID>  (33) 
33

>  <SMILES>  (33) 
Cc1[nH+]oc(C)c1-c1ccc2cc(C([NH-])=O)n(C=O)c2c1

>  <Energy>  (33) 
108.44447561848126

>  <Genealogy>  (33) 
Cc1[nH+]oc(C)c1-c1ccc2cc(C([NH-])=O)n(C=O)c2c1 (protonated)
Cc1[nH+]oc(C)c1-c1ccc2cc(C([NH-])=O)n(C=O)c2c1 (3D coordinates assigned)
Cc1[nH+]oc(C)c1-c1ccc2cc(C([NH-])=O)n(C=O)c2c1 (optimized conformer: 108.44447561848126 kcal/mol)

>  <smiles>  (33) 
Cc1noc(C)c1-c1ccc2cc(C(N)=O)n(C=O)c2c1

>  <score_type>  (33) 
oracle

>  <origin>  (33) 
adg

>  <m_score__min__energy>  (33) 
-10.15

>  <m_primary>  (33) 
energy

$$$$
33:0
     RDKit          3D

 38 39  0  0  0  0  0  0  0  0999 V2000
   -3.9240   17.7250  -34.3200 N   0  0  0  0  0  0  0  0  0  0  0  0
   -5.1820   18.3460  -34.5890 C   0  0  0  0  0  0  0  0  0  0  0  0
   -5.7290   18.1730  -35.7110 O   0  0  0  0  0  0  0  0  0  0  0  0
   -5.8200   19.2390  -33.6020 C   0  0  0  0  0  0  0  0  0  0  0  0
   -7.1410   19.1010  -33.1850 C   0  0  0  0  0  0  0  0  0  0  0  0
   -7.3610   20.1520  -32.3240 C   0  0  0  0  0  0  0  0  0  0  0  0
   -8.4990   20.4870  -31.6000 C   0  0  0  0  0  0  0  0  0  0  0  0
   -8.4340   21.6010  -30.7490 C   0  0  0  0  0  0  0  0  0  0  0  0
   -7.2410   22.3570  -30.6290 C   0  0  0  0  0  0  0  0  0  0  0  0
   -7.2200   23.4780  -29.7230 N   0  0  0  0  0  0  0  0  0  0  0  0
   -6.3340   24.6360  -29.8430 C   0  0  0  0  0  0  0  0  0  0  0  0
   -4.9910   24.3600  -29.1610 C   0  0  0  0  0  0  0  0  0  0  0  0
   -3.8700   24.9690  -29.9440 C   0  0  0  0  0  0  0  0  0  0  0  0
   -4.0460   25.3060  -31.1440 O   0  0  0  0  0  0  0  0  0  0  0  0
   -2.6490   25.2170  -29.3320 O   0  0  0  0  0  0  0  0  0  0  0  0
   -6.0980   21.9800  -31.3790 C   0  0  0  0  0  0  0  0  0  0  0  0
   -6.1990   20.8750  -32.2350 C   0  0  0  0  0  0  0  0  0  0  0  0
   -5.2400   20.3230  -33.0120 N   0  0  0  0  0  0  0  0  0  0  0  0
   -3.8640   20.7260  -33.0940 C   0  0  0  0  0  0  0  0  0  0  0  0
   -3.5800   21.9190  -33.3900 O   0  0  0  0  0  0  0  0  0  0  0  0
   -2.8500   19.7920  -32.8340 O   0  0  0  0  0  0  0  0  0  0  0  0
   -1.6790   19.6480  -33.5900 C   0  0  0  0  0  0  0  0  0  0  0  0
   -1.4990   18.6440  -34.3320 O   0  0  0  0  0  0  0  0  0  0  0  0
   -0.6020   20.6760  -33.4770 C   0  0  0  0  0  0  0  0  0  0  0  0
   -0.5070   21.3880  -34.6590 F   0  0  0  0  0  0  0  0  0  0  0  0
   -0.8880   21.5540  -32.4450 F   0  0  0  0  0  0  0  0  0  0  0  0
    0.6040   20.0510  -33.2230 F   0  0  0  0  0  0  0  0  0  0  0  0
   -3.5100   17.0630  -35.0140 H   0  0  0  0  0  0  0  0  0  0  0  0
   -3.3660   17.9780  -33.4760 H   0  0  0  0  0  0  0  0  0  0  0  0
   -7.8561   18.3191  -33.4805 H   0  0  0  0  0  0  0  0  0  0  0  0
   -9.4228   19.8968  -31.6912 H   0  0  0  0  0  0  0  0  0  0  0  0
   -9.3211   21.8915  -30.1671 H   0  0  0  0  0  0  0  0  0  0  0  0
   -7.8900   23.4780  -28.9210 H   0  0  0  0  0  0  0  0  0  0  0  0
   -6.1613   24.8503  -30.9080 H   0  0  0  0  0  0  0  0  0  0  0  0
   -6.8096   25.4987  -29.3536 H   0  0  0  0  0  0  0  0  0  0  0  0
   -5.0030   24.7927  -28.1497 H   0  0  0  0  0  0  0  0  0  0  0  0
   -4.8368   23.2722  -29.1065 H   0  0  0  0  0  0  0  0  0  0  0  0
   -5.1558   22.5408  -31.2911 H   0  0  0  0  0  0  0  0  0  0  0  0
  1  2  1  0
  2  3  2  0
  2  4  1  0
  4  5  2  0
  5  6  1  0
  6  7  2  0
  7  8  1  0
  8  9  2  0
  9 10  1  0
 10 11  1  0
 11 12  1  0
 12 13  1  0
 13 14  2  0
 13 15  1  0
  9 16  1  0
 16 17  2  0
 17 18  1  0
 18 19  1  0
 19 20  2  0
 19 21  1  0
 21 22  1  0
 22 23  2  0
 22 24  1  0
 24 25  1  0
 24 26  1  0
 24 27  1  0
 18  4  1  0
 17  6  1  0
  1 28  1  0
  1 29  1  0
  5 30  1  0
  7 31  1  0
  8 32  1  0
 10 33  1  0
 11 34  1  0
 11 35  1  0
 12 36  1  0
 12 37  1  0
 16 38  1  0
M  CHG  1  15  -1
M  END
>  <UniqueID>  (34) 
34

>  <SMILES>  (34) 
NC(=O)c1cc2ccc(NCCC(=O)[O-])cc2n1C(=O)OC(=O)C(F)(F)F

>  <Energy>  (34) 
73.14123741088966

>  <Genealogy>  (34) 
NC(=O)c1cc2ccc(NCCC(=O)[O-])cc2n1C(=O)OC(=O)C(F)(F)F (protonated)
NC(=O)c1cc2ccc(NCCC(=O)[O-])cc2n1C(=O)OC(=O)C(F)(F)F (3D coordinates assigned)
NC(=O)c1cc2ccc(NCCC(=O)[O-])cc2n1C(=O)OC(=O)C(F)(F)F (optimized conformer: 73.14123741088966 kcal/mol)

>  <smiles>  (34) 
NC(=O)c1cc2ccc(NCCC(=O)O)cc2n1C(=O)OC(=O)C(F)(F)F

>  <score_type>  (34) 
oracle

>  <origin>  (34) 
adg

>  <m_score__min__energy>  (34) 
-9.4199999999999999

>  <m_primary>  (34) 
energy

$$$$
34:0
     RDKit          3D

 33 34  0  0  0  0  0  0  0  0999 V2000
   -3.9470   25.4260  -30.8380 N   0  0  0  0  0  0  0  0  0  0  0  0
   -4.9530   24.6120  -30.2400 C   0  0  0  0  0  0  0  0  0  0  0  0
   -5.4820   24.9820  -29.1590 O   0  0  0  0  0  0  0  0  0  0  0  0
   -5.3540   23.3250  -30.8490 C   0  0  0  0  0  0  0  0  0  0  0  0
   -6.4910   23.1680  -31.6400 C   0  0  0  0  0  0  0  0  0  0  0  0
   -6.5310   21.8290  -31.9600 C   0  0  0  0  0  0  0  0  0  0  0  0
   -7.4480   21.1170  -32.7260 C   0  0  0  0  0  0  0  0  0  0  0  0
   -7.2310   19.7410  -32.9030 C   0  0  0  0  0  0  0  0  0  0  0  0
   -6.0940   19.1060  -32.3380 C   0  0  0  0  0  0  0  0  0  0  0  0
   -5.8950   17.6200  -32.4990 C   0  0  0  0  0  0  0  0  0  0  0  0
   -6.8190   17.0960  -33.3860 F   0  0  0  0  0  0  0  0  0  0  0  0
   -4.6260   17.3480  -32.9830 F   0  0  0  0  0  0  0  0  0  0  0  0
   -6.0490   17.0060  -31.2710 F   0  0  0  0  0  0  0  0  0  0  0  0
   -5.1960   19.8620  -31.5490 C   0  0  0  0  0  0  0  0  0  0  0  0
   -5.4480   21.2270  -31.3750 C   0  0  0  0  0  0  0  0  0  0  0  0
   -4.7220   22.1300  -30.6800 N   0  0  0  0  0  0  0  0  0  0  0  0
   -3.4720   21.8850  -30.0140 C   0  0  0  0  0  0  0  0  0  0  0  0
   -3.3030   20.7960  -29.4030 O   0  0  0  0  0  0  0  0  0  0  0  0
   -2.4060   22.9080  -29.9440 C   0  0  0  0  0  0  0  0  0  0  0  0
   -2.3320   23.8920  -29.0210 C   0  0  0  0  0  0  0  0  0  0  0  0
   -3.3700   24.0820  -28.0370 N   0  0  0  0  0  0  0  0  0  0  0  0
   -1.1440   24.7800  -29.0030 C   0  0  0  0  0  0  0  0  0  0  0  0
   -1.2490   25.9900  -29.3420 O   0  0  0  0  0  0  0  0  0  0  0  0
    0.1000   24.3030  -28.6030 O   0  0  0  0  0  0  0  0  0  0  0  0
   -2.9450   25.3290  -30.5630 H   0  0  0  0  0  0  0  0  0  0  0  0
   -7.2047   23.9479  -31.9440 H   0  0  0  0  0  0  0  0  0  0  0  0
   -8.3168   21.6166  -33.1794 H   0  0  0  0  0  0  0  0  0  0  0  0
   -7.9507   19.1480  -33.4865 H   0  0  0  0  0  0  0  0  0  0  0  0
   -4.3198   19.3876  -31.0830 H   0  0  0  0  0  0  0  0  0  0  0  0
   -1.6110   22.8643  -30.7030 H   0  0  0  0  0  0  0  0  0  0  0  0
   -4.1810   23.4630  -28.2610 H   0  0  0  0  0  0  0  0  0  0  0  0
   -3.0210   23.8390  -27.0820 H   0  0  0  0  0  0  0  0  0  0  0  0
   -3.6680   25.0820  -28.0000 H   0  0  0  0  0  0  0  0  0  0  0  0
  1  2  1  0
  2  3  2  0
  2  4  1  0
  4  5  2  0
  5  6  1  0
  6  7  2  0
  7  8  1  0
  8  9  2  0
  9 10  1  0
 10 11  1  0
 10 12  1  0
 10 13  1  0
  9 14  1  0
 14 15  2  0
 15 16  1  0
 16 17  1  0
 17 18  2  0
 17 19  1  0
 19 20  2  3
 20 21  1  0
 20 22  1  0
 22 23  2  0
 22 24  1  0
 16  4  1  0
 15  6  1  0
  1 25  1  0
  5 26  1  0
  7 27  1  0
  8 28  1  0
 14 29  1  0
 19 30  1  0
 21 31  1  0
 21 32  1  0
 21 33  1  0
M  CHG  3   1  -1  21   1  24  -1
M  END
>  <UniqueID>  (35) 
35

>  <SMILES>  (35) 
[NH-]C(=O)c1cc2ccc(C(F)(F)F)cc2n1C(=O)C=C([NH3+])C(=O)[O-]

>  <Energy>  (35) 
77.61036872161411

>  <Genealogy>  (35) 
[NH-]C(=O)c1cc2ccc(C(F)(F)F)cc2n1C(=O)C=C([NH3+])C(=O)[O-] (protonated)
[NH-]C(=O)c1cc2ccc(C(F)(F)F)cc2n1C(=O)C=C([NH3+])C(=O)[O-] (3D coordinates assigned)
[NH-]C(=O)c1cc2ccc(C(F)(F)F)cc2n1C(=O)C=C([NH3+])C(=O)[O-] (optimized conformer: 77.61036872161411 kcal/mol)

>  <smiles>  (35) 
NC(=O)c1cc2ccc(C(F)(F)F)cc2n1C(=O)C=C(N)C(=O)O

>  <score_type>  (35) 
oracle

>  <origin>  (35) 
adg

>  <m_score__min__energy>  (35) 
-10.5

>  <m_primary>  (35) 
energy

$$$$
35:0
     RDKit          3D

 44 45  0  0  0  0  0  0  0  0999 V2000
   -2.2080   24.9140  -26.6640 C   0  0  0  0  0  0  0  0  0  0  0  0
   -3.4170   24.5830  -27.4340 N   0  0  0  0  0  0  0  0  0  0  0  0
   -4.6270   24.9940  -26.7040 C   0  0  0  0  0  0  0  0  0  0  0  0
   -3.4650   23.1620  -27.7160 C   0  0  0  0  0  0  0  0  0  0  0  0
   -4.4690   22.5140  -27.4430 O   0  0  0  0  0  0  0  0  0  0  0  0
   -2.3020   22.4590  -28.3760 C   0  0  0  0  0  0  0  0  0  0  0  0
   -1.8200   23.1960  -29.6330 C   0  0  1  0  0  0  0  0  0  0  0  0
   -2.9590   23.6450  -30.3670 O   0  0  0  0  0  0  0  0  0  0  0  0
   -3.6350   22.8530  -31.3050 C   0  0  0  0  0  0  0  0  0  0  0  0
   -2.9890   22.1150  -32.0980 O   0  0  0  0  0  0  0  0  0  0  0  0
   -5.0700   22.8590  -31.3410 N   0  0  0  0  0  0  0  0  0  0  0  0
   -5.9150   23.7580  -30.7600 C   0  0  0  0  0  0  0  0  0  0  0  0
   -5.5230   25.0310  -30.1210 C   0  0  0  0  0  0  0  0  0  0  0  0
   -4.2740   25.6460  -30.4210 N   0  0  0  0  0  0  0  0  0  0  0  0
   -6.3260   25.6120  -29.3430 O   0  0  0  0  0  0  0  0  0  0  0  0
   -7.2400   23.3590  -30.9200 C   0  0  0  0  0  0  0  0  0  0  0  0
   -7.1830   22.1810  -31.6300 C   0  0  0  0  0  0  0  0  0  0  0  0
   -8.2100   21.3420  -32.0540 C   0  0  0  0  0  0  0  0  0  0  0  0
   -7.8580   20.1680  -32.7410 C   0  0  0  0  0  0  0  0  0  0  0  0
   -6.4980   19.8530  -32.9830 C   0  0  0  0  0  0  0  0  0  0  0  0
   -6.1260   18.5850  -33.6990 C   0  0  0  0  0  0  0  0  0  0  0  0
   -6.0840   18.8150  -35.0620 F   0  0  0  0  0  0  0  0  0  0  0  0
   -7.0630   17.6030  -33.4300 F   0  0  0  0  0  0  0  0  0  0  0  0
   -5.4840   20.7260  -32.5320 C   0  0  0  0  0  0  0  0  0  0  0  0
   -5.8630   21.8990  -31.8690 C   0  0  0  0  0  0  0  0  0  0  0  0
   -0.9440   24.3650  -29.2730 C   0  0  0  0  0  0  0  0  0  0  0  0
    0.2670   24.1860  -28.9720 O   0  0  0  0  0  0  0  0  0  0  0  0
   -1.4660   25.6520  -29.2780 O   0  0  0  0  0  0  0  0  0  0  0  0
   -2.4302   24.8532  -25.5884 H   0  0  0  0  0  0  0  0  0  0  0  0
   -1.4077   24.2019  -26.9139 H   0  0  0  0  0  0  0  0  0  0  0  0
   -1.8820   25.9344  -26.9139 H   0  0  0  0  0  0  0  0  0  0  0  0
   -3.3820   25.1250  -28.3290 H   0  0  0  0  0  0  0  0  0  0  0  0
   -4.4414   24.9309  -25.6216 H   0  0  0  0  0  0  0  0  0  0  0  0
   -4.8831   26.0295  -26.9724 H   0  0  0  0  0  0  0  0  0  0  0  0
   -5.4609   24.3287  -26.9724 H   0  0  0  0  0  0  0  0  0  0  0  0
   -1.4701   22.3996  -27.6588 H   0  0  0  0  0  0  0  0  0  0  0  0
   -2.6397   21.4570  -28.6793 H   0  0  0  0  0  0  0  0  0  0  0  0
   -1.2223   22.5062  -30.2469 H   0  0  0  0  0  0  0  0  0  0  0  0
   -3.4930   25.6460  -29.7250 H   0  0  0  0  0  0  0  0  0  0  0  0
   -8.1405   23.8755  -30.5563 H   0  0  0  0  0  0  0  0  0  0  0  0
   -9.2634   21.5903  -31.8574 H   0  0  0  0  0  0  0  0  0  0  0  0
   -8.6460   19.4868  -33.0944 H   0  0  0  0  0  0  0  0  0  0  0  0
   -5.1368   18.2528  -33.3508 H   0  0  0  0  0  0  0  0  0  0  0  0
   -4.4224   20.4901  -32.6976 H   0  0  0  0  0  0  0  0  0  0  0  0
  1  2  1  0
  2  3  1  0
  2  4  1  0
  4  5  2  0
  4  6  1  0
  6  7  1  0
  7  8  1  0
  8  9  1  0
  9 10  2  0
  9 11  1  0
 11 12  1  0
 12 13  1  0
 13 14  1  0
 13 15  2  0
 12 16  2  0
 16 17  1  0
 17 18  2  0
 18 19  1  0
 19 20  2  0
 20 21  1  0
 21 22  1  0
 21 23  1  0
 20 24  1  0
 24 25  2  0
  7 26  1  0
 26 27  2  0
 26 28  1  0
 25 11  1  0
 25 17  1  0
  1 29  1  0
  1 30  1  0
  1 31  1  0
  2 32  1  0
  3 33  1  0
  3 34  1  0
  3 35  1  0
  6 36  1  0
  6 37  1  0
  7 38  1  6
 14 39  1  0
 16 40  1  0
 18 41  1  0
 19 42  1  0
 21 43  1  0
 24 44  1  0
M  CHG  3   2   1  14  -1  28  -1
M  END
>  <UniqueID>  (36) 
36

>  <SMILES>  (36) 
C[NH+](C)C(=O)C[C@@H](OC(=O)n1c(C([NH-])=O)cc2ccc(C(F)F)cc21)C(=O)[O-]

>  <Energy>  (36) 
77.21427876834994

>  <Genealogy>  (36) 
C[NH+](C)C(=O)CC(OC(=O)n1c(C([NH-])=O)cc2ccc(C(F)F)cc21)C(=O)[O-] (protonated)
C[NH+](C)C(=O)C[C@@H](OC(=O)n1c(C([NH-])=O)cc2ccc(C(F)F)cc21)C(=O)[O-] (chirality)
C[NH+](C)C(=O)C[C@@H](OC(=O)n1c(C([NH-])=O)cc2ccc(C(F)F)cc21)C(=O)[O-] (3D coordinates assigned)
C[NH+](C)C(=O)C[C@@H](OC(=O)n1c(C([NH-])=O)cc2ccc(C(F)F)cc21)C(=O)[O-] (optimized conformer: 77.21427876834994 kcal/mol)

>  <smiles>  (36) 
CN(C)C(=O)CC(OC(=O)n1c(C(N)=O)cc2ccc(C(F)F)cc21)C(=O)O

>  <score_type>  (36) 
oracle

>  <origin>  (36) 
adg

>  <m_score__min__energy>  (36) 
-11.67

>  <m_primary>  (36) 
energy

$$$$
36:0
     RDKit          3D

 36 37  0  0  0  0  0  0  0  0999 V2000
   -7.7930   18.6650  -32.7260 C   0  0  0  0  0  0  0  0  0  0  0  0
   -7.7640   20.0760  -32.2180 C   0  0  0  0  0  0  0  0  0  0  0  0
   -8.9800   20.7580  -31.9640 C   0  0  0  0  0  0  0  0  0  0  0  0
   -8.9740   22.0880  -31.5090 C   0  0  0  0  0  0  0  0  0  0  0  0
   -7.7410   22.7100  -31.3330 C   0  0  0  0  0  0  0  0  0  0  0  0
   -7.4410   23.9780  -30.8850 C   0  0  0  0  0  0  0  0  0  0  0  0
   -6.0480   24.0520  -30.8960 C   0  0  0  0  0  0  0  0  0  0  0  0
   -5.2880   25.2710  -30.5490 C   0  0  0  0  0  0  0  0  0  0  0  0
   -3.8660   25.2460  -30.4650 N   0  0  0  0  0  0  0  0  0  0  0  0
   -5.8990   26.3550  -30.3550 O   0  0  0  0  0  0  0  0  0  0  0  0
   -5.5140   22.8770  -31.3290 N   0  0  0  0  0  0  0  0  0  0  0  0
   -4.1310   22.5020  -31.3840 C   0  0  0  0  0  0  0  0  0  0  0  0
   -3.5080   22.5740  -32.4770 O   0  0  0  0  0  0  0  0  0  0  0  0
   -3.4620   21.8940  -30.1880 C   0  0  0  0  0  0  0  0  0  0  0  0
   -2.6920   22.9150  -29.4830 N   0  0  0  0  0  0  0  0  0  0  0  0
   -1.2700   22.8230  -29.3070 C   0  0  0  0  0  0  0  0  0  0  0  0
   -0.6450   21.7970  -29.6940 O   0  0  0  0  0  0  0  0  0  0  0  0
   -0.5110   23.9610  -28.7030 C   0  0  0  0  0  0  0  0  0  0  0  0
   -1.4010   25.1530  -28.5730 C   0  0  0  0  0  0  0  0  0  0  0  0
   -1.2380   26.1520  -29.3230 O   0  0  0  0  0  0  0  0  0  0  0  0
   -2.4430   25.1460  -27.6540 O   0  0  0  0  0  0  0  0  0  0  0  0
   -6.5590   22.0690  -31.5960 C   0  0  0  0  0  0  0  0  0  0  0  0
   -6.5330   20.7440  -32.0390 C   0  0  0  0  0  0  0  0  0  0  0  0
   -7.8073   17.9689  -31.8744 H   0  0  0  0  0  0  0  0  0  0  0  0
   -8.6944   18.5141  -33.3381 H   0  0  0  0  0  0  0  0  0  0  0  0
   -6.8985   18.4772  -33.3381 H   0  0  0  0  0  0  0  0  0  0  0  0
   -9.9379   20.2416  -32.1245 H   0  0  0  0  0  0  0  0  0  0  0  0
   -9.9134   22.6202  -31.2988 H   0  0  0  0  0  0  0  0  0  0  0  0
   -8.1488   24.7641  -30.5831 H   0  0  0  0  0  0  0  0  0  0  0  0
   -3.3720   25.5920  -29.6120 H   0  0  0  0  0  0  0  0  0  0  0  0
   -4.2255   21.4805  -29.5127 H   0  0  0  0  0  0  0  0  0  0  0  0
   -2.7864   21.0908  -30.5174 H   0  0  0  0  0  0  0  0  0  0  0  0
   -3.1920   23.7660  -29.1390 H   0  0  0  0  0  0  0  0  0  0  0  0
   -0.1456   23.6683  -27.7076 H   0  0  0  0  0  0  0  0  0  0  0  0
    0.3404   24.2136  -29.3520 H   0  0  0  0  0  0  0  0  0  0  0  0
   -5.5793   20.2351  -32.2428 H   0  0  0  0  0  0  0  0  0  0  0  0
  1  2  1  0
  2  3  2  0
  3  4  1  0
  4  5  2  0
  5  6  1  0
  6  7  2  0
  7  8  1  0
  8  9  1  0
  8 10  2  0
  7 11  1  0
 11 12  1  0
 12 13  2  0
 12 14  1  0
 14 15  1  0
 15 16  1  0
 16 17  2  0
 16 18  1  0
 18 19  1  0
 19 20  2  0
 19 21  1  0
 11 22  1  0
 22 23  2  0
 23  2  1  0
 22  5  1  0
  1 24  1  0
  1 25  1  0
  1 26  1  0
  3 27  1  0
  4 28  1  0
  6 29  1  0
  9 30  1  0
 14 31  1  0
 14 32  1  0
 15 33  1  0
 18 34  1  0
 18 35  1  0
 23 36  1  0
M  CHG  2   9  -1  21  -1
M  END
>  <UniqueID>  (37) 
37

>  <SMILES>  (37) 
Cc1ccc2cc(C([NH-])=O)n(C(=O)CNC(=O)CC(=O)[O-])c2c1

>  <Energy>  (37) 
67.4323215026914

>  <Genealogy>  (37) 
Cc1ccc2cc(C([NH-])=O)n(C(=O)CNC(=O)CC(=O)[O-])c2c1 (protonated)
Cc1ccc2cc(C([NH-])=O)n(C(=O)CNC(=O)CC(=O)[O-])c2c1 (3D coordinates assigned)
Cc1ccc2cc(C([NH-])=O)n(C(=O)CNC(=O)CC(=O)[O-])c2c1 (optimized conformer: 67.4323215026914 kcal/mol)

>  <smiles>  (37) 
Cc1ccc2cc(C(N)=O)n(C(=O)CNC(=O)CC(=O)O)c2c1

>  <score_type>  (37) 
oracle

>  <origin>  (37) 
adg

>  <m_score__min__energy>  (37) 
-12.699999999999999

>  <m_primary>  (37) 
energy

$$$$
37:0
     RDKit          3D

 36 37  0  0  0  0  0  0  0  0999 V2000
   -2.7490   20.7230  -29.5460 C   0  0  0  0  0  0  0  0  0  0  0  0
   -3.4270   22.0230  -29.5250 N   0  0  0  0  0  0  0  0  0  0  0  0
   -3.7360   22.6710  -28.2410 C   0  0  0  0  0  0  0  0  0  0  0  0
   -3.2720   24.1250  -28.2480 C   0  0  0  0  0  0  0  0  0  0  0  0
   -2.1590   24.2570  -29.0860 O   0  0  0  0  0  0  0  0  0  0  0  0
   -3.8270   22.6210  -30.7750 C   0  0  0  0  0  0  0  0  0  0  0  0
   -2.9530   22.9570  -31.6210 O   0  0  0  0  0  0  0  0  0  0  0  0
   -5.2100   22.8580  -31.0720 N   0  0  0  0  0  0  0  0  0  0  0  0
   -5.9130   24.0120  -30.9000 C   0  0  0  0  0  0  0  0  0  0  0  0
   -5.3500   25.3060  -30.4640 C   0  0  0  0  0  0  0  0  0  0  0  0
   -4.0240   25.6680  -30.8420 N   0  0  0  0  0  0  0  0  0  0  0  0
   -6.0230   26.0940  -29.7490 O   0  0  0  0  0  0  0  0  0  0  0  0
   -7.2550   23.8160  -31.2250 C   0  0  0  0  0  0  0  0  0  0  0  0
   -7.3530   22.4910  -31.5880 C   0  0  0  0  0  0  0  0  0  0  0  0
   -8.4620   21.7440  -31.9720 C   0  0  0  0  0  0  0  0  0  0  0  0
   -8.2730   20.3790  -32.2540 C   0  0  0  0  0  0  0  0  0  0  0  0
   -6.9840   19.7900  -32.1580 C   0  0  0  0  0  0  0  0  0  0  0  0
   -6.8040   18.3140  -32.4090 C   0  0  0  0  0  0  0  0  0  0  0  0
   -8.0230   17.6780  -32.2710 F   0  0  0  0  0  0  0  0  0  0  0  0
   -5.9060   17.7710  -31.5060 F   0  0  0  0  0  0  0  0  0  0  0  0
   -6.3200   18.0920  -33.6870 F   0  0  0  0  0  0  0  0  0  0  0  0
   -5.8880   20.5780  -31.7390 C   0  0  0  0  0  0  0  0  0  0  0  0
   -6.1060   21.9360  -31.4810 C   0  0  0  0  0  0  0  0  0  0  0  0
   -2.5726   20.3848  -28.5143 H   0  0  0  0  0  0  0  0  0  0  0  0
   -3.3792   19.9892  -30.0697 H   0  0  0  0  0  0  0  0  0  0  0  0
   -1.7865   20.8198  -30.0697 H   0  0  0  0  0  0  0  0  0  0  0  0
   -4.8225   22.6390  -28.0721 H   0  0  0  0  0  0  0  0  0  0  0  0
   -3.2101   22.1347  -27.4374 H   0  0  0  0  0  0  0  0  0  0  0  0
   -4.0857   24.7675  -28.6156 H   0  0  0  0  0  0  0  0  0  0  0  0
   -2.9986   24.4269  -27.2262 H   0  0  0  0  0  0  0  0  0  0  0  0
   -2.5160   24.3200  -30.0090 H   0  0  0  0  0  0  0  0  0  0  0  0
   -3.2520   24.9650  -30.8350 H   0  0  0  0  0  0  0  0  0  0  0  0
   -8.0635   24.5613  -31.1973 H   0  0  0  0  0  0  0  0  0  0  0  0
   -9.4566   22.2068  -32.0527 H   0  0  0  0  0  0  0  0  0  0  0  0
   -9.1327   19.7609  -32.5521 H   0  0  0  0  0  0  0  0  0  0  0  0
   -4.8885   20.1348  -31.6187 H   0  0  0  0  0  0  0  0  0  0  0  0
  1  2  1  0
  2  3  1  0
  3  4  1  0
  4  5  1  0
  2  6  1  0
  6  7  2  0
  6  8  1  0
  8  9  1  0
  9 10  1  0
 10 11  1  0
 10 12  2  0
  9 13  2  0
 13 14  1  0
 14 15  2  0
 15 16  1  0
 16 17  2  0
 17 18  1  0
 18 19  1  0
 18 20  1  0
 18 21  1  0
 17 22  1  0
 22 23  2  0
 23  8  1  0
 23 14  1  0
  1 24  1  0
  1 25  1  0
  1 26  1  0
  3 27  1  0
  3 28  1  0
  4 29  1  0
  4 30  1  0
  5 31  1  0
 11 32  1  0
 13 33  1  0
 15 34  1  0
 16 35  1  0
 22 36  1  0
M  CHG  1  11  -1
M  END
>  <UniqueID>  (38) 
38

>  <SMILES>  (38) 
CN(CCO)C(=O)n1c(C([NH-])=O)cc2ccc(C(F)(F)F)cc21

>  <Energy>  (38) 
70.59481129131221

>  <Genealogy>  (38) 
CN(CCO)C(=O)n1c(C([NH-])=O)cc2ccc(C(F)(F)F)cc21 (protonated)
CN(CCO)C(=O)n1c(C([NH-])=O)cc2ccc(C(F)(F)F)cc21 (3D coordinates assigned)
CN(CCO)C(=O)n1c(C([NH-])=O)cc2ccc(C(F)(F)F)cc21 (optimized conformer: 70.59481129131221 kcal/mol)

>  <smiles>  (38) 
CN(CCO)C(=O)n1c(C(N)=O)cc2ccc(C(F)(F)F)cc21

>  <score_type>  (38) 
oracle

>  <origin>  (38) 
adg

>  <m_score__min__energy>  (38) 
-9.2200000000000006

>  <m_primary>  (38) 
energy

$$$$
38:0
     RDKit          3D

 39 40  0  0  0  0  0  0  0  0999 V2000
   -7.0190   18.3350  -32.6340 C   0  0  0  0  0  0  0  0  0  0  0  0
   -7.2200   19.7770  -32.2750 C   0  0  0  0  0  0  0  0  0  0  0  0
   -8.5200   20.3390  -32.2940 C   0  0  0  0  0  0  0  0  0  0  0  0
   -8.7280   21.6750  -31.9120 C   0  0  0  0  0  0  0  0  0  0  0  0
   -7.6200   22.4200  -31.5140 C   0  0  0  0  0  0  0  0  0  0  0  0
   -7.5400   23.7190  -31.0640 C   0  0  0  0  0  0  0  0  0  0  0  0
   -6.1900   23.9290  -30.7790 C   0  0  0  0  0  0  0  0  0  0  0  0
   -5.6220   25.2140  -30.3080 C   0  0  0  0  0  0  0  0  0  0  0  0
   -4.2640   25.5600  -30.5810 N   0  0  0  0  0  0  0  0  0  0  0  0
   -6.3350   26.0130  -29.6450 O   0  0  0  0  0  0  0  0  0  0  0  0
   -5.4680   22.8060  -31.0530 N   0  0  0  0  0  0  0  0  0  0  0  0
   -4.0630   22.6000  -30.8370 C   0  0  0  0  0  0  0  0  0  0  0  0
   -3.2280   23.1610  -31.5950 O   0  0  0  0  0  0  0  0  0  0  0  0
   -3.5850   21.7270  -29.7570 C   0  0  0  0  0  0  0  0  0  0  0  0
   -3.0830   20.6020  -30.0310 O   0  0  0  0  0  0  0  0  0  0  0  0
   -3.6820   22.1600  -28.4300 O   0  0  0  0  0  0  0  0  0  0  0  0
   -3.8440   23.5280  -28.0580 C   0  0  0  0  0  0  0  0  0  0  0  0
   -2.5550   24.0880  -27.4330 C   0  0  2  0  0  0  0  0  0  0  0  0
   -2.8790   25.1070  -26.3350 C   0  0  0  0  0  0  0  0  0  0  0  0
   -1.6760   24.7100  -28.4840 C   0  0  0  0  0  0  0  0  0  0  0  0
   -2.1810   25.2720  -29.4910 O   0  0  0  0  0  0  0  0  0  0  0  0
   -0.2940   24.6540  -28.3520 O   0  0  0  0  0  0  0  0  0  0  0  0
   -6.3560   21.8900  -31.4940 C   0  0  0  0  0  0  0  0  0  0  0  0
   -6.1230   20.5570  -31.8490 C   0  0  0  0  0  0  0  0  0  0  0  0
   -6.9356   17.7365  -31.7148 H   0  0  0  0  0  0  0  0  0  0  0  0
   -7.8765   17.9814  -33.2252 H   0  0  0  0  0  0  0  0  0  0  0  0
   -6.0974   18.2293  -33.2252 H   0  0  0  0  0  0  0  0  0  0  0  0
   -9.3749   19.7236  -32.6109 H   0  0  0  0  0  0  0  0  0  0  0  0
   -9.7343   22.1189  -31.9267 H   0  0  0  0  0  0  0  0  0  0  0  0
   -8.3648   24.4383  -30.9528 H   0  0  0  0  0  0  0  0  0  0  0  0
   -3.6560   24.9610  -31.1830 H   0  0  0  0  0  0  0  0  0  0  0  0
   -3.8680   26.4530  -30.2110 H   0  0  0  0  0  0  0  0  0  0  0  0
   -4.0945   24.1165  -28.9530 H   0  0  0  0  0  0  0  0  0  0  0  0
   -4.6509   23.5945  -27.3134 H   0  0  0  0  0  0  0  0  0  0  0  0
   -2.0086   23.2493  -26.9769 H   0  0  0  0  0  0  0  0  0  0  0  0
   -2.7314   24.6427  -25.3488 H   0  0  0  0  0  0  0  0  0  0  0  0
   -2.2132   25.9770  -26.4341 H   0  0  0  0  0  0  0  0  0  0  0  0
   -3.9250   25.4327  -26.4341 H   0  0  0  0  0  0  0  0  0  0  0  0
   -5.1115   20.1278  -31.7976 H   0  0  0  0  0  0  0  0  0  0  0  0
  1  2  1  0
  2  3  2  0
  3  4  1  0
  4  5  2  0
  5  6  1  0
  6  7  2  0
  7  8  1  0
  8  9  1  0
  8 10  2  0
  7 11  1  0
 11 12  1  0
 12 13  2  0
 12 14  1  0
 14 15  2  0
 14 16  1  0
 16 17  1  0
 17 18  1  0
 18 19  1  0
 18 20  1  0
 20 21  2  0
 20 22  1  0
 11 23  1  0
 23 24  2  0
 24  2  1  0
 23  5  1  0
  1 25  1  0
  1 26  1  0
  1 27  1  0
  3 28  1  0
  4 29  1  0
  6 30  1  0
  9 31  1  0
  9 32  1  0
 17 33  1  0
 17 34  1  0
 18 35  1  1
 19 36  1  0
 19 37  1  0
 19 38  1  0
 24 39  1  0
M  CHG  1  22  -1
M  END
>  <UniqueID>  (39) 
39

>  <SMILES>  (39) 
Cc1ccc2cc(C(N)=O)n(C(=O)C(=O)OC[C@H](C)C(=O)[O-])c2c1

>  <Energy>  (39) 
71.6161483214332

>  <Genealogy>  (39) 
Cc1ccc2cc(C(N)=O)n(C(=O)C(=O)OCC(C)C(=O)[O-])c2c1 (protonated)
Cc1ccc2cc(C(N)=O)n(C(=O)C(=O)OC[C@H](C)C(=O)[O-])c2c1 (chirality)
Cc1ccc2cc(C(N)=O)n(C(=O)C(=O)OC[C@H](C)C(=O)[O-])c2c1 (3D coordinates assigned)
Cc1ccc2cc(C(N)=O)n(C(=O)C(=O)OC[C@H](C)C(=O)[O-])c2c1 (optimized conformer: 71.6161483214332 kcal/mol)

>  <smiles>  (39) 
Cc1ccc2cc(C(N)=O)n(C(=O)C(=O)OCC(C)C(=O)O)c2c1

>  <score_type>  (39) 
oracle

>  <origin>  (39) 
adg

>  <m_score__min__energy>  (39) 
-11.279999999999999

>  <m_primary>  (39) 
energy

$$$$
39:0
     RDKit          3D

 44 45  0  0  0  0  0  0  0  0999 V2000
   -1.8810   24.9360  -26.6300 C   0  0  0  0  0  0  0  0  0  0  0  0
   -1.6200   23.8310  -27.5590 N   0  0  0  0  0  0  0  0  0  0  0  0
   -0.8930   22.6410  -27.1020 C   0  0  0  0  0  0  0  0  0  0  0  0
   -2.0750   23.9410  -28.9250 C   0  0  0  0  0  0  0  0  0  0  0  0
   -2.5180   25.0420  -29.3520 O   0  0  0  0  0  0  0  0  0  0  0  0
   -2.1160   22.7510  -29.8390 C   0  0  0  0  0  0  0  0  0  0  0  0
   -3.4710   22.3640  -30.0260 O   0  0  0  0  0  0  0  0  0  0  0  0
   -4.1520   22.5180  -31.2360 C   0  0  0  0  0  0  0  0  0  0  0  0
   -3.5090   22.6890  -32.3080 O   0  0  0  0  0  0  0  0  0  0  0  0
   -5.5900   22.4570  -31.2590 N   0  0  0  0  0  0  0  0  0  0  0  0
   -6.4720   23.3850  -30.7860 C   0  0  0  0  0  0  0  0  0  0  0  0
   -6.1180   24.5940  -30.0100 C   0  0  0  0  0  0  0  0  0  0  0  0
   -4.9100   24.6450  -29.2500 N   0  0  0  0  0  0  0  0  0  0  0  0
   -6.8650   25.6080  -30.0420 O   0  0  0  0  0  0  0  0  0  0  0  0
   -7.7820   22.9860  -31.0400 C   0  0  0  0  0  0  0  0  0  0  0  0
   -7.6770   21.7730  -31.6810 C   0  0  0  0  0  0  0  0  0  0  0  0
   -8.6700   20.9290  -32.1590 C   0  0  0  0  0  0  0  0  0  0  0  0
   -8.2780   19.7380  -32.7930 C   0  0  0  0  0  0  0  0  0  0  0  0
   -6.9010   19.4080  -32.9500 C   0  0  0  0  0  0  0  0  0  0  0  0
   -6.5030   18.1760  -33.6110 N   0  0  0  0  0  0  0  0  0  0  0  0
   -5.7360   18.2140  -34.8630 C   0  0  0  0  0  0  0  0  0  0  0  0
   -6.8590   16.8720  -33.0390 C   0  0  0  0  0  0  0  0  0  0  0  0
   -5.9250   20.3070  -32.4480 C   0  0  0  0  0  0  0  0  0  0  0  0
   -6.3460   21.4760  -31.8020 C   0  0  0  0  0  0  0  0  0  0  0  0
   -1.7953   24.5730  -25.5952 H   0  0  0  0  0  0  0  0  0  0  0  0
   -1.1476   25.7382  -26.7991 H   0  0  0  0  0  0  0  0  0  0  0  0
   -2.8958   25.3253  -26.7991 H   0  0  0  0  0  0  0  0  0  0  0  0
   -0.8797   22.6193  -26.0023 H   0  0  0  0  0  0  0  0  0  0  0  0
   -1.3936   21.7376  -27.4806 H   0  0  0  0  0  0  0  0  0  0  0  0
    0.1393   22.6741  -27.4806 H   0  0  0  0  0  0  0  0  0  0  0  0
   -1.6694   23.0143  -30.8092 H   0  0  0  0  0  0  0  0  0  0  0  0
   -1.5474   21.9198  -29.3965 H   0  0  0  0  0  0  0  0  0  0  0  0
   -4.6460   25.5190  -28.7420 H   0  0  0  0  0  0  0  0  0  0  0  0
   -4.2920   23.8080  -29.1560 H   0  0  0  0  0  0  0  0  0  0  0  0
   -8.7050   23.5262  -30.7827 H   0  0  0  0  0  0  0  0  0  0  0  0
   -9.7336   21.1853  -32.0447 H   0  0  0  0  0  0  0  0  0  0  0  0
   -9.0465   19.0494  -33.1742 H   0  0  0  0  0  0  0  0  0  0  0  0
   -4.6616   18.2672  -34.6333 H   0  0  0  0  0  0  0  0  0  0  0  0
   -5.9416   17.3046  -35.4467 H   0  0  0  0  0  0  0  0  0  0  0  0
   -6.0304   19.0987  -35.4467 H   0  0  0  0  0  0  0  0  0  0  0  0
   -6.8415   16.9361  -31.9410 H   0  0  0  0  0  0  0  0  0  0  0  0
   -7.8676   16.5878  -33.3737 H   0  0  0  0  0  0  0  0  0  0  0  0
   -6.1347   16.1148  -33.3737 H   0  0  0  0  0  0  0  0  0  0  0  0
   -4.8531   20.0890  -32.5645 H   0  0  0  0  0  0  0  0  0  0  0  0
  1  2  1  0
  2  3  1  0
  2  4  1  0
  4  5  2  0
  4  6  1  0
  6  7  1  0
  7  8  1  0
  8  9  2  0
  8 10  1  0
 10 11  1  0
 11 12  1  0
 12 13  1  0
 12 14  2  0
 11 15  2  0
 15 16  1  0
 16 17  2  0
 17 18  1  0
 18 19  2  0
 19 20  1  0
 20 21  1  0
 20 22  1  0
 19 23  1  0
 23 24  2  0
 24 10  1  0
 24 16  1  0
  1 25  1  0
  1 26  1  0
  1 27  1  0
  3 28  1  0
  3 29  1  0
  3 30  1  0
  6 31  1  0
  6 32  1  0
 13 33  1  0
 13 34  1  0
 15 35  1  0
 17 36  1  0
 18 37  1  0
 21 38  1  0
 21 39  1  0
 21 40  1  0
 22 41  1  0
 22 42  1  0
 22 43  1  0
 23 44  1  0
M  END
>  <UniqueID>  (40) 
40

>  <SMILES>  (40) 
CN(C)C(=O)COC(=O)n1c(C(N)=O)cc2ccc(N(C)C)cc21

>  <Energy>  (40) 
76.6685256758834

>  <Genealogy>  (40) 
CN(C)C(=O)COC(=O)n1c(C(N)=O)cc2ccc(N(C)C)cc21 (3D coordinates assigned)
CN(C)C(=O)COC(=O)n1c(C(N)=O)cc2ccc(N(C)C)cc21 (optimized conformer: 76.6685256758834 kcal/mol)

>  <smiles>  (40) 
CN(C)C(=O)COC(=O)n1c(C(N)=O)cc2ccc(N(C)C)cc21

>  <score_type>  (40) 
oracle

>  <origin>  (40) 
adg

>  <m_score__min__energy>  (40) 
-9.0800000000000001

>  <m_primary>  (40) 
energy

$$$$
40:0
     RDKit          3D

 46 49  0  0  0  0  0  0  0  0999 V2000
   -3.9770   25.6710  -30.8470 N   0  0  0  0  0  0  0  0  0  0  0  0
   -5.2500   25.2240  -30.3970 C   0  0  0  0  0  0  0  0  0  0  0  0
   -5.8980   25.9340  -29.5800 O   0  0  0  0  0  0  0  0  0  0  0  0
   -5.8250   23.9430  -30.8680 C   0  0  0  0  0  0  0  0  0  0  0  0
   -7.1950   23.7240  -31.0090 C   0  0  0  0  0  0  0  0  0  0  0  0
   -7.3160   22.4220  -31.4420 C   0  0  0  0  0  0  0  0  0  0  0  0
   -8.4520   21.6880  -31.7600 C   0  0  0  0  0  0  0  0  0  0  0  0
   -8.2790   20.3680  -32.2090 C   0  0  0  0  0  0  0  0  0  0  0  0
   -6.9800   19.8060  -32.3240 C   0  0  0  0  0  0  0  0  0  0  0  0
   -6.8020   18.4140  -32.8760 C   0  0  0  0  0  0  0  0  0  0  0  0
   -6.4680   18.4620  -34.2170 F   0  0  0  0  0  0  0  0  0  0  0  0
   -7.9850   17.7140  -32.7320 F   0  0  0  0  0  0  0  0  0  0  0  0
   -5.7960   17.7440  -32.2030 F   0  0  0  0  0  0  0  0  0  0  0  0
   -5.8490   20.5970  -32.0160 C   0  0  0  0  0  0  0  0  0  0  0  0
   -6.0550   21.9000  -31.5510 C   0  0  0  0  0  0  0  0  0  0  0  0
   -5.1290   22.8160  -31.1940 N   0  0  0  0  0  0  0  0  0  0  0  0
   -3.7060   22.6200  -31.1690 C   0  0  0  0  0  0  0  0  0  0  0  0
   -3.1000   22.3900  -32.2500 O   0  0  0  0  0  0  0  0  0  0  0  0
   -2.9700   22.6340  -29.8830 C   0  0  0  0  0  0  0  0  0  0  0  0
   -3.1680   21.7030  -29.0560 O   0  0  0  0  0  0  0  0  0  0  0  0
   -2.0260   23.6600  -29.5340 N   0  0  0  0  0  0  0  0  0  0  0  0
   -2.2310   24.7220  -28.5470 C   0  0  2  0  0  0  0  0  0  0  0  0
   -0.8990   25.4880  -28.3000 C   0  0  0  0  0  0  0  0  0  0  0  0
   -0.5290   25.4830  -26.8640 N   0  0  0  0  0  0  0  0  0  0  0  0
   -1.6240   26.0940  -26.0680 C   0  0  0  0  0  0  0  0  0  0  0  0
   -2.9470   25.3010  -26.2280 C   0  0  0  0  0  0  0  0  0  0  0  0
   -2.7170   24.1300  -27.2000 C   0  0  0  0  0  0  0  0  0  0  0  0
   -1.6060   23.2370  -26.6100 C   0  0  0  0  0  0  0  0  0  0  0  0
   -0.3210   24.0830  -26.4210 C   0  0  0  0  0  0  0  0  0  0  0  0
   -3.0950   25.2980  -30.4280 H   0  0  0  0  0  0  0  0  0  0  0  0
   -8.0074   24.4398  -30.8153 H   0  0  0  0  0  0  0  0  0  0  0  0
   -9.4560   22.1269  -31.6632 H   0  0  0  0  0  0  0  0  0  0  0  0
   -9.1590   19.7636  -32.4742 H   0  0  0  0  0  0  0  0  0  0  0  0
   -4.8317   20.1972  -32.1391 H   0  0  0  0  0  0  0  0  0  0  0  0
   -2.9933   25.4093  -28.9425 H   0  0  0  0  0  0  0  0  0  0  0  0
   -0.0967   25.0059  -28.8778 H   0  0  0  0  0  0  0  0  0  0  0  0
   -1.0365   26.5320  -28.6179 H   0  0  0  0  0  0  0  0  0  0  0  0
   -1.3355   26.0992  -25.0065 H   0  0  0  0  0  0  0  0  0  0  0  0
   -1.7875   27.1191  -26.4319 H   0  0  0  0  0  0  0  0  0  0  0  0
   -3.2634   24.9109  -25.2494 H   0  0  0  0  0  0  0  0  0  0  0  0
   -3.7308   25.9633  -26.6241 H   0  0  0  0  0  0  0  0  0  0  0  0
   -3.6357   23.5441  -27.3503 H   0  0  0  0  0  0  0  0  0  0  0  0
   -1.9311   22.8390  -25.6375 H   0  0  0  0  0  0  0  0  0  0  0  0
   -1.4011   22.4003  -27.2941 H   0  0  0  0  0  0  0  0  0  0  0  0
   -0.0439   24.0812  -25.3565 H   0  0  0  0  0  0  0  0  0  0  0  0
    0.4797   23.6404  -27.0317 H   0  0  0  0  0  0  0  0  0  0  0  0
  1  2  1  0
  2  3  2  0
  2  4  1  0
  4  5  2  0
  5  6  1  0
  6  7  2  0
  7  8  1  0
  8  9  2  0
  9 10  1  0
 10 11  1  0
 10 12  1  0
 10 13  1  0
  9 14  1  0
 14 15  2  0
 15 16  1  0
 16 17  1  0
 17 18  2  0
 17 19  1  0
 19 20  2  0
 19 21  1  0
 21 22  1  0
 22 23  1  0
 23 24  1  0
 24 25  1  0
 25 26  1  0
 26 27  1  0
 27 28  1  0
 28 29  1  0
 16  4  1  0
 27 22  1  0
 15  6  1  0
 29 24  1  0
  1 30  1  0
  5 31  1  0
  7 32  1  0
  8 33  1  0
 14 34  1  0
 22 35  1  6
 23 36  1  0
 23 37  1  0
 25 38  1  0
 25 39  1  0
 26 40  1  0
 26 41  1  0
 27 42  1  0
 28 43  1  0
 28 44  1  0
 29 45  1  0
 29 46  1  0
M  CHG  2   1  -1  21  -1
M  END
>  <UniqueID>  (41) 
41

>  <SMILES>  (41) 
[NH-]C(=O)c1cc2ccc(C(F)(F)F)cc2n1C(=O)C(=O)[N-][C@@H]1CN2CCC1CC2

>  <Energy>  (41) 
105.34734933951681

>  <Genealogy>  (41) 
[NH-]C(=O)c1cc2ccc(C(F)(F)F)cc2n1C(=O)C(=O)[N-]C1CN2CCC1CC2 (protonated)
[NH-]C(=O)c1cc2ccc(C(F)(F)F)cc2n1C(=O)C(=O)[N-][C@@H]1CN2CCC1CC2 (chirality)
[NH-]C(=O)c1cc2ccc(C(F)(F)F)cc2n1C(=O)C(=O)[N-][C@@H]1CN2CCC1CC2 (3D coordinates assigned)
[NH-]C(=O)c1cc2ccc(C(F)(F)F)cc2n1C(=O)C(=O)[N-][C@@H]1CN2CCC1CC2 (nonaromatic ring conformer: 105.34734933951681 kcal/mol)

>  <smiles>  (41) 
NC(=O)c1cc2ccc(C(F)(F)F)cc2n1C(=O)C(=O)NC1CN2CCC1CC2

>  <score_type>  (41) 
oracle

>  <origin>  (41) 
adg

>  <m_score__min__energy>  (41) 
-11.73

>  <m_primary>  (41) 
energy

$$$$
41:0
     RDKit          3D

 37 38  0  0  0  0  0  0  0  0999 V2000
   -6.7240   17.2110  -33.0620 C   0  0  0  0  0  0  0  0  0  0  0  0
   -7.9580   17.4770  -32.4340 O   0  0  0  0  0  0  0  0  0  0  0  0
   -7.8530   18.6270  -31.6170 C   0  0  0  0  0  0  0  0  0  0  0  0
   -8.0090   19.8760  -32.4400 C   0  0  0  0  0  0  0  0  0  0  0  0
   -9.0200   20.0380  -33.1070 O   0  0  0  0  0  0  0  0  0  0  0  0
   -6.9200   20.9140  -32.4740 C   0  0  0  0  0  0  0  0  0  0  0  0
   -5.6560   20.3560  -33.1340 C   0  0  0  0  0  0  0  0  0  0  0  0
   -4.4300   20.7820  -32.3720 C   0  0  0  0  0  0  0  0  0  0  0  0
   -3.2960   19.9350  -32.3210 C   0  0  0  0  0  0  0  0  0  0  0  0
   -2.1400   20.3300  -31.6290 C   0  0  0  0  0  0  0  0  0  0  0  0
   -2.1390   21.5810  -31.0200 C   0  0  0  0  0  0  0  0  0  0  0  0
   -1.1670   22.1950  -30.2660 C   0  0  0  0  0  0  0  0  0  0  0  0
   -1.7040   23.4270  -29.9050 C   0  0  0  0  0  0  0  0  0  0  0  0
   -0.9610   24.4410  -29.1320 C   0  0  0  0  0  0  0  0  0  0  0  0
   -1.5130   25.7350  -28.8850 N   0  0  0  0  0  0  0  0  0  0  0  0
    0.2050   24.1820  -28.7320 O   0  0  0  0  0  0  0  0  0  0  0  0
   -2.9650   23.5680  -30.4040 N   0  0  0  0  0  0  0  0  0  0  0  0
   -3.8880   24.6430  -30.1570 C   0  0  0  0  0  0  0  0  0  0  0  0
   -3.8680   25.6770  -30.8770 O   0  0  0  0  0  0  0  0  0  0  0  0
   -4.8100   24.5570  -29.1210 O   0  0  0  0  0  0  0  0  0  0  0  0
   -3.2170   22.4280  -31.0870 C   0  0  0  0  0  0  0  0  0  0  0  0
   -4.3900   22.0500  -31.7500 C   0  0  0  0  0  0  0  0  0  0  0  0
   -5.9515   17.0445  -32.2968 H   0  0  0  0  0  0  0  0  0  0  0  0
   -6.8181   16.3125  -33.6896 H   0  0  0  0  0  0  0  0  0  0  0  0
   -6.4396   18.0685  -33.6896 H   0  0  0  0  0  0  0  0  0  0  0  0
   -8.6407   18.5987  -30.8497 H   0  0  0  0  0  0  0  0  0  0  0  0
   -6.8606   18.6361  -31.1427 H   0  0  0  0  0  0  0  0  0  0  0  0
   -7.2706   21.7856  -33.0461 H   0  0  0  0  0  0  0  0  0  0  0  0
   -6.6787   21.2052  -31.4411 H   0  0  0  0  0  0  0  0  0  0  0  0
   -5.7099   19.2574  -33.1477 H   0  0  0  0  0  0  0  0  0  0  0  0
   -5.5896   20.7458  -34.1605 H   0  0  0  0  0  0  0  0  0  0  0  0
   -3.3212   18.9591  -32.8280 H   0  0  0  0  0  0  0  0  0  0  0  0
   -1.2617   19.6704  -31.5701 H   0  0  0  0  0  0  0  0  0  0  0  0
   -0.1756   21.7970  -30.0038 H   0  0  0  0  0  0  0  0  0  0  0  0
   -2.3980   26.0390  -29.3460 H   0  0  0  0  0  0  0  0  0  0  0  0
   -0.9890   26.4260  -28.3040 H   0  0  0  0  0  0  0  0  0  0  0  0
   -5.2592   22.7232  -31.7860 H   0  0  0  0  0  0  0  0  0  0  0  0
  1  2  1  0
  2  3  1  0
  3  4  1  0
  4  5  2  0
  4  6  1  0
  6  7  1  0
  7  8  1  0
  8  9  2  0
  9 10  1  0
 10 11  2  0
 11 12  1  0
 12 13  2  0
 13 14  1  0
 14 15  1  0
 14 16  2  0
 13 17  1  0
 17 18  1  0
 18 19  2  0
 18 20  1  0
 17 21  1  0
 21 22  2  0
 22  8  1  0
 21 11  1  0
  1 23  1  0
  1 24  1  0
  1 25  1  0
  3 26  1  0
  3 27  1  0
  6 28  1  0
  6 29  1  0
  7 30  1  0
  7 31  1  0
  9 32  1  0
 10 33  1  0
 12 34  1  0
 15 35  1  0
 15 36  1  0
 22 37  1  0
M  CHG  1  20  -1
M  END
>  <UniqueID>  (42) 
42

>  <SMILES>  (42) 
COCC(=O)CCc1ccc2cc(C(N)=O)n(C(=O)[O-])c2c1

>  <Energy>  (42) 
73.59321439186071

>  <Genealogy>  (42) 
COCC(=O)CCc1ccc2cc(C(N)=O)n(C(=O)[O-])c2c1 (protonated)
COCC(=O)CCc1ccc2cc(C(N)=O)n(C(=O)[O-])c2c1 (3D coordinates assigned)
COCC(=O)CCc1ccc2cc(C(N)=O)n(C(=O)[O-])c2c1 (optimized conformer: 73.59321439186071 kcal/mol)

>  <smiles>  (42) 
COCC(=O)CCc1ccc2cc(C(N)=O)n(C(=O)O)c2c1

>  <score_type>  (42) 
oracle

>  <origin>  (42) 
adg

>  <m_score__min__energy>  (42) 
-8.6699999999999999

>  <m_primary>  (42) 
energy

$$$$
42:0
     RDKit          3D

 50 51  0  0  0  0  0  0  0  0999 V2000
   -4.5950   15.7340  -34.6070 C   0  0  0  0  0  0  0  0  0  0  0  0
   -5.0860   17.1170  -34.4250 N   0  0  2  0  0  0  0  0  0  0  0  0
   -3.9910   18.0660  -34.0940 C   0  0  0  0  0  0  0  0  0  0  0  0
   -4.4590   19.5110  -33.8180 C   0  0  0  0  0  0  0  0  0  0  0  0
   -3.4180   20.2400  -33.0150 C   0  0  0  0  0  0  0  0  0  0  0  0
   -2.0460   19.9020  -33.1520 C   0  0  0  0  0  0  0  0  0  0  0  0
   -1.0730   20.5460  -32.3710 C   0  0  0  0  0  0  0  0  0  0  0  0
   -1.5010   21.5000  -31.4500 C   0  0  0  0  0  0  0  0  0  0  0  0
   -0.7760   22.2940  -30.5930 C   0  0  0  0  0  0  0  0  0  0  0  0
   -1.7130   23.0800  -29.9280 C   0  0  0  0  0  0  0  0  0  0  0  0
   -1.3640   24.0730  -28.8970 C   0  0  0  0  0  0  0  0  0  0  0  0
   -1.7430   25.4320  -29.0240 N   0  0  0  0  0  0  0  0  0  0  0  0
   -0.7180   23.7140  -27.8900 O   0  0  0  0  0  0  0  0  0  0  0  0
   -2.9700   22.7860  -30.3620 N   0  0  0  0  0  0  0  0  0  0  0  0
   -4.1930   23.4540  -30.0160 C   0  0  0  0  0  0  0  0  0  0  0  0
   -4.9170   22.9910  -29.0980 O   0  0  0  0  0  0  0  0  0  0  0  0
   -4.6240   24.6470  -30.7580 C   0  0  0  0  0  0  0  0  0  0  0  0
   -3.8670   25.6440  -30.8390 O   0  0  0  0  0  0  0  0  0  0  0  0
   -5.8710   24.6820  -31.3730 O   0  0  0  0  0  0  0  0  0  0  0  0
   -2.8250   21.8200  -31.2940 C   0  0  0  0  0  0  0  0  0  0  0  0
   -3.8150   21.2150  -32.0740 C   0  0  0  0  0  0  0  0  0  0  0  0
   -6.1660   17.1940  -33.4680 C   0  0  0  0  0  0  0  0  0  0  0  0
   -6.2910   16.3150  -32.5640 O   0  0  0  0  0  0  0  0  0  0  0  0
   -7.0290   18.3010  -33.5130 O   0  0  0  0  0  0  0  0  0  0  0  0
   -7.4310   19.1030  -32.3940 C   0  0  0  0  0  0  0  0  0  0  0  0
   -8.8100   18.6440  -31.8710 C   0  0  0  0  0  0  0  0  0  0  0  0
   -7.4580   20.6010  -32.7640 C   0  0  0  0  0  0  0  0  0  0  0  0
   -6.3970   18.8850  -31.2850 C   0  0  0  0  0  0  0  0  0  0  0  0
   -4.4306   15.2708  -33.6229 H   0  0  0  0  0  0  0  0  0  0  0  0
   -5.3410   15.1507  -35.1667 H   0  0  0  0  0  0  0  0  0  0  0  0
   -3.6482   15.7517  -35.1667 H   0  0  0  0  0  0  0  0  0  0  0  0
   -5.4830   17.4140  -35.3500 H   0  0  0  0  0  0  0  0  0  0  0  0
   -3.4740   17.6949  -33.1968 H   0  0  0  0  0  0  0  0  0  0  0  0
   -3.3381   18.1117  -34.9781 H   0  0  0  0  0  0  0  0  0  0  0  0
   -4.6145   20.0331  -34.7736 H   0  0  0  0  0  0  0  0  0  0  0  0
   -5.4016   19.4850  -33.2515 H   0  0  0  0  0  0  0  0  0  0  0  0
   -1.7431   19.1303  -33.8750 H   0  0  0  0  0  0  0  0  0  0  0  0
   -0.0056   20.3048  -32.4828 H   0  0  0  0  0  0  0  0  0  0  0  0
    0.3159   22.3057  -30.4606 H   0  0  0  0  0  0  0  0  0  0  0  0
   -2.7250   25.6870  -29.2720 H   0  0  0  0  0  0  0  0  0  0  0  0
   -4.8735   21.4908  -31.9579 H   0  0  0  0  0  0  0  0  0  0  0  0
   -8.8042   18.6459  -30.7710 H   0  0  0  0  0  0  0  0  0  0  0  0
   -9.5876   19.3318  -32.2348 H   0  0  0  0  0  0  0  0  0  0  0  0
   -9.0203   17.6274  -32.2348 H   0  0  0  0  0  0  0  0  0  0  0  0
   -7.4689   21.2055  -31.8451 H   0  0  0  0  0  0  0  0  0  0  0  0
   -6.5642   20.8488  -33.3553 H   0  0  0  0  0  0  0  0  0  0  0  0
   -8.3602   20.8164  -33.3553 H   0  0  0  0  0  0  0  0  0  0  0  0
   -6.8842   18.9877  -30.3041 H   0  0  0  0  0  0  0  0  0  0  0  0
   -5.9675   17.8765  -31.3773 H   0  0  0  0  0  0  0  0  0  0  0  0
   -5.5969   19.6342  -31.3773 H   0  0  0  0  0  0  0  0  0  0  0  0
  1  2  1  0
  2  3  1  0
  3  4  1  0
  4  5  1  0
  5  6  2  0
  6  7  1  0
  7  8  2  0
  8  9  1  0
  9 10  2  0
 10 11  1  0
 11 12  1  0
 11 13  2  0
 10 14  1  0
 14 15  1  0
 15 16  2  0
 15 17  1  0
 17 18  2  0
 17 19  1  0
 14 20  1  0
 20 21  2  0
  2 22  1  0
 22 23  2  0
 22 24  1  0
 24 25  1  0
 25 26  1  0
 25 27  1  0
 25 28  1  0
 21  5  1  0
 20  8  1  0
  1 29  1  0
  1 30  1  0
  1 31  1  0
  2 32  1  6
  3 33  1  0
  3 34  1  0
  4 35  1  0
  4 36  1  0
  6 37  1  0
  7 38  1  0
  9 39  1  0
 12 40  1  0
 21 41  1  0
 26 42  1  0
 26 43  1  0
 26 44  1  0
 27 45  1  0
 27 46  1  0
 27 47  1  0
 28 48  1  0
 28 49  1  0
 28 50  1  0
M  CHG  3   2   1  12  -1  19  -1
M  END
>  <UniqueID>  (43) 
43

>  <SMILES>  (43) 
C[N@H+](CCc1ccc2cc(C([NH-])=O)n(C(=O)C(=O)[O-])c2c1)C(=O)OC(C)(C)C

>  <Energy>  (43) 
87.47709857212602

>  <Genealogy>  (43) 
C[NH+](CCc1ccc2cc(C([NH-])=O)n(C(=O)C(=O)[O-])c2c1)C(=O)OC(C)(C)C (protonated)
C[N@H+](CCc1ccc2cc(C([NH-])=O)n(C(=O)C(=O)[O-])c2c1)C(=O)OC(C)(C)C (chirality)
C[N@H+](CCc1ccc2cc(C([NH-])=O)n(C(=O)C(=O)[O-])c2c1)C(=O)OC(C)(C)C (3D coordinates assigned)
C[N@H+](CCc1ccc2cc(C([NH-])=O)n(C(=O)C(=O)[O-])c2c1)C(=O)OC(C)(C)C (optimized conformer: 87.47709857212602 kcal/mol)

>  <smiles>  (43) 
CN(CCc1ccc2cc(C(N)=O)n(C(=O)C(=O)O)c2c1)C(=O)OC(C)(C)C

>  <score_type>  (43) 
oracle

>  <origin>  (43) 
adg

>  <m_score__min__energy>  (43) 
-11.85

>  <m_primary>  (43) 
energy

$$$$
43:0
     RDKit          3D

 41 42  0  0  0  0  0  0  0  0999 V2000
   -8.1810   19.9340  -32.3580 C   0  0  0  0  0  0  0  0  0  0  0  0
   -8.1390   21.4060  -32.3270 N   0  0  0  0  0  0  0  0  0  0  0  0
   -9.0060   21.8980  -31.2430 C   0  0  0  0  0  0  0  0  0  0  0  0
   -6.7550   21.8950  -32.1390 C   0  0  0  0  0  0  0  0  0  0  0  0
   -6.7430   23.3750  -31.7310 C   0  0  0  0  0  0  0  0  0  0  0  0
   -5.4040   23.9450  -31.8580 N   0  0  0  0  0  0  0  0  0  0  0  0
   -4.5860   24.5200  -30.8260 C   0  0  0  0  0  0  0  0  0  0  0  0
   -4.4800   25.7740  -30.7890 O   0  0  0  0  0  0  0  0  0  0  0  0
   -3.8550   23.7190  -29.8160 C   0  0  0  0  0  0  0  0  0  0  0  0
   -4.2730   23.6230  -28.6340 O   0  0  0  0  0  0  0  0  0  0  0  0
   -2.6560   23.0200  -30.1860 N   0  0  0  0  0  0  0  0  0  0  0  0
   -1.3760   23.3100  -29.8180 C   0  0  0  0  0  0  0  0  0  0  0  0
   -0.9450   24.4910  -29.0400 C   0  0  0  0  0  0  0  0  0  0  0  0
   -1.7600   25.6570  -28.9600 N   0  0  0  0  0  0  0  0  0  0  0  0
    0.1710   24.4780  -28.4550 O   0  0  0  0  0  0  0  0  0  0  0  0
   -0.4990   22.3470  -30.3140 C   0  0  0  0  0  0  0  0  0  0  0  0
   -1.2890   21.4500  -30.9980 C   0  0  0  0  0  0  0  0  0  0  0  0
   -0.9460   20.2780  -31.6650 C   0  0  0  0  0  0  0  0  0  0  0  0
   -1.9800   19.5260  -32.2490 C   0  0  0  0  0  0  0  0  0  0  0  0
   -3.3290   19.9580  -32.1660 C   0  0  0  0  0  0  0  0  0  0  0  0
   -4.4340   19.1120  -32.7440 C   0  0  0  0  0  0  0  0  0  0  0  0
   -5.1060   19.7990  -33.7400 F   0  0  0  0  0  0  0  0  0  0  0  0
   -5.3490   18.7650  -31.7660 F   0  0  0  0  0  0  0  0  0  0  0  0
   -3.8900   17.9590  -33.2810 F   0  0  0  0  0  0  0  0  0  0  0  0
   -3.6380   21.1420  -31.4570 C   0  0  0  0  0  0  0  0  0  0  0  0
   -2.5870   21.8790  -30.9020 C   0  0  0  0  0  0  0  0  0  0  0  0
   -8.1921   19.5457  -31.3289 H   0  0  0  0  0  0  0  0  0  0  0  0
   -9.0889   19.6041  -32.8842 H   0  0  0  0  0  0  0  0  0  0  0  0
   -7.2934   19.5529  -32.8842 H   0  0  0  0  0  0  0  0  0  0  0  0
   -8.5579   21.6437  -30.2711 H   0  0  0  0  0  0  0  0  0  0  0  0
   -9.1105   22.9900  -31.3241 H   0  0  0  0  0  0  0  0  0  0  0  0
   -9.9971   21.4277  -31.3241 H   0  0  0  0  0  0  0  0  0  0  0  0
   -6.2679   21.3012  -31.3515 H   0  0  0  0  0  0  0  0  0  0  0  0
   -6.2149   21.7905  -33.0915 H   0  0  0  0  0  0  0  0  0  0  0  0
   -7.4338   23.9323  -32.3808 H   0  0  0  0  0  0  0  0  0  0  0  0
   -7.0561   23.4499  -30.6792 H   0  0  0  0  0  0  0  0  0  0  0  0
   -2.7360   25.6570  -29.3310 H   0  0  0  0  0  0  0  0  0  0  0  0
    0.5930   22.3110  -30.1862 H   0  0  0  0  0  0  0  0  0  0  0  0
    0.1018   19.9502  -31.7331 H   0  0  0  0  0  0  0  0  0  0  0  0
   -1.7405   18.5911  -32.7768 H   0  0  0  0  0  0  0  0  0  0  0  0
   -4.6803   21.4753  -31.3447 H   0  0  0  0  0  0  0  0  0  0  0  0
  1  2  1  0
  2  3  1  0
  2  4  1  0
  4  5  1  0
  5  6  1  0
  6  7  1  0
  7  8  2  0
  7  9  1  0
  9 10  2  0
  9 11  1  0
 11 12  1  0
 12 13  1  0
 13 14  1  0
 13 15  2  0
 12 16  2  0
 16 17  1  0
 17 18  2  0
 18 19  1  0
 19 20  2  0
 20 21  1  0
 21 22  1  0
 21 23  1  0
 21 24  1  0
 20 25  1  0
 25 26  2  0
 26 11  1  0
 26 17  1  0
  1 27  1  0
  1 28  1  0
  1 29  1  0
  3 30  1  0
  3 31  1  0
  3 32  1  0
  4 33  1  0
  4 34  1  0
  5 35  1  0
  5 36  1  0
 14 37  1  0
 16 38  1  0
 18 39  1  0
 19 40  1  0
 25 41  1  0
M  CHG  2   6  -1  14  -1
M  END
>  <UniqueID>  (44) 
44

>  <SMILES>  (44) 
CN(C)CC[N-]C(=O)C(=O)n1c(C([NH-])=O)cc2ccc(C(F)(F)F)cc21

>  <Energy>  (44) 
81.03009875947379

>  <Genealogy>  (44) 
CN(C)CC[N-]C(=O)C(=O)n1c(C([NH-])=O)cc2ccc(C(F)(F)F)cc21 (protonated)
CN(C)CC[N-]C(=O)C(=O)n1c(C([NH-])=O)cc2ccc(C(F)(F)F)cc21 (3D coordinates assigned)
CN(C)CC[N-]C(=O)C(=O)n1c(C([NH-])=O)cc2ccc(C(F)(F)F)cc21 (optimized conformer: 81.03009875947379 kcal/mol)

>  <smiles>  (44) 
CN(C)CCNC(=O)C(=O)n1c(C(N)=O)cc2ccc(C(F)(F)F)cc21

>  <score_type>  (44) 
oracle

>  <origin>  (44) 
adg

>  <m_score__min__energy>  (44) 
-10.029999999999999

>  <m_primary>  (44) 
energy

$$$$
44:0
     RDKit          3D

 36 37  0  0  0  0  0  0  0  0999 V2000
   -6.9480   18.2890  -32.3260 C   0  0  0  0  0  0  0  0  0  0  0  0
   -7.1240   19.7580  -32.0800 C   0  0  0  0  0  0  0  0  0  0  0  0
   -8.4080   20.3470  -32.1890 C   0  0  0  0  0  0  0  0  0  0  0  0
   -8.5910   21.7170  -31.9300 C   0  0  0  0  0  0  0  0  0  0  0  0
   -7.4790   22.4640  -31.5530 C   0  0  0  0  0  0  0  0  0  0  0  0
   -7.3690   23.8030  -31.2500 C   0  0  0  0  0  0  0  0  0  0  0  0
   -6.0250   24.0010  -30.9340 C   0  0  0  0  0  0  0  0  0  0  0  0
   -5.4740   25.2910  -30.4680 C   0  0  0  0  0  0  0  0  0  0  0  0
   -4.1480   25.6700  -30.8310 N   0  0  0  0  0  0  0  0  0  0  0  0
   -6.1720   26.0770  -29.7740 O   0  0  0  0  0  0  0  0  0  0  0  0
   -5.3340   22.8320  -31.0470 N   0  0  0  0  0  0  0  0  0  0  0  0
   -3.9290   22.6120  -30.8440 C   0  0  0  0  0  0  0  0  0  0  0  0
   -3.1160   22.9540  -31.7420 O   0  0  0  0  0  0  0  0  0  0  0  0
   -3.4360   22.0710  -29.5590 C   0  0  0  0  0  0  0  0  0  0  0  0
   -3.3890   20.8200  -29.4160 O   0  0  0  0  0  0  0  0  0  0  0  0
   -3.0360   22.9250  -28.4650 N   0  0  0  0  0  0  0  0  0  0  0  0
   -4.0740   23.4680  -27.5830 C   0  0  0  0  0  0  0  0  0  0  0  0
   -1.6210   23.1340  -28.1230 C   0  0  0  0  0  0  0  0  0  0  0  0
   -1.0870   24.3550  -28.8060 C   0  0  0  0  0  0  0  0  0  0  0  0
    0.1540   24.5170  -28.9410 O   0  0  0  0  0  0  0  0  0  0  0  0
   -1.9610   25.3040  -29.3200 O   0  0  0  0  0  0  0  0  0  0  0  0
   -6.2370   21.9020  -31.4200 C   0  0  0  0  0  0  0  0  0  0  0  0
   -6.0210   20.5440  -31.6790 C   0  0  0  0  0  0  0  0  0  0  0  0
   -6.8847   17.7610  -31.3631 H   0  0  0  0  0  0  0  0  0  0  0  0
   -7.8069   17.9075  -32.8977 H   0  0  0  0  0  0  0  0  0  0  0  0
   -6.0233   18.1212  -32.8977 H   0  0  0  0  0  0  0  0  0  0  0  0
   -9.2693   19.7272  -32.4788 H   0  0  0  0  0  0  0  0  0  0  0  0
   -9.5827   22.1839  -32.0226 H   0  0  0  0  0  0  0  0  0  0  0  0
   -8.1707   24.5562  -31.2559 H   0  0  0  0  0  0  0  0  0  0  0  0
   -3.3820   24.9630  -30.8760 H   0  0  0  0  0  0  0  0  0  0  0  0
   -3.7808   23.3146  -26.5339 H   0  0  0  0  0  0  0  0  0  0  0  0
   -4.1936   24.5442  -27.7767 H   0  0  0  0  0  0  0  0  0  0  0  0
   -5.0262   22.9525  -27.7767 H   0  0  0  0  0  0  0  0  0  0  0  0
   -1.5272   23.2590  -27.0342 H   0  0  0  0  0  0  0  0  0  0  0  0
   -1.0431   22.2599  -28.4576 H   0  0  0  0  0  0  0  0  0  0  0  0
   -5.0198   20.1007  -31.5732 H   0  0  0  0  0  0  0  0  0  0  0  0
  1  2  1  0
  2  3  2  0
  3  4  1  0
  4  5  2  0
  5  6  1  0
  6  7  2  0
  7  8  1  0
  8  9  1  0
  8 10  2  0
  7 11  1  0
 11 12  1  0
 12 13  2  0
 12 14  1  0
 14 15  2  0
 14 16  1  0
 16 17  1  0
 16 18  1  0
 18 19  1  0
 19 20  2  0
 19 21  1  0
 11 22  1  0
 22 23  2  0
 23  2  1  0
 22  5  1  0
  1 24  1  0
  1 25  1  0
  1 26  1  0
  3 27  1  0
  4 28  1  0
  6 29  1  0
  9 30  1  0
 17 31  1  0
 17 32  1  0
 17 33  1  0
 18 34  1  0
 18 35  1  0
 23 36  1  0
M  CHG  2   9  -1  21  -1
M  END
>  <UniqueID>  (45) 
45

>  <SMILES>  (45) 
Cc1ccc2cc(C([NH-])=O)n(C(=O)C(=O)N(C)CC(=O)[O-])c2c1

>  <Energy>  (45) 
75.55563643226854

>  <Genealogy>  (45) 
Cc1ccc2cc(C([NH-])=O)n(C(=O)C(=O)N(C)CC(=O)[O-])c2c1 (protonated)
Cc1ccc2cc(C([NH-])=O)n(C(=O)C(=O)N(C)CC(=O)[O-])c2c1 (3D coordinates assigned)
Cc1ccc2cc(C([NH-])=O)n(C(=O)C(=O)N(C)CC(=O)[O-])c2c1 (optimized conformer: 75.55563643226854 kcal/mol)

>  <smiles>  (45) 
Cc1ccc2cc(C(N)=O)n(C(=O)C(=O)N(C)CC(=O)O)c2c1

>  <score_type>  (45) 
oracle

>  <origin>  (45) 
adg

>  <m_score__min__energy>  (45) 
-12.67

>  <m_primary>  (45) 
energy

$$$$
45:0
     RDKit          3D

 39 40  0  0  0  0  0  0  0  0999 V2000
   -7.2590   17.7970  -32.3630 C   0  0  0  0  0  0  0  0  0  0  0  0
   -8.4570   18.7140  -32.5870 C   0  0  0  0  0  0  0  0  0  0  0  0
   -8.1640   20.1030  -32.0880 C   0  0  0  0  0  0  0  0  0  0  0  0
   -9.1830   21.0890  -32.0910 C   0  0  0  0  0  0  0  0  0  0  0  0
   -8.9100   22.4000  -31.6680 C   0  0  0  0  0  0  0  0  0  0  0  0
   -7.6160   22.6940  -31.2470 C   0  0  0  0  0  0  0  0  0  0  0  0
   -7.0750   23.8820  -30.8120 C   0  0  0  0  0  0  0  0  0  0  0  0
   -5.7390   23.6010  -30.5340 C   0  0  0  0  0  0  0  0  0  0  0  0
   -4.8060   24.5880  -29.9520 C   0  0  0  0  0  0  0  0  0  0  0  0
   -3.8850   25.3020  -30.7730 N   0  0  0  0  0  0  0  0  0  0  0  0
   -4.7900   24.7710  -28.7050 O   0  0  0  0  0  0  0  0  0  0  0  0
   -5.4610   22.2930  -30.7980 N   0  0  0  0  0  0  0  0  0  0  0  0
   -4.1950   21.6220  -30.6990 C   0  0  0  0  0  0  0  0  0  0  0  0
   -3.8470   20.8030  -31.5930 O   0  0  0  0  0  0  0  0  0  0  0  0
   -3.3430   21.8780  -29.5770 N   0  0  0  0  0  0  0  0  0  0  0  0
   -2.1250   22.6280  -29.6090 C   0  0  0  0  0  0  0  0  0  0  0  0
   -1.8660   23.4000  -30.5710 O   0  0  0  0  0  0  0  0  0  0  0  0
   -1.1670   22.5130  -28.4690 C   0  0  0  0  0  0  0  0  0  0  0  0
   -1.9620   23.1370  -26.9430 S   0  0  0  0  0  0  0  0  0  0  0  0
   -2.1970   24.8640  -27.4920 C   0  0  0  0  0  0  0  0  0  0  0  0
   -1.0370   25.3230  -28.3180 C   0  0  0  0  0  0  0  0  0  0  0  0
   -1.2280   26.0480  -29.3300 O   0  0  0  0  0  0  0  0  0  0  0  0
    0.2570   24.9560  -27.9680 O   0  0  0  0  0  0  0  0  0  0  0  0
   -6.6220   21.7500  -31.2300 C   0  0  0  0  0  0  0  0  0  0  0  0
   -6.8590   20.4420  -31.6680 C   0  0  0  0  0  0  0  0  0  0  0  0
   -7.0919   17.6691  -31.2833 H   0  0  0  0  0  0  0  0  0  0  0  0
   -7.4564   16.8171  -32.8221 H   0  0  0  0  0  0  0  0  0  0  0  0
   -6.3646   18.2435  -32.8221 H   0  0  0  0  0  0  0  0  0  0  0  0
   -8.6828   18.7569  -33.6627 H   0  0  0  0  0  0  0  0  0  0  0  0
   -9.3180   18.3131  -32.0321 H   0  0  0  0  0  0  0  0  0  0  0  0
  -10.1963   20.8247  -32.4276 H   0  0  0  0  0  0  0  0  0  0  0  0
   -9.6946   23.1710  -31.6693 H   0  0  0  0  0  0  0  0  0  0  0  0
   -7.5886   24.8490  -30.7061 H   0  0  0  0  0  0  0  0  0  0  0  0
   -2.8630   25.2990  -30.5600 H   0  0  0  0  0  0  0  0  0  0  0  0
   -0.8850   21.4587  -28.3313 H   0  0  0  0  0  0  0  0  0  0  0  0
   -0.2665   23.1070  -28.6839 H   0  0  0  0  0  0  0  0  0  0  0  0
   -3.1158   24.9291  -28.0934 H   0  0  0  0  0  0  0  0  0  0  0  0
   -2.2734   25.5084  -26.6038 H   0  0  0  0  0  0  0  0  0  0  0  0
   -6.0496   19.6972  -31.6847 H   0  0  0  0  0  0  0  0  0  0  0  0
  1  2  1  0
  2  3  1  0
  3  4  2  0
  4  5  1  0
  5  6  2  0
  6  7  1  0
  7  8  2  0
  8  9  1  0
  9 10  1  0
  9 11  2  0
  8 12  1  0
 12 13  1  0
 13 14  2  0
 13 15  1  0
 15 16  1  0
 16 17  2  0
 16 18  1  0
 18 19  1  0
 19 20  1  0
 20 21  1  0
 21 22  2  0
 21 23  1  0
 12 24  1  0
 24 25  2  0
 25  3  1  0
 24  6  1  0
  1 26  1  0
  1 27  1  0
  1 28  1  0
  2 29  1  0
  2 30  1  0
  4 31  1  0
  5 32  1  0
  7 33  1  0
 10 34  1  0
 18 35  1  0
 18 36  1  0
 20 37  1  0
 20 38  1  0
 25 39  1  0
M  CHG  3  10  -1  15  -1  23  -1
M  END
>  <UniqueID>  (46) 
46

>  <SMILES>  (46) 
CCc1ccc2cc(C([NH-])=O)n(C(=O)[N-]C(=O)CSCC(=O)[O-])c2c1

>  <Energy>  (46) 
69.79954960784654

>  <Genealogy>  (46) 
CCc1ccc2cc(C([NH-])=O)n(C(=O)[N-]C(=O)CSCC(=O)[O-])c2c1 (protonated)
CCc1ccc2cc(C([NH-])=O)n(C(=O)[N-]C(=O)CSCC(=O)[O-])c2c1 (3D coordinates assigned)
CCc1ccc2cc(C([NH-])=O)n(C(=O)[N-]C(=O)CSCC(=O)[O-])c2c1 (optimized conformer: 69.79954960784654 kcal/mol)

>  <smiles>  (46) 
CCc1ccc2cc(C(N)=O)n(C(=O)NC(=O)CSCC(=O)O)c2c1

>  <score_type>  (46) 
oracle

>  <origin>  (46) 
adg

>  <m_score__min__energy>  (46) 
-13.25

>  <m_primary>  (46) 
energy

$$$$
46:0
     RDKit          3D

 49 50  0  0  0  0  0  0  0  0999 V2000
   -8.6230   18.8080  -32.5780 C   0  0  0  0  0  0  0  0  0  0  0  0
   -8.3280   20.2340  -32.2200 C   0  0  0  0  0  0  0  0  0  0  0  0
   -9.3910   21.1420  -31.9900 C   0  0  0  0  0  0  0  0  0  0  0  0
   -9.1300   22.4710  -31.6100 C   0  0  0  0  0  0  0  0  0  0  0  0
   -7.8010   22.8560  -31.4620 C   0  0  0  0  0  0  0  0  0  0  0  0
   -7.2620   24.0670  -31.0870 C   0  0  0  0  0  0  0  0  0  0  0  0
   -5.8800   23.8730  -31.0920 C   0  0  0  0  0  0  0  0  0  0  0  0
   -4.8960   24.9370  -30.8090 C   0  0  0  0  0  0  0  0  0  0  0  0
   -3.5030   24.6360  -30.8110 N   0  0  0  0  0  0  0  0  0  0  0  0
   -5.2740   26.1080  -30.5430 O   0  0  0  0  0  0  0  0  0  0  0  0
   -5.5820   22.5930  -31.4490 N   0  0  0  0  0  0  0  0  0  0  0  0
   -4.2900   21.9760  -31.5250 C   0  0  0  0  0  0  0  0  0  0  0  0
   -3.5970   21.8650  -30.4790 O   0  0  0  0  0  0  0  0  0  0  0  0
   -3.7540   21.5210  -32.8260 C   0  0  0  0  0  0  0  0  0  0  0  0
   -3.8340   22.2980  -33.8180 O   0  0  0  0  0  0  0  0  0  0  0  0
   -3.1640   20.2020  -32.9710 N   0  0  1  0  0  0  0  0  0  0  0  0
   -1.7850   20.1740  -32.4230 C   0  0  0  0  0  0  0  0  0  0  0  0
   -0.7220   20.8300  -33.3220 C   0  0  0  0  0  0  0  0  0  0  0  0
   -1.2390   20.9720  -34.6150 O   0  0  0  0  0  0  0  0  0  0  0  0
   -4.0230   19.1310  -32.4040 C   0  0  0  0  0  0  0  0  0  0  0  0
   -4.7810   18.3530  -33.4650 C   0  0  0  0  0  0  0  0  0  0  0  0
   -4.5180   18.5470  -34.6840 O   0  0  0  0  0  0  0  0  0  0  0  0
   -5.7640   17.3590  -33.1030 N   0  0  0  0  0  0  0  0  0  0  0  0
   -6.4950   16.6610  -34.1650 C   0  0  0  0  0  0  0  0  0  0  0  0
   -6.0250   17.0350  -31.6970 C   0  0  0  0  0  0  0  0  0  0  0  0
   -6.7640   21.9860  -31.6770 C   0  0  0  0  0  0  0  0  0  0  0  0
   -6.9930   20.6570  -32.0450 C   0  0  0  0  0  0  0  0  0  0  0  0
   -8.7453   18.2169  -31.6584 H   0  0  0  0  0  0  0  0  0  0  0  0
   -9.5496   18.7625  -33.1691 H   0  0  0  0  0  0  0  0  0  0  0  0
   -7.7905   18.3986  -33.1691 H   0  0  0  0  0  0  0  0  0  0  0  0
  -10.4310   20.8043  -32.1098 H   0  0  0  0  0  0  0  0  0  0  0  0
   -9.9501   23.1830  -31.4355 H   0  0  0  0  0  0  0  0  0  0  0  0
   -7.8052   24.9902  -30.8369 H   0  0  0  0  0  0  0  0  0  0  0  0
   -2.8100   25.2980  -30.3960 H   0  0  0  0  0  0  0  0  0  0  0  0
   -3.0610   19.9950  -33.9930 H   0  0  0  0  0  0  0  0  0  0  0  0
   -1.7893   20.7007  -31.4573 H   0  0  0  0  0  0  0  0  0  0  0  0
   -1.5067   19.1133  -32.3363 H   0  0  0  0  0  0  0  0  0  0  0  0
   -0.4594   21.8195  -32.9197 H   0  0  0  0  0  0  0  0  0  0  0  0
    0.1789   20.1995  -33.3506 H   0  0  0  0  0  0  0  0  0  0  0  0
   -1.8840   21.7260  -34.5750 H   0  0  0  0  0  0  0  0  0  0  0  0
   -3.3859   18.4305  -31.8441 H   0  0  0  0  0  0  0  0  0  0  0  0
   -4.7686   19.6159  -31.7567 H   0  0  0  0  0  0  0  0  0  0  0  0
   -7.2212   15.9676  -33.7156 H   0  0  0  0  0  0  0  0  0  0  0  0
   -7.0264   17.3954  -34.7881 H   0  0  0  0  0  0  0  0  0  0  0  0
   -5.7859   16.0963  -34.7881 H   0  0  0  0  0  0  0  0  0  0  0  0
   -5.4664   17.7284  -31.0511 H   0  0  0  0  0  0  0  0  0  0  0  0
   -7.1016   17.1302  -31.4925 H   0  0  0  0  0  0  0  0  0  0  0  0
   -5.7028   16.0033  -31.4925 H   0  0  0  0  0  0  0  0  0  0  0  0
   -6.1554   19.9598  -32.1941 H   0  0  0  0  0  0  0  0  0  0  0  0
  1  2  1  0
  2  3  2  0
  3  4  1  0
  4  5  2  0
  5  6  1  0
  6  7  2  0
  7  8  1  0
  8  9  1  0
  8 10  2  0
  7 11  1  0
 11 12  1  0
 12 13  2  0
 12 14  1  0
 14 15  2  0
 14 16  1  0
 16 17  1  0
 17 18  1  0
 18 19  1  0
 16 20  1  0
 20 21  1  0
 21 22  2  0
 21 23  1  0
 23 24  1  0
 23 25  1  0
 11 26  1  0
 26 27  2  0
 27  2  1  0
 26  5  1  0
  1 28  1  0
  1 29  1  0
  1 30  1  0
  3 31  1  0
  4 32  1  0
  6 33  1  0
  9 34  1  0
 16 35  1  6
 17 36  1  0
 17 37  1  0
 18 38  1  0
 18 39  1  0
 19 40  1  0
 20 41  1  0
 20 42  1  0
 24 43  1  0
 24 44  1  0
 24 45  1  0
 25 46  1  0
 25 47  1  0
 25 48  1  0
 27 49  1  0
M  CHG  2   9  -1  16   1
M  END
>  <UniqueID>  (47) 
47

>  <SMILES>  (47) 
Cc1ccc2cc(C([NH-])=O)n(C(=O)C(=O)[N@@H+](CCO)CC(=O)N(C)C)c2c1

>  <Energy>  (47) 
89.44654517523752

>  <Genealogy>  (47) 
Cc1ccc2cc(C([NH-])=O)n(C(=O)C(=O)[NH+](CCO)CC(=O)N(C)C)c2c1 (protonated)
Cc1ccc2cc(C([NH-])=O)n(C(=O)C(=O)[N@@H+](CCO)CC(=O)N(C)C)c2c1 (chirality)
Cc1ccc2cc(C([NH-])=O)n(C(=O)C(=O)[N@@H+](CCO)CC(=O)N(C)C)c2c1 (3D coordinates assigned)
Cc1ccc2cc(C([NH-])=O)n(C(=O)C(=O)[N@@H+](CCO)CC(=O)N(C)C)c2c1 (optimized conformer: 89.44654517523752 kcal/mol)

>  <smiles>  (47) 
Cc1ccc2cc(C(N)=O)n(C(=O)C(=O)N(CCO)CC(=O)N(C)C)c2c1

>  <score_type>  (47) 
oracle

>  <origin>  (47) 
adg

>  <m_score__min__energy>  (47) 
-9.6099999999999994

>  <m_primary>  (47) 
energy

$$$$
47:0
     RDKit          3D

 44 45  0  0  0  0  0  0  0  0999 V2000
   -0.1540   22.5540  -26.4260 C   0  0  0  0  0  0  0  0  0  0  0  0
   -0.9360   23.0400  -27.5090 O   0  0  0  0  0  0  0  0  0  0  0  0
   -0.5430   24.1300  -28.2940 C   0  0  0  0  0  0  0  0  0  0  0  0
    0.5290   24.0850  -28.9590 O   0  0  0  0  0  0  0  0  0  0  0  0
   -1.3880   25.3740  -28.3350 C   0  0  1  0  0  0  0  0  0  0  0  0
   -2.4570   25.2100  -29.3190 N   0  0  0  0  0  0  0  0  0  0  0  0
   -3.2240   24.0130  -29.4850 C   0  0  0  0  0  0  0  0  0  0  0  0
   -3.2090   23.1180  -28.5980 O   0  0  0  0  0  0  0  0  0  0  0  0
   -4.0360   23.8320  -30.6960 C   0  0  0  0  0  0  0  0  0  0  0  0
   -4.6080   24.8270  -31.2190 O   0  0  0  0  0  0  0  0  0  0  0  0
   -4.1690   22.5360  -31.3020 N   0  0  0  0  0  0  0  0  0  0  0  0
   -3.1750   21.6540  -31.6010 C   0  0  0  0  0  0  0  0  0  0  0  0
   -1.7240   21.9250  -31.4670 C   0  0  0  0  0  0  0  0  0  0  0  0
   -1.1360   22.1790  -30.1880 N   0  0  0  0  0  0  0  0  0  0  0  0
   -0.9830   21.9220  -32.4850 O   0  0  0  0  0  0  0  0  0  0  0  0
   -3.7170   20.4710  -32.1090 C   0  0  0  0  0  0  0  0  0  0  0  0
   -5.0810   20.6600  -32.0980 C   0  0  0  0  0  0  0  0  0  0  0  0
   -6.1060   19.7980  -32.4670 C   0  0  0  0  0  0  0  0  0  0  0  0
   -7.4300   20.2510  -32.3290 C   0  0  0  0  0  0  0  0  0  0  0  0
   -7.7050   21.5520  -31.8320 C   0  0  0  0  0  0  0  0  0  0  0  0
   -9.1300   22.0060  -31.6410 C   0  0  0  0  0  0  0  0  0  0  0  0
   -9.2510   23.3170  -32.0630 F   0  0  0  0  0  0  0  0  0  0  0  0
   -9.9990   21.2150  -32.3740 F   0  0  0  0  0  0  0  0  0  0  0  0
   -9.4920   21.9250  -30.3090 F   0  0  0  0  0  0  0  0  0  0  0  0
   -6.6340   22.3840  -31.4340 C   0  0  0  0  0  0  0  0  0  0  0  0
   -5.3260   21.9130  -31.6040 C   0  0  0  0  0  0  0  0  0  0  0  0
   -1.9680   25.6990  -26.9350 C   0  0  2  0  0  0  0  0  0  0  0  0
   -0.8780   25.8190  -25.8600 C   0  0  0  0  0  0  0  0  0  0  0  0
   -2.8850   24.7010  -26.5660 O   0  0  0  0  0  0  0  0  0  0  0  0
   -0.6234   22.8457  -25.4749 H   0  0  0  0  0  0  0  0  0  0  0  0
   -0.0908   21.4573  -26.4825 H   0  0  0  0  0  0  0  0  0  0  0  0
    0.8573   22.9829  -26.4825 H   0  0  0  0  0  0  0  0  0  0  0  0
   -0.7555   26.2226  -28.6347 H   0  0  0  0  0  0  0  0  0  0  0  0
   -0.1080   22.3480  -30.1110 H   0  0  0  0  0  0  0  0  0  0  0  0
   -1.7100   22.2340  -29.3200 H   0  0  0  0  0  0  0  0  0  0  0  0
   -3.1703   19.5780  -32.4462 H   0  0  0  0  0  0  0  0  0  0  0  0
   -5.8886   18.7920  -32.8552 H   0  0  0  0  0  0  0  0  0  0  0  0
   -8.2627   19.5893  -32.6095 H   0  0  0  0  0  0  0  0  0  0  0  0
   -6.8232   23.3774  -31.0012 H   0  0  0  0  0  0  0  0  0  0  0  0
   -2.4684   26.6762  -27.0040 H   0  0  0  0  0  0  0  0  0  0  0  0
   -1.3394   25.7682  -24.8627 H   0  0  0  0  0  0  0  0  0  0  0  0
   -0.1586   24.9946  -25.9736 H   0  0  0  0  0  0  0  0  0  0  0  0
   -0.3552   26.7801  -25.9736 H   0  0  0  0  0  0  0  0  0  0  0  0
   -2.8710   24.0130  -27.2820 H   0  0  0  0  0  0  0  0  0  0  0  0
  1  2  1  0
  2  3  1  0
  3  4  2  0
  3  5  1  0
  5  6  1  0
  6  7  1  0
  7  8  2  0
  7  9  1  0
  9 10  2  0
  9 11  1  0
 11 12  1  0
 12 13  1  0
 13 14  1  0
 13 15  2  0
 12 16  2  0
 16 17  1  0
 17 18  2  0
 18 19  1  0
 19 20  2  0
 20 21  1  0
 21 22  1  0
 21 23  1  0
 21 24  1  0
 20 25  1  0
 25 26  2  0
  5 27  1  0
 27 28  1  0
 27 29  1  0
 26 11  1  0
 26 17  1  0
  1 30  1  0
  1 31  1  0
  1 32  1  0
  5 33  1  6
 14 34  1  0
 14 35  1  0
 16 36  1  0
 18 37  1  0
 19 38  1  0
 25 39  1  0
 27 40  1  6
 28 41  1  0
 28 42  1  0
 28 43  1  0
 29 44  1  0
M  CHG  1   6  -1
M  END
>  <UniqueID>  (48) 
48

>  <SMILES>  (48) 
COC(=O)[C@@H]([N-]C(=O)C(=O)n1c(C(N)=O)cc2ccc(C(F)(F)F)cc21)[C@H](C)O

>  <Energy>  (48) 
76.6239007809157

>  <Genealogy>  (48) 
COC(=O)C([N-]C(=O)C(=O)n1c(C(N)=O)cc2ccc(C(F)(F)F)cc21)C(C)O (protonated)
COC(=O)[C@@H]([N-]C(=O)C(=O)n1c(C(N)=O)cc2ccc(C(F)(F)F)cc21)[C@H](C)O (chirality)
COC(=O)[C@@H]([N-]C(=O)C(=O)n1c(C(N)=O)cc2ccc(C(F)(F)F)cc21)[C@H](C)O (3D coordinates assigned)
COC(=O)[C@@H]([N-]C(=O)C(=O)n1c(C(N)=O)cc2ccc(C(F)(F)F)cc21)[C@H](C)O (optimized conformer: 76.6239007809157 kcal/mol)

>  <smiles>  (48) 
COC(=O)C(NC(=O)C(=O)n1c(C(N)=O)cc2ccc(C(F)(F)F)cc21)C(C)O

>  <score_type>  (48) 
oracle

>  <origin>  (48) 
adg

>  <m_score__min__energy>  (48) 
-9.3000000000000007

>  <m_primary>  (48) 
energy

$$$$
48:0
     RDKit          3D

 39 40  0  0  0  0  0  0  0  0999 V2000
   -8.0120   17.8970  -32.5510 C   0  0  0  0  0  0  0  0  0  0  0  0
   -7.9020   19.3480  -32.1870 C   0  0  0  0  0  0  0  0  0  0  0  0
   -9.0180   20.2060  -32.3410 C   0  0  0  0  0  0  0  0  0  0  0  0
   -8.9210   21.5720  -32.0220 C   0  0  0  0  0  0  0  0  0  0  0  0
   -7.6910   22.0520  -31.5800 C   0  0  0  0  0  0  0  0  0  0  0  0
   -7.3290   23.3150  -31.1690 C   0  0  0  0  0  0  0  0  0  0  0  0
   -5.9840   23.2170  -30.8200 C   0  0  0  0  0  0  0  0  0  0  0  0
   -5.1760   24.3620  -30.3510 C   0  0  0  0  0  0  0  0  0  0  0  0
   -5.2610   24.8270  -29.0030 N   0  0  0  0  0  0  0  0  0  0  0  0
   -4.3610   24.9070  -31.1420 O   0  0  0  0  0  0  0  0  0  0  0  0
   -5.5330   21.9450  -31.0020 N   0  0  0  0  0  0  0  0  0  0  0  0
   -4.2440   21.4130  -30.6550 C   0  0  0  0  0  0  0  0  0  0  0  0
   -4.0540   20.1670  -30.6890 O   0  0  0  0  0  0  0  0  0  0  0  0
   -3.1880   22.3000  -30.2640 N   0  0  0  0  0  0  0  0  0  0  0  0
   -1.7970   21.9490  -30.2950 C   0  0  0  0  0  0  0  0  0  0  0  0
   -1.4370   20.7640  -30.5270 O   0  0  0  0  0  0  0  0  0  0  0  0
   -0.7570   23.0110  -30.0980 C   0  0  0  0  0  0  0  0  0  0  0  0
   -1.0180   23.7450  -28.8540 N   0  0  0  0  0  0  0  0  0  0  0  0
   -0.6270   23.1530  -27.5720 C   0  0  0  0  0  0  0  0  0  0  0  0
   -1.5660   25.0770  -28.8780 C   0  0  0  0  0  0  0  0  0  0  0  0
   -2.7070   25.2880  -29.3690 O   0  0  0  0  0  0  0  0  0  0  0  0
   -0.8470   26.1490  -28.3620 O   0  0  0  0  0  0  0  0  0  0  0  0
   -6.5910   21.2420  -31.4640 C   0  0  0  0  0  0  0  0  0  0  0  0
   -6.6680   19.8720  -31.7450 C   0  0  0  0  0  0  0  0  0  0  0  0
   -8.0579   17.2914  -31.6339 H   0  0  0  0  0  0  0  0  0  0  0  0
   -8.9250   17.7357  -33.1430 H   0  0  0  0  0  0  0  0  0  0  0  0
   -7.1338   17.5999  -33.1430 H   0  0  0  0  0  0  0  0  0  0  0  0
   -9.9699   19.7999  -32.7138 H   0  0  0  0  0  0  0  0  0  0  0  0
   -9.7894   22.2403  -32.1186 H   0  0  0  0  0  0  0  0  0  0  0  0
   -7.9661   24.2107  -31.1255 H   0  0  0  0  0  0  0  0  0  0  0  0
   -5.7810   24.2880  -28.2770 H   0  0  0  0  0  0  0  0  0  0  0  0
   -4.7190   25.6690  -28.7070 H   0  0  0  0  0  0  0  0  0  0  0  0
   -3.4440   23.2840  -30.0210 H   0  0  0  0  0  0  0  0  0  0  0  0
    0.2365   22.5421  -30.0426 H   0  0  0  0  0  0  0  0  0  0  0  0
   -0.7921   23.7121  -30.9449 H   0  0  0  0  0  0  0  0  0  0  0  0
   -1.0292   23.7620  -26.7490 H   0  0  0  0  0  0  0  0  0  0  0  0
   -1.0285   22.1313  -27.5023 H   0  0  0  0  0  0  0  0  0  0  0  0
    0.4703   23.1213  -27.5023 H   0  0  0  0  0  0  0  0  0  0  0  0
   -5.7895   19.2211  -31.6244 H   0  0  0  0  0  0  0  0  0  0  0  0
  1  2  1  0
  2  3  2  0
  3  4  1  0
  4  5  2  0
  5  6  1  0
  6  7  2  0
  7  8  1  0
  8  9  1  0
  8 10  2  0
  7 11  1  0
 11 12  1  0
 12 13  2  0
 12 14  1  0
 14 15  1  0
 15 16  2  0
 15 17  1  0
 17 18  1  0
 18 19  1  0
 18 20  1  0
 20 21  2  0
 20 22  1  0
 11 23  1  0
 23 24  2  0
 24  2  1  0
 23  5  1  0
  1 25  1  0
  1 26  1  0
  1 27  1  0
  3 28  1  0
  4 29  1  0
  6 30  1  0
  9 31  1  0
  9 32  1  0
 14 33  1  0
 17 34  1  0
 17 35  1  0
 19 36  1  0
 19 37  1  0
 19 38  1  0
 24 39  1  0
M  CHG  1  22  -1
M  END
>  <UniqueID>  (49) 
49

>  <SMILES>  (49) 
Cc1ccc2cc(C(N)=O)n(C(=O)NC(=O)CN(C)C(=O)[O-])c2c1

>  <Energy>  (49) 
73.42307287297241

>  <Genealogy>  (49) 
Cc1ccc2cc(C(N)=O)n(C(=O)NC(=O)CN(C)C(=O)[O-])c2c1 (protonated)
Cc1ccc2cc(C(N)=O)n(C(=O)NC(=O)CN(C)C(=O)[O-])c2c1 (3D coordinates assigned)
Cc1ccc2cc(C(N)=O)n(C(=O)NC(=O)CN(C)C(=O)[O-])c2c1 (optimized conformer: 73.42307287297241 kcal/mol)

>  <smiles>  (49) 
Cc1ccc2cc(C(N)=O)n(C(=O)NC(=O)CN(C)C(=O)O)c2c1

>  <score_type>  (49) 
oracle

>  <origin>  (49) 
adg

>  <m_score__min__energy>  (49) 
-11.23

>  <m_primary>  (49) 
energy

$$$$
49:0
     RDKit          3D

 36 37  0  0  0  0  0  0  0  0999 V2000
   -3.9650   25.6690  -30.8560 N   0  0  0  0  0  0  0  0  0  0  0  0
   -5.2640   25.2680  -30.4280 C   0  0  0  0  0  0  0  0  0  0  0  0
   -5.9610   26.0640  -29.7470 O   0  0  0  0  0  0  0  0  0  0  0  0
   -5.7870   23.9380  -30.8060 C   0  0  0  0  0  0  0  0  0  0  0  0
   -7.1450   23.6340  -30.8900 C   0  0  0  0  0  0  0  0  0  0  0  0
   -7.2000   22.2910  -31.1930 C   0  0  0  0  0  0  0  0  0  0  0  0
   -8.2960   21.4610  -31.4040 C   0  0  0  0  0  0  0  0  0  0  0  0
   -8.0510   20.1130  -31.7190 C   0  0  0  0  0  0  0  0  0  0  0  0
   -6.7240   19.6210  -31.8050 C   0  0  0  0  0  0  0  0  0  0  0  0
   -6.4700   18.1920  -32.1860 C   0  0  0  0  0  0  0  0  0  0  0  0
   -5.6840   18.1040  -34.1710 I   0  0  0  0  0  0  0  0  0  0  0  0
   -5.6370   20.4960  -31.5930 C   0  0  0  0  0  0  0  0  0  0  0  0
   -5.9120   21.8310  -31.2820 C   0  0  0  0  0  0  0  0  0  0  0  0
   -5.0350   22.8330  -31.0660 N   0  0  0  0  0  0  0  0  0  0  0  0
   -3.6030   22.7230  -31.0920 C   0  0  0  0  0  0  0  0  0  0  0  0
   -3.0250   22.5410  -32.1980 O   0  0  0  0  0  0  0  0  0  0  0  0
   -2.8260   22.8280  -29.8790 N   0  0  0  0  0  0  0  0  0  0  0  0
   -3.3590   23.5380  -28.7050 C   0  0  0  0  0  0  0  0  0  0  0  0
   -2.3550   24.5190  -28.1830 C   0  0  0  0  0  0  0  0  0  0  0  0
   -1.8520   24.3620  -27.0370 O   0  0  0  0  0  0  0  0  0  0  0  0
   -1.9590   25.5970  -28.9650 O   0  0  0  0  0  0  0  0  0  0  0  0
   -1.4460   22.3230  -29.8530 C   0  0  0  0  0  0  0  0  0  0  0  0
   -1.3670   20.9740  -30.4950 C   0  0  0  0  0  0  0  0  0  0  0  0
   -2.3050   20.1470  -30.3540 O   0  0  0  0  0  0  0  0  0  0  0  0
   -0.2610   20.6340  -31.2630 O   0  0  0  0  0  0  0  0  0  0  0  0
   -3.1060   25.2890  -30.4000 H   0  0  0  0  0  0  0  0  0  0  0  0
   -7.9923   24.3203  -30.7452 H   0  0  0  0  0  0  0  0  0  0  0  0
   -9.3230   21.8475  -31.3268 H   0  0  0  0  0  0  0  0  0  0  0  0
   -8.8968   19.4335  -31.9005 H   0  0  0  0  0  0  0  0  0  0  0  0
   -5.7455   17.7503  -31.4860 H   0  0  0  0  0  0  0  0  0  0  0  0
   -7.4148   17.6304  -32.1433 H   0  0  0  0  0  0  0  0  0  0  0  0
   -4.6002   20.1368  -31.6705 H   0  0  0  0  0  0  0  0  0  0  0  0
   -4.2746   24.0757  -28.9924 H   0  0  0  0  0  0  0  0  0  0  0  0
   -3.5812   22.8038  -27.9166 H   0  0  0  0  0  0  0  0  0  0  0  0
   -0.7949   23.0218  -30.3987 H   0  0  0  0  0  0  0  0  0  0  0  0
   -1.1193   22.2373  -28.8061 H   0  0  0  0  0  0  0  0  0  0  0  0
  1  2  1  0
  2  3  2  0
  2  4  1  0
  4  5  2  0
  5  6  1  0
  6  7  2  0
  7  8  1  0
  8  9  2  0
  9 10  1  0
 10 11  1  0
  9 12  1  0
 12 13  2  0
 13 14  1  0
 14 15  1  0
 15 16  2  0
 15 17  1  0
 17 18  1  0
 18 19  1  0
 19 20  2  0
 19 21  1  0
 17 22  1  0
 22 23  1  0
 23 24  2  0
 23 25  1  0
 14  4  1  0
 13  6  1  0
  1 26  1  0
  5 27  1  0
  7 28  1  0
  8 29  1  0
 10 30  1  0
 10 31  1  0
 12 32  1  0
 18 33  1  0
 18 34  1  0
 22 35  1  0
 22 36  1  0
M  CHG  3   1  -1  21  -1  25  -1
M  END
>  <UniqueID>  (50) 
50

>  <SMILES>  (50) 
[NH-]C(=O)c1cc2ccc(CI)cc2n1C(=O)N(CC(=O)[O-])CC(=O)[O-]

>  <Energy>  (50) 
71.1691231005573

>  <Genealogy>  (50) 
[NH-]C(=O)c1cc2ccc(CI)cc2n1C(=O)N(CC(=O)[O-])CC(=O)[O-] (protonated)
[NH-]C(=O)c1cc2ccc(CI)cc2n1C(=O)N(CC(=O)[O-])CC(=O)[O-] (3D coordinates assigned)
[NH-]C(=O)c1cc2ccc(CI)cc2n1C(=O)N(CC(=O)[O-])CC(=O)[O-] (optimized conformer: 71.1691231005573 kcal/mol)

>  <smiles>  (50) 
NC(=O)c1cc2ccc(CI)cc2n1C(=O)N(CC(=O)O)CC(=O)O

>  <score_type>  (50) 
oracle

>  <origin>  (50) 
adg

>  <m_score__min__energy>  (50) 
-12.06

>  <m_primary>  (50) 
energy

$$$$
50:0
     RDKit          3D

 39 40  0  0  0  0  0  0  0  0999 V2000
   -3.8810   25.3420  -30.8300 N   0  0  0  0  0  0  0  0  0  0  0  0
   -4.9810   24.7530  -30.1410 C   0  0  0  0  0  0  0  0  0  0  0  0
   -5.3910   25.2800  -29.0730 O   0  0  0  0  0  0  0  0  0  0  0  0
   -5.6620   23.5550  -30.6750 C   0  0  0  0  0  0  0  0  0  0  0  0
   -6.9440   23.5750  -31.2260 C   0  0  0  0  0  0  0  0  0  0  0  0
   -7.1810   22.2840  -31.6450 C   0  0  0  0  0  0  0  0  0  0  0  0
   -8.2930   21.7340  -32.2740 C   0  0  0  0  0  0  0  0  0  0  0  0
   -8.2610   20.3660  -32.5900 C   0  0  0  0  0  0  0  0  0  0  0  0
   -7.1380   19.5670  -32.2520 C   0  0  0  0  0  0  0  0  0  0  0  0
   -7.1030   18.1130  -32.6460 C   0  0  0  0  0  0  0  0  0  0  0  0
   -8.3150   17.4980  -32.3830 F   0  0  0  0  0  0  0  0  0  0  0  0
   -6.1100   17.4720  -31.9300 F   0  0  0  0  0  0  0  0  0  0  0  0
   -6.8390   17.9870  -33.9980 F   0  0  0  0  0  0  0  0  0  0  0  0
   -6.0230   20.1680  -31.6230 C   0  0  0  0  0  0  0  0  0  0  0  0
   -6.0740   21.5370  -31.3420 C   0  0  0  0  0  0  0  0  0  0  0  0
   -5.1310   22.3030  -30.7550 N   0  0  0  0  0  0  0  0  0  0  0  0
   -3.8590   21.8530  -30.2610 C   0  0  0  0  0  0  0  0  0  0  0  0
   -3.3640   20.7860  -30.7110 O   0  0  0  0  0  0  0  0  0  0  0  0
   -3.1040   22.6260  -29.2590 C   0  0  0  0  0  0  0  0  0  0  0  0
   -3.5800   22.8670  -28.0320 C   0  0  0  0  0  0  0  0  0  0  0  0
   -2.7970   23.6730  -27.0290 C   0  0  0  0  0  0  0  0  0  0  0  0
   -2.9620   25.1240  -27.2350 N   0  0  0  0  0  0  0  0  0  0  0  0
   -1.7630   25.9020  -26.8740 C   0  0  0  0  0  0  0  0  0  0  0  0
   -0.8190   26.0450  -28.0320 C   0  0  0  0  0  0  0  0  0  0  0  0
   -1.2540   26.0080  -29.2130 O   0  0  0  0  0  0  0  0  0  0  0  0
    0.5370   26.2430  -27.8030 O   0  0  0  0  0  0  0  0  0  0  0  0
   -2.9150   25.2990  -30.4370 H   0  0  0  0  0  0  0  0  0  0  0  0
   -7.6212   24.4379  -31.3083 H   0  0  0  0  0  0  0  0  0  0  0  0
   -9.1704   22.3515  -32.5165 H   0  0  0  0  0  0  0  0  0  0  0  0
   -9.1175   19.9079  -33.1062 H   0  0  0  0  0  0  0  0  0  0  0  0
   -5.1361   19.5724  -31.3608 H   0  0  0  0  0  0  0  0  0  0  0  0
   -2.1130   23.0192  -29.5297 H   0  0  0  0  0  0  0  0  0  0  0  0
   -4.5652   22.4676  -27.7494 H   0  0  0  0  0  0  0  0  0  0  0  0
   -3.1453   23.4162  -26.0177 H   0  0  0  0  0  0  0  0  0  0  0  0
   -1.7316   23.4311  -27.1568 H   0  0  0  0  0  0  0  0  0  0  0  0
   -3.1980   25.2970  -28.2410 H   0  0  0  0  0  0  0  0  0  0  0  0
   -3.7710   25.4690  -26.6670 H   0  0  0  0  0  0  0  0  0  0  0  0
   -2.0752   26.9038  -26.5439 H   0  0  0  0  0  0  0  0  0  0  0  0
   -1.2377   25.3654  -26.0702 H   0  0  0  0  0  0  0  0  0  0  0  0
  1  2  1  0
  2  3  2  0
  2  4  1  0
  4  5  2  0
  5  6  1  0
  6  7  2  0
  7  8  1  0
  8  9  2  0
  9 10  1  0
 10 11  1  0
 10 12  1  0
 10 13  1  0
  9 14  1  0
 14 15  2  0
 15 16  1  0
 16 17  1  0
 17 18  2  0
 17 19  1  0
 19 20  2  3
 20 21  1  0
 21 22  1  0
 22 23  1  0
 23 24  1  0
 24 25  2  0
 24 26  1  0
 16  4  1  0
 15  6  1  0
  1 27  1  0
  5 28  1  0
  7 29  1  0
  8 30  1  0
 14 31  1  0
 19 32  1  0
 20 33  1  0
 21 34  1  0
 21 35  1  0
 22 36  1  0
 22 37  1  0
 23 38  1  0
 23 39  1  0
M  CHG  3   1  -1  22   1  26  -1
M  END
>  <UniqueID>  (51) 
51

>  <SMILES>  (51) 
[NH-]C(=O)c1cc2ccc(C(F)(F)F)cc2n1C(=O)C=CC[NH2+]CC(=O)[O-]

>  <Energy>  (51) 
75.45889686096753

>  <Genealogy>  (51) 
[NH-]C(=O)c1cc2ccc(C(F)(F)F)cc2n1C(=O)C=CC[NH2+]CC(=O)[O-] (protonated)
[NH-]C(=O)c1cc2ccc(C(F)(F)F)cc2n1C(=O)C=CC[NH2+]CC(=O)[O-] (3D coordinates assigned)
[NH-]C(=O)c1cc2ccc(C(F)(F)F)cc2n1C(=O)C=CC[NH2+]CC(=O)[O-] (optimized conformer: 75.45889686096753 kcal/mol)

>  <smiles>  (51) 
NC(=O)c1cc2ccc(C(F)(F)F)cc2n1C(=O)C=CCNCC(=O)O

>  <score_type>  (51) 
oracle

>  <origin>  (51) 
adg

>  <m_score__min__energy>  (51) 
-11.82

>  <m_primary>  (51) 
energy

$$$$
51:0
     RDKit          3D

 51 52  0  0  0  0  0  0  0  0999 V2000
   -7.1100   18.3800  -32.4320 C   0  0  0  0  0  0  0  0  0  0  0  0
   -7.2330   19.8500  -32.1550 C   0  0  0  0  0  0  0  0  0  0  0  0
   -8.4970   20.4870  -32.2440 C   0  0  0  0  0  0  0  0  0  0  0  0
   -8.6320   21.8550  -31.9450 C   0  0  0  0  0  0  0  0  0  0  0  0
   -7.4920   22.5530  -31.5500 C   0  0  0  0  0  0  0  0  0  0  0  0
   -7.3360   23.8760  -31.1960 C   0  0  0  0  0  0  0  0  0  0  0  0
   -5.9830   24.0190  -30.8870 C   0  0  0  0  0  0  0  0  0  0  0  0
   -5.3700   25.2830  -30.4230 C   0  0  0  0  0  0  0  0  0  0  0  0
   -4.0560   25.6560  -30.8350 N   0  0  0  0  0  0  0  0  0  0  0  0
   -6.0100   26.0400  -29.6430 O   0  0  0  0  0  0  0  0  0  0  0  0
   -5.3350   22.8320  -31.0460 N   0  0  0  0  0  0  0  0  0  0  0  0
   -3.9430   22.5580  -30.8570 C   0  0  0  0  0  0  0  0  0  0  0  0
   -3.0820   23.3700  -31.2880 O   0  0  0  0  0  0  0  0  0  0  0  0
   -3.5120   21.3080  -30.1510 C   0  0  0  0  0  0  0  0  0  0  0  0
   -2.8090   21.6500  -28.8650 C   0  0  0  0  0  0  0  0  0  0  0  0
   -3.5100   21.7950  -27.8250 O   0  0  0  0  0  0  0  0  0  0  0  0
   -1.3790   21.8700  -28.8020 N   0  0  0  0  0  0  0  0  0  0  0  0
   -0.4830   20.8670  -28.2130 C   0  0  0  0  0  0  0  0  0  0  0  0
   -0.8140   23.1370  -29.2910 C   0  0  0  0  0  0  0  0  0  0  0  0
   -1.4340   24.3250  -28.5940 C   0  0  0  0  0  0  0  0  0  0  0  0
   -1.8560   25.2940  -29.2850 O   0  0  0  0  0  0  0  0  0  0  0  0
   -1.5530   24.3680  -27.1550 N   0  0  0  0  0  0  0  0  0  0  0  0
   -0.6140   23.6200  -26.3060 C   0  0  0  0  0  0  0  0  0  0  0  0
   -2.6230   25.1580  -26.5270 C   0  0  0  0  0  0  0  0  0  0  0  0
   -3.9970   24.6110  -26.9280 C   0  0  0  0  0  0  0  0  0  0  0  0
   -4.0720   24.4540  -28.3170 O   0  0  0  0  0  0  0  0  0  0  0  0
   -6.2700   21.9460  -31.4480 C   0  0  0  0  0  0  0  0  0  0  0  0
   -6.1030   20.5870  -31.7380 C   0  0  0  0  0  0  0  0  0  0  0  0
   -7.0640   17.8302  -31.4804 H   0  0  0  0  0  0  0  0  0  0  0  0
   -7.9829   18.0414  -33.0093 H   0  0  0  0  0  0  0  0  0  0  0  0
   -6.1929   18.1911  -33.0093 H   0  0  0  0  0  0  0  0  0  0  0  0
   -9.3798   19.9062  -32.5496 H   0  0  0  0  0  0  0  0  0  0  0  0
   -9.6072   22.3583  -32.0206 H   0  0  0  0  0  0  0  0  0  0  0  0
   -8.1132   24.6538  -31.1639 H   0  0  0  0  0  0  0  0  0  0  0  0
   -3.2170   25.3000  -30.3260 H   0  0  0  0  0  0  0  0  0  0  0  0
   -4.3968   20.6935  -29.9285 H   0  0  0  0  0  0  0  0  0  0  0  0
   -2.8199   20.7513  -30.7999 H   0  0  0  0  0  0  0  0  0  0  0  0
   -0.5364   20.9268  -27.1159 H   0  0  0  0  0  0  0  0  0  0  0  0
   -0.7905   19.8630  -28.5409 H   0  0  0  0  0  0  0  0  0  0  0  0
    0.5492   21.0597  -28.5409 H   0  0  0  0  0  0  0  0  0  0  0  0
    0.2703   23.1399  -29.1060 H   0  0  0  0  0  0  0  0  0  0  0  0
   -1.0278   23.2178  -30.3670 H   0  0  0  0  0  0  0  0  0  0  0  0
   -0.8482   23.8066  -25.2475 H   0  0  0  0  0  0  0  0  0  0  0  0
   -0.7053   22.5444  -26.5177 H   0  0  0  0  0  0  0  0  0  0  0  0
    0.4140   23.9494  -26.5177 H   0  0  0  0  0  0  0  0  0  0  0  0
   -2.5175   25.1062  -25.4333 H   0  0  0  0  0  0  0  0  0  0  0  0
   -2.5418   26.2014  -26.8658 H   0  0  0  0  0  0  0  0  0  0  0  0
   -4.1546   23.6360  -26.4438 H   0  0  0  0  0  0  0  0  0  0  0  0
   -4.7724   25.3218  -26.6063 H   0  0  0  0  0  0  0  0  0  0  0  0
   -4.0140   25.3640  -28.7090 H   0  0  0  0  0  0  0  0  0  0  0  0
   -5.1182   20.1061  -31.6436 H   0  0  0  0  0  0  0  0  0  0  0  0
  1  2  1  0
  2  3  2  0
  3  4  1  0
  4  5  2  0
  5  6  1  0
  6  7  2  0
  7  8  1  0
  8  9  1  0
  8 10  2  0
  7 11  1  0
 11 12  1  0
 12 13  2  0
 12 14  1  0
 14 15  1  0
 15 16  2  0
 15 17  1  0
 17 18  1  0
 17 19  1  0
 19 20  1  0
 20 21  2  0
 20 22  1  0
 22 23  1  0
 22 24  1  0
 24 25  1  0
 25 26  1  0
 11 27  1  0
 27 28  2  0
 28  2  1  0
 27  5  1  0
  1 29  1  0
  1 30  1  0
  1 31  1  0
  3 32  1  0
  4 33  1  0
  6 34  1  0
  9 35  1  0
 14 36  1  0
 14 37  1  0
 18 38  1  0
 18 39  1  0
 18 40  1  0
 19 41  1  0
 19 42  1  0
 23 43  1  0
 23 44  1  0
 23 45  1  0
 24 46  1  0
 24 47  1  0
 25 48  1  0
 25 49  1  0
 26 50  1  0
 28 51  1  0
M  CHG  1   9  -1
M  END
>  <UniqueID>  (52) 
52

>  <SMILES>  (52) 
Cc1ccc2cc(C([NH-])=O)n(C(=O)CC(=O)N(C)CC(=O)N(C)CCO)c2c1

>  <Energy>  (52) 
83.19945157364148

>  <Genealogy>  (52) 
Cc1ccc2cc(C([NH-])=O)n(C(=O)CC(=O)N(C)CC(=O)N(C)CCO)c2c1 (protonated)
Cc1ccc2cc(C([NH-])=O)n(C(=O)CC(=O)N(C)CC(=O)N(C)CCO)c2c1 (3D coordinates assigned)
Cc1ccc2cc(C([NH-])=O)n(C(=O)CC(=O)N(C)CC(=O)N(C)CCO)c2c1 (optimized conformer: 83.19945157364148 kcal/mol)

>  <smiles>  (52) 
Cc1ccc2cc(C(N)=O)n(C(=O)CC(=O)N(C)CC(=O)N(C)CCO)c2c1

>  <score_type>  (52) 
oracle

>  <origin>  (52) 
adg

>  <m_score__min__energy>  (52) 
-10.859999999999999

>  <m_primary>  (52) 
energy

$$$$
52:0
     RDKit          3D

 44 45  0  0  0  0  0  0  0  0999 V2000
   -5.8500   17.2190  -34.1620 C   0  0  0  0  0  0  0  0  0  0  0  0
   -6.4070   17.3840  -32.8230 N   0  0  0  0  0  0  0  0  0  0  0  0
   -6.9190   18.6330  -32.3240 C   0  0  0  0  0  0  0  0  0  0  0  0
   -8.2800   18.7790  -31.9380 C   0  0  0  0  0  0  0  0  0  0  0  0
   -8.7610   20.0090  -31.4570 C   0  0  0  0  0  0  0  0  0  0  0  0
   -7.8660   21.0700  -31.3680 C   0  0  0  0  0  0  0  0  0  0  0  0
   -8.0700   22.3710  -30.9630 C   0  0  0  0  0  0  0  0  0  0  0  0
   -6.8310   22.9970  -31.0960 C   0  0  0  0  0  0  0  0  0  0  0  0
   -6.5580   24.4090  -30.7360 C   0  0  0  0  0  0  0  0  0  0  0  0
   -5.5930   25.1790  -31.4560 N   0  0  0  0  0  0  0  0  0  0  0  0
   -7.1910   24.9520  -29.7930 O   0  0  0  0  0  0  0  0  0  0  0  0
   -5.9000   22.1130  -31.5510 N   0  0  0  0  0  0  0  0  0  0  0  0
   -4.5370   22.3920  -31.9060 C   0  0  0  0  0  0  0  0  0  0  0  0
   -4.2640   22.6900  -33.1010 O   0  0  0  0  0  0  0  0  0  0  0  0
   -3.4890   22.3730  -30.9130 N   0  0  0  0  0  0  0  0  0  0  0  0
   -3.6590   23.1000  -29.6470 C   0  0  0  0  0  0  0  0  0  0  0  0
   -3.0480   24.4640  -29.7360 C   0  0  0  0  0  0  0  0  0  0  0  0
   -3.4890   25.3010  -30.5680 O   0  0  0  0  0  0  0  0  0  0  0  0
   -1.9800   24.8050  -28.9170 O   0  0  0  0  0  0  0  0  0  0  0  0
   -2.1780   21.8940  -31.2700 C   0  0  0  0  0  0  0  0  0  0  0  0
   -1.1600   22.4310  -30.7550 O   0  0  0  0  0  0  0  0  0  0  0  0
   -2.0120   20.8050  -32.2010 N   0  0  0  0  0  0  0  0  0  0  0  0
   -3.0410   19.7690  -32.3150 C   0  0  0  0  0  0  0  0  0  0  0  0
   -0.7450   20.6750  -32.9260 C   0  0  0  0  0  0  0  0  0  0  0  0
   -6.5520   20.9440  -31.7240 C   0  0  0  0  0  0  0  0  0  0  0  0
   -6.0470   19.7380  -32.2190 C   0  0  0  0  0  0  0  0  0  0  0  0
   -4.7979   16.9073  -34.0856 H   0  0  0  0  0  0  0  0  0  0  0  0
   -6.4213   16.4515  -34.7048 H   0  0  0  0  0  0  0  0  0  0  0  0
   -5.9111   18.1738  -34.7048 H   0  0  0  0  0  0  0  0  0  0  0  0
   -6.4340   16.5430  -32.2030 H   0  0  0  0  0  0  0  0  0  0  0  0
   -8.9632   17.9205  -32.0167 H   0  0  0  0  0  0  0  0  0  0  0  0
   -9.8133   20.1289  -31.1600 H   0  0  0  0  0  0  0  0  0  0  0  0
   -9.0100   22.8202  -30.6099 H   0  0  0  0  0  0  0  0  0  0  0  0
   -5.0000   24.7540  -32.2020 H   0  0  0  0  0  0  0  0  0  0  0  0
   -5.4410   26.1820  -31.2140 H   0  0  0  0  0  0  0  0  0  0  0  0
   -4.7325   23.1984  -29.4281 H   0  0  0  0  0  0  0  0  0  0  0  0
   -3.1569   22.5383  -28.8455 H   0  0  0  0  0  0  0  0  0  0  0  0
   -3.3555   19.4524  -31.3096 H   0  0  0  0  0  0  0  0  0  0  0  0
   -3.9074   20.1712  -32.8605 H   0  0  0  0  0  0  0  0  0  0  0  0
   -2.6329   18.9053  -32.8605 H   0  0  0  0  0  0  0  0  0  0  0  0
    0.0824   20.5901  -32.2061 H   0  0  0  0  0  0  0  0  0  0  0  0
   -0.7749   19.7752  -33.5580 H   0  0  0  0  0  0  0  0  0  0  0  0
   -0.5915   21.5621  -33.5580 H   0  0  0  0  0  0  0  0  0  0  0  0
   -4.9926   19.6520  -32.5202 H   0  0  0  0  0  0  0  0  0  0  0  0
  1  2  1  0
  2  3  1  0
  3  4  2  0
  4  5  1  0
  5  6  2  0
  6  7  1  0
  7  8  2  0
  8  9  1  0
  9 10  1  0
  9 11  2  0
  8 12  1  0
 12 13  1  0
 13 14  2  0
 13 15  1  0
 15 16  1  0
 16 17  1  0
 17 18  2  0
 17 19  1  0
 15 20  1  0
 20 21  2  0
 20 22  1  0
 22 23  1  0
 22 24  1  0
 12 25  1  0
 25 26  2  0
 26  3  1  0
 25  6  1  0
  1 27  1  0
  1 28  1  0
  1 29  1  0
  2 30  1  0
  4 31  1  0
  5 32  1  0
  7 33  1  0
 10 34  1  0
 10 35  1  0
 16 36  1  0
 16 37  1  0
 23 38  1  0
 23 39  1  0
 23 40  1  0
 24 41  1  0
 24 42  1  0
 24 43  1  0
 26 44  1  0
M  CHG  1  19  -1
M  END
>  <UniqueID>  (53) 
53

>  <SMILES>  (53) 
CNc1ccc2cc(C(N)=O)n(C(=O)N(CC(=O)[O-])C(=O)N(C)C)c2c1

>  <Energy>  (53) 
82.22781420150014

>  <Genealogy>  (53) 
CNc1ccc2cc(C(N)=O)n(C(=O)N(CC(=O)[O-])C(=O)N(C)C)c2c1 (protonated)
CNc1ccc2cc(C(N)=O)n(C(=O)N(CC(=O)[O-])C(=O)N(C)C)c2c1 (3D coordinates assigned)
CNc1ccc2cc(C(N)=O)n(C(=O)N(CC(=O)[O-])C(=O)N(C)C)c2c1 (optimized conformer: 82.22781420150014 kcal/mol)

>  <smiles>  (53) 
CNc1ccc2cc(C(N)=O)n(C(=O)N(CC(=O)O)C(=O)N(C)C)c2c1

>  <score_type>  (53) 
oracle

>  <origin>  (53) 
adg

>  <m_score__min__energy>  (53) 
-10.65

>  <m_primary>  (53) 
energy

$$$$
53:0
     RDKit          3D

 45 46  0  0  0  0  0  0  0  0999 V2000
   -0.5040   22.7790  -29.7310 N   0  0  0  0  0  0  0  0  0  0  0  0
   -0.9270   21.9530  -30.8170 C   0  0  0  0  0  0  0  0  0  0  0  0
   -0.0600   21.3170  -31.4720 O   0  0  0  0  0  0  0  0  0  0  0  0
   -2.3580   21.8610  -31.1940 C   0  0  0  0  0  0  0  0  0  0  0  0
   -2.8390   21.1840  -32.3140 C   0  0  0  0  0  0  0  0  0  0  0  0
   -4.2100   21.2910  -32.2470 C   0  0  0  0  0  0  0  0  0  0  0  0
   -5.1890   20.8060  -33.1070 C   0  0  0  0  0  0  0  0  0  0  0  0
   -6.5310   21.0850  -32.8020 C   0  0  0  0  0  0  0  0  0  0  0  0
   -6.8710   21.8630  -31.6640 C   0  0  0  0  0  0  0  0  0  0  0  0
   -8.3200   22.1230  -31.3390 C   0  0  0  0  0  0  0  0  0  0  0  0
   -9.1200   21.0760  -31.7650 F   0  0  0  0  0  0  0  0  0  0  0  0
   -8.7250   23.2860  -31.9680 F   0  0  0  0  0  0  0  0  0  0  0  0
   -8.4880   22.2670  -29.9720 F   0  0  0  0  0  0  0  0  0  0  0  0
   -5.8450   22.3190  -30.8030 C   0  0  0  0  0  0  0  0  0  0  0  0
   -4.5190   22.0080  -31.1230 C   0  0  0  0  0  0  0  0  0  0  0  0
   -3.3950   22.3590  -30.4620 N   0  0  0  0  0  0  0  0  0  0  0  0
   -3.3190   23.1500  -29.2670 C   0  0  0  0  0  0  0  0  0  0  0  0
   -3.0870   22.5900  -28.1610 O   0  0  0  0  0  0  0  0  0  0  0  0
   -3.5170   24.6330  -29.3170 C   0  0  0  0  0  0  0  0  0  0  0  0
   -2.2210   25.2960  -29.3390 N   0  0  0  0  0  0  0  0  0  0  0  0
   -1.3080   25.2480  -28.2390 C   0  0  0  0  0  0  0  0  0  0  0  0
   -0.1200   24.8620  -28.4140 O   0  0  0  0  0  0  0  0  0  0  0  0
   -1.7570   25.7170  -26.8900 C   0  0  0  0  0  0  0  0  0  0  0  0
   -1.9120   24.6190  -26.0070 O   0  0  0  0  0  0  0  0  0  0  0  0
   -0.8740   24.5790  -25.0430 C   0  0  0  0  0  0  0  0  0  0  0  0
   -0.2080   23.1960  -25.0050 C   0  0  0  0  0  0  0  0  0  0  0  0
    0.4390   22.8110  -26.3410 C   0  0  0  0  0  0  0  0  0  0  0  0
   -0.5330   22.3960  -27.2640 O   0  0  0  0  0  0  0  0  0  0  0  0
    0.5120   22.8680  -29.5070 H   0  0  0  0  0  0  0  0  0  0  0  0
   -1.1900   23.2760  -29.1200 H   0  0  0  0  0  0  0  0  0  0  0  0
   -2.2479   20.6724  -33.0878 H   0  0  0  0  0  0  0  0  0  0  0  0
   -4.9204   20.2214  -33.9993 H   0  0  0  0  0  0  0  0  0  0  0  0
   -7.3283   20.6962  -33.4525 H   0  0  0  0  0  0  0  0  0  0  0  0
   -6.0843   22.9044  -29.9030 H   0  0  0  0  0  0  0  0  0  0  0  0
   -4.0793   24.8973  -30.2247 H   0  0  0  0  0  0  0  0  0  0  0  0
   -4.0795   24.9576  -28.4292 H   0  0  0  0  0  0  0  0  0  0  0  0
   -1.0065   26.4083  -26.4792 H   0  0  0  0  0  0  0  0  0  0  0  0
   -2.7259   26.2269  -26.9958 H   0  0  0  0  0  0  0  0  0  0  0  0
   -0.1172   25.3353  -25.2984 H   0  0  0  0  0  0  0  0  0  0  0  0
   -1.3080   24.7851  -24.0535 H   0  0  0  0  0  0  0  0  0  0  0  0
    0.5694   23.2015  -24.2267 H   0  0  0  0  0  0  0  0  0  0  0  0
   -0.9935   22.4559  -24.7920 H   0  0  0  0  0  0  0  0  0  0  0  0
    0.9734   23.6824  -26.7473 H   0  0  0  0  0  0  0  0  0  0  0  0
    1.1383   21.9798  -26.1676 H   0  0  0  0  0  0  0  0  0  0  0  0
   -1.1220   23.1780  -27.4330 H   0  0  0  0  0  0  0  0  0  0  0  0
  1  2  1  0
  2  3  2  0
  2  4  1  0
  4  5  2  0
  5  6  1  0
  6  7  2  0
  7  8  1  0
  8  9  2  0
  9 10  1  0
 10 11  1  0
 10 12  1  0
 10 13  1  0
  9 14  1  0
 14 15  2  0
 15 16  1  0
 16 17  1  0
 17 18  2  0
 17 19  1  0
 19 20  1  0
 20 21  1  0
 21 22  2  0
 21 23  1  0
 23 24  1  0
 24 25  1  0
 25 26  1  0
 26 27  1  0
 27 28  1  0
 16  4  1  0
 15  6  1  0
  1 29  1  0
  1 30  1  0
  5 31  1  0
  7 32  1  0
  8 33  1  0
 14 34  1  0
 19 35  1  0
 19 36  1  0
 23 37  1  0
 23 38  1  0
 25 39  1  0
 25 40  1  0
 26 41  1  0
 26 42  1  0
 27 43  1  0
 27 44  1  0
 28 45  1  0
M  CHG  1  20  -1
M  END
>  <UniqueID>  (54) 
54

>  <SMILES>  (54) 
NC(=O)c1cc2ccc(C(F)(F)F)cc2n1C(=O)C[N-]C(=O)COCCCO

>  <Energy>  (54) 
81.11860324252945

>  <Genealogy>  (54) 
NC(=O)c1cc2ccc(C(F)(F)F)cc2n1C(=O)C[N-]C(=O)COCCCO (protonated)
NC(=O)c1cc2ccc(C(F)(F)F)cc2n1C(=O)C[N-]C(=O)COCCCO (3D coordinates assigned)
NC(=O)c1cc2ccc(C(F)(F)F)cc2n1C(=O)C[N-]C(=O)COCCCO (optimized conformer: 81.11860324252945 kcal/mol)

>  <smiles>  (54) 
NC(=O)c1cc2ccc(C(F)(F)F)cc2n1C(=O)CNC(=O)COCCCO

>  <score_type>  (54) 
oracle

>  <origin>  (54) 
adg

>  <m_score__min__energy>  (54) 
-8.9800000000000004

>  <m_primary>  (54) 
energy

$$$$
54:0
     RDKit          3D

 57 58  0  0  0  0  0  0  0  0999 V2000
   -9.1380   18.1630  -31.6790 C   0  0  0  0  0  0  0  0  0  0  0  0
   -8.9450   19.2980  -32.5770 N   0  0  0  0  0  0  0  0  0  0  0  0
   -8.3020   20.5230  -32.1820 C   0  0  0  0  0  0  0  0  0  0  0  0
   -9.0830   21.6960  -32.0350 C   0  0  0  0  0  0  0  0  0  0  0  0
   -8.4950   22.9110  -31.6410 C   0  0  0  0  0  0  0  0  0  0  0  0
   -7.1220   22.9260  -31.4150 C   0  0  0  0  0  0  0  0  0  0  0  0
   -6.3050   23.9490  -30.9860 C   0  0  0  0  0  0  0  0  0  0  0  0
   -5.0300   23.3920  -30.9080 C   0  0  0  0  0  0  0  0  0  0  0  0
   -3.8290   24.1510  -30.5010 C   0  0  0  0  0  0  0  0  0  0  0  0
   -2.6110   23.4860  -30.1640 N   0  0  0  0  0  0  0  0  0  0  0  0
   -3.8670   25.4100  -30.4920 O   0  0  0  0  0  0  0  0  0  0  0  0
   -5.0580   22.0800  -31.2690 N   0  0  0  0  0  0  0  0  0  0  0  0
   -3.9840   21.1290  -31.1950 C   0  0  0  0  0  0  0  0  0  0  0  0
   -3.8310   20.4510  -30.1440 O   0  0  0  0  0  0  0  0  0  0  0  0
   -3.0840   20.9690  -32.3060 N   0  0  0  0  0  0  0  0  0  0  0  0
   -1.9960   21.8220  -32.3820 O   0  0  0  0  0  0  0  0  0  0  0  0
   -0.7970   21.5970  -31.6990 C   0  0  0  0  0  0  0  0  0  0  0  0
   -0.4840   22.3070  -30.7040 O   0  0  0  0  0  0  0  0  0  0  0  0
    0.0690   20.6030  -32.1640 O   0  0  0  0  0  0  0  0  0  0  0  0
    0.2050   19.3220  -31.5480 C   0  0  0  0  0  0  0  0  0  0  0  0
   -0.3940   19.3440  -30.1380 C   0  0  0  0  0  0  0  0  0  0  0  0
   -0.5030   18.2800  -32.4130 C   0  0  0  0  0  0  0  0  0  0  0  0
   -3.4060   20.0990  -33.4080 C   0  0  0  0  0  0  0  0  0  0  0  0
   -2.5520   19.8750  -34.3080 O   0  0  0  0  0  0  0  0  0  0  0  0
   -4.6720   19.4940  -33.4530 O   0  0  0  0  0  0  0  0  0  0  0  0
   -4.9420   18.0930  -33.6070 C   0  0  0  0  0  0  0  0  0  0  0  0
   -3.6290   17.2970  -33.7120 C   0  0  0  0  0  0  0  0  0  0  0  0
   -5.7300   17.9260  -34.9160 C   0  0  0  0  0  0  0  0  0  0  0  0
   -5.8040   17.5730  -32.4400 C   0  0  0  0  0  0  0  0  0  0  0  0
   -6.3470   21.8080  -31.5720 C   0  0  0  0  0  0  0  0  0  0  0  0
   -6.9100   20.5790  -31.9330 C   0  0  0  0  0  0  0  0  0  0  0  0
   -9.0795   18.5068  -30.6357 H   0  0  0  0  0  0  0  0  0  0  0  0
  -10.1254   17.7141  -31.8624 H   0  0  0  0  0  0  0  0  0  0  0  0
   -8.3545   17.4130  -31.8624 H   0  0  0  0  0  0  0  0  0  0  0  0
   -9.2840   19.1990  -33.5600 H   0  0  0  0  0  0  0  0  0  0  0  0
  -10.1645   21.6556  -32.2319 H   0  0  0  0  0  0  0  0  0  0  0  0
   -9.1009   23.8205  -31.5155 H   0  0  0  0  0  0  0  0  0  0  0  0
   -6.5967   24.9841  -30.7546 H   0  0  0  0  0  0  0  0  0  0  0  0
   -2.4810   22.4670  -30.3460 H   0  0  0  0  0  0  0  0  0  0  0  0
   -1.7910   24.0380  -29.8250 H   0  0  0  0  0  0  0  0  0  0  0  0
    1.2709   19.0643  -31.4614 H   0  0  0  0  0  0  0  0  0  0  0  0
    0.4164   19.3142  -29.3948 H   0  0  0  0  0  0  0  0  0  0  0  0
   -0.9813   20.2643  -30.0034 H   0  0  0  0  0  0  0  0  0  0  0  0
   -1.0472   18.4692  -30.0034 H   0  0  0  0  0  0  0  0  0  0  0  0
   -1.0028   17.5444  -31.7656 H   0  0  0  0  0  0  0  0  0  0  0  0
   -1.2508   18.7775  -33.0480 H   0  0  0  0  0  0  0  0  0  0  0  0
    0.2350   17.7680  -33.0480 H   0  0  0  0  0  0  0  0  0  0  0  0
   -3.2557   17.0707  -32.7023 H   0  0  0  0  0  0  0  0  0  0  0  0
   -3.8120   16.3577  -34.2544 H   0  0  0  0  0  0  0  0  0  0  0  0
   -2.8808   17.8937  -34.2544 H   0  0  0  0  0  0  0  0  0  0  0  0
   -6.7821   17.7030  -34.6848 H   0  0  0  0  0  0  0  0  0  0  0  0
   -5.6722   18.8564  -35.5000 H   0  0  0  0  0  0  0  0  0  0  0  0
   -5.2997   17.0991  -35.5000 H   0  0  0  0  0  0  0  0  0  0  0  0
   -5.3367   17.8549  -31.4849 H   0  0  0  0  0  0  0  0  0  0  0  0
   -6.8092   18.0155  -32.5011 H   0  0  0  0  0  0  0  0  0  0  0  0
   -5.8814   16.4774  -32.5011 H   0  0  0  0  0  0  0  0  0  0  0  0
   -6.2855   19.6778  -32.0212 H   0  0  0  0  0  0  0  0  0  0  0  0
  1  2  1  0
  2  3  1  0
  3  4  2  0
  4  5  1  0
  5  6  2  0
  6  7  1  0
  7  8  2  0
  8  9  1  0
  9 10  1  0
  9 11  2  0
  8 12  1  0
 12 13  1  0
 13 14  2  0
 13 15  1  0
 15 16  1  0
 16 17  1  0
 17 18  2  0
 17 19  1  0
 19 20  1  0
 20 21  1  0
 20 22  1  0
 15 23  1  0
 23 24  2  0
 23 25  1  0
 25 26  1  0
 26 27  1  0
 26 28  1  0
 26 29  1  0
 12 30  1  0
 30 31  2  0
 31  3  1  0
 30  6  1  0
  1 32  1  0
  1 33  1  0
  1 34  1  0
  2 35  1  0
  4 36  1  0
  5 37  1  0
  7 38  1  0
 10 39  1  0
 10 40  1  0
 20 41  1  0
 21 42  1  0
 21 43  1  0
 21 44  1  0
 22 45  1  0
 22 46  1  0
 22 47  1  0
 27 48  1  0
 27 49  1  0
 27 50  1  0
 28 51  1  0
 28 52  1  0
 28 53  1  0
 29 54  1  0
 29 55  1  0
 29 56  1  0
 31 57  1  0
M  END
>  <UniqueID>  (55) 
55

>  <SMILES>  (55) 
CNc1ccc2cc(C(N)=O)n(C(=O)N(OC(=O)OC(C)C)C(=O)OC(C)(C)C)c2c1

>  <Energy>  (55) 
88.48082629446452

>  <Genealogy>  (55) 
CNc1ccc2cc(C(N)=O)n(C(=O)N(OC(=O)OC(C)C)C(=O)OC(C)(C)C)c2c1 (3D coordinates assigned)
CNc1ccc2cc(C(N)=O)n(C(=O)N(OC(=O)OC(C)C)C(=O)OC(C)(C)C)c2c1 (optimized conformer: 88.48082629446452 kcal/mol)

>  <smiles>  (55) 
CNc1ccc2cc(C(N)=O)n(C(=O)N(OC(=O)OC(C)C)C(=O)OC(C)(C)C)c2c1

>  <score_type>  (55) 
oracle

>  <origin>  (55) 
adg

>  <m_score__min__energy>  (55) 
-9.7100000000000009

>  <m_primary>  (55) 
energy

$$$$
55:0
     RDKit          3D

 42 43  0  0  0  0  0  0  0  0999 V2000
   -3.8940   25.2230  -27.6300 H   0  0  0  0  0  0  0  0  0  0  0  0
   -4.0250   24.3490  -28.1860 N   0  0  0  0  0  0  0  0  0  0  0  0
   -3.0840   23.8300  -28.9130 C   0  0  0  0  0  0  0  0  0  0  0  0
   -1.7460   24.4550  -28.9710 C   0  0  0  0  0  0  0  0  0  0  0  0
   -0.7250   23.7500  -29.2000 O   0  0  0  0  0  0  0  0  0  0  0  0
   -1.6260   25.8380  -28.7950 O   0  0  0  0  0  0  0  0  0  0  0  0
   -0.7790   26.4370  -27.8160 C   0  0  0  0  0  0  0  0  0  0  0  0
    0.2598   26.1248  -27.9987 H   0  0  0  0  0  0  0  0  0  0  0  0
   -0.8701   27.5305  -27.8933 H   0  0  0  0  0  0  0  0  0  0  0  0
   -1.1900   26.0100  -26.4060 C   0  0  0  0  0  0  0  0  0  0  0  0
   -0.6067   25.1252  -26.1113 H   0  0  0  0  0  0  0  0  0  0  0  0
   -0.9956   26.8410  -25.7120 H   0  0  0  0  0  0  0  0  0  0  0  0
   -2.5570   25.6960  -26.3660 O   0  0  0  0  0  0  0  0  0  0  0  0
   -2.9430   25.9970  -27.2290 H   0  0  0  0  0  0  0  0  0  0  0  0
   -3.3400   22.6080  -29.6280 N   0  0  0  0  0  0  0  0  0  0  0  0
   -3.8900   22.6440  -30.9610 C   0  0  0  0  0  0  0  0  0  0  0  0
   -3.1330   22.5520  -31.9660 O   0  0  0  0  0  0  0  0  0  0  0  0
   -5.2990   22.8140  -31.1690 N   0  0  0  0  0  0  0  0  0  0  0  0
   -6.0490   23.9270  -30.9390 C   0  0  0  0  0  0  0  0  0  0  0  0
   -5.5350   25.2360  -30.4790 C   0  0  0  0  0  0  0  0  0  0  0  0
   -6.3090   26.0390  -29.8930 O   0  0  0  0  0  0  0  0  0  0  0  0
   -4.1780   25.6100  -30.6980 N   0  0  0  0  0  0  0  0  0  0  0  0
   -3.5040   25.6760  -29.9030 H   0  0  0  0  0  0  0  0  0  0  0  0
   -7.3900   23.6730  -31.2210 C   0  0  0  0  0  0  0  0  0  0  0  0
   -8.2331   24.3745  -31.1372 H   0  0  0  0  0  0  0  0  0  0  0  0
   -7.4360   22.3570  -31.6270 C   0  0  0  0  0  0  0  0  0  0  0  0
   -8.5160   21.5740  -32.0240 C   0  0  0  0  0  0  0  0  0  0  0  0
   -9.5338   21.9894  -32.0619 H   0  0  0  0  0  0  0  0  0  0  0  0
   -8.2660   20.2360  -32.3750 C   0  0  0  0  0  0  0  0  0  0  0  0
   -9.0963   19.5949  -32.7061 H   0  0  0  0  0  0  0  0  0  0  0  0
   -6.9540   19.7060  -32.3060 C   0  0  0  0  0  0  0  0  0  0  0  0
   -6.6950   18.2860  -32.7150 C   0  0  0  0  0  0  0  0  0  0  0  0
   -6.5810   17.6608  -31.8172 H   0  0  0  0  0  0  0  0  0  0  0  0
   -7.5406   17.9169  -33.3139 H   0  0  0  0  0  0  0  0  0  0  0  0
   -5.7735   18.2392  -33.3139 H   0  0  0  0  0  0  0  0  0  0  0  0
   -5.8800   20.5330  -31.9110 C   0  0  0  0  0  0  0  0  0  0  0  0
   -4.8526   20.1427  -31.8643 H   0  0  0  0  0  0  0  0  0  0  0  0
   -6.1600   21.8620  -31.5810 C   0  0  0  0  0  0  0  0  0  0  0  0
   -3.2050   21.3350  -28.9160 C   0  0  0  0  0  0  0  0  0  0  0  0
   -3.2244   21.5176  -27.8314 H   0  0  0  0  0  0  0  0  0  0  0  0
   -4.0378   20.6710  -29.1909 H   0  0  0  0  0  0  0  0  0  0  0  0
   -2.2515   20.8604  -29.1909 H   0  0  0  0  0  0  0  0  0  0  0  0
  1  2  1  0
  2  3  2  0
  3  4  1  0
  4  5  2  0
  4  6  1  0
  6  7  1  0
  7  8  1  0
  7  9  1  0
  7 10  1  0
 10 11  1  0
 10 12  1  0
 10 13  1  0
 13 14  1  0
  3 15  1  0
 15 16  1  0
 16 17  2  0
 16 18  1  0
 18 19  1  0
 19 20  1  0
 20 21  2  0
 20 22  1  0
 22 23  1  0
 19 24  2  0
 24 25  1  0
 24 26  1  0
 26 27  2  0
 27 28  1  0
 27 29  1  0
 29 30  1  0
 29 31  2  0
 31 32  1  0
 32 33  1  0
 32 34  1  0
 32 35  1  0
 31 36  1  0
 36 37  1  0
 36 38  2  0
 15 39  1  0
 39 40  1  0
 39 41  1  0
 39 42  1  0
 38 18  1  0
 38 26  1  0
M  CHG  1  22  -1
M  END
>  <UniqueID>  (56) 
56

>  <SMILES>  (56) 
[H]/N=C(\C(=O)OCCO)N(C)C(=O)n1c(C([NH-])=O)cc2ccc(C)cc21

>  <Energy>  (56) 
80.49959334769036

>  <Genealogy>  (56) 
Cc1ccc2cc(C([NH-])=O)n(C(=O)N(C)C(=N)C(=O)OCCO)c2c1 (protonated)
[H]/N=C(\C(=O)OCCO)N(C)C(=O)n1c(C([NH-])=O)cc2ccc(C)cc21 (cis-trans isomerization)
[H]/N=C(\C(=O)OCCO)N(C)C(=O)n1c(C([NH-])=O)cc2ccc(C)cc21 (3D coordinates assigned)
[H]/N=C(\C(=O)OCCO)N(C)C(=O)n1c(C([NH-])=O)cc2ccc(C)cc21 (optimized conformer: 80.49959334769036 kcal/mol)

>  <smiles>  (56) 
Cc1ccc2cc(C(N)=O)n(C(=O)N(C)C(=N)C(=O)OCCO)c2c1

>  <score_type>  (56) 
oracle

>  <origin>  (56) 
adg

>  <m_score__min__energy>  (56) 
-10.16

>  <m_primary>  (56) 
energy

$$$$
56:0
     RDKit          3D

 35 36  0  0  0  0  0  0  0  0999 V2000
   -0.8680   26.0340  -27.9990 C   0  0  0  0  0  0  0  0  0  0  0  0
   -1.8800   25.6360  -28.9680 N   0  0  0  0  0  0  0  0  0  0  0  0
   -2.7420   24.5140  -28.7660 C   0  0  0  0  0  0  0  0  0  0  0  0
   -3.5810   24.5120  -27.8250 O   0  0  0  0  0  0  0  0  0  0  0  0
   -2.6520   23.3390  -29.6880 C   0  0  0  0  0  0  0  0  0  0  0  0
   -3.2330   23.6530  -30.9510 O   0  0  0  0  0  0  0  0  0  0  0  0
   -3.9390   22.7240  -31.7250 C   0  0  0  0  0  0  0  0  0  0  0  0
   -3.3230   21.9350  -32.4920 O   0  0  0  0  0  0  0  0  0  0  0  0
   -5.3730   22.6700  -31.6400 N   0  0  0  0  0  0  0  0  0  0  0  0
   -6.1940   23.5500  -31.0010 C   0  0  0  0  0  0  0  0  0  0  0  0
   -5.7870   24.8400  -30.4090 C   0  0  0  0  0  0  0  0  0  0  0  0
   -5.6520   24.9960  -28.9960 N   0  0  0  0  0  0  0  0  0  0  0  0
   -5.4990   25.8060  -31.1670 O   0  0  0  0  0  0  0  0  0  0  0  0
   -7.5100   23.0950  -31.0140 C   0  0  0  0  0  0  0  0  0  0  0  0
   -7.4740   21.9020  -31.6980 C   0  0  0  0  0  0  0  0  0  0  0  0
   -8.5000   21.0060  -31.9860 C   0  0  0  0  0  0  0  0  0  0  0  0
   -8.1700   19.8240  -32.6690 C   0  0  0  0  0  0  0  0  0  0  0  0
   -6.8310   19.5620  -33.0510 C   0  0  0  0  0  0  0  0  0  0  0  0
   -6.4840   18.2710  -33.7310 C   0  0  0  0  0  0  0  0  0  0  0  0
   -5.8130   20.4850  -32.7260 C   0  0  0  0  0  0  0  0  0  0  0  0
   -6.1730   21.6660  -32.0640 C   0  0  0  0  0  0  0  0  0  0  0  0
   -1.2553   25.8817  -26.9808 H   0  0  0  0  0  0  0  0  0  0  0  0
    0.0365   25.4246  -28.1422 H   0  0  0  0  0  0  0  0  0  0  0  0
   -0.6209   27.0963  -28.1422 H   0  0  0  0  0  0  0  0  0  0  0  0
   -1.5948   23.0713  -29.8319 H   0  0  0  0  0  0  0  0  0  0  0  0
   -3.1987   22.4942  -29.2438 H   0  0  0  0  0  0  0  0  0  0  0  0
   -5.4040   25.9260  -28.5930 H   0  0  0  0  0  0  0  0  0  0  0  0
   -5.7210   24.1760  -28.3540 H   0  0  0  0  0  0  0  0  0  0  0  0
   -8.3901   23.5848  -30.5719 H   0  0  0  0  0  0  0  0  0  0  0  0
   -9.5375   21.2174  -31.6877 H   0  0  0  0  0  0  0  0  0  0  0  0
   -8.9581   19.0952  -32.9095 H   0  0  0  0  0  0  0  0  0  0  0  0
   -6.2771   17.5013  -32.9729 H   0  0  0  0  0  0  0  0  0  0  0  0
   -7.3276   17.9493  -34.3594 H   0  0  0  0  0  0  0  0  0  0  0  0
   -5.5928   18.4156  -34.3594 H   0  0  0  0  0  0  0  0  0  0  0  0
   -4.7637   20.2818  -32.9861 H   0  0  0  0  0  0  0  0  0  0  0  0
  1  2  1  0
  2  3  1  0
  3  4  2  0
  3  5  1  0
  5  6  1  0
  6  7  1  0
  7  8  2  0
  7  9  1  0
  9 10  1  0
 10 11  1  0
 11 12  1  0
 11 13  2  0
 10 14  2  0
 14 15  1  0
 15 16  2  0
 16 17  1  0
 17 18  2  0
 18 19  1  0
 18 20  1  0
 20 21  2  0
 21  9  1  0
 21 15  1  0
  1 22  1  0
  1 23  1  0
  1 24  1  0
  5 25  1  0
  5 26  1  0
 12 27  1  0
 12 28  1  0
 14 29  1  0
 16 30  1  0
 17 31  1  0
 19 32  1  0
 19 33  1  0
 19 34  1  0
 20 35  1  0
M  CHG  1   2  -1
M  END
>  <UniqueID>  (57) 
57

>  <SMILES>  (57) 
C[N-]C(=O)COC(=O)n1c(C(N)=O)cc2ccc(C)cc21

>  <Energy>  (57) 
68.41426709852692

>  <Genealogy>  (57) 
C[N-]C(=O)COC(=O)n1c(C(N)=O)cc2ccc(C)cc21 (protonated)
C[N-]C(=O)COC(=O)n1c(C(N)=O)cc2ccc(C)cc21 (3D coordinates assigned)
C[N-]C(=O)COC(=O)n1c(C(N)=O)cc2ccc(C)cc21 (optimized conformer: 68.41426709852692 kcal/mol)

>  <smiles>  (57) 
CNC(=O)COC(=O)n1c(C(N)=O)cc2ccc(C)cc21

>  <score_type>  (57) 
oracle

>  <origin>  (57) 
adg

>  <m_score__min__energy>  (57) 
-10.449999999999999

>  <m_primary>  (57) 
energy

$$$$
57:0
     RDKit          3D

 35 36  0  0  0  0  0  0  0  0999 V2000
   -5.8000   23.9230  -31.6990 N   0  0  0  0  0  0  0  0  0  0  0  0
   -6.9520   23.1120  -31.9260 C   0  0  0  0  0  0  0  0  0  0  0  0
   -8.0920   23.6480  -31.9490 O   0  0  0  0  0  0  0  0  0  0  0  0
   -6.8230   21.6690  -32.2040 C   0  0  0  0  0  0  0  0  0  0  0  0
   -7.9090   20.7990  -32.2180 C   0  0  0  0  0  0  0  0  0  0  0  0
   -7.3890   19.5760  -32.5690 C   0  0  0  0  0  0  0  0  0  0  0  0
   -8.0260   18.3480  -32.7160 C   0  0  0  0  0  0  0  0  0  0  0  0
   -7.2390   17.2330  -33.0450 C   0  0  0  0  0  0  0  0  0  0  0  0
   -5.8390   17.3630  -33.2120 C   0  0  0  0  0  0  0  0  0  0  0  0
   -5.0130   16.1520  -33.5440 C   0  0  0  0  0  0  0  0  0  0  0  0
   -4.3790   16.3370  -34.7590 F   0  0  0  0  0  0  0  0  0  0  0  0
   -5.8290   15.0390  -33.6190 F   0  0  0  0  0  0  0  0  0  0  0  0
   -5.2250   18.6250  -33.0500 C   0  0  0  0  0  0  0  0  0  0  0  0
   -6.0360   19.7260  -32.7430 C   0  0  0  0  0  0  0  0  0  0  0  0
   -5.6700   21.0120  -32.5200 N   0  0  0  0  0  0  0  0  0  0  0  0
   -4.3270   21.5330  -32.4870 C   0  0  0  0  0  0  0  0  0  0  0  0
   -3.9200   22.2930  -33.4060 O   0  0  0  0  0  0  0  0  0  0  0  0
   -3.4390   21.1570  -31.4290 N   0  0  0  0  0  0  0  0  0  0  0  0
   -3.3070   21.8750  -30.1640 C   0  0  0  0  0  0  0  0  0  0  0  0
   -2.2700   22.9990  -30.2640 C   0  0  0  0  0  0  0  0  0  0  0  0
   -2.8920   24.6000  -29.6480 P   0  0  0  0  0  0  0  0  0  0  0  0
   -3.7100   24.3900  -28.3940 O   0  0  0  0  0  0  0  0  0  0  0  0
   -1.6110   25.6510  -29.3140 O   0  0  0  0  0  0  0  0  0  0  0  0
   -3.8720   25.2960  -30.8360 O   0  0  0  0  0  0  0  0  0  0  0  0
   -5.9070   24.9350  -31.4660 H   0  0  0  0  0  0  0  0  0  0  0  0
   -4.8410   23.5390  -31.8360 H   0  0  0  0  0  0  0  0  0  0  0  0
   -8.9593   21.0388  -31.9957 H   0  0  0  0  0  0  0  0  0  0  0  0
   -9.1133   18.2536  -32.5786 H   0  0  0  0  0  0  0  0  0  0  0  0
   -7.7143   16.2494  -33.1742 H   0  0  0  0  0  0  0  0  0  0  0  0
   -4.2593   16.0036  -32.7566 H   0  0  0  0  0  0  0  0  0  0  0  0
   -4.1369   18.7407  -33.1621 H   0  0  0  0  0  0  0  0  0  0  0  0
   -4.2812   22.3098  -29.8960 H   0  0  0  0  0  0  0  0  0  0  0  0
   -2.9724   21.1629  -29.3953 H   0  0  0  0  0  0  0  0  0  0  0  0
   -1.3871   22.7150  -29.6725 H   0  0  0  0  0  0  0  0  0  0  0  0
   -2.0267   23.1283  -31.3289 H   0  0  0  0  0  0  0  0  0  0  0  0
  1  2  1  0
  2  3  2  0
  2  4  1  0
  4  5  2  0
  5  6  1  0
  6  7  2  0
  7  8  1  0
  8  9  2  0
  9 10  1  0
 10 11  1  0
 10 12  1  0
  9 13  1  0
 13 14  2  0
 14 15  1  0
 15 16  1  0
 16 17  2  0
 16 18  1  0
 18 19  1  0
 19 20  1  0
 20 21  1  0
 21 22  2  0
 21 23  1  0
 21 24  1  0
 15  4  1  0
 14  6  1  0
  1 25  1  0
  1 26  1  0
  5 27  1  0
  7 28  1  0
  8 29  1  0
 10 30  1  0
 13 31  1  0
 19 32  1  0
 19 33  1  0
 20 34  1  0
 20 35  1  0
M  CHG  3  18  -1  23  -1  24  -1
M  END
>  <UniqueID>  (58) 
58

>  <SMILES>  (58) 
NC(=O)c1cc2ccc(C(F)F)cc2n1C(=O)[N-]CCP(=O)([O-])[O-]

>  <Energy>  (58) 
69.063865688152

>  <Genealogy>  (58) 
NC(=O)c1cc2ccc(C(F)F)cc2n1C(=O)[N-]CCP(=O)([O-])[O-] (protonated)
NC(=O)c1cc2ccc(C(F)F)cc2n1C(=O)[N-]CCP(=O)([O-])[O-] (3D coordinates assigned)
NC(=O)c1cc2ccc(C(F)F)cc2n1C(=O)[N-]CCP(=O)([O-])[O-] (optimized conformer: 69.063865688152 kcal/mol)

>  <smiles>  (58) 
NC(=O)c1cc2ccc(C(F)F)cc2n1C(=O)NCCP(=O)(O)O

>  <score_type>  (58) 
oracle

>  <origin>  (58) 
adg

>  <m_score__min__energy>  (58) 
-12.84

>  <m_primary>  (58) 
energy

$$$$
58:0
     RDKit          3D

 42 43  0  0  0  0  0  0  0  0999 V2000
   -5.4900   17.9170  -32.0050 C   0  0  0  0  0  0  0  0  0  0  0  0
   -5.8420   19.3750  -31.9830 C   0  0  0  0  0  0  0  0  0  0  0  0
   -6.9330   19.8540  -32.7510 C   0  0  0  0  0  0  0  0  0  0  0  0
   -7.2550   21.2220  -32.7610 C   0  0  0  0  0  0  0  0  0  0  0  0
   -6.4630   22.0840  -32.0060 C   0  0  0  0  0  0  0  0  0  0  0  0
   -6.5580   23.4450  -31.8240 C   0  0  0  0  0  0  0  0  0  0  0  0
   -5.5050   23.7750  -30.9710 C   0  0  0  0  0  0  0  0  0  0  0  0
   -5.1710   25.1580  -30.5850 C   0  0  0  0  0  0  0  0  0  0  0  0
   -3.8610   25.6670  -30.8230 N   0  0  0  0  0  0  0  0  0  0  0  0
   -6.0220   25.8860  -30.0110 O   0  0  0  0  0  0  0  0  0  0  0  0
   -4.7960   22.6630  -30.6330 N   0  0  0  0  0  0  0  0  0  0  0  0
   -3.7170   22.5520  -29.6890 C   0  0  0  0  0  0  0  0  0  0  0  0
   -3.9680   22.1630  -28.5140 O   0  0  0  0  0  0  0  0  0  0  0  0
   -2.3860   23.0090  -30.0450 N   0  0  1  0  0  0  0  0  0  0  0  0
   -1.5710   23.2550  -28.8360 C   0  0  0  0  0  0  0  0  0  0  0  0
   -0.9750   24.6350  -28.8300 C   0  0  0  0  0  0  0  0  0  0  0  0
   -1.6000   25.5990  -29.3450 O   0  0  0  0  0  0  0  0  0  0  0  0
    0.2800   24.8490  -28.2740 O   0  0  0  0  0  0  0  0  0  0  0  0
   -1.7140   22.0420  -30.8950 C   0  0  0  0  0  0  0  0  0  0  0  0
   -1.6050   22.2720  -32.1340 O   0  0  0  0  0  0  0  0  0  0  0  0
   -1.2210   20.7850  -30.3730 N   0  0  0  0  0  0  0  0  0  0  0  0
   -0.3990   19.9340  -31.2400 C   0  0  0  0  0  0  0  0  0  0  0  0
   -1.5560   20.3310  -29.0180 C   0  0  0  0  0  0  0  0  0  0  0  0
   -5.3900   21.6370  -31.2800 C   0  0  0  0  0  0  0  0  0  0  0  0
   -5.0500   20.2810  -31.2460 C   0  0  0  0  0  0  0  0  0  0  0  0
   -5.4004   17.5458  -30.9734 H   0  0  0  0  0  0  0  0  0  0  0  0
   -6.2788   17.3572  -32.5289 H   0  0  0  0  0  0  0  0  0  0  0  0
   -4.5327   17.7788  -32.5289 H   0  0  0  0  0  0  0  0  0  0  0  0
   -7.5330   19.1485  -33.3445 H   0  0  0  0  0  0  0  0  0  0  0  0
   -8.1058   21.6002  -33.3467 H   0  0  0  0  0  0  0  0  0  0  0  0
   -7.3044   24.1264  -32.2582 H   0  0  0  0  0  0  0  0  0  0  0  0
   -3.0350   25.0290  -30.8560 H   0  0  0  0  0  0  0  0  0  0  0  0
   -2.4920   23.9110  -30.5590 H   0  0  0  0  0  0  0  0  0  0  0  0
   -2.2096   23.1401  -27.9478 H   0  0  0  0  0  0  0  0  0  0  0  0
   -0.7453   22.5282  -28.8291 H   0  0  0  0  0  0  0  0  0  0  0  0
    0.2324   19.2804  -30.6202 H   0  0  0  0  0  0  0  0  0  0  0  0
   -1.0525   19.3177  -31.8750 H   0  0  0  0  0  0  0  0  0  0  0  0
    0.2395   20.5657  -31.8750 H   0  0  0  0  0  0  0  0  0  0  0  0
   -1.0712   20.9880  -28.2808 H   0  0  0  0  0  0  0  0  0  0  0  0
   -2.6466   20.3657  -28.8788 H   0  0  0  0  0  0  0  0  0  0  0  0
   -1.2012   19.2991  -28.8788 H   0  0  0  0  0  0  0  0  0  0  0  0
   -4.1878   19.9298  -30.6601 H   0  0  0  0  0  0  0  0  0  0  0  0
  1  2  1  0
  2  3  2  0
  3  4  1  0
  4  5  2  0
  5  6  1  0
  6  7  2  0
  7  8  1  0
  8  9  1  0
  8 10  2  0
  7 11  1  0
 11 12  1  0
 12 13  2  0
 12 14  1  0
 14 15  1  0
 15 16  1  0
 16 17  2  0
 16 18  1  0
 14 19  1  0
 19 20  2  0
 19 21  1  0
 21 22  1  0
 21 23  1  0
 11 24  1  0
 24 25  2  0
 25  2  1  0
 24  5  1  0
  1 26  1  0
  1 27  1  0
  1 28  1  0
  3 29  1  0
  4 30  1  0
  6 31  1  0
  9 32  1  0
 14 33  1  6
 15 34  1  0
 15 35  1  0
 22 36  1  0
 22 37  1  0
 22 38  1  0
 23 39  1  0
 23 40  1  0
 23 41  1  0
 25 42  1  0
M  CHG  3   9  -1  14   1  18  -1
M  END
>  <UniqueID>  (59) 
59

>  <SMILES>  (59) 
Cc1ccc2cc(C([NH-])=O)n(C(=O)[NH+](CC(=O)[O-])C(=O)N(C)C)c2c1

>  <Energy>  (59) 
82.11501613471715

>  <Genealogy>  (59) 
Cc1ccc2cc(C([NH-])=O)n(C(=O)[NH+](CC(=O)[O-])C(=O)N(C)C)c2c1 (protonated)
Cc1ccc2cc(C([NH-])=O)n(C(=O)[NH+](CC(=O)[O-])C(=O)N(C)C)c2c1 (3D coordinates assigned)
Cc1ccc2cc(C([NH-])=O)n(C(=O)[NH+](CC(=O)[O-])C(=O)N(C)C)c2c1 (optimized conformer: 82.11501613471715 kcal/mol)

>  <smiles>  (59) 
Cc1ccc2cc(C(N)=O)n(C(=O)N(CC(=O)O)C(=O)N(C)C)c2c1

>  <score_type>  (59) 
oracle

>  <origin>  (59) 
adg

>  <m_score__min__energy>  (59) 
-10.949999999999999

>  <m_primary>  (59) 
energy

$$$$
59:0
     RDKit          3D

 38 39  0  0  0  0  0  0  0  0999 V2000
   -0.6940   22.3040  -30.0990 C   0  0  0  0  0  0  0  0  0  0  0  0
   -1.6010   23.2640  -29.4410 N   0  0  2  0  0  0  0  0  0  0  0  0
   -1.0220   23.8370  -28.2060 C   0  0  0  0  0  0  0  0  0  0  0  0
   -0.6340   25.2860  -28.3440 C   0  0  0  0  0  0  0  0  0  0  0  0
    0.2260   25.7900  -27.5730 O   0  0  0  0  0  0  0  0  0  0  0  0
   -1.2350   26.0790  -29.3140 O   0  0  0  0  0  0  0  0  0  0  0  0
   -2.9070   22.6970  -29.1920 C   0  0  0  0  0  0  0  0  0  0  0  0
   -3.5770   23.0510  -28.1810 O   0  0  0  0  0  0  0  0  0  0  0  0
   -3.4470   21.8070  -30.1300 O   0  0  0  0  0  0  0  0  0  0  0  0
   -4.0930   22.1790  -31.3170 C   0  0  0  0  0  0  0  0  0  0  0  0
   -3.5200   22.0510  -32.4330 O   0  0  0  0  0  0  0  0  0  0  0  0
   -5.4360   22.6860  -31.2570 N   0  0  0  0  0  0  0  0  0  0  0  0
   -5.8410   23.9770  -31.0890 C   0  0  0  0  0  0  0  0  0  0  0  0
   -4.9690   25.1270  -30.7730 C   0  0  0  0  0  0  0  0  0  0  0  0
   -3.5500   25.0100  -30.8250 N   0  0  0  0  0  0  0  0  0  0  0  0
   -5.4840   26.2170  -30.4040 O   0  0  0  0  0  0  0  0  0  0  0  0
   -7.2280   24.0670  -31.1770 C   0  0  0  0  0  0  0  0  0  0  0  0
   -7.6660   22.7810  -31.3950 C   0  0  0  0  0  0  0  0  0  0  0  0
   -8.9550   22.2930  -31.5820 C   0  0  0  0  0  0  0  0  0  0  0  0
   -9.1110   20.9180  -31.8270 C   0  0  0  0  0  0  0  0  0  0  0  0
   -7.9850   20.0570  -31.8720 C   0  0  0  0  0  0  0  0  0  0  0  0
   -8.1590   18.5950  -32.1970 C   0  0  0  0  0  0  0  0  0  0  0  0
   -7.5870   18.3320  -33.4280 F   0  0  0  0  0  0  0  0  0  0  0  0
   -9.5000   18.2610  -32.2420 F   0  0  0  0  0  0  0  0  0  0  0  0
   -7.5470   17.8050  -31.2390 F   0  0  0  0  0  0  0  0  0  0  0  0
   -6.6880   20.5970  -31.7030 C   0  0  0  0  0  0  0  0  0  0  0  0
   -6.5650   21.9660  -31.4390 C   0  0  0  0  0  0  0  0  0  0  0  0
   -0.1510   21.7293  -29.3342 H   0  0  0  0  0  0  0  0  0  0  0  0
   -1.2803   21.6167  -30.7266 H   0  0  0  0  0  0  0  0  0  0  0  0
    0.0254   22.8503  -30.7266 H   0  0  0  0  0  0  0  0  0  0  0  0
   -1.7350   24.0560  -30.1130 H   0  0  0  0  0  0  0  0  0  0  0  0
   -1.7651   23.7502  -27.3996 H   0  0  0  0  0  0  0  0  0  0  0  0
   -0.1028   23.2740  -27.9865 H   0  0  0  0  0  0  0  0  0  0  0  0
   -2.9570   25.2980  -30.0150 H   0  0  0  0  0  0  0  0  0  0  0  0
   -7.8434   24.9746  -31.0905 H   0  0  0  0  0  0  0  0  0  0  0  0
   -9.8262   22.9632  -31.5394 H   0  0  0  0  0  0  0  0  0  0  0  0
  -10.1180   20.5048  -31.9857 H   0  0  0  0  0  0  0  0  0  0  0  0
   -5.7973   19.9559  -31.7774 H   0  0  0  0  0  0  0  0  0  0  0  0
  1  2  1  0
  2  3  1  0
  3  4  1  0
  4  5  2  0
  4  6  1  0
  2  7  1  0
  7  8  2  0
  7  9  1  0
  9 10  1  0
 10 11  2  0
 10 12  1  0
 12 13  1  0
 13 14  1  0
 14 15  1  0
 14 16  2  0
 13 17  2  0
 17 18  1  0
 18 19  2  0
 19 20  1  0
 20 21  2  0
 21 22  1  0
 22 23  1  0
 22 24  1  0
 22 25  1  0
 21 26  1  0
 26 27  2  0
 27 12  1  0
 27 18  1  0
  1 28  1  0
  1 29  1  0
  1 30  1  0
  2 31  1  6
  3 32  1  0
  3 33  1  0
 15 34  1  0
 17 35  1  0
 19 36  1  0
 20 37  1  0
 26 38  1  0
M  CHG  3   2   1   6  -1  15  -1
M  END
>  <UniqueID>  (60) 
60

>  <SMILES>  (60) 
C[N@H+](CC(=O)[O-])C(=O)OC(=O)n1c(C([NH-])=O)cc2ccc(C(F)(F)F)cc21

>  <Energy>  (60) 
82.12966176209466

>  <Genealogy>  (60) 
C[NH+](CC(=O)[O-])C(=O)OC(=O)n1c(C([NH-])=O)cc2ccc(C(F)(F)F)cc21 (protonated)
C[N@H+](CC(=O)[O-])C(=O)OC(=O)n1c(C([NH-])=O)cc2ccc(C(F)(F)F)cc21 (chirality)
C[N@H+](CC(=O)[O-])C(=O)OC(=O)n1c(C([NH-])=O)cc2ccc(C(F)(F)F)cc21 (3D coordinates assigned)
C[N@H+](CC(=O)[O-])C(=O)OC(=O)n1c(C([NH-])=O)cc2ccc(C(F)(F)F)cc21 (optimized conformer: 82.12966176209466 kcal/mol)

>  <smiles>  (60) 
CN(CC(=O)O)C(=O)OC(=O)n1c(C(N)=O)cc2ccc(C(F)(F)F)cc21

>  <score_type>  (60) 
oracle

>  <origin>  (60) 
adg

>  <m_score__min__energy>  (60) 
-11.119999999999999

>  <m_primary>  (60) 
energy

$$$$
60:0
     RDKit          3D

 45 48  0  0  0  0  0  0  0  0999 V2000
    2.7750   24.9030  -36.2400 C   0  0  0  0  0  0  0  0  0  0  0  0
    2.1500   23.7660  -36.8240 O   0  0  0  0  0  0  0  0  0  0  0  0
    1.2630   22.9480  -36.1190 C   0  0  0  0  0  0  0  0  0  0  0  0
    0.0800   23.3270  -35.9050 O   0  0  0  0  0  0  0  0  0  0  0  0
    1.7120   21.6790  -35.6150 N   0  0  0  0  0  0  0  0  0  0  0  0
    2.7990   20.9620  -36.0180 C   0  0  0  0  0  0  0  0  0  0  0  0
    3.6510   21.2600  -37.1870 C   0  0  0  0  0  0  0  0  0  0  0  0
    4.4000   22.4700  -37.2590 N   0  0  0  0  0  0  0  0  0  0  0  0
    3.6800   20.4580  -38.1590 O   0  0  0  0  0  0  0  0  0  0  0  0
    2.9640   19.8340  -35.2170 C   0  0  0  0  0  0  0  0  0  0  0  0
    1.9320   19.8790  -34.3080 C   0  0  0  0  0  0  0  0  0  0  0  0
    1.6180   19.0100  -33.2700 C   0  0  0  0  0  0  0  0  0  0  0  0
    0.5080   19.3170  -32.4660 C   0  0  0  0  0  0  0  0  0  0  0  0
   -0.2680   20.4850  -32.7020 C   0  0  0  0  0  0  0  0  0  0  0  0
   -1.4030   20.7960  -31.8600 N   0  0  0  0  0  0  0  0  0  0  0  0
   -1.3020   21.5030  -30.5900 C   0  0  0  0  0  0  0  0  0  0  0  0
   -2.7020   21.4540  -29.9640 C   0  0  1  0  0  0  0  0  0  0  0  0
   -3.1830   22.8040  -29.4260 C   0  0  0  0  0  0  0  0  0  0  0  0
   -4.0450   23.3430  -30.4610 N   0  0  0  0  0  0  0  0  0  0  0  0
   -4.6040   24.6620  -30.4060 C   0  0  0  0  0  0  0  0  0  0  0  0
   -3.8690   25.6730  -30.5660 O   0  0  0  0  0  0  0  0  0  0  0  0
   -5.9640   24.8370  -30.1780 O   0  0  0  0  0  0  0  0  0  0  0  0
   -4.2860   22.4150  -31.5510 C   0  0  0  0  0  0  0  0  0  0  0  0
   -3.6460   21.0910  -31.1090 C   0  0  1  0  0  0  0  0  0  0  0  0
   -2.7760   20.4370  -32.1850 C   0  0  0  0  0  0  0  0  0  0  0  0
    0.0920   21.3420  -33.7720 C   0  0  0  0  0  0  0  0  0  0  0  0
    1.1910   21.0010  -34.5680 C   0  0  0  0  0  0  0  0  0  0  0  0
    2.7310   24.8230  -35.1438 H   0  0  0  0  0  0  0  0  0  0  0  0
    3.8257   24.9499  -36.5624 H   0  0  0  0  0  0  0  0  0  0  0  0
    2.2515   25.8152  -36.5624 H   0  0  0  0  0  0  0  0  0  0  0  0
    4.0320   23.3000  -37.7740 H   0  0  0  0  0  0  0  0  0  0  0  0
    3.7516   19.0701  -35.2947 H   0  0  0  0  0  0  0  0  0  0  0  0
    2.2206   18.1088  -33.0836 H   0  0  0  0  0  0  0  0  0  0  0  0
    0.2346   18.6432  -31.6406 H   0  0  0  0  0  0  0  0  0  0  0  0
   -0.5725   21.0063  -29.9334 H   0  0  0  0  0  0  0  0  0  0  0  0
   -0.9613   22.5391  -30.7325 H   0  0  0  0  0  0  0  0  0  0  0  0
   -2.6814   20.7471  -29.1214 H   0  0  0  0  0  0  0  0  0  0  0  0
   -3.7439   22.6679  -28.4896 H   0  0  0  0  0  0  0  0  0  0  0  0
   -2.3437   23.4778  -29.1991 H   0  0  0  0  0  0  0  0  0  0  0  0
   -5.3661   22.2848  -31.7138 H   0  0  0  0  0  0  0  0  0  0  0  0
   -3.8614   22.7781  -32.4986 H   0  0  0  0  0  0  0  0  0  0  0  0
   -4.4521   20.3866  -30.8561 H   0  0  0  0  0  0  0  0  0  0  0  0
   -2.9006   19.3442  -32.1659 H   0  0  0  0  0  0  0  0  0  0  0  0
   -3.0551   20.7782  -33.1928 H   0  0  0  0  0  0  0  0  0  0  0  0
   -0.4822   22.2585  -33.9730 H   0  0  0  0  0  0  0  0  0  0  0  0
  1  2  1  0
  2  3  1  0
  3  4  2  0
  3  5  1  0
  5  6  1  0
  6  7  1  0
  7  8  1  0
  7  9  2  0
  6 10  2  0
 10 11  1  0
 11 12  2  0
 12 13  1  0
 13 14  2  0
 14 15  1  0
 15 16  1  0
 16 17  1  0
 17 18  1  0
 18 19  1  0
 19 20  1  0
 20 21  2  0
 20 22  1  0
 19 23  1  0
 23 24  1  0
 24 25  1  0
 14 26  1  0
 26 27  2  0
 27  5  1  0
 27 11  1  0
 25 15  1  0
 24 17  1  0
  1 28  1  0
  1 29  1  0
  1 30  1  0
  8 31  1  0
 10 32  1  0
 12 33  1  0
 13 34  1  0
 16 35  1  0
 16 36  1  0
 17 37  1  1
 18 38  1  0
 18 39  1  0
 23 40  1  0
 23 41  1  0
 24 42  1  1
 25 43  1  0
 25 44  1  0
 26 45  1  0
M  CHG  2   8  -1  22  -1
M  END
>  <UniqueID>  (61) 
61

>  <SMILES>  (61) 
COC(=O)n1c(C([NH-])=O)cc2ccc(N3C[C@H]4CN(C(=O)[O-])C[C@H]4C3)cc21

>  <Energy>  (61) 
88.78942548320494

>  <Genealogy>  (61) 
COC(=O)n1c(C([NH-])=O)cc2ccc(N3C[C@H]4CN(C(=O)[O-])C[C@H]4C3)cc21 (protonated)
COC(=O)n1c(C([NH-])=O)cc2ccc(N3C[C@H]4CN(C(=O)[O-])C[C@H]4C3)cc21 (3D coordinates assigned)
COC(=O)n1c(C([NH-])=O)cc2ccc(N3C[C@H]4CN(C(=O)[O-])C[C@H]4C3)cc21 (nonaromatic ring conformer: 88.78942548320494 kcal/mol)

>  <smiles>  (61) 
COC(=O)n1c(C(N)=O)cc2ccc(N3C[C@H]4CN(C(=O)O)C[C@H]4C3)cc21

>  <score_type>  (61) 
oracle

>  <origin>  (61) 
adg

>  <m_score__min__energy>  (61) 
-10.380000000000001

>  <m_primary>  (61) 
energy

$$$$
61:0
     RDKit          3D

 36 38  0  0  0  0  0  0  0  0999 V2000
   -6.6320   17.6420  -32.0790 C   0  0  0  0  0  0  0  0  0  0  0  0
   -7.3010   18.6980  -32.8330 N   0  0  0  0  0  0  0  0  0  0  0  0
   -7.3720   20.0660  -32.3940 C   0  0  0  0  0  0  0  0  0  0  0  0
   -8.6040   20.7730  -32.3540 C   0  0  0  0  0  0  0  0  0  0  0  0
   -8.6550   22.1050  -31.9110 C   0  0  0  0  0  0  0  0  0  0  0  0
   -7.4640   22.7100  -31.5230 C   0  0  0  0  0  0  0  0  0  0  0  0
   -7.2330   23.9740  -31.0310 C   0  0  0  0  0  0  0  0  0  0  0  0
   -5.8610   24.0340  -30.7990 C   0  0  0  0  0  0  0  0  0  0  0  0
   -5.1660   25.2570  -30.3460 C   0  0  0  0  0  0  0  0  0  0  0  0
   -3.8770   25.5940  -30.8490 N   0  0  0  0  0  0  0  0  0  0  0  0
   -5.7410   26.0390  -29.5440 O   0  0  0  0  0  0  0  0  0  0  0  0
   -5.2680   22.8520  -31.1280 N   0  0  0  0  0  0  0  0  0  0  0  0
   -3.8930   22.4800  -30.9430 C   0  0  0  0  0  0  0  0  0  0  0  0
   -2.9850   23.1000  -31.5620 O   0  0  0  0  0  0  0  0  0  0  0  0
   -3.5700   21.4090  -30.1010 O   0  0  0  0  0  0  0  0  0  0  0  0
   -2.9000   21.5670  -28.8520 C   0  0  0  0  0  0  0  0  0  0  0  0
   -2.0270   22.7820  -28.8800 C   0  0  0  0  0  0  0  0  0  0  0  0
   -2.4630   24.0200  -28.8800 O   0  0  0  0  0  0  0  0  0  0  0  0
   -1.3920   24.7810  -28.9320 C   0  0  0  0  0  0  0  0  0  0  0  0
   -1.4310   26.0390  -28.9470 O   0  0  0  0  0  0  0  0  0  0  0  0
   -0.2760   24.0860  -28.9660 O   0  0  0  0  0  0  0  0  0  0  0  0
   -0.6510   22.8310  -28.9360 C   0  0  0  0  0  0  0  0  0  0  0  0
    0.2160   21.7470  -28.9570 O   0  0  0  0  0  0  0  0  0  0  0  0
   -6.2630   22.0520  -31.5720 C   0  0  0  0  0  0  0  0  0  0  0  0
   -6.1850   20.7190  -31.9910 C   0  0  0  0  0  0  0  0  0  0  0  0
   -6.7506   17.8293  -31.0016 H   0  0  0  0  0  0  0  0  0  0  0  0
   -7.0793   16.6699  -32.3336 H   0  0  0  0  0  0  0  0  0  0  0  0
   -5.5619   17.6312  -32.3336 H   0  0  0  0  0  0  0  0  0  0  0  0
   -7.7500   18.4340  -33.7390 H   0  0  0  0  0  0  0  0  0  0  0  0
   -9.5291   20.2711  -32.6739 H   0  0  0  0  0  0  0  0  0  0  0  0
   -9.6079   22.6531  -31.8721 H   0  0  0  0  0  0  0  0  0  0  0  0
   -7.9742   24.7681  -30.8578 H   0  0  0  0  0  0  0  0  0  0  0  0
   -3.0100   25.2950  -30.3480 H   0  0  0  0  0  0  0  0  0  0  0  0
   -3.6463   21.6750  -28.0512 H   0  0  0  0  0  0  0  0  0  0  0  0
   -2.2742   20.6814  -28.6676 H   0  0  0  0  0  0  0  0  0  0  0  0
   -5.2203   20.1906  -32.0064 H   0  0  0  0  0  0  0  0  0  0  0  0
  1  2  1  0
  2  3  1  0
  3  4  2  0
  4  5  1  0
  5  6  2  0
  6  7  1  0
  7  8  2  0
  8  9  1  0
  9 10  1  0
  9 11  2  0
  8 12  1  0
 12 13  1  0
 13 14  2  0
 13 15  1  0
 15 16  1  0
 16 17  1  0
 17 18  1  0
 18 19  1  0
 19 20  2  0
 19 21  1  0
 21 22  1  0
 22 23  1  0
 12 24  1  0
 24 25  2  0
 25  3  1  0
 24  6  1  0
 22 17  2  0
  1 26  1  0
  1 27  1  0
  1 28  1  0
  2 29  1  0
  4 30  1  0
  5 31  1  0
  7 32  1  0
 10 33  1  0
 16 34  1  0
 16 35  1  0
 25 36  1  0
M  CHG  2  10  -1  23  -1
M  END
>  <UniqueID>  (62) 
62

>  <SMILES>  (62) 
CNc1ccc2cc(C([NH-])=O)n(C(=O)OCc3oc(=O)oc3[O-])c2c1

>  <Energy>  (62) 
108.41852715585877

>  <Genealogy>  (62) 
CNc1ccc2cc(C([NH-])=O)n(C(=O)OCc3oc(=O)oc3[O-])c2c1 (protonated)
CNc1ccc2cc(C([NH-])=O)n(C(=O)OCc3oc(=O)oc3[O-])c2c1 (3D coordinates assigned)
CNc1ccc2cc(C([NH-])=O)n(C(=O)OCc3oc(=O)oc3[O-])c2c1 (optimized conformer: 108.41852715585877 kcal/mol)

>  <smiles>  (62) 
CNc1ccc2cc(C(N)=O)n(C(=O)OCc3oc(=O)oc3O)c2c1

>  <score_type>  (62) 
oracle

>  <origin>  (62) 
adg

>  <m_score__min__energy>  (62) 
-12.449999999999999

>  <m_primary>  (62) 
energy

$$$$
62:0
     RDKit          3D

 42 43  0  0  0  0  0  0  0  0999 V2000
   -3.5430   18.9620  -33.9210 C   0  0  0  0  0  0  0  0  0  0  0  0
   -4.3080   18.0750  -34.7050 O   0  0  0  0  0  0  0  0  0  0  0  0
   -5.6440   18.5300  -34.7600 C   0  0  0  0  0  0  0  0  0  0  0  0
   -6.5100   17.6910  -33.8170 C   0  0  0  0  0  0  0  0  0  0  0  0
   -6.4380   18.2020  -32.4370 N   0  0  0  0  0  0  0  0  0  0  0  0
   -6.1220   17.2440  -31.3680 C   0  0  0  0  0  0  0  0  0  0  0  0
   -6.6680   19.6060  -32.1230 C   0  0  0  0  0  0  0  0  0  0  0  0
   -7.9710   20.1800  -32.2100 C   0  0  0  0  0  0  0  0  0  0  0  0
   -8.1920   21.5350  -31.9190 C   0  0  0  0  0  0  0  0  0  0  0  0
   -7.1050   22.3070  -31.5330 C   0  0  0  0  0  0  0  0  0  0  0  0
   -7.0390   23.6450  -31.2180 C   0  0  0  0  0  0  0  0  0  0  0  0
   -5.7010   23.8850  -30.9150 C   0  0  0  0  0  0  0  0  0  0  0  0
   -5.1960   25.1890  -30.4360 C   0  0  0  0  0  0  0  0  0  0  0  0
   -3.9190   25.6550  -30.8640 N   0  0  0  0  0  0  0  0  0  0  0  0
   -5.8930   25.9130  -29.6770 O   0  0  0  0  0  0  0  0  0  0  0  0
   -4.9690   22.7410  -31.0450 N   0  0  0  0  0  0  0  0  0  0  0  0
   -3.5530   22.5770  -30.8780 C   0  0  0  0  0  0  0  0  0  0  0  0
   -2.9250   21.7530  -31.5990 O   0  0  0  0  0  0  0  0  0  0  0  0
   -2.8790   23.3160  -29.9000 O   0  0  0  0  0  0  0  0  0  0  0  0
   -1.4890   23.1660  -29.6230 C   0  0  0  0  0  0  0  0  0  0  0  0
   -0.9200   24.4510  -29.1100 C   0  0  0  0  0  0  0  0  0  0  0  0
    0.2040   24.4670  -28.5440 O   0  0  0  0  0  0  0  0  0  0  0  0
   -1.6200   25.6380  -29.2840 O   0  0  0  0  0  0  0  0  0  0  0  0
   -5.8470   21.7850  -31.4220 C   0  0  0  0  0  0  0  0  0  0  0  0
   -5.5900   20.4430  -31.7230 C   0  0  0  0  0  0  0  0  0  0  0  0
   -3.7207   18.7559  -32.8552 H   0  0  0  0  0  0  0  0  0  0  0  0
   -2.4755   18.8246  -34.1480 H   0  0  0  0  0  0  0  0  0  0  0  0
   -3.8357   19.9978  -34.1480 H   0  0  0  0  0  0  0  0  0  0  0  0
   -5.6845   19.5854  -34.4528 H   0  0  0  0  0  0  0  0  0  0  0  0
   -6.0219   18.4318  -35.7884 H   0  0  0  0  0  0  0  0  0  0  0  0
   -7.5545   17.7279  -34.1599 H   0  0  0  0  0  0  0  0  0  0  0  0
   -6.1367   16.6563  -33.8269 H   0  0  0  0  0  0  0  0  0  0  0  0
   -6.2794   17.7213  -30.3895 H   0  0  0  0  0  0  0  0  0  0  0  0
   -6.7780   16.3655  -31.4572 H   0  0  0  0  0  0  0  0  0  0  0  0
   -5.0721   16.9282  -31.4572 H   0  0  0  0  0  0  0  0  0  0  0  0
   -8.8194   19.5480  -32.5112 H   0  0  0  0  0  0  0  0  0  0  0  0
   -9.1982   21.9729  -31.9947 H   0  0  0  0  0  0  0  0  0  0  0  0
   -7.8662   24.3700  -31.2077 H   0  0  0  0  0  0  0  0  0  0  0  0
   -3.0400   25.2920  -30.4310 H   0  0  0  0  0  0  0  0  0  0  0  0
   -1.3528   22.3806  -28.8650 H   0  0  0  0  0  0  0  0  0  0  0  0
   -0.9672   22.8889  -30.5509 H   0  0  0  0  0  0  0  0  0  0  0  0
   -4.5686   20.0410  -31.6513 H   0  0  0  0  0  0  0  0  0  0  0  0
  1  2  1  0
  2  3  1  0
  3  4  1  0
  4  5  1  0
  5  6  1  0
  5  7  1  0
  7  8  2  0
  8  9  1  0
  9 10  2  0
 10 11  1  0
 11 12  2  0
 12 13  1  0
 13 14  1  0
 13 15  2  0
 12 16  1  0
 16 17  1  0
 17 18  2  0
 17 19  1  0
 19 20  1  0
 20 21  1  0
 21 22  2  0
 21 23  1  0
 16 24  1  0
 24 25  2  0
 25  7  1  0
 24 10  1  0
  1 26  1  0
  1 27  1  0
  1 28  1  0
  3 29  1  0
  3 30  1  0
  4 31  1  0
  4 32  1  0
  6 33  1  0
  6 34  1  0
  6 35  1  0
  8 36  1  0
  9 37  1  0
 11 38  1  0
 14 39  1  0
 20 40  1  0
 20 41  1  0
 25 42  1  0
M  CHG  2  14  -1  23  -1
M  END
>  <UniqueID>  (63) 
63

>  <SMILES>  (63) 
COCCN(C)c1ccc2cc(C([NH-])=O)n(C(=O)OCC(=O)[O-])c2c1

>  <Energy>  (63) 
79.59047317654576

>  <Genealogy>  (63) 
COCCN(C)c1ccc2cc(C([NH-])=O)n(C(=O)OCC(=O)[O-])c2c1 (protonated)
COCCN(C)c1ccc2cc(C([NH-])=O)n(C(=O)OCC(=O)[O-])c2c1 (3D coordinates assigned)
COCCN(C)c1ccc2cc(C([NH-])=O)n(C(=O)OCC(=O)[O-])c2c1 (optimized conformer: 79.59047317654576 kcal/mol)

>  <smiles>  (63) 
COCCN(C)c1ccc2cc(C(N)=O)n(C(=O)OCC(=O)O)c2c1

>  <score_type>  (63) 
oracle

>  <origin>  (63) 
adg

>  <m_score__min__energy>  (63) 
-11.93

>  <m_primary>  (63) 
energy

$$$$
63:0
     RDKit          3D

 43 44  0  0  0  0  0  0  0  0999 V2000
   -4.2500   24.9580  -26.3290 C   0  0  0  0  0  0  0  0  0  0  0  0
   -3.9190   24.4420  -27.6000 O   0  0  0  0  0  0  0  0  0  0  0  0
   -3.3430   23.1560  -27.4750 C   0  0  0  0  0  0  0  0  0  0  0  0
   -1.8480   23.2140  -27.7970 C   0  0  0  0  0  0  0  0  0  0  0  0
   -1.6560   23.3540  -29.2020 O   0  0  0  0  0  0  0  0  0  0  0  0
   -2.6980   23.4090  -30.1330 C   0  0  0  0  0  0  0  0  0  0  0  0
   -3.1820   24.5270  -30.4670 O   0  0  0  0  0  0  0  0  0  0  0  0
   -3.2120   22.1960  -30.7200 N   0  0  0  0  0  0  0  0  0  0  0  0
   -3.0860   20.9340  -29.9850 C   0  0  0  0  0  0  0  0  0  0  0  0
   -4.0690   22.2430  -31.8810 C   0  0  0  0  0  0  0  0  0  0  0  0
   -3.5640   22.2960  -33.0360 O   0  0  0  0  0  0  0  0  0  0  0  0
   -5.4970   22.2180  -31.7480 N   0  0  0  0  0  0  0  0  0  0  0  0
   -6.2920   23.1520  -31.1580 C   0  0  0  0  0  0  0  0  0  0  0  0
   -5.8240   24.4570  -30.6360 C   0  0  0  0  0  0  0  0  0  0  0  0
   -5.6730   24.6780  -29.2310 N   0  0  0  0  0  0  0  0  0  0  0  0
   -5.5570   25.3950  -31.4320 O   0  0  0  0  0  0  0  0  0  0  0  0
   -7.6130   22.7010  -31.1150 C   0  0  0  0  0  0  0  0  0  0  0  0
   -7.5900   21.4480  -31.6920 C   0  0  0  0  0  0  0  0  0  0  0  0
   -8.6080   20.5120  -31.8450 C   0  0  0  0  0  0  0  0  0  0  0  0
   -8.2770   19.2660  -32.4030 C   0  0  0  0  0  0  0  0  0  0  0  0
   -6.9470   18.9810  -32.8110 C   0  0  0  0  0  0  0  0  0  0  0  0
   -6.5910   17.6150  -33.3390 C   0  0  0  0  0  0  0  0  0  0  0  0
   -7.5960   16.7060  -33.0600 F   0  0  0  0  0  0  0  0  0  0  0  0
   -6.4170   17.6880  -34.7080 F   0  0  0  0  0  0  0  0  0  0  0  0
   -5.4200   17.1580  -32.7590 F   0  0  0  0  0  0  0  0  0  0  0  0
   -5.9390   19.9530  -32.6210 C   0  0  0  0  0  0  0  0  0  0  0  0
   -6.3000   21.1860  -32.0710 C   0  0  0  0  0  0  0  0  0  0  0  0
   -3.8316   24.3058  -25.5482 H   0  0  0  0  0  0  0  0  0  0  0  0
   -3.8322   25.9701  -26.2240 H   0  0  0  0  0  0  0  0  0  0  0  0
   -5.3442   25.0003  -26.2240 H   0  0  0  0  0  0  0  0  0  0  0  0
   -3.4792   22.7952  -26.4448 H   0  0  0  0  0  0  0  0  0  0  0  0
   -3.8362   22.4712  -28.1805 H   0  0  0  0  0  0  0  0  0  0  0  0
   -1.3975   24.0744  -27.2805 H   0  0  0  0  0  0  0  0  0  0  0  0
   -1.3699   22.2828  -27.4588 H   0  0  0  0  0  0  0  0  0  0  0  0
   -3.1061   21.1358  -28.9039 H   0  0  0  0  0  0  0  0  0  0  0  0
   -3.9224   20.2704  -30.2498 H   0  0  0  0  0  0  0  0  0  0  0  0
   -2.1349   20.4488  -30.2498 H   0  0  0  0  0  0  0  0  0  0  0  0
   -5.8170   23.9140  -28.5350 H   0  0  0  0  0  0  0  0  0  0  0  0
   -5.3720   25.6160  -28.8810 H   0  0  0  0  0  0  0  0  0  0  0  0
   -8.4861   23.2318  -30.7077 H   0  0  0  0  0  0  0  0  0  0  0  0
   -9.6395   20.7404  -31.5387 H   0  0  0  0  0  0  0  0  0  0  0  0
   -9.0581   18.5012  -32.5255 H   0  0  0  0  0  0  0  0  0  0  0  0
   -4.8955   19.7442  -32.8993 H   0  0  0  0  0  0  0  0  0  0  0  0
  1  2  1  0
  2  3  1  0
  3  4  1  0
  4  5  1  0
  5  6  1  0
  6  7  2  0
  6  8  1  0
  8  9  1  0
  8 10  1  0
 10 11  2  0
 10 12  1  0
 12 13  1  0
 13 14  1  0
 14 15  1  0
 14 16  2  0
 13 17  2  0
 17 18  1  0
 18 19  2  0
 19 20  1  0
 20 21  2  0
 21 22  1  0
 22 23  1  0
 22 24  1  0
 22 25  1  0
 21 26  1  0
 26 27  2  0
 27 12  1  0
 27 18  1  0
  1 28  1  0
  1 29  1  0
  1 30  1  0
  3 31  1  0
  3 32  1  0
  4 33  1  0
  4 34  1  0
  9 35  1  0
  9 36  1  0
  9 37  1  0
 15 38  1  0
 15 39  1  0
 17 40  1  0
 19 41  1  0
 20 42  1  0
 26 43  1  0
M  END
>  <UniqueID>  (64) 
64

>  <SMILES>  (64) 
COCCOC(=O)N(C)C(=O)n1c(C(N)=O)cc2ccc(C(F)(F)F)cc21

>  <Energy>  (64) 
81.63371085126906

>  <Genealogy>  (64) 
COCCOC(=O)N(C)C(=O)n1c(C(N)=O)cc2ccc(C(F)(F)F)cc21 (3D coordinates assigned)
COCCOC(=O)N(C)C(=O)n1c(C(N)=O)cc2ccc(C(F)(F)F)cc21 (optimized conformer: 81.63371085126906 kcal/mol)

>  <smiles>  (64) 
COCCOC(=O)N(C)C(=O)n1c(C(N)=O)cc2ccc(C(F)(F)F)cc21

>  <score_type>  (64) 
oracle

>  <origin>  (64) 
adg

>  <m_score__min__energy>  (64) 
-8.1400000000000006

>  <m_primary>  (64) 
energy

$$$$
64:0
     RDKit          3D

 38 39  0  0  0  0  0  0  0  0999 V2000
   -7.6950   18.4720  -32.7070 C   0  0  0  0  0  0  0  0  0  0  0  0
   -7.6740   19.8710  -32.1660 C   0  0  0  0  0  0  0  0  0  0  0  0
   -8.8840   20.5020  -31.7830 C   0  0  0  0  0  0  0  0  0  0  0  0
   -8.8820   21.8290  -31.3190 C   0  0  0  0  0  0  0  0  0  0  0  0
   -7.6640   22.4970  -31.2570 C   0  0  0  0  0  0  0  0  0  0  0  0
   -7.3750   23.7890  -30.8760 C   0  0  0  0  0  0  0  0  0  0  0  0
   -5.9970   23.9240  -31.0370 C   0  0  0  0  0  0  0  0  0  0  0  0
   -5.2460   25.1490  -30.6970 C   0  0  0  0  0  0  0  0  0  0  0  0
   -3.9050   25.3310  -31.1390 N   0  0  0  0  0  0  0  0  0  0  0  0
   -5.7840   26.0320  -29.9760 O   0  0  0  0  0  0  0  0  0  0  0  0
   -5.4570   22.7630  -31.5020 N   0  0  0  0  0  0  0  0  0  0  0  0
   -4.0960   22.5110  -31.8850 C   0  0  0  0  0  0  0  0  0  0  0  0
   -3.8330   22.2940  -33.1000 O   0  0  0  0  0  0  0  0  0  0  0  0
   -3.0380   22.6330  -30.9040 N   0  0  2  0  0  0  0  0  0  0  0  0
   -1.9250   21.7290  -31.2440 C   0  0  0  0  0  0  0  0  0  0  0  0
   -3.5140   22.4890  -29.5020 C   0  0  0  0  0  0  0  0  0  0  0  0
   -2.8420   23.4230  -28.4640 C   0  0  0  0  0  0  0  0  0  0  0  0
   -1.8110   24.3270  -29.0700 C   0  0  0  0  0  0  0  0  0  0  0  0
   -0.8450   23.8470  -29.7220 O   0  0  0  0  0  0  0  0  0  0  0  0
   -1.9410   25.7050  -28.9490 O   0  0  0  0  0  0  0  0  0  0  0  0
   -6.4870   21.9010  -31.6310 C   0  0  0  0  0  0  0  0  0  0  0  0
   -6.4570   20.5860  -32.1080 C   0  0  0  0  0  0  0  0  0  0  0  0
   -7.7057   17.7561  -31.8719 H   0  0  0  0  0  0  0  0  0  0  0  0
   -8.5954   18.3305  -33.3229 H   0  0  0  0  0  0  0  0  0  0  0  0
   -6.7993   18.3036  -33.3229 H   0  0  0  0  0  0  0  0  0  0  0  0
   -9.8324   19.9488  -31.8494 H   0  0  0  0  0  0  0  0  0  0  0  0
   -9.8158   22.3240  -31.0142 H   0  0  0  0  0  0  0  0  0  0  0  0
   -8.0822   24.5526  -30.5200 H   0  0  0  0  0  0  0  0  0  0  0  0
   -3.1040   25.2960  -30.4700 H   0  0  0  0  0  0  0  0  0  0  0  0
   -2.6620   23.6090  -30.9840 H   0  0  0  0  0  0  0  0  0  0  0  0
   -1.4623   21.3532  -30.3195 H   0  0  0  0  0  0  0  0  0  0  0  0
   -2.3072   20.8823  -31.8332 H   0  0  0  0  0  0  0  0  0  0  0  0
   -1.1747   22.2767  -31.8332 H   0  0  0  0  0  0  0  0  0  0  0  0
   -4.5949   22.6926  -29.4897 H   0  0  0  0  0  0  0  0  0  0  0  0
   -3.2489   21.4652  -29.1994 H   0  0  0  0  0  0  0  0  0  0  0  0
   -3.6201   24.0434  -27.9953 H   0  0  0  0  0  0  0  0  0  0  0  0
   -2.3288   22.7840  -27.7303 H   0  0  0  0  0  0  0  0  0  0  0  0
   -5.5126   20.1221  -32.4287 H   0  0  0  0  0  0  0  0  0  0  0  0
  1  2  1  0
  2  3  2  0
  3  4  1  0
  4  5  2  0
  5  6  1  0
  6  7  2  0
  7  8  1  0
  8  9  1  0
  8 10  2  0
  7 11  1  0
 11 12  1  0
 12 13  2  0
 12 14  1  0
 14 15  1  0
 14 16  1  0
 16 17  1  0
 17 18  1  0
 18 19  2  0
 18 20  1  0
 11 21  1  0
 21 22  2  0
 22  2  1  0
 21  5  1  0
  1 23  1  0
  1 24  1  0
  1 25  1  0
  3 26  1  0
  4 27  1  0
  6 28  1  0
  9 29  1  0
 14 30  1  1
 15 31  1  0
 15 32  1  0
 15 33  1  0
 16 34  1  0
 16 35  1  0
 17 36  1  0
 17 37  1  0
 22 38  1  0
M  CHG  3   9  -1  14   1  20  -1
M  END
>  <UniqueID>  (65) 
65

>  <SMILES>  (65) 
Cc1ccc2cc(C([NH-])=O)n(C(=O)[N@H+](C)CCC(=O)[O-])c2c1

>  <Energy>  (65) 
83.39424952758536

>  <Genealogy>  (65) 
Cc1ccc2cc(C([NH-])=O)n(C(=O)[NH+](C)CCC(=O)[O-])c2c1 (protonated)
Cc1ccc2cc(C([NH-])=O)n(C(=O)[N@H+](C)CCC(=O)[O-])c2c1 (chirality)
Cc1ccc2cc(C([NH-])=O)n(C(=O)[N@H+](C)CCC(=O)[O-])c2c1 (3D coordinates assigned)
Cc1ccc2cc(C([NH-])=O)n(C(=O)[N@H+](C)CCC(=O)[O-])c2c1 (optimized conformer: 83.39424952758536 kcal/mol)

>  <smiles>  (65) 
Cc1ccc2cc(C(N)=O)n(C(=O)N(C)CCC(=O)O)c2c1

>  <score_type>  (65) 
oracle

>  <origin>  (65) 
adg

>  <m_score__min__energy>  (65) 
-11.140000000000001

>  <m_primary>  (65) 
energy

$$$$
65:0
     RDKit          3D

 35 36  0  0  0  0  0  0  0  0999 V2000
   -4.1840   22.9280  -28.0320 C   0  0  0  0  0  0  0  0  0  0  0  0
   -2.9240   22.2210  -28.4470 C   0  0  0  0  0  0  0  0  0  0  0  0
   -2.2320   21.3260  -27.4570 C   0  0  0  0  0  0  0  0  0  0  0  0
   -2.4310   22.3800  -29.6820 C   0  0  0  0  0  0  0  0  0  0  0  0
   -3.0780   23.2130  -30.6000 O   0  0  0  0  0  0  0  0  0  0  0  0
   -3.9080   22.7360  -31.6200 C   0  0  0  0  0  0  0  0  0  0  0  0
   -3.4100   22.2530  -32.6730 O   0  0  0  0  0  0  0  0  0  0  0  0
   -5.3350   22.7910  -31.4610 N   0  0  0  0  0  0  0  0  0  0  0  0
   -6.0780   23.8240  -30.9700 C   0  0  0  0  0  0  0  0  0  0  0  0
   -5.5450   25.0510  -30.3460 C   0  0  0  0  0  0  0  0  0  0  0  0
   -4.2350   25.5280  -30.6530 N   0  0  0  0  0  0  0  0  0  0  0  0
   -6.2370   25.6580  -29.4850 O   0  0  0  0  0  0  0  0  0  0  0  0
   -7.4380   23.5500  -31.0820 C   0  0  0  0  0  0  0  0  0  0  0  0
   -7.5110   22.2990  -31.6480 C   0  0  0  0  0  0  0  0  0  0  0  0
   -8.6250   21.5390  -31.9950 C   0  0  0  0  0  0  0  0  0  0  0  0
   -8.4060   20.2890  -32.6010 C   0  0  0  0  0  0  0  0  0  0  0  0
   -7.0920   19.8340  -32.8560 C   0  0  0  0  0  0  0  0  0  0  0  0
   -6.8830   18.5670  -33.4850 N   0  0  0  0  0  0  0  0  0  0  0  0
   -5.9850   20.6300  -32.4930 C   0  0  0  0  0  0  0  0  0  0  0  0
   -6.2300   21.8610  -31.8700 C   0  0  0  0  0  0  0  0  0  0  0  0
   -4.2416   22.9603  -26.9340 H   0  0  0  0  0  0  0  0  0  0  0  0
   -4.1767   23.9538  -28.4292 H   0  0  0  0  0  0  0  0  0  0  0  0
   -5.0557   22.3872  -28.4292 H   0  0  0  0  0  0  0  0  0  0  0  0
   -2.4810   21.6480  -26.4351 H   0  0  0  0  0  0  0  0  0  0  0  0
   -2.5649   20.2882  -27.6058 H   0  0  0  0  0  0  0  0  0  0  0  0
   -1.1438   21.3869  -27.6058 H   0  0  0  0  0  0  0  0  0  0  0  0
   -1.5117   21.8522  -29.9759 H   0  0  0  0  0  0  0  0  0  0  0  0
   -3.5750   24.9590  -31.2280 H   0  0  0  0  0  0  0  0  0  0  0  0
   -3.8900   26.4190  -30.2300 H   0  0  0  0  0  0  0  0  0  0  0  0
   -8.2758   24.1964  -30.7817 H   0  0  0  0  0  0  0  0  0  0  0  0
   -9.6441   21.9048  -31.8012 H   0  0  0  0  0  0  0  0  0  0  0  0
   -9.2645   19.6599  -32.8790 H   0  0  0  0  0  0  0  0  0  0  0  0
   -6.7230   17.7070  -32.9140 H   0  0  0  0  0  0  0  0  0  0  0  0
   -6.8870   18.4790  -34.5260 H   0  0  0  0  0  0  0  0  0  0  0  0
   -4.9572   20.2933  -32.6937 H   0  0  0  0  0  0  0  0  0  0  0  0
  1  2  1  0
  2  3  1  0
  2  4  2  3
  4  5  1  0
  5  6  1  0
  6  7  2  0
  6  8  1  0
  8  9  1  0
  9 10  1  0
 10 11  1  0
 10 12  2  0
  9 13  2  0
 13 14  1  0
 14 15  2  0
 15 16  1  0
 16 17  2  0
 17 18  1  0
 17 19  1  0
 19 20  2  0
 20  8  1  0
 20 14  1  0
  1 21  1  0
  1 22  1  0
  1 23  1  0
  3 24  1  0
  3 25  1  0
  3 26  1  0
  4 27  1  0
 11 28  1  0
 11 29  1  0
 13 30  1  0
 15 31  1  0
 16 32  1  0
 18 33  1  0
 18 34  1  0
 19 35  1  0
M  END
>  <UniqueID>  (66) 
66

>  <SMILES>  (66) 
CC(C)=COC(=O)n1c(C(N)=O)cc2ccc(N)cc21

>  <Energy>  (66) 
68.88838622675962

>  <Genealogy>  (66) 
CC(C)=COC(=O)n1c(C(N)=O)cc2ccc(N)cc21 (3D coordinates assigned)
CC(C)=COC(=O)n1c(C(N)=O)cc2ccc(N)cc21 (optimized conformer: 68.88838622675962 kcal/mol)

>  <smiles>  (66) 
CC(C)=COC(=O)n1c(C(N)=O)cc2ccc(N)cc21

>  <score_type>  (66) 
oracle

>  <origin>  (66) 
adg

>  <m_score__min__energy>  (66) 
-7.8099999999999996

>  <m_primary>  (66) 
energy

$$$$
66:0
     RDKit          3D

 42 43  0  0  0  0  0  0  0  0999 V2000
   -3.8740   25.6080  -30.8370 N   0  0  0  0  0  0  0  0  0  0  0  0
   -5.1920   25.2350  -30.4440 C   0  0  0  0  0  0  0  0  0  0  0  0
   -5.8680   26.0210  -29.7290 O   0  0  0  0  0  0  0  0  0  0  0  0
   -5.7910   23.9640  -30.9030 C   0  0  0  0  0  0  0  0  0  0  0  0
   -7.1540   23.7950  -31.1420 C   0  0  0  0  0  0  0  0  0  0  0  0
   -7.2850   22.5080  -31.6140 C   0  0  0  0  0  0  0  0  0  0  0  0
   -8.4260   21.7960  -31.9720 C   0  0  0  0  0  0  0  0  0  0  0  0
   -8.2680   20.4570  -32.3690 C   0  0  0  0  0  0  0  0  0  0  0  0
   -6.9840   19.8590  -32.4010 C   0  0  0  0  0  0  0  0  0  0  0  0
   -6.8460   18.4140  -32.7780 C   0  0  0  0  0  0  0  0  0  0  0  0
   -7.9360   17.7060  -32.3070 F   0  0  0  0  0  0  0  0  0  0  0  0
   -5.8500   20.6120  -32.0270 C   0  0  0  0  0  0  0  0  0  0  0  0
   -6.0350   21.9470  -31.6500 C   0  0  0  0  0  0  0  0  0  0  0  0
   -5.1080   22.8280  -31.2160 N   0  0  0  0  0  0  0  0  0  0  0  0
   -3.7180   22.5470  -31.0020 C   0  0  0  0  0  0  0  0  0  0  0  0
   -2.8540   23.4300  -31.2540 O   0  0  0  0  0  0  0  0  0  0  0  0
   -3.3130   21.2460  -30.5660 N   0  0  0  0  0  0  0  0  0  0  0  0
   -2.0040   20.9690  -29.9860 C   0  0  0  0  0  0  0  0  0  0  0  0
   -1.5910   22.0870  -29.0820 C   0  0  0  0  0  0  0  0  0  0  0  0
   -0.8450   23.0060  -29.5170 O   0  0  0  0  0  0  0  0  0  0  0  0
   -2.0590   22.1150  -27.7300 N   0  0  0  0  0  0  0  0  0  0  0  0
   -1.8680   23.2590  -26.8480 C   0  0  0  0  0  0  0  0  0  0  0  0
   -2.5480   24.5100  -27.4330 C   0  0  2  0  0  0  0  0  0  0  0  0
   -3.4280   24.1390  -28.4640 O   0  0  0  0  0  0  0  0  0  0  0  0
   -1.5340   25.5460  -27.9510 C   0  0  0  0  0  0  0  0  0  0  0  0
   -1.5540   25.5910  -29.3510 O   0  0  0  0  0  0  0  0  0  0  0  0
   -3.0410   25.2810  -30.3000 H   0  0  0  0  0  0  0  0  0  0  0  0
   -7.9548   24.5330  -30.9866 H   0  0  0  0  0  0  0  0  0  0  0  0
   -9.4200   22.2663  -31.9451 H   0  0  0  0  0  0  0  0  0  0  0  0
   -9.1504   19.8672  -32.6579 H   0  0  0  0  0  0  0  0  0  0  0  0
   -6.7967   18.3244  -33.8732 H   0  0  0  0  0  0  0  0  0  0  0  0
   -5.9259   18.0067  -32.3336 H   0  0  0  0  0  0  0  0  0  0  0  0
   -4.8467   20.1610  -32.0318 H   0  0  0  0  0  0  0  0  0  0  0  0
   -2.0533   20.0342  -29.4083 H   0  0  0  0  0  0  0  0  0  0  0  0
   -1.2663   20.8721  -30.7962 H   0  0  0  0  0  0  0  0  0  0  0  0
   -2.3067   23.0350  -25.8644 H   0  0  0  0  0  0  0  0  0  0  0  0
   -0.7902   23.4543  -26.7469 H   0  0  0  0  0  0  0  0  0  0  0  0
   -3.1092   24.9877  -26.6164 H   0  0  0  0  0  0  0  0  0  0  0  0
   -2.8790   23.7910  -29.2160 H   0  0  0  0  0  0  0  0  0  0  0  0
   -1.7937   26.5379  -27.5527 H   0  0  0  0  0  0  0  0  0  0  0  0
   -0.5264   25.2568  -27.6176 H   0  0  0  0  0  0  0  0  0  0  0  0
   -2.0590   24.7890  -29.6450 H   0  0  0  0  0  0  0  0  0  0  0  0
  1  2  1  0
  2  3  2  0
  2  4  1  0
  4  5  2  0
  5  6  1  0
  6  7  2  0
  7  8  1  0
  8  9  2  0
  9 10  1  0
 10 11  1  0
  9 12  1  0
 12 13  2  0
 13 14  1  0
 14 15  1  0
 15 16  2  0
 15 17  1  0
 17 18  1  0
 18 19  1  0
 19 20  2  0
 19 21  1  0
 21 22  1  0
 22 23  1  0
 23 24  1  0
 23 25  1  0
 25 26  1  0
 14  4  1  0
 13  6  1  0
  1 27  1  0
  5 28  1  0
  7 29  1  0
  8 30  1  0
 10 31  1  0
 10 32  1  0
 12 33  1  0
 18 34  1  0
 18 35  1  0
 22 36  1  0
 22 37  1  0
 23 38  1  1
 24 39  1  0
 25 40  1  0
 25 41  1  0
 26 42  1  0
M  CHG  3   1  -1  17  -1  21  -1
M  END
>  <UniqueID>  (67) 
67

>  <SMILES>  (67) 
[NH-]C(=O)c1cc2ccc(CF)cc2n1C(=O)[N-]CC(=O)[N-]C[C@H](O)CO

>  <Energy>  (67) 
70.1233576303853

>  <Genealogy>  (67) 
[NH-]C(=O)c1cc2ccc(CF)cc2n1C(=O)[N-]CC(=O)[N-]CC(O)CO (protonated)
[NH-]C(=O)c1cc2ccc(CF)cc2n1C(=O)[N-]CC(=O)[N-]C[C@H](O)CO (chirality)
[NH-]C(=O)c1cc2ccc(CF)cc2n1C(=O)[N-]CC(=O)[N-]C[C@H](O)CO (3D coordinates assigned)
[NH-]C(=O)c1cc2ccc(CF)cc2n1C(=O)[N-]CC(=O)[N-]C[C@H](O)CO (optimized conformer: 70.1233576303853 kcal/mol)

>  <smiles>  (67) 
NC(=O)c1cc2ccc(CF)cc2n1C(=O)NCC(=O)NCC(O)CO

>  <score_type>  (67) 
oracle

>  <origin>  (67) 
adg

>  <m_score__min__energy>  (67) 
-11.02

>  <m_primary>  (67) 
energy

$$$$
67:0
     RDKit          3D

 30 31  0  0  0  0  0  0  0  0999 V2000
   -4.1520   23.0120  -27.8600 C   0  0  0  0  0  0  0  0  0  0  0  0
   -3.4260   22.2800  -28.7060 C   0  0  0  0  0  0  0  0  0  0  0  0
   -3.1030   21.0120  -28.3470 F   0  0  0  0  0  0  0  0  0  0  0  0
   -2.9630   22.8230  -30.0060 C   0  0  0  0  0  0  0  0  0  0  0  0
   -1.8790   23.4640  -30.0670 O   0  0  0  0  0  0  0  0  0  0  0  0
   -3.7490   22.6360  -31.2440 C   0  0  0  0  0  0  0  0  0  0  0  0
   -3.1940   22.2100  -32.2930 O   0  0  0  0  0  0  0  0  0  0  0  0
   -5.1630   22.8840  -31.2510 N   0  0  0  0  0  0  0  0  0  0  0  0
   -5.8250   24.0060  -30.8540 C   0  0  0  0  0  0  0  0  0  0  0  0
   -5.2010   25.2790  -30.4330 C   0  0  0  0  0  0  0  0  0  0  0  0
   -3.8810   25.6240  -30.8460 N   0  0  0  0  0  0  0  0  0  0  0  0
   -5.8560   26.0900  -29.7240 O   0  0  0  0  0  0  0  0  0  0  0  0
   -7.2030   23.8260  -30.9730 C   0  0  0  0  0  0  0  0  0  0  0  0
   -7.3620   22.5510  -31.4690 C   0  0  0  0  0  0  0  0  0  0  0  0
   -8.5220   21.8500  -31.7910 C   0  0  0  0  0  0  0  0  0  0  0  0
   -8.3830   20.5420  -32.2870 C   0  0  0  0  0  0  0  0  0  0  0  0
   -7.1010   19.9570  -32.4350 C   0  0  0  0  0  0  0  0  0  0  0  0
   -6.9660   18.5760  -32.9990 C   0  0  0  0  0  0  0  0  0  0  0  0
   -5.9470   20.7040  -32.1110 C   0  0  0  0  0  0  0  0  0  0  0  0
   -6.1160   22.0060  -31.6310 C   0  0  0  0  0  0  0  0  0  0  0  0
   -4.4294   24.0434  -28.1234 H   0  0  0  0  0  0  0  0  0  0  0  0
   -4.4734   22.5844  -26.8988 H   0  0  0  0  0  0  0  0  0  0  0  0
   -3.0470   25.2900  -30.3140 H   0  0  0  0  0  0  0  0  0  0  0  0
   -7.9942   24.5484  -30.7238 H   0  0  0  0  0  0  0  0  0  0  0  0
   -9.5149   22.3054  -31.6613 H   0  0  0  0  0  0  0  0  0  0  0  0
   -9.2789   19.9666  -32.5631 H   0  0  0  0  0  0  0  0  0  0  0  0
   -6.8950   17.8493  -32.1763 H   0  0  0  0  0  0  0  0  0  0  0  0
   -7.8458   18.3449  -33.6174 H   0  0  0  0  0  0  0  0  0  0  0  0
   -6.0581   18.5196  -33.6174 H   0  0  0  0  0  0  0  0  0  0  0  0
   -4.9424   20.2729  -32.2331 H   0  0  0  0  0  0  0  0  0  0  0  0
  1  2  2  0
  2  3  1  0
  2  4  1  0
  4  5  2  0
  4  6  1  0
  6  7  2  0
  6  8  1  0
  8  9  1  0
  9 10  1  0
 10 11  1  0
 10 12  2  0
  9 13  2  0
 13 14  1  0
 14 15  2  0
 15 16  1  0
 16 17  2  0
 17 18  1  0
 17 19  1  0
 19 20  2  0
 20  8  1  0
 20 14  1  0
  1 21  1  0
  1 22  1  0
 11 23  1  0
 13 24  1  0
 15 25  1  0
 16 26  1  0
 18 27  1  0
 18 28  1  0
 18 29  1  0
 19 30  1  0
M  CHG  1  11  -1
M  END
>  <UniqueID>  (68) 
68

>  <SMILES>  (68) 
C=C(F)C(=O)C(=O)n1c(C([NH-])=O)cc2ccc(C)cc21

>  <Energy>  (68) 
69.13060031041898

>  <Genealogy>  (68) 
C=C(F)C(=O)C(=O)n1c(C([NH-])=O)cc2ccc(C)cc21 (protonated)
C=C(F)C(=O)C(=O)n1c(C([NH-])=O)cc2ccc(C)cc21 (3D coordinates assigned)
C=C(F)C(=O)C(=O)n1c(C([NH-])=O)cc2ccc(C)cc21 (optimized conformer: 69.13060031041898 kcal/mol)

>  <smiles>  (68) 
C=C(F)C(=O)C(=O)n1c(C(N)=O)cc2ccc(C)cc21

>  <score_type>  (68) 
oracle

>  <origin>  (68) 
adg

>  <m_score__min__energy>  (68) 
-9.7899999999999991

>  <m_primary>  (68) 
energy

$$$$
68:0
     RDKit          3D

 57 60  0  0  0  0  0  0  0  0999 V2000
   -6.6630   17.1070  -33.6660 C   0  0  0  0  0  0  0  0  0  0  0  0
   -6.8160   18.2070  -33.1970 C   0  0  0  0  0  0  0  0  0  0  0  0
   -6.9940   19.5190  -32.6350 C   0  0  0  0  0  0  0  0  0  0  0  0
   -8.2890   19.9710  -32.2860 C   0  0  0  0  0  0  0  0  0  0  0  0
   -8.4710   21.2420  -31.7130 C   0  0  0  0  0  0  0  0  0  0  0  0
   -7.3430   22.0350  -31.5140 C   0  0  0  0  0  0  0  0  0  0  0  0
   -7.2150   23.2730  -30.9230 C   0  0  0  0  0  0  0  0  0  0  0  0
   -5.8490   23.5530  -30.9420 C   0  0  0  0  0  0  0  0  0  0  0  0
   -5.2490   24.7540  -30.3200 C   0  0  0  0  0  0  0  0  0  0  0  0
   -5.7570   25.3010  -29.1030 N   0  0  0  0  0  0  0  0  0  0  0  0
   -4.2490   25.2930  -30.8640 O   0  0  0  0  0  0  0  0  0  0  0  0
   -5.1650   22.5320  -31.5250 N   0  0  0  0  0  0  0  0  0  0  0  0
   -3.7480   22.3350  -31.5840 C   0  0  0  0  0  0  0  0  0  0  0  0
   -3.1840   22.2830  -32.7100 O   0  0  0  0  0  0  0  0  0  0  0  0
   -2.9860   22.1110  -30.3800 N   0  0  0  0  0  0  0  0  0  0  0  0
   -1.5680   21.6900  -30.5070 C   0  0  0  0  0  0  0  0  0  0  0  0
   -0.8870   21.4940  -29.1380 C   0  0  2  0  0  0  0  0  0  0  0  0
   -1.4110   20.2290  -28.4500 C   0  0  0  0  0  0  0  0  0  0  0  0
   -2.5970   20.7110  -27.6070 C   0  0  0  0  0  0  0  0  0  0  0  0
   -2.6790   22.2160  -27.8840 C   0  0  2  0  0  0  0  0  0  0  0  0
   -3.6040   22.4940  -29.0870 C   0  0  0  0  0  0  0  0  0  0  0  0
   -1.3320   22.5700  -28.2780 N   0  0  0  0  0  0  0  0  0  0  0  0
   -0.8660   23.9230  -28.3900 C   0  0  0  0  0  0  0  0  0  0  0  0
    0.2350   24.1560  -28.9570 O   0  0  0  0  0  0  0  0  0  0  0  0
   -1.6530   24.9670  -27.8830 O   0  0  0  0  0  0  0  0  0  0  0  0
   -1.8100   25.3150  -26.5000 C   0  0  0  0  0  0  0  0  0  0  0  0
   -3.2970   25.2960  -26.0970 C   0  0  0  0  0  0  0  0  0  0  0  0
   -1.2670   26.7420  -26.3280 C   0  0  0  0  0  0  0  0  0  0  0  0
   -0.9920   24.3610  -25.6090 C   0  0  0  0  0  0  0  0  0  0  0  0
   -6.0880   21.6100  -31.8620 C   0  0  0  0  0  0  0  0  0  0  0  0
   -5.8740   20.3460  -32.4210 C   0  0  0  0  0  0  0  0  0  0  0  0
   -6.5234   16.1033  -34.0939 H   0  0  0  0  0  0  0  0  0  0  0  0
   -9.1598   19.3230  -32.4644 H   0  0  0  0  0  0  0  0  0  0  0  0
   -9.4725   21.5990  -31.4307 H   0  0  0  0  0  0  0  0  0  0  0  0
   -8.0197   23.9063  -30.5213 H   0  0  0  0  0  0  0  0  0  0  0  0
   -5.3710   26.1980  -28.7350 H   0  0  0  0  0  0  0  0  0  0  0  0
   -6.4200   24.7670  -28.5010 H   0  0  0  0  0  0  0  0  0  0  0  0
   -1.0194   22.4617  -31.0669 H   0  0  0  0  0  0  0  0  0  0  0  0
   -1.5515   20.7228  -31.0307 H   0  0  0  0  0  0  0  0  0  0  0  0
    0.2012   21.4492  -29.2926 H   0  0  0  0  0  0  0  0  0  0  0  0
   -0.6344   19.7850  -27.8098 H   0  0  0  0  0  0  0  0  0  0  0  0
   -1.7007   19.4510  -29.1716 H   0  0  0  0  0  0  0  0  0  0  0  0
   -2.4168   20.5217  -26.5385 H   0  0  0  0  0  0  0  0  0  0  0  0
   -3.5306   20.1877  -27.8611 H   0  0  0  0  0  0  0  0  0  0  0  0
   -3.0624   22.7716  -27.0155 H   0  0  0  0  0  0  0  0  0  0  0  0
   -3.8366   23.5688  -29.1120 H   0  0  0  0  0  0  0  0  0  0  0  0
   -4.5117   21.8863  -28.9577 H   0  0  0  0  0  0  0  0  0  0  0  0
   -3.3796   25.2949  -25.0001 H   0  0  0  0  0  0  0  0  0  0  0  0
   -3.7980   26.1878  -26.5016 H   0  0  0  0  0  0  0  0  0  0  0  0
   -3.7750   24.3917  -26.5016 H   0  0  0  0  0  0  0  0  0  0  0  0
   -1.1787   26.9740  -25.2564 H   0  0  0  0  0  0  0  0  0  0  0  0
   -0.2773   26.8174  -26.8022 H   0  0  0  0  0  0  0  0  0  0  0  0
   -1.9562   27.4562  -26.8022 H   0  0  0  0  0  0  0  0  0  0  0  0
   -1.1878   24.5893  -24.5509 H   0  0  0  0  0  0  0  0  0  0  0  0
   -1.2839   23.3216  -25.8199 H   0  0  0  0  0  0  0  0  0  0  0  0
    0.0797   24.4909  -25.8199 H   0  0  0  0  0  0  0  0  0  0  0  0
   -4.8613   20.0078  -32.6856 H   0  0  0  0  0  0  0  0  0  0  0  0
  1  2  3  0
  2  3  1  0
  3  4  2  0
  4  5  1  0
  5  6  2  0
  6  7  1  0
  7  8  2  0
  8  9  1  0
  9 10  1  0
  9 11  2  0
  8 12  1  0
 12 13  1  0
 13 14  2  0
 13 15  1  0
 15 16  1  0
 16 17  1  0
 17 18  1  0
 18 19  1  0
 19 20  1  0
 20 21  1  0
 20 22  1  0
 22 23  1  0
 23 24  2  0
 23 25  1  0
 25 26  1  0
 26 27  1  0
 26 28  1  0
 26 29  1  0
 12 30  1  0
 30 31  2  0
 31  3  1  0
 30  6  1  0
 21 15  1  0
 22 17  1  0
  1 32  1  0
  4 33  1  0
  5 34  1  0
  7 35  1  0
 10 36  1  0
 10 37  1  0
 16 38  1  0
 16 39  1  0
 17 40  1  6
 18 41  1  0
 18 42  1  0
 19 43  1  0
 19 44  1  0
 20 45  1  1
 21 46  1  0
 21 47  1  0
 27 48  1  0
 27 49  1  0
 27 50  1  0
 28 51  1  0
 28 52  1  0
 28 53  1  0
 29 54  1  0
 29 55  1  0
 29 56  1  0
 31 57  1  0
M  END
>  <UniqueID>  (69) 
69

>  <SMILES>  (69) 
C#Cc1ccc2cc(C(N)=O)n(C(=O)N3C[C@H]4CC[C@@H](C3)N4C(=O)OC(C)(C)C)c2c1

>  <Energy>  (69) 
105.0698454866542

>  <Genealogy>  (69) 
C#Cc1ccc2cc(C(N)=O)n(C(=O)N3C[C@H]4CC[C@@H](C3)N4C(=O)OC(C)(C)C)c2c1 (chirality)
C#Cc1ccc2cc(C(N)=O)n(C(=O)N3C[C@H]4CC[C@@H](C3)N4C(=O)OC(C)(C)C)c2c1 (3D coordinates assigned)
C#Cc1ccc2cc(C(N)=O)n(C(=O)N3C[C@H]4CC[C@@H](C3)N4C(=O)OC(C)(C)C)c2c1 (nonaromatic ring conformer: 105.0698454866542 kcal/mol)

>  <smiles>  (69) 
C#Cc1ccc2cc(C(N)=O)n(C(=O)N3CC4CCC(C3)N4C(=O)OC(C)(C)C)c2c1

>  <score_type>  (69) 
oracle

>  <origin>  (69) 
adg

>  <m_score__min__energy>  (69) 
-11.69

>  <m_primary>  (69) 
energy

$$$$
69:0
     RDKit          3D

 36 37  0  0  0  0  0  0  0  0999 V2000
   -3.7140   21.4330  -29.3000 C   0  0  0  0  0  0  0  0  0  0  0  0
   -3.4270   22.2490  -30.4830 N   0  0  0  0  0  0  0  0  0  0  0  0
   -2.3180   23.2100  -30.4490 C   0  0  0  0  0  0  0  0  0  0  0  0
   -2.8160   24.7200  -29.5630 P   0  0  0  0  0  0  0  0  0  0  0  0
   -3.5100   24.3560  -28.2720 O   0  0  0  0  0  0  0  0  0  0  0  0
   -3.8760   25.6110  -30.5350 O   0  0  0  0  0  0  0  0  0  0  0  0
   -1.4510   25.6570  -29.2220 O   0  0  0  0  0  0  0  0  0  0  0  0
   -4.3060   22.1880  -31.6260 C   0  0  0  0  0  0  0  0  0  0  0  0
   -3.8370   22.2770  -32.7930 O   0  0  0  0  0  0  0  0  0  0  0  0
   -5.7210   22.0360  -31.4540 N   0  0  0  0  0  0  0  0  0  0  0  0
   -6.6060   22.9680  -31.0050 C   0  0  0  0  0  0  0  0  0  0  0  0
   -6.2390   24.3150  -30.5070 C   0  0  0  0  0  0  0  0  0  0  0  0
   -5.7120   24.4970  -29.1900 N   0  0  0  0  0  0  0  0  0  0  0  0
   -6.3800   25.3210  -31.2510 O   0  0  0  0  0  0  0  0  0  0  0  0
   -7.9040   22.4560  -31.0430 C   0  0  0  0  0  0  0  0  0  0  0  0
   -7.7790   21.1780  -31.5420 C   0  0  0  0  0  0  0  0  0  0  0  0
   -8.7500   20.2200  -31.8150 C   0  0  0  0  0  0  0  0  0  0  0  0
   -8.3320   18.9930  -32.3560 C   0  0  0  0  0  0  0  0  0  0  0  0
   -6.9570   18.7370  -32.6040 C   0  0  0  0  0  0  0  0  0  0  0  0
   -6.5270   17.4380  -33.2350 C   0  0  0  0  0  0  0  0  0  0  0  0
   -6.2390   17.6560  -34.5710 F   0  0  0  0  0  0  0  0  0  0  0  0
   -5.3990   16.9390  -32.6060 F   0  0  0  0  0  0  0  0  0  0  0  0
   -7.5310   16.4930  -33.1380 F   0  0  0  0  0  0  0  0  0  0  0  0
   -6.0040   19.7480  -32.3360 C   0  0  0  0  0  0  0  0  0  0  0  0
   -6.4510   20.9520  -31.7850 C   0  0  0  0  0  0  0  0  0  0  0  0
   -3.5080   22.0186  -28.3919 H   0  0  0  0  0  0  0  0  0  0  0  0
   -4.7720   21.1320  -29.3101 H   0  0  0  0  0  0  0  0  0  0  0  0
   -3.0774   20.5360  -29.3101 H   0  0  0  0  0  0  0  0  0  0  0  0
   -1.4589   22.7544  -29.9348 H   0  0  0  0  0  0  0  0  0  0  0  0
   -2.0431   23.4751  -31.4806 H   0  0  0  0  0  0  0  0  0  0  0  0
   -5.6350   23.7040  -28.5160 H   0  0  0  0  0  0  0  0  0  0  0  0
   -5.4290   25.4490  -28.8700 H   0  0  0  0  0  0  0  0  0  0  0  0
   -8.8305   22.9651  -30.7389 H   0  0  0  0  0  0  0  0  0  0  0  0
   -9.8132   20.4174  -31.6133 H   0  0  0  0  0  0  0  0  0  0  0  0
   -9.0790   18.2204  -32.5906 H   0  0  0  0  0  0  0  0  0  0  0  0
   -4.9378   19.5902  -32.5559 H   0  0  0  0  0  0  0  0  0  0  0  0
  1  2  1  0
  2  3  1  0
  3  4  1  0
  4  5  2  0
  4  6  1  0
  4  7  1  0
  2  8  1  0
  8  9  2  0
  8 10  1  0
 10 11  1  0
 11 12  1  0
 12 13  1  0
 12 14  2  0
 11 15  2  0
 15 16  1  0
 16 17  2  0
 17 18  1  0
 18 19  2  0
 19 20  1  0
 20 21  1  0
 20 22  1  0
 20 23  1  0
 19 24  1  0
 24 25  2  0
 25 10  1  0
 25 16  1  0
  1 26  1  0
  1 27  1  0
  1 28  1  0
  3 29  1  0
  3 30  1  0
 13 31  1  0
 13 32  1  0
 15 33  1  0
 17 34  1  0
 18 35  1  0
 24 36  1  0
M  CHG  2   6  -1   7  -1
M  END
>  <UniqueID>  (70) 
70

>  <SMILES>  (70) 
CN(CP(=O)([O-])[O-])C(=O)n1c(C(N)=O)cc2ccc(C(F)(F)F)cc21

>  <Energy>  (70) 
69.91354446735258

>  <Genealogy>  (70) 
CN(CP(=O)([O-])[O-])C(=O)n1c(C(N)=O)cc2ccc(C(F)(F)F)cc21 (protonated)
CN(CP(=O)([O-])[O-])C(=O)n1c(C(N)=O)cc2ccc(C(F)(F)F)cc21 (3D coordinates assigned)
CN(CP(=O)([O-])[O-])C(=O)n1c(C(N)=O)cc2ccc(C(F)(F)F)cc21 (optimized conformer: 69.91354446735258 kcal/mol)

>  <smiles>  (70) 
CN(CP(=O)(O)O)C(=O)n1c(C(N)=O)cc2ccc(C(F)(F)F)cc21

>  <score_type>  (70) 
oracle

>  <origin>  (70) 
adg

>  <m_score__min__energy>  (70) 
-12.44

>  <m_primary>  (70) 
energy

$$$$
70:0
     RDKit          3D

 33 34  0  0  0  0  0  0  0  0999 V2000
   -1.1690   25.0200  -29.3400 N   0  0  0  0  0  0  0  0  0  0  0  0
   -1.5070   23.6350  -29.3320 C   0  0  0  0  0  0  0  0  0  0  0  0
   -0.5980   22.7770  -29.1810 O   0  0  0  0  0  0  0  0  0  0  0  0
   -2.9160   23.2260  -29.4940 C   0  0  0  0  0  0  0  0  0  0  0  0
   -3.7210   23.4360  -28.5470 O   0  0  0  0  0  0  0  0  0  0  0  0
   -3.4180   22.5860  -30.7300 C   0  0  0  0  0  0  0  0  0  0  0  0
   -2.6270   21.9800  -31.5020 O   0  0  0  0  0  0  0  0  0  0  0  0
   -4.8030   22.6970  -31.0940 N   0  0  0  0  0  0  0  0  0  0  0  0
   -5.5920   23.8070  -31.0710 C   0  0  0  0  0  0  0  0  0  0  0  0
   -5.1990   25.1350  -30.5560 C   0  0  0  0  0  0  0  0  0  0  0  0
   -3.9020   25.6530  -30.8420 N   0  0  0  0  0  0  0  0  0  0  0  0
   -6.0070   25.8310  -29.8850 O   0  0  0  0  0  0  0  0  0  0  0  0
   -6.8720   23.5040  -31.5350 C   0  0  0  0  0  0  0  0  0  0  0  0
   -6.8410   22.1600  -31.8350 C   0  0  0  0  0  0  0  0  0  0  0  0
   -7.8390   21.3300  -32.3350 C   0  0  0  0  0  0  0  0  0  0  0  0
   -7.5190   19.9790  -32.5570 C   0  0  0  0  0  0  0  0  0  0  0  0
   -6.2200   19.4820  -32.2830 C   0  0  0  0  0  0  0  0  0  0  0  0
   -5.9390   18.0900  -32.5310 N   0  0  0  0  0  0  0  0  0  0  0  0
   -6.6290   17.2710  -33.5280 C   0  0  0  0  0  0  0  0  0  0  0  0
   -6.0770   15.8800  -33.5390 C   0  0  0  0  0  0  0  0  0  0  0  0
   -6.5820   15.0060  -34.2920 O   0  0  0  0  0  0  0  0  0  0  0  0
   -4.9960   15.5510  -32.7320 O   0  0  0  0  0  0  0  0  0  0  0  0
   -5.2320   20.3620  -31.7770 C   0  0  0  0  0  0  0  0  0  0  0  0
   -5.5830   21.6980  -31.5560 C   0  0  0  0  0  0  0  0  0  0  0  0
   -1.5870   25.6710  -30.0430 H   0  0  0  0  0  0  0  0  0  0  0  0
   -3.0530   25.2600  -30.3790 H   0  0  0  0  0  0  0  0  0  0  0  0
   -7.7243   24.1916  -31.6391 H   0  0  0  0  0  0  0  0  0  0  0  0
   -8.8457   21.7179  -32.5497 H   0  0  0  0  0  0  0  0  0  0  0  0
   -8.2882   19.2975  -32.9492 H   0  0  0  0  0  0  0  0  0  0  0  0
   -5.1910   17.6240  -31.9680 H   0  0  0  0  0  0  0  0  0  0  0  0
   -7.7012   17.2327  -33.2853 H   0  0  0  0  0  0  0  0  0  0  0  0
   -6.4799   17.7200  -34.5211 H   0  0  0  0  0  0  0  0  0  0  0  0
   -4.2142   20.0038  -31.5632 H   0  0  0  0  0  0  0  0  0  0  0  0
  1  2  1  0
  2  3  2  0
  2  4  1  0
  4  5  2  0
  4  6  1  0
  6  7  2  0
  6  8  1  0
  8  9  1  0
  9 10  1  0
 10 11  1  0
 10 12  2  0
  9 13  2  0
 13 14  1  0
 14 15  2  0
 15 16  1  0
 16 17  2  0
 17 18  1  0
 18 19  1  0
 19 20  1  0
 20 21  2  0
 20 22  1  0
 17 23  1  0
 23 24  2  0
 24  8  1  0
 24 14  1  0
  1 25  1  0
 11 26  1  0
 13 27  1  0
 15 28  1  0
 16 29  1  0
 18 30  1  0
 19 31  1  0
 19 32  1  0
 23 33  1  0
M  CHG  3   1  -1  11  -1  22  -1
M  END
>  <UniqueID>  (71) 
71

>  <SMILES>  (71) 
[NH-]C(=O)C(=O)C(=O)n1c(C([NH-])=O)cc2ccc(NCC(=O)[O-])cc21

>  <Energy>  (71) 
71.20133743997316

>  <Genealogy>  (71) 
[NH-]C(=O)C(=O)C(=O)n1c(C([NH-])=O)cc2ccc(NCC(=O)[O-])cc21 (protonated)
[NH-]C(=O)C(=O)C(=O)n1c(C([NH-])=O)cc2ccc(NCC(=O)[O-])cc21 (3D coordinates assigned)
[NH-]C(=O)C(=O)C(=O)n1c(C([NH-])=O)cc2ccc(NCC(=O)[O-])cc21 (optimized conformer: 71.20133743997316 kcal/mol)

>  <smiles>  (71) 
NC(=O)C(=O)C(=O)n1c(C(N)=O)cc2ccc(NCC(=O)O)cc21

>  <score_type>  (71) 
oracle

>  <origin>  (71) 
adg

>  <m_score__min__energy>  (71) 
-11.609999999999999

>  <m_primary>  (71) 
energy

$$$$
71:0
     RDKit          3D

 43 44  0  0  0  0  0  0  0  0999 V2000
   -3.1320   20.7460  -29.1910 C   0  0  0  0  0  0  0  0  0  0  0  0
   -3.1080   21.9840  -29.6970 C   0  0  0  0  0  0  0  0  0  0  0  0
   -3.7740   22.2760  -30.9920 C   0  0  0  0  0  0  0  0  0  0  0  0
   -3.0980   22.3270  -32.0550 O   0  0  0  0  0  0  0  0  0  0  0  0
   -5.1810   22.5380  -31.0580 N   0  0  0  0  0  0  0  0  0  0  0  0
   -5.8180   23.7060  -30.7690 C   0  0  0  0  0  0  0  0  0  0  0  0
   -5.1820   24.9270  -30.2320 C   0  0  0  0  0  0  0  0  0  0  0  0
   -3.8700   25.3100  -30.6340 N   0  0  0  0  0  0  0  0  0  0  0  0
   -5.8010   25.6400  -29.3980 O   0  0  0  0  0  0  0  0  0  0  0  0
   -7.1810   23.5940  -31.0370 C   0  0  0  0  0  0  0  0  0  0  0  0
   -7.3560   22.3110  -31.5110 C   0  0  0  0  0  0  0  0  0  0  0  0
   -8.5110   21.6620  -31.9360 C   0  0  0  0  0  0  0  0  0  0  0  0
   -8.3920   20.3350  -32.3790 C   0  0  0  0  0  0  0  0  0  0  0  0
   -7.1320   19.6850  -32.3920 C   0  0  0  0  0  0  0  0  0  0  0  0
   -7.0380   18.2430  -32.8180 C   0  0  0  0  0  0  0  0  0  0  0  0
   -6.1310   18.0650  -34.0000 C   0  0  0  0  0  0  0  0  0  0  0  0
   -6.0490   18.9590  -34.8870 O   0  0  0  0  0  0  0  0  0  0  0  0
   -5.3170   16.9310  -34.0650 O   0  0  0  0  0  0  0  0  0  0  0  0
   -4.9520   16.1830  -32.9100 C   0  0  0  0  0  0  0  0  0  0  0  0
   -5.9800   20.3780  -31.9570 C   0  0  0  0  0  0  0  0  0  0  0  0
   -6.1310   21.6970  -31.5170 C   0  0  0  0  0  0  0  0  0  0  0  0
   -2.2990   23.2660  -28.7790 S   0  0  0  0  0  0  0  0  0  0  0  0
   -1.4660   24.1110  -29.7020 O   0  0  0  0  0  0  0  0  0  0  0  0
   -1.3810   22.6590  -27.7540 O   0  0  0  0  0  0  0  0  0  0  0  0
   -3.4770   24.2700  -27.9870 N   0  0  0  0  0  0  0  0  0  0  0  0
   -2.8580   24.9430  -26.8450 C   0  0  0  0  0  0  0  0  0  0  0  0
   -1.6450   25.6440  -27.2720 C   0  0  0  0  0  0  0  0  0  0  0  0
   -0.6850   26.2010  -27.6000 N   0  0  0  0  0  0  0  0  0  0  0  0
   -2.6374   20.5343  -28.2315 H   0  0  0  0  0  0  0  0  0  0  0  0
   -3.6463   19.9396  -29.7343 H   0  0  0  0  0  0  0  0  0  0  0  0
   -3.0700   25.2780  -29.9630 H   0  0  0  0  0  0  0  0  0  0  0  0
   -7.9532   24.3653  -30.8996 H   0  0  0  0  0  0  0  0  0  0  0  0
   -9.4856   22.1719  -31.9253 H   0  0  0  0  0  0  0  0  0  0  0  0
   -9.2867   19.7934  -32.7199 H   0  0  0  0  0  0  0  0  0  0  0  0
   -6.6480   17.6491  -31.9782 H   0  0  0  0  0  0  0  0  0  0  0  0
   -8.0447   17.9077  -33.1082 H   0  0  0  0  0  0  0  0  0  0  0  0
   -5.2270   16.7465  -32.0062 H   0  0  0  0  0  0  0  0  0  0  0  0
   -5.4807   15.2184  -32.9157 H   0  0  0  0  0  0  0  0  0  0  0  0
   -3.8663   16.0061  -32.9157 H   0  0  0  0  0  0  0  0  0  0  0  0
   -4.9923   19.8938  -31.9642 H   0  0  0  0  0  0  0  0  0  0  0  0
   -3.7660   24.9980  -28.6810 H   0  0  0  0  0  0  0  0  0  0  0  0
   -3.5679   25.6688  -26.4216 H   0  0  0  0  0  0  0  0  0  0  0  0
   -2.5924   24.1931  -26.0853 H   0  0  0  0  0  0  0  0  0  0  0  0
  1  2  2  0
  2  3  1  0
  3  4  2  0
  3  5  1  0
  5  6  1  0
  6  7  1  0
  7  8  1  0
  7  9  2  0
  6 10  2  0
 10 11  1  0
 11 12  2  0
 12 13  1  0
 13 14  2  0
 14 15  1  0
 15 16  1  0
 16 17  2  0
 16 18  1  0
 18 19  1  0
 14 20  1  0
 20 21  2  0
  2 22  1  0
 22 23  2  0
 22 24  2  0
 22 25  1  0
 25 26  1  0
 26 27  1  0
 27 28  3  0
 21  5  1  0
 21 11  1  0
  1 29  1  0
  1 30  1  0
  8 31  1  0
 10 32  1  0
 12 33  1  0
 13 34  1  0
 15 35  1  0
 15 36  1  0
 19 37  1  0
 19 38  1  0
 19 39  1  0
 20 40  1  0
 25 41  1  0
 26 42  1  0
 26 43  1  0
M  CHG  1   8  -1
M  END
>  <UniqueID>  (72) 
72

>  <SMILES>  (72) 
C=C(C(=O)n1c(C([NH-])=O)cc2ccc(CC(=O)OC)cc21)S(=O)(=O)NCC#N

>  <Energy>  (72) 
74.62915750653114

>  <Genealogy>  (72) 
C=C(C(=O)n1c(C([NH-])=O)cc2ccc(CC(=O)OC)cc21)S(=O)(=O)NCC#N (protonated)
C=C(C(=O)n1c(C([NH-])=O)cc2ccc(CC(=O)OC)cc21)S(=O)(=O)NCC#N (3D coordinates assigned)
C=C(C(=O)n1c(C([NH-])=O)cc2ccc(CC(=O)OC)cc21)S(=O)(=O)NCC#N (optimized conformer: 74.62915750653114 kcal/mol)

>  <smiles>  (72) 
C=C(C(=O)n1c(C(N)=O)cc2ccc(CC(=O)OC)cc21)S(=O)(=O)NCC#N

>  <score_type>  (72) 
oracle

>  <origin>  (72) 
adg

>  <m_score__min__energy>  (72) 
-11.289999999999999

>  <m_primary>  (72) 
energy

$$$$
72:0
     RDKit          3D

 63 65  0  0  0  0  0  0  0  0999 V2000
    1.0130   15.9210  -28.0140 C   0  0  0  0  0  0  0  0  0  0  0  0
    1.0180   17.4470  -28.2170 C   0  0  0  0  0  0  0  0  0  0  0  0
   -0.1840   18.0550  -27.4670 C   0  0  0  0  0  0  0  0  0  0  0  0
    2.3170   18.0750  -27.6750 C   0  0  0  0  0  0  0  0  0  0  0  0
    0.8530   17.7710  -29.6060 O   0  0  0  0  0  0  0  0  0  0  0  0
    0.9140   19.0560  -30.1750 C   0  0  0  0  0  0  0  0  0  0  0  0
    1.5850   19.9720  -29.6210 O   0  0  0  0  0  0  0  0  0  0  0  0
    0.1810   19.3250  -31.3830 N   0  0  0  0  0  0  0  0  0  0  0  0
   -0.4930   18.2110  -32.0690 C   0  0  0  0  0  0  0  0  0  0  0  0
   -1.2940   18.7010  -33.2770 C   0  0  0  0  0  0  0  0  0  0  0  0
   -2.0550   19.8990  -32.8980 N   0  0  0  0  0  0  0  0  0  0  0  0
   -3.4990   19.8860  -32.9010 C   0  0  0  0  0  0  0  0  0  0  0  0
   -4.2010   18.7130  -33.2730 C   0  0  0  0  0  0  0  0  0  0  0  0
   -5.6080   18.6880  -33.2630 C   0  0  0  0  0  0  0  0  0  0  0  0
   -6.2810   19.8470  -32.8880 C   0  0  0  0  0  0  0  0  0  0  0  0
   -7.6310   20.0820  -32.7270 C   0  0  0  0  0  0  0  0  0  0  0  0
   -7.7210   21.3990  -32.2820 C   0  0  0  0  0  0  0  0  0  0  0  0
   -8.9940   22.0690  -31.9650 C   0  0  0  0  0  0  0  0  0  0  0  0
   -9.1810   23.4550  -32.2480 N   0  0  0  0  0  0  0  0  0  0  0  0
   -9.9410   21.4080  -31.4620 O   0  0  0  0  0  0  0  0  0  0  0  0
   -6.4890   21.9650  -32.2000 N   0  0  0  0  0  0  0  0  0  0  0  0
   -6.1570   23.2110  -31.5640 C   0  0  0  0  0  0  0  0  0  0  0  0
   -6.5190   24.2980  -32.0970 O   0  0  0  0  0  0  0  0  0  0  0  0
   -5.3400   23.2290  -30.3000 C   0  0  0  0  0  0  0  0  0  0  0  0
   -4.3430   24.3600  -30.2940 C   0  0  0  0  0  0  0  0  0  0  0  0
   -4.4290   25.2570  -31.1730 O   0  0  0  0  0  0  0  0  0  0  0  0
   -3.3230   24.4710  -29.2930 N   0  0  0  0  0  0  0  0  0  0  0  0
   -2.0430   23.7770  -29.3130 C   0  0  0  0  0  0  0  0  0  0  0  0
   -0.9480   24.7300  -28.9580 C   0  0  0  0  0  0  0  0  0  0  0  0
   -1.1830   26.1370  -28.9680 N   0  0  0  0  0  0  0  0  0  0  0  0
    0.1740   24.2870  -28.5940 O   0  0  0  0  0  0  0  0  0  0  0  0
   -5.6150   20.9950  -32.5450 C   0  0  0  0  0  0  0  0  0  0  0  0
   -4.2200   21.0480  -32.5480 C   0  0  0  0  0  0  0  0  0  0  0  0
   -1.3490   21.0400  -32.2960 C   0  0  0  0  0  0  0  0  0  0  0  0
    0.1070   20.6850  -31.9440 C   0  0  0  0  0  0  0  0  0  0  0  0
    1.0123   15.6943  -26.9376 H   0  0  0  0  0  0  0  0  0  0  0  0
    0.1134   15.4921  -28.4797 H   0  0  0  0  0  0  0  0  0  0  0  0
    1.9097   15.4862  -28.4797 H   0  0  0  0  0  0  0  0  0  0  0  0
   -0.0197   17.9719  -26.3825 H   0  0  0  0  0  0  0  0  0  0  0  0
   -0.2896   19.1149  -27.7417 H   0  0  0  0  0  0  0  0  0  0  0  0
   -1.1004   17.5120  -27.7417 H   0  0  0  0  0  0  0  0  0  0  0  0
    2.2977   18.0657  -26.5752 H   0  0  0  0  0  0  0  0  0  0  0  0
    3.1811   17.4952  -28.0315 H   0  0  0  0  0  0  0  0  0  0  0  0
    2.3993   19.1124  -28.0315 H   0  0  0  0  0  0  0  0  0  0  0  0
    0.2646   17.4903  -32.4106 H   0  0  0  0  0  0  0  0  0  0  0  0
   -1.1896   17.7392  -31.3604 H   0  0  0  0  0  0  0  0  0  0  0  0
   -0.6061   18.9470  -34.0994 H   0  0  0  0  0  0  0  0  0  0  0  0
   -1.9863   17.9121  -33.6061 H   0  0  0  0  0  0  0  0  0  0  0  0
   -3.6416   17.8143  -33.5721 H   0  0  0  0  0  0  0  0  0  0  0  0
   -6.1599   17.7787  -33.5435 H   0  0  0  0  0  0  0  0  0  0  0  0
   -8.4581   19.3805  -32.9105 H   0  0  0  0  0  0  0  0  0  0  0  0
  -10.0480   23.9460  -31.9340 H   0  0  0  0  0  0  0  0  0  0  0  0
   -8.5140   23.9710  -32.8620 H   0  0  0  0  0  0  0  0  0  0  0  0
   -6.0164   23.3460  -29.4405 H   0  0  0  0  0  0  0  0  0  0  0  0
   -4.7834   22.2822  -30.2390 H   0  0  0  0  0  0  0  0  0  0  0  0
   -2.0620   22.9537  -28.5837 H   0  0  0  0  0  0  0  0  0  0  0  0
   -1.8628   23.3738  -30.3205 H   0  0  0  0  0  0  0  0  0  0  0  0
   -0.8690   26.7150  -29.7760 H   0  0  0  0  0  0  0  0  0  0  0  0
   -3.6931   21.9759  -32.2809 H   0  0  0  0  0  0  0  0  0  0  0  0
   -1.3496   21.8769  -33.0099 H   0  0  0  0  0  0  0  0  0  0  0  0
   -1.8699   21.3151  -31.3670 H   0  0  0  0  0  0  0  0  0  0  0  0
    0.7230   20.7361  -32.8539 H   0  0  0  0  0  0  0  0  0  0  0  0
    0.4788   21.4009  -31.1962 H   0  0  0  0  0  0  0  0  0  0  0  0
  1  2  1  0
  2  3  1  0
  2  4  1  0
  2  5  1  0
  5  6  1  0
  6  7  2  0
  6  8  1  0
  8  9  1  0
  9 10  1  0
 10 11  1  0
 11 12  1  0
 12 13  2  0
 13 14  1  0
 14 15  2  0
 15 16  1  0
 16 17  2  0
 17 18  1  0
 18 19  1  0
 18 20  2  0
 17 21  1  0
 21 22  1  0
 22 23  2  0
 22 24  1  0
 24 25  1  0
 25 26  2  0
 25 27  1  0
 27 28  1  0
 28 29  1  0
 29 30  1  0
 29 31  2  0
 21 32  1  0
 32 33  2  0
 11 34  1  0
 34 35  1  0
 35  8  1  0
 33 12  1  0
 32 15  1  0
  1 36  1  0
  1 37  1  0
  1 38  1  0
  3 39  1  0
  3 40  1  0
  3 41  1  0
  4 42  1  0
  4 43  1  0
  4 44  1  0
  9 45  1  0
  9 46  1  0
 10 47  1  0
 10 48  1  0
 13 49  1  0
 14 50  1  0
 16 51  1  0
 19 52  1  0
 19 53  1  0
 24 54  1  0
 24 55  1  0
 28 56  1  0
 28 57  1  0
 30 58  1  0
 33 59  1  0
 34 60  1  0
 34 61  1  0
 35 62  1  0
 35 63  1  0
M  CHG  2  27  -1  30  -1
M  END
>  <UniqueID>  (73) 
73

>  <SMILES>  (73) 
CC(C)(C)OC(=O)N1CCN(c2ccc3cc(C(N)=O)n(C(=O)CC(=O)[N-]CC([NH-])=O)c3c2)CC1

>  <Energy>  (73) 
101.12146130440468

>  <Genealogy>  (73) 
CC(C)(C)OC(=O)N1CCN(c2ccc3cc(C(N)=O)n(C(=O)CC(=O)[N-]CC([NH-])=O)c3c2)CC1 (protonated)
CC(C)(C)OC(=O)N1CCN(c2ccc3cc(C(N)=O)n(C(=O)CC(=O)[N-]CC([NH-])=O)c3c2)CC1 (3D coordinates assigned)
CC(C)(C)OC(=O)N1CCN(c2ccc3cc(C(N)=O)n(C(=O)CC(=O)[N-]CC([NH-])=O)c3c2)CC1 (nonaromatic ring conformer: 101.12146130440468 kcal/mol)

>  <smiles>  (73) 
CC(C)(C)OC(=O)N1CCN(c2ccc3cc(C(N)=O)n(C(=O)CC(=O)NCC(N)=O)c3c2)CC1

>  <score_type>  (73) 
oracle

>  <origin>  (73) 
adg

>  <m_score__min__energy>  (73) 
-13.140000000000001

>  <m_primary>  (73) 
energy

$$$$
73:0
     RDKit          3D

 40 41  0  0  0  0  0  0  0  0999 V2000
   -2.5590   19.9700  -33.7810 C   0  0  0  0  0  0  0  0  0  0  0  0
   -3.1330   20.7370  -32.6720 N   0  0  0  0  0  0  0  0  0  0  0  0
   -2.6370   20.5330  -31.3340 C   0  0  0  0  0  0  0  0  0  0  0  0
   -1.6260   19.8030  -31.1380 O   0  0  0  0  0  0  0  0  0  0  0  0
   -3.2890   21.1260  -30.2470 O   0  0  0  0  0  0  0  0  0  0  0  0
   -2.7550   22.2250  -29.5140 C   0  0  0  0  0  0  0  0  0  0  0  0
   -2.5080   23.3230  -30.3640 O   0  0  0  0  0  0  0  0  0  0  0  0
   -3.1150   24.7440  -29.6350 P   0  0  0  0  0  0  0  0  0  0  0  0
   -4.1170   24.3970  -28.5570 O   0  0  0  0  0  0  0  0  0  0  0  0
   -1.8530   25.6480  -28.9630 O   0  0  0  0  0  0  0  0  0  0  0  0
   -3.8820   25.6760  -30.8180 O   0  0  0  0  0  0  0  0  0  0  0  0
   -4.3220   21.5190  -32.8970 C   0  0  0  0  0  0  0  0  0  0  0  0
   -4.2290   22.6750  -33.3930 O   0  0  0  0  0  0  0  0  0  0  0  0
   -5.6200   21.0010  -32.5630 N   0  0  0  0  0  0  0  0  0  0  0  0
   -6.5980   21.6100  -31.8360 C   0  0  0  0  0  0  0  0  0  0  0  0
   -6.5770   23.0100  -31.3630 C   0  0  0  0  0  0  0  0  0  0  0  0
   -5.5130   23.5030  -30.5490 N   0  0  0  0  0  0  0  0  0  0  0  0
   -7.4970   23.7950  -31.7170 O   0  0  0  0  0  0  0  0  0  0  0  0
   -7.6390   20.7230  -31.5760 C   0  0  0  0  0  0  0  0  0  0  0  0
   -7.2700   19.5430  -32.1820 C   0  0  0  0  0  0  0  0  0  0  0  0
   -7.9180   18.3120  -32.2170 C   0  0  0  0  0  0  0  0  0  0  0  0
   -7.2750   17.2470  -32.8680 C   0  0  0  0  0  0  0  0  0  0  0  0
   -5.9900   17.4200  -33.4480 C   0  0  0  0  0  0  0  0  0  0  0  0
   -5.3190   16.2770  -34.1670 C   0  0  0  0  0  0  0  0  0  0  0  0
   -6.2460   15.3180  -34.5350 F   0  0  0  0  0  0  0  0  0  0  0  0
   -4.6930   16.7580  -35.3020 F   0  0  0  0  0  0  0  0  0  0  0  0
   -4.3760   15.6770  -33.3510 F   0  0  0  0  0  0  0  0  0  0  0  0
   -5.3770   18.6930  -33.4140 C   0  0  0  0  0  0  0  0  0  0  0  0
   -6.0490   19.7380  -32.7710 C   0  0  0  0  0  0  0  0  0  0  0  0
   -1.9452   19.1498  -33.3805 H   0  0  0  0  0  0  0  0  0  0  0  0
   -3.3696   19.5541  -34.3975 H   0  0  0  0  0  0  0  0  0  0  0  0
   -1.9314   20.6304  -34.3975 H   0  0  0  0  0  0  0  0  0  0  0  0
   -3.4750   22.5246  -28.7382 H   0  0  0  0  0  0  0  0  0  0  0  0
   -1.8046   21.9139  -29.0557 H   0  0  0  0  0  0  0  0  0  0  0  0
   -5.5510   24.4770  -30.1730 H   0  0  0  0  0  0  0  0  0  0  0  0
   -4.6460   22.9440  -30.3940 H   0  0  0  0  0  0  0  0  0  0  0  0
   -8.5596   20.9223  -31.0078 H   0  0  0  0  0  0  0  0  0  0  0  0
   -8.9042   18.1773  -31.7488 H   0  0  0  0  0  0  0  0  0  0  0  0
   -7.7720   16.2676  -32.9295 H   0  0  0  0  0  0  0  0  0  0  0  0
   -4.3952   18.8581  -33.8818 H   0  0  0  0  0  0  0  0  0  0  0  0
  1  2  1  0
  2  3  1  0
  3  4  2  0
  3  5  1  0
  5  6  1  0
  6  7  1  0
  7  8  1  0
  8  9  2  0
  8 10  1  0
  8 11  1  0
  2 12  1  0
 12 13  2  0
 12 14  1  0
 14 15  1  0
 15 16  1  0
 16 17  1  0
 16 18  2  0
 15 19  2  0
 19 20  1  0
 20 21  2  0
 21 22  1  0
 22 23  2  0
 23 24  1  0
 24 25  1  0
 24 26  1  0
 24 27  1  0
 23 28  1  0
 28 29  2  0
 29 14  1  0
 29 20  1  0
  1 30  1  0
  1 31  1  0
  1 32  1  0
  6 33  1  0
  6 34  1  0
 17 35  1  0
 17 36  1  0
 19 37  1  0
 21 38  1  0
 22 39  1  0
 28 40  1  0
M  CHG  2  10  -1  11  -1
M  END
>  <UniqueID>  (74) 
74

>  <SMILES>  (74) 
CN(C(=O)OCOP(=O)([O-])[O-])C(=O)n1c(C(N)=O)cc2ccc(C(F)(F)F)cc21

>  <Energy>  (74) 
77.98619478098186

>  <Genealogy>  (74) 
CN(C(=O)OCOP(=O)([O-])[O-])C(=O)n1c(C(N)=O)cc2ccc(C(F)(F)F)cc21 (protonated)
CN(C(=O)OCOP(=O)([O-])[O-])C(=O)n1c(C(N)=O)cc2ccc(C(F)(F)F)cc21 (3D coordinates assigned)
CN(C(=O)OCOP(=O)([O-])[O-])C(=O)n1c(C(N)=O)cc2ccc(C(F)(F)F)cc21 (optimized conformer: 77.98619478098186 kcal/mol)

>  <smiles>  (74) 
CN(C(=O)OCOP(=O)(O)O)C(=O)n1c(C(N)=O)cc2ccc(C(F)(F)F)cc21

>  <score_type>  (74) 
oracle

>  <origin>  (74) 
adg

>  <m_score__min__energy>  (74) 
-12.210000000000001

>  <m_primary>  (74) 
energy

$$$$
74:0
     RDKit          3D

 36 38  0  0  0  0  0  0  0  0999 V2000
   -7.9770   18.5650  -32.6100 C   0  0  0  0  0  0  0  0  0  0  0  0
   -7.7550   19.9020  -31.9700 C   0  0  0  0  0  0  0  0  0  0  0  0
   -8.8030   20.5290  -31.2510 C   0  0  0  0  0  0  0  0  0  0  0  0
   -8.6160   21.7970  -30.6730 C   0  0  0  0  0  0  0  0  0  0  0  0
   -7.3830   22.4180  -30.8500 C   0  0  0  0  0  0  0  0  0  0  0  0
   -6.9270   23.6340  -30.3910 C   0  0  0  0  0  0  0  0  0  0  0  0
   -5.6200   23.7420  -30.8670 C   0  0  0  0  0  0  0  0  0  0  0  0
   -4.7650   24.9280  -30.6460 C   0  0  0  0  0  0  0  0  0  0  0  0
   -3.6000   24.8520  -29.8290 N   0  0  0  0  0  0  0  0  0  0  0  0
   -5.0500   26.0180  -31.2100 O   0  0  0  0  0  0  0  0  0  0  0  0
   -5.2860   22.6390  -31.5930 N   0  0  0  0  0  0  0  0  0  0  0  0
   -4.0190   22.3360  -32.1940 C   0  0  0  0  0  0  0  0  0  0  0  0
   -3.9300   22.2460  -33.4480 O   0  0  0  0  0  0  0  0  0  0  0  0
   -2.8200   22.1370  -31.3620 C   0  0  0  0  0  0  0  0  0  0  0  0
   -2.1570   20.9460  -31.1470 C   0  0  0  0  0  0  0  0  0  0  0  0
   -1.1360   21.1930  -30.3580 O   0  0  0  0  0  0  0  0  0  0  0  0
   -1.1590   22.4790  -30.0810 C   0  0  0  0  0  0  0  0  0  0  0  0
   -0.1400   23.1680  -29.2330 C   0  0  0  0  0  0  0  0  0  0  0  0
   -0.4830   24.5780  -29.0950 N   0  0  0  0  0  0  0  0  0  0  0  0
   -2.1870   23.1080  -30.6810 N   0  0  0  0  0  0  0  0  0  0  0  0
   -6.3710   21.8370  -31.5680 C   0  0  0  0  0  0  0  0  0  0  0  0
   -6.5210   20.5680  -32.1370 C   0  0  0  0  0  0  0  0  0  0  0  0
   -8.1038   17.8011  -31.8288 H   0  0  0  0  0  0  0  0  0  0  0  0
   -8.8811   18.6035  -33.2355 H   0  0  0  0  0  0  0  0  0  0  0  0
   -7.1090   18.3092  -33.2355 H   0  0  0  0  0  0  0  0  0  0  0  0
   -9.7717   20.0189  -31.1441 H   0  0  0  0  0  0  0  0  0  0  0  0
   -9.4188   22.2829  -30.0990 H   0  0  0  0  0  0  0  0  0  0  0  0
   -7.4765   24.3646  -29.7792 H   0  0  0  0  0  0  0  0  0  0  0  0
   -2.7000   25.2870  -30.1320 H   0  0  0  0  0  0  0  0  0  0  0  0
   -2.4338   19.9656  -31.5619 H   0  0  0  0  0  0  0  0  0  0  0  0
   -0.1157   22.6992  -28.2382 H   0  0  0  0  0  0  0  0  0  0  0  0
    0.8477   23.0798  -29.7090 H   0  0  0  0  0  0  0  0  0  0  0  0
   -1.5260   24.6520  -29.0870 H   0  0  0  0  0  0  0  0  0  0  0  0
   -0.1560   25.0810  -29.9530 H   0  0  0  0  0  0  0  0  0  0  0  0
   -2.4300   24.1230  -30.6270 H   0  0  0  0  0  0  0  0  0  0  0  0
   -5.6993   20.1011  -32.6998 H   0  0  0  0  0  0  0  0  0  0  0  0
  1  2  1  0
  2  3  2  0
  3  4  1  0
  4  5  2  0
  5  6  1  0
  6  7  2  0
  7  8  1  0
  8  9  1  0
  8 10  2  0
  7 11  1  0
 11 12  1  0
 12 13  2  0
 12 14  1  0
 14 15  2  0
 15 16  1  0
 16 17  1  0
 17 18  1  0
 18 19  1  0
 17 20  2  0
 11 21  1  0
 21 22  2  0
 22  2  1  0
 21  5  1  0
 20 14  1  0
  1 23  1  0
  1 24  1  0
  1 25  1  0
  3 26  1  0
  4 27  1  0
  6 28  1  0
  9 29  1  0
 15 30  1  0
 18 31  1  0
 18 32  1  0
 19 33  1  0
 19 34  1  0
 20 35  1  0
 22 36  1  0
M  CHG  2   9  -1  20   1
M  END
>  <UniqueID>  (75) 
75

>  <SMILES>  (75) 
Cc1ccc2cc(C([NH-])=O)n(C(=O)c3coc(CN)[nH+]3)c2c1

>  <Energy>  (75) 
104.45928026704652

>  <Genealogy>  (75) 
Cc1ccc2cc(C([NH-])=O)n(C(=O)c3coc(CN)[nH+]3)c2c1 (protonated)
Cc1ccc2cc(C([NH-])=O)n(C(=O)c3coc(CN)[nH+]3)c2c1 (3D coordinates assigned)
Cc1ccc2cc(C([NH-])=O)n(C(=O)c3coc(CN)[nH+]3)c2c1 (optimized conformer: 104.45928026704652 kcal/mol)

>  <smiles>  (75) 
Cc1ccc2cc(C(N)=O)n(C(=O)c3coc(CN)n3)c2c1

>  <score_type>  (75) 
oracle

>  <origin>  (75) 
adg

>  <m_score__min__energy>  (75) 
-9.3699999999999992

>  <m_primary>  (75) 
energy

$$$$
75:0
     RDKit          3D

 55 56  0  0  0  0  0  0  0  0999 V2000
   -1.4560   20.7280  -30.5610 C   0  0  0  0  0  0  0  0  0  0  0  0
   -1.6960   21.1550  -31.9410 N   0  0  0  0  0  0  0  0  0  0  0  0
   -0.7060   20.8940  -32.9570 C   0  0  0  0  0  0  0  0  0  0  0  0
    0.4520   20.5140  -32.6230 O   0  0  0  0  0  0  0  0  0  0  0  0
   -1.0390   21.0400  -34.3460 N   0  0  0  0  0  0  0  0  0  0  0  0
   -0.0410   20.9370  -35.4070 C   0  0  0  0  0  0  0  0  0  0  0  0
    0.2840   22.3220  -35.9720 C   0  0  0  0  0  0  0  0  0  0  0  0
    1.0890   23.0400  -35.0580 O   0  0  0  0  0  0  0  0  0  0  0  0
    1.7490   24.1070  -35.7100 C   0  0  0  0  0  0  0  0  0  0  0  0
    0.7190   25.0150  -36.3700 C   0  0  0  0  0  0  0  0  0  0  0  0
    0.2940   25.9870  -35.4390 O   0  0  0  0  0  0  0  0  0  0  0  0
   -0.5580   27.2010  -36.2640 S   0  0  0  0  0  0  0  0  0  0  0  0
   -1.3620   28.3080  -35.1190 C   0  0  0  0  0  0  0  0  0  0  0  0
   -1.5780   26.5920  -37.1850 O   0  0  0  0  0  0  0  0  0  0  0  0
    0.4200   27.9960  -37.0840 O   0  0  0  0  0  0  0  0  0  0  0  0
   -2.8640   21.9510  -32.2240 C   0  0  0  0  0  0  0  0  0  0  0  0
   -3.3330   21.9700  -33.3940 O   0  0  0  0  0  0  0  0  0  0  0  0
   -3.5780   22.6910  -31.1610 C   0  0  0  0  0  0  0  0  0  0  0  0
   -2.9400   23.1570  -30.1790 O   0  0  0  0  0  0  0  0  0  0  0  0
   -5.0050   22.8440  -31.2100 N   0  0  0  0  0  0  0  0  0  0  0  0
   -5.7300   23.9690  -30.9440 C   0  0  0  0  0  0  0  0  0  0  0  0
   -5.1820   25.2500  -30.4490 C   0  0  0  0  0  0  0  0  0  0  0  0
   -3.8730   25.6640  -30.8420 N   0  0  0  0  0  0  0  0  0  0  0  0
   -5.8660   25.9940  -29.6950 O   0  0  0  0  0  0  0  0  0  0  0  0
   -7.0870   23.7360  -31.1550 C   0  0  0  0  0  0  0  0  0  0  0  0
   -7.1710   22.4250  -31.5690 C   0  0  0  0  0  0  0  0  0  0  0  0
   -8.2810   21.6670  -31.9270 C   0  0  0  0  0  0  0  0  0  0  0  0
   -8.0670   20.3400  -32.3400 C   0  0  0  0  0  0  0  0  0  0  0  0
   -6.7550   19.8020  -32.4080 C   0  0  0  0  0  0  0  0  0  0  0  0
   -6.5330   18.3680  -32.8180 C   0  0  0  0  0  0  0  0  0  0  0  0
   -5.4780   17.8200  -32.1060 F   0  0  0  0  0  0  0  0  0  0  0  0
   -7.6780   17.6390  -32.5580 F   0  0  0  0  0  0  0  0  0  0  0  0
   -6.2380   18.2770  -34.1690 F   0  0  0  0  0  0  0  0  0  0  0  0
   -5.6570   20.5980  -32.0110 C   0  0  0  0  0  0  0  0  0  0  0  0
   -5.9000   21.9120  -31.5940 C   0  0  0  0  0  0  0  0  0  0  0  0
   -1.8748   21.4731  -29.8686 H   0  0  0  0  0  0  0  0  0  0  0  0
   -1.9394   19.7550  -30.3889 H   0  0  0  0  0  0  0  0  0  0  0  0
   -0.3735   20.6351  -30.3889 H   0  0  0  0  0  0  0  0  0  0  0  0
   -2.0380   21.1770  -34.6170 H   0  0  0  0  0  0  0  0  0  0  0  0
    0.8765   20.4879  -34.9989 H   0  0  0  0  0  0  0  0  0  0  0  0
   -0.4435   20.3082  -36.2148 H   0  0  0  0  0  0  0  0  0  0  0  0
    0.8245   22.2097  -36.9234 H   0  0  0  0  0  0  0  0  0  0  0  0
   -0.6532   22.8733  -36.1384 H   0  0  0  0  0  0  0  0  0  0  0  0
    2.3282   24.6840  -34.9741 H   0  0  0  0  0  0  0  0  0  0  0  0
    2.4271   23.7043  -36.4768 H   0  0  0  0  0  0  0  0  0  0  0  0
    1.1710   25.5123  -37.2408 H   0  0  0  0  0  0  0  0  0  0  0  0
   -0.1433   24.4173  -36.7004 H   0  0  0  0  0  0  0  0  0  0  0  0
   -1.1361   27.9970  -34.0884 H   0  0  0  0  0  0  0  0  0  0  0  0
   -0.9961   29.3326  -35.2813 H   0  0  0  0  0  0  0  0  0  0  0  0
   -2.4495   28.2770  -35.2813 H   0  0  0  0  0  0  0  0  0  0  0  0
   -3.0260   25.2970  -30.3550 H   0  0  0  0  0  0  0  0  0  0  0  0
   -7.9151   24.4474  -31.0198 H   0  0  0  0  0  0  0  0  0  0  0  0
   -9.2947   22.0924  -31.8882 H   0  0  0  0  0  0  0  0  0  0  0  0
   -8.9269   19.7110  -32.6138 H   0  0  0  0  0  0  0  0  0  0  0  0
   -4.6340   20.1940  -32.0292 H   0  0  0  0  0  0  0  0  0  0  0  0
  1  2  1  0
  2  3  1  0
  3  4  2  0
  3  5  1  0
  5  6  1  0
  6  7  1  0
  7  8  1  0
  8  9  1  0
  9 10  1  0
 10 11  1  0
 11 12  1  0
 12 13  1  0
 12 14  2  0
 12 15  2  0
  2 16  1  0
 16 17  2  0
 16 18  1  0
 18 19  2  0
 18 20  1  0
 20 21  1  0
 21 22  1  0
 22 23  1  0
 22 24  2  0
 21 25  2  0
 25 26  1  0
 26 27  2  0
 27 28  1  0
 28 29  2  0
 29 30  1  0
 30 31  1  0
 30 32  1  0
 30 33  1  0
 29 34  1  0
 34 35  2  0
 35 20  1  0
 35 26  1  0
  1 36  1  0
  1 37  1  0
  1 38  1  0
  5 39  1  0
  6 40  1  0
  6 41  1  0
  7 42  1  0
  7 43  1  0
  9 44  1  0
  9 45  1  0
 10 46  1  0
 10 47  1  0
 13 48  1  0
 13 49  1  0
 13 50  1  0
 23 51  1  0
 25 52  1  0
 27 53  1  0
 28 54  1  0
 34 55  1  0
M  CHG  1  23  -1
M  END
>  <UniqueID>  (76) 
76

>  <SMILES>  (76) 
CN(C(=O)NCCOCCOS(C)(=O)=O)C(=O)C(=O)n1c(C([NH-])=O)cc2ccc(C(F)(F)F)cc21

>  <Energy>  (76) 
91.58426581790107

>  <Genealogy>  (76) 
CN(C(=O)NCCOCCOS(C)(=O)=O)C(=O)C(=O)n1c(C([NH-])=O)cc2ccc(C(F)(F)F)cc21 (protonated)
CN(C(=O)NCCOCCOS(C)(=O)=O)C(=O)C(=O)n1c(C([NH-])=O)cc2ccc(C(F)(F)F)cc21 (3D coordinates assigned)
CN(C(=O)NCCOCCOS(C)(=O)=O)C(=O)C(=O)n1c(C([NH-])=O)cc2ccc(C(F)(F)F)cc21 (optimized conformer: 91.58426581790107 kcal/mol)

>  <smiles>  (76) 
CN(C(=O)NCCOCCOS(C)(=O)=O)C(=O)C(=O)n1c(C(N)=O)cc2ccc(C(F)(F)F)cc21

>  <score_type>  (76) 
oracle

>  <origin>  (76) 
adg

>  <m_score__min__energy>  (76) 
-11.67

>  <m_primary>  (76) 
energy

$$$$
76:0
     RDKit          3D

 52 53  0  0  0  0  0  0  0  0999 V2000
   -4.6100   22.6510  -28.5170 C   0  0  0  0  0  0  0  0  0  0  0  0
   -3.5480   22.5410  -29.5180 N   0  0  0  0  0  0  0  0  0  0  0  0
   -2.3280   21.8530  -29.1770 C   0  0  0  0  0  0  0  0  0  0  0  0
   -2.3650   20.7730  -28.5270 O   0  0  0  0  0  0  0  0  0  0  0  0
   -1.0930   22.4010  -29.5440 O   0  0  0  0  0  0  0  0  0  0  0  0
   -0.0970   22.7770  -28.5980 C   0  0  0  0  0  0  0  0  0  0  0  0
    0.2710   24.1430  -28.7840 O   0  0  0  0  0  0  0  0  0  0  0  0
    0.1610   25.1070  -27.7750 C   0  0  0  0  0  0  0  0  0  0  0  0
    1.1600   25.8170  -27.4740 O   0  0  0  0  0  0  0  0  0  0  0  0
   -1.1620   25.2800  -27.0550 C   0  0  0  0  0  0  0  0  0  0  0  0
   -1.2020   24.3070  -25.8600 C   0  0  0  0  0  0  0  0  0  0  0  0
   -1.2500   26.7310  -26.5420 C   0  0  0  0  0  0  0  0  0  0  0  0
   -2.3500   24.9840  -28.0110 C   0  0  0  0  0  0  0  0  0  0  0  0
   -2.0330   25.2980  -29.3430 O   0  0  0  0  0  0  0  0  0  0  0  0
   -3.8210   22.9340  -30.8780 C   0  0  0  0  0  0  0  0  0  0  0  0
   -3.7590   24.1510  -31.2040 O   0  0  0  0  0  0  0  0  0  0  0  0
   -4.1480   21.9530  -31.8750 N   0  0  0  0  0  0  0  0  0  0  0  0
   -3.2890   21.1720  -32.5830 C   0  0  0  0  0  0  0  0  0  0  0  0
   -1.8150   21.2700  -32.5580 C   0  0  0  0  0  0  0  0  0  0  0  0
   -1.0580   20.7930  -31.4430 N   0  0  0  0  0  0  0  0  0  0  0  0
   -1.2140   21.8230  -33.5190 O   0  0  0  0  0  0  0  0  0  0  0  0
   -3.9900   20.2560  -33.3640 C   0  0  0  0  0  0  0  0  0  0  0  0
   -5.3200   20.5050  -33.1110 C   0  0  0  0  0  0  0  0  0  0  0  0
   -6.4590   19.8640  -33.5890 C   0  0  0  0  0  0  0  0  0  0  0  0
   -7.7070   20.2870  -33.1000 C   0  0  0  0  0  0  0  0  0  0  0  0
   -7.7980   21.3370  -32.1490 C   0  0  0  0  0  0  0  0  0  0  0  0
   -9.1440   21.7210  -31.5900 C   0  0  0  0  0  0  0  0  0  0  0  0
   -9.1080   21.6930  -30.2050 F   0  0  0  0  0  0  0  0  0  0  0  0
   -9.4610   23.0030  -32.0040 F   0  0  0  0  0  0  0  0  0  0  0  0
  -10.1360   20.8530  -32.0200 F   0  0  0  0  0  0  0  0  0  0  0  0
   -6.6140   21.9570  -31.6820 C   0  0  0  0  0  0  0  0  0  0  0  0
   -5.3880   21.5280  -32.2030 C   0  0  0  0  0  0  0  0  0  0  0  0
   -4.1705   22.6055  -27.5096 H   0  0  0  0  0  0  0  0  0  0  0  0
   -5.1363   23.6085  -28.6445 H   0  0  0  0  0  0  0  0  0  0  0  0
   -5.3214   21.8217  -28.6445 H   0  0  0  0  0  0  0  0  0  0  0  0
   -0.4936   22.6432  -27.5807 H   0  0  0  0  0  0  0  0  0  0  0  0
    0.7910   22.1440  -28.7422 H   0  0  0  0  0  0  0  0  0  0  0  0
   -1.1785   24.8788  -24.9206 H   0  0  0  0  0  0  0  0  0  0  0  0
   -2.1254   23.7108  -25.9033 H   0  0  0  0  0  0  0  0  0  0  0  0
   -0.3306   23.6370  -25.9033 H   0  0  0  0  0  0  0  0  0  0  0  0
   -1.2500   26.7316  -25.4420 H   0  0  0  0  0  0  0  0  0  0  0  0
   -0.3849   27.3028  -26.9090 H   0  0  0  0  0  0  0  0  0  0  0  0
   -2.1779   27.1940  -26.9090 H   0  0  0  0  0  0  0  0  0  0  0  0
   -2.6022   23.9152  -27.9466 H   0  0  0  0  0  0  0  0  0  0  0  0
   -3.2022   25.6082  -27.7040 H   0  0  0  0  0  0  0  0  0  0  0  0
   -1.6560   24.4760  -29.7540 H   0  0  0  0  0  0  0  0  0  0  0  0
   -1.5250   20.5020  -30.5570 H   0  0  0  0  0  0  0  0  0  0  0  0
   -0.0150   20.8430  -31.4610 H   0  0  0  0  0  0  0  0  0  0  0  0
   -3.5702   19.4957  -34.0391 H   0  0  0  0  0  0  0  0  0  0  0  0
   -6.3849   19.0514  -34.3267 H   0  0  0  0  0  0  0  0  0  0  0  0
   -8.6248   19.7982  -33.4588 H   0  0  0  0  0  0  0  0  0  0  0  0
   -6.6567   22.7566  -30.9278 H   0  0  0  0  0  0  0  0  0  0  0  0
  1  2  1  0
  2  3  1  0
  3  4  2  0
  3  5  1  0
  5  6  1  0
  6  7  1  0
  7  8  1  0
  8  9  2  0
  8 10  1  0
 10 11  1  0
 10 12  1  0
 10 13  1  0
 13 14  1  0
  2 15  1  0
 15 16  2  0
 15 17  1  0
 17 18  1  0
 18 19  1  0
 19 20  1  0
 19 21  2  0
 18 22  2  0
 22 23  1  0
 23 24  2  0
 24 25  1  0
 25 26  2  0
 26 27  1  0
 27 28  1  0
 27 29  1  0
 27 30  1  0
 26 31  1  0
 31 32  2  0
 32 17  1  0
 32 23  1  0
  1 33  1  0
  1 34  1  0
  1 35  1  0
  6 36  1  0
  6 37  1  0
 11 38  1  0
 11 39  1  0
 11 40  1  0
 12 41  1  0
 12 42  1  0
 12 43  1  0
 13 44  1  0
 13 45  1  0
 14 46  1  0
 20 47  1  0
 20 48  1  0
 22 49  1  0
 24 50  1  0
 25 51  1  0
 31 52  1  0
M  END
>  <UniqueID>  (77) 
77

>  <SMILES>  (77) 
CN(C(=O)OCOC(=O)C(C)(C)CO)C(=O)n1c(C(N)=O)cc2ccc(C(F)(F)F)cc21

>  <Energy>  (77) 
84.18809655222452

>  <Genealogy>  (77) 
CN(C(=O)OCOC(=O)C(C)(C)CO)C(=O)n1c(C(N)=O)cc2ccc(C(F)(F)F)cc21 (3D coordinates assigned)
CN(C(=O)OCOC(=O)C(C)(C)CO)C(=O)n1c(C(N)=O)cc2ccc(C(F)(F)F)cc21 (optimized conformer: 84.18809655222452 kcal/mol)

>  <smiles>  (77) 
CN(C(=O)OCOC(=O)C(C)(C)CO)C(=O)n1c(C(N)=O)cc2ccc(C(F)(F)F)cc21

>  <score_type>  (77) 
oracle

>  <origin>  (77) 
adg

>  <m_score__min__energy>  (77) 
-8.5099999999999998

>  <m_primary>  (77) 
energy

$$$$
77:0
     RDKit          3D

 34 35  0  0  0  0  0  0  0  0999 V2000
   -6.0390   25.0800  -29.8300 C   0  0  0  0  0  0  0  0  0  0  0  0
   -5.0770   24.5120  -30.4870 C   0  0  0  0  0  0  0  0  0  0  0  0
   -3.9330   25.3410  -30.6770 O   0  0  0  0  0  0  0  0  0  0  0  0
   -5.0250   23.1530  -31.0460 C   0  0  0  0  0  0  0  0  0  0  0  0
   -3.9230   22.4810  -30.6770 C   0  0  0  0  0  0  0  0  0  0  0  0
   -6.0330   22.6870  -31.9360 C   0  0  0  0  0  0  0  0  0  0  0  0
   -6.5490   23.6280  -32.6900 O   0  0  0  0  0  0  0  0  0  0  0  0
   -6.6080   21.4350  -32.1830 N   0  0  0  0  0  0  0  0  0  0  0  0
   -7.9610   21.2250  -32.0920 C   0  0  0  0  0  0  0  0  0  0  0  0
   -9.0120   22.0640  -31.5690 C   0  0  0  0  0  0  0  0  0  0  0  0
   -9.2110   23.4030  -32.1000 N   0  0  0  0  0  0  0  0  0  0  0  0
   -9.8230   21.7670  -30.6580 O   0  0  0  0  0  0  0  0  0  0  0  0
   -8.2330   19.9360  -32.5570 C   0  0  0  0  0  0  0  0  0  0  0  0
   -7.0800   19.3570  -32.9300 C   0  0  0  0  0  0  0  0  0  0  0  0
   -6.8330   18.1210  -33.4880 C   0  0  0  0  0  0  0  0  0  0  0  0
   -5.5560   17.7560  -33.8480 C   0  0  0  0  0  0  0  0  0  0  0  0
   -4.5560   18.6480  -33.6400 C   0  0  0  0  0  0  0  0  0  0  0  0
   -3.1580   18.2830  -34.0230 C   0  0  0  0  0  0  0  0  0  0  0  0
   -2.6340   17.5890  -32.9370 F   0  0  0  0  0  0  0  0  0  0  0  0
   -2.4050   19.4060  -34.3070 F   0  0  0  0  0  0  0  0  0  0  0  0
   -3.2410   17.4240  -35.1130 F   0  0  0  0  0  0  0  0  0  0  0  0
   -4.8180   19.8790  -33.0820 C   0  0  0  0  0  0  0  0  0  0  0  0
   -6.0750   20.2960  -32.6960 C   0  0  0  0  0  0  0  0  0  0  0  0
   -6.9684   24.5273  -29.6281 H   0  0  0  0  0  0  0  0  0  0  0  0
   -5.9261   26.1147  -29.4742 H   0  0  0  0  0  0  0  0  0  0  0  0
   -3.8050   25.6700  -31.6230 H   0  0  0  0  0  0  0  0  0  0  0  0
   -3.7634   21.4510  -31.0286 H   0  0  0  0  0  0  0  0  0  0  0  0
   -3.1796   22.9604  -30.0231 H   0  0  0  0  0  0  0  0  0  0  0  0
  -10.1670   23.8040  -32.2010 H   0  0  0  0  0  0  0  0  0  0  0  0
   -8.3690   23.9810  -32.3910 H   0  0  0  0  0  0  0  0  0  0  0  0
   -9.2287   19.4713  -32.6091 H   0  0  0  0  0  0  0  0  0  0  0  0
   -7.6651   17.4194  -33.6471 H   0  0  0  0  0  0  0  0  0  0  0  0
   -5.3524   16.7701  -34.2913 H   0  0  0  0  0  0  0  0  0  0  0  0
   -3.9754   20.5708  -32.9353 H   0  0  0  0  0  0  0  0  0  0  0  0
  1  2  2  0
  2  3  1  0
  2  4  1  0
  4  5  2  0
  4  6  1  0
  6  7  2  0
  6  8  1  0
  8  9  1  0
  9 10  1  0
 10 11  1  0
 10 12  2  0
  9 13  2  0
 13 14  1  0
 14 15  2  0
 15 16  1  0
 16 17  2  0
 17 18  1  0
 18 19  1  0
 18 20  1  0
 18 21  1  0
 17 22  1  0
 22 23  2  0
 23  8  1  0
 23 14  1  0
  1 24  1  0
  1 25  1  0
  3 26  1  0
  5 27  1  0
  5 28  1  0
 11 29  1  0
 11 30  1  0
 13 31  1  0
 15 32  1  0
 16 33  1  0
 22 34  1  0
M  END
>  <smiles>  (78) 
C=C(O)C(=C)C(=O)n1c(C(N)=O)cc2ccc(C(F)(F)F)cc21

>  <score_type>  (78) 
oracle

>  <origin>  (78) 
adg

>  <m_score__min__energy>  (78) 
-9

>  <m_primary>  (78) 
energy

$$$$
78:0
     RDKit          3D

 43 44  0  0  0  0  0  0  0  0999 V2000
   -8.1470   18.7640  -32.7240 C   0  0  0  0  0  0  0  0  0  0  0  0
   -7.9590   20.1790  -32.2620 C   0  0  0  0  0  0  0  0  0  0  0  0
   -9.0850   20.9700  -31.9240 C   0  0  0  0  0  0  0  0  0  0  0  0
   -8.9210   22.2810  -31.4470 C   0  0  0  0  0  0  0  0  0  0  0  0
   -7.6240   22.7700  -31.3160 C   0  0  0  0  0  0  0  0  0  0  0  0
   -7.1760   23.9840  -30.8440 C   0  0  0  0  0  0  0  0  0  0  0  0
   -5.7850   23.9160  -30.9100 C   0  0  0  0  0  0  0  0  0  0  0  0
   -4.8930   25.0400  -30.5530 C   0  0  0  0  0  0  0  0  0  0  0  0
   -3.4950   24.9820  -30.8220 N   0  0  0  0  0  0  0  0  0  0  0  0
   -5.3780   26.0800  -30.0350 O   0  0  0  0  0  0  0  0  0  0  0  0
   -5.3900   22.7070  -31.4010 N   0  0  0  0  0  0  0  0  0  0  0  0
   -4.0530   22.2100  -31.5590 C   0  0  0  0  0  0  0  0  0  0  0  0
   -3.7740   21.4620  -32.5360 O   0  0  0  0  0  0  0  0  0  0  0  0
   -3.0370   22.5790  -30.6170 N   0  0  0  0  0  0  0  0  0  0  0  0
   -1.6170   22.3540  -30.8630 C   0  0  0  0  0  0  0  0  0  0  0  0
   -0.9070   22.1360  -29.5660 C   0  0  0  0  0  0  0  0  0  0  0  0
   -0.3330   21.0370  -29.3420 O   0  0  0  0  0  0  0  0  0  0  0  0
   -0.9340   23.1550  -28.5640 N   0  0  0  0  0  0  0  0  0  0  0  0
   -1.8690   23.1380  -27.4460 C   0  0  0  0  0  0  0  0  0  0  0  0
   -2.5770   24.4930  -27.3220 C   0  0  2  0  0  0  0  0  0  0  0  0
   -3.6720   24.5170  -28.1990 O   0  0  0  0  0  0  0  0  0  0  0  0
   -1.6270   25.6680  -27.6280 C   0  0  0  0  0  0  0  0  0  0  0  0
   -1.4680   25.8460  -29.0110 O   0  0  0  0  0  0  0  0  0  0  0  0
   -6.5260   22.0170  -31.6440 C   0  0  0  0  0  0  0  0  0  0  0  0
   -6.6580   20.7020  -32.1020 C   0  0  0  0  0  0  0  0  0  0  0  0
   -8.2350   18.1016  -31.8502 H   0  0  0  0  0  0  0  0  0  0  0  0
   -9.0622   18.6948  -33.3303 H   0  0  0  0  0  0  0  0  0  0  0  0
   -7.2816   18.4582  -33.3303 H   0  0  0  0  0  0  0  0  0  0  0  0
  -10.0969   20.5536  -32.0362 H   0  0  0  0  0  0  0  0  0  0  0  0
   -9.7903   22.9020  -31.1851 H   0  0  0  0  0  0  0  0  0  0  0  0
   -7.7862   24.8280  -30.4901 H   0  0  0  0  0  0  0  0  0  0  0  0
   -2.7990   25.2980  -30.1100 H   0  0  0  0  0  0  0  0  0  0  0  0
   -3.3220   23.0580  -29.7330 H   0  0  0  0  0  0  0  0  0  0  0  0
   -1.4930   21.4665  -31.5009 H   0  0  0  0  0  0  0  0  0  0  0  0
   -1.1915   23.2346  -31.3665 H   0  0  0  0  0  0  0  0  0  0  0  0
   -2.6191   22.3508  -27.6124 H   0  0  0  0  0  0  0  0  0  0  0  0
   -1.3128   22.9392  -26.5180 H   0  0  0  0  0  0  0  0  0  0  0  0
   -2.9186   24.6126  -26.2832 H   0  0  0  0  0  0  0  0  0  0  0  0
   -3.5960   25.3510  -28.7320 H   0  0  0  0  0  0  0  0  0  0  0  0
   -2.0436   26.5886  -27.1934 H   0  0  0  0  0  0  0  0  0  0  0  0
   -0.6431   25.4430  -27.1907 H   0  0  0  0  0  0  0  0  0  0  0  0
   -1.7620   25.0030  -29.4450 H   0  0  0  0  0  0  0  0  0  0  0  0
   -5.7718   20.0920  -32.3313 H   0  0  0  0  0  0  0  0  0  0  0  0
  1  2  1  0
  2  3  2  0
  3  4  1  0
  4  5  2  0
  5  6  1  0
  6  7  2  0
  7  8  1  0
  8  9  1  0
  8 10  2  0
  7 11  1  0
 11 12  1  0
 12 13  2  0
 12 14  1  0
 14 15  1  0
 15 16  1  0
 16 17  2  0
 16 18  1  0
 18 19  1  0
 19 20  1  0
 20 21  1  0
 20 22  1  0
 22 23  1  0
 11 24  1  0
 24 25  2  0
 25  2  1  0
 24  5  1  0
  1 26  1  0
  1 27  1  0
  1 28  1  0
  3 29  1  0
  4 30  1  0
  6 31  1  0
  9 32  1  0
 14 33  1  0
 15 34  1  0
 15 35  1  0
 19 36  1  0
 19 37  1  0
 20 38  1  1
 21 39  1  0
 22 40  1  0
 22 41  1  0
 23 42  1  0
 25 43  1  0
M  CHG  2   9  -1  18  -1
M  END
>  <UniqueID>  (79) 
78

>  <SMILES>  (79) 
Cc1ccc2cc(C([NH-])=O)n(C(=O)NCC(=O)[N-]C[C@H](O)CO)c2c1

>  <Energy>  (79) 
71.91020254257705

>  <Genealogy>  (79) 
Cc1ccc2cc(C([NH-])=O)n(C(=O)NCC(=O)[N-]CC(O)CO)c2c1 (protonated)
Cc1ccc2cc(C([NH-])=O)n(C(=O)NCC(=O)[N-]C[C@H](O)CO)c2c1 (chirality)
Cc1ccc2cc(C([NH-])=O)n(C(=O)NCC(=O)[N-]C[C@H](O)CO)c2c1 (3D coordinates assigned)
Cc1ccc2cc(C([NH-])=O)n(C(=O)NCC(=O)[N-]C[C@H](O)CO)c2c1 (optimized conformer: 71.91020254257705 kcal/mol)

>  <smiles>  (79) 
Cc1ccc2cc(C(N)=O)n(C(=O)NCC(=O)NCC(O)CO)c2c1

>  <score_type>  (79) 
oracle

>  <origin>  (79) 
adg

>  <m_score__min__energy>  (79) 
-10.82

>  <m_primary>  (79) 
energy

$$$$
79:0
     RDKit          3D

 43 44  0  0  0  0  0  0  0  0999 V2000
   -1.6170   20.5480  -26.7110 C   0  0  0  0  0  0  0  0  0  0  0  0
   -1.4580   22.0650  -26.7450 C   0  0  0  0  0  0  0  0  0  0  0  0
   -1.8900   22.6000  -28.0450 N   0  0  0  0  0  0  0  0  0  0  0  0
   -0.9220   23.3560  -28.8550 C   0  0  0  0  0  0  0  0  0  0  0  0
   -1.2180   24.8220  -28.8010 C   0  0  0  0  0  0  0  0  0  0  0  0
   -2.2640   25.2790  -29.3340 O   0  0  0  0  0  0  0  0  0  0  0  0
   -0.3210   25.6930  -28.1960 O   0  0  0  0  0  0  0  0  0  0  0  0
   -3.2380   22.3510  -28.5110 C   0  0  0  0  0  0  0  0  0  0  0  0
   -4.2170   22.7720  -27.8340 O   0  0  0  0  0  0  0  0  0  0  0  0
   -3.4970   21.6400  -29.8200 C   0  0  0  0  0  0  0  0  0  0  0  0
   -4.0100   22.5720  -30.8840 C   0  0  0  0  0  0  0  0  0  0  0  0
   -3.1930   23.1330  -31.6640 O   0  0  0  0  0  0  0  0  0  0  0  0
   -5.4200   22.7630  -31.0730 N   0  0  0  0  0  0  0  0  0  0  0  0
   -6.1610   23.8700  -30.7820 C   0  0  0  0  0  0  0  0  0  0  0  0
   -5.6140   25.1700  -30.3350 C   0  0  0  0  0  0  0  0  0  0  0  0
   -4.2600   25.5310  -30.6130 N   0  0  0  0  0  0  0  0  0  0  0  0
   -6.3380   25.9680  -29.6830 O   0  0  0  0  0  0  0  0  0  0  0  0
   -7.5090   23.6360  -31.0550 C   0  0  0  0  0  0  0  0  0  0  0  0
   -7.5660   22.3450  -31.5300 C   0  0  0  0  0  0  0  0  0  0  0  0
   -8.6580   21.5890  -31.9470 C   0  0  0  0  0  0  0  0  0  0  0  0
   -8.4230   20.2700  -32.3730 C   0  0  0  0  0  0  0  0  0  0  0  0
   -7.1090   19.7390  -32.3840 C   0  0  0  0  0  0  0  0  0  0  0  0
   -6.8770   18.3170  -32.7970 C   0  0  0  0  0  0  0  0  0  0  0  0
   -6.0270   20.5320  -31.9420 C   0  0  0  0  0  0  0  0  0  0  0  0
   -6.2910   21.8430  -31.5330 C   0  0  0  0  0  0  0  0  0  0  0  0
   -1.6528   20.2064  -25.6660 H   0  0  0  0  0  0  0  0  0  0  0  0
   -2.5497   20.2656  -27.2212 H   0  0  0  0  0  0  0  0  0  0  0  0
   -0.7632   20.0783  -27.2212 H   0  0  0  0  0  0  0  0  0  0  0  0
   -2.0714   22.5111  -25.9483 H   0  0  0  0  0  0  0  0  0  0  0  0
   -0.3976   22.3147  -26.5926 H   0  0  0  0  0  0  0  0  0  0  0  0
    0.0914   23.1777  -28.4663 H   0  0  0  0  0  0  0  0  0  0  0  0
   -0.9949   23.0187  -29.8995 H   0  0  0  0  0  0  0  0  0  0  0  0
   -2.5569   21.1878  -30.1690 H   0  0  0  0  0  0  0  0  0  0  0  0
   -4.2681   20.8761  -29.6413 H   0  0  0  0  0  0  0  0  0  0  0  0
   -3.6460   24.9270  -31.2020 H   0  0  0  0  0  0  0  0  0  0  0  0
   -3.8770   26.4370  -30.2620 H   0  0  0  0  0  0  0  0  0  0  0  0
   -8.3479   24.3345  -30.9195 H   0  0  0  0  0  0  0  0  0  0  0  0
   -9.6739   22.0108  -31.9433 H   0  0  0  0  0  0  0  0  0  0  0  0
   -9.2665   19.6445  -32.7007 H   0  0  0  0  0  0  0  0  0  0  0  0
   -6.7742   17.6871  -31.9011 H   0  0  0  0  0  0  0  0  0  0  0  0
   -7.7297   17.9655  -33.3965 H   0  0  0  0  0  0  0  0  0  0  0  0
   -5.9568   18.2548  -33.3965 H   0  0  0  0  0  0  0  0  0  0  0  0
   -5.0037   20.1290  -31.9201 H   0  0  0  0  0  0  0  0  0  0  0  0
  1  2  1  0
  2  3  1  0
  3  4  1  0
  4  5  1  0
  5  6  2  0
  5  7  1  0
  3  8  1  0
  8  9  2  0
  8 10  1  0
 10 11  1  0
 11 12  2  0
 11 13  1  0
 13 14  1  0
 14 15  1  0
 15 16  1  0
 15 17  2  0
 14 18  2  0
 18 19  1  0
 19 20  2  0
 20 21  1  0
 21 22  2  0
 22 23  1  0
 22 24  1  0
 24 25  2  0
 25 13  1  0
 25 19  1  0
  1 26  1  0
  1 27  1  0
  1 28  1  0
  2 29  1  0
  2 30  1  0
  4 31  1  0
  4 32  1  0
 10 33  1  0
 10 34  1  0
 16 35  1  0
 16 36  1  0
 18 37  1  0
 20 38  1  0
 21 39  1  0
 23 40  1  0
 23 41  1  0
 23 42  1  0
 24 43  1  0
M  CHG  1   7  -1
M  END
>  <UniqueID>  (80) 
79

>  <SMILES>  (80) 
CCN(CC(=O)[O-])C(=O)CC(=O)n1c(C(N)=O)cc2ccc(C)cc21

>  <Energy>  (80) 
76.708549344481

>  <Genealogy>  (80) 
CCN(CC(=O)[O-])C(=O)CC(=O)n1c(C(N)=O)cc2ccc(C)cc21 (protonated)
CCN(CC(=O)[O-])C(=O)CC(=O)n1c(C(N)=O)cc2ccc(C)cc21 (3D coordinates assigned)
CCN(CC(=O)[O-])C(=O)CC(=O)n1c(C(N)=O)cc2ccc(C)cc21 (optimized conformer: 76.708549344481 kcal/mol)

>  <smiles>  (80) 
CCN(CC(=O)O)C(=O)CC(=O)n1c(C(N)=O)cc2ccc(C)cc21

>  <score_type>  (80) 
oracle

>  <origin>  (80) 
adg

>  <m_score__min__energy>  (80) 
-11.1

>  <m_primary>  (80) 
energy

$$$$
80:0
     RDKit          3D

 31 32  0  0  0  0  0  0  0  0999 V2000
   -5.7330   23.5640  -29.8730 C   0  0  0  0  0  0  0  0  0  0  0  0
   -4.4280   23.3530  -30.0840 C   0  0  0  0  0  0  0  0  0  0  0  0
   -3.5020   24.5080  -30.1760 C   0  0  0  0  0  0  0  0  0  0  0  0
   -2.3640   24.4610  -29.6380 O   0  0  0  0  0  0  0  0  0  0  0  0
   -3.8810   25.6670  -30.8420 O   0  0  0  0  0  0  0  0  0  0  0  0
   -3.9190   21.9610  -30.2050 C   0  0  0  0  0  0  0  0  0  0  0  0
   -3.4880   21.3580  -29.1840 O   0  0  0  0  0  0  0  0  0  0  0  0
   -3.9170   21.2780  -31.4710 N   0  0  0  0  0  0  0  0  0  0  0  0
   -2.8470   21.0370  -32.2780 C   0  0  0  0  0  0  0  0  0  0  0  0
   -1.4780   21.5600  -32.0600 C   0  0  0  0  0  0  0  0  0  0  0  0
   -1.1270   22.2130  -30.8390 N   0  0  0  0  0  0  0  0  0  0  0  0
   -0.5980   21.4150  -32.9500 O   0  0  0  0  0  0  0  0  0  0  0  0
   -3.2330   20.2770  -33.3820 C   0  0  0  0  0  0  0  0  0  0  0  0
   -4.5830   20.0550  -33.2170 C   0  0  0  0  0  0  0  0  0  0  0  0
   -5.4740   19.3350  -34.0060 C   0  0  0  0  0  0  0  0  0  0  0  0
   -6.8080   19.2420  -33.5750 C   0  0  0  0  0  0  0  0  0  0  0  0
   -7.2300   19.8730  -32.3740 C   0  0  0  0  0  0  0  0  0  0  0  0
   -8.6490   19.7170  -31.8920 C   0  0  0  0  0  0  0  0  0  0  0  0
   -8.8020   18.5300  -31.1960 F   0  0  0  0  0  0  0  0  0  0  0  0
   -8.9630   20.7720  -31.0560 F   0  0  0  0  0  0  0  0  0  0  0  0
   -9.5290   19.7090  -32.9590 F   0  0  0  0  0  0  0  0  0  0  0  0
   -6.2850   20.5730  -31.5890 C   0  0  0  0  0  0  0  0  0  0  0  0
   -4.9690   20.6640  -32.0530 C   0  0  0  0  0  0  0  0  0  0  0  0
   -6.4240   22.7109  -29.8040 H   0  0  0  0  0  0  0  0  0  0  0  0
   -6.1144   24.5905  -29.7687 H   0  0  0  0  0  0  0  0  0  0  0  0
   -0.1480   22.5420  -30.6850 H   0  0  0  0  0  0  0  0  0  0  0  0
   -1.8390   22.4130  -30.1020 H   0  0  0  0  0  0  0  0  0  0  0  0
   -2.5957   19.9290  -34.2083 H   0  0  0  0  0  0  0  0  0  0  0  0
   -5.1444   18.8534  -34.9384 H   0  0  0  0  0  0  0  0  0  0  0  0
   -7.5344   18.6738  -34.1746 H   0  0  0  0  0  0  0  0  0  0  0  0
   -6.5784   21.0355  -30.6350 H   0  0  0  0  0  0  0  0  0  0  0  0
  1  2  2  0
  2  3  1  0
  3  4  2  0
  3  5  1  0
  2  6  1  0
  6  7  2  0
  6  8  1  0
  8  9  1  0
  9 10  1  0
 10 11  1  0
 10 12  2  0
  9 13  2  0
 13 14  1  0
 14 15  2  0
 15 16  1  0
 16 17  2  0
 17 18  1  0
 18 19  1  0
 18 20  1  0
 18 21  1  0
 17 22  1  0
 22 23  2  0
 23  8  1  0
 23 14  1  0
  1 24  1  0
  1 25  1  0
 11 26  1  0
 11 27  1  0
 13 28  1  0
 15 29  1  0
 16 30  1  0
 22 31  1  0
M  CHG  1   5  -1
M  END
>  <UniqueID>  (81) 
80

>  <SMILES>  (81) 
C=C(C(=O)[O-])C(=O)n1c(C(N)=O)cc2ccc(C(F)(F)F)cc21

>  <Energy>  (81) 
72.71168793185628

>  <Genealogy>  (81) 
C=C(C(=O)[O-])C(=O)n1c(C(N)=O)cc2ccc(C(F)(F)F)cc21 (protonated)
C=C(C(=O)[O-])C(=O)n1c(C(N)=O)cc2ccc(C(F)(F)F)cc21 (3D coordinates assigned)
C=C(C(=O)[O-])C(=O)n1c(C(N)=O)cc2ccc(C(F)(F)F)cc21 (optimized conformer: 72.71168793185628 kcal/mol)

>  <smiles>  (81) 
C=C(C(=O)O)C(=O)n1c(C(N)=O)cc2ccc(C(F)(F)F)cc21

>  <score_type>  (81) 
oracle

>  <origin>  (81) 
adg

>  <m_score__min__energy>  (81) 
-10.220000000000001

>  <m_primary>  (81) 
energy

$$$$
81:0
     RDKit          3D

 36 37  0  0  0  0  0  0  0  0999 V2000
   -4.2450   24.9260  -26.5200 C   0  0  0  0  0  0  0  0  0  0  0  0
   -3.5280   24.8950  -27.7890 N   0  0  0  0  0  0  0  0  0  0  0  0
   -2.1750   24.4400  -27.8830 C   0  0  0  0  0  0  0  0  0  0  0  0
   -1.5750   24.0240  -26.8550 O   0  0  0  0  0  0  0  0  0  0  0  0
   -1.5370   24.4500  -29.1280 O   0  0  0  0  0  0  0  0  0  0  0  0
   -1.6030   23.3730  -30.0600 C   0  0  0  0  0  0  0  0  0  0  0  0
   -2.9260   22.8400  -30.0960 O   0  0  0  0  0  0  0  0  0  0  0  0
   -3.6540   22.6370  -31.2740 C   0  0  0  0  0  0  0  0  0  0  0  0
   -3.0700   22.3000  -32.3400 O   0  0  0  0  0  0  0  0  0  0  0  0
   -5.0770   22.8260  -31.2700 N   0  0  0  0  0  0  0  0  0  0  0  0
   -5.7680   23.9630  -30.9720 C   0  0  0  0  0  0  0  0  0  0  0  0
   -5.1890   25.2130  -30.4380 C   0  0  0  0  0  0  0  0  0  0  0  0
   -3.8700   25.6030  -30.8160 N   0  0  0  0  0  0  0  0  0  0  0  0
   -5.8580   25.9590  -29.6760 O   0  0  0  0  0  0  0  0  0  0  0  0
   -7.1340   23.7690  -31.1710 C   0  0  0  0  0  0  0  0  0  0  0  0
   -7.2600   22.4680  -31.6000 C   0  0  0  0  0  0  0  0  0  0  0  0
   -8.3960   21.7510  -31.9630 C   0  0  0  0  0  0  0  0  0  0  0  0
   -8.2270   20.4280  -32.4040 C   0  0  0  0  0  0  0  0  0  0  0  0
   -6.9340   19.8510  -32.4800 C   0  0  0  0  0  0  0  0  0  0  0  0
   -6.7730   18.4420  -32.9740 C   0  0  0  0  0  0  0  0  0  0  0  0
   -7.9460   17.7380  -32.7700 F   0  0  0  0  0  0  0  0  0  0  0  0
   -6.4770   18.4540  -34.3250 F   0  0  0  0  0  0  0  0  0  0  0  0
   -5.8040   20.6110  -32.1050 C   0  0  0  0  0  0  0  0  0  0  0  0
   -6.0050   21.9200  -31.6510 C   0  0  0  0  0  0  0  0  0  0  0  0
   -3.5234   24.8948  -25.6903 H   0  0  0  0  0  0  0  0  0  0  0  0
   -4.8375   25.8506  -26.4561 H   0  0  0  0  0  0  0  0  0  0  0  0
   -4.9151   24.0560  -26.4561 H   0  0  0  0  0  0  0  0  0  0  0  0
   -4.0130   25.2230  -28.6550 H   0  0  0  0  0  0  0  0  0  0  0  0
   -1.3306   23.7398  -31.0606 H   0  0  0  0  0  0  0  0  0  0  0  0
   -0.9035   22.5830  -29.7494 H   0  0  0  0  0  0  0  0  0  0  0  0
   -3.0370   25.0700  -30.4830 H   0  0  0  0  0  0  0  0  0  0  0  0
   -7.9404   24.5012  -31.0175 H   0  0  0  0  0  0  0  0  0  0  0  0
   -9.3958   22.2063  -31.9064 H   0  0  0  0  0  0  0  0  0  0  0  0
   -9.1064   19.8338  -32.6932 H   0  0  0  0  0  0  0  0  0  0  0  0
   -5.9542   17.9582  -32.4213 H   0  0  0  0  0  0  0  0  0  0  0  0
   -4.7917   20.1852  -32.1681 H   0  0  0  0  0  0  0  0  0  0  0  0
  1  2  1  0
  2  3  1  0
  3  4  2  0
  3  5  1  0
  5  6  1  0
  6  7  1  0
  7  8  1  0
  8  9  2  0
  8 10  1  0
 10 11  1  0
 11 12  1  0
 12 13  1  0
 12 14  2  0
 11 15  2  0
 15 16  1  0
 16 17  2  0
 17 18  1  0
 18 19  2  0
 19 20  1  0
 20 21  1  0
 20 22  1  0
 19 23  1  0
 23 24  2  0
 24 10  1  0
 24 16  1  0
  1 25  1  0
  1 26  1  0
  1 27  1  0
  2 28  1  0
  6 29  1  0
  6 30  1  0
 13 31  1  0
 15 32  1  0
 17 33  1  0
 18 34  1  0
 20 35  1  0
 23 36  1  0
M  CHG  1  13  -1
M  END
>  <UniqueID>  (82) 
81

>  <SMILES>  (82) 
CNC(=O)OCOC(=O)n1c(C([NH-])=O)cc2ccc(C(F)F)cc21

>  <Energy>  (82) 
70.19471415531414

>  <Genealogy>  (82) 
CNC(=O)OCOC(=O)n1c(C([NH-])=O)cc2ccc(C(F)F)cc21 (protonated)
CNC(=O)OCOC(=O)n1c(C([NH-])=O)cc2ccc(C(F)F)cc21 (3D coordinates assigned)
CNC(=O)OCOC(=O)n1c(C([NH-])=O)cc2ccc(C(F)F)cc21 (optimized conformer: 70.19471415531414 kcal/mol)

>  <smiles>  (82) 
CNC(=O)OCOC(=O)n1c(C(N)=O)cc2ccc(C(F)F)cc21

>  <score_type>  (82) 
oracle

>  <origin>  (82) 
adg

>  <m_score__min__energy>  (82) 
-9.1099999999999994

>  <m_primary>  (82) 
energy

$$$$
82:0
     RDKit          3D

 31 33  0  0  0  0  0  0  0  0999 V2000
   -4.5140   25.6890  -30.8130 N   0  0  0  0  0  0  0  0  0  0  0  0
   -5.7880   25.1520  -30.4630 C   0  0  0  0  0  0  0  0  0  0  0  0
   -6.5510   25.8110  -29.7100 O   0  0  0  0  0  0  0  0  0  0  0  0
   -6.1900   23.8210  -30.9650 C   0  0  0  0  0  0  0  0  0  0  0  0
   -7.4960   23.4840  -31.3210 C   0  0  0  0  0  0  0  0  0  0  0  0
   -7.4220   22.1900  -31.7920 C   0  0  0  0  0  0  0  0  0  0  0  0
   -8.4210   21.3510  -32.2710 C   0  0  0  0  0  0  0  0  0  0  0  0
   -8.0560   20.0550  -32.6730 C   0  0  0  0  0  0  0  0  0  0  0  0
   -6.7070   19.6170  -32.5880 C   0  0  0  0  0  0  0  0  0  0  0  0
   -6.3540   18.2410  -33.0110 C   0  0  0  0  0  0  0  0  0  0  0  0
   -5.9300   17.2760  -32.1720 N   0  0  0  0  0  0  0  0  0  0  0  0
   -5.7260   16.2140  -32.9380 N   0  0  0  0  0  0  0  0  0  0  0  0
   -6.0120   16.5060  -34.1980 N   0  0  0  0  0  0  0  0  0  0  0  0
   -6.4060   17.7640  -34.2680 N   0  0  0  0  0  0  0  0  0  0  0  0
   -5.7210   20.5040  -32.0950 C   0  0  0  0  0  0  0  0  0  0  0  0
   -6.1150   21.7900  -31.7120 C   0  0  0  0  0  0  0  0  0  0  0  0
   -5.3490   22.7770  -31.2040 N   0  0  0  0  0  0  0  0  0  0  0  0
   -3.9440   22.6950  -30.9300 C   0  0  0  0  0  0  0  0  0  0  0  0
   -3.1580   22.2680  -31.8180 O   0  0  0  0  0  0  0  0  0  0  0  0
   -3.4220   22.9990  -29.5600 C   0  0  0  0  0  0  0  0  0  0  0  0
   -2.2040   23.8580  -29.6640 C   0  0  0  0  0  0  0  0  0  0  0  0
   -1.1160   23.3660  -30.0650 O   0  0  0  0  0  0  0  0  0  0  0  0
   -2.2800   25.2140  -29.3690 O   0  0  0  0  0  0  0  0  0  0  0  0
   -3.8650   26.0490  -30.0800 H   0  0  0  0  0  0  0  0  0  0  0  0
   -8.3932   24.1155  -31.2427 H   0  0  0  0  0  0  0  0  0  0  0  0
   -9.4653   21.6910  -32.3335 H   0  0  0  0  0  0  0  0  0  0  0  0
   -8.8253   19.3700  -33.0589 H   0  0  0  0  0  0  0  0  0  0  0  0
   -6.6910   18.2500  -35.1460 H   0  0  0  0  0  0  0  0  0  0  0  0
   -4.6699   20.1896  -32.0149 H   0  0  0  0  0  0  0  0  0  0  0  0
   -4.1948   23.5287  -28.9835 H   0  0  0  0  0  0  0  0  0  0  0  0
   -3.1620   22.0584  -29.0524 H   0  0  0  0  0  0  0  0  0  0  0  0
  1  2  1  0
  2  3  2  0
  2  4  1  0
  4  5  2  0
  5  6  1  0
  6  7  2  0
  7  8  1  0
  8  9  2  0
  9 10  1  0
 10 11  2  0
 11 12  1  0
 12 13  1  0
 13 14  2  0
  9 15  1  0
 15 16  2  0
 16 17  1  0
 17 18  1  0
 18 19  2  0
 18 20  1  0
 20 21  1  0
 21 22  2  0
 21 23  1  0
 17  4  1  0
 16  6  1  0
 14 10  1  0
  1 24  1  0
  5 25  1  0
  7 26  1  0
  8 27  1  0
 14 28  1  0
 15 29  1  0
 20 30  1  0
 20 31  1  0
M  CHG  4   1  -1  12  -1  14   1  23  -1
M  END
>  <UniqueID>  (83) 
82

>  <SMILES>  (83) 
[NH-]C(=O)c1cc2ccc(-c3n[n-]n[nH+]3)cc2n1C(=O)CC(=O)[O-]

>  <Energy>  (83) 
111.6795615149076

>  <Genealogy>  (83) 
[NH-]C(=O)c1cc2ccc(-c3n[n-]n[nH+]3)cc2n1C(=O)CC(=O)[O-] (protonated)
[NH-]C(=O)c1cc2ccc(-c3n[n-]n[nH+]3)cc2n1C(=O)CC(=O)[O-] (3D coordinates assigned)
[NH-]C(=O)c1cc2ccc(-c3n[n-]n[nH+]3)cc2n1C(=O)CC(=O)[O-] (optimized conformer: 111.6795615149076 kcal/mol)

>  <smiles>  (83) 
NC(=O)c1cc2ccc(-c3nn[nH]n3)cc2n1C(=O)CC(=O)O

>  <score_type>  (83) 
oracle

>  <origin>  (83) 
adg

>  <m_score__min__energy>  (83) 
-12.369999999999999

>  <m_primary>  (83) 
energy

$$$$
83:0
     RDKit          3D

 46 48  0  0  0  0  0  0  0  0999 V2000
   -8.8040   21.6130  -30.7840 C   0  0  0  0  0  0  0  0  0  0  0  0
   -7.5750   21.4340  -31.5710 N   0  0  0  0  0  0  0  0  0  0  0  0
   -7.2330   22.6400  -32.3460 C   0  0  0  0  0  0  0  0  0  0  0  0
   -7.6340   20.2370  -32.4040 C   0  0  0  0  0  0  0  0  0  0  0  0
   -8.5970   20.0980  -33.1490 O   0  0  0  0  0  0  0  0  0  0  0  0
   -6.5120   19.1980  -32.4830 C   0  0  2  0  0  0  0  0  0  0  0  0
   -5.3940   19.7150  -33.2920 N   0  0  0  0  0  0  0  0  0  0  0  0
   -4.2070   20.3300  -32.7470 C   0  0  0  0  0  0  0  0  0  0  0  0
   -2.9020   19.8780  -33.0960 C   0  0  0  0  0  0  0  0  0  0  0  0
   -1.7620   20.4670  -32.5240 C   0  0  0  0  0  0  0  0  0  0  0  0
   -1.9470   21.4870  -31.6000 C   0  0  0  0  0  0  0  0  0  0  0  0
   -1.0230   22.1910  -30.8650 C   0  0  0  0  0  0  0  0  0  0  0  0
   -1.7710   23.0610  -30.0720 C   0  0  0  0  0  0  0  0  0  0  0  0
   -1.1720   24.0660  -29.1700 C   0  0  0  0  0  0  0  0  0  0  0  0
   -1.6060   25.4250  -29.2330 N   0  0  0  0  0  0  0  0  0  0  0  0
   -0.2780   23.7430  -28.3420 O   0  0  0  0  0  0  0  0  0  0  0  0
   -3.1040   22.8930  -30.3090 N   0  0  0  0  0  0  0  0  0  0  0  0
   -4.2080   23.5400  -29.6510 C   0  0  0  0  0  0  0  0  0  0  0  0
   -4.7370   23.0040  -28.6410 O   0  0  0  0  0  0  0  0  0  0  0  0
   -4.7080   24.8410  -30.1190 C   0  0  0  0  0  0  0  0  0  0  0  0
   -5.8690   25.2260  -29.8140 O   0  0  0  0  0  0  0  0  0  0  0  0
   -3.8930   25.6700  -30.8810 O   0  0  0  0  0  0  0  0  0  0  0  0
   -3.1940   21.9350  -31.2540 C   0  0  0  0  0  0  0  0  0  0  0  0
   -4.3490   21.3870  -31.8200 C   0  0  0  0  0  0  0  0  0  0  0  0
   -6.9550   17.8270  -33.0480 C   0  0  0  0  0  0  0  0  0  0  0  0
   -6.1210   17.3610  -34.2420 C   0  0  0  0  0  0  0  0  0  0  0  0
   -5.9940   16.6570  -32.9020 C   0  0  0  0  0  0  0  0  0  0  0  0
   -8.5612   21.5776  -29.7117 H   0  0  0  0  0  0  0  0  0  0  0  0
   -9.2557   22.5864  -31.0257 H   0  0  0  0  0  0  0  0  0  0  0  0
   -9.5146   20.8089  -31.0257 H   0  0  0  0  0  0  0  0  0  0  0  0
   -6.8070   21.3030  -30.8690 H   0  0  0  0  0  0  0  0  0  0  0  0
   -6.9991   23.4647  -31.6567 H   0  0  0  0  0  0  0  0  0  0  0  0
   -6.3582   22.4327  -32.9799 H   0  0  0  0  0  0  0  0  0  0  0  0
   -8.0864   22.9227  -32.9799 H   0  0  0  0  0  0  0  0  0  0  0  0
   -6.1981   19.0250  -31.4430 H   0  0  0  0  0  0  0  0  0  0  0  0
   -5.5630   19.8150  -34.3190 H   0  0  0  0  0  0  0  0  0  0  0  0
   -2.7856   19.0590  -33.8211 H   0  0  0  0  0  0  0  0  0  0  0  0
   -0.7520   20.1299  -32.8001 H   0  0  0  0  0  0  0  0  0  0  0  0
    0.0719   22.0898  -30.8957 H   0  0  0  0  0  0  0  0  0  0  0  0
   -2.6190   25.6610  -29.3000 H   0  0  0  0  0  0  0  0  0  0  0  0
   -5.3444   21.7695  -31.5502 H   0  0  0  0  0  0  0  0  0  0  0  0
   -8.0213   17.9640  -32.8150 H   0  0  0  0  0  0  0  0  0  0  0  0
   -6.6068   16.8517  -35.0874 H   0  0  0  0  0  0  0  0  0  0  0  0
   -5.4188   17.8442  -34.9373 H   0  0  0  0  0  0  0  0  0  0  0  0
   -6.3861   15.6367  -32.7787 H   0  0  0  0  0  0  0  0  0  0  0  0
   -5.1586   16.4192  -32.2270 H   0  0  0  0  0  0  0  0  0  0  0  0
  1  2  1  0
  2  3  1  0
  2  4  1  0
  4  5  2  0
  4  6  1  0
  6  7  1  0
  7  8  1  0
  8  9  2  0
  9 10  1  0
 10 11  2  0
 11 12  1  0
 12 13  2  0
 13 14  1  0
 14 15  1  0
 14 16  2  0
 13 17  1  0
 17 18  1  0
 18 19  2  0
 18 20  1  0
 20 21  2  0
 20 22  1  0
 17 23  1  0
 23 24  2  0
  6 25  1  0
 25 26  1  0
 26 27  1  0
 24  8  1  0
 27 25  1  0
 23 11  1  0
  1 28  1  0
  1 29  1  0
  1 30  1  0
  2 31  1  0
  3 32  1  0
  3 33  1  0
  3 34  1  0
  6 35  1  1
  7 36  1  0
  9 37  1  0
 10 38  1  0
 12 39  1  0
 15 40  1  0
 24 41  1  0
 25 42  1  0
 26 43  1  0
 26 44  1  0
 27 45  1  0
 27 46  1  0
M  CHG  3   2   1  15  -1  22  -1
M  END
>  <UniqueID>  (84) 
83

>  <SMILES>  (84) 
C[NH+](C)C(=O)[C@H](Nc1ccc2cc(C([NH-])=O)n(C(=O)C(=O)[O-])c2c1)C1CC1

>  <Energy>  (84) 
358.0439825724631

>  <Genealogy>  (84) 
C[NH+](C)C(=O)[C@H](Nc1ccc2cc(C([NH-])=O)n(C(=O)C(=O)[O-])c2c1)C1CC1 (protonated)
C[NH+](C)C(=O)[C@H](Nc1ccc2cc(C([NH-])=O)n(C(=O)C(=O)[O-])c2c1)C1CC1 (3D coordinates assigned)
C[NH+](C)C(=O)[C@H](Nc1ccc2cc(C([NH-])=O)n(C(=O)C(=O)[O-])c2c1)C1CC1 (nonaromatic ring conformer: 358.0439825724631 kcal/mol)

>  <smiles>  (84) 
CN(C)C(=O)[C@H](Nc1ccc2cc(C(N)=O)n(C(=O)C(=O)O)c2c1)C1CC1

>  <score_type>  (84) 
oracle

>  <origin>  (84) 
adg

>  <m_score__min__energy>  (84) 
-11.51

>  <m_primary>  (84) 
energy

$$$$
84:0
     RDKit          3D

 47 48  0  0  0  0  0  0  0  0999 V2000
   -0.1000   23.5180  -29.0460 C   0  0  0  0  0  0  0  0  0  0  0  0
   -1.6070   23.6520  -29.2130 C   0  0  1  0  0  0  0  0  0  0  0  0
   -2.2510   22.8010  -28.2690 O   0  0  0  0  0  0  0  0  0  0  0  0
   -3.3320   21.9720  -28.5810 C   0  0  0  0  0  0  0  0  0  0  0  0
   -4.5100   22.3060  -28.2870 O   0  0  0  0  0  0  0  0  0  0  0  0
   -3.0900   20.7080  -29.3440 C   0  0  0  0  0  0  0  0  0  0  0  0
   -3.9340   20.6620  -30.4910 O   0  0  0  0  0  0  0  0  0  0  0  0
   -4.2570   21.7920  -31.2510 C   0  0  0  0  0  0  0  0  0  0  0  0
   -3.3980   22.3150  -32.0110 O   0  0  0  0  0  0  0  0  0  0  0  0
   -5.5710   22.3640  -31.1570 N   0  0  0  0  0  0  0  0  0  0  0  0
   -5.8950   23.6410  -30.8110 C   0  0  0  0  0  0  0  0  0  0  0  0
   -4.9560   24.6640  -30.3030 C   0  0  0  0  0  0  0  0  0  0  0  0
   -4.7230   24.8260  -28.9020 N   0  0  0  0  0  0  0  0  0  0  0  0
   -4.3940   25.4440  -31.1160 O   0  0  0  0  0  0  0  0  0  0  0  0
   -7.2650   23.8530  -30.9370 C   0  0  0  0  0  0  0  0  0  0  0  0
   -7.7800   22.6490  -31.3610 C   0  0  0  0  0  0  0  0  0  0  0  0
   -9.0930   22.2910  -31.6550 C   0  0  0  0  0  0  0  0  0  0  0  0
   -9.3330   20.9820  -32.1040 C   0  0  0  0  0  0  0  0  0  0  0  0
   -8.2650   20.0660  -32.2580 C   0  0  0  0  0  0  0  0  0  0  0  0
   -8.5220   18.7400  -32.7270 N   0  0  0  0  0  0  0  0  0  0  0  0
   -6.9460   20.4630  -31.9530 C   0  0  0  0  0  0  0  0  0  0  0  0
   -6.7370   21.7670  -31.4880 C   0  0  0  0  0  0  0  0  0  0  0  0
   -1.9790   25.0110  -28.9690 O   0  0  0  0  0  0  0  0  0  0  0  0
   -1.6590   25.7150  -27.8020 C   0  0  0  0  0  0  0  0  0  0  0  0
   -0.8450   26.6790  -27.8290 O   0  0  0  0  0  0  0  0  0  0  0  0
   -2.3280   25.3330  -26.5120 C   0  0  2  0  0  0  0  0  0  0  0  0
   -1.3500   24.6010  -25.5880 C   0  0  0  0  0  0  0  0  0  0  0  0
   -3.4760   24.5580  -26.7510 O   0  0  0  0  0  0  0  0  0  0  0  0
    0.1497   23.4958  -27.9749 H   0  0  0  0  0  0  0  0  0  0  0  0
    0.2401   22.5861  -29.5212 H   0  0  0  0  0  0  0  0  0  0  0  0
    0.3992   24.3753  -29.5212 H   0  0  0  0  0  0  0  0  0  0  0  0
   -1.9073   23.3656  -30.2317 H   0  0  0  0  0  0  0  0  0  0  0  0
   -2.0382   20.6713  -29.6640 H   0  0  0  0  0  0  0  0  0  0  0  0
   -3.3132   19.8471  -28.6967 H   0  0  0  0  0  0  0  0  0  0  0  0
   -4.0320   25.5320  -28.5650 H   0  0  0  0  0  0  0  0  0  0  0  0
   -5.2990   24.3180  -28.1960 H   0  0  0  0  0  0  0  0  0  0  0  0
   -7.8177   24.7834  -30.7399 H   0  0  0  0  0  0  0  0  0  0  0  0
   -9.9166   23.0109  -31.5392 H   0  0  0  0  0  0  0  0  0  0  0  0
  -10.3603   20.6658  -32.3381 H   0  0  0  0  0  0  0  0  0  0  0  0
   -9.0950   18.5780  -33.5860 H   0  0  0  0  0  0  0  0  0  0  0  0
   -8.1530   17.9100  -32.2110 H   0  0  0  0  0  0  0  0  0  0  0  0
   -6.1039   19.7663  -32.0773 H   0  0  0  0  0  0  0  0  0  0  0  0
   -2.6460   26.2561  -26.0054 H   0  0  0  0  0  0  0  0  0  0  0  0
   -1.6168   24.8007  -24.5397 H   0  0  0  0  0  0  0  0  0  0  0  0
   -1.4036   23.5193  -25.7804 H   0  0  0  0  0  0  0  0  0  0  0  0
   -0.3273   24.9574  -25.7804 H   0  0  0  0  0  0  0  0  0  0  0  0
   -3.3100   24.0070  -27.5600 H   0  0  0  0  0  0  0  0  0  0  0  0
  1  2  1  0
  2  3  1  0
  3  4  1  0
  4  5  2  0
  4  6  1  0
  6  7  1  0
  7  8  1  0
  8  9  2  0
  8 10  1  0
 10 11  1  0
 11 12  1  0
 12 13  1  0
 12 14  2  0
 11 15  2  0
 15 16  1  0
 16 17  2  0
 17 18  1  0
 18 19  2  0
 19 20  1  0
 19 21  1  0
 21 22  2  0
  2 23  1  0
 23 24  1  0
 24 25  2  0
 24 26  1  0
 26 27  1  0
 26 28  1  0
 22 10  1  0
 22 16  1  0
  1 29  1  0
  1 30  1  0
  1 31  1  0
  2 32  1  6
  6 33  1  0
  6 34  1  0
 13 35  1  0
 13 36  1  0
 15 37  1  0
 17 38  1  0
 18 39  1  0
 20 40  1  0
 20 41  1  0
 21 42  1  0
 26 43  1  1
 27 44  1  0
 27 45  1  0
 27 46  1  0
 28 47  1  0
M  END
>  <UniqueID>  (85) 
84

>  <SMILES>  (85) 
C[C@@H](OC(=O)COC(=O)n1c(C(N)=O)cc2ccc(N)cc21)OC(=O)[C@H](C)O

>  <Energy>  (85) 
75.98139653299745

>  <Genealogy>  (85) 
C[C@@H](OC(=O)COC(=O)n1c(C(N)=O)cc2ccc(N)cc21)OC(=O)[C@H](C)O (chirality)
C[C@@H](OC(=O)COC(=O)n1c(C(N)=O)cc2ccc(N)cc21)OC(=O)[C@H](C)O (3D coordinates assigned)
C[C@@H](OC(=O)COC(=O)n1c(C(N)=O)cc2ccc(N)cc21)OC(=O)[C@H](C)O (optimized conformer: 75.98139653299745 kcal/mol)

>  <smiles>  (85) 
CC(OC(=O)COC(=O)n1c(C(N)=O)cc2ccc(N)cc21)OC(=O)C(C)O

>  <score_type>  (85) 
oracle

>  <origin>  (85) 
adg

>  <m_score__min__energy>  (85) 
-8.0299999999999994

>  <m_primary>  (85) 
energy

$$$$
85:0
     RDKit          3D

 37 38  0  0  0  0  0  0  0  0999 V2000
   -6.8600   18.3000  -32.7890 C   0  0  0  0  0  0  0  0  0  0  0  0
   -7.0260   19.7240  -32.3420 C   0  0  0  0  0  0  0  0  0  0  0  0
   -8.3160   20.3120  -32.3440 C   0  0  0  0  0  0  0  0  0  0  0  0
   -8.4960   21.6530  -31.9570 C   0  0  0  0  0  0  0  0  0  0  0  0
   -7.3670   22.3900  -31.6080 C   0  0  0  0  0  0  0  0  0  0  0  0
   -7.2470   23.7050  -31.2090 C   0  0  0  0  0  0  0  0  0  0  0  0
   -5.8860   23.8980  -30.9750 C   0  0  0  0  0  0  0  0  0  0  0  0
   -5.3160   25.1290  -30.3800 C   0  0  0  0  0  0  0  0  0  0  0  0
   -4.0800   25.6530  -30.8590 N   0  0  0  0  0  0  0  0  0  0  0  0
   -5.9400   25.7570  -29.4870 O   0  0  0  0  0  0  0  0  0  0  0  0
   -5.1990   22.7560  -31.2320 N   0  0  0  0  0  0  0  0  0  0  0  0
   -3.7860   22.5470  -31.1270 C   0  0  0  0  0  0  0  0  0  0  0  0
   -3.1090   22.4200  -32.1840 O   0  0  0  0  0  0  0  0  0  0  0  0
   -3.1450   22.4150  -29.8370 N   0  0  0  0  0  0  0  0  0  0  0  0
   -2.5210   21.1390  -29.4800 C   0  0  0  0  0  0  0  0  0  0  0  0
   -2.9530   23.5700  -28.9330 C   0  0  1  0  0  0  0  0  0  0  0  0
   -3.1170   23.1300  -27.4720 C   0  0  0  0  0  0  0  0  0  0  0  0
   -1.6460   24.2730  -29.1840 C   0  0  0  0  0  0  0  0  0  0  0  0
   -0.5710   23.6260  -29.3130 O   0  0  0  0  0  0  0  0  0  0  0  0
   -1.6240   25.6590  -29.2780 O   0  0  0  0  0  0  0  0  0  0  0  0
   -6.1160   21.8390  -31.6080 C   0  0  0  0  0  0  0  0  0  0  0  0
   -5.9030   20.4980  -31.9720 C   0  0  0  0  0  0  0  0  0  0  0  0
   -6.7837   17.6457  -31.9081 H   0  0  0  0  0  0  0  0  0  0  0  0
   -7.7294   18.0016  -33.3932 H   0  0  0  0  0  0  0  0  0  0  0  0
   -5.9452   18.2096  -33.3932 H   0  0  0  0  0  0  0  0  0  0  0  0
   -9.1860   19.7133  -32.6515 H   0  0  0  0  0  0  0  0  0  0  0  0
   -9.4983   22.1055  -31.9309 H   0  0  0  0  0  0  0  0  0  0  0  0
   -8.0538   24.4445  -31.0988 H   0  0  0  0  0  0  0  0  0  0  0  0
   -3.1680   25.2920  -30.4960 H   0  0  0  0  0  0  0  0  0  0  0  0
   -2.4758   21.0466  -28.3848 H   0  0  0  0  0  0  0  0  0  0  0  0
   -3.1161   20.3114  -29.8935 H   0  0  0  0  0  0  0  0  0  0  0  0
   -1.5024   21.1006  -29.8935 H   0  0  0  0  0  0  0  0  0  0  0  0
   -3.7348   24.3132  -29.1485 H   0  0  0  0  0  0  0  0  0  0  0  0
   -2.8113   23.9500  -26.8056 H   0  0  0  0  0  0  0  0  0  0  0  0
   -4.1702   22.8760  -27.2816 H   0  0  0  0  0  0  0  0  0  0  0  0
   -2.4870   22.2486  -27.2816 H   0  0  0  0  0  0  0  0  0  0  0  0
   -4.8922   20.0640  -31.9689 H   0  0  0  0  0  0  0  0  0  0  0  0
  1  2  1  0
  2  3  2  0
  3  4  1  0
  4  5  2  0
  5  6  1  0
  6  7  2  0
  7  8  1  0
  8  9  1  0
  8 10  2  0
  7 11  1  0
 11 12  1  0
 12 13  2  0
 12 14  1  0
 14 15  1  0
 14 16  1  0
 16 17  1  0
 16 18  1  0
 18 19  2  0
 18 20  1  0
 11 21  1  0
 21 22  2  0
 22  2  1  0
 21  5  1  0
  1 23  1  0
  1 24  1  0
  1 25  1  0
  3 26  1  0
  4 27  1  0
  6 28  1  0
  9 29  1  0
 15 30  1  0
 15 31  1  0
 15 32  1  0
 16 33  1  6
 17 34  1  0
 17 35  1  0
 17 36  1  0
 22 37  1  0
M  CHG  2   9  -1  20  -1
M  END
>  <UniqueID>  (86) 
85

>  <SMILES>  (86) 
Cc1ccc2cc(C([NH-])=O)n(C(=O)N(C)[C@@H](C)C(=O)[O-])c2c1

>  <Energy>  (86) 
78.77516514954915

>  <Genealogy>  (86) 
Cc1ccc2cc(C([NH-])=O)n(C(=O)N(C)C(C)C(=O)[O-])c2c1 (protonated)
Cc1ccc2cc(C([NH-])=O)n(C(=O)N(C)[C@@H](C)C(=O)[O-])c2c1 (chirality)
Cc1ccc2cc(C([NH-])=O)n(C(=O)N(C)[C@@H](C)C(=O)[O-])c2c1 (3D coordinates assigned)
Cc1ccc2cc(C([NH-])=O)n(C(=O)N(C)[C@@H](C)C(=O)[O-])c2c1 (optimized conformer: 78.77516514954915 kcal/mol)

>  <smiles>  (86) 
Cc1ccc2cc(C(N)=O)n(C(=O)N(C)C(C)C(=O)O)c2c1

>  <score_type>  (86) 
oracle

>  <origin>  (86) 
adg

>  <m_score__min__energy>  (86) 
-12.1

>  <m_primary>  (86) 
energy

$$$$
86:0
     RDKit          3D

 45 47  0  0  0  0  0  0  0  0999 V2000
   -1.8700   21.5090  -28.0810 C   0  0  0  0  0  0  0  0  0  0  0  0
   -1.9680   22.6070  -29.0510 N   0  0  0  0  0  0  0  0  0  0  0  0
   -0.7360   23.2880  -29.4850 C   0  0  0  0  0  0  0  0  0  0  0  0
   -0.6550   24.6700  -28.9120 C   0  0  0  0  0  0  0  0  0  0  0  0
    0.2750   24.9750  -28.1190 O   0  0  0  0  0  0  0  0  0  0  0  0
   -1.5740   25.6370  -29.2990 O   0  0  0  0  0  0  0  0  0  0  0  0
   -3.2930   23.0160  -29.4820 C   0  0  0  0  0  0  0  0  0  0  0  0
   -3.9720   23.7660  -28.7270 O   0  0  0  0  0  0  0  0  0  0  0  0
   -3.9070   22.6080  -30.7710 C   0  0  0  0  0  0  0  0  0  0  0  0
   -3.2310   22.0470  -31.6720 O   0  0  0  0  0  0  0  0  0  0  0  0
   -5.3050   22.8370  -30.9990 N   0  0  0  0  0  0  0  0  0  0  0  0
   -5.9730   24.0230  -30.9600 C   0  0  0  0  0  0  0  0  0  0  0  0
   -5.3950   25.3290  -30.5780 C   0  0  0  0  0  0  0  0  0  0  0  0
   -4.0270   25.6320  -30.8380 N   0  0  0  0  0  0  0  0  0  0  0  0
   -6.1150   26.1830  -29.9940 O   0  0  0  0  0  0  0  0  0  0  0  0
   -7.3120   23.8370  -31.2990 C   0  0  0  0  0  0  0  0  0  0  0  0
   -7.4410   22.4890  -31.5520 C   0  0  0  0  0  0  0  0  0  0  0  0
   -8.5490   21.7530  -31.9550 C   0  0  0  0  0  0  0  0  0  0  0  0
   -8.3790   20.3740  -32.1710 C   0  0  0  0  0  0  0  0  0  0  0  0
   -7.1180   19.7550  -31.9790 C   0  0  0  0  0  0  0  0  0  0  0  0
   -6.9940   18.3430  -32.2430 N   0  0  0  0  0  0  0  0  0  0  0  0
   -6.5340   17.7050  -33.4890 C   0  0  0  0  0  0  0  0  0  0  0  0
   -5.1230   17.1170  -33.4600 C   0  0  0  0  0  0  0  0  0  0  0  0
   -4.7150   18.0800  -34.5720 C   0  0  0  0  0  0  0  0  0  0  0  0
   -6.1160   18.6870  -34.5750 C   0  0  0  0  0  0  0  0  0  0  0  0
   -6.0110   20.5460  -31.5940 C   0  0  0  0  0  0  0  0  0  0  0  0
   -6.2140   21.9100  -31.3670 C   0  0  0  0  0  0  0  0  0  0  0  0
   -1.9064   21.9172  -27.0602 H   0  0  0  0  0  0  0  0  0  0  0  0
   -2.7097   20.8138  -28.2281 H   0  0  0  0  0  0  0  0  0  0  0  0
   -0.9205   20.9735  -28.2281 H   0  0  0  0  0  0  0  0  0  0  0  0
    0.1344   22.7068  -29.1465 H   0  0  0  0  0  0  0  0  0  0  0  0
   -0.7460   23.3640  -30.5823 H   0  0  0  0  0  0  0  0  0  0  0  0
   -3.2700   25.2860  -30.2090 H   0  0  0  0  0  0  0  0  0  0  0  0
   -8.0988   24.6038  -31.3531 H   0  0  0  0  0  0  0  0  0  0  0  0
   -9.5276   22.2339  -32.1003 H   0  0  0  0  0  0  0  0  0  0  0  0
   -9.2372   19.7664  -32.4938 H   0  0  0  0  0  0  0  0  0  0  0  0
   -6.9970   17.7150  -31.4070 H   0  0  0  0  0  0  0  0  0  0  0  0
   -7.3923   17.0328  -33.6357 H   0  0  0  0  0  0  0  0  0  0  0  0
   -4.5891   17.2716  -32.5107 H   0  0  0  0  0  0  0  0  0  0  0  0
   -4.9635   16.0340  -33.5683 H   0  0  0  0  0  0  0  0  0  0  0  0
   -3.9221   18.7859  -34.2841 H   0  0  0  0  0  0  0  0  0  0  0  0
   -4.2771   17.6945  -35.5046 H   0  0  0  0  0  0  0  0  0  0  0  0
   -6.1504   19.7421  -34.2657 H   0  0  0  0  0  0  0  0  0  0  0  0
   -6.6901   18.7652  -35.5100 H   0  0  0  0  0  0  0  0  0  0  0  0
   -5.0132   20.0982  -31.4759 H   0  0  0  0  0  0  0  0  0  0  0  0
  1  2  1  0
  2  3  1  0
  3  4  1  0
  4  5  2  0
  4  6  1  0
  2  7  1  0
  7  8  2  0
  7  9  1  0
  9 10  2  0
  9 11  1  0
 11 12  1  0
 12 13  1  0
 13 14  1  0
 13 15  2  0
 12 16  2  0
 16 17  1  0
 17 18  2  0
 18 19  1  0
 19 20  2  0
 20 21  1  0
 21 22  1  0
 22 23  1  0
 23 24  1  0
 24 25  1  0
 20 26  1  0
 26 27  2  0
 27 11  1  0
 27 17  1  0
 25 22  1  0
  1 28  1  0
  1 29  1  0
  1 30  1  0
  3 31  1  0
  3 32  1  0
 14 33  1  0
 16 34  1  0
 18 35  1  0
 19 36  1  0
 21 37  1  0
 22 38  1  0
 23 39  1  0
 23 40  1  0
 24 41  1  0
 24 42  1  0
 25 43  1  0
 25 44  1  0
 26 45  1  0
M  CHG  2   6  -1  14  -1
M  END
>  <UniqueID>  (87) 
86

>  <SMILES>  (87) 
CN(CC(=O)[O-])C(=O)C(=O)n1c(C([NH-])=O)cc2ccc(NC3CCC3)cc21

>  <Energy>  (87) 
152.1261255226377

>  <Genealogy>  (87) 
CN(CC(=O)[O-])C(=O)C(=O)n1c(C([NH-])=O)cc2ccc(NC3CCC3)cc21 (protonated)
CN(CC(=O)[O-])C(=O)C(=O)n1c(C([NH-])=O)cc2ccc(NC3CCC3)cc21 (3D coordinates assigned)
CN(CC(=O)[O-])C(=O)C(=O)n1c(C([NH-])=O)cc2ccc(NC3CCC3)cc21 (nonaromatic ring conformer: 152.1261255226377 kcal/mol)

>  <smiles>  (87) 
CN(CC(=O)O)C(=O)C(=O)n1c(C(N)=O)cc2ccc(NC3CCC3)cc21

>  <score_type>  (87) 
oracle

>  <origin>  (87) 
adg

>  <m_score__min__energy>  (87) 
-13.289999999999999

>  <m_primary>  (87) 
energy

$$$$
87:0
     RDKit          3D

 42 43  0  0  0  0  0  0  0  0999 V2000
   -0.9220   19.4880  -31.2930 C   0  0  0  0  0  0  0  0  0  0  0  0
   -1.1230   20.8790  -31.7400 N   0  0  1  0  0  0  0  0  0  0  0  0
   -0.6640   21.8750  -30.7420 C   0  0  0  0  0  0  0  0  0  0  0  0
   -1.7680   22.7400  -30.1950 C   0  0  0  0  0  0  0  0  0  0  0  0
   -1.4840   23.8400  -29.6470 O   0  0  0  0  0  0  0  0  0  0  0  0
   -3.0940   22.3040  -30.3030 O   0  0  0  0  0  0  0  0  0  0  0  0
   -3.9380   22.5500  -31.3950 C   0  0  0  0  0  0  0  0  0  0  0  0
   -3.4920   22.5240  -32.5740 O   0  0  0  0  0  0  0  0  0  0  0  0
   -5.3190   22.8620  -31.1610 N   0  0  0  0  0  0  0  0  0  0  0  0
   -5.8560   24.0780  -30.8580 C   0  0  0  0  0  0  0  0  0  0  0  0
   -5.1000   25.3040  -30.5300 C   0  0  0  0  0  0  0  0  0  0  0  0
   -3.6750   25.2970  -30.4840 N   0  0  0  0  0  0  0  0  0  0  0  0
   -5.7200   26.3600  -30.2370 O   0  0  0  0  0  0  0  0  0  0  0  0
   -7.2470   24.0030  -30.8210 C   0  0  0  0  0  0  0  0  0  0  0  0
   -7.5480   22.6910  -31.1060 C   0  0  0  0  0  0  0  0  0  0  0  0
   -8.7840   22.0590  -31.2060 C   0  0  0  0  0  0  0  0  0  0  0  0
   -8.8010   20.6950  -31.5420 C   0  0  0  0  0  0  0  0  0  0  0  0
   -7.5930   19.9960  -31.8000 C   0  0  0  0  0  0  0  0  0  0  0  0
   -7.6210   18.5250  -32.1270 C   0  0  0  0  0  0  0  0  0  0  0  0
   -8.9100   18.0490  -31.9750 F   0  0  0  0  0  0  0  0  0  0  0  0
   -7.2110   18.3040  -33.4310 F   0  0  0  0  0  0  0  0  0  0  0  0
   -6.7780   17.8210  -31.2850 F   0  0  0  0  0  0  0  0  0  0  0  0
   -6.3570   20.6690  -31.6630 C   0  0  0  0  0  0  0  0  0  0  0  0
   -6.3690   22.0230  -31.3090 C   0  0  0  0  0  0  0  0  0  0  0  0
   -0.5170   21.0970  -33.0400 C   0  0  0  0  0  0  0  0  0  0  0  0
    0.6170   21.5460  -33.1310 O   0  0  0  0  0  0  0  0  0  0  0  0
   -1.2700   20.7620  -34.2970 C   0  0  0  0  0  0  0  0  0  0  0  0
   -2.6380   20.6750  -34.0110 O   0  0  0  0  0  0  0  0  0  0  0  0
   -0.9170   19.4533  -30.1936 H   0  0  0  0  0  0  0  0  0  0  0  0
   -1.7385   18.8582  -31.6760 H   0  0  0  0  0  0  0  0  0  0  0  0
    0.0394   19.1151  -31.6760 H   0  0  0  0  0  0  0  0  0  0  0  0
   -2.1580   21.0130  -31.8350 H   0  0  0  0  0  0  0  0  0  0  0  0
   -0.1976   21.3366  -29.9038 H   0  0  0  0  0  0  0  0  0  0  0  0
    0.0413   22.5435  -31.2574 H   0  0  0  0  0  0  0  0  0  0  0  0
   -3.1290   24.4850  -30.8470 H   0  0  0  0  0  0  0  0  0  0  0  0
   -7.9538   24.8188  -30.6091 H   0  0  0  0  0  0  0  0  0  0  0  0
   -9.7188   22.6106  -31.0274 H   0  0  0  0  0  0  0  0  0  0  0  0
   -9.7615   20.1627  -31.6059 H   0  0  0  0  0  0  0  0  0  0  0  0
   -5.4072   20.1401  -31.8309 H   0  0  0  0  0  0  0  0  0  0  0  0
   -1.1012   21.5491  -35.0466 H   0  0  0  0  0  0  0  0  0  0  0  0
   -0.9154   19.7985  -34.6918 H   0  0  0  0  0  0  0  0  0  0  0  0
   -3.0190   21.5680  -34.2200 H   0  0  0  0  0  0  0  0  0  0  0  0
  1  2  1  0
  2  3  1  0
  3  4  1  0
  4  5  2  0
  4  6  1  0
  6  7  1  0
  7  8  2  0
  7  9  1  0
  9 10  1  0
 10 11  1  0
 11 12  1  0
 11 13  2  0
 10 14  2  0
 14 15  1  0
 15 16  2  0
 16 17  1  0
 17 18  2  0
 18 19  1  0
 19 20  1  0
 19 21  1  0
 19 22  1  0
 18 23  1  0
 23 24  2  0
  2 25  1  0
 25 26  2  0
 25 27  1  0
 27 28  1  0
 24  9  1  0
 24 15  1  0
  1 29  1  0
  1 30  1  0
  1 31  1  0
  2 32  1  6
  3 33  1  0
  3 34  1  0
 12 35  1  0
 14 36  1  0
 16 37  1  0
 17 38  1  0
 23 39  1  0
 27 40  1  0
 27 41  1  0
 28 42  1  0
M  CHG  2   2   1  12  -1
M  END
>  <UniqueID>  (88) 
87

>  <SMILES>  (88) 
C[N@@H+](CC(=O)OC(=O)n1c(C([NH-])=O)cc2ccc(C(F)(F)F)cc21)C(=O)CO

>  <Energy>  (88) 
83.66798875442156

>  <Genealogy>  (88) 
C[NH+](CC(=O)OC(=O)n1c(C([NH-])=O)cc2ccc(C(F)(F)F)cc21)C(=O)CO (protonated)
C[N@@H+](CC(=O)OC(=O)n1c(C([NH-])=O)cc2ccc(C(F)(F)F)cc21)C(=O)CO (chirality)
C[N@@H+](CC(=O)OC(=O)n1c(C([NH-])=O)cc2ccc(C(F)(F)F)cc21)C(=O)CO (3D coordinates assigned)
C[N@@H+](CC(=O)OC(=O)n1c(C([NH-])=O)cc2ccc(C(F)(F)F)cc21)C(=O)CO (optimized conformer: 83.66798875442156 kcal/mol)

>  <smiles>  (88) 
CN(CC(=O)OC(=O)n1c(C(N)=O)cc2ccc(C(F)(F)F)cc21)C(=O)CO

>  <score_type>  (88) 
oracle

>  <origin>  (88) 
adg

>  <m_score__min__energy>  (88) 
-9.0800000000000001

>  <m_primary>  (88) 
energy

$$$$
88:0
     RDKit          3D

 34 35  0  0  0  0  0  0  0  0999 V2000
   -5.9730   17.9320  -31.9060 C   0  0  0  0  0  0  0  0  0  0  0  0
   -6.2140   19.4100  -31.9800 C   0  0  0  0  0  0  0  0  0  0  0  0
   -7.3480   19.9110  -32.6660 C   0  0  0  0  0  0  0  0  0  0  0  0
   -7.5990   21.2920  -32.7200 C   0  0  0  0  0  0  0  0  0  0  0  0
   -6.7140   22.1420  -32.0630 C   0  0  0  0  0  0  0  0  0  0  0  0
   -6.7110   23.5150  -31.9680 C   0  0  0  0  0  0  0  0  0  0  0  0
   -5.5990   23.8300  -31.1900 C   0  0  0  0  0  0  0  0  0  0  0  0
   -5.2680   25.2060  -30.7640 C   0  0  0  0  0  0  0  0  0  0  0  0
   -3.9230   25.6690  -30.8470 N   0  0  0  0  0  0  0  0  0  0  0  0
   -6.1660   25.9900  -30.3600 O   0  0  0  0  0  0  0  0  0  0  0  0
   -4.9340   22.6950  -30.8260 N   0  0  0  0  0  0  0  0  0  0  0  0
   -3.7180   22.5870  -30.0680 C   0  0  0  0  0  0  0  0  0  0  0  0
   -3.7700   22.3560  -28.8300 O   0  0  0  0  0  0  0  0  0  0  0  0
   -2.4880   22.7690  -30.7140 O   0  0  0  0  0  0  0  0  0  0  0  0
   -1.2280   22.6870  -30.1020 C   0  0  0  0  0  0  0  0  0  0  0  0
   -0.2930   22.0510  -30.6630 O   0  0  0  0  0  0  0  0  0  0  0  0
   -0.9960   23.3310  -28.8310 N   0  0  0  0  0  0  0  0  0  0  0  0
   -0.9100   22.5130  -27.6150 C   0  0  0  0  0  0  0  0  0  0  0  0
   -0.7010   24.7410  -28.7400 C   0  0  0  0  0  0  0  0  0  0  0  0
    0.3670   25.1470  -28.2090 O   0  0  0  0  0  0  0  0  0  0  0  0
   -1.5940   25.6800  -29.2450 O   0  0  0  0  0  0  0  0  0  0  0  0
   -5.6310   21.6710  -31.3660 C   0  0  0  0  0  0  0  0  0  0  0  0
   -5.3460   20.3010  -31.3130 C   0  0  0  0  0  0  0  0  0  0  0  0
   -5.9223   17.6211  -30.8521 H   0  0  0  0  0  0  0  0  0  0  0  0
   -6.7964   17.4008  -32.4058 H   0  0  0  0  0  0  0  0  0  0  0  0
   -5.0235   17.6898  -32.4058 H   0  0  0  0  0  0  0  0  0  0  0  0
   -8.0382   19.2120  -33.1609 H   0  0  0  0  0  0  0  0  0  0  0  0
   -8.4681   21.6894  -33.2647 H   0  0  0  0  0  0  0  0  0  0  0  0
   -7.4336   24.2154  -32.4123 H   0  0  0  0  0  0  0  0  0  0  0  0
   -3.1230   25.0370  -30.6240 H   0  0  0  0  0  0  0  0  0  0  0  0
   -0.9783   23.1630  -26.7302 H   0  0  0  0  0  0  0  0  0  0  0  0
   -1.7368   21.7876  -27.6018 H   0  0  0  0  0  0  0  0  0  0  0  0
    0.0496   21.9754  -27.6018 H   0  0  0  0  0  0  0  0  0  0  0  0
   -4.4677   19.9286  -30.7653 H   0  0  0  0  0  0  0  0  0  0  0  0
  1  2  1  0
  2  3  2  0
  3  4  1  0
  4  5  2  0
  5  6  1  0
  6  7  2  0
  7  8  1  0
  8  9  1  0
  8 10  2  0
  7 11  1  0
 11 12  1  0
 12 13  2  0
 12 14  1  0
 14 15  1  0
 15 16  2  0
 15 17  1  0
 17 18  1  0
 17 19  1  0
 19 20  2  0
 19 21  1  0
 11 22  1  0
 22 23  2  0
 23  2  1  0
 22  5  1  0
  1 24  1  0
  1 25  1  0
  1 26  1  0
  3 27  1  0
  4 28  1  0
  6 29  1  0
  9 30  1  0
 18 31  1  0
 18 32  1  0
 18 33  1  0
 23 34  1  0
M  CHG  2   9  -1  21  -1
M  END
>  <UniqueID>  (89) 
88

>  <SMILES>  (89) 
Cc1ccc2cc(C([NH-])=O)n(C(=O)OC(=O)N(C)C(=O)[O-])c2c1

>  <Energy>  (89) 
74.30092579060819

>  <Genealogy>  (89) 
Cc1ccc2cc(C([NH-])=O)n(C(=O)OC(=O)N(C)C(=O)[O-])c2c1 (protonated)
Cc1ccc2cc(C([NH-])=O)n(C(=O)OC(=O)N(C)C(=O)[O-])c2c1 (3D coordinates assigned)
Cc1ccc2cc(C([NH-])=O)n(C(=O)OC(=O)N(C)C(=O)[O-])c2c1 (optimized conformer: 74.30092579060819 kcal/mol)

>  <smiles>  (89) 
Cc1ccc2cc(C(N)=O)n(C(=O)OC(=O)N(C)C(=O)O)c2c1

>  <score_type>  (89) 
oracle

>  <origin>  (89) 
adg

>  <m_score__min__energy>  (89) 
-12.289999999999999

>  <m_primary>  (89) 
energy

$$$$
89:0
     RDKit          3D

 50 52  0  0  0  0  0  0  0  0999 V2000
   -1.4400   26.4320  -25.9250 C   0  0  0  0  0  0  0  0  0  0  0  0
   -1.3050   26.1210  -27.3060 O   0  0  0  0  0  0  0  0  0  0  0  0
   -0.7650   24.9130  -27.7580 C   0  0  0  0  0  0  0  0  0  0  0  0
    0.4540   24.8510  -28.0790 O   0  0  0  0  0  0  0  0  0  0  0  0
   -1.5960   23.7410  -27.8610 N   0  0  0  0  0  0  0  0  0  0  0  0
   -2.9890   23.7640  -27.3920 C   0  0  0  0  0  0  0  0  0  0  0  0
   -3.9010   23.1000  -28.4270 C   0  0  0  0  0  0  0  0  0  0  0  0
   -3.4150   21.6780  -28.8290 C   0  0  0  0  0  0  0  0  0  0  0  0
   -3.5270   21.4370  -30.2840 N   0  0  0  0  0  0  0  0  0  0  0  0
   -3.3230   20.1060  -30.8710 C   0  0  0  0  0  0  0  0  0  0  0  0
   -4.0170   22.4810  -31.1480 C   0  0  0  0  0  0  0  0  0  0  0  0
   -3.2330   23.0810  -31.9330 O   0  0  0  0  0  0  0  0  0  0  0  0
   -5.3950   22.8690  -31.1070 N   0  0  0  0  0  0  0  0  0  0  0  0
   -5.9050   24.1040  -30.8490 C   0  0  0  0  0  0  0  0  0  0  0  0
   -5.1170   25.3030  -30.4980 C   0  0  0  0  0  0  0  0  0  0  0  0
   -3.6950   25.2550  -30.4510 N   0  0  0  0  0  0  0  0  0  0  0  0
   -5.7080   26.3750  -30.1980 O   0  0  0  0  0  0  0  0  0  0  0  0
   -7.2990   24.0720  -30.9080 C   0  0  0  0  0  0  0  0  0  0  0  0
   -7.6220   22.7680  -31.2160 C   0  0  0  0  0  0  0  0  0  0  0  0
   -8.8630   22.1640  -31.3880 C   0  0  0  0  0  0  0  0  0  0  0  0
   -8.8900   20.7940  -31.7000 C   0  0  0  0  0  0  0  0  0  0  0  0
   -7.6860   20.0550  -31.8460 C   0  0  0  0  0  0  0  0  0  0  0  0
   -7.7420   18.5780  -32.1390 C   0  0  0  0  0  0  0  0  0  0  0  0
   -9.0370   18.1280  -31.9540 F   0  0  0  0  0  0  0  0  0  0  0  0
   -6.9000   17.8710  -31.2990 F   0  0  0  0  0  0  0  0  0  0  0  0
   -7.3610   18.3320  -33.4460 F   0  0  0  0  0  0  0  0  0  0  0  0
   -6.4460   20.7010  -31.6410 C   0  0  0  0  0  0  0  0  0  0  0  0
   -6.4520   22.0630  -31.3280 C   0  0  0  0  0  0  0  0  0  0  0  0
   -2.0010   21.3220  -28.3150 C   0  0  0  0  0  0  0  0  0  0  0  0
   -1.0140   22.4940  -28.3820 C   0  0  0  0  0  0  0  0  0  0  0  0
   -1.0738   25.5883  -25.3216 H   0  0  0  0  0  0  0  0  0  0  0  0
   -0.8515   27.3318  -25.6925 H   0  0  0  0  0  0  0  0  0  0  0  0
   -2.4992   26.6165  -25.6925 H   0  0  0  0  0  0  0  0  0  0  0  0
   -3.0617   23.2188  -26.4394 H   0  0  0  0  0  0  0  0  0  0  0  0
   -3.3048   24.8080  -27.2494 H   0  0  0  0  0  0  0  0  0  0  0  0
   -4.9134   23.0198  -28.0044 H   0  0  0  0  0  0  0  0  0  0  0  0
   -3.8872   23.7247  -29.3323 H   0  0  0  0  0  0  0  0  0  0  0  0
   -4.1057   20.9945  -28.3135 H   0  0  0  0  0  0  0  0  0  0  0  0
   -3.2093   19.3641  -30.0668 H   0  0  0  0  0  0  0  0  0  0  0  0
   -4.1912   19.8425  -31.4929 H   0  0  0  0  0  0  0  0  0  0  0  0
   -2.4157   20.1147  -31.4929 H   0  0  0  0  0  0  0  0  0  0  0  0
   -3.1190   25.6780  -31.2140 H   0  0  0  0  0  0  0  0  0  0  0  0
   -7.9927   24.9097  -30.7436 H   0  0  0  0  0  0  0  0  0  0  0  0
   -9.7940   22.7405  -31.2831 H   0  0  0  0  0  0  0  0  0  0  0  0
   -9.8571   20.2870  -31.8330 H   0  0  0  0  0  0  0  0  0  0  0  0
   -5.5001   20.1459  -31.7256 H   0  0  0  0  0  0  0  0  0  0  0  0
   -2.0830   20.9950  -27.2679 H   0  0  0  0  0  0  0  0  0  0  0  0
   -1.6083   20.5297  -28.9693 H   0  0  0  0  0  0  0  0  0  0  0  0
   -0.1242   22.2423  -27.7863 H   0  0  0  0  0  0  0  0  0  0  0  0
   -0.7551   22.6576  -29.4385 H   0  0  0  0  0  0  0  0  0  0  0  0
  1  2  1  0
  2  3  1  0
  3  4  2  0
  3  5  1  0
  5  6  1  0
  6  7  1  0
  7  8  1  0
  8  9  1  0
  9 10  1  0
  9 11  1  0
 11 12  2  0
 11 13  1  0
 13 14  1  0
 14 15  1  0
 15 16  1  0
 15 17  2  0
 14 18  2  0
 18 19  1  0
 19 20  2  0
 20 21  1  0
 21 22  2  0
 22 23  1  0
 23 24  1  0
 23 25  1  0
 23 26  1  0
 22 27  1  0
 27 28  2  0
  8 29  1  0
 29 30  1  0
 30  5  1  0
 28 13  1  0
 28 19  1  0
  1 31  1  0
  1 32  1  0
  1 33  1  0
  6 34  1  0
  6 35  1  0
  7 36  1  0
  7 37  1  0
  8 38  1  0
 10 39  1  0
 10 40  1  0
 10 41  1  0
 16 42  1  0
 18 43  1  0
 20 44  1  0
 21 45  1  0
 27 46  1  0
 29 47  1  0
 29 48  1  0
 30 49  1  0
 30 50  1  0
M  CHG  1  16  -1
M  END
>  <UniqueID>  (90) 
89

>  <SMILES>  (90) 
COC(=O)N1CCC(N(C)C(=O)n2c(C([NH-])=O)cc3ccc(C(F)(F)F)cc32)CC1

>  <Energy>  (90) 
92.73788363010192

>  <Genealogy>  (90) 
COC(=O)N1CCC(N(C)C(=O)n2c(C([NH-])=O)cc3ccc(C(F)(F)F)cc32)CC1 (protonated)
COC(=O)N1CCC(N(C)C(=O)n2c(C([NH-])=O)cc3ccc(C(F)(F)F)cc32)CC1 (3D coordinates assigned)
COC(=O)N1CCC(N(C)C(=O)n2c(C([NH-])=O)cc3ccc(C(F)(F)F)cc32)CC1 (nonaromatic ring conformer: 92.73788363010192 kcal/mol)

>  <smiles>  (90) 
COC(=O)N1CCC(N(C)C(=O)n2c(C(N)=O)cc3ccc(C(F)(F)F)cc32)CC1

>  <score_type>  (90) 
oracle

>  <origin>  (90) 
adg

>  <m_score__min__energy>  (90) 
-11.449999999999999

>  <m_primary>  (90) 
energy

$$$$
90:0
     RDKit          3D

 42 43  0  0  0  0  0  0  0  0999 V2000
   -0.4940   22.4020  -25.9910 C   0  0  0  0  0  0  0  0  0  0  0  0
   -1.3690   22.9470  -27.0340 N   0  0  0  0  0  0  0  0  0  0  0  0
   -1.5710   24.4040  -27.1120 C   0  0  0  0  0  0  0  0  0  0  0  0
   -1.0140   24.9740  -28.3840 C   0  0  0  0  0  0  0  0  0  0  0  0
   -0.0320   24.4390  -28.9600 O   0  0  0  0  0  0  0  0  0  0  0  0
   -1.6130   26.0920  -28.9530 O   0  0  0  0  0  0  0  0  0  0  0  0
   -2.0170   22.0840  -27.9980 C   0  0  0  0  0  0  0  0  0  0  0  0
   -1.4460   21.0160  -28.3590 O   0  0  0  0  0  0  0  0  0  0  0  0
   -3.3300   22.4390  -28.6520 C   0  0  0  0  0  0  0  0  0  0  0  0
   -3.1170   22.8070  -30.0540 N   0  0  0  0  0  0  0  0  0  0  0  0
   -1.9460   23.3950  -30.4020 O   0  0  0  0  0  0  0  0  0  0  0  0
   -4.0370   22.4240  -31.0900 C   0  0  0  0  0  0  0  0  0  0  0  0
   -3.6190   21.7650  -32.0780 O   0  0  0  0  0  0  0  0  0  0  0  0
   -5.4280   22.7710  -31.0150 N   0  0  0  0  0  0  0  0  0  0  0  0
   -5.9720   23.9920  -30.7520 C   0  0  0  0  0  0  0  0  0  0  0  0
   -5.2170   25.2420  -30.5190 C   0  0  0  0  0  0  0  0  0  0  0  0
   -3.8280   25.3040  -30.8330 N   0  0  0  0  0  0  0  0  0  0  0  0
   -5.7850   26.2540  -30.0300 O   0  0  0  0  0  0  0  0  0  0  0  0
   -7.3640   23.9290  -30.8180 C   0  0  0  0  0  0  0  0  0  0  0  0
   -7.6520   22.6230  -31.1490 C   0  0  0  0  0  0  0  0  0  0  0  0
   -8.8790   22.0020  -31.3550 C   0  0  0  0  0  0  0  0  0  0  0  0
   -8.8770   20.6380  -31.6960 C   0  0  0  0  0  0  0  0  0  0  0  0
   -7.6570   19.9260  -31.8370 C   0  0  0  0  0  0  0  0  0  0  0  0
   -7.6880   18.4520  -32.1570 C   0  0  0  0  0  0  0  0  0  0  0  0
   -6.8240   17.7660  -31.3210 F   0  0  0  0  0  0  0  0  0  0  0  0
   -8.9600   17.9290  -31.9900 F   0  0  0  0  0  0  0  0  0  0  0  0
   -7.2910   18.2610  -33.4670 F   0  0  0  0  0  0  0  0  0  0  0  0
   -6.4300   20.5950  -31.6110 C   0  0  0  0  0  0  0  0  0  0  0  0
   -6.4660   21.9490  -31.2700 C   0  0  0  0  0  0  0  0  0  0  0  0
   -0.9013   22.6557  -25.0012 H   0  0  0  0  0  0  0  0  0  0  0  0
   -0.4370   21.3084  -26.0947 H   0  0  0  0  0  0  0  0  0  0  0  0
    0.5127   22.8331  -26.0947 H   0  0  0  0  0  0  0  0  0  0  0  0
   -2.6492   24.6174  -27.0678 H   0  0  0  0  0  0  0  0  0  0  0  0
   -1.0423   24.8694  -26.2671 H   0  0  0  0  0  0  0  0  0  0  0  0
   -4.0057   21.5724  -28.6030 H   0  0  0  0  0  0  0  0  0  0  0  0
   -3.7743   23.2940  -28.1213 H   0  0  0  0  0  0  0  0  0  0  0  0
   -2.0260   24.3310  -30.0870 H   0  0  0  0  0  0  0  0  0  0  0  0
   -3.1060   25.2640  -30.0800 H   0  0  0  0  0  0  0  0  0  0  0  0
   -8.0786   24.7468  -30.6432 H   0  0  0  0  0  0  0  0  0  0  0  0
   -9.8214   22.5603  -31.2543 H   0  0  0  0  0  0  0  0  0  0  0  0
   -9.8322   20.1163  -31.8554 H   0  0  0  0  0  0  0  0  0  0  0  0
   -5.4722   20.0618  -31.7017 H   0  0  0  0  0  0  0  0  0  0  0  0
  1  2  1  0
  2  3  1  0
  3  4  1  0
  4  5  2  0
  4  6  1  0
  2  7  1  0
  7  8  2  0
  7  9  1  0
  9 10  1  0
 10 11  1  0
 10 12  1  0
 12 13  2  0
 12 14  1  0
 14 15  1  0
 15 16  1  0
 16 17  1  0
 16 18  2  0
 15 19  2  0
 19 20  1  0
 20 21  2  0
 21 22  1  0
 22 23  2  0
 23 24  1  0
 24 25  1  0
 24 26  1  0
 24 27  1  0
 23 28  1  0
 28 29  2  0
 29 14  1  0
 29 20  1  0
  1 30  1  0
  1 31  1  0
  1 32  1  0
  3 33  1  0
  3 34  1  0
  9 35  1  0
  9 36  1  0
 11 37  1  0
 17 38  1  0
 19 39  1  0
 21 40  1  0
 22 41  1  0
 28 42  1  0
M  CHG  2   6  -1  17  -1
M  END
>  <UniqueID>  (91) 
90

>  <SMILES>  (91) 
CN(CC(=O)[O-])C(=O)CN(O)C(=O)n1c(C([NH-])=O)cc2ccc(C(F)(F)F)cc21

>  <Energy>  (91) 
76.28699033689205

>  <Genealogy>  (91) 
CN(CC(=O)[O-])C(=O)CN(O)C(=O)n1c(C([NH-])=O)cc2ccc(C(F)(F)F)cc21 (protonated)
CN(CC(=O)[O-])C(=O)CN(O)C(=O)n1c(C([NH-])=O)cc2ccc(C(F)(F)F)cc21 (3D coordinates assigned)
CN(CC(=O)[O-])C(=O)CN(O)C(=O)n1c(C([NH-])=O)cc2ccc(C(F)(F)F)cc21 (optimized conformer: 76.28699033689205 kcal/mol)

>  <smiles>  (91) 
CN(CC(=O)O)C(=O)CN(O)C(=O)n1c(C(N)=O)cc2ccc(C(F)(F)F)cc21

>  <score_type>  (91) 
oracle

>  <origin>  (91) 
adg

>  <m_score__min__energy>  (91) 
-12.039999999999999

>  <m_primary>  (91) 
energy

$$$$
91:0
     RDKit          3D

 43 44  0  0  0  0  0  0  0  0999 V2000
   -0.1530   22.6140  -28.0410 C   0  0  0  0  0  0  0  0  0  0  0  0
   -0.8640   23.5660  -29.0050 C   0  0  1  0  0  0  0  0  0  0  0  0
   -2.2940   23.2760  -29.0360 N   0  0  0  0  0  0  0  0  0  0  0  0
   -2.8690   22.2080  -29.7940 C   0  0  0  0  0  0  0  0  0  0  0  0
   -2.9020   21.0400  -29.3220 O   0  0  0  0  0  0  0  0  0  0  0  0
   -3.4290   22.4790  -31.1260 C   0  0  0  0  0  0  0  0  0  0  0  0
   -2.6530   22.6370  -32.1050 O   0  0  0  0  0  0  0  0  0  0  0  0
   -4.8490   22.5850  -31.3200 N   0  0  0  0  0  0  0  0  0  0  0  0
   -5.6610   23.6080  -30.9380 C   0  0  0  0  0  0  0  0  0  0  0  0
   -5.2030   24.8840  -30.3430 C   0  0  0  0  0  0  0  0  0  0  0  0
   -3.8070   25.1850  -30.2320 N   0  0  0  0  0  0  0  0  0  0  0  0
   -6.0430   25.7170  -29.9100 O   0  0  0  0  0  0  0  0  0  0  0  0
   -6.9880   23.3210  -31.2590 C   0  0  0  0  0  0  0  0  0  0  0  0
   -6.9600   22.0740  -31.8400 C   0  0  0  0  0  0  0  0  0  0  0  0
   -7.9980   21.2940  -32.3340 C   0  0  0  0  0  0  0  0  0  0  0  0
   -7.6850   20.0220  -32.8460 C   0  0  0  0  0  0  0  0  0  0  0  0
   -6.3430   19.5370  -32.8460 C   0  0  0  0  0  0  0  0  0  0  0  0
   -5.9540   18.1720  -33.4360 C   0  0  0  0  0  0  0  0  0  0  0  0
   -6.0420   18.2390  -34.9710 C   0  0  0  0  0  0  0  0  0  0  0  0
   -6.8400   17.0090  -32.9410 C   0  0  0  0  0  0  0  0  0  0  0  0
   -4.5610   17.8570  -33.0530 C   0  0  0  0  0  0  0  0  0  0  0  0
   -3.4710   17.6100  -32.7530 N   0  0  0  0  0  0  0  0  0  0  0  0
   -5.3210   20.3790  -32.3310 C   0  0  0  0  0  0  0  0  0  0  0  0
   -5.6600   21.6470  -31.8550 C   0  0  0  0  0  0  0  0  0  0  0  0
   -0.6710   24.9930  -28.5820 C   0  0  0  0  0  0  0  0  0  0  0  0
    0.3620   25.3260  -27.9400 O   0  0  0  0  0  0  0  0  0  0  0  0
   -1.5840   25.9690  -28.9660 O   0  0  0  0  0  0  0  0  0  0  0  0
   -0.3736   22.9094  -27.0046 H   0  0  0  0  0  0  0  0  0  0  0  0
   -0.5067   21.5867  -28.2127 H   0  0  0  0  0  0  0  0  0  0  0  0
    0.9325   22.6615  -28.2127 H   0  0  0  0  0  0  0  0  0  0  0  0
   -0.4299   23.4201  -30.0051 H   0  0  0  0  0  0  0  0  0  0  0  0
   -3.0810   24.5580  -30.6420 H   0  0  0  0  0  0  0  0  0  0  0  0
   -3.4980   26.0610  -29.7540 H   0  0  0  0  0  0  0  0  0  0  0  0
   -7.8690   23.9562  -31.0848 H   0  0  0  0  0  0  0  0  0  0  0  0
   -9.0350   21.6607  -32.3250 H   0  0  0  0  0  0  0  0  0  0  0  0
   -8.4882   19.3904  -33.2533 H   0  0  0  0  0  0  0  0  0  0  0  0
   -6.8860   18.8816  -35.2622 H   0  0  0  0  0  0  0  0  0  0  0  0
   -5.1074   18.6563  -35.3740 H   0  0  0  0  0  0  0  0  0  0  0  0
   -6.1955   17.2271  -35.3740 H   0  0  0  0  0  0  0  0  0  0  0  0
   -6.8489   16.9973  -31.8411 H   0  0  0  0  0  0  0  0  0  0  0  0
   -7.8657   17.1447  -33.3146 H   0  0  0  0  0  0  0  0  0  0  0  0
   -6.4368   16.0562  -33.3146 H   0  0  0  0  0  0  0  0  0  0  0  0
   -4.2760   20.0363  -32.3076 H   0  0  0  0  0  0  0  0  0  0  0  0
  1  2  1  0
  2  3  1  0
  3  4  1  0
  4  5  2  0
  4  6  1  0
  6  7  2  0
  6  8  1  0
  8  9  1  0
  9 10  1  0
 10 11  1  0
 10 12  2  0
  9 13  2  0
 13 14  1  0
 14 15  2  0
 15 16  1  0
 16 17  2  0
 17 18  1  0
 18 19  1  0
 18 20  1  0
 18 21  1  0
 21 22  3  0
 17 23  1  0
 23 24  2  0
  2 25  1  0
 25 26  2  0
 25 27  1  0
 24  8  1  0
 24 14  1  0
  1 28  1  0
  1 29  1  0
  1 30  1  0
  2 31  1  6
 11 32  1  0
 11 33  1  0
 13 34  1  0
 15 35  1  0
 16 36  1  0
 19 37  1  0
 19 38  1  0
 19 39  1  0
 20 40  1  0
 20 41  1  0
 20 42  1  0
 23 43  1  0
M  CHG  2   3  -1  27  -1
M  END
>  <UniqueID>  (92) 
91

>  <SMILES>  (92) 
C[C@@H]([N-]C(=O)C(=O)n1c(C(N)=O)cc2ccc(C(C)(C)C#N)cc21)C(=O)[O-]

>  <Energy>  (92) 
77.87072970481807

>  <Genealogy>  (92) 
CC([N-]C(=O)C(=O)n1c(C(N)=O)cc2ccc(C(C)(C)C#N)cc21)C(=O)[O-] (protonated)
C[C@@H]([N-]C(=O)C(=O)n1c(C(N)=O)cc2ccc(C(C)(C)C#N)cc21)C(=O)[O-] (chirality)
C[C@@H]([N-]C(=O)C(=O)n1c(C(N)=O)cc2ccc(C(C)(C)C#N)cc21)C(=O)[O-] (3D coordinates assigned)
C[C@@H]([N-]C(=O)C(=O)n1c(C(N)=O)cc2ccc(C(C)(C)C#N)cc21)C(=O)[O-] (optimized conformer: 77.87072970481807 kcal/mol)

>  <smiles>  (92) 
CC(NC(=O)C(=O)n1c(C(N)=O)cc2ccc(C(C)(C)C#N)cc21)C(=O)O

>  <score_type>  (92) 
oracle

>  <origin>  (92) 
adg

>  <m_score__min__energy>  (92) 
-12.65

>  <m_primary>  (92) 
energy

$$$$
92:0
     RDKit          3D

 49 50  0  0  0  0  0  0  0  0999 V2000
   -5.7930   17.8420  -34.9480 C   0  0  0  0  0  0  0  0  0  0  0  0
   -5.1590   18.7460  -34.1960 C   0  0  0  0  0  0  0  0  0  0  0  0
   -4.1630   18.3330  -33.1550 C   0  0  0  0  0  0  0  0  0  0  0  0
   -3.6740   19.4890  -32.4840 O   0  0  0  0  0  0  0  0  0  0  0  0
   -2.9850   20.5160  -33.1380 C   0  0  0  0  0  0  0  0  0  0  0  0
   -2.0880   20.2500  -33.9830 O   0  0  0  0  0  0  0  0  0  0  0  0
   -3.3030   21.9490  -32.8280 C   0  0  0  0  0  0  0  0  0  0  0  0
   -3.0840   22.2360  -31.4030 N   0  0  0  0  0  0  0  0  0  0  0  0
   -1.7320   22.3030  -30.8970 C   0  0  0  0  0  0  0  0  0  0  0  0
   -0.9130   21.3800  -31.1610 O   0  0  0  0  0  0  0  0  0  0  0  0
   -1.3380   23.3670  -30.0770 O   0  0  0  0  0  0  0  0  0  0  0  0
   -1.4130   23.3380  -28.6550 C   0  0  0  0  0  0  0  0  0  0  0  0
   -2.3050   24.4390  -28.1600 C   0  0  0  0  0  0  0  0  0  0  0  0
   -3.4180   24.1740  -27.4710 C   0  0  0  0  0  0  0  0  0  0  0  0
   -4.2120   22.1990  -30.5000 C   0  0  0  0  0  0  0  0  0  0  0  0
   -4.0610   21.7840  -29.3190 O   0  0  0  0  0  0  0  0  0  0  0  0
   -5.5070   22.6580  -30.9140 N   0  0  0  0  0  0  0  0  0  0  0  0
   -6.0110   23.9200  -30.8420 C   0  0  0  0  0  0  0  0  0  0  0  0
   -5.2660   25.1170  -30.4020 C   0  0  0  0  0  0  0  0  0  0  0  0
   -3.8760   25.2390  -30.6980 N   0  0  0  0  0  0  0  0  0  0  0  0
   -5.8420   26.0330  -29.7570 O   0  0  0  0  0  0  0  0  0  0  0  0
   -7.3450   23.9340  -31.2510 C   0  0  0  0  0  0  0  0  0  0  0  0
   -7.6410   22.6260  -31.5720 C   0  0  0  0  0  0  0  0  0  0  0  0
   -8.8400   22.0480  -31.9780 C   0  0  0  0  0  0  0  0  0  0  0  0
   -8.8690   20.6550  -32.1670 C   0  0  0  0  0  0  0  0  0  0  0  0
   -7.7060   19.8740  -31.9560 C   0  0  0  0  0  0  0  0  0  0  0  0
   -7.7640   18.3820  -32.0940 C   0  0  0  0  0  0  0  0  0  0  0  0
   -6.5110   20.4930  -31.5340 C   0  0  0  0  0  0  0  0  0  0  0  0
   -6.5100   21.8790  -31.3640 C   0  0  0  0  0  0  0  0  0  0  0  0
   -6.5200   18.1695  -35.7058 H   0  0  0  0  0  0  0  0  0  0  0  0
   -5.5881   16.7702  -34.8094 H   0  0  0  0  0  0  0  0  0  0  0  0
   -5.3723   19.8150  -34.3438 H   0  0  0  0  0  0  0  0  0  0  0  0
   -4.6475   17.6642  -32.4283 H   0  0  0  0  0  0  0  0  0  0  0  0
   -3.3260   17.8056  -33.6359 H   0  0  0  0  0  0  0  0  0  0  0  0
   -2.6540   22.6010  -33.4311 H   0  0  0  0  0  0  0  0  0  0  0  0
   -4.3606   22.1350  -33.0666 H   0  0  0  0  0  0  0  0  0  0  0  0
   -1.8197   22.3682  -28.3324 H   0  0  0  0  0  0  0  0  0  0  0  0
   -0.4043   23.4794  -28.2396 H   0  0  0  0  0  0  0  0  0  0  0  0
   -2.0366   25.4851  -28.3689 H   0  0  0  0  0  0  0  0  0  0  0  0
   -4.0560   24.9979  -27.1186 H   0  0  0  0  0  0  0  0  0  0  0  0
   -3.6967   23.1319  -27.2560 H   0  0  0  0  0  0  0  0  0  0  0  0
   -3.5150   26.0460  -31.2510 H   0  0  0  0  0  0  0  0  0  0  0  0
   -8.0171   24.8031  -31.3057 H   0  0  0  0  0  0  0  0  0  0  0  0
   -9.7372   22.6618  -32.1459 H   0  0  0  0  0  0  0  0  0  0  0  0
   -9.8033   20.1671  -32.4816 H   0  0  0  0  0  0  0  0  0  0  0  0
   -7.7819   17.9218  -31.0951 H   0  0  0  0  0  0  0  0  0  0  0  0
   -8.6738   18.0997  -32.6441 H   0  0  0  0  0  0  0  0  0  0  0  0
   -6.8789   18.0300  -32.6441 H   0  0  0  0  0  0  0  0  0  0  0  0
   -5.6043   19.9000  -31.3439 H   0  0  0  0  0  0  0  0  0  0  0  0
  1  2  2  0
  2  3  1  0
  3  4  1  0
  4  5  1  0
  5  6  2  0
  5  7  1  0
  7  8  1  0
  8  9  1  0
  9 10  2  0
  9 11  1  0
 11 12  1  0
 12 13  1  0
 13 14  2  0
  8 15  1  0
 15 16  2  0
 15 17  1  0
 17 18  1  0
 18 19  1  0
 19 20  1  0
 19 21  2  0
 18 22  2  0
 22 23  1  0
 23 24  2  0
 24 25  1  0
 25 26  2  0
 26 27  1  0
 26 28  1  0
 28 29  2  0
 29 17  1  0
 29 23  1  0
  1 30  1  0
  1 31  1  0
  2 32  1  0
  3 33  1  0
  3 34  1  0
  7 35  1  0
  7 36  1  0
 12 37  1  0
 12 38  1  0
 13 39  1  0
 14 40  1  0
 14 41  1  0
 20 42  1  0
 22 43  1  0
 24 44  1  0
 25 45  1  0
 27 46  1  0
 27 47  1  0
 27 48  1  0
 28 49  1  0
M  CHG  1  20  -1
M  END
>  <UniqueID>  (93) 
92

>  <SMILES>  (93) 
C=CCOC(=O)CN(C(=O)OCC=C)C(=O)n1c(C([NH-])=O)cc2ccc(C)cc21

>  <Energy>  (93) 
74.07131704421086

>  <Genealogy>  (93) 
C=CCOC(=O)CN(C(=O)OCC=C)C(=O)n1c(C([NH-])=O)cc2ccc(C)cc21 (protonated)
C=CCOC(=O)CN(C(=O)OCC=C)C(=O)n1c(C([NH-])=O)cc2ccc(C)cc21 (3D coordinates assigned)
C=CCOC(=O)CN(C(=O)OCC=C)C(=O)n1c(C([NH-])=O)cc2ccc(C)cc21 (optimized conformer: 74.07131704421086 kcal/mol)

>  <smiles>  (93) 
C=CCOC(=O)CN(C(=O)OCC=C)C(=O)n1c(C(N)=O)cc2ccc(C)cc21

>  <score_type>  (93) 
oracle

>  <origin>  (93) 
adg

>  <m_score__min__energy>  (93) 
-10.869999999999999

>  <m_primary>  (93) 
energy

$$$$
93:0
     RDKit          3D

 32 33  0  0  0  0  0  0  0  0999 V2000
   -3.8560   25.3460  -30.8680 N   0  0  0  0  0  0  0  0  0  0  0  0
   -5.2490   25.1930  -30.6100 C   0  0  0  0  0  0  0  0  0  0  0  0
   -5.8700   26.1080  -30.0050 O   0  0  0  0  0  0  0  0  0  0  0  0
   -5.9610   23.9550  -30.9890 C   0  0  0  0  0  0  0  0  0  0  0  0
   -7.3430   23.8830  -31.1520 C   0  0  0  0  0  0  0  0  0  0  0  0
   -7.6120   22.5560  -31.4030 C   0  0  0  0  0  0  0  0  0  0  0  0
   -8.8240   21.9230  -31.6600 C   0  0  0  0  0  0  0  0  0  0  0  0
   -8.8040   20.5410  -31.9170 C   0  0  0  0  0  0  0  0  0  0  0  0
   -7.5820   19.8180  -31.9020 C   0  0  0  0  0  0  0  0  0  0  0  0
   -7.5670   18.3500  -32.2410 C   0  0  0  0  0  0  0  0  0  0  0  0
   -7.1940   18.1570  -33.5610 F   0  0  0  0  0  0  0  0  0  0  0  0
   -6.6680   17.6720  -31.4360 F   0  0  0  0  0  0  0  0  0  0  0  0
   -8.8300   17.8240  -32.0490 F   0  0  0  0  0  0  0  0  0  0  0  0
   -6.3690   20.5050  -31.6610 C   0  0  0  0  0  0  0  0  0  0  0  0
   -6.4220   21.8770  -31.3900 C   0  0  0  0  0  0  0  0  0  0  0  0
   -5.3980   22.7230  -31.1450 N   0  0  0  0  0  0  0  0  0  0  0  0
   -4.0040   22.3820  -31.1270 C   0  0  0  0  0  0  0  0  0  0  0  0
   -3.3000   22.5600  -32.1600 O   0  0  0  0  0  0  0  0  0  0  0  0
   -3.4380   21.8410  -29.9690 O   0  0  0  0  0  0  0  0  0  0  0  0
   -2.6900   22.6160  -29.0340 C   0  0  0  0  0  0  0  0  0  0  0  0
   -1.7580   23.4420  -29.6970 O   0  0  0  0  0  0  0  0  0  0  0  0
   -1.1080   24.5580  -28.5800 P   0  0  0  0  0  0  0  0  0  0  0  0
   -1.6090   24.2130  -27.1970 O   0  0  0  0  0  0  0  0  0  0  0  0
    0.5820   24.4820  -28.5870 O   0  0  0  0  0  0  0  0  0  0  0  0
   -1.6050   26.1280  -28.9680 O   0  0  0  0  0  0  0  0  0  0  0  0
   -3.1470   25.1370  -30.1310 H   0  0  0  0  0  0  0  0  0  0  0  0
   -8.0655   24.7103  -31.0928 H   0  0  0  0  0  0  0  0  0  0  0  0
   -9.7687   22.4865  -31.6620 H   0  0  0  0  0  0  0  0  0  0  0  0
   -9.7453   20.0140  -32.1321 H   0  0  0  0  0  0  0  0  0  0  0  0
   -5.4065   19.9731  -31.6860 H   0  0  0  0  0  0  0  0  0  0  0  0
   -3.3806   23.2456  -28.4538 H   0  0  0  0  0  0  0  0  0  0  0  0
   -2.1428   21.9322  -28.3685 H   0  0  0  0  0  0  0  0  0  0  0  0
  1  2  1  0
  2  3  2  0
  2  4  1  0
  4  5  2  0
  5  6  1  0
  6  7  2  0
  7  8  1  0
  8  9  2  0
  9 10  1  0
 10 11  1  0
 10 12  1  0
 10 13  1  0
  9 14  1  0
 14 15  2  0
 15 16  1  0
 16 17  1  0
 17 18  2  0
 17 19  1  0
 19 20  1  0
 20 21  1  0
 21 22  1  0
 22 23  2  0
 22 24  1  0
 22 25  1  0
 16  4  1  0
 15  6  1  0
  1 26  1  0
  5 27  1  0
  7 28  1  0
  8 29  1  0
 14 30  1  0
 20 31  1  0
 20 32  1  0
M  CHG  3   1  -1  24  -1  25  -1
M  END
>  <UniqueID>  (94) 
93

>  <SMILES>  (94) 
[NH-]C(=O)c1cc2ccc(C(F)(F)F)cc2n1C(=O)OCOP(=O)([O-])[O-]

>  <Energy>  (94) 
70.01139952200873

>  <Genealogy>  (94) 
[NH-]C(=O)c1cc2ccc(C(F)(F)F)cc2n1C(=O)OCOP(=O)([O-])[O-] (protonated)
[NH-]C(=O)c1cc2ccc(C(F)(F)F)cc2n1C(=O)OCOP(=O)([O-])[O-] (3D coordinates assigned)
[NH-]C(=O)c1cc2ccc(C(F)(F)F)cc2n1C(=O)OCOP(=O)([O-])[O-] (optimized conformer: 70.01139952200873 kcal/mol)

>  <smiles>  (94) 
NC(=O)c1cc2ccc(C(F)(F)F)cc2n1C(=O)OCOP(=O)(O)O

>  <score_type>  (94) 
oracle

>  <origin>  (94) 
adg

>  <m_score__min__energy>  (94) 
-13.26

>  <m_primary>  (94) 
energy

$$$$
94:0
     RDKit          3D

 40 42  0  0  0  0  0  0  0  0999 V2000
   -2.8880   21.4150  -33.0810 C   0  0  0  0  0  0  0  0  0  0  0  0
   -2.7520   20.2760  -33.7600 C   0  0  0  0  0  0  0  0  0  0  0  0
   -3.8350   19.4510  -34.1000 O   0  0  0  0  0  0  0  0  0  0  0  0
   -4.3510   18.4190  -33.3060 C   0  0  0  0  0  0  0  0  0  0  0  0
   -3.6130   17.4570  -32.9630 O   0  0  0  0  0  0  0  0  0  0  0  0
   -5.7340   18.4440  -32.9030 N   0  0  0  0  0  0  0  0  0  0  0  0
   -6.6620   17.4620  -33.0820 C   0  0  0  0  0  0  0  0  0  0  0  0
   -6.4020   16.1280  -33.6450 C   0  0  0  0  0  0  0  0  0  0  0  0
   -5.3000   15.3470  -33.1860 N   0  0  0  0  0  0  0  0  0  0  0  0
   -7.2010   15.6450  -34.4910 O   0  0  0  0  0  0  0  0  0  0  0  0
   -7.9280   17.8980  -32.7170 C   0  0  0  0  0  0  0  0  0  0  0  0
   -7.7500   19.1860  -32.2700 C   0  0  0  0  0  0  0  0  0  0  0  0
   -8.6750   20.0860  -31.7530 C   0  0  0  0  0  0  0  0  0  0  0  0
   -8.2120   21.3450  -31.3380 C   0  0  0  0  0  0  0  0  0  0  0  0
   -6.8370   21.6870  -31.4410 C   0  0  0  0  0  0  0  0  0  0  0  0
   -6.3660   22.9770  -30.9870 N   0  0  0  0  0  0  0  0  0  0  0  0
   -6.9950   23.7450  -29.9220 C   0  0  0  0  0  0  0  0  0  0  0  0
   -6.0580   24.9120  -29.6470 C   0  0  0  0  0  0  0  0  0  0  0  0
   -5.2000   25.0430  -30.9010 C   0  0  1  0  0  0  0  0  0  0  0  0
   -3.9030   25.4650  -30.5740 O   0  0  0  0  0  0  0  0  0  0  0  0
   -5.1950   23.6520  -31.5270 C   0  0  0  0  0  0  0  0  0  0  0  0
   -5.9290   20.7410  -31.9800 C   0  0  0  0  0  0  0  0  0  0  0  0
   -6.4200   19.4960  -32.3940 C   0  0  0  0  0  0  0  0  0  0  0  0
   -2.0023   22.0221  -32.8422 H   0  0  0  0  0  0  0  0  0  0  0  0
   -3.8859   21.7478  -32.7595 H   0  0  0  0  0  0  0  0  0  0  0  0
   -1.7421   19.9679  -34.0687 H   0  0  0  0  0  0  0  0  0  0  0  0
   -4.6970   15.6840  -32.4030 H   0  0  0  0  0  0  0  0  0  0  0  0
   -5.1070   14.4120  -33.6100 H   0  0  0  0  0  0  0  0  0  0  0  0
   -8.8710   17.3344  -32.7732 H   0  0  0  0  0  0  0  0  0  0  0  0
   -9.7391   19.8194  -31.6714 H   0  0  0  0  0  0  0  0  0  0  0  0
   -8.9237   22.0765  -30.9275 H   0  0  0  0  0  0  0  0  0  0  0  0
   -7.9805   24.1122  -30.2446 H   0  0  0  0  0  0  0  0  0  0  0  0
   -7.1570   23.1337  -29.0220 H   0  0  0  0  0  0  0  0  0  0  0  0
   -6.6318   25.8345  -29.4746 H   0  0  0  0  0  0  0  0  0  0  0  0
   -5.4471   24.7445  -28.7477 H   0  0  0  0  0  0  0  0  0  0  0  0
   -5.5950   25.7964  -31.5983 H   0  0  0  0  0  0  0  0  0  0  0  0
   -3.8560   26.4290  -30.8070 H   0  0  0  0  0  0  0  0  0  0  0  0
   -5.2638   23.7234  -32.6225 H   0  0  0  0  0  0  0  0  0  0  0  0
   -4.2681   23.1056  -31.2985 H   0  0  0  0  0  0  0  0  0  0  0  0
   -4.8592   20.9801  -32.0714 H   0  0  0  0  0  0  0  0  0  0  0  0
  1  2  2  0
  2  3  1  0
  3  4  1  0
  4  5  2  0
  4  6  1  0
  6  7  1  0
  7  8  1  0
  8  9  1  0
  8 10  2  0
  7 11  2  0
 11 12  1  0
 12 13  2  0
 13 14  1  0
 14 15  2  0
 15 16  1  0
 16 17  1  0
 17 18  1  0
 18 19  1  0
 19 20  1  0
 19 21  1  0
 15 22  1  0
 22 23  2  0
 23  6  1  0
 23 12  1  0
 21 16  1  0
  1 24  1  0
  1 25  1  0
  2 26  1  0
  9 27  1  0
  9 28  1  0
 11 29  1  0
 13 30  1  0
 14 31  1  0
 17 32  1  0
 17 33  1  0
 18 34  1  0
 18 35  1  0
 19 36  1  6
 20 37  1  0
 21 38  1  0
 21 39  1  0
 22 40  1  0
M  END
>  <UniqueID>  (95) 
94

>  <SMILES>  (95) 
C=COC(=O)n1c(C(N)=O)cc2ccc(N3CC[C@@H](O)C3)cc21

>  <Energy>  (95) 
89.08316218005466

>  <Genealogy>  (95) 
C=COC(=O)n1c(C(N)=O)cc2ccc(N3CC[C@@H](O)C3)cc21 (3D coordinates assigned)
C=COC(=O)n1c(C(N)=O)cc2ccc(N3CC[C@@H](O)C3)cc21 (nonaromatic ring conformer: 89.08316218005466 kcal/mol)

>  <smiles>  (95) 
C=COC(=O)n1c(C(N)=O)cc2ccc(N3CC[C@@H](O)C3)cc21

>  <score_type>  (95) 
oracle

>  <origin>  (95) 
adg

>  <m_score__min__energy>  (95) 
-8.4199999999999999

>  <m_primary>  (95) 
energy

$$$$
95:0
     RDKit          3D

 42 43  0  0  0  0  0  0  0  0999 V2000
   -0.8630   26.0750  -24.6330 C   0  0  0  0  0  0  0  0  0  0  0  0
   -2.0730   25.6860  -25.2720 O   0  0  0  0  0  0  0  0  0  0  0  0
   -2.1640   25.4850  -26.6510 C   0  0  0  0  0  0  0  0  0  0  0  0
   -2.9080   24.5840  -27.1230 O   0  0  0  0  0  0  0  0  0  0  0  0
   -1.3470   26.3350  -27.5710 C   0  0  0  0  0  0  0  0  0  0  0  0
   -1.1990   25.6780  -28.8640 N   0  0  0  0  0  0  0  0  0  0  0  0
   -0.6990   24.3470  -29.0100 C   0  0  0  0  0  0  0  0  0  0  0  0
    0.5440   24.1480  -28.9590 O   0  0  0  0  0  0  0  0  0  0  0  0
   -1.5850   23.2810  -29.2020 O   0  0  0  0  0  0  0  0  0  0  0  0
   -1.7240   22.6000  -30.4440 C   0  0  0  0  0  0  0  0  0  0  0  0
   -2.9880   22.9060  -31.0200 O   0  0  0  0  0  0  0  0  0  0  0  0
   -4.0650   22.0140  -30.9940 C   0  0  0  0  0  0  0  0  0  0  0  0
   -3.8590   20.7740  -30.8840 O   0  0  0  0  0  0  0  0  0  0  0  0
   -5.4090   22.5140  -31.0710 N   0  0  0  0  0  0  0  0  0  0  0  0
   -5.8600   23.7390  -30.6790 C   0  0  0  0  0  0  0  0  0  0  0  0
   -5.0050   24.8680  -30.2550 C   0  0  0  0  0  0  0  0  0  0  0  0
   -3.9170   24.6600  -29.3520 N   0  0  0  0  0  0  0  0  0  0  0  0
   -5.2490   26.0340  -30.6600 O   0  0  0  0  0  0  0  0  0  0  0  0
   -7.2430   23.8230  -30.8270 C   0  0  0  0  0  0  0  0  0  0  0  0
   -7.6300   22.6010  -31.3290 C   0  0  0  0  0  0  0  0  0  0  0  0
   -8.8990   22.1270  -31.6460 C   0  0  0  0  0  0  0  0  0  0  0  0
   -9.0110   20.8080  -32.1160 C   0  0  0  0  0  0  0  0  0  0  0  0
   -7.8600   19.9940  -32.2620 C   0  0  0  0  0  0  0  0  0  0  0  0
   -7.9990   18.5720  -32.7130 C   0  0  0  0  0  0  0  0  0  0  0  0
   -6.5900   20.5040  -31.9150 C   0  0  0  0  0  0  0  0  0  0  0  0
   -6.5060   21.8280  -31.4670 C   0  0  0  0  0  0  0  0  0  0  0  0
   -0.9946   26.0327  -23.5417 H   0  0  0  0  0  0  0  0  0  0  0  0
   -0.0545   25.3915  -24.9316 H   0  0  0  0  0  0  0  0  0  0  0  0
   -0.6043   27.1016  -24.9316 H   0  0  0  0  0  0  0  0  0  0  0  0
   -1.8479   27.3043  -27.7110 H   0  0  0  0  0  0  0  0  0  0  0  0
   -0.3511   26.4875  -27.1295 H   0  0  0  0  0  0  0  0  0  0  0  0
   -0.9237   22.9195  -31.1277 H   0  0  0  0  0  0  0  0  0  0  0  0
   -1.6541   21.5154  -30.2744 H   0  0  0  0  0  0  0  0  0  0  0  0
   -3.3410   25.4700  -29.0300 H   0  0  0  0  0  0  0  0  0  0  0  0
   -3.6520   23.7020  -29.0320 H   0  0  0  0  0  0  0  0  0  0  0  0
   -7.8881   24.6826  -30.5926 H   0  0  0  0  0  0  0  0  0  0  0  0
   -9.7874   22.7655  -31.5321 H   0  0  0  0  0  0  0  0  0  0  0  0
  -10.0010   20.4032  -32.3731 H   0  0  0  0  0  0  0  0  0  0  0  0
   -8.0634   17.9133  -31.8344 H   0  0  0  0  0  0  0  0  0  0  0  0
   -8.9117   18.4667  -33.3179 H   0  0  0  0  0  0  0  0  0  0  0  0
   -7.1239   18.2920  -33.3179 H   0  0  0  0  0  0  0  0  0  0  0  0
   -5.6895   19.8773  -31.9946 H   0  0  0  0  0  0  0  0  0  0  0  0
  1  2  1  0
  2  3  1  0
  3  4  2  0
  3  5  1  0
  5  6  1  0
  6  7  1  0
  7  8  2  0
  7  9  1  0
  9 10  1  0
 10 11  1  0
 11 12  1  0
 12 13  2  0
 12 14  1  0
 14 15  1  0
 15 16  1  0
 16 17  1  0
 16 18  2  0
 15 19  2  0
 19 20  1  0
 20 21  2  0
 21 22  1  0
 22 23  2  0
 23 24  1  0
 23 25  1  0
 25 26  2  0
 26 14  1  0
 26 20  1  0
  1 27  1  0
  1 28  1  0
  1 29  1  0
  5 30  1  0
  5 31  1  0
 10 32  1  0
 10 33  1  0
 17 34  1  0
 17 35  1  0
 19 36  1  0
 21 37  1  0
 22 38  1  0
 24 39  1  0
 24 40  1  0
 24 41  1  0
 25 42  1  0
M  CHG  1   6  -1
M  END
>  <UniqueID>  (96) 
95

>  <SMILES>  (96) 
COC(=O)C[N-]C(=O)OCOC(=O)n1c(C(N)=O)cc2ccc(C)cc21

>  <Energy>  (96) 
70.27992862671448

>  <Genealogy>  (96) 
COC(=O)C[N-]C(=O)OCOC(=O)n1c(C(N)=O)cc2ccc(C)cc21 (protonated)
COC(=O)C[N-]C(=O)OCOC(=O)n1c(C(N)=O)cc2ccc(C)cc21 (3D coordinates assigned)
COC(=O)C[N-]C(=O)OCOC(=O)n1c(C(N)=O)cc2ccc(C)cc21 (optimized conformer: 70.27992862671448 kcal/mol)

>  <smiles>  (96) 
COC(=O)CNC(=O)OCOC(=O)n1c(C(N)=O)cc2ccc(C)cc21

>  <score_type>  (96) 
oracle

>  <origin>  (96) 
adg

>  <m_score__min__energy>  (96) 
-9.5299999999999994

>  <m_primary>  (96) 
energy

$$$$
96:0
     RDKit          3D

 59 62  0  0  0  0  0  0  0  0999 V2000
   -3.9190   25.6630  -30.8520 N   0  0  0  0  0  0  0  0  0  0  0  0
   -5.2470   25.3140  -30.4700 C   0  0  0  0  0  0  0  0  0  0  0  0
   -5.9250   26.1210  -29.7840 O   0  0  0  0  0  0  0  0  0  0  0  0
   -5.8050   24.0060  -30.8660 C   0  0  0  0  0  0  0  0  0  0  0  0
   -7.1470   23.8040  -31.1780 C   0  0  0  0  0  0  0  0  0  0  0  0
   -7.2440   22.4790  -31.5310 C   0  0  0  0  0  0  0  0  0  0  0  0
   -8.3570   21.7360  -31.9130 C   0  0  0  0  0  0  0  0  0  0  0  0
   -8.1730   20.3730  -32.1950 C   0  0  0  0  0  0  0  0  0  0  0  0
   -6.8910   19.7790  -32.0810 C   0  0  0  0  0  0  0  0  0  0  0  0
   -6.7000   18.3150  -32.3600 C   0  0  0  0  0  0  0  0  0  0  0  0
   -7.9290   17.7220  -32.6000 F   0  0  0  0  0  0  0  0  0  0  0  0
   -6.1050   17.7070  -31.2690 F   0  0  0  0  0  0  0  0  0  0  0  0
   -5.7870   20.5640  -31.6840 C   0  0  0  0  0  0  0  0  0  0  0  0
   -5.9960   21.9240  -31.4290 C   0  0  0  0  0  0  0  0  0  0  0  0
   -5.0990   22.8510  -31.0240 N   0  0  0  0  0  0  0  0  0  0  0  0
   -3.7110   22.6290  -30.7250 C   0  0  0  0  0  0  0  0  0  0  0  0
   -2.8390   23.3750  -31.2410 O   0  0  0  0  0  0  0  0  0  0  0  0
   -3.2880   21.4750  -29.8540 C   0  0  0  0  0  0  0  0  0  0  0  0
   -3.7700   21.6360  -28.3880 C   0  0  0  0  0  0  0  0  0  0  0  0
   -2.7070   21.1070  -27.3980 C   0  0  0  0  0  0  0  0  0  0  0  0
   -1.4820   22.0360  -27.3410 C   0  0  0  0  0  0  0  0  0  0  0  0
   -1.8860   23.4440  -27.2490 N   0  0  0  0  0  0  0  0  0  0  0  0
   -0.9340   24.4810  -27.5200 C   0  0  0  0  0  0  0  0  0  0  0  0
   -1.0560   25.3440  -28.9060 S   0  0  0  0  0  0  0  0  0  0  0  0
   -0.0380   24.9160  -26.4890 N   0  0  0  0  0  0  0  0  0  0  0  0
   -0.2720   26.2100  -25.8430 C   0  0  0  0  0  0  0  0  0  0  0  0
    0.6320   26.3550  -24.6200 C   0  0  0  0  0  0  0  0  0  0  0  0
    1.9650   26.0590  -24.9890 O   0  0  0  0  0  0  0  0  0  0  0  0
    2.1400   24.6780  -25.3090 C   0  0  2  0  0  0  0  0  0  0  0  0
    3.2500   24.5710  -26.3140 C   0  0  0  0  0  0  0  0  0  0  0  0
    3.0350   24.8260  -27.5310 O   0  0  0  0  0  0  0  0  0  0  0  0
    4.5100   24.1480  -25.9140 O   0  0  0  0  0  0  0  0  0  0  0  0
    0.8750   23.9580  -25.8600 C   0  0  0  0  0  0  0  0  0  0  0  0
   -3.2930   23.7890  -27.0170 C   0  0  0  0  0  0  0  0  0  0  0  0
   -4.1830   23.1090  -28.0710 C   0  0  0  0  0  0  0  0  0  0  0  0
   -3.0990   25.3020  -30.3310 H   0  0  0  0  0  0  0  0  0  0  0  0
   -7.9575   24.5471  -31.1483 H   0  0  0  0  0  0  0  0  0  0  0  0
   -9.3502   22.2022  -31.9916 H   0  0  0  0  0  0  0  0  0  0  0  0
   -9.0316   19.7604  -32.5073 H   0  0  0  0  0  0  0  0  0  0  0  0
   -6.0557   18.1971  -33.2437 H   0  0  0  0  0  0  0  0  0  0  0  0
   -4.7872   20.1177  -31.5777 H   0  0  0  0  0  0  0  0  0  0  0  0
   -3.7117   20.5471  -30.2658 H   0  0  0  0  0  0  0  0  0  0  0  0
   -2.1884   21.4454  -29.8453 H   0  0  0  0  0  0  0  0  0  0  0  0
   -4.6749   21.0233  -28.2628 H   0  0  0  0  0  0  0  0  0  0  0  0
   -3.1534   21.0413  -26.3948 H   0  0  0  0  0  0  0  0  0  0  0  0
   -2.3749   20.1167  -27.7429 H   0  0  0  0  0  0  0  0  0  0  0  0
   -0.8772   21.7781  -26.4591 H   0  0  0  0  0  0  0  0  0  0  0  0
   -0.8998   21.9009  -28.2644 H   0  0  0  0  0  0  0  0  0  0  0  0
   -0.0522   27.0181  -26.5562 H   0  0  0  0  0  0  0  0  0  0  0  0
   -1.3230   26.2693  -25.5240 H   0  0  0  0  0  0  0  0  0  0  0  0
    0.5755   27.3861  -24.2410 H   0  0  0  0  0  0  0  0  0  0  0  0
    0.3034   25.6600  -23.8332 H   0  0  0  0  0  0  0  0  0  0  0  0
    2.3717   24.1659  -24.3634 H   0  0  0  0  0  0  0  0  0  0  0  0
    1.1822   23.2099  -26.6057 H   0  0  0  0  0  0  0  0  0  0  0  0
    0.3533   23.4725  -25.0221 H   0  0  0  0  0  0  0  0  0  0  0  0
   -3.5909   23.4483  -26.0144 H   0  0  0  0  0  0  0  0  0  0  0  0
   -3.4140   24.8797  -27.0922 H   0  0  0  0  0  0  0  0  0  0  0  0
   -5.2190   23.1070  -27.7012 H   0  0  0  0  0  0  0  0  0  0  0  0
   -4.0705   23.6815  -29.0035 H   0  0  0  0  0  0  0  0  0  0  0  0
  1  2  1  0
  2  3  2  0
  2  4  1  0
  4  5  2  0
  5  6  1  0
  6  7  2  0
  7  8  1  0
  8  9  2  0
  9 10  1  0
 10 11  1  0
 10 12  1  0
  9 13  1  0
 13 14  2  0
 14 15  1  0
 15 16  1  0
 16 17  2  0
 16 18  1  0
 18 19  1  0
 19 20  1  0
 20 21  1  0
 21 22  1  0
 22 23  1  0
 23 24  2  0
 23 25  1  0
 25 26  1  0
 26 27  1  0
 27 28  1  0
 28 29  1  0
 29 30  1  0
 30 31  2  0
 30 32  1  0
 29 33  1  0
 22 34  1  0
 34 35  1  0
 15  4  1  0
 35 19  1  0
 14  6  1  0
 33 25  1  0
  1 36  1  0
  5 37  1  0
  7 38  1  0
  8 39  1  0
 10 40  1  0
 13 41  1  0
 18 42  1  0
 18 43  1  0
 19 44  1  0
 20 45  1  0
 20 46  1  0
 21 47  1  0
 21 48  1  0
 26 49  1  0
 26 50  1  0
 27 51  1  0
 27 52  1  0
 29 53  1  1
 33 54  1  0
 33 55  1  0
 34 56  1  0
 34 57  1  0
 35 58  1  0
 35 59  1  0
M  CHG  2   1  -1  32  -1
M  END
>  <UniqueID>  (97) 
96

>  <SMILES>  (97) 
[NH-]C(=O)c1cc2ccc(C(F)F)cc2n1C(=O)CC1CCN(C(=S)N2CCO[C@H](C(=O)[O-])C2)CC1

>  <Energy>  (97) 
118.53106509846656

>  <Genealogy>  (97) 
[NH-]C(=O)c1cc2ccc(C(F)F)cc2n1C(=O)CC1CCN(C(=S)N2CCOC(C(=O)[O-])C2)CC1 (protonated)
[NH-]C(=O)c1cc2ccc(C(F)F)cc2n1C(=O)CC1CCN(C(=S)N2CCO[C@H](C(=O)[O-])C2)CC1 (chirality)
[NH-]C(=O)c1cc2ccc(C(F)F)cc2n1C(=O)CC1CCN(C(=S)N2CCO[C@H](C(=O)[O-])C2)CC1 (3D coordinates assigned)
[NH-]C(=O)c1cc2ccc(C(F)F)cc2n1C(=O)CC1CCN(C(=S)N2CCO[C@H](C(=O)[O-])C2)CC1 (nonaromatic ring conformer: 118.53106509846656 kcal/mol)

>  <smiles>  (97) 
NC(=O)c1cc2ccc(C(F)F)cc2n1C(=O)CC1CCN(C(=S)N2CCOC(C(=O)O)C2)CC1

>  <score_type>  (97) 
oracle

>  <origin>  (97) 
adg

>  <m_score__min__energy>  (97) 
-13.380000000000001

>  <m_primary>  (97) 
energy

$$$$
97:0
     RDKit          3D

 55 56  0  0  0  0  0  0  0  0999 V2000
   -0.0280   17.9770  -30.7650 C   0  0  0  0  0  0  0  0  0  0  0  0
   -0.1060   19.2100  -29.9160 C   0  0  0  0  0  0  0  0  0  0  0  0
    0.7460   19.3400  -28.7920 C   0  0  0  0  0  0  0  0  0  0  0  0
    0.6810   20.4800  -27.9720 C   0  0  0  0  0  0  0  0  0  0  0  0
   -0.2430   21.4680  -28.2990 C   0  0  0  0  0  0  0  0  0  0  0  0
   -0.5080   22.6710  -27.6860 C   0  0  0  0  0  0  0  0  0  0  0  0
   -1.5170   23.2530  -28.4450 C   0  0  0  0  0  0  0  0  0  0  0  0
   -2.0310   24.6010  -28.1790 C   0  0  0  0  0  0  0  0  0  0  0  0
   -1.6080   25.6920  -28.9920 N   0  0  0  0  0  0  0  0  0  0  0  0
   -2.7670   24.8130  -27.1820 O   0  0  0  0  0  0  0  0  0  0  0  0
   -1.8650   22.4500  -29.4930 N   0  0  0  0  0  0  0  0  0  0  0  0
   -2.7480   22.7420  -30.5950 C   0  0  0  0  0  0  0  0  0  0  0  0
   -2.4490   22.3080  -31.7420 O   0  0  0  0  0  0  0  0  0  0  0  0
   -4.0240   23.5450  -30.4130 C   0  0  1  0  0  0  0  0  0  0  0  0
   -3.7330   24.9850  -30.4400 N   0  0  0  0  0  0  0  0  0  0  0  0
   -5.0430   23.1940  -31.5170 C   0  0  0  0  0  0  0  0  0  0  0  0
   -6.7310   23.7350  -31.0480 S   0  0  0  0  0  0  0  0  0  0  0  0
   -7.6370   22.7100  -32.2640 C   0  0  0  0  0  0  0  0  0  0  0  0
   -8.9530   22.1930  -31.6810 C   0  0  0  0  0  0  0  0  0  0  0  0
   -9.3370   20.9200  -32.2860 N   0  0  0  0  0  0  0  0  0  0  0  0
   -8.7320   19.6620  -31.9790 C   0  0  0  0  0  0  0  0  0  0  0  0
   -9.4050   18.5970  -32.0570 O   0  0  0  0  0  0  0  0  0  0  0  0
   -7.3850   19.6400  -31.5970 O   0  0  0  0  0  0  0  0  0  0  0  0
   -6.2800   19.1750  -32.3880 C   0  0  0  0  0  0  0  0  0  0  0  0
   -6.1920   17.6370  -32.3380 C   0  0  0  0  0  0  0  0  0  0  0  0
   -6.4050   19.6650  -33.8460 C   0  0  0  0  0  0  0  0  0  0  0  0
   -5.0020   19.7680  -31.7730 C   0  0  0  0  0  0  0  0  0  0  0  0
   -1.0710   21.3610  -29.3860 C   0  0  0  0  0  0  0  0  0  0  0  0
   -1.0360   20.2310  -30.2140 C   0  0  0  0  0  0  0  0  0  0  0  0
    0.0282   17.0892  -30.1179 H   0  0  0  0  0  0  0  0  0  0  0  0
   -0.9238   17.9118  -31.4000 H   0  0  0  0  0  0  0  0  0  0  0  0
    0.8689   18.0252  -31.4000 H   0  0  0  0  0  0  0  0  0  0  0  0
    1.4654   18.5413  -28.5585 H   0  0  0  0  0  0  0  0  0  0  0  0
    1.3405   20.5879  -27.0983 H   0  0  0  0  0  0  0  0  0  0  0  0
   -0.0251   23.0837  -26.7880 H   0  0  0  0  0  0  0  0  0  0  0  0
   -1.6190   25.6220  -30.0330 H   0  0  0  0  0  0  0  0  0  0  0  0
   -4.4569   23.2887  -29.4348 H   0  0  0  0  0  0  0  0  0  0  0  0
   -2.7520   25.1200  -30.7790 H   0  0  0  0  0  0  0  0  0  0  0  0
   -3.7280   25.3500  -29.4600 H   0  0  0  0  0  0  0  0  0  0  0  0
   -4.7501   23.6973  -32.4502 H   0  0  0  0  0  0  0  0  0  0  0  0
   -5.0498   22.1026  -31.6539 H   0  0  0  0  0  0  0  0  0  0  0  0
   -7.8536   23.3178  -33.1549 H   0  0  0  0  0  0  0  0  0  0  0  0
   -7.0094   21.8457  -32.5270 H   0  0  0  0  0  0  0  0  0  0  0  0
   -8.8341   22.0530  -30.5964 H   0  0  0  0  0  0  0  0  0  0  0  0
   -9.7409   22.9306  -31.8938 H   0  0  0  0  0  0  0  0  0  0  0  0
   -6.1730   17.3047  -31.2896 H   0  0  0  0  0  0  0  0  0  0  0  0
   -7.0668   17.2030  -32.8444 H   0  0  0  0  0  0  0  0  0  0  0  0
   -5.2734   17.3056  -32.8444 H   0  0  0  0  0  0  0  0  0  0  0  0
   -6.6769   20.7308  -33.8526 H   0  0  0  0  0  0  0  0  0  0  0  0
   -5.4433   19.5287  -34.3623 H   0  0  0  0  0  0  0  0  0  0  0  0
   -7.1839   19.0847  -34.3623 H   0  0  0  0  0  0  0  0  0  0  0  0
   -5.0735   19.7348  -30.6758 H   0  0  0  0  0  0  0  0  0  0  0  0
   -4.1310   19.1820  -32.1016 H   0  0  0  0  0  0  0  0  0  0  0  0
   -4.8870   20.8115  -32.1016 H   0  0  0  0  0  0  0  0  0  0  0  0
   -1.7155   20.1412  -31.0743 H   0  0  0  0  0  0  0  0  0  0  0  0
  1  2  1  0
  2  3  2  0
  3  4  1  0
  4  5  2  0
  5  6  1  0
  6  7  2  0
  7  8  1  0
  8  9  1  0
  8 10  2  0
  7 11  1  0
 11 12  1  0
 12 13  2  0
 12 14  1  0
 14 15  1  0
 14 16  1  0
 16 17  1  0
 17 18  1  0
 18 19  1  0
 19 20  1  0
 20 21  1  0
 21 22  2  0
 21 23  1  0
 23 24  1  0
 24 25  1  0
 24 26  1  0
 24 27  1  0
 11 28  1  0
 28 29  2  0
 29  2  1  0
 28  5  1  0
  1 30  1  0
  1 31  1  0
  1 32  1  0
  3 33  1  0
  4 34  1  0
  6 35  1  0
  9 36  1  0
 14 37  1  1
 15 38  1  0
 15 39  1  0
 16 40  1  0
 16 41  1  0
 18 42  1  0
 18 43  1  0
 19 44  1  0
 19 45  1  0
 25 46  1  0
 25 47  1  0
 25 48  1  0
 26 49  1  0
 26 50  1  0
 26 51  1  0
 27 52  1  0
 27 53  1  0
 27 54  1  0
 29 55  1  0
M  CHG  2   9  -1  20  -1
M  END
>  <UniqueID>  (98) 
97

>  <SMILES>  (98) 
Cc1ccc2cc(C([NH-])=O)n(C(=O)[C@@H](N)CSCC[N-]C(=O)OC(C)(C)C)c2c1

>  <Energy>  (98) 
90.28559251629838

>  <Genealogy>  (98) 
Cc1ccc2cc(C([NH-])=O)n(C(=O)C(N)CSCC[N-]C(=O)OC(C)(C)C)c2c1 (protonated)
Cc1ccc2cc(C([NH-])=O)n(C(=O)[C@@H](N)CSCC[N-]C(=O)OC(C)(C)C)c2c1 (chirality)
Cc1ccc2cc(C([NH-])=O)n(C(=O)[C@@H](N)CSCC[N-]C(=O)OC(C)(C)C)c2c1 (3D coordinates assigned)
Cc1ccc2cc(C([NH-])=O)n(C(=O)[C@@H](N)CSCC[N-]C(=O)OC(C)(C)C)c2c1 (optimized conformer: 90.28559251629838 kcal/mol)

>  <smiles>  (98) 
Cc1ccc2cc(C(N)=O)n(C(=O)C(N)CSCCNC(=O)OC(C)(C)C)c2c1

>  <score_type>  (98) 
oracle

>  <origin>  (98) 
adg

>  <m_score__min__energy>  (98) 
-11.300000000000001

>  <m_primary>  (98) 
energy

$$$$
