0:0
     RDKit          3D

 45 49  0  0  0  0  0  0  0  0999 V2000
    0.0590   20.3790  -30.1330 C   0  0  0  0  0  0  0  0  0  0  0  0
   -0.5450   20.5240  -31.4880 C   0  0  0  0  0  0  0  0  0  0  0  0
   -1.4860   19.6990  -31.9840 N   0  0  0  0  0  0  0  0  0  0  0  0
   -1.6820   20.2370  -33.2080 C   0  0  0  0  0  0  0  0  0  0  0  0
   -2.6300   19.6820  -34.2250 C   0  0  0  0  0  0  0  0  0  0  0  0
   -2.7520   18.2240  -34.1030 N   0  0  0  0  0  0  0  0  0  0  0  0
   -1.8800   17.3060  -34.5950 C   0  0  0  0  0  0  0  0  0  0  0  0
   -0.8520   17.6020  -35.2590 O   0  0  0  0  0  0  0  0  0  0  0  0
   -2.2120   16.0640  -34.3010 O   0  0  0  0  0  0  0  0  0  0  0  0
   -3.3140   16.1490  -33.6000 C   0  0  0  0  0  0  0  0  0  0  0  0
   -4.0430   15.1070  -33.0350 C   0  0  0  0  0  0  0  0  0  0  0  0
   -5.1820   15.4380  -32.2860 C   0  0  0  0  0  0  0  0  0  0  0  0
   -5.5660   16.7860  -32.1250 C   0  0  0  0  0  0  0  0  0  0  0  0
   -4.8210   17.8290  -32.7180 C   0  0  0  0  0  0  0  0  0  0  0  0
   -5.2690   19.2160  -32.5270 C   0  0  0  0  0  0  0  0  0  0  0  0
   -6.4330   19.6760  -33.1890 C   0  0  0  0  0  0  0  0  0  0  0  0
   -6.8550   21.0080  -33.0480 C   0  0  0  0  0  0  0  0  0  0  0  0
   -6.0880   21.8530  -32.2500 C   0  0  0  0  0  0  0  0  0  0  0  0
   -6.2540   23.1870  -31.9610 C   0  0  0  0  0  0  0  0  0  0  0  0
   -5.1880   23.5220  -31.1300 C   0  0  0  0  0  0  0  0  0  0  0  0
   -5.0280   24.8540  -30.5100 C   0  0  0  0  0  0  0  0  0  0  0  0
   -3.8750   25.6500  -30.7690 N   0  0  0  0  0  0  0  0  0  0  0  0
   -5.8990   25.2740  -29.7020 O   0  0  0  0  0  0  0  0  0  0  0  0
   -4.3870   22.4380  -30.9190 N   0  0  0  0  0  0  0  0  0  0  0  0
   -3.1500   22.3800  -30.1900 C   0  0  0  0  0  0  0  0  0  0  0  0
   -2.9680   21.4930  -29.3150 O   0  0  0  0  0  0  0  0  0  0  0  0
   -2.1540   23.3180  -30.4250 O   0  0  0  0  0  0  0  0  0  0  0  0
   -4.9550   21.4230  -31.6100 C   0  0  0  0  0  0  0  0  0  0  0  0
   -4.4980   20.1080  -31.7530 C   0  0  0  0  0  0  0  0  0  0  0  0
   -3.6770   17.4670  -33.4620 C   0  0  0  0  0  0  0  0  0  0  0  0
   -0.8890   21.3000  -33.4420 N   0  0  0  0  0  0  0  0  0  0  0  0
   -0.2030   21.4480  -32.3510 O   0  0  0  0  0  0  0  0  0  0  0  0
   -0.7091   20.5634  -29.3675 H   0  0  0  0  0  0  0  0  0  0  0  0
    0.4563   19.3600  -30.0158 H   0  0  0  0  0  0  0  0  0  0  0  0
    0.8756   21.1066  -30.0158 H   0  0  0  0  0  0  0  0  0  0  0  0
   -3.6203   20.1377  -34.0777 H   0  0  0  0  0  0  0  0  0  0  0  0
   -2.2389   19.9144  -35.2265 H   0  0  0  0  0  0  0  0  0  0  0  0
   -3.7365   14.0594  -33.1711 H   0  0  0  0  0  0  0  0  0  0  0  0
   -5.7802   14.6407  -31.8208 H   0  0  0  0  0  0  0  0  0  0  0  0
   -6.4584   17.0281  -31.5291 H   0  0  0  0  0  0  0  0  0  0  0  0
   -7.0116   18.9843  -33.8190 H   0  0  0  0  0  0  0  0  0  0  0  0
   -7.7625   21.3722  -33.5518 H   0  0  0  0  0  0  0  0  0  0  0  0
   -7.0588   23.8496  -32.3121 H   0  0  0  0  0  0  0  0  0  0  0  0
   -2.9200   25.3080  -30.5220 H   0  0  0  0  0  0  0  0  0  0  0  0
   -3.5634   19.7792  -31.2750 H   0  0  0  0  0  0  0  0  0  0  0  0
  1  2  1  0
  2  3  2  0
  3  4  1  0
  4  5  1  0
  5  6  1  0
  6  7  1  0
  7  8  2  0
  7  9  1  0
  9 10  1  0
 10 11  2  0
 11 12  1  0
 12 13  2  0
 13 14  1  0
 14 15  1  0
 15 16  2  0
 16 17  1  0
 17 18  2  0
 18 19  1  0
 19 20  2  0
 20 21  1  0
 21 22  1  0
 21 23  2  0
 20 24  1  0
 24 25  1  0
 25 26  2  0
 25 27  1  0
 24 28  1  0
 28 29  2  0
 14 30  2  0
  4 31  2  0
 31 32  1  0
 32  2  1  0
 30  6  1  0
 30 10  1  0
 29 15  1  0
 28 18  1  0
  1 33  1  0
  1 34  1  0
  1 35  1  0
  5 36  1  0
  5 37  1  0
 11 38  1  0
 12 39  1  0
 13 40  1  0
 16 41  1  0
 17 42  1  0
 19 43  1  0
 22 44  1  0
 29 45  1  0
M  CHG  2  22  -1  27  -1
M  END
>  <UniqueID>  (1) 
1

>  <SMILES>  (1) 
Cc1nc(Cn2c(=O)oc3cccc(-c4ccc5cc(C([NH-])=O)n(C(=O)[O-])c5c4)c32)no1

>  <Energy>  (1) 
170.2305691216563

>  <Genealogy>  (1) 
Cc1nc(Cn2c(=O)oc3cccc(-c4ccc5cc(C([NH-])=O)n(C(=O)[O-])c5c4)c32)no1 (protonated)
Cc1nc(Cn2c(=O)oc3cccc(-c4ccc5cc(C([NH-])=O)n(C(=O)[O-])c5c4)c32)no1 (3D coordinates assigned)
Cc1nc(Cn2c(=O)oc3cccc(-c4ccc5cc(C([NH-])=O)n(C(=O)[O-])c5c4)c32)no1 (optimized conformer: 170.2305691216563 kcal/mol)

>  <smiles>  (1) 
Cc1nc(Cn2c(=O)oc3cccc(-c4ccc5cc(C(N)=O)n(C(=O)O)c5c4)c32)no1

>  <score_type>  (1) 
oracle

>  <origin>  (1) 
adg

>  <m_score__min__energy>  (1) 
-12.199999999999999

>  <m_primary>  (1) 
energy

$$$$
1:0
     RDKit          3D

 35 37  0  0  0  0  0  0  0  0999 V2000
   -8.2010   21.7460  -31.9990 C   0  0  0  0  0  0  0  0  0  0  0  0
   -8.1450   20.2540  -32.0990 C   0  0  0  0  0  0  0  0  0  0  0  0
   -9.0400   19.4490  -31.4870 N   0  0  0  0  0  0  0  0  0  0  0  0
   -8.6850   18.2060  -31.8710 C   0  0  0  0  0  0  0  0  0  0  0  0
   -7.5960   18.2750  -32.7110 C   0  0  0  0  0  0  0  0  0  0  0  0
   -7.2550   19.5670  -32.8490 N   0  0  0  0  0  0  0  0  0  0  0  0
   -6.1970   20.0940  -33.7120 C   0  0  0  0  0  0  0  0  0  0  0  0
   -4.9940   20.4720  -32.8920 C   0  0  0  0  0  0  0  0  0  0  0  0
   -3.8860   19.5920  -32.7980 C   0  0  0  0  0  0  0  0  0  0  0  0
   -2.7760   19.9250  -32.0050 C   0  0  0  0  0  0  0  0  0  0  0  0
   -2.7980   21.1380  -31.3250 C   0  0  0  0  0  0  0  0  0  0  0  0
   -1.8730   21.6930  -30.4690 C   0  0  0  0  0  0  0  0  0  0  0  0
   -2.4210   22.9100  -30.0700 C   0  0  0  0  0  0  0  0  0  0  0  0
   -1.7090   23.8780  -29.2120 C   0  0  0  0  0  0  0  0  0  0  0  0
   -1.9340   25.2790  -29.3440 N   0  0  0  0  0  0  0  0  0  0  0  0
   -0.8520   23.4670  -28.3850 O   0  0  0  0  0  0  0  0  0  0  0  0
   -3.6410   23.0970  -30.6480 N   0  0  0  0  0  0  0  0  0  0  0  0
   -4.5700   24.1710  -30.4200 C   0  0  0  0  0  0  0  0  0  0  0  0
   -4.2300   25.5050  -30.7890 N   0  0  0  0  0  0  0  0  0  0  0  0
   -5.6770   23.9420  -29.8650 O   0  0  0  0  0  0  0  0  0  0  0  0
   -3.8560   22.0060  -31.4160 C   0  0  0  0  0  0  0  0  0  0  0  0
   -4.9830   21.6940  -32.1850 C   0  0  0  0  0  0  0  0  0  0  0  0
   -8.2121   22.0423  -30.9397 H   0  0  0  0  0  0  0  0  0  0  0  0
   -7.3185   22.1799  -32.4919 H   0  0  0  0  0  0  0  0  0  0  0  0
   -9.1135   22.1125  -32.4919 H   0  0  0  0  0  0  0  0  0  0  0  0
   -9.1885   17.2785  -31.5606 H   0  0  0  0  0  0  0  0  0  0  0  0
   -7.0926   17.4203  -33.1865 H   0  0  0  0  0  0  0  0  0  0  0  0
   -5.9098   19.3253  -34.4446 H   0  0  0  0  0  0  0  0  0  0  0  0
   -6.5714   20.9885  -34.2313 H   0  0  0  0  0  0  0  0  0  0  0  0
   -3.8961   18.6410  -33.3507 H   0  0  0  0  0  0  0  0  0  0  0  0
   -1.9142   19.2462  -31.9240 H   0  0  0  0  0  0  0  0  0  0  0  0
   -0.9061   21.2658  -30.1647 H   0  0  0  0  0  0  0  0  0  0  0  0
   -2.8970   25.6770  -29.2800 H   0  0  0  0  0  0  0  0  0  0  0  0
   -3.2490   25.7600  -31.0390 H   0  0  0  0  0  0  0  0  0  0  0  0
   -5.8385   22.3834  -32.2372 H   0  0  0  0  0  0  0  0  0  0  0  0
  1  2  1  0
  2  3  2  0
  3  4  1  0
  4  5  2  0
  5  6  1  0
  6  7  1  0
  7  8  1  0
  8  9  2  0
  9 10  1  0
 10 11  2  0
 11 12  1  0
 12 13  2  0
 13 14  1  0
 14 15  1  0
 14 16  2  0
 13 17  1  0
 17 18  1  0
 18 19  1  0
 18 20  2  0
 17 21  1  0
 21 22  2  0
  6  2  1  0
 22  8  1  0
 21 11  1  0
  1 23  1  0
  1 24  1  0
  1 25  1  0
  4 26  1  0
  5 27  1  0
  7 28  1  0
  7 29  1  0
  9 30  1  0
 10 31  1  0
 12 32  1  0
 15 33  1  0
 19 34  1  0
 22 35  1  0
M  CHG  2  15  -1  19  -1
M  END
>  <UniqueID>  (2) 
2

>  <SMILES>  (2) 
Cc1nccn1Cc1ccc2cc(C([NH-])=O)n(C([NH-])=O)c2c1

>  <Energy>  (2) 
103.0277629099968

>  <Genealogy>  (2) 
Cc1nccn1Cc1ccc2cc(C([NH-])=O)n(C([NH-])=O)c2c1 (protonated)
Cc1nccn1Cc1ccc2cc(C([NH-])=O)n(C([NH-])=O)c2c1 (3D coordinates assigned)
Cc1nccn1Cc1ccc2cc(C([NH-])=O)n(C([NH-])=O)c2c1 (optimized conformer: 103.0277629099968 kcal/mol)

>  <smiles>  (2) 
Cc1nccn1Cc1ccc2cc(C(N)=O)n(C(N)=O)c2c1

>  <score_type>  (2) 
oracle

>  <origin>  (2) 
adg

>  <m_score__min__energy>  (2) 
-11.19

>  <m_primary>  (2) 
energy

$$$$
2:0
     RDKit          3D

 36 38  0  0  0  0  0  0  0  0999 V2000
   -1.5340   15.9200  -35.6790 C   0  0  0  0  0  0  0  0  0  0  0  0
   -2.9400   15.9990  -35.4650 O   0  0  0  0  0  0  0  0  0  0  0  0
   -3.5850   17.0720  -34.8340 C   0  0  0  0  0  0  0  0  0  0  0  0
   -2.8890   18.0340  -34.0770 C   0  0  0  0  0  0  0  0  0  0  0  0
   -3.5780   19.0860  -33.4680 C   0  0  0  0  0  0  0  0  0  0  0  0
   -4.9730   19.2000  -33.6010 C   0  0  0  0  0  0  0  0  0  0  0  0
   -5.7050   20.3170  -32.9520 C   0  0  0  0  0  0  0  0  0  0  0  0
   -7.1250   20.3320  -32.9380 C   0  0  0  0  0  0  0  0  0  0  0  0
   -7.8270   21.3760  -32.3160 C   0  0  0  0  0  0  0  0  0  0  0  0
   -7.0910   22.3980  -31.7250 C   0  0  0  0  0  0  0  0  0  0  0  0
   -7.5170   23.5030  -31.0270 C   0  0  0  0  0  0  0  0  0  0  0  0
   -6.3550   24.1690  -30.6490 C   0  0  0  0  0  0  0  0  0  0  0  0
   -6.3580   25.4550  -29.9220 C   0  0  0  0  0  0  0  0  0  0  0  0
   -5.5070   26.5310  -30.3210 N   0  0  0  0  0  0  0  0  0  0  0  0
   -7.1630   25.6250  -28.9690 O   0  0  0  0  0  0  0  0  0  0  0  0
   -5.2510   23.4970  -31.0820 N   0  0  0  0  0  0  0  0  0  0  0  0
   -3.8740   23.8020  -30.7970 C   0  0  0  0  0  0  0  0  0  0  0  0
   -3.0030   22.8930  -30.8280 O   0  0  0  0  0  0  0  0  0  0  0  0
   -3.4890   25.1000  -30.4880 O   0  0  0  0  0  0  0  0  0  0  0  0
   -5.7190   22.4140  -31.7430 C   0  0  0  0  0  0  0  0  0  0  0  0
   -4.9930   21.3740  -32.3370 C   0  0  0  0  0  0  0  0  0  0  0  0
   -5.6640   18.2360  -34.3580 C   0  0  0  0  0  0  0  0  0  0  0  0
   -4.9730   17.1850  -34.9680 C   0  0  0  0  0  0  0  0  0  0  0  0
   -1.0165   15.8909  -34.7088 H   0  0  0  0  0  0  0  0  0  0  0  0
   -1.3002   15.0073  -36.2467 H   0  0  0  0  0  0  0  0  0  0  0  0
   -1.1995   16.8008  -36.2467 H   0  0  0  0  0  0  0  0  0  0  0  0
   -1.7975   17.9569  -33.9645 H   0  0  0  0  0  0  0  0  0  0  0  0
   -3.0239   19.8318  -32.8791 H   0  0  0  0  0  0  0  0  0  0  0  0
   -7.6816   19.5152  -33.4207 H   0  0  0  0  0  0  0  0  0  0  0  0
   -8.9268   21.3859  -32.2964 H   0  0  0  0  0  0  0  0  0  0  0  0
   -8.5549   23.7979  -30.8129 H   0  0  0  0  0  0  0  0  0  0  0  0
   -4.9540   26.4830  -31.2050 H   0  0  0  0  0  0  0  0  0  0  0  0
   -5.4940   27.4190  -29.7710 H   0  0  0  0  0  0  0  0  0  0  0  0
   -3.8931   21.3787  -32.3257 H   0  0  0  0  0  0  0  0  0  0  0  0
   -6.7557   18.3099  -34.4706 H   0  0  0  0  0  0  0  0  0  0  0  0
   -5.5258   16.4398  -35.5589 H   0  0  0  0  0  0  0  0  0  0  0  0
  1  2  1  0
  2  3  1  0
  3  4  2  0
  4  5  1  0
  5  6  2  0
  6  7  1  0
  7  8  2  0
  8  9  1  0
  9 10  2  0
 10 11  1  0
 11 12  2  0
 12 13  1  0
 13 14  1  0
 13 15  2  0
 12 16  1  0
 16 17  1  0
 17 18  2  0
 17 19  1  0
 16 20  1  0
 20 21  2  0
  6 22  1  0
 22 23  2  0
 23  3  1  0
 21  7  1  0
 20 10  1  0
  1 24  1  0
  1 25  1  0
  1 26  1  0
  4 27  1  0
  5 28  1  0
  8 29  1  0
  9 30  1  0
 11 31  1  0
 14 32  1  0
 14 33  1  0
 21 34  1  0
 22 35  1  0
 23 36  1  0
M  CHG  1  19  -1
M  END
>  <UniqueID>  (3) 
3

>  <SMILES>  (3) 
COc1ccc(-c2ccc3cc(C(N)=O)n(C(=O)[O-])c3c2)cc1

>  <Energy>  (3) 
83.4597026961766

>  <Genealogy>  (3) 
COc1ccc(-c2ccc3cc(C(N)=O)n(C(=O)[O-])c3c2)cc1 (protonated)
COc1ccc(-c2ccc3cc(C(N)=O)n(C(=O)[O-])c3c2)cc1 (3D coordinates assigned)
COc1ccc(-c2ccc3cc(C(N)=O)n(C(=O)[O-])c3c2)cc1 (optimized conformer: 83.4597026961766 kcal/mol)

>  <smiles>  (3) 
COc1ccc(-c2ccc3cc(C(N)=O)n(C(=O)O)c3c2)cc1

>  <score_type>  (3) 
oracle

>  <origin>  (3) 
adg

>  <m_score__min__energy>  (3) 
-9.5600000000000005

>  <m_primary>  (3) 
energy

$$$$
3:0
     RDKit          3D

 24 25  0  0  0  0  0  0  0  0999 V2000
   -5.6670   26.4780  -30.2500 N   0  0  0  0  0  0  0  0  0  0  0  0
   -6.4390   25.3020  -30.0010 C   0  0  0  0  0  0  0  0  0  0  0  0
   -7.2780   25.3020  -29.0610 O   0  0  0  0  0  0  0  0  0  0  0  0
   -6.2240   24.0680  -30.7810 C   0  0  0  0  0  0  0  0  0  0  0  0
   -7.2570   23.3550  -31.3850 C   0  0  0  0  0  0  0  0  0  0  0  0
   -6.6580   22.2500  -31.9440 C   0  0  0  0  0  0  0  0  0  0  0  0
   -7.2150   21.2090  -32.6800 C   0  0  0  0  0  0  0  0  0  0  0  0
   -6.3520   20.2150  -33.1710 C   0  0  0  0  0  0  0  0  0  0  0  0
   -4.9600   20.2850  -32.9270 C   0  0  0  0  0  0  0  0  0  0  0  0
   -4.0910   19.2740  -33.4440 N   0  0  0  0  0  0  0  0  0  0  0  0
   -4.4280   21.3570  -32.1780 C   0  0  0  0  0  0  0  0  0  0  0  0
   -5.3120   22.3240  -31.6820 C   0  0  0  0  0  0  0  0  0  0  0  0
   -5.0300   23.4390  -30.9700 N   0  0  0  0  0  0  0  0  0  0  0  0
   -3.7250   23.9240  -30.6060 C   0  0  0  0  0  0  0  0  0  0  0  0
   -2.7810   23.1190  -30.3930 O   0  0  0  0  0  0  0  0  0  0  0  0
   -3.4910   25.2880  -30.4920 O   0  0  0  0  0  0  0  0  0  0  0  0
   -5.8580   27.3520  -29.7130 H   0  0  0  0  0  0  0  0  0  0  0  0
   -4.8560   26.4600  -30.9060 H   0  0  0  0  0  0  0  0  0  0  0  0
   -8.3245   23.6193  -31.4097 H   0  0  0  0  0  0  0  0  0  0  0  0
   -8.2973   21.1655  -32.8715 H   0  0  0  0  0  0  0  0  0  0  0  0
   -6.7622   19.3747  -33.7504 H   0  0  0  0  0  0  0  0  0  0  0  0
   -3.5860   19.4150  -34.3460 H   0  0  0  0  0  0  0  0  0  0  0  0
   -3.9490   18.3770  -32.9290 H   0  0  0  0  0  0  0  0  0  0  0  0
   -3.3469   21.4311  -31.9887 H   0  0  0  0  0  0  0  0  0  0  0  0
  1  2  1  0
  2  3  2  0
  2  4  1  0
  4  5  2  0
  5  6  1  0
  6  7  2  0
  7  8  1  0
  8  9  2  0
  9 10  1  0
  9 11  1  0
 11 12  2  0
 12 13  1  0
 13 14  1  0
 14 15  2  0
 14 16  1  0
 13  4  1  0
 12  6  1  0
  1 17  1  0
  1 18  1  0
  5 19  1  0
  7 20  1  0
  8 21  1  0
 10 22  1  0
 10 23  1  0
 11 24  1  0
M  CHG  1  16  -1
M  END
>  <UniqueID>  (4) 
4

>  <SMILES>  (4) 
NC(=O)c1cc2ccc(N)cc2n1C(=O)[O-]

>  <Energy>  (4) 
63.82773068062311

>  <Genealogy>  (4) 
NC(=O)c1cc2ccc(N)cc2n1C(=O)[O-] (protonated)
NC(=O)c1cc2ccc(N)cc2n1C(=O)[O-] (3D coordinates assigned)
NC(=O)c1cc2ccc(N)cc2n1C(=O)[O-] (optimized conformer: 63.82773068062311 kcal/mol)

>  <smiles>  (4) 
NC(=O)c1cc2ccc(N)cc2n1C(=O)O

>  <score_type>  (4) 
oracle

>  <origin>  (4) 
adg

>  <m_score__min__energy>  (4) 
-7.2999999999999998

>  <m_primary>  (4) 
energy

$$$$
4:0
     RDKit          3D

 41 43  0  0  0  0  0  0  0  0999 V2000
   -8.3750   23.3530  -31.7470 C   0  0  0  0  0  0  0  0  0  0  0  0
   -7.8070   21.9830  -31.9670 C   0  0  0  0  0  0  0  0  0  0  0  0
   -8.5580   20.8460  -31.6370 C   0  0  0  0  0  0  0  0  0  0  0  0
   -8.0540   19.5610  -31.8920 C   0  0  0  0  0  0  0  0  0  0  0  0
   -8.8470   18.3480  -31.5030 C   0  0  0  0  0  0  0  0  0  0  0  0
   -6.7800   19.4190  -32.4610 C   0  0  0  0  0  0  0  0  0  0  0  0
   -6.0210   20.5500  -32.8010 C   0  0  0  0  0  0  0  0  0  0  0  0
   -4.6840   20.3920  -33.4690 C   0  0  0  0  0  0  0  0  0  0  0  0
   -3.5930   20.9130  -32.5740 C   0  0  0  0  0  0  0  0  0  0  0  0
   -2.3620   20.2180  -32.4750 C   0  0  0  0  0  0  0  0  0  0  0  0
   -1.3470   20.6800  -31.6220 C   0  0  0  0  0  0  0  0  0  0  0  0
   -1.5980   21.8230  -30.8690 C   0  0  0  0  0  0  0  0  0  0  0  0
   -0.7830   22.4970  -29.9890 C   0  0  0  0  0  0  0  0  0  0  0  0
   -1.5440   23.5680  -29.5290 C   0  0  0  0  0  0  0  0  0  0  0  0
   -1.0680   24.5230  -28.5090 C   0  0  0  0  0  0  0  0  0  0  0  0
   -1.9730   25.3890  -27.8270 N   0  0  0  0  0  0  0  0  0  0  0  0
    0.1520   24.5340  -28.1950 O   0  0  0  0  0  0  0  0  0  0  0  0
   -2.7780   23.5680  -30.1100 N   0  0  0  0  0  0  0  0  0  0  0  0
   -3.8050   24.5660  -29.9810 C   0  0  0  0  0  0  0  0  0  0  0  0
   -4.6650   24.4790  -29.0660 O   0  0  0  0  0  0  0  0  0  0  0  0
   -3.8600   25.6380  -30.8630 O   0  0  0  0  0  0  0  0  0  0  0  0
   -2.7960   22.4900  -30.9280 C   0  0  0  0  0  0  0  0  0  0  0  0
   -3.8150   22.0650  -31.7870 C   0  0  0  0  0  0  0  0  0  0  0  0
   -6.5490   21.8300  -32.5700 C   0  0  0  0  0  0  0  0  0  0  0  0
   -8.4556   23.5475  -30.6673 H   0  0  0  0  0  0  0  0  0  0  0  0
   -7.7134   24.1023  -32.2061 H   0  0  0  0  0  0  0  0  0  0  0  0
   -9.3727   23.4144  -32.2061 H   0  0  0  0  0  0  0  0  0  0  0  0
   -9.5495   20.9618  -31.1749 H   0  0  0  0  0  0  0  0  0  0  0  0
   -8.8937   18.2766  -30.4063 H   0  0  0  0  0  0  0  0  0  0  0  0
   -9.8661   18.4305  -31.9088 H   0  0  0  0  0  0  0  0  0  0  0  0
   -8.3626   17.4476  -31.9088 H   0  0  0  0  0  0  0  0  0  0  0  0
   -6.3723   18.4136  -32.6423 H   0  0  0  0  0  0  0  0  0  0  0  0
   -4.5054   19.3269  -33.6778 H   0  0  0  0  0  0  0  0  0  0  0  0
   -4.6818   20.9637  -34.4088 H   0  0  0  0  0  0  0  0  0  0  0  0
   -2.2002   19.3083  -33.0719 H   0  0  0  0  0  0  0  0  0  0  0  0
   -0.3831   20.1547  -31.5511 H   0  0  0  0  0  0  0  0  0  0  0  0
    0.2500   22.2435  -29.7086 H   0  0  0  0  0  0  0  0  0  0  0  0
   -1.6130   26.0860  -27.1360 H   0  0  0  0  0  0  0  0  0  0  0  0
   -3.0060   25.2870  -27.9390 H   0  0  0  0  0  0  0  0  0  0  0  0
   -4.7660   22.6144  -31.8482 H   0  0  0  0  0  0  0  0  0  0  0  0
   -5.9725   22.7196  -32.8638 H   0  0  0  0  0  0  0  0  0  0  0  0
  1  2  1  0
  2  3  2  0
  3  4  1  0
  4  5  1  0
  4  6  2  0
  6  7  1  0
  7  8  1  0
  8  9  1  0
  9 10  2  0
 10 11  1  0
 11 12  2  0
 12 13  1  0
 13 14  2  0
 14 15  1  0
 15 16  1  0
 15 17  2  0
 14 18  1  0
 18 19  1  0
 19 20  2  0
 19 21  1  0
 18 22  1  0
 22 23  2  0
  7 24  2  0
 24  2  1  0
 23  9  1  0
 22 12  1  0
  1 25  1  0
  1 26  1  0
  1 27  1  0
  3 28  1  0
  5 29  1  0
  5 30  1  0
  5 31  1  0
  6 32  1  0
  8 33  1  0
  8 34  1  0
 10 35  1  0
 11 36  1  0
 13 37  1  0
 16 38  1  0
 16 39  1  0
 23 40  1  0
 24 41  1  0
M  CHG  1  21  -1
M  END
>  <UniqueID>  (5) 
5

>  <SMILES>  (5) 
Cc1cc(C)cc(Cc2ccc3cc(C(N)=O)n(C(=O)[O-])c3c2)c1

>  <Energy>  (5) 
80.03611748869875

>  <Genealogy>  (5) 
Cc1cc(C)cc(Cc2ccc3cc(C(N)=O)n(C(=O)[O-])c3c2)c1 (protonated)
Cc1cc(C)cc(Cc2ccc3cc(C(N)=O)n(C(=O)[O-])c3c2)c1 (3D coordinates assigned)
Cc1cc(C)cc(Cc2ccc3cc(C(N)=O)n(C(=O)[O-])c3c2)c1 (optimized conformer: 80.03611748869875 kcal/mol)

>  <smiles>  (5) 
Cc1cc(C)cc(Cc2ccc3cc(C(N)=O)n(C(=O)O)c3c2)c1

>  <score_type>  (5) 
oracle

>  <origin>  (5) 
adg

>  <m_score__min__energy>  (5) 
-10.52

>  <m_primary>  (5) 
energy

$$$$
5:0
     RDKit          3D

 34 36  0  0  0  0  0  0  0  0999 V2000
   -2.9550   21.9030  -32.4470 C   0  0  0  0  0  0  0  0  0  0  0  0
   -3.6850   22.6340  -31.3660 C   0  0  0  0  0  0  0  0  0  0  0  0
   -3.0230   23.2290  -30.4730 O   0  0  0  0  0  0  0  0  0  0  0  0
   -5.1210   22.6510  -31.3200 N   0  0  0  0  0  0  0  0  0  0  0  0
   -5.9170   23.6930  -30.9520 C   0  0  0  0  0  0  0  0  0  0  0  0
   -5.4540   24.9770  -30.3860 C   0  0  0  0  0  0  0  0  0  0  0  0
   -4.1660   25.5070  -30.7040 N   0  0  0  0  0  0  0  0  0  0  0  0
   -6.1890   25.5930  -29.5690 O   0  0  0  0  0  0  0  0  0  0  0  0
   -7.2580   23.3860  -31.1630 C   0  0  0  0  0  0  0  0  0  0  0  0
   -7.2620   22.1070  -31.6720 C   0  0  0  0  0  0  0  0  0  0  0  0
   -8.3270   21.3130  -32.0820 C   0  0  0  0  0  0  0  0  0  0  0  0
   -8.0380   20.0470  -32.6180 C   0  0  0  0  0  0  0  0  0  0  0  0
   -6.6940   19.6040  -32.7550 C   0  0  0  0  0  0  0  0  0  0  0  0
   -6.3780   18.2710  -33.3280 C   0  0  0  0  0  0  0  0  0  0  0  0
   -7.2020   17.1530  -33.1010 C   0  0  0  0  0  0  0  0  0  0  0  0
   -6.8630   15.9210  -33.6680 C   0  0  0  0  0  0  0  0  0  0  0  0
   -5.7170   15.8090  -34.4550 C   0  0  0  0  0  0  0  0  0  0  0  0
   -4.9260   16.9370  -34.6700 C   0  0  0  0  0  0  0  0  0  0  0  0
   -5.2700   18.1270  -34.1100 N   0  0  0  0  0  0  0  0  0  0  0  0
   -5.6420   20.4440  -32.3180 C   0  0  0  0  0  0  0  0  0  0  0  0
   -5.9600   21.6880  -31.7630 C   0  0  0  0  0  0  0  0  0  0  0  0
   -2.2462   21.1932  -31.9955 H   0  0  0  0  0  0  0  0  0  0  0  0
   -3.6764   21.3544  -33.0703 H   0  0  0  0  0  0  0  0  0  0  0  0
   -2.4054   22.6237  -33.0703 H   0  0  0  0  0  0  0  0  0  0  0  0
   -3.4590   24.9390  -31.2200 H   0  0  0  0  0  0  0  0  0  0  0  0
   -3.8800   26.4420  -30.3340 H   0  0  0  0  0  0  0  0  0  0  0  0
   -8.1288   24.0283  -30.9652 H   0  0  0  0  0  0  0  0  0  0  0  0
   -9.3649   21.6655  -31.9895 H   0  0  0  0  0  0  0  0  0  0  0  0
   -8.8615   19.3905  -32.9355 H   0  0  0  0  0  0  0  0  0  0  0  0
   -8.1063   17.2479  -32.4819 H   0  0  0  0  0  0  0  0  0  0  0  0
   -7.4994   15.0409  -33.4936 H   0  0  0  0  0  0  0  0  0  0  0  0
   -5.4404   14.8422  -34.9008 H   0  0  0  0  0  0  0  0  0  0  0  0
   -4.0227   16.8639  -35.2934 H   0  0  0  0  0  0  0  0  0  0  0  0
   -4.5937   20.1245  -32.4131 H   0  0  0  0  0  0  0  0  0  0  0  0
  1  2  1  0
  2  3  2  0
  2  4  1  0
  4  5  1  0
  5  6  1  0
  6  7  1  0
  6  8  2  0
  5  9  2  0
  9 10  1  0
 10 11  2  0
 11 12  1  0
 12 13  2  0
 13 14  1  0
 14 15  2  0
 15 16  1  0
 16 17  2  0
 17 18  1  0
 18 19  2  0
 13 20  1  0
 20 21  2  0
 21  4  1  0
 21 10  1  0
 19 14  1  0
  1 22  1  0
  1 23  1  0
  1 24  1  0
  7 25  1  0
  7 26  1  0
  9 27  1  0
 11 28  1  0
 12 29  1  0
 15 30  1  0
 16 31  1  0
 17 32  1  0
 18 33  1  0
 20 34  1  0
M  END
>  <UniqueID>  (6) 
6

>  <SMILES>  (6) 
CC(=O)n1c(C(N)=O)cc2ccc(-c3ccccn3)cc21

>  <Energy>  (6) 
80.62752431489011

>  <Genealogy>  (6) 
CC(=O)n1c(C(N)=O)cc2ccc(-c3ccccn3)cc21 (3D coordinates assigned)
CC(=O)n1c(C(N)=O)cc2ccc(-c3ccccn3)cc21 (optimized conformer: 80.62752431489011 kcal/mol)

>  <smiles>  (6) 
CC(=O)n1c(C(N)=O)cc2ccc(-c3ccccn3)cc21

>  <score_type>  (6) 
oracle

>  <origin>  (6) 
adg

>  <m_score__min__energy>  (6) 
-9.2599999999999998

>  <m_primary>  (6) 
energy

$$$$
6:0
     RDKit          3D

 50 52  0  0  0  0  0  0  0  0999 V2000
   -3.1180   15.8500  -33.3420 C   0  0  0  0  0  0  0  0  0  0  0  0
   -4.1610   15.0180  -34.0790 C   0  0  0  0  0  0  0  0  0  0  0  0
   -5.3760   14.9580  -33.3350 O   0  0  0  0  0  0  0  0  0  0  0  0
   -6.6170   15.3430  -33.8540 C   0  0  0  0  0  0  0  0  0  0  0  0
   -7.2460   14.5920  -34.6480 O   0  0  0  0  0  0  0  0  0  0  0  0
   -7.1850   16.6790  -33.4830 C   0  0  0  0  0  0  0  0  0  0  0  0
   -6.0780   17.7070  -33.1760 C   0  0  0  0  0  0  0  0  0  0  0  0
   -5.4160   18.2370  -34.4660 C   0  0  0  0  0  0  0  0  0  0  0  0
   -4.2390   19.1620  -34.1170 C   0  0  0  0  0  0  0  0  0  0  0  0
   -4.5530   20.0250  -32.9680 N   0  0  0  0  0  0  0  0  0  0  0  0
   -3.4870   20.6410  -32.2200 C   0  0  0  0  0  0  0  0  0  0  0  0
   -2.1950   20.0540  -32.2030 C   0  0  0  0  0  0  0  0  0  0  0  0
   -1.1480   20.6440  -31.4760 C   0  0  0  0  0  0  0  0  0  0  0  0
   -1.4210   21.8100  -30.7660 C   0  0  0  0  0  0  0  0  0  0  0  0
   -0.5880   22.5970  -30.0070 C   0  0  0  0  0  0  0  0  0  0  0  0
   -1.3890   23.6330  -29.5380 C   0  0  0  0  0  0  0  0  0  0  0  0
   -0.9050   24.6790  -28.6150 C   0  0  0  0  0  0  0  0  0  0  0  0
   -1.7830   25.6870  -28.1130 N   0  0  0  0  0  0  0  0  0  0  0  0
    0.2900   24.6490  -28.2180 O   0  0  0  0  0  0  0  0  0  0  0  0
   -2.6660   23.5050  -29.9990 N   0  0  0  0  0  0  0  0  0  0  0  0
   -3.7520   24.4340  -29.8400 C   0  0  0  0  0  0  0  0  0  0  0  0
   -4.0180   25.4050  -30.8500 N   0  0  0  0  0  0  0  0  0  0  0  0
   -4.4820   24.3900  -28.8150 O   0  0  0  0  0  0  0  0  0  0  0  0
   -2.6690   22.3790  -30.7500 C   0  0  0  0  0  0  0  0  0  0  0  0
   -3.7260   21.8220  -31.4810 C   0  0  0  0  0  0  0  0  0  0  0  0
   -5.9570   20.2220  -32.5870 C   0  0  0  0  0  0  0  0  0  0  0  0
   -6.6410   18.8710  -32.3140 C   0  0  0  0  0  0  0  0  0  0  0  0
   -3.2591   15.7374  -32.2569 H   0  0  0  0  0  0  0  0  0  0  0  0
   -2.1110   15.5044  -33.6186 H   0  0  0  0  0  0  0  0  0  0  0  0
   -3.2312   16.9086  -33.6186 H   0  0  0  0  0  0  0  0  0  0  0  0
   -4.3603   15.4750  -35.0595 H   0  0  0  0  0  0  0  0  0  0  0  0
   -3.7732   13.9964  -34.2056 H   0  0  0  0  0  0  0  0  0  0  0  0
   -7.7945   17.0514  -34.3195 H   0  0  0  0  0  0  0  0  0  0  0  0
   -7.7940   16.5514  -32.5759 H   0  0  0  0  0  0  0  0  0  0  0  0
   -5.2941   17.1951  -32.5985 H   0  0  0  0  0  0  0  0  0  0  0  0
   -5.0472   17.3881  -35.0604 H   0  0  0  0  0  0  0  0  0  0  0  0
   -6.1598   18.8050  -35.0440 H   0  0  0  0  0  0  0  0  0  0  0  0
   -3.3611   18.5462  -33.8720 H   0  0  0  0  0  0  0  0  0  0  0  0
   -4.0364   19.8051  -34.9861 H   0  0  0  0  0  0  0  0  0  0  0  0
   -2.0115   19.1266  -32.7654 H   0  0  0  0  0  0  0  0  0  0  0  0
   -0.1424   20.1981  -31.4679 H   0  0  0  0  0  0  0  0  0  0  0  0
    0.4833   22.4409  -29.8121 H   0  0  0  0  0  0  0  0  0  0  0  0
   -2.8110   25.6460  -28.2950 H   0  0  0  0  0  0  0  0  0  0  0  0
   -1.4160   26.4390  -27.4890 H   0  0  0  0  0  0  0  0  0  0  0  0
   -3.3000   25.6400  -31.5710 H   0  0  0  0  0  0  0  0  0  0  0  0
   -4.7200   22.2931  -31.4800 H   0  0  0  0  0  0  0  0  0  0  0  0
   -6.0012   20.8394  -31.6777 H   0  0  0  0  0  0  0  0  0  0  0  0
   -6.4810   20.7230  -33.4143 H   0  0  0  0  0  0  0  0  0  0  0  0
   -6.5011   18.6178  -31.2527 H   0  0  0  0  0  0  0  0  0  0  0  0
   -7.7025   18.9860  -32.5784 H   0  0  0  0  0  0  0  0  0  0  0  0
  1  2  1  0
  2  3  1  0
  3  4  1  0
  4  5  2  0
  4  6  1  0
  6  7  1  0
  7  8  1  0
  8  9  1  0
  9 10  1  0
 10 11  1  0
 11 12  2  0
 12 13  1  0
 13 14  2  0
 14 15  1  0
 15 16  2  0
 16 17  1  0
 17 18  1  0
 17 19  2  0
 16 20  1  0
 20 21  1  0
 21 22  1  0
 21 23  2  0
 20 24  1  0
 24 25  2  0
 10 26  1  0
 26 27  1  0
 27  7  1  0
 25 11  1  0
 24 14  1  0
  1 28  1  0
  1 29  1  0
  1 30  1  0
  2 31  1  0
  2 32  1  0
  6 33  1  0
  6 34  1  0
  7 35  1  0
  8 36  1  0
  8 37  1  0
  9 38  1  0
  9 39  1  0
 12 40  1  0
 13 41  1  0
 15 42  1  0
 18 43  1  0
 18 44  1  0
 22 45  1  0
 25 46  1  0
 26 47  1  0
 26 48  1  0
 27 49  1  0
 27 50  1  0
M  CHG  1  22  -1
M  END
>  <UniqueID>  (7) 
7

>  <SMILES>  (7) 
CCOC(=O)CC1CCN(c2ccc3cc(C(N)=O)n(C([NH-])=O)c3c2)CC1

>  <Energy>  (7) 
90.30011119632248

>  <Genealogy>  (7) 
CCOC(=O)CC1CCN(c2ccc3cc(C(N)=O)n(C([NH-])=O)c3c2)CC1 (protonated)
CCOC(=O)CC1CCN(c2ccc3cc(C(N)=O)n(C([NH-])=O)c3c2)CC1 (3D coordinates assigned)
CCOC(=O)CC1CCN(c2ccc3cc(C(N)=O)n(C([NH-])=O)c3c2)CC1 (nonaromatic ring conformer: 90.30011119632248 kcal/mol)

>  <smiles>  (7) 
CCOC(=O)CC1CCN(c2ccc3cc(C(N)=O)n(C(N)=O)c3c2)CC1

>  <score_type>  (7) 
oracle

>  <origin>  (7) 
adg

>  <m_score__min__energy>  (7) 
-9.6999999999999993

>  <m_primary>  (7) 
energy

$$$$
7:0
     RDKit          3D

 32 33  0  0  0  0  0  0  0  0999 V2000
   -9.4530   21.1970  -31.3420 C   0  0  0  0  0  0  0  0  0  0  0  0
   -9.4430   22.5860  -31.9720 C   0  0  0  0  0  0  0  0  0  0  0  0
   -8.2960   23.3200  -31.5510 O   0  0  0  0  0  0  0  0  0  0  0  0
   -7.3280   22.8070  -30.6810 C   0  0  0  0  0  0  0  0  0  0  0  0
   -7.5890   22.6570  -29.4550 O   0  0  0  0  0  0  0  0  0  0  0  0
   -6.0290   22.4530  -31.1820 N   0  0  0  0  0  0  0  0  0  0  0  0
   -4.8910   23.2010  -31.1360 C   0  0  0  0  0  0  0  0  0  0  0  0
   -4.7230   24.4760  -30.4110 C   0  0  0  0  0  0  0  0  0  0  0  0
   -5.4690   24.7580  -29.2260 N   0  0  0  0  0  0  0  0  0  0  0  0
   -3.8670   25.3090  -30.8130 O   0  0  0  0  0  0  0  0  0  0  0  0
   -3.8610   22.5740  -31.8330 C   0  0  0  0  0  0  0  0  0  0  0  0
   -4.4030   21.3980  -32.3000 C   0  0  0  0  0  0  0  0  0  0  0  0
   -3.8230   20.3890  -33.0630 C   0  0  0  0  0  0  0  0  0  0  0  0
   -4.6280   19.2990  -33.4330 C   0  0  0  0  0  0  0  0  0  0  0  0
   -5.9920   19.2490  -33.0550 C   0  0  0  0  0  0  0  0  0  0  0  0
   -6.8340   18.0680  -33.4360 C   0  0  0  0  0  0  0  0  0  0  0  0
   -6.5430   20.2850  -32.2700 C   0  0  0  0  0  0  0  0  0  0  0  0
   -5.7130   21.3490  -31.8960 C   0  0  0  0  0  0  0  0  0  0  0  0
   -9.4523   21.2915  -30.2461 H   0  0  0  0  0  0  0  0  0  0  0  0
  -10.3551   20.6554  -31.6628 H   0  0  0  0  0  0  0  0  0  0  0  0
   -8.5588   20.6424  -31.6628 H   0  0  0  0  0  0  0  0  0  0  0  0
   -9.4261   22.4860  -33.0673 H   0  0  0  0  0  0  0  0  0  0  0  0
  -10.3464   23.1264  -31.6529 H   0  0  0  0  0  0  0  0  0  0  0  0
   -6.0550   24.0240  -28.7700 H   0  0  0  0  0  0  0  0  0  0  0  0
   -5.3680   25.6820  -28.7510 H   0  0  0  0  0  0  0  0  0  0  0  0
   -2.8341   22.9402  -31.9791 H   0  0  0  0  0  0  0  0  0  0  0  0
   -2.7672   20.4433  -33.3668 H   0  0  0  0  0  0  0  0  0  0  0  0
   -4.1951   18.4768  -34.0217 H   0  0  0  0  0  0  0  0  0  0  0  0
   -7.1928   17.5647  -32.5261 H   0  0  0  0  0  0  0  0  0  0  0  0
   -7.6947   18.4079  -34.0307 H   0  0  0  0  0  0  0  0  0  0  0  0
   -6.2321   17.3651  -34.0307 H   0  0  0  0  0  0  0  0  0  0  0  0
   -7.5980   20.2571  -31.9599 H   0  0  0  0  0  0  0  0  0  0  0  0
  1  2  1  0
  2  3  1  0
  3  4  1  0
  4  5  2  0
  4  6  1  0
  6  7  1  0
  7  8  1  0
  8  9  1  0
  8 10  2  0
  7 11  2  0
 11 12  1  0
 12 13  2  0
 13 14  1  0
 14 15  2  0
 15 16  1  0
 15 17  1  0
 17 18  2  0
 18  6  1  0
 18 12  1  0
  1 19  1  0
  1 20  1  0
  1 21  1  0
  2 22  1  0
  2 23  1  0
  9 24  1  0
  9 25  1  0
 11 26  1  0
 13 27  1  0
 14 28  1  0
 16 29  1  0
 16 30  1  0
 16 31  1  0
 17 32  1  0
M  END
>  <UniqueID>  (8) 
8

>  <SMILES>  (8) 
CCOC(=O)n1c(C(N)=O)cc2ccc(C)cc21

>  <Energy>  (8) 
66.77964232262093

>  <Genealogy>  (8) 
CCOC(=O)n1c(C(N)=O)cc2ccc(C)cc21 (3D coordinates assigned)
CCOC(=O)n1c(C(N)=O)cc2ccc(C)cc21 (optimized conformer: 66.77964232262093 kcal/mol)

>  <smiles>  (8) 
CCOC(=O)n1c(C(N)=O)cc2ccc(C)cc21

>  <score_type>  (8) 
oracle

>  <origin>  (8) 
adg

>  <m_score__min__energy>  (8) 
-7.6500000000000004

>  <m_primary>  (8) 
energy

$$$$
8:0
     RDKit          3D

 33 35  0  0  0  0  0  0  0  0999 V2000
   -6.1020   17.1610  -30.8630 C   0  0  0  0  0  0  0  0  0  0  0  0
   -5.7340   17.0630  -32.3150 C   0  0  0  0  0  0  0  0  0  0  0  0
   -5.4040   15.8410  -32.8180 N   0  0  0  0  0  0  0  0  0  0  0  0
   -5.0400   15.6640  -34.1140 C   0  0  0  0  0  0  0  0  0  0  0  0
   -4.9880   16.7550  -34.9790 C   0  0  0  0  0  0  0  0  0  0  0  0
   -5.3250   18.0210  -34.5030 C   0  0  0  0  0  0  0  0  0  0  0  0
   -5.7190   18.1940  -33.1670 C   0  0  0  0  0  0  0  0  0  0  0  0
   -6.0900   19.5460  -32.6950 C   0  0  0  0  0  0  0  0  0  0  0  0
   -7.4410   19.9710  -32.7340 C   0  0  0  0  0  0  0  0  0  0  0  0
   -7.7980   21.2620  -32.3080 C   0  0  0  0  0  0  0  0  0  0  0  0
   -6.7840   22.1010  -31.8520 C   0  0  0  0  0  0  0  0  0  0  0  0
   -6.8470   23.4020  -31.4120 C   0  0  0  0  0  0  0  0  0  0  0  0
   -5.5350   23.7500  -31.0970 C   0  0  0  0  0  0  0  0  0  0  0  0
   -5.1600   25.0500  -30.5020 C   0  0  0  0  0  0  0  0  0  0  0  0
   -3.9190   25.6730  -30.8220 N   0  0  0  0  0  0  0  0  0  0  0  0
   -5.9250   25.5930  -29.6610 O   0  0  0  0  0  0  0  0  0  0  0  0
   -4.6920   22.7050  -31.3430 N   0  0  0  0  0  0  0  0  0  0  0  0
   -3.2590   22.6840  -31.2330 C   0  0  0  0  0  0  0  0  0  0  0  0
   -2.6900   23.1800  -30.2250 O   0  0  0  0  0  0  0  0  0  0  0  0
   -2.4860   22.1380  -32.2500 O   0  0  0  0  0  0  0  0  0  0  0  0
   -5.4730   21.7020  -31.8010 C   0  0  0  0  0  0  0  0  0  0  0  0
   -5.0880   20.4300  -32.2370 C   0  0  0  0  0  0  0  0  0  0  0  0
   -5.2225   16.9268  -30.2452 H   0  0  0  0  0  0  0  0  0  0  0  0
   -6.4455   18.1819  -30.6399 H   0  0  0  0  0  0  0  0  0  0  0  0
   -6.9077   16.4461  -30.6399 H   0  0  0  0  0  0  0  0  0  0  0  0
   -4.7860   14.6587  -34.4813 H   0  0  0  0  0  0  0  0  0  0  0  0
   -4.6840   16.6186  -36.0273 H   0  0  0  0  0  0  0  0  0  0  0  0
   -5.2820   18.8887  -35.1777 H   0  0  0  0  0  0  0  0  0  0  0  0
   -8.2178   19.2842  -33.1011 H   0  0  0  0  0  0  0  0  0  0  0  0
   -8.8448   21.5990  -32.3339 H   0  0  0  0  0  0  0  0  0  0  0  0
   -7.7431   24.0342  -31.3267 H   0  0  0  0  0  0  0  0  0  0  0  0
   -3.0180   25.2990  -30.4490 H   0  0  0  0  0  0  0  0  0  0  0  0
   -4.0311   20.1256  -32.2236 H   0  0  0  0  0  0  0  0  0  0  0  0
  1  2  1  0
  2  3  2  0
  3  4  1  0
  4  5  2  0
  5  6  1  0
  6  7  2  0
  7  8  1  0
  8  9  2  0
  9 10  1  0
 10 11  2  0
 11 12  1  0
 12 13  2  0
 13 14  1  0
 14 15  1  0
 14 16  2  0
 13 17  1  0
 17 18  1  0
 18 19  2  0
 18 20  1  0
 17 21  1  0
 21 22  2  0
  7  2  1  0
 22  8  1  0
 21 11  1  0
  1 23  1  0
  1 24  1  0
  1 25  1  0
  4 26  1  0
  5 27  1  0
  6 28  1  0
  9 29  1  0
 10 30  1  0
 12 31  1  0
 15 32  1  0
 22 33  1  0
M  CHG  2  15  -1  20  -1
M  END
>  <UniqueID>  (9) 
9

>  <SMILES>  (9) 
Cc1ncccc1-c1ccc2cc(C([NH-])=O)n(C(=O)[O-])c2c1

>  <Energy>  (9) 
83.03691781751165

>  <Genealogy>  (9) 
Cc1ncccc1-c1ccc2cc(C([NH-])=O)n(C(=O)[O-])c2c1 (protonated)
Cc1ncccc1-c1ccc2cc(C([NH-])=O)n(C(=O)[O-])c2c1 (3D coordinates assigned)
Cc1ncccc1-c1ccc2cc(C([NH-])=O)n(C(=O)[O-])c2c1 (optimized conformer: 83.03691781751165 kcal/mol)

>  <smiles>  (9) 
Cc1ncccc1-c1ccc2cc(C(N)=O)n(C(=O)O)c2c1

>  <score_type>  (9) 
oracle

>  <origin>  (9) 
adg

>  <m_score__min__energy>  (9) 
-11.31

>  <m_primary>  (9) 
energy

$$$$
9:0
     RDKit          3D

 40 43  0  0  0  0  0  0  0  0999 V2000
   -1.2280   21.6380  -28.5670 C   0  0  0  0  0  0  0  0  0  0  0  0
   -1.1060   20.2820  -29.1880 C   0  0  0  0  0  0  0  0  0  0  0  0
   -0.9720   19.2760  -28.4410 O   0  0  0  0  0  0  0  0  0  0  0  0
   -1.1570   20.1120  -30.6150 N   0  0  0  0  0  0  0  0  0  0  0  0
   -0.1230   19.7770  -31.4370 C   0  0  0  0  0  0  0  0  0  0  0  0
    1.2310   19.3780  -31.0040 C   0  0  0  0  0  0  0  0  0  0  0  0
    1.4400   18.6400  -29.8010 N   0  0  0  0  0  0  0  0  0  0  0  0
    2.2190   19.6550  -31.7370 O   0  0  0  0  0  0  0  0  0  0  0  0
   -0.5180   19.8370  -32.7710 C   0  0  0  0  0  0  0  0  0  0  0  0
   -1.8390   20.2190  -32.7430 C   0  0  0  0  0  0  0  0  0  0  0  0
   -2.7250   20.4570  -33.7910 C   0  0  0  0  0  0  0  0  0  0  0  0
   -4.0210   20.8910  -33.4710 C   0  0  0  0  0  0  0  0  0  0  0  0
   -4.3980   21.1050  -32.1220 C   0  0  0  0  0  0  0  0  0  0  0  0
   -5.7660   21.5660  -31.7960 C   0  0  0  0  0  0  0  0  0  0  0  0
   -6.8470   20.7510  -32.1750 C   0  0  0  0  0  0  0  0  0  0  0  0
   -8.1610   21.1720  -31.9730 C   0  0  0  0  0  0  0  0  0  0  0  0
   -8.4140   22.4120  -31.3910 C   0  0  0  0  0  0  0  0  0  0  0  0
   -7.3550   23.2300  -30.9930 C   0  0  0  0  0  0  0  0  0  0  0  0
   -6.0210   22.8180  -31.1710 C   0  0  0  0  0  0  0  0  0  0  0  0
   -4.9370   23.6890  -30.6520 C   0  0  0  0  0  0  0  0  0  0  0  0
   -4.5930   24.8770  -31.1950 N   0  0  0  0  0  0  0  0  0  0  0  0
   -3.5920   25.2980  -30.4850 O   0  0  0  0  0  0  0  0  0  0  0  0
   -3.3240   24.4150  -29.5600 C   0  0  0  0  0  0  0  0  0  0  0  0
   -2.3980   24.5420  -28.7160 O   0  0  0  0  0  0  0  0  0  0  0  0
   -4.1440   23.3510  -29.6100 N   0  0  0  0  0  0  0  0  0  0  0  0
   -3.4760   20.8450  -31.0840 C   0  0  0  0  0  0  0  0  0  0  0  0
   -2.2000   20.3860  -31.4290 C   0  0  0  0  0  0  0  0  0  0  0  0
   -1.2193   21.5416  -27.4713 H   0  0  0  0  0  0  0  0  0  0  0  0
   -0.3826   22.2651  -28.8866 H   0  0  0  0  0  0  0  0  0  0  0  0
   -2.1717   22.1041  -28.8866 H   0  0  0  0  0  0  0  0  0  0  0  0
    2.4100   18.4140  -29.4870 H   0  0  0  0  0  0  0  0  0  0  0  0
    0.6390   18.2300  -29.2710 H   0  0  0  0  0  0  0  0  0  0  0  0
    0.0960   19.6241  -33.6585 H   0  0  0  0  0  0  0  0  0  0  0  0
   -2.4186   20.3094  -34.8371 H   0  0  0  0  0  0  0  0  0  0  0  0
   -4.7508   21.0666  -34.2751 H   0  0  0  0  0  0  0  0  0  0  0  0
   -6.6543   19.7709  -32.6357 H   0  0  0  0  0  0  0  0  0  0  0  0
   -8.9981   20.5246  -32.2734 H   0  0  0  0  0  0  0  0  0  0  0  0
   -9.4512   22.7477  -31.2446 H   0  0  0  0  0  0  0  0  0  0  0  0
   -7.5656   24.2077  -30.5350 H   0  0  0  0  0  0  0  0  0  0  0  0
   -3.7541   20.9995  -30.0310 H   0  0  0  0  0  0  0  0  0  0  0  0
  1  2  1  0
  2  3  2  0
  2  4  1  0
  4  5  1  0
  5  6  1  0
  6  7  1  0
  6  8  2  0
  5  9  2  0
  9 10  1  0
 10 11  2  0
 11 12  1  0
 12 13  2  0
 13 14  1  0
 14 15  2  0
 15 16  1  0
 16 17  2  0
 17 18  1  0
 18 19  2  0
 19 20  1  0
 20 21  2  0
 21 22  1  0
 22 23  1  0
 23 24  2  0
 23 25  1  0
 13 26  1  0
 26 27  2  0
 27  4  1  0
 27 10  1  0
 19 14  1  0
 25 20  1  0
  1 28  1  0
  1 29  1  0
  1 30  1  0
  7 31  1  0
  7 32  1  0
  9 33  1  0
 11 34  1  0
 12 35  1  0
 15 36  1  0
 16 37  1  0
 17 38  1  0
 18 39  1  0
 26 40  1  0
M  CHG  1  25  -1
M  END
>  <UniqueID>  (10) 
10

>  <SMILES>  (10) 
CC(=O)n1c(C(N)=O)cc2ccc(-c3ccccc3-c3noc(=O)[n-]3)cc21

>  <Energy>  (10) 
128.35514631659817

>  <Genealogy>  (10) 
CC(=O)n1c(C(N)=O)cc2ccc(-c3ccccc3-c3noc(=O)[n-]3)cc21 (protonated)
CC(=O)n1c(C(N)=O)cc2ccc(-c3ccccc3-c3noc(=O)[n-]3)cc21 (3D coordinates assigned)
CC(=O)n1c(C(N)=O)cc2ccc(-c3ccccc3-c3noc(=O)[n-]3)cc21 (optimized conformer: 128.35514631659817 kcal/mol)

>  <smiles>  (10) 
CC(=O)n1c(C(N)=O)cc2ccc(-c3ccccc3-c3noc(=O)[nH]3)cc21

>  <score_type>  (10) 
oracle

>  <origin>  (10) 
adg

>  <m_score__min__energy>  (10) 
-9.6899999999999995

>  <m_primary>  (10) 
energy

$$$$
10:0
     RDKit          3D

 28 29  0  0  0  0  0  0  0  0999 V2000
   -3.5870   21.3790  -29.9060 C   0  0  0  0  0  0  0  0  0  0  0  0
   -4.0340   22.5270  -30.7540 C   0  0  0  0  0  0  0  0  0  0  0  0
   -3.1700   23.3070  -31.2370 O   0  0  0  0  0  0  0  0  0  0  0  0
   -5.4280   22.7430  -31.0370 N   0  0  0  0  0  0  0  0  0  0  0  0
   -6.1480   23.8740  -30.7920 C   0  0  0  0  0  0  0  0  0  0  0  0
   -5.6020   25.1610  -30.3150 C   0  0  0  0  0  0  0  0  0  0  0  0
   -4.2430   25.5280  -30.5610 N   0  0  0  0  0  0  0  0  0  0  0  0
   -6.3610   25.9720  -29.7210 O   0  0  0  0  0  0  0  0  0  0  0  0
   -7.4960   23.6660  -31.0710 C   0  0  0  0  0  0  0  0  0  0  0  0
   -7.5820   22.3630  -31.5040 C   0  0  0  0  0  0  0  0  0  0  0  0
   -8.6950   21.6190  -31.8780 C   0  0  0  0  0  0  0  0  0  0  0  0
   -8.5020   20.2710  -32.2240 C   0  0  0  0  0  0  0  0  0  0  0  0
   -7.2050   19.6930  -32.1950 C   0  0  0  0  0  0  0  0  0  0  0  0
   -7.0200   18.2300  -32.5020 C   0  0  0  0  0  0  0  0  0  0  0  0
   -6.0350   17.7130  -31.6810 F   0  0  0  0  0  0  0  0  0  0  0  0
   -6.6460   18.0510  -33.8230 F   0  0  0  0  0  0  0  0  0  0  0  0
   -8.1970   17.5330  -32.2870 F   0  0  0  0  0  0  0  0  0  0  0  0
   -6.1030   20.4780  -31.7820 C   0  0  0  0  0  0  0  0  0  0  0  0
   -6.3210   21.8250  -31.4690 C   0  0  0  0  0  0  0  0  0  0  0  0
   -3.6908   21.6455  -28.8438 H   0  0  0  0  0  0  0  0  0  0  0  0
   -4.2077   20.4977  -30.1252 H   0  0  0  0  0  0  0  0  0  0  0  0
   -2.5338   21.1495  -30.1252 H   0  0  0  0  0  0  0  0  0  0  0  0
   -3.6420   24.9740  -31.2090 H   0  0  0  0  0  0  0  0  0  0  0  0
   -3.8640   26.4180  -30.1690 H   0  0  0  0  0  0  0  0  0  0  0  0
   -8.3178   24.3898  -30.9673 H   0  0  0  0  0  0  0  0  0  0  0  0
   -9.6970   22.0721  -31.9024 H   0  0  0  0  0  0  0  0  0  0  0  0
   -9.3649   19.6566  -32.5206 H   0  0  0  0  0  0  0  0  0  0  0  0
   -5.0968   20.0396  -31.7084 H   0  0  0  0  0  0  0  0  0  0  0  0
  1  2  1  0
  2  3  2  0
  2  4  1  0
  4  5  1  0
  5  6  1  0
  6  7  1  0
  6  8  2  0
  5  9  2  0
  9 10  1  0
 10 11  2  0
 11 12  1  0
 12 13  2  0
 13 14  1  0
 14 15  1  0
 14 16  1  0
 14 17  1  0
 13 18  1  0
 18 19  2  0
 19  4  1  0
 19 10  1  0
  1 20  1  0
  1 21  1  0
  1 22  1  0
  7 23  1  0
  7 24  1  0
  9 25  1  0
 11 26  1  0
 12 27  1  0
 18 28  1  0
M  END
>  <UniqueID>  (11) 
11

>  <SMILES>  (11) 
CC(=O)n1c(C(N)=O)cc2ccc(C(F)(F)F)cc21

>  <Energy>  (11) 
68.1961666089989

>  <Genealogy>  (11) 
CC(=O)n1c(C(N)=O)cc2ccc(C(F)(F)F)cc21 (3D coordinates assigned)
CC(=O)n1c(C(N)=O)cc2ccc(C(F)(F)F)cc21 (optimized conformer: 68.1961666089989 kcal/mol)

>  <smiles>  (11) 
CC(=O)n1c(C(N)=O)cc2ccc(C(F)(F)F)cc21

>  <score_type>  (11) 
oracle

>  <origin>  (11) 
adg

>  <m_score__min__energy>  (11) 
-7.4299999999999997

>  <m_primary>  (11) 
energy

$$$$
11:0
     RDKit          3D

 36 38  0  0  0  0  0  0  0  0999 V2000
   -4.0660   25.4220  -30.8420 N   0  0  0  0  0  0  0  0  0  0  0  0
   -4.1080   24.0550  -30.4390 C   0  0  0  0  0  0  0  0  0  0  0  0
   -5.1670   23.5880  -29.9430 O   0  0  0  0  0  0  0  0  0  0  0  0
   -2.9440   23.2210  -30.5840 N   0  0  0  0  0  0  0  0  0  0  0  0
   -1.7740   23.3030  -29.8890 C   0  0  0  0  0  0  0  0  0  0  0  0
   -1.3900   24.3860  -28.9630 C   0  0  0  0  0  0  0  0  0  0  0  0
   -2.3600   25.3070  -28.4590 N   0  0  0  0  0  0  0  0  0  0  0  0
   -0.1780   24.5380  -28.6560 O   0  0  0  0  0  0  0  0  0  0  0  0
   -0.9360   22.2390  -30.2110 C   0  0  0  0  0  0  0  0  0  0  0  0
   -1.6270   21.5020  -31.1430 C   0  0  0  0  0  0  0  0  0  0  0  0
   -1.2710   20.3210  -31.7900 C   0  0  0  0  0  0  0  0  0  0  0  0
   -2.2000   19.7510  -32.6770 C   0  0  0  0  0  0  0  0  0  0  0  0
   -3.4570   20.3660  -32.8990 C   0  0  0  0  0  0  0  0  0  0  0  0
   -4.4630   19.7160  -33.8080 C   0  0  0  0  0  0  0  0  0  0  0  0
   -5.7180   19.3910  -33.0440 C   0  0  0  0  0  0  0  0  0  0  0  0
   -5.8010   18.2130  -32.2840 C   0  0  0  0  0  0  0  0  0  0  0  0
   -6.9810   17.8950  -31.6030 C   0  0  0  0  0  0  0  0  0  0  0  0
   -8.0880   18.7440  -31.6840 C   0  0  0  0  0  0  0  0  0  0  0  0
   -9.2290   18.4310  -31.0230 F   0  0  0  0  0  0  0  0  0  0  0  0
   -8.0170   19.9140  -32.4480 C   0  0  0  0  0  0  0  0  0  0  0  0
   -9.0930   20.7350  -32.5340 F   0  0  0  0  0  0  0  0  0  0  0  0
   -6.8390   20.2340  -33.1300 C   0  0  0  0  0  0  0  0  0  0  0  0
   -3.7880   21.5560  -32.2140 C   0  0  0  0  0  0  0  0  0  0  0  0
   -2.8370   22.1140  -31.3520 C   0  0  0  0  0  0  0  0  0  0  0  0
   -3.3840   25.7480  -31.5630 H   0  0  0  0  0  0  0  0  0  0  0  0
   -3.3390   25.3100  -28.8210 H   0  0  0  0  0  0  0  0  0  0  0  0
   -2.0770   26.0440  -27.7760 H   0  0  0  0  0  0  0  0  0  0  0  0
    0.0656   22.0322  -29.8059 H   0  0  0  0  0  0  0  0  0  0  0  0
   -0.2933   19.8493  -31.6122 H   0  0  0  0  0  0  0  0  0  0  0  0
   -1.9490   18.8186  -33.2039 H   0  0  0  0  0  0  0  0  0  0  0  0
   -4.7064   20.4034  -34.6316 H   0  0  0  0  0  0  0  0  0  0  0  0
   -4.0358   18.7855  -34.2101 H   0  0  0  0  0  0  0  0  0  0  0  0
   -4.9348   17.5377  -32.2239 H   0  0  0  0  0  0  0  0  0  0  0  0
   -7.0375   16.9750  -31.0027 H   0  0  0  0  0  0  0  0  0  0  0  0
   -6.7896   21.1501  -33.7368 H   0  0  0  0  0  0  0  0  0  0  0  0
   -4.7694   22.0326  -32.3546 H   0  0  0  0  0  0  0  0  0  0  0  0
  1  2  1  0
  2  3  2  0
  2  4  1  0
  4  5  1  0
  5  6  1  0
  6  7  1  0
  6  8  2  0
  5  9  2  0
  9 10  1  0
 10 11  2  0
 11 12  1  0
 12 13  2  0
 13 14  1  0
 14 15  1  0
 15 16  2  0
 16 17  1  0
 17 18  2  0
 18 19  1  0
 18 20  1  0
 20 21  1  0
 20 22  2  0
 13 23  1  0
 23 24  2  0
 24  4  1  0
 24 10  1  0
 22 15  1  0
  1 25  1  0
  7 26  1  0
  7 27  1  0
  9 28  1  0
 11 29  1  0
 12 30  1  0
 14 31  1  0
 14 32  1  0
 16 33  1  0
 17 34  1  0
 22 35  1  0
 23 36  1  0
M  CHG  1   1  -1
M  END
>  <UniqueID>  (12) 
12

>  <SMILES>  (12) 
[NH-]C(=O)n1c(C(N)=O)cc2ccc(Cc3ccc(F)c(F)c3)cc21

>  <Energy>  (12) 
76.80156332486771

>  <Genealogy>  (12) 
[NH-]C(=O)n1c(C(N)=O)cc2ccc(Cc3ccc(F)c(F)c3)cc21 (protonated)
[NH-]C(=O)n1c(C(N)=O)cc2ccc(Cc3ccc(F)c(F)c3)cc21 (3D coordinates assigned)
[NH-]C(=O)n1c(C(N)=O)cc2ccc(Cc3ccc(F)c(F)c3)cc21 (optimized conformer: 76.80156332486771 kcal/mol)

>  <smiles>  (12) 
NC(=O)c1cc2ccc(Cc3ccc(F)c(F)c3)cc2n1C(N)=O

>  <score_type>  (12) 
oracle

>  <origin>  (12) 
adg

>  <m_score__min__energy>  (12) 
-9.5099999999999998

>  <m_primary>  (12) 
energy

$$$$
12:0
     RDKit          3D

 31 32  0  0  0  0  0  0  0  0999 V2000
   -4.2760   18.2900  -33.7330 C   0  0  0  0  0  0  0  0  0  0  0  0
   -4.8920   17.5200  -32.7070 O   0  0  0  0  0  0  0  0  0  0  0  0
   -6.1390   17.8490  -32.1660 C   0  0  0  0  0  0  0  0  0  0  0  0
   -6.4600   17.4630  -31.0090 O   0  0  0  0  0  0  0  0  0  0  0  0
   -7.1160   18.6230  -32.9900 C   0  0  0  0  0  0  0  0  0  0  0  0
   -7.2180   20.0320  -32.4750 C   0  0  0  0  0  0  0  0  0  0  0  0
   -8.4880   20.6050  -32.2200 C   0  0  0  0  0  0  0  0  0  0  0  0
   -8.5940   21.9130  -31.7190 C   0  0  0  0  0  0  0  0  0  0  0  0
   -7.4170   22.6130  -31.4670 C   0  0  0  0  0  0  0  0  0  0  0  0
   -7.2330   23.8950  -31.0020 C   0  0  0  0  0  0  0  0  0  0  0  0
   -5.8530   24.0740  -30.9480 C   0  0  0  0  0  0  0  0  0  0  0  0
   -5.2110   25.2980  -30.4240 C   0  0  0  0  0  0  0  0  0  0  0  0
   -3.8940   25.6440  -30.8450 N   0  0  0  0  0  0  0  0  0  0  0  0
   -5.8250   26.0610  -29.6320 O   0  0  0  0  0  0  0  0  0  0  0  0
   -5.2080   22.9470  -31.3650 N   0  0  0  0  0  0  0  0  0  0  0  0
   -3.7920   22.7450  -31.5100 C   0  0  0  0  0  0  0  0  0  0  0  0
   -2.9010   23.1330  -30.4670 N   0  0  0  0  0  0  0  0  0  0  0  0
   -3.3330   22.2140  -32.5550 O   0  0  0  0  0  0  0  0  0  0  0  0
   -6.1800   22.0620  -31.6790 C   0  0  0  0  0  0  0  0  0  0  0  0
   -6.0450   20.7680  -32.1970 C   0  0  0  0  0  0  0  0  0  0  0  0
   -3.6502   19.0723  -33.2787 H   0  0  0  0  0  0  0  0  0  0  0  0
   -3.6495   17.6354  -34.3567 H   0  0  0  0  0  0  0  0  0  0  0  0
   -5.0522   18.7575  -34.3567 H   0  0  0  0  0  0  0  0  0  0  0  0
   -6.7770   18.6409  -34.0363 H   0  0  0  0  0  0  0  0  0  0  0  0
   -8.1034   18.1423  -32.9268 H   0  0  0  0  0  0  0  0  0  0  0  0
   -9.3991   20.0207  -32.4160 H   0  0  0  0  0  0  0  0  0  0  0  0
   -9.5767   22.3703  -31.5315 H   0  0  0  0  0  0  0  0  0  0  0  0
   -8.0109   24.6238  -30.7305 H   0  0  0  0  0  0  0  0  0  0  0  0
   -3.0560   25.2990  -30.3260 H   0  0  0  0  0  0  0  0  0  0  0  0
   -2.4650   24.0810  -30.4610 H   0  0  0  0  0  0  0  0  0  0  0  0
   -5.0507   20.3357  -32.3827 H   0  0  0  0  0  0  0  0  0  0  0  0
  1  2  1  0
  2  3  1  0
  3  4  2  0
  3  5  1  0
  5  6  1  0
  6  7  2  0
  7  8  1  0
  8  9  2  0
  9 10  1  0
 10 11  2  0
 11 12  1  0
 12 13  1  0
 12 14  2  0
 11 15  1  0
 15 16  1  0
 16 17  1  0
 16 18  2  0
 15 19  1  0
 19 20  2  0
 20  6  1  0
 19  9  1  0
  1 21  1  0
  1 22  1  0
  1 23  1  0
  5 24  1  0
  5 25  1  0
  7 26  1  0
  8 27  1  0
 10 28  1  0
 13 29  1  0
 17 30  1  0
 20 31  1  0
M  CHG  2  13  -1  17  -1
M  END
>  <UniqueID>  (13) 
13

>  <SMILES>  (13) 
COC(=O)Cc1ccc2cc(C([NH-])=O)n(C([NH-])=O)c2c1

>  <Energy>  (13) 
65.99050230381744

>  <Genealogy>  (13) 
COC(=O)Cc1ccc2cc(C([NH-])=O)n(C([NH-])=O)c2c1 (protonated)
COC(=O)Cc1ccc2cc(C([NH-])=O)n(C([NH-])=O)c2c1 (3D coordinates assigned)
COC(=O)Cc1ccc2cc(C([NH-])=O)n(C([NH-])=O)c2c1 (optimized conformer: 65.99050230381744 kcal/mol)

>  <smiles>  (13) 
COC(=O)Cc1ccc2cc(C(N)=O)n(C(N)=O)c2c1

>  <score_type>  (13) 
oracle

>  <origin>  (13) 
adg

>  <m_score__min__energy>  (13) 
-9.7699999999999996

>  <m_primary>  (13) 
energy

$$$$
13:0
     RDKit          3D

 36 38  0  0  0  0  0  0  0  0999 V2000
   -3.1830   20.0430  -32.3360 C   0  0  0  0  0  0  0  0  0  0  0  0
   -3.0730   21.0520  -33.4730 C   0  0  0  0  0  0  0  0  0  0  0  0
   -3.7860   22.2450  -33.1580 O   0  0  0  0  0  0  0  0  0  0  0  0
   -4.0560   22.6620  -31.8490 C   0  0  0  0  0  0  0  0  0  0  0  0
   -3.1150   22.8120  -31.0220 O   0  0  0  0  0  0  0  0  0  0  0  0
   -5.4090   22.9350  -31.4510 N   0  0  0  0  0  0  0  0  0  0  0  0
   -5.8890   24.0600  -30.8500 C   0  0  0  0  0  0  0  0  0  0  0  0
   -5.1360   25.3090  -30.6170 C   0  0  0  0  0  0  0  0  0  0  0  0
   -3.7220   25.2620  -30.4410 N   0  0  0  0  0  0  0  0  0  0  0  0
   -5.7310   26.4160  -30.5340 O   0  0  0  0  0  0  0  0  0  0  0  0
   -7.2420   23.9110  -30.5480 C   0  0  0  0  0  0  0  0  0  0  0  0
   -7.5790   22.6530  -30.9900 C   0  0  0  0  0  0  0  0  0  0  0  0
   -8.7980   21.9840  -30.9400 C   0  0  0  0  0  0  0  0  0  0  0  0
   -8.8540   20.6780  -31.4550 C   0  0  0  0  0  0  0  0  0  0  0  0
   -7.6940   20.0630  -31.9900 C   0  0  0  0  0  0  0  0  0  0  0  0
   -7.7720   18.6740  -32.5610 C   0  0  0  0  0  0  0  0  0  0  0  0
   -6.5580   18.3930  -33.3860 C   0  0  0  0  0  0  0  0  0  0  0  0
   -5.5430   17.5970  -33.0050 N   0  0  0  0  0  0  0  0  0  0  0  0
   -4.6550   17.6840  -33.9870 N   0  0  0  0  0  0  0  0  0  0  0  0
   -5.1000   18.5070  -34.9270 N   0  0  0  0  0  0  0  0  0  0  0  0
   -6.2860   18.9650  -34.5680 N   0  0  0  0  0  0  0  0  0  0  0  0
   -6.4760   20.7780  -32.0340 C   0  0  0  0  0  0  0  0  0  0  0  0
   -6.4550   22.0840  -31.5310 C   0  0  0  0  0  0  0  0  0  0  0  0
   -3.1256   20.5694  -31.3718 H   0  0  0  0  0  0  0  0  0  0  0  0
   -4.1442   19.5130  -32.4078 H   0  0  0  0  0  0  0  0  0  0  0  0
   -2.3585   19.3184  -32.4078 H   0  0  0  0  0  0  0  0  0  0  0  0
   -2.0133   21.2972  -33.6370 H   0  0  0  0  0  0  0  0  0  0  0  0
   -3.5073   20.6098  -34.3818 H   0  0  0  0  0  0  0  0  0  0  0  0
   -3.0930   24.9670  -31.2200 H   0  0  0  0  0  0  0  0  0  0  0  0
   -7.9005   24.6444  -30.0596 H   0  0  0  0  0  0  0  0  0  0  0  0
   -9.6903   22.4628  -30.5105 H   0  0  0  0  0  0  0  0  0  0  0  0
   -9.8064   20.1277  -31.4430 H   0  0  0  0  0  0  0  0  0  0  0  0
   -7.8312   17.9449  -31.7394 H   0  0  0  0  0  0  0  0  0  0  0  0
   -8.6670   18.5936  -33.1955 H   0  0  0  0  0  0  0  0  0  0  0  0
   -6.8640   19.6450  -35.1080 H   0  0  0  0  0  0  0  0  0  0  0  0
   -5.5678   20.3200  -32.4528 H   0  0  0  0  0  0  0  0  0  0  0  0
  1  2  1  0
  2  3  1  0
  3  4  1  0
  4  5  2  0
  4  6  1  0
  6  7  1  0
  7  8  1  0
  8  9  1  0
  8 10  2  0
  7 11  2  0
 11 12  1  0
 12 13  2  0
 13 14  1  0
 14 15  2  0
 15 16  1  0
 16 17  1  0
 17 18  2  0
 18 19  1  0
 19 20  1  0
 20 21  2  0
 15 22  1  0
 22 23  2  0
 23  6  1  0
 23 12  1  0
 21 17  1  0
  1 24  1  0
  1 25  1  0
  1 26  1  0
  2 27  1  0
  2 28  1  0
  9 29  1  0
 11 30  1  0
 13 31  1  0
 14 32  1  0
 16 33  1  0
 16 34  1  0
 21 35  1  0
 22 36  1  0
M  CHG  3   9  -1  19  -1  21   1
M  END
>  <UniqueID>  (14) 
14

>  <SMILES>  (14) 
CCOC(=O)n1c(C([NH-])=O)cc2ccc(Cc3n[n-]n[nH+]3)cc21

>  <Energy>  (14) 
110.36870863607233

>  <Genealogy>  (14) 
CCOC(=O)n1c(C([NH-])=O)cc2ccc(Cc3n[n-]n[nH+]3)cc21 (protonated)
CCOC(=O)n1c(C([NH-])=O)cc2ccc(Cc3n[n-]n[nH+]3)cc21 (3D coordinates assigned)
CCOC(=O)n1c(C([NH-])=O)cc2ccc(Cc3n[n-]n[nH+]3)cc21 (optimized conformer: 110.36870863607233 kcal/mol)

>  <smiles>  (14) 
CCOC(=O)n1c(C(N)=O)cc2ccc(Cc3nn[nH]n3)cc21

>  <score_type>  (14) 
oracle

>  <origin>  (14) 
adg

>  <m_score__min__energy>  (14) 
-11

>  <m_primary>  (14) 
energy

$$$$
14:0
     RDKit          3D

 30 31  0  0  0  0  0  0  0  0999 V2000
   -5.6900   18.9870  -33.9260 C   0  0  0  0  0  0  0  0  0  0  0  0
   -5.9720   20.1820  -33.0060 C   0  0  0  0  0  0  0  0  0  0  0  0
   -7.0510   19.8410  -31.9730 C   0  0  0  0  0  0  0  0  0  0  0  0
   -4.7010   20.6610  -32.3290 C   0  0  0  0  0  0  0  0  0  0  0  0
   -3.5460   19.8360  -32.3340 C   0  0  0  0  0  0  0  0  0  0  0  0
   -2.3540   20.2630  -31.7270 C   0  0  0  0  0  0  0  0  0  0  0  0
   -2.3450   21.5120  -31.1160 C   0  0  0  0  0  0  0  0  0  0  0  0
   -1.3220   22.1770  -30.4780 C   0  0  0  0  0  0  0  0  0  0  0  0
   -1.8690   23.3920  -30.0690 C   0  0  0  0  0  0  0  0  0  0  0  0
   -1.1280   24.3860  -29.2660 C   0  0  0  0  0  0  0  0  0  0  0  0
   -1.7200   25.6510  -28.9790 N   0  0  0  0  0  0  0  0  0  0  0  0
    0.0400   24.1470  -28.8590 O   0  0  0  0  0  0  0  0  0  0  0  0
   -3.1770   23.4780  -30.4460 N   0  0  0  0  0  0  0  0  0  0  0  0
   -4.0750   24.5870  -30.2710 C   0  0  0  0  0  0  0  0  0  0  0  0
   -3.8760   25.6690  -30.8820 O   0  0  0  0  0  0  0  0  0  0  0  0
   -5.1850   24.4660  -29.4440 O   0  0  0  0  0  0  0  0  0  0  0  0
   -3.4530   22.3180  -31.0830 C   0  0  0  0  0  0  0  0  0  0  0  0
   -4.6480   21.9270  -31.6960 C   0  0  0  0  0  0  0  0  0  0  0  0
   -5.4798   18.0962  -33.3159 H   0  0  0  0  0  0  0  0  0  0  0  0
   -6.5682   18.7978  -34.5608 H   0  0  0  0  0  0  0  0  0  0  0  0
   -4.8199   19.2103  -34.5608 H   0  0  0  0  0  0  0  0  0  0  0  0
   -6.3521   21.0042  -33.6302 H   0  0  0  0  0  0  0  0  0  0  0  0
   -6.6425   19.9701  -30.9599 H   0  0  0  0  0  0  0  0  0  0  0  0
   -7.9132   20.5104  -32.1088 H   0  0  0  0  0  0  0  0  0  0  0  0
   -7.3719   18.7976  -32.1088 H   0  0  0  0  0  0  0  0  0  0  0  0
   -3.5852   18.8497  -32.8195 H   0  0  0  0  0  0  0  0  0  0  0  0
   -1.4551   19.6290  -31.7346 H   0  0  0  0  0  0  0  0  0  0  0  0
   -0.2916   21.8242  -30.3238 H   0  0  0  0  0  0  0  0  0  0  0  0
   -2.7530   25.7870  -29.0450 H   0  0  0  0  0  0  0  0  0  0  0  0
   -5.5271   22.5881  -31.6867 H   0  0  0  0  0  0  0  0  0  0  0  0
  1  2  1  0
  2  3  1  0
  2  4  1  0
  4  5  2  0
  5  6  1  0
  6  7  2  0
  7  8  1  0
  8  9  2  0
  9 10  1  0
 10 11  1  0
 10 12  2  0
  9 13  1  0
 13 14  1  0
 14 15  2  0
 14 16  1  0
 13 17  1  0
 17 18  2  0
 18  4  1  0
 17  7  1  0
  1 19  1  0
  1 20  1  0
  1 21  1  0
  2 22  1  0
  3 23  1  0
  3 24  1  0
  3 25  1  0
  5 26  1  0
  6 27  1  0
  8 28  1  0
 11 29  1  0
 18 30  1  0
M  CHG  2  11  -1  16  -1
M  END
>  <UniqueID>  (15) 
15

>  <SMILES>  (15) 
CC(C)c1ccc2cc(C([NH-])=O)n(C(=O)[O-])c2c1

>  <Energy>  (15) 
66.04519826811587

>  <Genealogy>  (15) 
CC(C)c1ccc2cc(C([NH-])=O)n(C(=O)[O-])c2c1 (protonated)
CC(C)c1ccc2cc(C([NH-])=O)n(C(=O)[O-])c2c1 (3D coordinates assigned)
CC(C)c1ccc2cc(C([NH-])=O)n(C(=O)[O-])c2c1 (optimized conformer: 66.04519826811587 kcal/mol)

>  <smiles>  (15) 
CC(C)c1ccc2cc(C(N)=O)n(C(=O)O)c2c1

>  <score_type>  (15) 
oracle

>  <origin>  (15) 
adg

>  <m_score__min__energy>  (15) 
-10.57

>  <m_primary>  (15) 
energy

$$$$
15:0
     RDKit          3D

 35 37  0  0  0  0  0  0  0  0999 V2000
   -2.6850   21.9270  -32.2900 C   0  0  0  0  0  0  0  0  0  0  0  0
   -3.4490   22.6410  -31.2220 C   0  0  0  0  0  0  0  0  0  0  0  0
   -2.8220   23.1830  -30.2720 O   0  0  0  0  0  0  0  0  0  0  0  0
   -4.8820   22.7230  -31.2690 N   0  0  0  0  0  0  0  0  0  0  0  0
   -5.6620   23.8070  -30.9960 C   0  0  0  0  0  0  0  0  0  0  0  0
   -5.1900   25.1040  -30.4670 C   0  0  0  0  0  0  0  0  0  0  0  0
   -3.9310   25.6440  -30.8570 N   0  0  0  0  0  0  0  0  0  0  0  0
   -5.8950   25.7290  -29.6290 O   0  0  0  0  0  0  0  0  0  0  0  0
   -7.0040   23.5130  -31.2290 C   0  0  0  0  0  0  0  0  0  0  0  0
   -7.0220   22.2040  -31.6570 C   0  0  0  0  0  0  0  0  0  0  0  0
   -8.0920   21.4030  -32.0400 C   0  0  0  0  0  0  0  0  0  0  0  0
   -7.8150   20.0940  -32.4680 C   0  0  0  0  0  0  0  0  0  0  0  0
   -6.4790   19.6120  -32.5230 C   0  0  0  0  0  0  0  0  0  0  0  0
   -6.1760   18.2310  -32.9770 C   0  0  0  0  0  0  0  0  0  0  0  0
   -7.1840   17.3650  -33.4320 C   0  0  0  0  0  0  0  0  0  0  0  0
   -6.8490   16.0760  -33.8530 C   0  0  0  0  0  0  0  0  0  0  0  0
   -5.5130   15.6490  -33.8310 C   0  0  0  0  0  0  0  0  0  0  0  0
   -5.1490   14.2860  -34.2760 C   0  0  0  0  0  0  0  0  0  0  0  0
   -5.7740   13.2830  -33.8400 O   0  0  0  0  0  0  0  0  0  0  0  0
   -4.1130   14.0950  -35.1830 O   0  0  0  0  0  0  0  0  0  0  0  0
   -4.5340   16.5480  -33.3800 C   0  0  0  0  0  0  0  0  0  0  0  0
   -4.8840   17.7970  -32.9740 N   0  0  0  0  0  0  0  0  0  0  0  0
   -5.4220   20.4590  -32.1150 C   0  0  0  0  0  0  0  0  0  0  0  0
   -5.7300   21.7510  -31.6740 C   0  0  0  0  0  0  0  0  0  0  0  0
   -1.9562   21.2459  -31.8264 H   0  0  0  0  0  0  0  0  0  0  0  0
   -3.3815   21.3486  -32.9148 H   0  0  0  0  0  0  0  0  0  0  0  0
   -2.1550   22.6610  -32.9148 H   0  0  0  0  0  0  0  0  0  0  0  0
   -3.0420   25.2910  -30.4400 H   0  0  0  0  0  0  0  0  0  0  0  0
   -7.8660   24.1839  -31.0988 H   0  0  0  0  0  0  0  0  0  0  0  0
   -9.1239   21.7827  -32.0088 H   0  0  0  0  0  0  0  0  0  0  0  0
   -8.6430   19.4333  -32.7645 H   0  0  0  0  0  0  0  0  0  0  0  0
   -8.2314   17.7001  -33.4566 H   0  0  0  0  0  0  0  0  0  0  0  0
   -7.6365   15.3926  -34.2034 H   0  0  0  0  0  0  0  0  0  0  0  0
   -3.4782   16.2402  -33.3550 H   0  0  0  0  0  0  0  0  0  0  0  0
   -4.3795   20.1093  -32.1438 H   0  0  0  0  0  0  0  0  0  0  0  0
  1  2  1  0
  2  3  2  0
  2  4  1  0
  4  5  1  0
  5  6  1  0
  6  7  1  0
  6  8  2  0
  5  9  2  0
  9 10  1  0
 10 11  2  0
 11 12  1  0
 12 13  2  0
 13 14  1  0
 14 15  2  0
 15 16  1  0
 16 17  2  0
 17 18  1  0
 18 19  2  0
 18 20  1  0
 17 21  1  0
 21 22  2  0
 13 23  1  0
 23 24  2  0
 24  4  1  0
 24 10  1  0
 22 14  1  0
  1 25  1  0
  1 26  1  0
  1 27  1  0
  7 28  1  0
  9 29  1  0
 11 30  1  0
 12 31  1  0
 15 32  1  0
 16 33  1  0
 21 34  1  0
 23 35  1  0
M  CHG  2   7  -1  20  -1
M  END
>  <UniqueID>  (16) 
16

>  <SMILES>  (16) 
CC(=O)n1c(C([NH-])=O)cc2ccc(-c3ccc(C(=O)[O-])cn3)cc21

>  <Energy>  (16) 
81.80159865239861

>  <Genealogy>  (16) 
CC(=O)n1c(C([NH-])=O)cc2ccc(-c3ccc(C(=O)[O-])cn3)cc21 (protonated)
CC(=O)n1c(C([NH-])=O)cc2ccc(-c3ccc(C(=O)[O-])cn3)cc21 (3D coordinates assigned)
CC(=O)n1c(C([NH-])=O)cc2ccc(-c3ccc(C(=O)[O-])cn3)cc21 (optimized conformer: 81.80159865239861 kcal/mol)

>  <smiles>  (16) 
CC(=O)n1c(C(N)=O)cc2ccc(-c3ccc(C(=O)O)cn3)cc21

>  <score_type>  (16) 
oracle

>  <origin>  (16) 
adg

>  <m_score__min__energy>  (16) 
-10.210000000000001

>  <m_primary>  (16) 
energy

$$$$
16:0
     RDKit          3D

 38 40  0  0  0  0  0  0  0  0999 V2000
   -3.8080   23.0920  -28.0490 C   0  0  0  0  0  0  0  0  0  0  0  0
   -2.6270   22.5560  -28.8440 C   0  0  0  0  0  0  0  0  0  0  0  0
   -2.5650   23.2150  -30.1040 O   0  0  0  0  0  0  0  0  0  0  0  0
   -3.1120   22.6710  -31.2690 C   0  0  0  0  0  0  0  0  0  0  0  0
   -2.3630   22.1520  -32.1410 O   0  0  0  0  0  0  0  0  0  0  0  0
   -4.5360   22.6780  -31.4580 N   0  0  0  0  0  0  0  0  0  0  0  0
   -5.4090   23.6970  -31.2130 C   0  0  0  0  0  0  0  0  0  0  0  0
   -5.0920   24.9730  -30.5400 C   0  0  0  0  0  0  0  0  0  0  0  0
   -3.8840   25.6740  -30.8280 N   0  0  0  0  0  0  0  0  0  0  0  0
   -5.8730   25.4270  -29.6630 O   0  0  0  0  0  0  0  0  0  0  0  0
   -6.6960   23.3430  -31.6160 C   0  0  0  0  0  0  0  0  0  0  0  0
   -6.5860   22.0630  -32.1080 C   0  0  0  0  0  0  0  0  0  0  0  0
   -7.5560   21.2280  -32.6540 C   0  0  0  0  0  0  0  0  0  0  0  0
   -7.1540   19.9630  -33.1120 C   0  0  0  0  0  0  0  0  0  0  0  0
   -5.7990   19.5560  -33.0170 C   0  0  0  0  0  0  0  0  0  0  0  0
   -5.3770   18.2340  -33.5280 C   0  0  0  0  0  0  0  0  0  0  0  0
   -4.8190   18.1470  -34.8160 C   0  0  0  0  0  0  0  0  0  0  0  0
   -4.4210   16.9120  -35.3330 C   0  0  0  0  0  0  0  0  0  0  0  0
   -4.5700   15.7530  -34.5700 C   0  0  0  0  0  0  0  0  0  0  0  0
   -5.1110   15.8240  -33.2850 C   0  0  0  0  0  0  0  0  0  0  0  0
   -5.2330   14.6910  -32.5500 F   0  0  0  0  0  0  0  0  0  0  0  0
   -5.5140   17.0600  -32.7540 C   0  0  0  0  0  0  0  0  0  0  0  0
   -6.1220   17.1080  -31.1000 Cl  0  0  0  0  0  0  0  0  0  0  0  0
   -4.8410   20.4380  -32.4680 C   0  0  0  0  0  0  0  0  0  0  0  0
   -5.2730   21.6850  -32.0020 C   0  0  0  0  0  0  0  0  0  0  0  0
   -3.5991   22.9972  -26.9732 H   0  0  0  0  0  0  0  0  0  0  0  0
   -3.9683   24.1510  -28.2995 H   0  0  0  0  0  0  0  0  0  0  0  0
   -4.7106   22.5153  -28.2995 H   0  0  0  0  0  0  0  0  0  0  0  0
   -1.6963   22.7406  -28.2875 H   0  0  0  0  0  0  0  0  0  0  0  0
   -2.7516   21.4745  -29.0016 H   0  0  0  0  0  0  0  0  0  0  0  0
   -2.9600   25.2960  -30.5250 H   0  0  0  0  0  0  0  0  0  0  0  0
   -7.6065   23.9571  -31.5537 H   0  0  0  0  0  0  0  0  0  0  0  0
   -8.6057   21.5491  -32.7247 H   0  0  0  0  0  0  0  0  0  0  0  0
   -7.8979   19.2807  -33.5490 H   0  0  0  0  0  0  0  0  0  0  0  0
   -4.6952   19.0577  -35.4204 H   0  0  0  0  0  0  0  0  0  0  0  0
   -3.9895   16.8528  -36.3431 H   0  0  0  0  0  0  0  0  0  0  0  0
   -4.2604   14.7812  -34.9821 H   0  0  0  0  0  0  0  0  0  0  0  0
   -3.7807   20.1512  -32.4083 H   0  0  0  0  0  0  0  0  0  0  0  0
  1  2  1  0
  2  3  1  0
  3  4  1  0
  4  5  2  0
  4  6  1  0
  6  7  1  0
  7  8  1  0
  8  9  1  0
  8 10  2  0
  7 11  2  0
 11 12  1  0
 12 13  2  0
 13 14  1  0
 14 15  2  0
 15 16  1  0
 16 17  2  0
 17 18  1  0
 18 19  2  0
 19 20  1  0
 20 21  1  0
 20 22  2  0
 22 23  1  0
 15 24  1  0
 24 25  2  0
 25  6  1  0
 25 12  1  0
 22 16  1  0
  1 26  1  0
  1 27  1  0
  1 28  1  0
  2 29  1  0
  2 30  1  0
  9 31  1  0
 11 32  1  0
 13 33  1  0
 14 34  1  0
 17 35  1  0
 18 36  1  0
 19 37  1  0
 24 38  1  0
M  CHG  1   9  -1
M  END
>  <UniqueID>  (17) 
17

>  <SMILES>  (17) 
CCOC(=O)n1c(C([NH-])=O)cc2ccc(-c3cccc(F)c3Cl)cc21

>  <Energy>  (17) 
82.65266219882461

>  <Genealogy>  (17) 
CCOC(=O)n1c(C([NH-])=O)cc2ccc(-c3cccc(F)c3Cl)cc21 (protonated)
CCOC(=O)n1c(C([NH-])=O)cc2ccc(-c3cccc(F)c3Cl)cc21 (3D coordinates assigned)
CCOC(=O)n1c(C([NH-])=O)cc2ccc(-c3cccc(F)c3Cl)cc21 (optimized conformer: 82.65266219882461 kcal/mol)

>  <smiles>  (17) 
CCOC(=O)n1c(C(N)=O)cc2ccc(-c3cccc(F)c3Cl)cc21

>  <score_type>  (17) 
oracle

>  <origin>  (17) 
adg

>  <m_score__min__energy>  (17) 
-10.94

>  <m_primary>  (17) 
energy

$$$$
17:0
     RDKit          3D

 44 46  0  0  0  0  0  0  0  0999 V2000
   -3.8530   24.1130  -27.8230 C   0  0  0  0  0  0  0  0  0  0  0  0
   -3.5620   22.8130  -28.5560 C   0  0  0  0  0  0  0  0  0  0  0  0
   -2.9140   23.0980  -29.7900 O   0  0  0  0  0  0  0  0  0  0  0  0
   -3.4400   22.7130  -31.0260 C   0  0  0  0  0  0  0  0  0  0  0  0
   -2.6740   22.3220  -31.9490 O   0  0  0  0  0  0  0  0  0  0  0  0
   -4.8570   22.7820  -31.2520 N   0  0  0  0  0  0  0  0  0  0  0  0
   -5.6530   23.8890  -31.2040 C   0  0  0  0  0  0  0  0  0  0  0  0
   -5.2500   25.2290  -30.7320 C   0  0  0  0  0  0  0  0  0  0  0  0
   -3.8990   25.6710  -30.8460 N   0  0  0  0  0  0  0  0  0  0  0  0
   -6.0980   25.9760  -30.1760 O   0  0  0  0  0  0  0  0  0  0  0  0
   -6.9530   23.5710  -31.5910 C   0  0  0  0  0  0  0  0  0  0  0  0
   -6.9320   22.2240  -31.8720 C   0  0  0  0  0  0  0  0  0  0  0  0
   -7.9520   21.3870  -32.3120 C   0  0  0  0  0  0  0  0  0  0  0  0
   -7.6410   20.0390  -32.5520 C   0  0  0  0  0  0  0  0  0  0  0  0
   -6.3210   19.5520  -32.3590 C   0  0  0  0  0  0  0  0  0  0  0  0
   -6.0010   18.1270  -32.6300 C   0  0  0  0  0  0  0  0  0  0  0  0
   -5.9330   17.6440  -33.9450 C   0  0  0  0  0  0  0  0  0  0  0  0
   -5.6320   16.3040  -34.1870 C   0  0  0  0  0  0  0  0  0  0  0  0
   -5.3980   15.4370  -33.1080 C   0  0  0  0  0  0  0  0  0  0  0  0
   -5.0780   14.0120  -33.3420 C   0  0  0  0  0  0  0  0  0  0  0  0
   -4.9870   13.5680  -34.5210 O   0  0  0  0  0  0  0  0  0  0  0  0
   -4.8770   13.1570  -32.2540 O   0  0  0  0  0  0  0  0  0  0  0  0
   -3.6110   13.0030  -31.6230 C   0  0  0  0  0  0  0  0  0  0  0  0
   -5.4680   15.9250  -31.8330 N   0  0  0  0  0  0  0  0  0  0  0  0
   -5.7610   17.2290  -31.5770 C   0  0  0  0  0  0  0  0  0  0  0  0
   -5.3120   20.4380  -31.9110 C   0  0  0  0  0  0  0  0  0  0  0  0
   -5.6560   21.7720  -31.6610 C   0  0  0  0  0  0  0  0  0  0  0  0
   -3.8140   23.9386  -26.7376 H   0  0  0  0  0  0  0  0  0  0  0  0
   -3.1013   24.8666  -28.1006 H   0  0  0  0  0  0  0  0  0  0  0  0
   -4.8542   24.4742  -28.1006 H   0  0  0  0  0  0  0  0  0  0  0  0
   -2.9086   22.1812  -27.9363 H   0  0  0  0  0  0  0  0  0  0  0  0
   -4.5062   22.2838  -28.7519 H   0  0  0  0  0  0  0  0  0  0  0  0
   -3.1090   24.9890  -30.8400 H   0  0  0  0  0  0  0  0  0  0  0  0
   -7.8140   24.2524  -31.6578 H   0  0  0  0  0  0  0  0  0  0  0  0
   -8.9716   21.7696  -32.4673 H   0  0  0  0  0  0  0  0  0  0  0  0
   -8.4292   19.3519  -32.8936 H   0  0  0  0  0  0  0  0  0  0  0  0
   -6.1178   18.3249  -34.7889 H   0  0  0  0  0  0  0  0  0  0  0  0
   -5.5781   15.9279  -35.2193 H   0  0  0  0  0  0  0  0  0  0  0  0
   -3.7413   13.0189  -30.5309 H   0  0  0  0  0  0  0  0  0  0  0  0
   -3.1649   12.0440  -31.9252 H   0  0  0  0  0  0  0  0  0  0  0  0
   -2.9480   13.8271  -31.9252 H   0  0  0  0  0  0  0  0  0  0  0  0
   -5.2920   15.2940  -31.0180 H   0  0  0  0  0  0  0  0  0  0  0  0
   -5.8103   17.5828  -30.5366 H   0  0  0  0  0  0  0  0  0  0  0  0
   -4.2804   20.0862  -31.7625 H   0  0  0  0  0  0  0  0  0  0  0  0
  1  2  1  0
  2  3  1  0
  3  4  1  0
  4  5  2  0
  4  6  1  0
  6  7  1  0
  7  8  1  0
  8  9  1  0
  8 10  2  0
  7 11  2  0
 11 12  1  0
 12 13  2  0
 13 14  1  0
 14 15  2  0
 15 16  1  0
 16 17  2  0
 17 18  1  0
 18 19  2  0
 19 20  1  0
 20 21  2  0
 20 22  1  0
 22 23  1  0
 19 24  1  0
 24 25  2  0
 15 26  1  0
 26 27  2  0
 27  6  1  0
 27 12  1  0
 25 16  1  0
  1 28  1  0
  1 29  1  0
  1 30  1  0
  2 31  1  0
  2 32  1  0
  9 33  1  0
 11 34  1  0
 13 35  1  0
 14 36  1  0
 17 37  1  0
 18 38  1  0
 23 39  1  0
 23 40  1  0
 23 41  1  0
 24 42  1  0
 25 43  1  0
 26 44  1  0
M  CHG  2   9  -1  24   1
M  END
>  <UniqueID>  (18) 
18

>  <SMILES>  (18) 
CCOC(=O)n1c(C([NH-])=O)cc2ccc(-c3ccc(C(=O)OC)[nH+]c3)cc21

>  <Energy>  (18) 
84.04558079111382

>  <Genealogy>  (18) 
CCOC(=O)n1c(C([NH-])=O)cc2ccc(-c3ccc(C(=O)OC)[nH+]c3)cc21 (protonated)
CCOC(=O)n1c(C([NH-])=O)cc2ccc(-c3ccc(C(=O)OC)[nH+]c3)cc21 (3D coordinates assigned)
CCOC(=O)n1c(C([NH-])=O)cc2ccc(-c3ccc(C(=O)OC)[nH+]c3)cc21 (optimized conformer: 84.04558079111382 kcal/mol)

>  <smiles>  (18) 
CCOC(=O)n1c(C(N)=O)cc2ccc(-c3ccc(C(=O)OC)nc3)cc21

>  <score_type>  (18) 
oracle

>  <origin>  (18) 
adg

>  <m_score__min__energy>  (18) 
-9.5899999999999999

>  <m_primary>  (18) 
energy

$$$$
18:0
     RDKit          3D

 55 58  0  0  0  0  0  0  0  0999 V2000
   -6.1950   25.4940  -29.5000 C   0  0  0  0  0  0  0  0  0  0  0  0
   -5.0190   25.8900  -30.3780 C   0  0  0  0  0  0  0  0  0  0  0  0
   -4.3590   24.7200  -30.8450 O   0  0  0  0  0  0  0  0  0  0  0  0
   -3.8980   23.7180  -29.9850 C   0  0  0  0  0  0  0  0  0  0  0  0
   -4.5530   23.4170  -28.9500 O   0  0  0  0  0  0  0  0  0  0  0  0
   -2.6620   23.0460  -30.2740 N   0  0  0  0  0  0  0  0  0  0  0  0
   -1.4200   23.3500  -29.8010 C   0  0  0  0  0  0  0  0  0  0  0  0
   -1.0560   24.5510  -29.0220 C   0  0  0  0  0  0  0  0  0  0  0  0
   -1.9280   25.6760  -28.9590 N   0  0  0  0  0  0  0  0  0  0  0  0
    0.0620   24.6040  -28.4430 O   0  0  0  0  0  0  0  0  0  0  0  0
   -0.4910   22.4000  -30.2240 C   0  0  0  0  0  0  0  0  0  0  0  0
   -1.2060   21.5030  -30.9820 C   0  0  0  0  0  0  0  0  0  0  0  0
   -0.7860   20.3500  -31.6360 C   0  0  0  0  0  0  0  0  0  0  0  0
   -1.7490   19.5900  -32.3200 C   0  0  0  0  0  0  0  0  0  0  0  0
   -3.1120   19.9870  -32.3330 C   0  0  0  0  0  0  0  0  0  0  0  0
   -4.1250   19.1680  -33.0450 C   0  0  0  0  0  0  0  0  0  0  0  0
   -3.7320   18.2570  -34.0410 C   0  0  0  0  0  0  0  0  0  0  0  0
   -4.6850   17.4900  -34.7130 C   0  0  0  0  0  0  0  0  0  0  0  0
   -6.0390   17.6220  -34.4010 C   0  0  0  0  0  0  0  0  0  0  0  0
   -6.4560   18.5230  -33.4160 C   0  0  0  0  0  0  0  0  0  0  0  0
   -7.8330   18.6230  -33.1590 O   0  0  0  0  0  0  0  0  0  0  0  0
   -8.4350   18.7550  -31.8710 C   0  0  0  0  0  0  0  0  0  0  0  0
   -9.3070   20.0260  -31.7410 C   0  0  0  0  0  0  0  0  0  0  0  0
   -8.6970   21.2490  -31.1480 N   0  0  0  0  0  0  0  0  0  0  0  0
   -8.6950   22.4870  -31.9460 C   0  0  0  0  0  0  0  0  0  0  0  0
   -7.1730   22.5220  -32.0140 C   0  0  0  0  0  0  0  0  0  0  0  0
   -6.5980   23.6190  -31.3420 O   0  0  0  0  0  0  0  0  0  0  0  0
   -7.2270   21.2480  -31.1810 C   0  0  0  0  0  0  0  0  0  0  0  0
   -5.4930   19.2950  -32.7370 C   0  0  0  0  0  0  0  0  0  0  0  0
   -3.4990   21.1680  -31.6540 C   0  0  0  0  0  0  0  0  0  0  0  0
   -2.5140   21.9140  -30.9980 C   0  0  0  0  0  0  0  0  0  0  0  0
   -5.9110   25.5896  -28.4416 H   0  0  0  0  0  0  0  0  0  0  0  0
   -7.0491   26.1541  -29.7115 H   0  0  0  0  0  0  0  0  0  0  0  0
   -6.4759   24.4517  -29.7115 H   0  0  0  0  0  0  0  0  0  0  0  0
   -5.3830   26.4729  -31.2369 H   0  0  0  0  0  0  0  0  0  0  0  0
   -4.3141   26.4990  -29.7929 H   0  0  0  0  0  0  0  0  0  0  0  0
   -2.8980   25.6260  -29.3430 H   0  0  0  0  0  0  0  0  0  0  0  0
    0.5854   22.3738  -29.9990 H   0  0  0  0  0  0  0  0  0  0  0  0
    0.2699   20.0420  -31.6182 H   0  0  0  0  0  0  0  0  0  0  0  0
   -1.4436   18.6767  -32.8517 H   0  0  0  0  0  0  0  0  0  0  0  0
   -2.6667   18.1480  -34.2923 H   0  0  0  0  0  0  0  0  0  0  0  0
   -4.3681   16.7795  -35.4907 H   0  0  0  0  0  0  0  0  0  0  0  0
   -6.7838   17.0127  -34.9339 H   0  0  0  0  0  0  0  0  0  0  0  0
   -9.0685   17.8746  -31.6879 H   0  0  0  0  0  0  0  0  0  0  0  0
   -7.6226   18.8355  -31.1338 H   0  0  0  0  0  0  0  0  0  0  0  0
   -9.6477   20.2910  -32.7528 H   0  0  0  0  0  0  0  0  0  0  0  0
  -10.0918   19.7420  -31.0244 H   0  0  0  0  0  0  0  0  0  0  0  0
   -9.1758   22.3762  -32.9291 H   0  0  0  0  0  0  0  0  0  0  0  0
   -9.2326   23.3680  -31.5655 H   0  0  0  0  0  0  0  0  0  0  0  0
   -6.6180   22.5937  -32.9610 H   0  0  0  0  0  0  0  0  0  0  0  0
   -5.8960   23.2850  -30.7230 H   0  0  0  0  0  0  0  0  0  0  0  0
   -6.8006   20.3720  -31.6916 H   0  0  0  0  0  0  0  0  0  0  0  0
   -6.6732   21.2089  -30.2314 H   0  0  0  0  0  0  0  0  0  0  0  0
   -5.8128   20.0037  -31.9589 H   0  0  0  0  0  0  0  0  0  0  0  0
   -4.5503   21.4914  -31.6427 H   0  0  0  0  0  0  0  0  0  0  0  0
  1  2  1  0
  2  3  1  0
  3  4  1  0
  4  5  2  0
  4  6  1  0
  6  7  1  0
  7  8  1  0
  8  9  1  0
  8 10  2  0
  7 11  2  0
 11 12  1  0
 12 13  2  0
 13 14  1  0
 14 15  2  0
 15 16  1  0
 16 17  2  0
 17 18  1  0
 18 19  2  0
 19 20  1  0
 20 21  1  0
 21 22  1  0
 22 23  1  0
 23 24  1  0
 24 25  1  0
 25 26  1  0
 26 27  1  0
 26 28  1  0
 20 29  2  0
 15 30  1  0
 30 31  2  0
 31  6  1  0
 31 12  1  0
 29 16  1  0
 28 24  1  0
  1 32  1  0
  1 33  1  0
  1 34  1  0
  2 35  1  0
  2 36  1  0
  9 37  1  0
 11 38  1  0
 13 39  1  0
 14 40  1  0
 17 41  1  0
 18 42  1  0
 19 43  1  0
 22 44  1  0
 22 45  1  0
 23 46  1  0
 23 47  1  0
 25 48  1  0
 25 49  1  0
 26 50  1  0
 27 51  1  0
 28 52  1  0
 28 53  1  0
 29 54  1  0
 30 55  1  0
M  CHG  1   9  -1
M  END
>  <UniqueID>  (19) 
19

>  <SMILES>  (19) 
CCOC(=O)n1c(C([NH-])=O)cc2ccc(-c3cccc(OCCN4CC(O)C4)c3)cc21

>  <Energy>  (19) 
178.51827804802065

>  <Genealogy>  (19) 
CCOC(=O)n1c(C([NH-])=O)cc2ccc(-c3cccc(OCCN4CC(O)C4)c3)cc21 (protonated)
CCOC(=O)n1c(C([NH-])=O)cc2ccc(-c3cccc(OCCN4CC(O)C4)c3)cc21 (3D coordinates assigned)
CCOC(=O)n1c(C([NH-])=O)cc2ccc(-c3cccc(OCCN4CC(O)C4)c3)cc21 (nonaromatic ring conformer: 178.51827804802065 kcal/mol)

>  <smiles>  (19) 
CCOC(=O)n1c(C(N)=O)cc2ccc(-c3cccc(OCCN4CC(O)C4)c3)cc21

>  <score_type>  (19) 
oracle

>  <origin>  (19) 
adg

>  <m_score__min__energy>  (19) 
-12.26

>  <m_primary>  (19) 
energy

$$$$
19:0
     RDKit          3D

 46 48  0  0  0  0  0  0  0  0999 V2000
   -2.8170   19.1680  -33.7120 C   0  0  0  0  0  0  0  0  0  0  0  0
   -4.0130   18.3500  -33.4610 N   0  0  0  0  0  0  0  0  0  0  0  0
   -5.0340   18.5970  -34.5010 C   0  0  0  0  0  0  0  0  0  0  0  0
   -6.1160   17.4940  -34.5280 C   0  0  0  0  0  0  0  0  0  0  0  0
   -6.1760   16.7420  -33.2600 N   0  0  0  0  0  0  0  0  0  0  0  0
   -6.6940   17.5620  -32.1390 C   0  0  0  0  0  0  0  0  0  0  0  0
   -7.8380   18.4640  -32.6150 C   0  0  0  0  0  0  0  0  0  0  0  0
   -7.7350   19.8390  -32.0080 C   0  0  0  0  0  0  0  0  0  0  0  0
   -8.8550   20.4160  -31.3590 C   0  0  0  0  0  0  0  0  0  0  0  0
   -8.7810   21.7110  -30.8190 C   0  0  0  0  0  0  0  0  0  0  0  0
   -7.5830   22.4070  -30.9560 C   0  0  0  0  0  0  0  0  0  0  0  0
   -7.2320   23.6650  -30.5190 C   0  0  0  0  0  0  0  0  0  0  0  0
   -5.9150   23.8460  -30.9350 C   0  0  0  0  0  0  0  0  0  0  0  0
   -5.1710   25.1100  -30.7540 C   0  0  0  0  0  0  0  0  0  0  0  0
   -3.7540   25.1110  -30.5980 N   0  0  0  0  0  0  0  0  0  0  0  0
   -5.7880   26.2080  -30.7810 O   0  0  0  0  0  0  0  0  0  0  0  0
   -5.4650   22.7410  -31.5940 N   0  0  0  0  0  0  0  0  0  0  0  0
   -4.1480   22.4940  -32.1090 C   0  0  0  0  0  0  0  0  0  0  0  0
   -2.9970   22.7400  -31.3000 N   0  0  0  0  0  0  0  0  0  0  0  0
   -4.0040   22.0240  -33.2690 O   0  0  0  0  0  0  0  0  0  0  0  0
   -6.4990   21.8710  -31.6010 C   0  0  0  0  0  0  0  0  0  0  0  0
   -6.5380   20.5790  -32.1360 C   0  0  0  0  0  0  0  0  0  0  0  0
   -4.8790   16.0930  -32.9480 C   0  0  0  0  0  0  0  0  0  0  0  0
   -3.6610   16.9220  -33.4040 C   0  0  0  0  0  0  0  0  0  0  0  0
   -2.3727   19.4719  -32.7527 H   0  0  0  0  0  0  0  0  0  0  0  0
   -2.0848   18.5807  -34.2855 H   0  0  0  0  0  0  0  0  0  0  0  0
   -3.0989   20.0633  -34.2855 H   0  0  0  0  0  0  0  0  0  0  0  0
   -5.5183   19.5639  -34.2998 H   0  0  0  0  0  0  0  0  0  0  0  0
   -4.5284   18.5991  -35.4779 H   0  0  0  0  0  0  0  0  0  0  0  0
   -7.0948   17.9621  -34.7091 H   0  0  0  0  0  0  0  0  0  0  0  0
   -5.8570   16.7859  -35.3290 H   0  0  0  0  0  0  0  0  0  0  0  0
   -7.0644   16.8966  -31.3452 H   0  0  0  0  0  0  0  0  0  0  0  0
   -5.8795   18.1942  -31.7558 H   0  0  0  0  0  0  0  0  0  0  0  0
   -7.7944   18.5511  -33.7107 H   0  0  0  0  0  0  0  0  0  0  0  0
   -8.7910   18.0141  -32.2998 H   0  0  0  0  0  0  0  0  0  0  0  0
   -9.7913   19.8445  -31.2772 H   0  0  0  0  0  0  0  0  0  0  0  0
   -9.6427   22.1609  -30.3041 H   0  0  0  0  0  0  0  0  0  0  0  0
   -7.8585   24.3758  -29.9602 H   0  0  0  0  0  0  0  0  0  0  0  0
   -3.1430   25.6720  -31.2330 H   0  0  0  0  0  0  0  0  0  0  0  0
   -2.0390   22.5710  -31.6810 H   0  0  0  0  0  0  0  0  0  0  0  0
   -3.1020   23.0560  -30.3110 H   0  0  0  0  0  0  0  0  0  0  0  0
   -5.6606   20.1507  -32.6426 H   0  0  0  0  0  0  0  0  0  0  0  0
   -4.8143   15.9457  -31.8598 H   0  0  0  0  0  0  0  0  0  0  0  0
   -4.8498   15.1396  -33.4958 H   0  0  0  0  0  0  0  0  0  0  0  0
   -2.8360   16.7790  -32.6906 H   0  0  0  0  0  0  0  0  0  0  0  0
   -3.3526   16.5873  -34.4054 H   0  0  0  0  0  0  0  0  0  0  0  0
  1  2  1  0
  2  3  1  0
  3  4  1  0
  4  5  1  0
  5  6  1  0
  6  7  1  0
  7  8  1  0
  8  9  2  0
  9 10  1  0
 10 11  2  0
 11 12  1  0
 12 13  2  0
 13 14  1  0
 14 15  1  0
 14 16  2  0
 13 17  1  0
 17 18  1  0
 18 19  1  0
 18 20  2  0
 17 21  1  0
 21 22  2  0
  5 23  1  0
 23 24  1  0
 24  2  1  0
 22  8  1  0
 21 11  1  0
  1 25  1  0
  1 26  1  0
  1 27  1  0
  3 28  1  0
  3 29  1  0
  4 30  1  0
  4 31  1  0
  6 32  1  0
  6 33  1  0
  7 34  1  0
  7 35  1  0
  9 36  1  0
 10 37  1  0
 12 38  1  0
 15 39  1  0
 19 40  1  0
 19 41  1  0
 22 42  1  0
 23 43  1  0
 23 44  1  0
 24 45  1  0
 24 46  1  0
M  CHG  1  15  -1
M  END
>  <UniqueID>  (20) 
20

>  <SMILES>  (20) 
CN1CCN(CCc2ccc3cc(C([NH-])=O)n(C(N)=O)c3c2)CC1

>  <Energy>  (20) 
93.53496565208722

>  <Genealogy>  (20) 
CN1CCN(CCc2ccc3cc(C([NH-])=O)n(C(N)=O)c3c2)CC1 (protonated)
CN1CCN(CCc2ccc3cc(C([NH-])=O)n(C(N)=O)c3c2)CC1 (3D coordinates assigned)
CN1CCN(CCc2ccc3cc(C([NH-])=O)n(C(N)=O)c3c2)CC1 (nonaromatic ring conformer: 93.53496565208722 kcal/mol)

>  <smiles>  (20) 
CN1CCN(CCc2ccc3cc(C(N)=O)n(C(N)=O)c3c2)CC1

>  <score_type>  (20) 
oracle

>  <origin>  (20) 
adg

>  <m_score__min__energy>  (20) 
-11.35

>  <m_primary>  (20) 
energy

$$$$
20:0
     RDKit          3D

 44 45  0  0  0  0  0  0  0  0999 V2000
   -3.1160   25.2710  -31.2190 H   0  0  0  0  0  0  0  0  0  0  0  0
   -3.7160   25.3000  -30.3650 N   0  0  0  0  0  0  0  0  0  0  0  0
   -5.1380   25.3240  -30.4660 C   0  0  0  0  0  0  0  0  0  0  0  0
   -5.7520   26.4040  -30.2630 O   0  0  0  0  0  0  0  0  0  0  0  0
   -5.8750   24.0780  -30.7650 C   0  0  0  0  0  0  0  0  0  0  0  0
   -7.2620   24.0150  -30.8830 C   0  0  0  0  0  0  0  0  0  0  0  0
   -7.9824   24.8316  -30.7271 H   0  0  0  0  0  0  0  0  0  0  0  0
   -7.5390   22.7140  -31.2360 C   0  0  0  0  0  0  0  0  0  0  0  0
   -8.7610   22.0930  -31.4780 C   0  0  0  0  0  0  0  0  0  0  0  0
   -9.7051   22.6540  -31.4152 H   0  0  0  0  0  0  0  0  0  0  0  0
   -8.7500   20.7270  -31.8050 C   0  0  0  0  0  0  0  0  0  0  0  0
   -9.6977   20.2105  -32.0175 H   0  0  0  0  0  0  0  0  0  0  0  0
   -7.5300   20.0070  -31.8640 C   0  0  0  0  0  0  0  0  0  0  0  0
   -7.5290   18.5500  -32.2330 C   0  0  0  0  0  0  0  0  0  0  0  0
   -7.1372   17.9612  -31.3905 H   0  0  0  0  0  0  0  0  0  0  0  0
   -8.5577   18.2350  -32.4621 H   0  0  0  0  0  0  0  0  0  0  0  0
   -6.6680   18.3270  -33.4360 C   0  0  0  0  0  0  0  0  0  0  0  0
   -6.3170   17.1610  -33.7580 O   0  0  0  0  0  0  0  0  0  0  0  0
   -6.2920   19.4030  -34.2300 O   0  0  0  0  0  0  0  0  0  0  0  0
   -6.3090   20.6740  -31.6210 C   0  0  0  0  0  0  0  0  0  0  0  0
   -5.3519   20.1339  -31.6686 H   0  0  0  0  0  0  0  0  0  0  0  0
   -6.3480   22.0400  -31.3180 C   0  0  0  0  0  0  0  0  0  0  0  0
   -5.3170   22.8640  -31.0310 N   0  0  0  0  0  0  0  0  0  0  0  0
   -3.9320   22.4970  -30.9570 C   0  0  0  0  0  0  0  0  0  0  0  0
   -3.0790   23.1140  -31.6530 O   0  0  0  0  0  0  0  0  0  0  0  0
   -3.5380   21.4360  -30.1340 O   0  0  0  0  0  0  0  0  0  0  0  0
   -2.2030   21.2660  -29.6620 C   0  0  0  0  0  0  0  0  0  0  0  0
   -1.4986   21.5556  -30.4557 H   0  0  0  0  0  0  0  0  0  0  0  0
   -2.0534   20.2109  -29.3892 H   0  0  0  0  0  0  0  0  0  0  0  0
   -1.9600   22.1250  -28.4440 C   0  0  0  0  0  0  0  0  0  0  0  0
   -1.8870   23.4610  -28.5960 C   0  0  0  0  0  0  0  0  0  0  0  0
   -1.9984   23.8748  -29.6091 H   0  0  0  0  0  0  0  0  0  0  0  0
   -1.6650   24.4060  -27.4750 C   0  0  0  0  0  0  0  0  0  0  0  0
   -0.6328   24.7097  -27.2460 H   0  0  0  0  0  0  0  0  0  0  0  0
   -2.6550   24.9090  -26.7270 C   0  0  0  0  0  0  0  0  0  0  0  0
   -2.3909   25.6140  -25.9250 H   0  0  0  0  0  0  0  0  0  0  0  0
   -4.1020   24.5680  -26.9180 C   0  0  0  0  0  0  0  0  0  0  0  0
   -4.5846   24.4543  -25.9361 H   0  0  0  0  0  0  0  0  0  0  0  0
   -4.5977   25.3739  -27.4790 H   0  0  0  0  0  0  0  0  0  0  0  0
   -4.1857   23.6255  -27.4790 H   0  0  0  0  0  0  0  0  0  0  0  0
   -1.8180   21.4680  -27.0940 C   0  0  0  0  0  0  0  0  0  0  0  0
   -1.9796   22.2157  -26.3035 H   0  0  0  0  0  0  0  0  0  0  0  0
   -2.5633   20.6648  -26.9969 H   0  0  0  0  0  0  0  0  0  0  0  0
   -0.8075   21.0443  -26.9969 H   0  0  0  0  0  0  0  0  0  0  0  0
  1  2  1  0
  2  3  1  0
  3  4  2  0
  3  5  1  0
  5  6  2  0
  6  7  1  0
  6  8  1  0
  8  9  2  0
  9 10  1  0
  9 11  1  0
 11 12  1  0
 11 13  2  0
 13 14  1  0
 14 15  1  0
 14 16  1  0
 14 17  1  0
 17 18  2  0
 17 19  1  0
 13 20  1  0
 20 21  1  0
 20 22  2  0
 22 23  1  0
 23 24  1  0
 24 25  2  0
 24 26  1  0
 26 27  1  0
 27 28  1  0
 27 29  1  0
 27 30  1  0
 30 31  2  0
 31 32  1  0
 31 33  1  0
 33 34  1  0
 33 35  2  0
 35 36  1  0
 35 37  1  0
 37 38  1  0
 37 39  1  0
 37 40  1  0
 30 41  1  0
 41 42  1  0
 41 43  1  0
 41 44  1  0
 23  5  1  0
 22  8  1  0
M  CHG  2   2  -1  19  -1
M  END
>  <UniqueID>  (21) 
21

>  <SMILES>  (21) 
C/C=C\C=C(/C)COC(=O)n1c(C([NH-])=O)cc2ccc(CC(=O)[O-])cc21

>  <Energy>  (21) 
74.35521740579745

>  <Genealogy>  (21) 
C/C=C\C=C(/C)COC(=O)n1c(C([NH-])=O)cc2ccc(CC(=O)[O-])cc21 (protonated)
C/C=C\C=C(/C)COC(=O)n1c(C([NH-])=O)cc2ccc(CC(=O)[O-])cc21 (cis-trans isomerization)
C/C=C\C=C(/C)COC(=O)n1c(C([NH-])=O)cc2ccc(CC(=O)[O-])cc21 (3D coordinates assigned)
C/C=C\C=C(/C)COC(=O)n1c(C([NH-])=O)cc2ccc(CC(=O)[O-])cc21 (optimized conformer: 74.35521740579745 kcal/mol)

>  <smiles>  (21) 
C/C=C\C=C(/C)COC(=O)n1c(C(N)=O)cc2ccc(CC(=O)O)cc21

>  <score_type>  (21) 
oracle

>  <origin>  (21) 
adg

>  <m_score__min__energy>  (21) 
-11.029999999999999

>  <m_primary>  (21) 
energy

$$$$
21:0
     RDKit          3D

 32 33  0  0  0  0  0  0  0  0999 V2000
   -1.2020   21.2460  -31.8180 C   0  0  0  0  0  0  0  0  0  0  0  0
   -1.5560   22.3630  -30.8420 C   0  0  0  0  0  0  0  0  0  0  0  0
   -2.9180   22.8340  -31.0760 N   0  0  0  0  0  0  0  0  0  0  0  0
   -4.0570   22.2670  -30.4160 C   0  0  0  0  0  0  0  0  0  0  0  0
   -3.9010   21.4130  -29.5010 O   0  0  0  0  0  0  0  0  0  0  0  0
   -5.3820   22.6650  -30.7990 N   0  0  0  0  0  0  0  0  0  0  0  0
   -5.9420   23.9050  -30.7140 C   0  0  0  0  0  0  0  0  0  0  0  0
   -5.2440   25.1420  -30.3030 C   0  0  0  0  0  0  0  0  0  0  0  0
   -3.8490   25.2870  -30.5580 N   0  0  0  0  0  0  0  0  0  0  0  0
   -5.8610   26.0620  -29.7060 O   0  0  0  0  0  0  0  0  0  0  0  0
   -7.2700   23.8700  -31.1360 C   0  0  0  0  0  0  0  0  0  0  0  0
   -7.5080   22.5590  -31.4840 C   0  0  0  0  0  0  0  0  0  0  0  0
   -8.6640   21.9560  -31.9670 C   0  0  0  0  0  0  0  0  0  0  0  0
   -8.6310   20.5750  -32.2200 C   0  0  0  0  0  0  0  0  0  0  0  0
   -7.4590   19.8170  -31.9620 C   0  0  0  0  0  0  0  0  0  0  0  0
   -7.4240   18.3420  -32.2710 C   0  0  0  0  0  0  0  0  0  0  0  0
   -6.9740   18.1600  -33.5650 F   0  0  0  0  0  0  0  0  0  0  0  0
   -6.5760   17.6800  -31.4010 F   0  0  0  0  0  0  0  0  0  0  0  0
   -8.6870   17.7870  -32.1500 F   0  0  0  0  0  0  0  0  0  0  0  0
   -6.2960   20.4720  -31.4920 C   0  0  0  0  0  0  0  0  0  0  0  0
   -6.3540   21.8520  -31.2690 C   0  0  0  0  0  0  0  0  0  0  0  0
   -0.9164   20.3447  -31.2558 H   0  0  0  0  0  0  0  0  0  0  0  0
   -2.0733   21.0225  -32.4511 H   0  0  0  0  0  0  0  0  0  0  0  0
   -0.3610   21.5651  -32.4511 H   0  0  0  0  0  0  0  0  0  0  0  0
   -1.4762   21.9832  -29.8127 H   0  0  0  0  0  0  0  0  0  0  0  0
   -0.8592   23.2008  -30.9922 H   0  0  0  0  0  0  0  0  0  0  0  0
   -3.0620   23.6490  -31.7150 H   0  0  0  0  0  0  0  0  0  0  0  0
   -3.4970   26.0150  -31.2180 H   0  0  0  0  0  0  0  0  0  0  0  0
   -7.9776   24.7110  -31.1814 H   0  0  0  0  0  0  0  0  0  0  0  0
   -9.5770   22.5430  -32.1456 H   0  0  0  0  0  0  0  0  0  0  0  0
   -9.5240   20.0748  -32.6229 H   0  0  0  0  0  0  0  0  0  0  0  0
   -5.3689   19.9098  -31.3065 H   0  0  0  0  0  0  0  0  0  0  0  0
  1  2  1  0
  2  3  1  0
  3  4  1  0
  4  5  2  0
  4  6  1  0
  6  7  1  0
  7  8  1  0
  8  9  1  0
  8 10  2  0
  7 11  2  0
 11 12  1  0
 12 13  2  0
 13 14  1  0
 14 15  2  0
 15 16  1  0
 16 17  1  0
 16 18  1  0
 16 19  1  0
 15 20  1  0
 20 21  2  0
 21  6  1  0
 21 12  1  0
  1 22  1  0
  1 23  1  0
  1 24  1  0
  2 25  1  0
  2 26  1  0
  3 27  1  0
  9 28  1  0
 11 29  1  0
 13 30  1  0
 14 31  1  0
 20 32  1  0
M  CHG  1   9  -1
M  END
>  <UniqueID>  (22) 
22

>  <SMILES>  (22) 
CCNC(=O)n1c(C([NH-])=O)cc2ccc(C(F)(F)F)cc21

>  <Energy>  (22) 
66.59956919697277

>  <Genealogy>  (22) 
CCNC(=O)n1c(C([NH-])=O)cc2ccc(C(F)(F)F)cc21 (protonated)
CCNC(=O)n1c(C([NH-])=O)cc2ccc(C(F)(F)F)cc21 (3D coordinates assigned)
CCNC(=O)n1c(C([NH-])=O)cc2ccc(C(F)(F)F)cc21 (optimized conformer: 66.59956919697277 kcal/mol)

>  <smiles>  (22) 
CCNC(=O)n1c(C(N)=O)cc2ccc(C(F)(F)F)cc21

>  <score_type>  (22) 
oracle

>  <origin>  (22) 
adg

>  <m_score__min__energy>  (22) 
-9.4299999999999997

>  <m_primary>  (22) 
energy

$$$$
22:0
     RDKit          3D

 42 44  0  0  0  0  0  0  0  0999 V2000
   -3.4780   21.1360  -30.3300 C   0  0  0  0  0  0  0  0  0  0  0  0
   -4.1490   21.9500  -31.3890 C   0  0  0  0  0  0  0  0  0  0  0  0
   -3.4950   22.2880  -32.4110 O   0  0  0  0  0  0  0  0  0  0  0  0
   -5.5230   22.3520  -31.2540 N   0  0  0  0  0  0  0  0  0  0  0  0
   -5.9900   23.5420  -30.7790 C   0  0  0  0  0  0  0  0  0  0  0  0
   -5.1540   24.6160  -30.1920 C   0  0  0  0  0  0  0  0  0  0  0  0
   -5.2350   24.9290  -28.8000 N   0  0  0  0  0  0  0  0  0  0  0  0
   -4.3450   25.2540  -30.9160 O   0  0  0  0  0  0  0  0  0  0  0  0
   -7.3810   23.5840  -30.8560 C   0  0  0  0  0  0  0  0  0  0  0  0
   -7.7520   22.3760  -31.4030 C   0  0  0  0  0  0  0  0  0  0  0  0
   -9.0140   21.8870  -31.7150 C   0  0  0  0  0  0  0  0  0  0  0  0
   -9.1050   20.6150  -32.3040 C   0  0  0  0  0  0  0  0  0  0  0  0
   -7.9320   19.8560  -32.5850 C   0  0  0  0  0  0  0  0  0  0  0  0
   -7.9770   18.5460  -33.1960 N   0  0  0  0  0  0  0  0  0  0  0  0
   -6.8520   17.6250  -33.4210 C   0  0  0  0  0  0  0  0  0  0  0  0
   -6.1930   17.1860  -32.0980 C   0  0  0  0  0  0  0  0  0  0  0  0
   -5.0110   16.2200  -32.3410 C   0  0  0  0  0  0  0  0  0  0  0  0
   -4.4090   16.3490  -33.6820 N   0  0  0  0  0  0  0  0  0  0  0  0
   -4.4110   17.7390  -34.1500 C   0  0  0  0  0  0  0  0  0  0  0  0
   -5.8460   18.1810  -34.4570 C   0  0  0  0  0  0  0  0  0  0  0  0
   -6.6710   20.3940  -32.2430 C   0  0  0  0  0  0  0  0  0  0  0  0
   -6.6140   21.6530  -31.6380 C   0  0  0  0  0  0  0  0  0  0  0  0
   -3.7808   21.5033  -29.3383 H   0  0  0  0  0  0  0  0  0  0  0  0
   -3.7728   20.0816  -30.4362 H   0  0  0  0  0  0  0  0  0  0  0  0
   -2.3867   21.2241  -30.4362 H   0  0  0  0  0  0  0  0  0  0  0  0
   -5.9370   24.4730  -28.1780 H   0  0  0  0  0  0  0  0  0  0  0  0
   -4.6130   25.6630  -28.3930 H   0  0  0  0  0  0  0  0  0  0  0  0
   -8.0418   24.4069  -30.5458 H   0  0  0  0  0  0  0  0  0  0  0  0
   -9.9172   22.4794  -31.5066 H   0  0  0  0  0  0  0  0  0  0  0  0
  -10.0932   20.1999  -32.5512 H   0  0  0  0  0  0  0  0  0  0  0  0
   -8.9210   18.1720  -33.4470 H   0  0  0  0  0  0  0  0  0  0  0  0
   -7.2618   16.7074  -33.8683 H   0  0  0  0  0  0  0  0  0  0  0  0
   -5.8222   18.0777  -31.5714 H   0  0  0  0  0  0  0  0  0  0  0  0
   -6.9486   16.6590  -31.4969 H   0  0  0  0  0  0  0  0  0  0  0  0
   -4.2341   16.4252  -31.5898 H   0  0  0  0  0  0  0  0  0  0  0  0
   -5.4087   15.1974  -32.2629 H   0  0  0  0  0  0  0  0  0  0  0  0
   -3.4160   16.0240  -33.6270 H   0  0  0  0  0  0  0  0  0  0  0  0
   -3.9881   18.3880  -33.3690 H   0  0  0  0  0  0  0  0  0  0  0  0
   -3.8038   17.8155  -35.0641 H   0  0  0  0  0  0  0  0  0  0  0  0
   -5.8909   19.2800  -34.4428 H   0  0  0  0  0  0  0  0  0  0  0  0
   -6.1211   17.7871  -35.4465 H   0  0  0  0  0  0  0  0  0  0  0  0
   -5.7488   19.8311  -32.4495 H   0  0  0  0  0  0  0  0  0  0  0  0
  1  2  1  0
  2  3  2  0
  2  4  1  0
  4  5  1  0
  5  6  1  0
  6  7  1  0
  6  8  2  0
  5  9  2  0
  9 10  1  0
 10 11  2  0
 11 12  1  0
 12 13  2  0
 13 14  1  0
 14 15  1  0
 15 16  1  0
 16 17  1  0
 17 18  1  0
 18 19  1  0
 19 20  1  0
 13 21  1  0
 21 22  2  0
 22  4  1  0
 22 10  1  0
 20 15  1  0
  1 23  1  0
  1 24  1  0
  1 25  1  0
  7 26  1  0
  7 27  1  0
  9 28  1  0
 11 29  1  0
 12 30  1  0
 14 31  1  0
 15 32  1  0
 16 33  1  0
 16 34  1  0
 17 35  1  0
 17 36  1  0
 18 37  1  0
 19 38  1  0
 19 39  1  0
 20 40  1  0
 20 41  1  0
 21 42  1  0
M  END
>  <UniqueID>  (23) 
23

>  <SMILES>  (23) 
CC(=O)n1c(C(N)=O)cc2ccc(NC3CCNCC3)cc21

>  <Energy>  (23) 
88.96244542532818

>  <Genealogy>  (23) 
CC(=O)n1c(C(N)=O)cc2ccc(NC3CCNCC3)cc21 (3D coordinates assigned)
CC(=O)n1c(C(N)=O)cc2ccc(NC3CCNCC3)cc21 (nonaromatic ring conformer: 88.96244542532818 kcal/mol)

>  <smiles>  (23) 
CC(=O)n1c(C(N)=O)cc2ccc(NC3CCNCC3)cc21

>  <score_type>  (23) 
oracle

>  <origin>  (23) 
adg

>  <m_score__min__energy>  (23) 
-9.3000000000000007

>  <m_primary>  (23) 
energy

$$$$
23:0
     RDKit          3D

 51 53  0  0  0  0  0  0  0  0999 V2000
   -6.2290   24.4940  -30.3130 C   0  0  0  0  0  0  0  0  0  0  0  0
   -5.3200   25.6450  -30.7280 C   0  0  0  0  0  0  0  0  0  0  0  0
   -3.9540   25.3380  -30.4530 O   0  0  0  0  0  0  0  0  0  0  0  0
   -3.5470   24.4580  -29.4450 C   0  0  0  0  0  0  0  0  0  0  0  0
   -4.0800   24.5100  -28.3040 O   0  0  0  0  0  0  0  0  0  0  0  0
   -2.5300   23.4810  -29.7250 N   0  0  0  0  0  0  0  0  0  0  0  0
   -1.2000   23.5730  -29.4380 C   0  0  0  0  0  0  0  0  0  0  0  0
   -0.5640   24.6120  -28.6030 C   0  0  0  0  0  0  0  0  0  0  0  0
   -1.3090   25.7250  -28.1060 N   0  0  0  0  0  0  0  0  0  0  0  0
    0.6490   24.4920  -28.2810 O   0  0  0  0  0  0  0  0  0  0  0  0
   -0.4990   22.5120  -30.0000 C   0  0  0  0  0  0  0  0  0  0  0  0
   -1.4490   21.7450  -30.6300 C   0  0  0  0  0  0  0  0  0  0  0  0
   -1.3030   20.5710  -31.3590 C   0  0  0  0  0  0  0  0  0  0  0  0
   -2.4530   20.0030  -31.9320 C   0  0  0  0  0  0  0  0  0  0  0  0
   -3.7290   20.6090  -31.7700 C   0  0  0  0  0  0  0  0  0  0  0  0
   -4.9110   20.0040  -32.3530 N   0  0  0  0  0  0  0  0  0  0  0  0
   -5.0330   19.6790  -33.7680 C   0  0  0  0  0  0  0  0  0  0  0  0
   -6.4500   19.1590  -33.9800 C   0  0  0  0  0  0  0  0  0  0  0  0
   -7.1360   19.1630  -32.6070 C   0  0  2  0  0  0  0  0  0  0  0  0
   -8.4500   19.9250  -32.6040 C   0  0  0  0  0  0  0  0  0  0  0  0
   -9.4710   19.3630  -33.0810 O   0  0  0  0  0  0  0  0  0  0  0  0
   -8.5760   21.2490  -32.0490 N   0  0  0  0  0  0  0  0  0  0  0  0
   -7.6080   22.3050  -32.3680 C   0  0  0  0  0  0  0  0  0  0  0  0
   -9.7450   21.5460  -31.2200 C   0  0  0  0  0  0  0  0  0  0  0  0
   -6.1210   19.7130  -31.6000 C   0  0  0  0  0  0  0  0  0  0  0  0
   -3.8260   21.8130  -31.0250 C   0  0  0  0  0  0  0  0  0  0  0  0
   -2.6680   22.3470  -30.4520 C   0  0  0  0  0  0  0  0  0  0  0  0
   -6.2727   24.4387  -29.2153 H   0  0  0  0  0  0  0  0  0  0  0  0
   -7.2400   24.6630  -30.7121 H   0  0  0  0  0  0  0  0  0  0  0  0
   -5.8303   23.5497  -30.7121 H   0  0  0  0  0  0  0  0  0  0  0  0
   -5.4384   25.8270  -31.8064 H   0  0  0  0  0  0  0  0  0  0  0  0
   -5.6019   26.5405  -30.1547 H   0  0  0  0  0  0  0  0  0  0  0  0
   -2.3450   25.7790  -28.2290 H   0  0  0  0  0  0  0  0  0  0  0  0
   -0.8370   26.4560  -27.5300 H   0  0  0  0  0  0  0  0  0  0  0  0
    0.5841   22.3264  -29.9508 H   0  0  0  0  0  0  0  0  0  0  0  0
   -0.3165   20.1005  -31.4836 H   0  0  0  0  0  0  0  0  0  0  0  0
   -2.3649   19.0746  -32.5153 H   0  0  0  0  0  0  0  0  0  0  0  0
   -4.8642   20.5780  -34.3789 H   0  0  0  0  0  0  0  0  0  0  0  0
   -4.2879   18.9266  -34.0658 H   0  0  0  0  0  0  0  0  0  0  0  0
   -6.9934   19.8146  -34.6763 H   0  0  0  0  0  0  0  0  0  0  0  0
   -6.4379   18.1472  -34.4113 H   0  0  0  0  0  0  0  0  0  0  0  0
   -7.4274   18.1400  -32.3266 H   0  0  0  0  0  0  0  0  0  0  0  0
   -7.2138   22.7350  -31.4354 H   0  0  0  0  0  0  0  0  0  0  0  0
   -6.7802   21.8788  -32.9538 H   0  0  0  0  0  0  0  0  0  0  0  0
   -8.1044   23.0926  -32.9538 H   0  0  0  0  0  0  0  0  0  0  0  0
   -9.4685   21.4758  -30.1576 H   0  0  0  0  0  0  0  0  0  0  0  0
  -10.1014   22.5632  -31.4396 H   0  0  0  0  0  0  0  0  0  0  0  0
  -10.5437   20.8222  -31.4396 H   0  0  0  0  0  0  0  0  0  0  0  0
   -6.5079   20.6305  -31.1325 H   0  0  0  0  0  0  0  0  0  0  0  0
   -5.9253   18.9888  -30.7955 H   0  0  0  0  0  0  0  0  0  0  0  0
   -4.7956   22.3174  -30.9005 H   0  0  0  0  0  0  0  0  0  0  0  0
  1  2  1  0
  2  3  1  0
  3  4  1  0
  4  5  2  0
  4  6  1  0
  6  7  1  0
  7  8  1  0
  8  9  1  0
  8 10  2  0
  7 11  2  0
 11 12  1  0
 12 13  2  0
 13 14  1  0
 14 15  2  0
 15 16  1  0
 16 17  1  0
 17 18  1  0
 18 19  1  0
 19 20  1  0
 20 21  2  0
 20 22  1  0
 22 23  1  0
 22 24  1  0
 19 25  1  0
 15 26  1  0
 26 27  2  0
 27  6  1  0
 27 12  1  0
 25 16  1  0
  1 28  1  0
  1 29  1  0
  1 30  1  0
  2 31  1  0
  2 32  1  0
  9 33  1  0
  9 34  1  0
 11 35  1  0
 13 36  1  0
 14 37  1  0
 17 38  1  0
 17 39  1  0
 18 40  1  0
 18 41  1  0
 19 42  1  1
 23 43  1  0
 23 44  1  0
 23 45  1  0
 24 46  1  0
 24 47  1  0
 24 48  1  0
 25 49  1  0
 25 50  1  0
 26 51  1  0
M  END
>  <UniqueID>  (24) 
24

>  <SMILES>  (24) 
CCOC(=O)n1c(C(N)=O)cc2ccc(N3CC[C@H](C(=O)N(C)C)C3)cc21

>  <Energy>  (24) 
91.26928855453373

>  <Genealogy>  (24) 
CCOC(=O)n1c(C(N)=O)cc2ccc(N3CC[C@H](C(=O)N(C)C)C3)cc21 (3D coordinates assigned)
CCOC(=O)n1c(C(N)=O)cc2ccc(N3CC[C@H](C(=O)N(C)C)C3)cc21 (nonaromatic ring conformer: 91.26928855453373 kcal/mol)

>  <smiles>  (24) 
CCOC(=O)n1c(C(N)=O)cc2ccc(N3CC[C@H](C(=O)N(C)C)C3)cc21

>  <score_type>  (24) 
oracle

>  <origin>  (24) 
adg

>  <m_score__min__energy>  (24) 
-9.3200000000000003

>  <m_primary>  (24) 
energy

$$$$
24:0
     RDKit          3D

 46 49  0  0  0  0  0  0  0  0999 V2000
   -3.9260   25.6560  -30.8840 N   0  0  0  0  0  0  0  0  0  0  0  0
   -5.2290   25.1990  -30.5290 C   0  0  0  0  0  0  0  0  0  0  0  0
   -5.9500   25.9120  -29.7820 O   0  0  0  0  0  0  0  0  0  0  0  0
   -5.7010   23.8820  -31.0050 C   0  0  0  0  0  0  0  0  0  0  0  0
   -7.0450   23.5730  -31.1990 C   0  0  0  0  0  0  0  0  0  0  0  0
   -7.0550   22.3010  -31.7230 C   0  0  0  0  0  0  0  0  0  0  0  0
   -8.1250   21.4960  -32.0970 C   0  0  0  0  0  0  0  0  0  0  0  0
   -7.8440   20.2090  -32.5850 C   0  0  0  0  0  0  0  0  0  0  0  0
   -6.5060   19.7440  -32.6870 C   0  0  0  0  0  0  0  0  0  0  0  0
   -6.2220   18.3770  -33.1910 C   0  0  0  0  0  0  0  0  0  0  0  0
   -5.6870   17.3220  -32.4670 C   0  0  0  0  0  0  0  0  0  0  0  0
   -5.6110   16.2890  -33.3850 C   0  0  0  0  0  0  0  0  0  0  0  0
   -5.0750   14.9280  -33.1670 C   0  0  0  0  0  0  0  0  0  0  0  0
   -5.6010   13.8080  -33.7320 C   0  0  0  0  0  0  0  0  0  0  0  0
   -6.7730   13.8170  -34.6770 C   0  0  0  0  0  0  0  0  0  0  0  0
   -7.6680   14.8270  -34.3670 F   0  0  0  0  0  0  0  0  0  0  0  0
   -7.4110   12.5910  -34.6600 F   0  0  0  0  0  0  0  0  0  0  0  0
   -5.0120   12.5270  -33.4410 N   0  0  0  0  0  0  0  0  0  0  0  0
   -4.1070   12.3530  -32.5250 C   0  0  0  0  0  0  0  0  0  0  0  0
   -3.6870   13.4910  -31.6440 C   0  0  0  0  0  0  0  0  0  0  0  0
   -3.7710   14.8130  -32.4120 C   0  0  0  0  0  0  0  0  0  0  0  0
   -6.0450   16.7220  -34.5450 O   0  0  0  0  0  0  0  0  0  0  0  0
   -6.4260   17.9610  -34.4570 N   0  0  0  0  0  0  0  0  0  0  0  0
   -5.4460   20.5970  -32.2940 C   0  0  0  0  0  0  0  0  0  0  0  0
   -5.7550   21.8800  -31.8290 C   0  0  0  0  0  0  0  0  0  0  0  0
   -4.9110   22.8400  -31.3880 N   0  0  0  0  0  0  0  0  0  0  0  0
   -3.4820   22.7350  -31.2770 C   0  0  0  0  0  0  0  0  0  0  0  0
   -2.9080   23.0750  -30.2060 O   0  0  0  0  0  0  0  0  0  0  0  0
   -2.7330   22.2750  -32.3650 O   0  0  0  0  0  0  0  0  0  0  0  0
   -2.1750   20.9670  -32.4300 C   0  0  0  0  0  0  0  0  0  0  0  0
   -0.7950   21.0430  -32.5070 F   0  0  0  0  0  0  0  0  0  0  0  0
   -2.6540   20.3260  -33.5570 F   0  0  0  0  0  0  0  0  0  0  0  0
   -2.5390   20.2410  -31.3110 F   0  0  0  0  0  0  0  0  0  0  0  0
   -3.0720   25.2220  -30.4660 H   0  0  0  0  0  0  0  0  0  0  0  0
   -7.9141   24.2106  -30.9798 H   0  0  0  0  0  0  0  0  0  0  0  0
   -9.1610   21.8562  -32.0133 H   0  0  0  0  0  0  0  0  0  0  0  0
   -8.6715   19.5526  -32.8922 H   0  0  0  0  0  0  0  0  0  0  0  0
   -5.3913   17.3092  -31.4076 H   0  0  0  0  0  0  0  0  0  0  0  0
   -6.3870   14.0086  -35.6891 H   0  0  0  0  0  0  0  0  0  0  0  0
   -3.6454   11.3630  -32.3949 H   0  0  0  0  0  0  0  0  0  0  0  0
   -4.3510   13.5367  -30.7682 H   0  0  0  0  0  0  0  0  0  0  0  0
   -2.6483   13.3296  -31.3198 H   0  0  0  0  0  0  0  0  0  0  0  0
   -3.6952   15.6471  -31.6988 H   0  0  0  0  0  0  0  0  0  0  0  0
   -2.9455   14.8454  -33.1383 H   0  0  0  0  0  0  0  0  0  0  0  0
   -6.7900   18.5190  -35.2610 H   0  0  0  0  0  0  0  0  0  0  0  0
   -4.4012   20.2579  -32.3531 H   0  0  0  0  0  0  0  0  0  0  0  0
  1  2  1  0
  2  3  2  0
  2  4  1  0
  4  5  2  0
  5  6  1  0
  6  7  2  0
  7  8  1  0
  8  9  2  0
  9 10  1  0
 10 11  1  0
 11 12  2  0
 12 13  1  0
 13 14  2  0
 14 15  1  0
 15 16  1  0
 15 17  1  0
 14 18  1  0
 18 19  2  0
 19 20  1  0
 20 21  1  0
 12 22  1  0
 22 23  1  0
  9 24  1  0
 24 25  2  0
 25 26  1  0
 26 27  1  0
 27 28  2  0
 27 29  1  0
 29 30  1  0
 30 31  1  0
 30 32  1  0
 30 33  1  0
 26  4  1  0
 25  6  1  0
 23 10  2  0
 21 13  1  0
  1 34  1  0
  5 35  1  0
  7 36  1  0
  8 37  1  0
 11 38  1  0
 15 39  1  0
 19 40  1  0
 20 41  1  0
 20 42  1  0
 21 43  1  0
 21 44  1  0
 23 45  1  0
 24 46  1  0
M  CHG  2   1  -1  23   1
M  END
>  <UniqueID>  (25) 
25

>  <SMILES>  (25) 
[NH-]C(=O)c1cc2ccc(-c3cc(C4=C(C(F)F)N=CCC4)o[nH+]3)cc2n1C(=O)OC(F)(F)F

>  <Energy>  (25) 
127.60632455009646

>  <Genealogy>  (25) 
[NH-]C(=O)c1cc2ccc(-c3cc(C4=C(C(F)F)N=CCC4)o[nH+]3)cc2n1C(=O)OC(F)(F)F (protonated)
[NH-]C(=O)c1cc2ccc(-c3cc(C4=C(C(F)F)N=CCC4)o[nH+]3)cc2n1C(=O)OC(F)(F)F (3D coordinates assigned)
[NH-]C(=O)c1cc2ccc(-c3cc(C4=C(C(F)F)N=CCC4)o[nH+]3)cc2n1C(=O)OC(F)(F)F (nonaromatic ring conformer: 127.60632455009646 kcal/mol)

>  <smiles>  (25) 
NC(=O)c1cc2ccc(-c3cc(C4=C(C(F)F)N=CCC4)on3)cc2n1C(=O)OC(F)(F)F

>  <score_type>  (25) 
oracle

>  <origin>  (25) 
adg

>  <m_score__min__energy>  (25) 
-10.710000000000001

>  <m_primary>  (25) 
energy

$$$$
25:0
     RDKit          3D

 39 41  0  0  0  0  0  0  0  0999 V2000
   -3.5240   14.1880  -35.3660 C   0  0  0  0  0  0  0  0  0  0  0  0
   -4.8250   14.4190  -34.7260 N   0  0  0  0  0  0  0  0  0  0  0  0
   -5.7600   13.2950  -34.5910 C   0  0  0  0  0  0  0  0  0  0  0  0
   -5.1870   15.7350  -34.2340 C   0  0  0  0  0  0  0  0  0  0  0  0
   -6.5110   16.0220  -33.8500 C   0  0  0  0  0  0  0  0  0  0  0  0
   -6.8400   17.2890  -33.3750 C   0  0  0  0  0  0  0  0  0  0  0  0
   -5.8580   18.2850  -33.2740 C   0  0  0  0  0  0  0  0  0  0  0  0
   -6.1970   19.6390  -32.7690 C   0  0  0  0  0  0  0  0  0  0  0  0
   -7.5460   20.0800  -32.7490 C   0  0  0  0  0  0  0  0  0  0  0  0
   -7.8800   21.3540  -32.2620 C   0  0  0  0  0  0  0  0  0  0  0  0
   -6.8490   22.1710  -31.8110 C   0  0  0  0  0  0  0  0  0  0  0  0
   -6.8940   23.4340  -31.2660 C   0  0  0  0  0  0  0  0  0  0  0  0
   -5.5710   23.7620  -30.9820 C   0  0  0  0  0  0  0  0  0  0  0  0
   -5.1550   25.0810  -30.4620 C   0  0  0  0  0  0  0  0  0  0  0  0
   -3.9130   25.6640  -30.8480 N   0  0  0  0  0  0  0  0  0  0  0  0
   -5.9300   25.7250  -29.7050 O   0  0  0  0  0  0  0  0  0  0  0  0
   -4.7390   22.7390  -31.3280 N   0  0  0  0  0  0  0  0  0  0  0  0
   -3.3210   22.6470  -31.1100 C   0  0  0  0  0  0  0  0  0  0  0  0
   -2.7980   23.1750  -30.0940 O   0  0  0  0  0  0  0  0  0  0  0  0
   -2.5120   21.9980  -32.0330 O   0  0  0  0  0  0  0  0  0  0  0  0
   -5.5370   21.7730  -31.8380 C   0  0  0  0  0  0  0  0  0  0  0  0
   -5.1770   20.5020  -32.2990 C   0  0  0  0  0  0  0  0  0  0  0  0
   -4.5490   17.9670  -33.6660 C   0  0  0  0  0  0  0  0  0  0  0  0
   -4.2450   16.7230  -34.1290 N   0  0  0  0  0  0  0  0  0  0  0  0
   -2.7540   14.0513  -34.5925 H   0  0  0  0  0  0  0  0  0  0  0  0
   -3.5787   13.2855  -35.9925 H   0  0  0  0  0  0  0  0  0  0  0  0
   -3.2646   15.0541  -35.9925 H   0  0  0  0  0  0  0  0  0  0  0  0
   -5.9325   13.0876  -33.5246 H   0  0  0  0  0  0  0  0  0  0  0  0
   -6.7145   13.5520  -35.0736 H   0  0  0  0  0  0  0  0  0  0  0  0
   -5.3335   12.4033  -35.0736 H   0  0  0  0  0  0  0  0  0  0  0  0
   -7.2859   15.2449  -33.9253 H   0  0  0  0  0  0  0  0  0  0  0  0
   -7.8757   17.5097  -33.0774 H   0  0  0  0  0  0  0  0  0  0  0  0
   -8.3401   19.4152  -33.1198 H   0  0  0  0  0  0  0  0  0  0  0  0
   -8.9254   21.6954  -32.2380 H   0  0  0  0  0  0  0  0  0  0  0  0
   -7.7863   24.0532  -31.0917 H   0  0  0  0  0  0  0  0  0  0  0  0
   -3.0090   25.2920  -30.4790 H   0  0  0  0  0  0  0  0  0  0  0  0
   -4.1251   20.1801  -32.2965 H   0  0  0  0  0  0  0  0  0  0  0  0
   -3.7600   18.7305  -33.5986 H   0  0  0  0  0  0  0  0  0  0  0  0
   -3.2590   16.5520  -34.4210 H   0  0  0  0  0  0  0  0  0  0  0  0
  1  2  1  0
  2  3  1  0
  2  4  1  0
  4  5  2  0
  5  6  1  0
  6  7  2  0
  7  8  1  0
  8  9  2  0
  9 10  1  0
 10 11  2  0
 11 12  1  0
 12 13  2  0
 13 14  1  0
 14 15  1  0
 14 16  2  0
 13 17  1  0
 17 18  1  0
 18 19  2  0
 18 20  1  0
 17 21  1  0
 21 22  2  0
  7 23  1  0
 23 24  2  0
 24  4  1  0
 22  8  1  0
 21 11  1  0
  1 25  1  0
  1 26  1  0
  1 27  1  0
  3 28  1  0
  3 29  1  0
  3 30  1  0
  5 31  1  0
  6 32  1  0
  9 33  1  0
 10 34  1  0
 12 35  1  0
 15 36  1  0
 22 37  1  0
 23 38  1  0
 24 39  1  0
M  CHG  3  15  -1  20  -1  24   1
M  END
>  <UniqueID>  (26) 
26

>  <SMILES>  (26) 
CN(C)c1ccc(-c2ccc3cc(C([NH-])=O)n(C(=O)[O-])c3c2)c[nH+]1

>  <Energy>  (26) 
87.68000001767007

>  <Genealogy>  (26) 
CN(C)c1ccc(-c2ccc3cc(C([NH-])=O)n(C(=O)[O-])c3c2)c[nH+]1 (protonated)
CN(C)c1ccc(-c2ccc3cc(C([NH-])=O)n(C(=O)[O-])c3c2)c[nH+]1 (3D coordinates assigned)
CN(C)c1ccc(-c2ccc3cc(C([NH-])=O)n(C(=O)[O-])c3c2)c[nH+]1 (optimized conformer: 87.68000001767007 kcal/mol)

>  <smiles>  (26) 
CN(C)c1ccc(-c2ccc3cc(C(N)=O)n(C(=O)O)c3c2)cn1

>  <score_type>  (26) 
oracle

>  <origin>  (26) 
adg

>  <m_score__min__energy>  (26) 
-10.26

>  <m_primary>  (26) 
energy

$$$$
26:0
     RDKit          3D

 31 32  0  0  0  0  0  0  0  0999 V2000
   -6.2950   17.4460  -31.7380 C   0  0  0  0  0  0  0  0  0  0  0  0
   -6.9250   18.3060  -32.8390 C   0  0  0  0  0  0  0  0  0  0  0  0
   -6.0850   18.2600  -34.1220 C   0  0  0  0  0  0  0  0  0  0  0  0
   -7.1260   19.7340  -32.3690 C   0  0  0  0  0  0  0  0  0  0  0  0
   -8.4280   20.2990  -32.3700 C   0  0  0  0  0  0  0  0  0  0  0  0
   -8.6410   21.6160  -31.9330 C   0  0  0  0  0  0  0  0  0  0  0  0
   -7.5390   22.3480  -31.5040 C   0  0  0  0  0  0  0  0  0  0  0  0
   -7.4660   23.6320  -31.0150 C   0  0  0  0  0  0  0  0  0  0  0  0
   -6.1170   23.8440  -30.7420 C   0  0  0  0  0  0  0  0  0  0  0  0
   -5.5800   25.1350  -30.2720 C   0  0  0  0  0  0  0  0  0  0  0  0
   -4.2400   25.5270  -30.5680 N   0  0  0  0  0  0  0  0  0  0  0  0
   -6.3370   25.9330  -29.6570 O   0  0  0  0  0  0  0  0  0  0  0  0
   -5.3870   22.7300  -31.0290 N   0  0  0  0  0  0  0  0  0  0  0  0
   -3.9910   22.4890  -30.7780 C   0  0  0  0  0  0  0  0  0  0  0  0
   -3.1090   23.2720  -31.2190 O   0  0  0  0  0  0  0  0  0  0  0  0
   -6.2720   21.8260  -31.5030 C   0  0  0  0  0  0  0  0  0  0  0  0
   -6.0300   20.5130  -31.9220 C   0  0  0  0  0  0  0  0  0  0  0  0
   -6.5846   17.8413  -30.7532 H   0  0  0  0  0  0  0  0  0  0  0  0
   -6.6487   16.4090  -31.8353 H   0  0  0  0  0  0  0  0  0  0  0  0
   -5.1996   17.4705  -31.8353 H   0  0  0  0  0  0  0  0  0  0  0  0
   -7.9153   17.8860  -33.0692 H   0  0  0  0  0  0  0  0  0  0  0  0
   -5.0183   18.2016  -33.8600 H   0  0  0  0  0  0  0  0  0  0  0  0
   -6.3663   17.3759  -34.7130 H   0  0  0  0  0  0  0  0  0  0  0  0
   -6.2681   19.1695  -34.7130 H   0  0  0  0  0  0  0  0  0  0  0  0
   -9.2808   19.6974  -32.7175 H   0  0  0  0  0  0  0  0  0  0  0  0
   -9.6493   22.0558  -31.9300 H   0  0  0  0  0  0  0  0  0  0  0  0
   -8.2957   24.3396  -30.8706 H   0  0  0  0  0  0  0  0  0  0  0  0
   -3.6420   24.9560  -31.2070 H   0  0  0  0  0  0  0  0  0  0  0  0
   -3.8650   26.4320  -30.2070 H   0  0  0  0  0  0  0  0  0  0  0  0
   -3.6898   21.6079  -30.1923 H   0  0  0  0  0  0  0  0  0  0  0  0
   -5.0125   20.0953  -31.9048 H   0  0  0  0  0  0  0  0  0  0  0  0
  1  2  1  0
  2  3  1  0
  2  4  1  0
  4  5  2  0
  5  6  1  0
  6  7  2  0
  7  8  1  0
  8  9  2  0
  9 10  1  0
 10 11  1  0
 10 12  2  0
  9 13  1  0
 13 14  1  0
 14 15  2  0
 13 16  1  0
 16 17  2  0
 17  4  1  0
 16  7  1  0
  1 18  1  0
  1 19  1  0
  1 20  1  0
  2 21  1  0
  3 22  1  0
  3 23  1  0
  3 24  1  0
  5 25  1  0
  6 26  1  0
  8 27  1  0
 11 28  1  0
 11 29  1  0
 14 30  1  0
 17 31  1  0
M  END
>  <UniqueID>  (27) 
27

>  <SMILES>  (27) 
CC(C)c1ccc2cc(C(N)=O)n(C=O)c2c1

>  <Energy>  (27) 
66.19102789200157

>  <Genealogy>  (27) 
CC(C)c1ccc2cc(C(N)=O)n(C=O)c2c1 (3D coordinates assigned)
CC(C)c1ccc2cc(C(N)=O)n(C=O)c2c1 (optimized conformer: 66.19102789200157 kcal/mol)

>  <smiles>  (27) 
CC(C)c1ccc2cc(C(N)=O)n(C=O)c2c1

>  <score_type>  (27) 
oracle

>  <origin>  (27) 
adg

>  <m_score__min__energy>  (27) 
-8.5899999999999999

>  <m_primary>  (27) 
energy

$$$$
27:0
     RDKit          3D

 30 31  0  0  0  0  0  0  0  0999 V2000
   -2.8210   20.9620  -32.6820 C   0  0  0  0  0  0  0  0  0  0  0  0
   -3.4120   22.2490  -32.5510 O   0  0  0  0  0  0  0  0  0  0  0  0
   -4.0060   22.6890  -31.3640 C   0  0  0  0  0  0  0  0  0  0  0  0
   -3.2910   22.9690  -30.3640 O   0  0  0  0  0  0  0  0  0  0  0  0
   -5.4350   22.8210  -31.2880 N   0  0  0  0  0  0  0  0  0  0  0  0
   -6.1430   23.9360  -30.9500 C   0  0  0  0  0  0  0  0  0  0  0  0
   -5.5770   25.1940  -30.4220 C   0  0  0  0  0  0  0  0  0  0  0  0
   -4.2340   25.5810  -30.7160 N   0  0  0  0  0  0  0  0  0  0  0  0
   -6.2720   25.9090  -29.6540 O   0  0  0  0  0  0  0  0  0  0  0  0
   -7.5080   23.7230  -31.1170 C   0  0  0  0  0  0  0  0  0  0  0  0
   -7.6210   22.4250  -31.5620 C   0  0  0  0  0  0  0  0  0  0  0  0
   -8.7560   21.6920  -31.8970 C   0  0  0  0  0  0  0  0  0  0  0  0
   -8.5770   20.3780  -32.3600 C   0  0  0  0  0  0  0  0  0  0  0  0
   -7.2760   19.8310  -32.4970 C   0  0  0  0  0  0  0  0  0  0  0  0
   -7.1000   18.4190  -32.9780 C   0  0  0  0  0  0  0  0  0  0  0  0
   -6.0930   18.3760  -34.0420 C   0  0  0  0  0  0  0  0  0  0  0  0
   -5.2970   18.3410  -34.8830 N   0  0  0  0  0  0  0  0  0  0  0  0
   -6.1480   20.6020  -32.1380 C   0  0  0  0  0  0  0  0  0  0  0  0
   -6.3570   21.9020  -31.6590 C   0  0  0  0  0  0  0  0  0  0  0  0
   -2.6288   20.5434  -31.6831 H   0  0  0  0  0  0  0  0  0  0  0  0
   -3.5048   20.2988  -33.2321 H   0  0  0  0  0  0  0  0  0  0  0  0
   -1.8724   21.0484  -33.2321 H   0  0  0  0  0  0  0  0  0  0  0  0
   -3.8640   26.4930  -30.3670 H   0  0  0  0  0  0  0  0  0  0  0  0
   -3.5820   24.9340  -31.2090 H   0  0  0  0  0  0  0  0  0  0  0  0
   -8.3227   24.4388  -30.9328 H   0  0  0  0  0  0  0  0  0  0  0  0
   -9.7614   22.1281  -31.8021 H   0  0  0  0  0  0  0  0  0  0  0  0
   -9.4546   19.7674  -32.6188 H   0  0  0  0  0  0  0  0  0  0  0  0
   -6.7722   17.7864  -32.1399 H   0  0  0  0  0  0  0  0  0  0  0  0
   -8.0582   18.0484  -33.3712 H   0  0  0  0  0  0  0  0  0  0  0  0
   -5.1315   20.1922  -32.2321 H   0  0  0  0  0  0  0  0  0  0  0  0
  1  2  1  0
  2  3  1  0
  3  4  2  0
  3  5  1  0
  5  6  1  0
  6  7  1  0
  7  8  1  0
  7  9  2  0
  6 10  2  0
 10 11  1  0
 11 12  2  0
 12 13  1  0
 13 14  2  0
 14 15  1  0
 15 16  1  0
 16 17  3  0
 14 18  1  0
 18 19  2  0
 19  5  1  0
 19 11  1  0
  1 20  1  0
  1 21  1  0
  1 22  1  0
  8 23  1  0
  8 24  1  0
 10 25  1  0
 12 26  1  0
 13 27  1  0
 15 28  1  0
 15 29  1  0
 18 30  1  0
M  END
>  <UniqueID>  (28) 
28

>  <SMILES>  (28) 
COC(=O)n1c(C(N)=O)cc2ccc(CC#N)cc21

>  <Energy>  (28) 
65.67709726798975

>  <Genealogy>  (28) 
COC(=O)n1c(C(N)=O)cc2ccc(CC#N)cc21 (3D coordinates assigned)
COC(=O)n1c(C(N)=O)cc2ccc(CC#N)cc21 (optimized conformer: 65.67709726798975 kcal/mol)

>  <smiles>  (28) 
COC(=O)n1c(C(N)=O)cc2ccc(CC#N)cc21

>  <score_type>  (28) 
oracle

>  <origin>  (28) 
adg

>  <m_score__min__energy>  (28) 
-8.2100000000000009

>  <m_primary>  (28) 
energy

$$$$
28:0
     RDKit          3D

 43 46  0  0  0  0  0  0  0  0999 V2000
   -7.8510   23.5120  -31.3050 C   0  0  0  0  0  0  0  0  0  0  0  0
   -8.3660   22.5840  -32.2540 O   0  0  0  0  0  0  0  0  0  0  0  0
   -7.9720   21.2400  -32.3390 C   0  0  0  0  0  0  0  0  0  0  0  0
   -8.8200   20.1710  -31.9320 C   0  0  0  0  0  0  0  0  0  0  0  0
   -8.3880   18.8370  -32.0340 C   0  0  0  0  0  0  0  0  0  0  0  0
   -9.1880   17.8140  -31.6450 F   0  0  0  0  0  0  0  0  0  0  0  0
   -7.1140   18.6000  -32.5420 C   0  0  0  0  0  0  0  0  0  0  0  0
   -6.5070   17.4110  -32.7050 N   0  0  0  0  0  0  0  0  0  0  0  0
   -5.2950   17.7600  -33.2120 C   0  0  0  0  0  0  0  0  0  0  0  0
   -4.2990   16.7840  -33.5290 N   0  0  0  0  0  0  0  0  0  0  0  0
   -5.1320   19.1030  -33.3720 N   0  0  0  0  0  0  0  0  0  0  0  0
   -3.9450   19.8410  -33.8140 C   0  0  0  0  0  0  0  0  0  0  0  0
   -3.2330   20.4410  -32.6310 C   0  0  0  0  0  0  0  0  0  0  0  0
   -2.2020   19.7220  -31.9740 C   0  0  0  0  0  0  0  0  0  0  0  0
   -1.5250   20.2820  -30.8790 C   0  0  0  0  0  0  0  0  0  0  0  0
   -1.8920   21.5590  -30.4680 C   0  0  0  0  0  0  0  0  0  0  0  0
   -1.4170   22.3250  -29.4270 C   0  0  0  0  0  0  0  0  0  0  0  0
   -2.1480   23.5100  -29.4780 C   0  0  0  0  0  0  0  0  0  0  0  0
   -1.8930   24.6580  -28.5830 C   0  0  0  0  0  0  0  0  0  0  0  0
   -1.2480   25.8340  -29.0660 N   0  0  0  0  0  0  0  0  0  0  0  0
   -2.2030   24.5810  -27.3650 O   0  0  0  0  0  0  0  0  0  0  0  0
   -3.0460   23.4760  -30.5030 N   0  0  0  0  0  0  0  0  0  0  0  0
   -4.0410   24.4580  -30.8310 C   0  0  0  0  0  0  0  0  0  0  0  0
   -3.8790   25.6640  -30.5030 O   0  0  0  0  0  0  0  0  0  0  0  0
   -5.1800   24.0940  -31.5390 O   0  0  0  0  0  0  0  0  0  0  0  0
   -2.8740   22.2760  -31.1010 C   0  0  0  0  0  0  0  0  0  0  0  0
   -3.5790   21.7360  -32.1830 C   0  0  0  0  0  0  0  0  0  0  0  0
   -6.2950   19.6170  -32.9350 C   0  0  0  0  0  0  0  0  0  0  0  0
   -6.6890   20.9550  -32.8480 C   0  0  0  0  0  0  0  0  0  0  0  0
   -8.0538   23.1465  -30.2875 H   0  0  0  0  0  0  0  0  0  0  0  0
   -6.7653   23.6174  -31.4471 H   0  0  0  0  0  0  0  0  0  0  0  0
   -8.3360   24.4890  -31.4471 H   0  0  0  0  0  0  0  0  0  0  0  0
   -9.8218   20.3908  -31.5343 H   0  0  0  0  0  0  0  0  0  0  0  0
   -3.7620   16.2800  -32.7920 H   0  0  0  0  0  0  0  0  0  0  0  0
   -4.0940   16.5610  -34.5280 H   0  0  0  0  0  0  0  0  0  0  0  0
   -3.2640   19.1535  -34.3371 H   0  0  0  0  0  0  0  0  0  0  0  0
   -4.2576   20.6493  -34.4915 H   0  0  0  0  0  0  0  0  0  0  0  0
   -1.9302   18.7158  -32.3258 H   0  0  0  0  0  0  0  0  0  0  0  0
   -0.7282   19.7275  -30.3617 H   0  0  0  0  0  0  0  0  0  0  0  0
   -0.6283   22.0582  -28.7081 H   0  0  0  0  0  0  0  0  0  0  0  0
   -1.2140   26.0460  -30.0870 H   0  0  0  0  0  0  0  0  0  0  0  0
   -4.3826   22.3056  -32.6726 H   0  0  0  0  0  0  0  0  0  0  0  0
   -6.0159   21.7640  -33.1682 H   0  0  0  0  0  0  0  0  0  0  0  0
  1  2  1  0
  2  3  1  0
  3  4  2  0
  4  5  1  0
  5  6  1  0
  5  7  2  0
  7  8  1  0
  8  9  2  0
  9 10  1  0
  9 11  1  0
 11 12  1  0
 12 13  1  0
 13 14  2  0
 14 15  1  0
 15 16  2  0
 16 17  1  0
 17 18  2  0
 18 19  1  0
 19 20  1  0
 19 21  2  0
 18 22  1  0
 22 23  1  0
 23 24  2  0
 23 25  1  0
 22 26  1  0
 26 27  2  0
 11 28  1  0
 28 29  2  0
 29  3  1  0
 28  7  1  0
 27 13  1  0
 26 16  1  0
  1 30  1  0
  1 31  1  0
  1 32  1  0
  4 33  1  0
 10 34  1  0
 10 35  1  0
 12 36  1  0
 12 37  1  0
 14 38  1  0
 15 39  1  0
 17 40  1  0
 20 41  1  0
 27 42  1  0
 29 43  1  0
M  CHG  2  20  -1  25  -1
M  END
>  <UniqueID>  (29) 
29

>  <SMILES>  (29) 
COc1cc(F)c2nc(N)n(Cc3ccc4cc(C([NH-])=O)n(C(=O)[O-])c4c3)c2c1

>  <Energy>  (29) 
122.57596440275

>  <Genealogy>  (29) 
COc1cc(F)c2nc(N)n(Cc3ccc4cc(C([NH-])=O)n(C(=O)[O-])c4c3)c2c1 (protonated)
COc1cc(F)c2nc(N)n(Cc3ccc4cc(C([NH-])=O)n(C(=O)[O-])c4c3)c2c1 (3D coordinates assigned)
COc1cc(F)c2nc(N)n(Cc3ccc4cc(C([NH-])=O)n(C(=O)[O-])c4c3)c2c1 (optimized conformer: 122.57596440275 kcal/mol)

>  <smiles>  (29) 
COc1cc(F)c2nc(N)n(Cc3ccc4cc(C(N)=O)n(C(=O)O)c4c3)c2c1

>  <score_type>  (29) 
oracle

>  <origin>  (29) 
adg

>  <m_score__min__energy>  (29) 
-12.19

>  <m_primary>  (29) 
energy

$$$$
29:0
     RDKit          3D

 34 36  0  0  0  0  0  0  0  0999 V2000
   -9.8640   21.6330  -31.5790 C   0  0  0  0  0  0  0  0  0  0  0  0
   -9.4320   20.9630  -32.7580 O   0  0  0  0  0  0  0  0  0  0  0  0
   -8.8770   19.6800  -32.7360 C   0  0  0  0  0  0  0  0  0  0  0  0
   -9.6230   18.6670  -32.6610 O   0  0  0  0  0  0  0  0  0  0  0  0
   -7.4130   19.5300  -32.7960 C   0  0  0  0  0  0  0  0  0  0  0  0
   -6.6290   18.3570  -33.7090 S   0  0  0  0  0  0  0  0  0  0  0  0
   -5.0640   18.7780  -33.2770 C   0  0  0  0  0  0  0  0  0  0  0  0
   -5.1240   19.8650  -32.4070 C   0  0  0  0  0  0  0  0  0  0  0  0
   -3.9060   20.4860  -31.8420 C   0  0  0  0  0  0  0  0  0  0  0  0
   -2.6640   19.8030  -31.8840 C   0  0  0  0  0  0  0  0  0  0  0  0
   -1.5110   20.3770  -31.3250 C   0  0  0  0  0  0  0  0  0  0  0  0
   -1.6280   21.6290  -30.7310 C   0  0  0  0  0  0  0  0  0  0  0  0
   -0.6820   22.3950  -30.0900 C   0  0  0  0  0  0  0  0  0  0  0  0
   -1.3550   23.5430  -29.6750 C   0  0  0  0  0  0  0  0  0  0  0  0
   -0.6840   24.6820  -29.0120 C   0  0  0  0  0  0  0  0  0  0  0  0
   -1.3050   25.9620  -28.9470 N   0  0  0  0  0  0  0  0  0  0  0  0
    0.4750   24.5340  -28.5420 O   0  0  0  0  0  0  0  0  0  0  0  0
   -2.6690   23.4840  -30.0360 N   0  0  0  0  0  0  0  0  0  0  0  0
   -3.7120   24.4200  -29.7230 C   0  0  0  0  0  0  0  0  0  0  0  0
   -4.5000   24.1980  -28.7660 O   0  0  0  0  0  0  0  0  0  0  0  0
   -3.8780   25.5680  -30.4880 O   0  0  0  0  0  0  0  0  0  0  0  0
   -2.8180   22.3080  -30.6840 C   0  0  0  0  0  0  0  0  0  0  0  0
   -3.9870   21.7510  -31.2170 C   0  0  0  0  0  0  0  0  0  0  0  0
   -6.4430   20.2860  -32.1280 C   0  0  0  0  0  0  0  0  0  0  0  0
   -6.8280   21.5620  -30.9750 Cl  0  0  0  0  0  0  0  0  0  0  0  0
   -9.5097   21.0836  -30.6943 H   0  0  0  0  0  0  0  0  0  0  0  0
   -9.4532   22.6533  -31.5657 H   0  0  0  0  0  0  0  0  0  0  0  0
  -10.9629   21.6799  -31.5657 H   0  0  0  0  0  0  0  0  0  0  0  0
   -4.1457   18.2803  -33.6220 H   0  0  0  0  0  0  0  0  0  0  0  0
   -2.6032   18.8130  -32.3596 H   0  0  0  0  0  0  0  0  0  0  0  0
   -0.5446   19.8524  -31.3559 H   0  0  0  0  0  0  0  0  0  0  0  0
    0.3801   22.1529  -29.9373 H   0  0  0  0  0  0  0  0  0  0  0  0
   -2.3450   26.0560  -28.9720 H   0  0  0  0  0  0  0  0  0  0  0  0
   -4.9461   22.2856  -31.1508 H   0  0  0  0  0  0  0  0  0  0  0  0
  1  2  1  0
  2  3  1  0
  3  4  2  0
  3  5  1  0
  5  6  1  0
  6  7  1  0
  7  8  2  0
  8  9  1  0
  9 10  2  0
 10 11  1  0
 11 12  2  0
 12 13  1  0
 13 14  2  0
 14 15  1  0
 15 16  1  0
 15 17  2  0
 14 18  1  0
 18 19  1  0
 19 20  2  0
 19 21  1  0
 18 22  1  0
 22 23  2  0
  8 24  1  0
 24 25  1  0
 24  5  2  0
 23  9  1  0
 22 12  1  0
  1 26  1  0
  1 27  1  0
  1 28  1  0
  7 29  1  0
 10 30  1  0
 11 31  1  0
 13 32  1  0
 16 33  1  0
 23 34  1  0
M  CHG  2  16  -1  21  -1
M  END
>  <UniqueID>  (30) 
30

>  <SMILES>  (30) 
COC(=O)c1scc(-c2ccc3cc(C([NH-])=O)n(C(=O)[O-])c3c2)c1Cl

>  <Energy>  (30) 
106.70242168132158

>  <Genealogy>  (30) 
COC(=O)c1scc(-c2ccc3cc(C([NH-])=O)n(C(=O)[O-])c3c2)c1Cl (protonated)
COC(=O)c1scc(-c2ccc3cc(C([NH-])=O)n(C(=O)[O-])c3c2)c1Cl (3D coordinates assigned)
COC(=O)c1scc(-c2ccc3cc(C([NH-])=O)n(C(=O)[O-])c3c2)c1Cl (optimized conformer: 106.70242168132158 kcal/mol)

>  <smiles>  (30) 
COC(=O)c1scc(-c2ccc3cc(C(N)=O)n(C(=O)O)c3c2)c1Cl

>  <score_type>  (30) 
oracle

>  <origin>  (30) 
adg

>  <m_score__min__energy>  (30) 
-11.710000000000001

>  <m_primary>  (30) 
energy

$$$$
30:0
     RDKit          3D

 32 34  0  0  0  0  0  0  0  0999 V2000
   -5.3470   26.4800  -30.4670 N   0  0  0  0  0  0  0  0  0  0  0  0
   -6.2650   25.4720  -30.0380 C   0  0  0  0  0  0  0  0  0  0  0  0
   -6.9620   25.6720  -29.0070 O   0  0  0  0  0  0  0  0  0  0  0  0
   -6.3620   24.1780  -30.7400 C   0  0  0  0  0  0  0  0  0  0  0  0
   -7.5700   23.6080  -31.1270 C   0  0  0  0  0  0  0  0  0  0  0  0
   -7.2380   22.3950  -31.6860 C   0  0  0  0  0  0  0  0  0  0  0  0
   -8.0520   21.4190  -32.2480 C   0  0  0  0  0  0  0  0  0  0  0  0
   -7.4370   20.2770  -32.7870 C   0  0  0  0  0  0  0  0  0  0  0  0
   -6.0240   20.1340  -32.7660 C   0  0  0  0  0  0  0  0  0  0  0  0
   -5.3860   18.9300  -33.3540 C   0  0  0  0  0  0  0  0  0  0  0  0
   -4.0450   18.9670  -33.7810 C   0  0  0  0  0  0  0  0  0  0  0  0
   -3.4460   17.8320  -34.3340 C   0  0  0  0  0  0  0  0  0  0  0  0
   -4.1740   16.6480  -34.4670 C   0  0  0  0  0  0  0  0  0  0  0  0
   -5.5060   16.5970  -34.0460 C   0  0  0  0  0  0  0  0  0  0  0  0
   -6.4200   15.1080  -34.2080 Cl  0  0  0  0  0  0  0  0  0  0  0  0
   -6.1110   17.7310  -33.4930 C   0  0  0  0  0  0  0  0  0  0  0  0
   -5.2310   21.1530  -32.1860 C   0  0  0  0  0  0  0  0  0  0  0  0
   -5.8730   22.2690  -31.6360 C   0  0  0  0  0  0  0  0  0  0  0  0
   -5.3190   23.3600  -31.0590 N   0  0  0  0  0  0  0  0  0  0  0  0
   -3.9150   23.6440  -30.9280 C   0  0  0  0  0  0  0  0  0  0  0  0
   -3.0610   22.7500  -31.1690 O   0  0  0  0  0  0  0  0  0  0  0  0
   -3.4830   24.9030  -30.5330 O   0  0  0  0  0  0  0  0  0  0  0  0
   -4.6390   26.2830  -31.2070 H   0  0  0  0  0  0  0  0  0  0  0  0
   -5.3180   27.4040  -29.9810 H   0  0  0  0  0  0  0  0  0  0  0  0
   -8.5768   24.0357  -31.0110 H   0  0  0  0  0  0  0  0  0  0  0  0
   -9.1454   21.5372  -32.2701 H   0  0  0  0  0  0  0  0  0  0  0  0
   -8.0570   19.4840  -33.2306 H   0  0  0  0  0  0  0  0  0  0  0  0
   -3.4647   19.8958  -33.6786 H   0  0  0  0  0  0  0  0  0  0  0  0
   -2.3979   17.8715  -34.6655 H   0  0  0  0  0  0  0  0  0  0  0  0
   -3.6998   15.7562  -34.9027 H   0  0  0  0  0  0  0  0  0  0  0  0
   -7.1599   17.6855  -33.1647 H   0  0  0  0  0  0  0  0  0  0  0  0
   -4.1343   21.0699  -32.1678 H   0  0  0  0  0  0  0  0  0  0  0  0
  1  2  1  0
  2  3  2  0
  2  4  1  0
  4  5  2  0
  5  6  1  0
  6  7  2  0
  7  8  1  0
  8  9  2  0
  9 10  1  0
 10 11  2  0
 11 12  1  0
 12 13  2  0
 13 14  1  0
 14 15  1  0
 14 16  2  0
  9 17  1  0
 17 18  2  0
 18 19  1  0
 19 20  1  0
 20 21  2  0
 20 22  1  0
 19  4  1  0
 18  6  1  0
 16 10  1  0
  1 23  1  0
  1 24  1  0
  5 25  1  0
  7 26  1  0
  8 27  1  0
 11 28  1  0
 12 29  1  0
 13 30  1  0
 16 31  1  0
 17 32  1  0
M  CHG  1  22  -1
M  END
>  <UniqueID>  (31) 
31

>  <SMILES>  (31) 
NC(=O)c1cc2ccc(-c3cccc(Cl)c3)cc2n1C(=O)[O-]

>  <Energy>  (31) 
80.22080702045315

>  <Genealogy>  (31) 
NC(=O)c1cc2ccc(-c3cccc(Cl)c3)cc2n1C(=O)[O-] (protonated)
NC(=O)c1cc2ccc(-c3cccc(Cl)c3)cc2n1C(=O)[O-] (3D coordinates assigned)
NC(=O)c1cc2ccc(-c3cccc(Cl)c3)cc2n1C(=O)[O-] (optimized conformer: 80.22080702045315 kcal/mol)

>  <smiles>  (31) 
NC(=O)c1cc2ccc(-c3cccc(Cl)c3)cc2n1C(=O)O

>  <score_type>  (31) 
oracle

>  <origin>  (31) 
adg

>  <m_score__min__energy>  (31) 
-9.8200000000000003

>  <m_primary>  (31) 
energy

$$$$
31:0
     RDKit          3D

 40 43  0  0  0  0  0  0  0  0999 V2000
   -6.4210   25.8590  -29.0990 N   0  0  0  0  0  0  0  0  0  0  0  0
   -5.7940   25.3620  -30.2830 C   0  0  0  0  0  0  0  0  0  0  0  0
   -4.8900   26.0440  -30.8350 O   0  0  0  0  0  0  0  0  0  0  0  0
   -6.1420   24.0370  -30.8360 C   0  0  0  0  0  0  0  0  0  0  0  0
   -7.4520   23.5950  -31.0010 C   0  0  0  0  0  0  0  0  0  0  0  0
   -7.3450   22.3570  -31.5920 C   0  0  0  0  0  0  0  0  0  0  0  0
   -8.3370   21.4570  -31.9670 C   0  0  0  0  0  0  0  0  0  0  0  0
   -7.9390   20.2300  -32.5210 C   0  0  0  0  0  0  0  0  0  0  0  0
   -6.5640   19.9150  -32.6800 C   0  0  0  0  0  0  0  0  0  0  0  0
   -6.1540   18.6080  -33.2540 C   0  0  0  0  0  0  0  0  0  0  0  0
   -5.0480   18.5220  -34.1200 C   0  0  0  0  0  0  0  0  0  0  0  0
   -4.6670   17.2900  -34.6600 C   0  0  0  0  0  0  0  0  0  0  0  0
   -5.3810   16.1330  -34.3420 C   0  0  0  0  0  0  0  0  0  0  0  0
   -5.0080   14.9400  -34.8670 F   0  0  0  0  0  0  0  0  0  0  0  0
   -6.4800   16.2050  -33.4830 C   0  0  0  0  0  0  0  0  0  0  0  0
   -6.8660   17.4340  -32.9400 C   0  0  0  0  0  0  0  0  0  0  0  0
   -5.5850   20.8580  -32.2810 C   0  0  0  0  0  0  0  0  0  0  0  0
   -6.0110   22.0830  -31.7560 C   0  0  0  0  0  0  0  0  0  0  0  0
   -5.2580   23.1070  -31.2930 N   0  0  0  0  0  0  0  0  0  0  0  0
   -3.8250   23.1470  -31.2020 C   0  0  0  0  0  0  0  0  0  0  0  0
   -3.1250   22.4090  -31.9480 O   0  0  0  0  0  0  0  0  0  0  0  0
   -3.1910   24.0100  -30.2550 N   0  0  0  0  0  0  0  0  0  0  0  0
   -2.8640   23.5800  -28.9030 C   0  0  0  0  0  0  0  0  0  0  0  0
   -3.9350   22.7110  -28.2710 C   0  0  0  0  0  0  0  0  0  0  0  0
   -3.7910   24.1680  -27.8580 C   0  0  0  0  0  0  0  0  0  0  0  0
   -7.0410   25.2510  -28.5210 H   0  0  0  0  0  0  0  0  0  0  0  0
   -6.1930   26.8160  -28.7480 H   0  0  0  0  0  0  0  0  0  0  0  0
   -8.3751   24.1227  -30.7192 H   0  0  0  0  0  0  0  0  0  0  0  0
   -9.4016   21.6994  -31.8335 H   0  0  0  0  0  0  0  0  0  0  0  0
   -8.7024   19.5034  -32.8359 H   0  0  0  0  0  0  0  0  0  0  0  0
   -4.4801   19.4293  -34.3735 H   0  0  0  0  0  0  0  0  0  0  0  0
   -3.8022   17.2320  -35.3374 H   0  0  0  0  0  0  0  0  0  0  0  0
   -7.0426   15.2933  -33.2334 H   0  0  0  0  0  0  0  0  0  0  0  0
   -7.7315   17.4845  -32.2630 H   0  0  0  0  0  0  0  0  0  0  0  0
   -4.5132   20.6321  -32.3817 H   0  0  0  0  0  0  0  0  0  0  0  0
   -1.7740   23.5019  -29.0284 H   0  0  0  0  0  0  0  0  0  0  0  0
   -4.8043   22.3903  -28.8638 H   0  0  0  0  0  0  0  0  0  0  0  0
   -3.9430   21.7480  -27.7394 H   0  0  0  0  0  0  0  0  0  0  0  0
   -4.5565   24.9013  -28.1517 H   0  0  0  0  0  0  0  0  0  0  0  0
   -3.6519   24.6960  -26.9031 H   0  0  0  0  0  0  0  0  0  0  0  0
  1  2  1  0
  2  3  2  0
  2  4  1  0
  4  5  2  0
  5  6  1  0
  6  7  2  0
  7  8  1  0
  8  9  2  0
  9 10  1  0
 10 11  2  0
 11 12  1  0
 12 13  2  0
 13 14  1  0
 13 15  1  0
 15 16  2  0
  9 17  1  0
 17 18  2  0
 18 19  1  0
 19 20  1  0
 20 21  2  0
 20 22  1  0
 22 23  1  0
 23 24  1  0
 24 25  1  0
 19  4  1  0
 25 23  1  0
 18  6  1  0
 16 10  1  0
  1 26  1  0
  1 27  1  0
  5 28  1  0
  7 29  1  0
  8 30  1  0
 11 31  1  0
 12 32  1  0
 15 33  1  0
 16 34  1  0
 17 35  1  0
 23 36  1  0
 24 37  1  0
 24 38  1  0
 25 39  1  0
 25 40  1  0
M  CHG  1  22  -1
M  END
>  <UniqueID>  (32) 
32

>  <SMILES>  (32) 
NC(=O)c1cc2ccc(-c3ccc(F)cc3)cc2n1C(=O)[N-]C1CC1

>  <Energy>  (32) 
351.2917466757012

>  <Genealogy>  (32) 
NC(=O)c1cc2ccc(-c3ccc(F)cc3)cc2n1C(=O)[N-]C1CC1 (protonated)
NC(=O)c1cc2ccc(-c3ccc(F)cc3)cc2n1C(=O)[N-]C1CC1 (3D coordinates assigned)
NC(=O)c1cc2ccc(-c3ccc(F)cc3)cc2n1C(=O)[N-]C1CC1 (nonaromatic ring conformer: 351.2917466757012 kcal/mol)

>  <smiles>  (32) 
NC(=O)c1cc2ccc(-c3ccc(F)cc3)cc2n1C(=O)NC1CC1

>  <score_type>  (32) 
oracle

>  <origin>  (32) 
adg

>  <m_score__min__energy>  (32) 
-10.34

>  <m_primary>  (32) 
energy

$$$$
32:0
     RDKit          3D

 45 48  0  0  0  0  0  0  0  0999 V2000
   -7.1890   12.5710  -35.0120 C   0  0  0  0  0  0  0  0  0  0  0  0
   -6.5230   13.6380  -34.2780 N   0  0  0  0  0  0  0  0  0  0  0  0
   -6.9310   14.9200  -34.2100 C   0  0  0  0  0  0  0  0  0  0  0  0
   -5.9920   15.6150  -33.4840 C   0  0  0  0  0  0  0  0  0  0  0  0
   -6.0080   17.0140  -33.1630 C   0  0  0  0  0  0  0  0  0  0  0  0
   -6.0240   18.1890  -32.8940 C   0  0  0  0  0  0  0  0  0  0  0  0
   -6.0390   19.5920  -32.5740 C   0  0  0  0  0  0  0  0  0  0  0  0
   -7.1180   20.3990  -33.0000 C   0  0  0  0  0  0  0  0  0  0  0  0
   -7.1400   21.7730  -32.7030 C   0  0  0  0  0  0  0  0  0  0  0  0
   -6.0740   22.3000  -31.9770 C   0  0  0  0  0  0  0  0  0  0  0  0
   -5.8280   23.5940  -31.5830 C   0  0  0  0  0  0  0  0  0  0  0  0
   -4.6030   23.5530  -30.9200 C   0  0  0  0  0  0  0  0  0  0  0  0
   -3.9330   24.7570  -30.3820 C   0  0  0  0  0  0  0  0  0  0  0  0
   -2.6900   24.6280  -29.6940 N   0  0  0  0  0  0  0  0  0  0  0  0
   -4.4490   25.8990  -30.5030 O   0  0  0  0  0  0  0  0  0  0  0  0
   -4.1200   22.2760  -30.8840 N   0  0  0  0  0  0  0  0  0  0  0  0
   -2.8560   21.8010  -30.3090 C   0  0  0  0  0  0  0  0  0  0  0  0
   -1.8160   21.6760  -31.3790 C   0  0  0  0  0  0  0  0  0  0  0  0
   -0.4540   21.7800  -31.2080 C   0  0  0  0  0  0  0  0  0  0  0  0
    0.1020   21.5950  -32.3790 O   0  0  0  0  0  0  0  0  0  0  0  0
   -0.8690   21.3780  -33.2380 C   0  0  0  0  0  0  0  0  0  0  0  0
   -0.6450   21.1480  -34.7010 C   0  0  0  0  0  0  0  0  0  0  0  0
    0.1730   22.2120  -35.2770 N   0  0  0  0  0  0  0  0  0  0  0  0
   -2.0930   21.4170  -32.6710 N   0  0  0  0  0  0  0  0  0  0  0  0
   -5.0270   21.5250  -31.5520 C   0  0  0  0  0  0  0  0  0  0  0  0
   -4.9750   20.1560  -31.8420 C   0  0  0  0  0  0  0  0  0  0  0  0
   -5.0200   14.6960  -33.1480 C   0  0  0  0  0  0  0  0  0  0  0  0
   -5.3640   13.4940  -33.6520 N   0  0  0  0  0  0  0  0  0  0  0  0
   -7.6335   11.8589  -34.3011 H   0  0  0  0  0  0  0  0  0  0  0  0
   -7.9802   12.9996  -35.6447 H   0  0  0  0  0  0  0  0  0  0  0  0
   -6.4564   12.0485  -35.6447 H   0  0  0  0  0  0  0  0  0  0  0  0
   -7.8478   15.3352  -34.6540 H   0  0  0  0  0  0  0  0  0  0  0  0
   -7.9460   19.9493  -33.5676 H   0  0  0  0  0  0  0  0  0  0  0  0
   -7.9724   22.4117  -33.0333 H   0  0  0  0  0  0  0  0  0  0  0  0
   -6.4636   24.4752  -31.7548 H   0  0  0  0  0  0  0  0  0  0  0  0
   -1.9150   25.3080  -29.8530 H   0  0  0  0  0  0  0  0  0  0  0  0
   -2.5109   22.5171  -29.5487 H   0  0  0  0  0  0  0  0  0  0  0  0
   -3.0187   20.8149  -29.8496 H   0  0  0  0  0  0  0  0  0  0  0  0
    0.0704   21.9813  -30.2623 H   0  0  0  0  0  0  0  0  0  0  0  0
   -0.1325   20.1846  -34.8397 H   0  0  0  0  0  0  0  0  0  0  0  0
   -1.6207   21.1410  -35.2089 H   0  0  0  0  0  0  0  0  0  0  0  0
    0.7050   22.6810  -34.5080 H   0  0  0  0  0  0  0  0  0  0  0  0
   -0.4580   22.9260  -35.7070 H   0  0  0  0  0  0  0  0  0  0  0  0
   -4.1280   19.5386  -31.5081 H   0  0  0  0  0  0  0  0  0  0  0  0
   -4.1124   14.9091  -32.5642 H   0  0  0  0  0  0  0  0  0  0  0  0
  1  2  1  0
  2  3  1  0
  3  4  2  0
  4  5  1  0
  5  6  3  0
  6  7  1  0
  7  8  2  0
  8  9  1  0
  9 10  2  0
 10 11  1  0
 11 12  2  0
 12 13  1  0
 13 14  1  0
 13 15  2  0
 12 16  1  0
 16 17  1  0
 17 18  1  0
 18 19  2  0
 19 20  1  0
 20 21  1  0
 21 22  1  0
 22 23  1  0
 21 24  2  0
 16 25  1  0
 25 26  2  0
  4 27  1  0
 27 28  2  0
 28  2  1  0
 26  7  1  0
 25 10  1  0
 24 18  1  0
  1 29  1  0
  1 30  1  0
  1 31  1  0
  3 32  1  0
  8 33  1  0
  9 34  1  0
 11 35  1  0
 14 36  1  0
 17 37  1  0
 17 38  1  0
 19 39  1  0
 22 40  1  0
 22 41  1  0
 23 42  1  0
 23 43  1  0
 26 44  1  0
 27 45  1  0
M  CHG  1  14  -1
M  END
>  <UniqueID>  (33) 
33

>  <SMILES>  (33) 
Cn1cc(C#Cc2ccc3cc(C([NH-])=O)n(Cc4coc(CN)n4)c3c2)cn1

>  <Energy>  (33) 
134.53968942570015

>  <Genealogy>  (33) 
Cn1cc(C#Cc2ccc3cc(C([NH-])=O)n(Cc4coc(CN)n4)c3c2)cn1 (protonated)
Cn1cc(C#Cc2ccc3cc(C([NH-])=O)n(Cc4coc(CN)n4)c3c2)cn1 (3D coordinates assigned)
Cn1cc(C#Cc2ccc3cc(C([NH-])=O)n(Cc4coc(CN)n4)c3c2)cn1 (optimized conformer: 134.53968942570015 kcal/mol)

>  <smiles>  (33) 
Cn1cc(C#Cc2ccc3cc(C(N)=O)n(Cc4coc(CN)n4)c3c2)cn1

>  <score_type>  (33) 
oracle

>  <origin>  (33) 
adg

>  <m_score__min__energy>  (33) 
-11.4

>  <m_primary>  (33) 
energy

$$$$
33:0
     RDKit          3D

 38 41  0  0  0  0  0  0  0  0999 V2000
   -5.4520   26.4380  -30.4520 N   0  0  0  0  0  0  0  0  0  0  0  0
   -6.3490   25.4330  -29.9750 C   0  0  0  0  0  0  0  0  0  0  0  0
   -7.1340   25.7060  -29.0290 O   0  0  0  0  0  0  0  0  0  0  0  0
   -6.4170   24.1040  -30.6150 C   0  0  0  0  0  0  0  0  0  0  0  0
   -7.6140   23.4570  -30.9070 C   0  0  0  0  0  0  0  0  0  0  0  0
   -7.2520   22.2940  -31.5440 C   0  0  0  0  0  0  0  0  0  0  0  0
   -8.0450   21.2660  -32.0430 C   0  0  0  0  0  0  0  0  0  0  0  0
   -7.4030   20.1590  -32.6220 C   0  0  0  0  0  0  0  0  0  0  0  0
   -5.9870   20.0910  -32.6830 C   0  0  0  0  0  0  0  0  0  0  0  0
   -5.3190   18.9080  -33.2830 C   0  0  0  0  0  0  0  0  0  0  0  0
   -4.0400   19.0290  -33.8550 C   0  0  0  0  0  0  0  0  0  0  0  0
   -3.4040   17.9200  -34.4210 C   0  0  0  0  0  0  0  0  0  0  0  0
   -4.0370   16.6700  -34.4240 C   0  0  0  0  0  0  0  0  0  0  0  0
   -3.4080   15.5490  -34.9890 C   0  0  0  0  0  0  0  0  0  0  0  0
   -4.0500   14.3080  -34.9880 C   0  0  0  0  0  0  0  0  0  0  0  0
   -5.3220   14.1760  -34.4250 C   0  0  0  0  0  0  0  0  0  0  0  0
   -5.9600   15.2830  -33.8600 C   0  0  0  0  0  0  0  0  0  0  0  0
   -5.3250   16.5350  -33.8530 C   0  0  0  0  0  0  0  0  0  0  0  0
   -5.9560   17.6540  -33.2880 C   0  0  0  0  0  0  0  0  0  0  0  0
   -5.2150   21.1580  -32.1630 C   0  0  0  0  0  0  0  0  0  0  0  0
   -5.8830   22.2590  -31.6120 C   0  0  0  0  0  0  0  0  0  0  0  0
   -5.3540   23.3660  -31.0420 N   0  0  0  0  0  0  0  0  0  0  0  0
   -3.9580   23.6380  -30.8240 C   0  0  0  0  0  0  0  0  0  0  0  0
   -3.1330   22.6910  -30.7360 O   0  0  0  0  0  0  0  0  0  0  0  0
   -3.5040   24.9460  -30.7110 O   0  0  0  0  0  0  0  0  0  0  0  0
   -5.3890   27.3580  -29.9630 H   0  0  0  0  0  0  0  0  0  0  0  0
   -4.9130   26.3050  -31.3350 H   0  0  0  0  0  0  0  0  0  0  0  0
   -8.6327   23.8026  -30.6771 H   0  0  0  0  0  0  0  0  0  0  0  0
   -9.1423   21.3184  -31.9859 H   0  0  0  0  0  0  0  0  0  0  0  0
   -8.0050   19.3351  -33.0330 H   0  0  0  0  0  0  0  0  0  0  0  0
   -3.5348   20.0061  -33.8571 H   0  0  0  0  0  0  0  0  0  0  0  0
   -2.4037   18.0291  -34.8653 H   0  0  0  0  0  0  0  0  0  0  0  0
   -2.4068   15.6481  -35.4337 H   0  0  0  0  0  0  0  0  0  0  0  0
   -3.5528   13.4327  -35.4315 H   0  0  0  0  0  0  0  0  0  0  0  0
   -5.8230   13.1967  -34.4267 H   0  0  0  0  0  0  0  0  0  0  0  0
   -6.9620   15.1734  -33.4197 H   0  0  0  0  0  0  0  0  0  0  0  0
   -6.9575   17.5495  -32.8452 H   0  0  0  0  0  0  0  0  0  0  0  0
   -4.1159   21.1231  -32.1911 H   0  0  0  0  0  0  0  0  0  0  0  0
  1  2  1  0
  2  3  2  0
  2  4  1  0
  4  5  2  0
  5  6  1  0
  6  7  2  0
  7  8  1  0
  8  9  2  0
  9 10  1  0
 10 11  2  0
 11 12  1  0
 12 13  2  0
 13 14  1  0
 14 15  2  0
 15 16  1  0
 16 17  2  0
 17 18  1  0
 18 19  2  0
  9 20  1  0
 20 21  2  0
 21 22  1  0
 22 23  1  0
 23 24  2  0
 23 25  1  0
 22  4  1  0
 21  6  1  0
 19 10  1  0
 18 13  1  0
  1 26  1  0
  1 27  1  0
  5 28  1  0
  7 29  1  0
  8 30  1  0
 11 31  1  0
 12 32  1  0
 14 33  1  0
 15 34  1  0
 16 35  1  0
 17 36  1  0
 19 37  1  0
 20 38  1  0
M  CHG  1  25  -1
M  END
>  <UniqueID>  (34) 
34

>  <SMILES>  (34) 
NC(=O)c1cc2ccc(-c3ccc4ccccc4c3)cc2n1C(=O)[O-]

>  <Energy>  (34) 
91.39606685127303

>  <Genealogy>  (34) 
NC(=O)c1cc2ccc(-c3ccc4ccccc4c3)cc2n1C(=O)[O-] (protonated)
NC(=O)c1cc2ccc(-c3ccc4ccccc4c3)cc2n1C(=O)[O-] (3D coordinates assigned)
NC(=O)c1cc2ccc(-c3ccc4ccccc4c3)cc2n1C(=O)[O-] (optimized conformer: 91.39606685127303 kcal/mol)

>  <smiles>  (34) 
NC(=O)c1cc2ccc(-c3ccc4ccccc4c3)cc2n1C(=O)O

>  <score_type>  (34) 
oracle

>  <origin>  (34) 
adg

>  <m_score__min__energy>  (34) 
-10.789999999999999

>  <m_primary>  (34) 
energy

$$$$
34:0
     RDKit          3D

 34 35  0  0  0  0  0  0  0  0999 V2000
   -4.2600   25.6510  -30.8290 N   0  0  0  0  0  0  0  0  0  0  0  0
   -4.7150   24.3760  -30.3820 C   0  0  0  0  0  0  0  0  0  0  0  0
   -5.8330   24.2820  -29.8080 O   0  0  0  0  0  0  0  0  0  0  0  0
   -3.9060   23.2040  -30.5870 N   0  0  0  0  0  0  0  0  0  0  0  0
   -2.6060   23.0230  -30.2170 C   0  0  0  0  0  0  0  0  0  0  0  0
   -1.8160   23.9250  -29.3590 C   0  0  0  0  0  0  0  0  0  0  0  0
   -2.3960   25.1000  -28.7900 N   0  0  0  0  0  0  0  0  0  0  0  0
   -0.6250   23.6240  -29.0730 O   0  0  0  0  0  0  0  0  0  0  0  0
   -2.1180   21.8150  -30.7090 C   0  0  0  0  0  0  0  0  0  0  0  0
   -3.1720   21.2460  -31.3860 C   0  0  0  0  0  0  0  0  0  0  0  0
   -3.2400   20.0440  -32.0830 C   0  0  0  0  0  0  0  0  0  0  0  0
   -4.4490   19.7190  -32.7190 C   0  0  0  0  0  0  0  0  0  0  0  0
   -5.5590   20.5960  -32.6490 C   0  0  0  0  0  0  0  0  0  0  0  0
   -6.8340   20.2580  -33.3700 C   0  0  0  0  0  0  0  0  0  0  0  0
   -7.7750   19.5310  -32.4520 C   0  0  0  0  0  0  0  0  0  0  0  0
   -7.4560   18.4370  -32.0090 O   0  0  0  0  0  0  0  0  0  0  0  0
   -9.0740   20.1610  -32.0210 C   0  0  0  0  0  0  0  0  0  0  0  0
   -8.8350   21.4750  -31.2790 C   0  0  0  0  0  0  0  0  0  0  0  0
   -9.2810   22.5500  -32.0310 F   0  0  0  0  0  0  0  0  0  0  0  0
   -5.4500   21.8140  -31.9400 C   0  0  0  0  0  0  0  0  0  0  0  0
   -4.2390   22.1040  -31.2990 C   0  0  0  0  0  0  0  0  0  0  0  0
   -3.4700   25.7320  -31.5090 H   0  0  0  0  0  0  0  0  0  0  0  0
   -1.8120   25.7420  -28.2070 H   0  0  0  0  0  0  0  0  0  0  0  0
   -3.4180   25.2940  -28.8800 H   0  0  0  0  0  0  0  0  0  0  0  0
   -1.1057   21.4035  -30.5832 H   0  0  0  0  0  0  0  0  0  0  0  0
   -2.3732   19.3688  -32.1344 H   0  0  0  0  0  0  0  0  0  0  0  0
   -4.5348   18.7747  -33.2767 H   0  0  0  0  0  0  0  0  0  0  0  0
   -7.3111   21.1861  -33.7179 H   0  0  0  0  0  0  0  0  0  0  0  0
   -6.5992   19.6105  -34.2277 H   0  0  0  0  0  0  0  0  0  0  0  0
   -9.6888   20.3591  -32.9114 H   0  0  0  0  0  0  0  0  0  0  0  0
   -9.5874   19.4663  -31.3399 H   0  0  0  0  0  0  0  0  0  0  0  0
   -9.3777   21.4535  -30.3225 H   0  0  0  0  0  0  0  0  0  0  0  0
   -7.7554   21.5903  -31.1026 H   0  0  0  0  0  0  0  0  0  0  0  0
   -6.2952   22.5165  -31.8929 H   0  0  0  0  0  0  0  0  0  0  0  0
  1  2  1  0
  2  3  2  0
  2  4  1  0
  4  5  1  0
  5  6  1  0
  6  7  1  0
  6  8  2  0
  5  9  2  0
  9 10  1  0
 10 11  2  0
 11 12  1  0
 12 13  2  0
 13 14  1  0
 14 15  1  0
 15 16  2  0
 15 17  1  0
 17 18  1  0
 18 19  1  0
 13 20  1  0
 20 21  2  0
 21  4  1  0
 21 10  1  0
  1 22  1  0
  7 23  1  0
  7 24  1  0
  9 25  1  0
 11 26  1  0
 12 27  1  0
 14 28  1  0
 14 29  1  0
 17 30  1  0
 17 31  1  0
 18 32  1  0
 18 33  1  0
 20 34  1  0
M  CHG  1   1  -1
M  END
>  <UniqueID>  (35) 
35

>  <SMILES>  (35) 
[NH-]C(=O)n1c(C(N)=O)cc2ccc(CC(=O)CCF)cc21

>  <Energy>  (35) 
67.77065029357517

>  <Genealogy>  (35) 
[NH-]C(=O)n1c(C(N)=O)cc2ccc(CC(=O)CCF)cc21 (protonated)
[NH-]C(=O)n1c(C(N)=O)cc2ccc(CC(=O)CCF)cc21 (3D coordinates assigned)
[NH-]C(=O)n1c(C(N)=O)cc2ccc(CC(=O)CCF)cc21 (optimized conformer: 67.77065029357517 kcal/mol)

>  <smiles>  (35) 
NC(=O)c1cc2ccc(CC(=O)CCF)cc2n1C(N)=O

>  <score_type>  (35) 
oracle

>  <origin>  (35) 
adg

>  <m_score__min__energy>  (35) 
-8.6199999999999992

>  <m_primary>  (35) 
energy

$$$$
35:0
     RDKit          3D

 49 52  0  0  0  0  0  0  0  0999 V2000
   -3.9940   25.6500  -30.8400 N   0  0  0  0  0  0  0  0  0  0  0  0
   -5.2270   25.0660  -30.4290 C   0  0  0  0  0  0  0  0  0  0  0  0
   -5.9800   25.7040  -29.6460 O   0  0  0  0  0  0  0  0  0  0  0  0
   -5.6580   23.7520  -30.9520 C   0  0  0  0  0  0  0  0  0  0  0  0
   -6.9930   23.4150  -31.1630 C   0  0  0  0  0  0  0  0  0  0  0  0
   -6.9680   22.1630  -31.7320 C   0  0  0  0  0  0  0  0  0  0  0  0
   -8.0160   21.3450  -32.1390 C   0  0  0  0  0  0  0  0  0  0  0  0
   -7.7010   20.0830  -32.6670 C   0  0  0  0  0  0  0  0  0  0  0  0
   -6.3510   19.6540  -32.7750 C   0  0  0  0  0  0  0  0  0  0  0  0
   -6.0380   18.3480  -33.3080 N   0  0  0  0  0  0  0  0  0  0  0  0
   -4.8200   18.1330  -34.0990 C   0  0  0  0  0  0  0  0  0  0  0  0
   -4.3400   16.6860  -33.9290 C   0  0  0  0  0  0  0  0  0  0  0  0
   -5.3690   15.6790  -34.3240 N   0  0  0  0  0  0  0  0  0  0  0  0
   -5.2030   14.4140  -33.5630 C   0  0  0  0  0  0  0  0  0  0  0  0
   -4.3140   14.5840  -32.3080 C   0  0  0  0  0  0  0  0  0  0  0  0
   -2.9030   14.0130  -32.4530 C   0  0  0  0  0  0  0  0  0  0  0  0
   -3.2010   12.9990  -31.3570 C   0  0  0  0  0  0  0  0  0  0  0  0
   -4.6100   13.5560  -31.2160 C   0  0  0  0  0  0  0  0  0  0  0  0
   -6.7700   16.1770  -34.2070 C   0  0  0  0  0  0  0  0  0  0  0  0
   -6.9450   17.2150  -33.0890 C   0  0  0  0  0  0  0  0  0  0  0  0
   -5.3140   20.5190  -32.3470 C   0  0  0  0  0  0  0  0  0  0  0  0
   -5.6570   21.7790  -31.8430 C   0  0  0  0  0  0  0  0  0  0  0  0
   -4.8390   22.7430  -31.3650 N   0  0  0  0  0  0  0  0  0  0  0  0
   -3.4100   22.6610  -31.2430 C   0  0  0  0  0  0  0  0  0  0  0  0
   -2.7220   22.1350  -32.1570 O   0  0  0  0  0  0  0  0  0  0  0  0
   -2.7700   23.1860  -30.1270 O   0  0  0  0  0  0  0  0  0  0  0  0
   -3.0830   25.2980  -30.4700 H   0  0  0  0  0  0  0  0  0  0  0  0
   -7.8793   24.0215  -30.9250 H   0  0  0  0  0  0  0  0  0  0  0  0
   -9.0610   21.6769  -32.0499 H   0  0  0  0  0  0  0  0  0  0  0  0
   -8.5103   19.4174  -33.0016 H   0  0  0  0  0  0  0  0  0  0  0  0
   -5.0353   18.3242  -35.1606 H   0  0  0  0  0  0  0  0  0  0  0  0
   -4.0345   18.8200  -33.7511 H   0  0  0  0  0  0  0  0  0  0  0  0
   -3.4467   16.5375  -34.5534 H   0  0  0  0  0  0  0  0  0  0  0  0
   -4.1248   16.5344  -32.8610 H   0  0  0  0  0  0  0  0  0  0  0  0
   -5.2170   15.4590  -35.3370 H   0  0  0  0  0  0  0  0  0  0  0  0
   -6.1955   14.0613  -33.2460 H   0  0  0  0  0  0  0  0  0  0  0  0
   -4.7066   13.6902  -34.2261 H   0  0  0  0  0  0  0  0  0  0  0  0
   -4.4579   15.6599  -32.1297 H   0  0  0  0  0  0  0  0  0  0  0  0
   -2.6989   13.5644  -33.4364 H   0  0  0  0  0  0  0  0  0  0  0  0
   -2.0253   14.6718  -32.3783 H   0  0  0  0  0  0  0  0  0  0  0  0
   -3.1645   11.9522  -31.6930 H   0  0  0  0  0  0  0  0  0  0  0  0
   -2.5440   12.9232  -30.4780 H   0  0  0  0  0  0  0  0  0  0  0  0
   -5.4038   12.8404  -31.4764 H   0  0  0  0  0  0  0  0  0  0  0  0
   -4.9845   13.8799  -30.2337 H   0  0  0  0  0  0  0  0  0  0  0  0
   -7.0591   16.6386  -35.1627 H   0  0  0  0  0  0  0  0  0  0  0  0
   -7.4066   15.3149  -33.9590 H   0  0  0  0  0  0  0  0  0  0  0  0
   -7.9842   17.5757  -33.0865 H   0  0  0  0  0  0  0  0  0  0  0  0
   -6.7098   16.7465  -32.1219 H   0  0  0  0  0  0  0  0  0  0  0  0
   -4.2610   20.2070  -32.4094 H   0  0  0  0  0  0  0  0  0  0  0  0
  1  2  1  0
  2  3  2  0
  2  4  1  0
  4  5  2  0
  5  6  1  0
  6  7  2  0
  7  8  1  0
  8  9  2  0
  9 10  1  0
 10 11  1  0
 11 12  1  0
 12 13  1  0
 13 14  1  0
 14 15  1  0
 15 16  1  0
 16 17  1  0
 17 18  1  0
 13 19  1  0
 19 20  1  0
  9 21  1  0
 21 22  2  0
 22 23  1  0
 23 24  1  0
 24 25  2  0
 24 26  1  0
 23  4  1  0
 22  6  1  0
 20 10  1  0
 18 15  1  0
  1 27  1  0
  5 28  1  0
  7 29  1  0
  8 30  1  0
 11 31  1  0
 11 32  1  0
 12 33  1  0
 12 34  1  0
 13 35  1  0
 14 36  1  0
 14 37  1  0
 15 38  1  0
 16 39  1  0
 16 40  1  0
 17 41  1  0
 17 42  1  0
 18 43  1  0
 18 44  1  0
 19 45  1  0
 19 46  1  0
 20 47  1  0
 20 48  1  0
 21 49  1  0
M  CHG  3   1  -1  13   1  26  -1
M  END
>  <UniqueID>  (36) 
36

>  <SMILES>  (36) 
[NH-]C(=O)c1cc2ccc(N3CC[NH+](CC4CCC4)CC3)cc2n1C(=O)[O-]

>  <Energy>  (36) 
161.28910492207808

>  <Genealogy>  (36) 
[NH-]C(=O)c1cc2ccc(N3CC[NH+](CC4CCC4)CC3)cc2n1C(=O)[O-] (protonated)
[NH-]C(=O)c1cc2ccc(N3CC[NH+](CC4CCC4)CC3)cc2n1C(=O)[O-] (3D coordinates assigned)
[NH-]C(=O)c1cc2ccc(N3CC[NH+](CC4CCC4)CC3)cc2n1C(=O)[O-] (nonaromatic ring conformer: 161.28910492207808 kcal/mol)

>  <smiles>  (36) 
NC(=O)c1cc2ccc(N3CCN(CC4CCC4)CC3)cc2n1C(=O)O

>  <score_type>  (36) 
oracle

>  <origin>  (36) 
adg

>  <m_score__min__energy>  (36) 
-11.109999999999999

>  <m_primary>  (36) 
energy

$$$$
36:0
     RDKit          3D

 49 50  0  0  0  0  0  0  0  0999 V2000
   -6.4900   16.5480  -34.1540 C   0  0  0  0  0  0  0  0  0  0  0  0
   -5.9640   17.8570  -33.5280 C   0  0  0  0  0  0  0  0  0  0  0  0
   -6.0930   18.9890  -34.5640 C   0  0  0  0  0  0  0  0  0  0  0  0
   -6.7320   18.2230  -32.2240 C   0  0  0  0  0  0  0  0  0  0  0  0
   -6.8970   19.7090  -31.9990 C   0  0  0  0  0  0  0  0  0  0  0  0
   -8.1290   20.3420  -32.3030 C   0  0  0  0  0  0  0  0  0  0  0  0
   -8.2960   21.7220  -32.0970 C   0  0  0  0  0  0  0  0  0  0  0  0
   -7.2170   22.4410  -31.5930 C   0  0  0  0  0  0  0  0  0  0  0  0
   -7.1140   23.7760  -31.2780 C   0  0  0  0  0  0  0  0  0  0  0  0
   -5.8140   23.9460  -30.8060 C   0  0  0  0  0  0  0  0  0  0  0  0
   -5.2520   25.2600  -30.4340 C   0  0  0  0  0  0  0  0  0  0  0  0
   -3.9630   25.6620  -30.8880 N   0  0  0  0  0  0  0  0  0  0  0  0
   -5.9400   26.0610  -29.7460 O   0  0  0  0  0  0  0  0  0  0  0  0
   -5.1420   22.7580  -30.8190 N   0  0  0  0  0  0  0  0  0  0  0  0
   -3.8150   22.4900  -30.3380 C   0  0  0  0  0  0  0  0  0  0  0  0
   -3.6190   21.5890  -29.4790 O   0  0  0  0  0  0  0  0  0  0  0  0
   -2.7310   23.2030  -30.8340 O   0  0  0  0  0  0  0  0  0  0  0  0
   -6.0150   21.8480  -31.3060 C   0  0  0  0  0  0  0  0  0  0  0  0
   -5.8270   20.4720  -31.4810 C   0  0  0  0  0  0  0  0  0  0  0  0
   -4.5350   17.7180  -33.2240 N   0  0  0  0  0  0  0  0  0  0  0  0
   -3.4420   18.0060  -34.1030 C   0  0  0  0  0  0  0  0  0  0  0  0
   -2.7820   17.0470  -34.5830 O   0  0  0  0  0  0  0  0  0  0  0  0
   -3.1190   19.3340  -34.4170 O   0  0  0  0  0  0  0  0  0  0  0  0
   -2.5980   20.3230  -33.5170 C   0  0  0  0  0  0  0  0  0  0  0  0
   -1.2430   20.7750  -34.0790 C   0  0  0  0  0  0  0  0  0  0  0  0
   -2.3810   19.7210  -32.1160 C   0  0  0  0  0  0  0  0  0  0  0  0
   -3.5400   21.5400  -33.4460 C   0  0  0  0  0  0  0  0  0  0  0  0
   -6.7718   15.8467  -33.3548 H   0  0  0  0  0  0  0  0  0  0  0  0
   -7.3699   16.7671  -34.7767 H   0  0  0  0  0  0  0  0  0  0  0  0
   -5.7032   16.0973  -34.7767 H   0  0  0  0  0  0  0  0  0  0  0  0
   -6.2027   19.9518  -34.0434 H   0  0  0  0  0  0  0  0  0  0  0  0
   -5.1918   19.0136  -35.1943 H   0  0  0  0  0  0  0  0  0  0  0  0
   -6.9766   18.8102  -35.1943 H   0  0  0  0  0  0  0  0  0  0  0  0
   -7.7324   17.7683  -32.2735 H   0  0  0  0  0  0  0  0  0  0  0  0
   -6.1315   17.8408  -31.3853 H   0  0  0  0  0  0  0  0  0  0  0  0
   -8.9625   19.7467  -32.7042 H   0  0  0  0  0  0  0  0  0  0  0  0
   -9.2503   22.2183  -32.3271 H   0  0  0  0  0  0  0  0  0  0  0  0
   -7.8929   24.5463  -31.3776 H   0  0  0  0  0  0  0  0  0  0  0  0
   -3.0950   25.2990  -30.4340 H   0  0  0  0  0  0  0  0  0  0  0  0
   -4.8696   19.9965  -31.2215 H   0  0  0  0  0  0  0  0  0  0  0  0
   -0.5591   21.0031  -33.2482 H   0  0  0  0  0  0  0  0  0  0  0  0
   -0.8152   19.9709  -34.6958 H   0  0  0  0  0  0  0  0  0  0  0  0
   -1.3836   21.6749  -34.6958 H   0  0  0  0  0  0  0  0  0  0  0  0
   -2.6492   20.4651  -31.3516 H   0  0  0  0  0  0  0  0  0  0  0  0
   -3.0143   18.8294  -31.9979 H   0  0  0  0  0  0  0  0  0  0  0  0
   -1.3245   19.4385  -31.9979 H   0  0  0  0  0  0  0  0  0  0  0  0
   -3.7349   21.7918  -32.3931 H   0  0  0  0  0  0  0  0  0  0  0  0
   -3.0686   22.3983  -33.9471 H   0  0  0  0  0  0  0  0  0  0  0  0
   -4.4891   21.2988  -33.9471 H   0  0  0  0  0  0  0  0  0  0  0  0
  1  2  1  0
  2  3  1  0
  2  4  1  0
  4  5  1  0
  5  6  2  0
  6  7  1  0
  7  8  2  0
  8  9  1  0
  9 10  2  0
 10 11  1  0
 11 12  1  0
 11 13  2  0
 10 14  1  0
 14 15  1  0
 15 16  2  0
 15 17  1  0
 14 18  1  0
 18 19  2  0
  2 20  1  0
 20 21  1  0
 21 22  2  0
 21 23  1  0
 23 24  1  0
 24 25  1  0
 24 26  1  0
 24 27  1  0
 19  5  1  0
 18  8  1  0
  1 28  1  0
  1 29  1  0
  1 30  1  0
  3 31  1  0
  3 32  1  0
  3 33  1  0
  4 34  1  0
  4 35  1  0
  6 36  1  0
  7 37  1  0
  9 38  1  0
 12 39  1  0
 19 40  1  0
 25 41  1  0
 25 42  1  0
 25 43  1  0
 26 44  1  0
 26 45  1  0
 26 46  1  0
 27 47  1  0
 27 48  1  0
 27 49  1  0
M  CHG  3  12  -1  17  -1  20  -1
M  END
>  <UniqueID>  (37) 
37

>  <SMILES>  (37) 
CC(C)(Cc1ccc2cc(C([NH-])=O)n(C(=O)[O-])c2c1)[N-]C(=O)OC(C)(C)C

>  <Energy>  (37) 
78.988777079376

>  <Genealogy>  (37) 
CC(C)(Cc1ccc2cc(C([NH-])=O)n(C(=O)[O-])c2c1)[N-]C(=O)OC(C)(C)C (protonated)
CC(C)(Cc1ccc2cc(C([NH-])=O)n(C(=O)[O-])c2c1)[N-]C(=O)OC(C)(C)C (3D coordinates assigned)
CC(C)(Cc1ccc2cc(C([NH-])=O)n(C(=O)[O-])c2c1)[N-]C(=O)OC(C)(C)C (optimized conformer: 78.988777079376 kcal/mol)

>  <smiles>  (37) 
CC(C)(Cc1ccc2cc(C(N)=O)n(C(=O)O)c2c1)NC(=O)OC(C)(C)C

>  <score_type>  (37) 
oracle

>  <origin>  (37) 
adg

>  <m_score__min__energy>  (37) 
-11.92

>  <m_primary>  (37) 
energy

$$$$
37:0
     RDKit          3D

 47 50  0  0  0  0  0  0  0  0999 V2000
   -7.4950   18.4870  -32.7130 C   0  0  0  0  0  0  0  0  0  0  0  0
   -7.5320   19.9050  -32.2210 C   0  0  0  0  0  0  0  0  0  0  0  0
   -8.7750   20.5550  -32.0220 C   0  0  0  0  0  0  0  0  0  0  0  0
   -8.8230   21.8870  -31.5730 C   0  0  0  0  0  0  0  0  0  0  0  0
   -7.6170   22.5450  -31.3530 C   0  0  0  0  0  0  0  0  0  0  0  0
   -7.3730   23.8160  -30.8870 C   0  0  0  0  0  0  0  0  0  0  0  0
   -5.9850   23.9340  -30.8400 C   0  0  0  0  0  0  0  0  0  0  0  0
   -5.2830   25.1780  -30.4560 C   0  0  0  0  0  0  0  0  0  0  0  0
   -3.8790   25.2930  -30.6670 N   0  0  0  0  0  0  0  0  0  0  0  0
   -5.9050   26.1310  -29.9160 O   0  0  0  0  0  0  0  0  0  0  0  0
   -5.3930   22.7790  -31.2600 N   0  0  0  0  0  0  0  0  0  0  0  0
   -3.9920   22.4680  -31.2960 C   0  0  0  0  0  0  0  0  0  0  0  0
   -3.3930   22.4130  -32.4060 O   0  0  0  0  0  0  0  0  0  0  0  0
   -3.3060   22.1380  -30.0800 N   0  0  0  0  0  0  0  0  0  0  0  0
   -2.8040   23.0650  -29.1070 C   0  0  0  0  0  0  0  0  0  0  0  0
   -3.6310   23.4550  -28.0520 C   0  0  0  0  0  0  0  0  0  0  0  0
   -3.1700   24.3560  -27.0910 C   0  0  0  0  0  0  0  0  0  0  0  0
   -1.8730   24.8900  -27.2010 C   0  0  0  0  0  0  0  0  0  0  0  0
   -1.3450   25.8150  -26.2220 N   0  0  0  0  0  0  0  0  0  0  0  0
   -0.8810   27.1360  -26.6710 C   0  0  0  0  0  0  0  0  0  0  0  0
   -0.8870   28.1370  -25.5130 C   0  0  0  0  0  0  0  0  0  0  0  0
   -0.2150   27.6080  -24.3900 O   0  0  0  0  0  0  0  0  0  0  0  0
   -0.9460   26.5120  -23.8810 C   0  0  0  0  0  0  0  0  0  0  0  0
   -0.9590   25.3510  -24.8800 C   0  0  0  0  0  0  0  0  0  0  0  0
   -1.0970   24.5120  -28.2560 N   0  0  0  0  0  0  0  0  0  0  0  0
   -1.5230   23.6330  -29.2000 C   0  0  0  0  0  0  0  0  0  0  0  0
   -6.4060   21.9390  -31.5710 C   0  0  0  0  0  0  0  0  0  0  0  0
   -6.3280   20.6090  -32.0020 C   0  0  0  0  0  0  0  0  0  0  0  0
   -7.4771   17.8010  -31.8533 H   0  0  0  0  0  0  0  0  0  0  0  0
   -8.3882   18.2871  -33.3231 H   0  0  0  0  0  0  0  0  0  0  0  0
   -6.5926   18.3340  -33.3231 H   0  0  0  0  0  0  0  0  0  0  0  0
   -9.7113   20.0129  -32.2205 H   0  0  0  0  0  0  0  0  0  0  0  0
   -9.7845   22.3930  -31.4011 H   0  0  0  0  0  0  0  0  0  0  0  0
   -8.1162   24.5782  -30.6100 H   0  0  0  0  0  0  0  0  0  0  0  0
   -3.4850   26.0420  -31.2800 H   0  0  0  0  0  0  0  0  0  0  0  0
   -4.6511   23.0501  -27.9778 H   0  0  0  0  0  0  0  0  0  0  0  0
   -3.8179   24.6474  -26.2512 H   0  0  0  0  0  0  0  0  0  0  0  0
    0.1426   27.0445  -27.0632 H   0  0  0  0  0  0  0  0  0  0  0  0
   -1.5606   27.5004  -27.4554 H   0  0  0  0  0  0  0  0  0  0  0  0
   -0.3832   29.0612  -25.8325 H   0  0  0  0  0  0  0  0  0  0  0  0
   -1.9300   28.3467  -25.2334 H   0  0  0  0  0  0  0  0  0  0  0  0
   -0.4818   26.1743  -22.9427 H   0  0  0  0  0  0  0  0  0  0  0  0
   -1.9828   26.8337  -23.7033 H   0  0  0  0  0  0  0  0  0  0  0  0
    0.0461   24.9066  -24.9282 H   0  0  0  0  0  0  0  0  0  0  0  0
   -1.6939   24.6056  -24.5418 H   0  0  0  0  0  0  0  0  0  0  0  0
   -0.8634   23.3656  -30.0387 H   0  0  0  0  0  0  0  0  0  0  0  0
   -5.3538   20.1252  -32.1657 H   0  0  0  0  0  0  0  0  0  0  0  0
  1  2  1  0
  2  3  2  0
  3  4  1  0
  4  5  2  0
  5  6  1  0
  6  7  2  0
  7  8  1  0
  8  9  1  0
  8 10  2  0
  7 11  1  0
 11 12  1  0
 12 13  2  0
 12 14  1  0
 14 15  1  0
 15 16  2  0
 16 17  1  0
 17 18  2  0
 18 19  1  0
 19 20  1  0
 20 21  1  0
 21 22  1  0
 22 23  1  0
 23 24  1  0
 18 25  1  0
 25 26  2  0
 11 27  1  0
 27 28  2  0
 28  2  1  0
 27  5  1  0
 26 15  1  0
 24 19  1  0
  1 29  1  0
  1 30  1  0
  1 31  1  0
  3 32  1  0
  4 33  1  0
  6 34  1  0
  9 35  1  0
 16 36  1  0
 17 37  1  0
 20 38  1  0
 20 39  1  0
 21 40  1  0
 21 41  1  0
 23 42  1  0
 23 43  1  0
 24 44  1  0
 24 45  1  0
 26 46  1  0
 28 47  1  0
M  CHG  2   9  -1  14  -1
M  END
>  <UniqueID>  (38) 
38

>  <SMILES>  (38) 
Cc1ccc2cc(C([NH-])=O)n(C(=O)[N-]c3ccc(N4CCOCC4)nc3)c2c1

>  <Energy>  (38) 
97.36419484709414

>  <Genealogy>  (38) 
Cc1ccc2cc(C([NH-])=O)n(C(=O)[N-]c3ccc(N4CCOCC4)nc3)c2c1 (protonated)
Cc1ccc2cc(C([NH-])=O)n(C(=O)[N-]c3ccc(N4CCOCC4)nc3)c2c1 (3D coordinates assigned)
Cc1ccc2cc(C([NH-])=O)n(C(=O)[N-]c3ccc(N4CCOCC4)nc3)c2c1 (nonaromatic ring conformer: 97.36419484709414 kcal/mol)

>  <smiles>  (38) 
Cc1ccc2cc(C(N)=O)n(C(=O)Nc3ccc(N4CCOCC4)nc3)c2c1

>  <score_type>  (38) 
oracle

>  <origin>  (38) 
adg

>  <m_score__min__energy>  (38) 
-12.41

>  <m_primary>  (38) 
energy

$$$$
38:0
     RDKit          3D

 44 46  0  0  0  0  0  0  0  0999 V2000
   -3.5770   16.8180  -35.6980 C   0  0  0  0  0  0  0  0  0  0  0  0
   -4.2610   16.0150  -34.5730 C   0  0  2  0  0  0  0  0  0  0  0  0
   -5.3810   16.8050  -33.9530 C   0  0  0  0  0  0  0  0  0  0  0  0
   -6.6260   16.3060  -33.6220 C   0  0  0  0  0  0  0  0  0  0  0  0
   -7.3120   17.3580  -33.0540 C   0  0  0  0  0  0  0  0  0  0  0  0
   -6.4410   18.4360  -33.0690 C   0  0  0  0  0  0  0  0  0  0  0  0
   -6.6990   19.8030  -32.5630 C   0  0  0  0  0  0  0  0  0  0  0  0
   -8.0220   20.2990  -32.4100 C   0  0  0  0  0  0  0  0  0  0  0  0
   -8.2520   21.5930  -31.9160 C   0  0  0  0  0  0  0  0  0  0  0  0
   -7.1490   22.3730  -31.5880 C   0  0  0  0  0  0  0  0  0  0  0  0
   -7.0850   23.6460  -31.0690 C   0  0  0  0  0  0  0  0  0  0  0  0
   -5.7260   23.9210  -30.9290 C   0  0  0  0  0  0  0  0  0  0  0  0
   -5.2000   25.2270  -30.4830 C   0  0  0  0  0  0  0  0  0  0  0  0
   -3.8950   25.6590  -30.8600 N   0  0  0  0  0  0  0  0  0  0  0  0
   -5.9280   25.9930  -29.7980 O   0  0  0  0  0  0  0  0  0  0  0  0
   -4.9800   22.8550  -31.3390 N   0  0  0  0  0  0  0  0  0  0  0  0
   -3.5540   22.6990  -31.2750 C   0  0  0  0  0  0  0  0  0  0  0  0
   -2.8460   22.0780  -32.3480 N   0  0  0  0  0  0  0  0  0  0  0  0
   -2.9160   23.1410  -30.2840 O   0  0  0  0  0  0  0  0  0  0  0  0
   -5.8650   21.9200  -31.7430 C   0  0  0  0  0  0  0  0  0  0  0  0
   -5.6050   20.6300  -32.2180 C   0  0  0  0  0  0  0  0  0  0  0  0
   -5.3000   18.0700  -33.6090 O   0  0  0  0  0  0  0  0  0  0  0  0
   -3.3330   15.5420  -33.5120 N   0  0  0  0  0  0  0  0  0  0  0  0
   -3.9970   14.8370  -32.4010 C   0  0  0  0  0  0  0  0  0  0  0  0
   -2.4740   16.6220  -33.0010 C   0  0  0  0  0  0  0  0  0  0  0  0
   -2.9238   17.5849  -35.2561 H   0  0  0  0  0  0  0  0  0  0  0  0
   -2.9759   16.1386  -36.3202 H   0  0  0  0  0  0  0  0  0  0  0  0
   -4.3434   17.3034  -36.3202 H   0  0  0  0  0  0  0  0  0  0  0  0
   -4.6607   15.1150  -35.0631 H   0  0  0  0  0  0  0  0  0  0  0  0
   -6.9937   15.2813  -33.7792 H   0  0  0  0  0  0  0  0  0  0  0  0
   -8.3417   17.3447  -32.6673 H   0  0  0  0  0  0  0  0  0  0  0  0
   -8.8761   19.6614  -32.6819 H   0  0  0  0  0  0  0  0  0  0  0  0
   -9.2749   21.9783  -31.7922 H   0  0  0  0  0  0  0  0  0  0  0  0
   -7.9280   24.3065  -30.8179 H   0  0  0  0  0  0  0  0  0  0  0  0
   -3.0470   25.2920  -30.3750 H   0  0  0  0  0  0  0  0  0  0  0  0
   -1.8110   21.9540  -32.2970 H   0  0  0  0  0  0  0  0  0  0  0  0
   -3.3510   21.7720  -33.2100 H   0  0  0  0  0  0  0  0  0  0  0  0
   -4.5718   20.2668  -32.3209 H   0  0  0  0  0  0  0  0  0  0  0  0
   -3.6262   15.2307  -31.4431 H   0  0  0  0  0  0  0  0  0  0  0  0
   -5.0840   14.9929  -32.4653 H   0  0  0  0  0  0  0  0  0  0  0  0
   -3.7764   13.7613  -32.4653 H   0  0  0  0  0  0  0  0  0  0  0  0
   -2.4841   16.6092  -31.9011 H   0  0  0  0  0  0  0  0  0  0  0  0
   -1.4450   16.4730  -33.3599 H   0  0  0  0  0  0  0  0  0  0  0  0
   -2.8508   17.5911  -33.3599 H   0  0  0  0  0  0  0  0  0  0  0  0
  1  2  1  0
  2  3  1  0
  3  4  2  0
  4  5  1  0
  5  6  2  0
  6  7  1  0
  7  8  2  0
  8  9  1  0
  9 10  2  0
 10 11  1  0
 11 12  2  0
 12 13  1  0
 13 14  1  0
 13 15  2  0
 12 16  1  0
 16 17  1  0
 17 18  1  0
 17 19  2  0
 16 20  1  0
 20 21  2  0
  6 22  1  0
  2 23  1  0
 23 24  1  0
 23 25  1  0
 22  3  1  0
 21  7  1  0
 20 10  1  0
  1 26  1  0
  1 27  1  0
  1 28  1  0
  2 29  1  6
  4 30  1  0
  5 31  1  0
  8 32  1  0
  9 33  1  0
 11 34  1  0
 14 35  1  0
 18 36  1  0
 18 37  1  0
 21 38  1  0
 24 39  1  0
 24 40  1  0
 24 41  1  0
 25 42  1  0
 25 43  1  0
 25 44  1  0
M  CHG  1  14  -1
M  END
>  <UniqueID>  (39) 
39

>  <SMILES>  (39) 
C[C@H](c1ccc(-c2ccc3cc(C([NH-])=O)n(C(N)=O)c3c2)o1)N(C)C

>  <Energy>  (39) 
113.40398045724291

>  <Genealogy>  (39) 
C[C@H](c1ccc(-c2ccc3cc(C([NH-])=O)n(C(N)=O)c3c2)o1)N(C)C (protonated)
C[C@H](c1ccc(-c2ccc3cc(C([NH-])=O)n(C(N)=O)c3c2)o1)N(C)C (3D coordinates assigned)
C[C@H](c1ccc(-c2ccc3cc(C([NH-])=O)n(C(N)=O)c3c2)o1)N(C)C (optimized conformer: 113.40398045724291 kcal/mol)

>  <smiles>  (39) 
C[C@H](c1ccc(-c2ccc3cc(C(N)=O)n(C(N)=O)c3c2)o1)N(C)C

>  <score_type>  (39) 
oracle

>  <origin>  (39) 
adg

>  <m_score__min__energy>  (39) 
-10.289999999999999

>  <m_primary>  (39) 
energy

$$$$
39:0
     RDKit          3D

 50 53  0  0  0  0  0  0  0  0999 V2000
   -6.4850   17.2510  -34.0530 C   0  0  0  0  0  0  0  0  0  0  0  0
   -6.6530   18.2880  -33.4640 C   0  0  0  0  0  0  0  0  0  0  0  0
   -6.8550   19.5270  -32.7610 C   0  0  0  0  0  0  0  0  0  0  0  0
   -8.1570   19.9110  -32.3660 C   0  0  0  0  0  0  0  0  0  0  0  0
   -8.3660   21.1130  -31.6670 C   0  0  0  0  0  0  0  0  0  0  0  0
   -7.2550   21.9050  -31.3860 C   0  0  0  0  0  0  0  0  0  0  0  0
   -7.1660   23.1060  -30.7190 C   0  0  0  0  0  0  0  0  0  0  0  0
   -5.8110   23.4370  -30.7370 C   0  0  0  0  0  0  0  0  0  0  0  0
   -5.2560   24.7090  -30.2260 C   0  0  0  0  0  0  0  0  0  0  0  0
   -5.7530   25.2940  -29.0220 N   0  0  0  0  0  0  0  0  0  0  0  0
   -4.3420   25.2970  -30.8630 O   0  0  0  0  0  0  0  0  0  0  0  0
   -5.0960   22.4750  -31.3820 N   0  0  0  0  0  0  0  0  0  0  0  0
   -3.6750   22.4120  -31.5620 C   0  0  0  0  0  0  0  0  0  0  0  0
   -3.1930   22.2600  -32.7150 O   0  0  0  0  0  0  0  0  0  0  0  0
   -2.8030   22.4700  -30.4340 N   0  0  0  0  0  0  0  0  0  0  0  0
   -2.9180   22.4150  -28.9630 C   0  0  0  0  0  0  0  0  0  0  0  0
   -1.4450   22.3960  -28.6900 C   0  0  0  0  0  0  0  0  0  0  0  0
   -0.9830   23.5690  -27.8970 N   0  0  0  0  0  0  0  0  0  0  0  0
   -0.8140   23.3770  -26.4420 C   0  0  0  0  0  0  0  0  0  0  0  0
   -0.1050   24.6000  -25.8470 C   0  0  0  0  0  0  0  0  0  0  0  0
   -0.8270   25.8590  -26.1330 N   0  0  0  0  0  0  0  0  0  0  0  0
   -2.0070   26.0420  -25.2720 C   0  0  0  0  0  0  0  0  0  0  0  0
   -1.1510   26.0010  -27.5680 C   0  0  0  0  0  0  0  0  0  0  0  0
   -1.8240   24.7480  -28.1520 C   0  0  0  0  0  0  0  0  0  0  0  0
   -1.3490   22.4500  -30.1910 C   0  0  0  0  0  0  0  0  0  0  0  0
   -5.9910   21.5470  -31.7770 C   0  0  0  0  0  0  0  0  0  0  0  0
   -5.7520   20.3520  -32.4620 C   0  0  0  0  0  0  0  0  0  0  0  0
   -6.3316   16.3039  -34.5910 H   0  0  0  0  0  0  0  0  0  0  0  0
   -9.0134   19.2643  -32.6074 H   0  0  0  0  0  0  0  0  0  0  0  0
   -9.3748   21.4183  -31.3521 H   0  0  0  0  0  0  0  0  0  0  0  0
   -7.9878   23.6817  -30.2682 H   0  0  0  0  0  0  0  0  0  0  0  0
   -6.4680   24.8090  -28.4350 H   0  0  0  0  0  0  0  0  0  0  0  0
   -5.3660   26.2030  -28.6850 H   0  0  0  0  0  0  0  0  0  0  0  0
   -3.4165   23.3008  -28.5425 H   0  0  0  0  0  0  0  0  0  0  0  0
   -3.5174   21.5968  -28.5373 H   0  0  0  0  0  0  0  0  0  0  0  0
   -0.8958   21.6422  -28.1067 H   0  0  0  0  0  0  0  0  0  0  0  0
   -1.8006   23.2589  -25.9701 H   0  0  0  0  0  0  0  0  0  0  0  0
   -0.2106   22.4760  -26.2574 H   0  0  0  0  0  0  0  0  0  0  0  0
   -0.0337   24.4724  -24.7568 H   0  0  0  0  0  0  0  0  0  0  0  0
    0.8912   24.6700  -26.3081 H   0  0  0  0  0  0  0  0  0  0  0  0
   -1.7015   25.9946  -24.2163 H   0  0  0  0  0  0  0  0  0  0  0  0
   -2.4630   27.0216  -25.4782 H   0  0  0  0  0  0  0  0  0  0  0  0
   -2.7382   25.2465  -25.4782 H   0  0  0  0  0  0  0  0  0  0  0  0
   -1.8318   26.8561  -27.6920 H   0  0  0  0  0  0  0  0  0  0  0  0
   -0.2049   26.1520  -28.1085 H   0  0  0  0  0  0  0  0  0  0  0  0
   -2.8063   24.6059  -27.6777 H   0  0  0  0  0  0  0  0  0  0  0  0
   -1.9526   24.8759  -29.2370 H   0  0  0  0  0  0  0  0  0  0  0  0
   -0.8445   23.3581  -30.5528 H   0  0  0  0  0  0  0  0  0  0  0  0
   -0.7668   21.6593  -30.6868 H   0  0  0  0  0  0  0  0  0  0  0  0
   -4.7328   20.0640  -32.7590 H   0  0  0  0  0  0  0  0  0  0  0  0
  1  2  3  0
  2  3  1  0
  3  4  2  0
  4  5  1  0
  5  6  2  0
  6  7  1  0
  7  8  2  0
  8  9  1  0
  9 10  1  0
  9 11  2  0
  8 12  1  0
 12 13  1  0
 13 14  2  0
 13 15  1  0
 15 16  1  0
 16 17  1  0
 17 18  1  0
 18 19  1  0
 19 20  1  0
 20 21  1  0
 21 22  1  0
 21 23  1  0
 23 24  1  0
 17 25  1  0
 12 26  1  0
 26 27  2  0
 27  3  1  0
 26  6  1  0
 25 15  1  0
 24 18  1  0
  1 28  1  0
  4 29  1  0
  5 30  1  0
  7 31  1  0
 10 32  1  0
 10 33  1  0
 16 34  1  0
 16 35  1  0
 17 36  1  0
 19 37  1  0
 19 38  1  0
 20 39  1  0
 20 40  1  0
 22 41  1  0
 22 42  1  0
 22 43  1  0
 23 44  1  0
 23 45  1  0
 24 46  1  0
 24 47  1  0
 25 48  1  0
 25 49  1  0
 27 50  1  0
M  END
>  <UniqueID>  (40) 
40

>  <SMILES>  (40) 
C#Cc1ccc2cc(C(N)=O)n(C(=O)N3CC(N4CCN(C)CC4)C3)c2c1

>  <Energy>  (40) 
145.74956189822169

>  <Genealogy>  (40) 
C#Cc1ccc2cc(C(N)=O)n(C(=O)N3CC(N4CCN(C)CC4)C3)c2c1 (3D coordinates assigned)
C#Cc1ccc2cc(C(N)=O)n(C(=O)N3CC(N4CCN(C)CC4)C3)c2c1 (nonaromatic ring conformer: 145.74956189822169 kcal/mol)

>  <smiles>  (40) 
C#Cc1ccc2cc(C(N)=O)n(C(=O)N3CC(N4CCN(C)CC4)C3)c2c1

>  <score_type>  (40) 
oracle

>  <origin>  (40) 
adg

>  <m_score__min__energy>  (40) 
-10.390000000000001

>  <m_primary>  (40) 
energy

$$$$
40:0
     RDKit          3D

 38 39  0  0  0  0  0  0  0  0999 V2000
   -8.7850   18.7990  -31.4060 C   0  0  0  0  0  0  0  0  0  0  0  0
   -9.1040   20.0630  -32.2020 C   0  0  0  0  0  0  0  0  0  0  0  0
   -9.4750   21.2580  -31.3080 C   0  0  0  0  0  0  0  0  0  0  0  0
   -9.2550   22.6200  -31.9750 C   0  0  0  0  0  0  0  0  0  0  0  0
   -7.8640   22.8720  -32.1400 O   0  0  0  0  0  0  0  0  0  0  0  0
   -6.9480   22.7910  -31.0870 C   0  0  0  0  0  0  0  0  0  0  0  0
   -7.3280   22.9740  -29.8980 O   0  0  0  0  0  0  0  0  0  0  0  0
   -5.5670   22.5150  -31.3670 N   0  0  0  0  0  0  0  0  0  0  0  0
   -4.4780   23.2630  -31.0280 C   0  0  0  0  0  0  0  0  0  0  0  0
   -4.4990   24.4710  -30.1730 C   0  0  0  0  0  0  0  0  0  0  0  0
   -5.2550   24.4950  -28.9610 N   0  0  0  0  0  0  0  0  0  0  0  0
   -3.8680   25.5040  -30.5210 O   0  0  0  0  0  0  0  0  0  0  0  0
   -3.3140   22.6760  -31.5210 C   0  0  0  0  0  0  0  0  0  0  0  0
   -3.7270   21.5390  -32.1780 C   0  0  0  0  0  0  0  0  0  0  0  0
   -2.9850   20.5760  -32.8540 C   0  0  0  0  0  0  0  0  0  0  0  0
   -3.6780   19.5130  -33.4570 C   0  0  0  0  0  0  0  0  0  0  0  0
   -5.0950   19.4460  -33.4010 C   0  0  0  0  0  0  0  0  0  0  0  0
   -5.8300   18.2830  -34.0190 C   0  0  0  0  0  0  0  0  0  0  0  0
   -5.0500   17.1470  -33.9160 F   0  0  0  0  0  0  0  0  0  0  0  0
   -6.0990   18.5270  -35.3540 F   0  0  0  0  0  0  0  0  0  0  0  0
   -7.0320   18.0650  -33.3680 F   0  0  0  0  0  0  0  0  0  0  0  0
   -5.8100   20.4340  -32.6850 C   0  0  0  0  0  0  0  0  0  0  0  0
   -5.0910   21.4670  -32.0730 C   0  0  0  0  0  0  0  0  0  0  0  0
   -8.8407   19.0196  -30.3298 H   0  0  0  0  0  0  0  0  0  0  0  0
   -9.5131   18.0138  -31.6575 H   0  0  0  0  0  0  0  0  0  0  0  0
   -7.7715   18.4533  -31.6575 H   0  0  0  0  0  0  0  0  0  0  0  0
   -8.2210   20.3331  -32.7997 H   0  0  0  0  0  0  0  0  0  0  0  0
   -9.9761   19.8421  -32.8349 H   0  0  0  0  0  0  0  0  0  0  0  0
  -10.5376   21.1719  -31.0371 H   0  0  0  0  0  0  0  0  0  0  0  0
   -8.8128   21.2199  -30.4304 H   0  0  0  0  0  0  0  0  0  0  0  0
   -9.7436   22.6243  -32.9605 H   0  0  0  0  0  0  0  0  0  0  0  0
   -9.6867   23.4044  -31.3360 H   0  0  0  0  0  0  0  0  0  0  0  0
   -5.2940   25.3660  -28.3850 H   0  0  0  0  0  0  0  0  0  0  0  0
   -5.7430   23.6430  -28.6080 H   0  0  0  0  0  0  0  0  0  0  0  0
   -2.2833   23.0435  -31.4088 H   0  0  0  0  0  0  0  0  0  0  0  0
   -1.8888   20.6447  -32.9146 H   0  0  0  0  0  0  0  0  0  0  0  0
   -3.1164   18.7238  -33.9783 H   0  0  0  0  0  0  0  0  0  0  0  0
   -6.9067   20.3915  -32.6108 H   0  0  0  0  0  0  0  0  0  0  0  0
  1  2  1  0
  2  3  1  0
  3  4  1  0
  4  5  1  0
  5  6  1  0
  6  7  2  0
  6  8  1  0
  8  9  1  0
  9 10  1  0
 10 11  1  0
 10 12  2  0
  9 13  2  0
 13 14  1  0
 14 15  2  0
 15 16  1  0
 16 17  2  0
 17 18  1  0
 18 19  1  0
 18 20  1  0
 18 21  1  0
 17 22  1  0
 22 23  2  0
 23  8  1  0
 23 14  1  0
  1 24  1  0
  1 25  1  0
  1 26  1  0
  2 27  1  0
  2 28  1  0
  3 29  1  0
  3 30  1  0
  4 31  1  0
  4 32  1  0
 11 33  1  0
 11 34  1  0
 13 35  1  0
 15 36  1  0
 16 37  1  0
 22 38  1  0
M  END
>  <UniqueID>  (41) 
41

>  <SMILES>  (41) 
CCCCOC(=O)n1c(C(N)=O)cc2ccc(C(F)(F)F)cc21

>  <Energy>  (41) 
68.2611763125483

>  <Genealogy>  (41) 
CCCCOC(=O)n1c(C(N)=O)cc2ccc(C(F)(F)F)cc21 (3D coordinates assigned)
CCCCOC(=O)n1c(C(N)=O)cc2ccc(C(F)(F)F)cc21 (optimized conformer: 68.2611763125483 kcal/mol)

>  <smiles>  (41) 
CCCCOC(=O)n1c(C(N)=O)cc2ccc(C(F)(F)F)cc21

>  <score_type>  (41) 
oracle

>  <origin>  (41) 
adg

>  <m_score__min__energy>  (41) 
-8.0399999999999991

>  <m_primary>  (41) 
energy

$$$$
41:0
     RDKit          3D

 35 37  0  0  0  0  0  0  0  0999 V2000
   -6.0390   18.9340  -34.1150 C   0  0  0  0  0  0  0  0  0  0  0  0
   -6.3290   20.1200  -33.1790 C   0  0  2  0  0  0  0  0  0  0  0  0
   -5.0520   20.5270  -32.4730 C   0  0  0  0  0  0  0  0  0  0  0  0
   -3.9180   19.6720  -32.4880 C   0  0  0  0  0  0  0  0  0  0  0  0
   -2.7220   20.0550  -31.8610 C   0  0  0  0  0  0  0  0  0  0  0  0
   -2.6850   21.2900  -31.2230 C   0  0  0  0  0  0  0  0  0  0  0  0
   -1.6470   21.9160  -30.5720 C   0  0  0  0  0  0  0  0  0  0  0  0
   -2.1640   23.1350  -30.1460 C   0  0  0  0  0  0  0  0  0  0  0  0
   -1.3950   24.1060  -29.3410 C   0  0  0  0  0  0  0  0  0  0  0  0
   -2.0190   25.2610  -28.7810 N   0  0  0  0  0  0  0  0  0  0  0  0
   -0.1800   23.8800  -29.0960 O   0  0  0  0  0  0  0  0  0  0  0  0
   -3.4660   23.2680  -30.5280 N   0  0  0  0  0  0  0  0  0  0  0  0
   -4.3000   24.4300  -30.3810 C   0  0  0  0  0  0  0  0  0  0  0  0
   -5.4370   24.3370  -29.8470 O   0  0  0  0  0  0  0  0  0  0  0  0
   -3.8630   25.6700  -30.8330 O   0  0  0  0  0  0  0  0  0  0  0  0
   -3.7720   22.1260  -31.1850 C   0  0  0  0  0  0  0  0  0  0  0  0
   -4.9710   21.7790  -31.8210 C   0  0  0  0  0  0  0  0  0  0  0  0
   -7.4510   19.8940  -32.1270 C   0  0  0  0  0  0  0  0  0  0  0  0
   -8.2350   18.5850  -32.0800 C   0  0  0  0  0  0  0  0  0  0  0  0
   -8.8530   19.8160  -32.7200 C   0  0  0  0  0  0  0  0  0  0  0  0
   -5.8200   18.0384  -33.5150 H   0  0  0  0  0  0  0  0  0  0  0  0
   -6.9173   18.7445  -34.7496 H   0  0  0  0  0  0  0  0  0  0  0  0
   -5.1724   19.1711  -34.7496 H   0  0  0  0  0  0  0  0  0  0  0  0
   -6.7097   20.9160  -33.8358 H   0  0  0  0  0  0  0  0  0  0  0  0
   -3.9777   18.6986  -32.9968 H   0  0  0  0  0  0  0  0  0  0  0  0
   -1.8401   19.3977  -31.8739 H   0  0  0  0  0  0  0  0  0  0  0  0
   -0.6266   21.5341  -30.4208 H   0  0  0  0  0  0  0  0  0  0  0  0
   -1.4520   25.9550  -28.2450 H   0  0  0  0  0  0  0  0  0  0  0  0
   -3.0540   25.3900  -28.8260 H   0  0  0  0  0  0  0  0  0  0  0  0
   -5.8305   22.4654  -31.8133 H   0  0  0  0  0  0  0  0  0  0  0  0
   -6.9184   20.4653  -31.3524 H   0  0  0  0  0  0  0  0  0  0  0  0
   -7.9255   17.7359  -32.7071 H   0  0  0  0  0  0  0  0  0  0  0  0
   -8.5369   17.8878  -31.2846 H   0  0  0  0  0  0  0  0  0  0  0  0
   -8.9914   19.8575  -33.8105 H   0  0  0  0  0  0  0  0  0  0  0  0
   -9.7881   20.3779  -32.5791 H   0  0  0  0  0  0  0  0  0  0  0  0
  1  2  1  0
  2  3  1  0
  3  4  2  0
  4  5  1  0
  5  6  2  0
  6  7  1  0
  7  8  2  0
  8  9  1  0
  9 10  1  0
  9 11  2  0
  8 12  1  0
 12 13  1  0
 13 14  2  0
 13 15  1  0
 12 16  1  0
 16 17  2  0
  2 18  1  0
 18 19  1  0
 19 20  1  0
 17  3  1  0
 20 18  1  0
 16  6  1  0
  1 21  1  0
  1 22  1  0
  1 23  1  0
  2 24  1  6
  4 25  1  0
  5 26  1  0
  7 27  1  0
 10 28  1  0
 10 29  1  0
 17 30  1  0
 18 31  1  0
 19 32  1  0
 19 33  1  0
 20 34  1  0
 20 35  1  0
M  CHG  1  15  -1
M  END
>  <UniqueID>  (42) 
42

>  <SMILES>  (42) 
C[C@H](c1ccc2cc(C(N)=O)n(C(=O)[O-])c2c1)C1CC1

>  <Energy>  (42) 
342.66921225556325

>  <Genealogy>  (42) 
C[C@H](c1ccc2cc(C(N)=O)n(C(=O)[O-])c2c1)C1CC1 (protonated)
C[C@H](c1ccc2cc(C(N)=O)n(C(=O)[O-])c2c1)C1CC1 (3D coordinates assigned)
C[C@H](c1ccc2cc(C(N)=O)n(C(=O)[O-])c2c1)C1CC1 (nonaromatic ring conformer: 342.66921225556325 kcal/mol)

>  <smiles>  (42) 
C[C@H](c1ccc2cc(C(N)=O)n(C(=O)O)c2c1)C1CC1

>  <score_type>  (42) 
oracle

>  <origin>  (42) 
adg

>  <m_score__min__energy>  (42) 
-9.3900000000000006

>  <m_primary>  (42) 
energy

$$$$
42:0
     RDKit          3D

 32 34  0  0  0  0  0  0  0  0999 V2000
   -5.3660   26.4230  -30.4700 N   0  0  0  0  0  0  0  0  0  0  0  0
   -6.2640   25.4250  -29.9830 C   0  0  0  0  0  0  0  0  0  0  0  0
   -7.0150   25.6930  -29.0080 O   0  0  0  0  0  0  0  0  0  0  0  0
   -6.3740   24.1100  -30.6430 C   0  0  0  0  0  0  0  0  0  0  0  0
   -7.5910   23.5000  -30.9320 C   0  0  0  0  0  0  0  0  0  0  0  0
   -7.2660   22.3390  -31.5970 C   0  0  0  0  0  0  0  0  0  0  0  0
   -8.0900   21.3410  -32.1040 C   0  0  0  0  0  0  0  0  0  0  0  0
   -7.4830   20.2300  -32.7110 C   0  0  0  0  0  0  0  0  0  0  0  0
   -6.0690   20.1280  -32.7940 C   0  0  0  0  0  0  0  0  0  0  0  0
   -5.4390   18.9410  -33.4260 C   0  0  0  0  0  0  0  0  0  0  0  0
   -4.0920   18.9760  -33.8310 C   0  0  0  0  0  0  0  0  0  0  0  0
   -3.5030   17.8570  -34.4270 C   0  0  0  0  0  0  0  0  0  0  0  0
   -4.2490   16.6920  -34.6230 C   0  0  0  0  0  0  0  0  0  0  0  0
   -3.6750   15.6080  -35.2000 F   0  0  0  0  0  0  0  0  0  0  0  0
   -5.5870   16.6450  -34.2240 C   0  0  0  0  0  0  0  0  0  0  0  0
   -6.1810   17.7620  -33.6300 C   0  0  0  0  0  0  0  0  0  0  0  0
   -5.2670   21.1660  -32.2630 C   0  0  0  0  0  0  0  0  0  0  0  0
   -5.8990   22.2720  -31.6830 C   0  0  0  0  0  0  0  0  0  0  0  0
   -5.3350   23.3530  -31.0960 N   0  0  0  0  0  0  0  0  0  0  0  0
   -3.9320   23.5850  -30.8820 C   0  0  0  0  0  0  0  0  0  0  0  0
   -3.4930   24.7560  -30.7360 O   0  0  0  0  0  0  0  0  0  0  0  0
   -3.0420   22.5190  -30.8390 O   0  0  0  0  0  0  0  0  0  0  0  0
   -4.8530   26.2940  -31.3700 H   0  0  0  0  0  0  0  0  0  0  0  0
   -5.2750   27.3360  -29.9690 H   0  0  0  0  0  0  0  0  0  0  0  0
   -8.5975   23.8670  -30.6825 H   0  0  0  0  0  0  0  0  0  0  0  0
   -9.1848   21.4193  -32.0318 H   0  0  0  0  0  0  0  0  0  0  0  0
   -8.1107   19.4284  -33.1276 H   0  0  0  0  0  0  0  0  0  0  0  0
   -3.4987   19.8895  -33.6777 H   0  0  0  0  0  0  0  0  0  0  0  0
   -2.4498   17.8938  -34.7424 H   0  0  0  0  0  0  0  0  0  0  0  0
   -6.1739   15.7274  -34.3776 H   0  0  0  0  0  0  0  0  0  0  0  0
   -7.2355   17.7197  -33.3197 H   0  0  0  0  0  0  0  0  0  0  0  0
   -4.1695   21.1049  -32.3052 H   0  0  0  0  0  0  0  0  0  0  0  0
  1  2  1  0
  2  3  2  0
  2  4  1  0
  4  5  2  0
  5  6  1  0
  6  7  2  0
  7  8  1  0
  8  9  2  0
  9 10  1  0
 10 11  2  0
 11 12  1  0
 12 13  2  0
 13 14  1  0
 13 15  1  0
 15 16  2  0
  9 17  1  0
 17 18  2  0
 18 19  1  0
 19 20  1  0
 20 21  2  0
 20 22  1  0
 19  4  1  0
 18  6  1  0
 16 10  1  0
  1 23  1  0
  1 24  1  0
  5 25  1  0
  7 26  1  0
  8 27  1  0
 11 28  1  0
 12 29  1  0
 15 30  1  0
 16 31  1  0
 17 32  1  0
M  CHG  1  22  -1
M  END
>  <UniqueID>  (43) 
43

>  <SMILES>  (43) 
NC(=O)c1cc2ccc(-c3ccc(F)cc3)cc2n1C(=O)[O-]

>  <Energy>  (43) 
80.27491698402761

>  <Genealogy>  (43) 
NC(=O)c1cc2ccc(-c3ccc(F)cc3)cc2n1C(=O)[O-] (protonated)
NC(=O)c1cc2ccc(-c3ccc(F)cc3)cc2n1C(=O)[O-] (3D coordinates assigned)
NC(=O)c1cc2ccc(-c3ccc(F)cc3)cc2n1C(=O)[O-] (optimized conformer: 80.27491698402761 kcal/mol)

>  <smiles>  (43) 
NC(=O)c1cc2ccc(-c3ccc(F)cc3)cc2n1C(=O)O

>  <score_type>  (43) 
oracle

>  <origin>  (43) 
adg

>  <m_score__min__energy>  (43) 
-9.8800000000000008

>  <m_primary>  (43) 
energy

$$$$
43:0
     RDKit          3D

 42 44  0  0  0  0  0  0  0  0999 V2000
   -1.9650   21.1430  -33.1850 C   0  0  0  0  0  0  0  0  0  0  0  0
   -2.6150   20.2480  -34.0790 O   0  0  0  0  0  0  0  0  0  0  0  0
   -3.0570   18.9800  -33.6880 C   0  0  0  0  0  0  0  0  0  0  0  0
   -2.2240   18.0660  -33.4420 O   0  0  0  0  0  0  0  0  0  0  0  0
   -4.4660   18.7220  -33.5690 N   0  0  0  0  0  0  0  0  0  0  0  0
   -5.1580   17.6670  -34.0840 C   0  0  0  0  0  0  0  0  0  0  0  0
   -4.5670   16.4790  -34.7310 C   0  0  0  0  0  0  0  0  0  0  0  0
   -3.3370   16.5620  -35.4520 N   0  0  0  0  0  0  0  0  0  0  0  0
   -5.1280   15.3580  -34.5970 O   0  0  0  0  0  0  0  0  0  0  0  0
   -6.5240   17.8250  -33.8760 C   0  0  0  0  0  0  0  0  0  0  0  0
   -6.6530   19.0150  -33.1990 C   0  0  0  0  0  0  0  0  0  0  0  0
   -7.7970   19.6680  -32.7510 C   0  0  0  0  0  0  0  0  0  0  0  0
   -7.6390   20.9090  -32.1120 C   0  0  0  0  0  0  0  0  0  0  0  0
   -6.3520   21.4810  -31.9400 C   0  0  0  0  0  0  0  0  0  0  0  0
   -6.2000   22.7990  -31.2730 C   0  0  0  0  0  0  0  0  0  0  0  0
   -7.3310   23.5100  -30.8350 C   0  0  0  0  0  0  0  0  0  0  0  0
   -7.1870   24.7600  -30.2270 C   0  0  0  0  0  0  0  0  0  0  0  0
   -5.9180   25.3060  -30.0360 C   0  0  0  0  0  0  0  0  0  0  0  0
   -4.7770   24.6000  -30.4340 C   0  0  0  0  0  0  0  0  0  0  0  0
   -3.4890   25.2010  -30.2430 N   0  0  0  0  0  0  0  0  0  0  0  0
   -2.5520   24.9030  -29.1980 C   0  0  0  0  0  0  0  0  0  0  0  0
   -2.7270   23.7320  -28.2810 C   0  0  0  0  0  0  0  0  0  0  0  0
   -1.5700   25.6720  -29.0250 O   0  0  0  0  0  0  0  0  0  0  0  0
   -4.9240   23.3580  -31.0760 C   0  0  0  0  0  0  0  0  0  0  0  0
   -5.2130   20.7850  -32.4130 C   0  0  0  0  0  0  0  0  0  0  0  0
   -5.3980   19.5390  -33.0260 C   0  0  0  0  0  0  0  0  0  0  0  0
   -2.1805   20.8463  -32.1479 H   0  0  0  0  0  0  0  0  0  0  0  0
   -0.8792   21.1097  -33.3578 H   0  0  0  0  0  0  0  0  0  0  0  0
   -2.3326   22.1653  -33.3578 H   0  0  0  0  0  0  0  0  0  0  0  0
   -2.7640   17.4350  -35.4410 H   0  0  0  0  0  0  0  0  0  0  0  0
   -2.9550   15.7200  -35.9370 H   0  0  0  0  0  0  0  0  0  0  0  0
   -7.3295   17.1434  -34.1868 H   0  0  0  0  0  0  0  0  0  0  0  0
   -8.7943   19.2262  -32.8928 H   0  0  0  0  0  0  0  0  0  0  0  0
   -8.5249   21.4445  -31.7400 H   0  0  0  0  0  0  0  0  0  0  0  0
   -8.3343   23.0802  -30.9716 H   0  0  0  0  0  0  0  0  0  0  0  0
   -8.0777   25.3152  -29.8979 H   0  0  0  0  0  0  0  0  0  0  0  0
   -5.8133   26.2969  -29.5700 H   0  0  0  0  0  0  0  0  0  0  0  0
   -2.6760   24.0734  -27.2366 H   0  0  0  0  0  0  0  0  0  0  0  0
   -3.7051   23.2640  -28.4664 H   0  0  0  0  0  0  0  0  0  0  0  0
   -1.9285   22.9985  -28.4664 H   0  0  0  0  0  0  0  0  0  0  0  0
   -4.0326   22.8179  -31.4278 H   0  0  0  0  0  0  0  0  0  0  0  0
   -4.2058   21.2130  -32.3016 H   0  0  0  0  0  0  0  0  0  0  0  0
  1  2  1  0
  2  3  1  0
  3  4  2  0
  3  5  1  0
  5  6  1  0
  6  7  1  0
  7  8  1  0
  7  9  2  0
  6 10  2  0
 10 11  1  0
 11 12  2  0
 12 13  1  0
 13 14  2  0
 14 15  1  0
 15 16  2  0
 16 17  1  0
 17 18  2  0
 18 19  1  0
 19 20  1  0
 20 21  1  0
 21 22  1  0
 21 23  2  0
 19 24  2  0
 14 25  1  0
 25 26  2  0
 26  5  1  0
 26 11  1  0
 24 15  1  0
  1 27  1  0
  1 28  1  0
  1 29  1  0
  8 30  1  0
  8 31  1  0
 10 32  1  0
 12 33  1  0
 13 34  1  0
 16 35  1  0
 17 36  1  0
 18 37  1  0
 22 38  1  0
 22 39  1  0
 22 40  1  0
 24 41  1  0
 25 42  1  0
M  CHG  1  20  -1
M  END
>  <UniqueID>  (44) 
44

>  <SMILES>  (44) 
COC(=O)n1c(C(N)=O)cc2ccc(-c3cccc([N-]C(C)=O)c3)cc21

>  <Energy>  (44) 
90.04826951876544

>  <Genealogy>  (44) 
COC(=O)n1c(C(N)=O)cc2ccc(-c3cccc([N-]C(C)=O)c3)cc21 (protonated)
COC(=O)n1c(C(N)=O)cc2ccc(-c3cccc([N-]C(C)=O)c3)cc21 (3D coordinates assigned)
COC(=O)n1c(C(N)=O)cc2ccc(-c3cccc([N-]C(C)=O)c3)cc21 (optimized conformer: 90.04826951876544 kcal/mol)

>  <smiles>  (44) 
COC(=O)n1c(C(N)=O)cc2ccc(-c3cccc(NC(C)=O)c3)cc21

>  <score_type>  (44) 
oracle

>  <origin>  (44) 
adg

>  <m_score__min__energy>  (44) 
-10.43

>  <m_primary>  (44) 
energy

$$$$
44:0
     RDKit          3D

 33 34  0  0  0  0  0  0  0  0999 V2000
   -7.9900   18.6080  -32.2160 C   0  0  0  0  0  0  0  0  0  0  0  0
   -8.3350   20.0910  -32.3480 C   0  0  0  0  0  0  0  0  0  0  0  0
   -7.0940   20.9760  -32.5600 C   0  0  0  0  0  0  0  0  0  0  0  0
   -5.8510   20.2120  -33.0490 C   0  0  0  0  0  0  0  0  0  0  0  0
   -4.5910   20.6760  -32.3630 C   0  0  0  0  0  0  0  0  0  0  0  0
   -3.4180   19.8830  -32.4120 C   0  0  0  0  0  0  0  0  0  0  0  0
   -2.2290   20.3250  -31.8070 C   0  0  0  0  0  0  0  0  0  0  0  0
   -2.2460   21.5570  -31.1600 C   0  0  0  0  0  0  0  0  0  0  0  0
   -1.2330   22.2350  -30.5220 C   0  0  0  0  0  0  0  0  0  0  0  0
   -1.8070   23.4220  -30.0740 C   0  0  0  0  0  0  0  0  0  0  0  0
   -1.0800   24.4150  -29.2560 C   0  0  0  0  0  0  0  0  0  0  0  0
   -1.6490   25.6910  -28.9730 N   0  0  0  0  0  0  0  0  0  0  0  0
    0.0370   24.1150  -28.7570 O   0  0  0  0  0  0  0  0  0  0  0  0
   -3.1230   23.4820  -30.4290 N   0  0  0  0  0  0  0  0  0  0  0  0
   -4.0400   24.5710  -30.2360 C   0  0  0  0  0  0  0  0  0  0  0  0
   -3.8690   25.6620  -30.8390 O   0  0  0  0  0  0  0  0  0  0  0  0
   -5.1400   24.4210  -29.3990 O   0  0  0  0  0  0  0  0  0  0  0  0
   -3.3760   22.3310  -31.0900 C   0  0  0  0  0  0  0  0  0  0  0  0
   -4.5690   21.9240  -31.7000 C   0  0  0  0  0  0  0  0  0  0  0  0
   -7.9275   18.3395  -31.1511 H   0  0  0  0  0  0  0  0  0  0  0  0
   -8.7719   18.0051  -32.7009 H   0  0  0  0  0  0  0  0  0  0  0  0
   -7.0223   18.4121  -32.7009 H   0  0  0  0  0  0  0  0  0  0  0  0
   -9.0093   20.2197  -33.2075 H   0  0  0  0  0  0  0  0  0  0  0  0
   -8.8089   20.4056  -31.4065 H   0  0  0  0  0  0  0  0  0  0  0  0
   -7.3421   21.7451  -33.3063 H   0  0  0  0  0  0  0  0  0  0  0  0
   -6.8378   21.4017  -31.5786 H   0  0  0  0  0  0  0  0  0  0  0  0
   -5.9911   19.1401  -32.8453 H   0  0  0  0  0  0  0  0  0  0  0  0
   -5.7391   20.4034  -34.1264 H   0  0  0  0  0  0  0  0  0  0  0  0
   -3.4381   18.9120  -32.9285 H   0  0  0  0  0  0  0  0  0  0  0  0
   -1.3136   19.7162  -31.8437 H   0  0  0  0  0  0  0  0  0  0  0  0
   -0.1905   21.9086  -30.3931 H   0  0  0  0  0  0  0  0  0  0  0  0
   -2.6820   25.8410  -29.0200 H   0  0  0  0  0  0  0  0  0  0  0  0
   -5.4662   22.5594  -31.6641 H   0  0  0  0  0  0  0  0  0  0  0  0
  1  2  1  0
  2  3  1  0
  3  4  1  0
  4  5  1  0
  5  6  2  0
  6  7  1  0
  7  8  2  0
  8  9  1  0
  9 10  2  0
 10 11  1  0
 11 12  1  0
 11 13  2  0
 10 14  1  0
 14 15  1  0
 15 16  2  0
 15 17  1  0
 14 18  1  0
 18 19  2  0
 19  5  1  0
 18  8  1  0
  1 20  1  0
  1 21  1  0
  1 22  1  0
  2 23  1  0
  2 24  1  0
  3 25  1  0
  3 26  1  0
  4 27  1  0
  4 28  1  0
  6 29  1  0
  7 30  1  0
  9 31  1  0
 12 32  1  0
 19 33  1  0
M  CHG  2  12  -1  17  -1
M  END
>  <UniqueID>  (45) 
45

>  <SMILES>  (45) 
CCCCc1ccc2cc(C([NH-])=O)n(C(=O)[O-])c2c1

>  <Energy>  (45) 
66.8784703236492

>  <Genealogy>  (45) 
CCCCc1ccc2cc(C([NH-])=O)n(C(=O)[O-])c2c1 (protonated)
CCCCc1ccc2cc(C([NH-])=O)n(C(=O)[O-])c2c1 (3D coordinates assigned)
CCCCc1ccc2cc(C([NH-])=O)n(C(=O)[O-])c2c1 (optimized conformer: 66.8784703236492 kcal/mol)

>  <smiles>  (45) 
CCCCc1ccc2cc(C(N)=O)n(C(=O)O)c2c1

>  <score_type>  (45) 
oracle

>  <origin>  (45) 
adg

>  <m_score__min__energy>  (45) 
-10.73

>  <m_primary>  (45) 
energy

$$$$
45:0
     RDKit          3D

 48 52  0  0  0  0  0  0  0  0999 V2000
   -8.1530   18.2840  -31.9650 C   0  0  0  0  0  0  0  0  0  0  0  0
   -6.7400   17.9380  -31.6220 C   0  0  0  0  0  0  0  0  0  0  0  0
   -6.4860   17.4140  -30.5050 O   0  0  0  0  0  0  0  0  0  0  0  0
   -5.6720   18.1890  -32.5530 N   0  0  0  0  0  0  0  0  0  0  0  0
   -5.3420   17.4550  -33.6530 C   0  0  0  0  0  0  0  0  0  0  0  0
   -5.9630   16.1760  -34.0570 C   0  0  0  0  0  0  0  0  0  0  0  0
   -5.1560   15.0110  -34.2070 N   0  0  0  0  0  0  0  0  0  0  0  0
   -7.2050   16.0950  -34.2520 O   0  0  0  0  0  0  0  0  0  0  0  0
   -4.2780   18.0470  -34.3300 C   0  0  0  0  0  0  0  0  0  0  0  0
   -3.9660   19.1750  -33.6070 C   0  0  0  0  0  0  0  0  0  0  0  0
   -2.9970   20.1450  -33.8360 C   0  0  0  0  0  0  0  0  0  0  0  0
   -2.9170   21.2220  -32.9380 C   0  0  0  0  0  0  0  0  0  0  0  0
   -3.8100   21.3230  -31.8370 C   0  0  0  0  0  0  0  0  0  0  0  0
   -3.7320   22.4680  -30.8940 C   0  0  0  0  0  0  0  0  0  0  0  0
   -4.5870   23.5690  -30.8370 C   0  0  0  0  0  0  0  0  0  0  0  0
   -4.2600   24.4900  -29.8320 C   0  0  0  0  0  0  0  0  0  0  0  0
   -3.1410   24.1310  -29.0810 C   0  0  0  0  0  0  0  0  0  0  0  0
   -2.5440   24.8860  -27.9490 C   0  0  0  0  0  0  0  0  0  0  0  0
   -3.1880   24.9340  -26.6810 C   0  0  0  0  0  0  0  0  0  0  0  0
   -2.6240   25.6490  -25.6090 C   0  0  0  0  0  0  0  0  0  0  0  0
   -1.4200   26.3080  -25.8280 C   0  0  0  0  0  0  0  0  0  0  0  0
   -0.6500   27.0720  -24.9790 C   0  0  0  0  0  0  0  0  0  0  0  0
    0.4410   27.4720  -25.7490 C   0  0  0  0  0  0  0  0  0  0  0  0
    1.5500   28.3140  -25.2740 C   0  0  0  0  0  0  0  0  0  0  0  0
    2.6370   28.6210  -26.1430 N   0  0  0  0  0  0  0  0  0  0  0  0
    1.5430   28.7660  -24.0990 O   0  0  0  0  0  0  0  0  0  0  0  0
    0.3520   26.9830  -27.0080 N   0  0  0  0  0  0  0  0  0  0  0  0
   -0.7900   26.2740  -27.0420 C   0  0  0  0  0  0  0  0  0  0  0  0
   -1.3200   25.5760  -28.1250 C   0  0  0  0  0  0  0  0  0  0  0  0
   -2.5770   22.6610  -29.6810 S   0  0  0  0  0  0  0  0  0  0  0  0
   -4.7810   20.3120  -31.6430 C   0  0  0  0  0  0  0  0  0  0  0  0
   -4.8230   19.2390  -32.5400 C   0  0  0  0  0  0  0  0  0  0  0  0
   -8.7308   18.4255  -31.0397 H   0  0  0  0  0  0  0  0  0  0  0  0
   -8.1704   19.2130  -32.5539 H   0  0  0  0  0  0  0  0  0  0  0  0
   -8.5977   17.4682  -32.5539 H   0  0  0  0  0  0  0  0  0  0  0  0
   -4.6090   14.8460  -35.0800 H   0  0  0  0  0  0  0  0  0  0  0  0
   -3.7904   17.6883  -35.2485 H   0  0  0  0  0  0  0  0  0  0  0  0
   -2.3134   20.0713  -34.6947 H   0  0  0  0  0  0  0  0  0  0  0  0
   -2.1524   21.9983  -33.0890 H   0  0  0  0  0  0  0  0  0  0  0  0
   -5.4400   23.7023  -31.5186 H   0  0  0  0  0  0  0  0  0  0  0  0
   -4.8334   25.4113  -29.6522 H   0  0  0  0  0  0  0  0  0  0  0  0
   -4.1411   24.4041  -26.5370 H   0  0  0  0  0  0  0  0  0  0  0  0
   -3.1203   25.6855  -24.6280 H   0  0  0  0  0  0  0  0  0  0  0  0
   -0.8517   27.3134  -23.9249 H   0  0  0  0  0  0  0  0  0  0  0  0
    2.4750   29.1020  -27.0560 H   0  0  0  0  0  0  0  0  0  0  0  0
    1.0260   27.1230  -27.7940 H   0  0  0  0  0  0  0  0  0  0  0  0
   -0.7998   25.5612  -29.0941 H   0  0  0  0  0  0  0  0  0  0  0  0
   -5.4891   20.3686  -30.8032 H   0  0  0  0  0  0  0  0  0  0  0  0
  1  2  1  0
  2  3  2  0
  2  4  1  0
  4  5  1  0
  5  6  1  0
  6  7  1  0
  6  8  2  0
  5  9  2  0
  9 10  1  0
 10 11  2  0
 11 12  1  0
 12 13  2  0
 13 14  1  0
 14 15  2  0
 15 16  1  0
 16 17  2  0
 17 18  1  0
 18 19  2  0
 19 20  1  0
 20 21  2  0
 21 22  1  0
 22 23  2  0
 23 24  1  0
 24 25  1  0
 24 26  2  0
 23 27  1  0
 27 28  1  0
 28 29  2  0
 17 30  1  0
 13 31  1  0
 31 32  2  0
 32  4  1  0
 32 10  1  0
 30 14  1  0
 29 18  1  0
 28 21  1  0
  1 33  1  0
  1 34  1  0
  1 35  1  0
  7 36  1  0
  9 37  1  0
 11 38  1  0
 12 39  1  0
 15 40  1  0
 16 41  1  0
 19 42  1  0
 20 43  1  0
 22 44  1  0
 25 45  1  0
 27 46  1  0
 29 47  1  0
 31 48  1  0
M  CHG  2   7  -1  25  -1
M  END
>  <UniqueID>  (46) 
46

>  <SMILES>  (46) 
CC(=O)n1c(C([NH-])=O)cc2ccc(-c3ccc(-c4ccc5cc(C([NH-])=O)[nH]c5c4)s3)cc21

>  <Energy>  (46) 
154.65259507345263

>  <Genealogy>  (46) 
CC(=O)n1c(C([NH-])=O)cc2ccc(-c3ccc(-c4ccc5cc(C([NH-])=O)[nH]c5c4)s3)cc21 (protonated)
CC(=O)n1c(C([NH-])=O)cc2ccc(-c3ccc(-c4ccc5cc(C([NH-])=O)[nH]c5c4)s3)cc21 (3D coordinates assigned)
CC(=O)n1c(C([NH-])=O)cc2ccc(-c3ccc(-c4ccc5cc(C([NH-])=O)[nH]c5c4)s3)cc21 (optimized conformer: 154.65259507345263 kcal/mol)

>  <smiles>  (46) 
CC(=O)n1c(C(N)=O)cc2ccc(-c3ccc(-c4ccc5cc(C(N)=O)[nH]c5c4)s3)cc21

>  <score_type>  (46) 
oracle

>  <origin>  (46) 
adg

>  <m_score__min__energy>  (46) 
-10.699999999999999

>  <m_primary>  (46) 
energy

$$$$
46:0
     RDKit          3D

 47 48  0  0  0  0  0  0  0  0999 V2000
   -1.1680   21.1660  -33.8460 C   0  0  0  0  0  0  0  0  0  0  0  0
   -1.7800   20.9540  -32.4660 C   0  0  0  0  0  0  0  0  0  0  0  0
   -3.1920   21.1440  -32.5080 O   0  0  0  0  0  0  0  0  0  0  0  0
   -4.0630   20.3030  -33.2130 C   0  0  0  0  0  0  0  0  0  0  0  0
   -3.6260   19.5630  -34.1360 O   0  0  0  0  0  0  0  0  0  0  0  0
   -5.4620   20.2900  -32.8820 N   0  0  0  0  0  0  0  0  0  0  0  0
   -6.3850   19.3550  -33.2410 C   0  0  0  0  0  0  0  0  0  0  0  0
   -6.1000   18.0640  -33.8980 C   0  0  0  0  0  0  0  0  0  0  0  0
   -5.4450   18.0090  -35.1670 N   0  0  0  0  0  0  0  0  0  0  0  0
   -6.3900   16.9910  -33.3070 O   0  0  0  0  0  0  0  0  0  0  0  0
   -7.6640   19.7560  -32.8630 C   0  0  0  0  0  0  0  0  0  0  0  0
   -7.4950   20.9730  -32.2440 C   0  0  0  0  0  0  0  0  0  0  0  0
   -8.4380   21.8310  -31.6880 C   0  0  0  0  0  0  0  0  0  0  0  0
   -7.9870   23.0490  -31.1540 C   0  0  0  0  0  0  0  0  0  0  0  0
   -6.6120   23.3940  -31.2000 C   0  0  0  0  0  0  0  0  0  0  0  0
   -6.1470   24.7120  -30.6370 C   0  0  0  0  0  0  0  0  0  0  0  0
   -4.7220   24.6170  -30.1540 C   0  0  0  0  0  0  0  0  0  0  0  0
   -3.8250   25.1790  -30.8410 O   0  0  0  0  0  0  0  0  0  0  0  0
   -4.3490   23.8570  -28.9820 N   0  0  0  0  0  0  0  0  0  0  0  0
   -4.3010   24.5440  -27.6870 C   0  0  0  0  0  0  0  0  0  0  0  0
   -4.0580   22.4160  -29.0460 C   0  0  0  0  0  0  0  0  0  0  0  0
   -2.6040   22.1710  -29.4590 C   0  0  0  0  0  0  0  0  0  0  0  0
   -2.2300   23.0480  -30.5650 N   0  0  0  0  0  0  0  0  0  0  0  0
   -5.6830   22.4900  -31.7610 C   0  0  0  0  0  0  0  0  0  0  0  0
   -6.1570   21.2750  -32.2690 C   0  0  0  0  0  0  0  0  0  0  0  0
   -0.1337   21.5243  -33.7373 H   0  0  0  0  0  0  0  0  0  0  0  0
   -1.1704   20.2147  -34.3982 H   0  0  0  0  0  0  0  0  0  0  0  0
   -1.7583   21.9120  -34.3982 H   0  0  0  0  0  0  0  0  0  0  0  0
   -1.5631   19.9300  -32.1279 H   0  0  0  0  0  0  0  0  0  0  0  0
   -1.3447   21.6854  -31.7692 H   0  0  0  0  0  0  0  0  0  0  0  0
   -5.0420   18.8670  -35.6040 H   0  0  0  0  0  0  0  0  0  0  0  0
   -5.2890   17.0890  -35.6360 H   0  0  0  0  0  0  0  0  0  0  0  0
   -8.6080   19.2151  -33.0248 H   0  0  0  0  0  0  0  0  0  0  0  0
   -9.5048   21.5636  -31.6672 H   0  0  0  0  0  0  0  0  0  0  0  0
   -8.7073   23.7425  -30.6954 H   0  0  0  0  0  0  0  0  0  0  0  0
   -6.2113   25.4813  -31.4206 H   0  0  0  0  0  0  0  0  0  0  0  0
   -6.7903   24.9772  -29.7850 H   0  0  0  0  0  0  0  0  0  0  0  0
   -4.3528   23.8023  -26.8763 H   0  0  0  0  0  0  0  0  0  0  0  0
   -3.3611   25.1099  -27.6067 H   0  0  0  0  0  0  0  0  0  0  0  0
   -5.1531   25.2351  -27.6067 H   0  0  0  0  0  0  0  0  0  0  0  0
   -4.2316   21.9690  -28.0560 H   0  0  0  0  0  0  0  0  0  0  0  0
   -4.7189   21.9565  -29.7957 H   0  0  0  0  0  0  0  0  0  0  0  0
   -1.9457   22.3706  -28.6006 H   0  0  0  0  0  0  0  0  0  0  0  0
   -2.4986   21.1253  -29.7838 H   0  0  0  0  0  0  0  0  0  0  0  0
   -3.0290   23.0670  -31.2390 H   0  0  0  0  0  0  0  0  0  0  0  0
   -2.1330   24.0200  -30.1920 H   0  0  0  0  0  0  0  0  0  0  0  0
   -4.6113   22.7353  -31.7978 H   0  0  0  0  0  0  0  0  0  0  0  0
  1  2  1  0
  2  3  1  0
  3  4  1  0
  4  5  2  0
  4  6  1  0
  6  7  1  0
  7  8  1  0
  8  9  1  0
  8 10  2  0
  7 11  2  0
 11 12  1  0
 12 13  2  0
 13 14  1  0
 14 15  2  0
 15 16  1  0
 16 17  1  0
 17 18  2  0
 17 19  1  0
 19 20  1  0
 19 21  1  0
 21 22  1  0
 22 23  1  0
 15 24  1  0
 24 25  2  0
 25  6  1  0
 25 12  1  0
  1 26  1  0
  1 27  1  0
  1 28  1  0
  2 29  1  0
  2 30  1  0
  9 31  1  0
  9 32  1  0
 11 33  1  0
 13 34  1  0
 14 35  1  0
 16 36  1  0
 16 37  1  0
 20 38  1  0
 20 39  1  0
 20 40  1  0
 21 41  1  0
 21 42  1  0
 22 43  1  0
 22 44  1  0
 23 45  1  0
 23 46  1  0
 24 47  1  0
M  END
>  <UniqueID>  (47) 
47

>  <SMILES>  (47) 
CCOC(=O)n1c(C(N)=O)cc2ccc(CC(=O)N(C)CCN)cc21

>  <Energy>  (47) 
75.91124363674061

>  <Genealogy>  (47) 
CCOC(=O)n1c(C(N)=O)cc2ccc(CC(=O)N(C)CCN)cc21 (3D coordinates assigned)
CCOC(=O)n1c(C(N)=O)cc2ccc(CC(=O)N(C)CCN)cc21 (optimized conformer: 75.91124363674061 kcal/mol)

>  <smiles>  (47) 
CCOC(=O)n1c(C(N)=O)cc2ccc(CC(=O)N(C)CCN)cc21

>  <score_type>  (47) 
oracle

>  <origin>  (47) 
adg

>  <m_score__min__energy>  (47) 
-8.0600000000000005

>  <m_primary>  (47) 
energy

$$$$
47:0
     RDKit          3D

 30 31  0  0  0  0  0  0  0  0999 V2000
   -3.8930   25.2970  -30.6650 N   0  0  0  0  0  0  0  0  0  0  0  0
   -5.3050   25.1520  -30.5230 C   0  0  0  0  0  0  0  0  0  0  0  0
   -5.9780   26.1040  -30.0480 O   0  0  0  0  0  0  0  0  0  0  0  0
   -5.9550   23.8800  -30.8980 C   0  0  0  0  0  0  0  0  0  0  0  0
   -7.3360   23.6890  -30.9030 C   0  0  0  0  0  0  0  0  0  0  0  0
   -7.5280   22.4210  -31.4010 C   0  0  0  0  0  0  0  0  0  0  0  0
   -8.7070   21.7150  -31.6250 C   0  0  0  0  0  0  0  0  0  0  0  0
   -8.6050   20.4110  -32.1380 C   0  0  0  0  0  0  0  0  0  0  0  0
   -7.3370   19.8350  -32.4010 C   0  0  0  0  0  0  0  0  0  0  0  0
   -7.2430   18.4470  -32.9750 C   0  0  0  0  0  0  0  0  0  0  0  0
   -6.0250   18.3240  -33.8920 C   0  0  0  0  0  0  0  0  0  0  0  0
   -6.1090   19.2520  -34.9390 O   0  0  0  0  0  0  0  0  0  0  0  0
   -6.1630   20.5870  -32.1720 C   0  0  0  0  0  0  0  0  0  0  0  0
   -6.2960   21.8870  -31.6750 C   0  0  0  0  0  0  0  0  0  0  0  0
   -5.3190   22.7680  -31.3670 N   0  0  0  0  0  0  0  0  0  0  0  0
   -3.9050   22.5350  -31.4670 C   0  0  0  0  0  0  0  0  0  0  0  0
   -3.0230   22.9820  -30.4380 N   0  0  0  0  0  0  0  0  0  0  0  0
   -3.4410   21.9040  -32.4540 O   0  0  0  0  0  0  0  0  0  0  0  0
   -3.4890   26.0450  -31.2710 H   0  0  0  0  0  0  0  0  0  0  0  0
   -8.1085   24.4013  -30.5777 H   0  0  0  0  0  0  0  0  0  0  0  0
   -9.6873   22.1640  -31.4072 H   0  0  0  0  0  0  0  0  0  0  0  0
   -9.5183   19.8313  -32.3375 H   0  0  0  0  0  0  0  0  0  0  0  0
   -7.1513   17.7216  -32.1532 H   0  0  0  0  0  0  0  0  0  0  0  0
   -8.1506   18.2444  -33.5625 H   0  0  0  0  0  0  0  0  0  0  0  0
   -5.1116   18.5154  -33.3098 H   0  0  0  0  0  0  0  0  0  0  0  0
   -5.9964   17.3089  -34.3148 H   0  0  0  0  0  0  0  0  0  0  0  0
   -7.0770   19.4050  -35.1060 H   0  0  0  0  0  0  0  0  0  0  0  0
   -5.1703   20.1608  -32.3793 H   0  0  0  0  0  0  0  0  0  0  0  0
   -3.4000   23.4330  -29.5750 H   0  0  0  0  0  0  0  0  0  0  0  0
   -1.9950   22.8260  -30.5200 H   0  0  0  0  0  0  0  0  0  0  0  0
  1  2  1  0
  2  3  2  0
  2  4  1  0
  4  5  2  0
  5  6  1  0
  6  7  2  0
  7  8  1  0
  8  9  2  0
  9 10  1  0
 10 11  1  0
 11 12  1  0
  9 13  1  0
 13 14  2  0
 14 15  1  0
 15 16  1  0
 16 17  1  0
 16 18  2  0
 15  4  1  0
 14  6  1  0
  1 19  1  0
  5 20  1  0
  7 21  1  0
  8 22  1  0
 10 23  1  0
 10 24  1  0
 11 25  1  0
 11 26  1  0
 12 27  1  0
 13 28  1  0
 17 29  1  0
 17 30  1  0
M  CHG  1   1  -1
M  END
>  <UniqueID>  (48) 
48

>  <SMILES>  (48) 
[NH-]C(=O)c1cc2ccc(CCO)cc2n1C(N)=O

>  <Energy>  (48) 
65.41506018197067

>  <Genealogy>  (48) 
[NH-]C(=O)c1cc2ccc(CCO)cc2n1C(N)=O (protonated)
[NH-]C(=O)c1cc2ccc(CCO)cc2n1C(N)=O (3D coordinates assigned)
[NH-]C(=O)c1cc2ccc(CCO)cc2n1C(N)=O (optimized conformer: 65.41506018197067 kcal/mol)

>  <smiles>  (48) 
NC(=O)c1cc2ccc(CCO)cc2n1C(N)=O

>  <score_type>  (48) 
oracle

>  <origin>  (48) 
adg

>  <m_score__min__energy>  (48) 
-10.449999999999999

>  <m_primary>  (48) 
energy

$$$$
48:0
     RDKit          3D

 35 37  0  0  0  0  0  0  0  0999 V2000
   -4.9330   23.8120  -29.0670 C   0  0  0  0  0  0  0  0  0  0  0  0
   -3.8110   24.2490  -29.9540 C   0  0  0  0  0  0  0  0  0  0  0  0
   -3.9060   25.3390  -30.5780 O   0  0  0  0  0  0  0  0  0  0  0  0
   -2.6690   23.4030  -30.1650 N   0  0  0  0  0  0  0  0  0  0  0  0
   -1.4090   23.5510  -29.6680 C   0  0  0  0  0  0  0  0  0  0  0  0
   -0.9050   24.7160  -28.9140 C   0  0  0  0  0  0  0  0  0  0  0  0
   -1.5810   25.9700  -28.9650 N   0  0  0  0  0  0  0  0  0  0  0  0
    0.1590   24.6160  -28.2470 O   0  0  0  0  0  0  0  0  0  0  0  0
   -0.6110   22.4680  -30.0380 C   0  0  0  0  0  0  0  0  0  0  0  0
   -1.4270   21.6540  -30.7920 C   0  0  0  0  0  0  0  0  0  0  0  0
   -1.1560   20.4400  -31.4100 C   0  0  0  0  0  0  0  0  0  0  0  0
   -2.1990   19.8080  -32.1090 C   0  0  0  0  0  0  0  0  0  0  0  0
   -3.4930   20.3940  -32.1760 C   0  0  0  0  0  0  0  0  0  0  0  0
   -4.5900   19.7150  -32.9120 C   0  0  0  0  0  0  0  0  0  0  0  0
   -5.6160   20.3060  -33.6390 C   0  0  0  0  0  0  0  0  0  0  0  0
   -6.3880   19.3360  -34.1610 N   0  0  0  0  0  0  0  0  0  0  0  0
   -5.9080   18.1630  -33.7880 N   0  0  0  0  0  0  0  0  0  0  0  0
   -6.4390   16.8780  -34.2250 C   0  0  0  0  0  0  0  0  0  0  0  0
   -4.8050   18.3490  -33.0390 C   0  0  0  0  0  0  0  0  0  0  0  0
   -3.7230   21.6340  -31.5310 C   0  0  0  0  0  0  0  0  0  0  0  0
   -2.6620   22.2420  -30.8550 C   0  0  0  0  0  0  0  0  0  0  0  0
   -4.6349   23.9281  -28.0145 H   0  0  0  0  0  0  0  0  0  0  0  0
   -5.8206   24.4301  -29.2670 H   0  0  0  0  0  0  0  0  0  0  0  0
   -5.1687   22.7563  -29.2670 H   0  0  0  0  0  0  0  0  0  0  0  0
   -2.6240   26.0180  -28.9700 H   0  0  0  0  0  0  0  0  0  0  0  0
    0.4455   22.2999  -29.7819 H   0  0  0  0  0  0  0  0  0  0  0  0
   -0.1553   19.9868  -31.3541 H   0  0  0  0  0  0  0  0  0  0  0  0
   -2.0118   18.8473  -32.6109 H   0  0  0  0  0  0  0  0  0  0  0  0
   -5.7712   21.3875  -33.7665 H   0  0  0  0  0  0  0  0  0  0  0  0
   -7.2230   19.4760  -34.7740 H   0  0  0  0  0  0  0  0  0  0  0  0
   -6.6913   16.2673  -33.3456 H   0  0  0  0  0  0  0  0  0  0  0  0
   -7.3433   17.0414  -34.8296 H   0  0  0  0  0  0  0  0  0  0  0  0
   -5.6831   16.3554  -34.8296 H   0  0  0  0  0  0  0  0  0  0  0  0
   -4.1811   17.5552  -32.6025 H   0  0  0  0  0  0  0  0  0  0  0  0
   -4.7152   22.1079  -31.5616 H   0  0  0  0  0  0  0  0  0  0  0  0
  1  2  1  0
  2  3  2  0
  2  4  1  0
  4  5  1  0
  5  6  1  0
  6  7  1  0
  6  8  2  0
  5  9  2  0
  9 10  1  0
 10 11  2  0
 11 12  1  0
 12 13  2  0
 13 14  1  0
 14 15  1  0
 15 16  2  0
 16 17  1  0
 17 18  1  0
 17 19  1  0
 13 20  1  0
 20 21  2  0
 21  4  1  0
 21 10  1  0
 19 14  2  0
  1 22  1  0
  1 23  1  0
  1 24  1  0
  7 25  1  0
  9 26  1  0
 11 27  1  0
 12 28  1  0
 15 29  1  0
 16 30  1  0
 18 31  1  0
 18 32  1  0
 18 33  1  0
 19 34  1  0
 20 35  1  0
M  CHG  2   7  -1  16   1
M  END
>  <UniqueID>  (49) 
49

>  <SMILES>  (49) 
CC(=O)n1c(C([NH-])=O)cc2ccc(-c3c[nH+]n(C)c3)cc21

>  <Energy>  (49) 
107.97433829984212

>  <Genealogy>  (49) 
CC(=O)n1c(C([NH-])=O)cc2ccc(-c3c[nH+]n(C)c3)cc21 (protonated)
CC(=O)n1c(C([NH-])=O)cc2ccc(-c3c[nH+]n(C)c3)cc21 (3D coordinates assigned)
CC(=O)n1c(C([NH-])=O)cc2ccc(-c3c[nH+]n(C)c3)cc21 (optimized conformer: 107.97433829984212 kcal/mol)

>  <smiles>  (49) 
CC(=O)n1c(C(N)=O)cc2ccc(-c3cnn(C)c3)cc21

>  <score_type>  (49) 
oracle

>  <origin>  (49) 
adg

>  <m_score__min__energy>  (49) 
-10.109999999999999

>  <m_primary>  (49) 
energy

$$$$
49:0
     RDKit          3D

 32 34  0  0  0  0  0  0  0  0999 V2000
   -5.3500   26.3660  -30.4660 N   0  0  0  0  0  0  0  0  0  0  0  0
   -6.2640   25.3960  -29.9530 C   0  0  0  0  0  0  0  0  0  0  0  0
   -6.9920   25.6930  -28.9680 O   0  0  0  0  0  0  0  0  0  0  0  0
   -6.4210   24.0770  -30.5980 C   0  0  0  0  0  0  0  0  0  0  0  0
   -7.6580   23.5030  -30.8720 C   0  0  0  0  0  0  0  0  0  0  0  0
   -7.3750   22.3260  -31.5270 C   0  0  0  0  0  0  0  0  0  0  0  0
   -8.2350   21.3520  -32.0230 C   0  0  0  0  0  0  0  0  0  0  0  0
   -7.6680   20.2180  -32.6260 C   0  0  0  0  0  0  0  0  0  0  0  0
   -6.2600   20.0700  -32.7120 C   0  0  0  0  0  0  0  0  0  0  0  0
   -5.6760   18.8630  -33.3460 C   0  0  0  0  0  0  0  0  0  0  0  0
   -4.4210   18.9390  -33.9750 C   0  0  0  0  0  0  0  0  0  0  0  0
   -3.8570   17.8070  -34.5710 C   0  0  0  0  0  0  0  0  0  0  0  0
   -4.5410   16.5890  -34.5470 C   0  0  0  0  0  0  0  0  0  0  0  0
   -5.7920   16.5010  -33.9310 C   0  0  0  0  0  0  0  0  0  0  0  0
   -6.4560   15.3190  -33.9220 F   0  0  0  0  0  0  0  0  0  0  0  0
   -6.3620   17.6310  -33.3320 C   0  0  0  0  0  0  0  0  0  0  0  0
   -7.5950   17.5280  -32.7740 F   0  0  0  0  0  0  0  0  0  0  0  0
   -5.4180   21.0850  -32.1990 C   0  0  0  0  0  0  0  0  0  0  0  0
   -6.0120   22.2150  -31.6210 C   0  0  0  0  0  0  0  0  0  0  0  0
   -5.4090   23.2850  -31.0510 N   0  0  0  0  0  0  0  0  0  0  0  0
   -3.9980   23.4740  -30.8470 C   0  0  0  0  0  0  0  0  0  0  0  0
   -3.2100   22.4930  -30.8800 O   0  0  0  0  0  0  0  0  0  0  0  0
   -3.4890   24.7440  -30.6060 O   0  0  0  0  0  0  0  0  0  0  0  0
   -4.8560   26.2140  -31.3720 H   0  0  0  0  0  0  0  0  0  0  0  0
   -5.2260   27.2790  -29.9750 H   0  0  0  0  0  0  0  0  0  0  0  0
   -8.6506   23.9041  -30.6192 H   0  0  0  0  0  0  0  0  0  0  0  0
   -9.3262   21.4667  -31.9452 H   0  0  0  0  0  0  0  0  0  0  0  0
   -8.3231   19.4354  -33.0364 H   0  0  0  0  0  0  0  0  0  0  0  0
   -3.8789   19.8959  -33.9984 H   0  0  0  0  0  0  0  0  0  0  0  0
   -2.8737   17.8754  -35.0593 H   0  0  0  0  0  0  0  0  0  0  0  0
   -4.0943   15.6986  -35.0135 H   0  0  0  0  0  0  0  0  0  0  0  0
   -4.3235   20.9893  -32.2526 H   0  0  0  0  0  0  0  0  0  0  0  0
  1  2  1  0
  2  3  2  0
  2  4  1  0
  4  5  2  0
  5  6  1  0
  6  7  2  0
  7  8  1  0
  8  9  2  0
  9 10  1  0
 10 11  2  0
 11 12  1  0
 12 13  2  0
 13 14  1  0
 14 15  1  0
 14 16  2  0
 16 17  1  0
  9 18  1  0
 18 19  2  0
 19 20  1  0
 20 21  1  0
 21 22  2  0
 21 23  1  0
 20  4  1  0
 19  6  1  0
 16 10  1  0
  1 24  1  0
  1 25  1  0
  5 26  1  0
  7 27  1  0
  8 28  1  0
 11 29  1  0
 12 30  1  0
 13 31  1  0
 18 32  1  0
M  CHG  1  23  -1
M  END
>  <UniqueID>  (50) 
50

>  <SMILES>  (50) 
NC(=O)c1cc2ccc(-c3cccc(F)c3F)cc2n1C(=O)[O-]

>  <Energy>  (50) 
81.36546090901494

>  <Genealogy>  (50) 
NC(=O)c1cc2ccc(-c3cccc(F)c3F)cc2n1C(=O)[O-] (protonated)
NC(=O)c1cc2ccc(-c3cccc(F)c3F)cc2n1C(=O)[O-] (3D coordinates assigned)
NC(=O)c1cc2ccc(-c3cccc(F)c3F)cc2n1C(=O)[O-] (optimized conformer: 81.36546090901494 kcal/mol)

>  <smiles>  (50) 
NC(=O)c1cc2ccc(-c3cccc(F)c3F)cc2n1C(=O)O

>  <score_type>  (50) 
oracle

>  <origin>  (50) 
adg

>  <m_score__min__energy>  (50) 
-9.6199999999999992

>  <m_primary>  (50) 
energy

$$$$
50:0
     RDKit          3D

 44 45  0  0  0  0  0  0  0  0999 V2000
   -6.4610   18.0730  -31.2140 C   0  0  0  0  0  0  0  0  0  0  0  0
   -7.3980   18.3590  -32.3940 C   0  0  0  0  0  0  0  0  0  0  0  0
   -7.9010   19.8460  -32.5040 C   0  0  0  0  0  0  0  0  0  0  0  0
   -9.0940   19.9550  -33.2490 O   0  0  0  0  0  0  0  0  0  0  0  0
   -8.1940   20.4060  -31.0800 C   0  0  0  0  0  0  0  0  0  0  0  0
   -9.0680   21.6630  -31.0570 C   0  0  0  0  0  0  0  0  0  0  0  0
   -6.7930   20.7600  -33.1340 C   0  0  0  0  0  0  0  0  0  0  0  0
   -5.4370   20.0970  -33.4720 C   0  0  0  0  0  0  0  0  0  0  0  0
   -4.3090   20.5490  -32.5830 C   0  0  0  0  0  0  0  0  0  0  0  0
   -3.1560   19.7370  -32.4370 C   0  0  0  0  0  0  0  0  0  0  0  0
   -2.0820   20.1560  -31.6340 C   0  0  0  0  0  0  0  0  0  0  0  0
   -2.1830   21.3910  -31.0020 C   0  0  0  0  0  0  0  0  0  0  0  0
   -1.3020   22.0240  -30.1560 C   0  0  0  0  0  0  0  0  0  0  0  0
   -1.9180   23.2260  -29.8190 C   0  0  0  0  0  0  0  0  0  0  0  0
   -1.2810   24.2530  -28.9700 C   0  0  0  0  0  0  0  0  0  0  0  0
   -2.0580   25.2530  -28.3100 N   0  0  0  0  0  0  0  0  0  0  0  0
   -0.0260   24.2830  -28.8720 O   0  0  0  0  0  0  0  0  0  0  0  0
   -3.1380   23.3290  -30.4180 N   0  0  0  0  0  0  0  0  0  0  0  0
   -4.1160   24.3670  -30.2390 C   0  0  0  0  0  0  0  0  0  0  0  0
   -4.2290   25.2890  -31.0890 O   0  0  0  0  0  0  0  0  0  0  0  0
   -4.9470   24.3680  -29.1250 O   0  0  0  0  0  0  0  0  0  0  0  0
   -3.2850   22.1960  -31.1420 C   0  0  0  0  0  0  0  0  0  0  0  0
   -4.3820   21.7890  -31.9090 C   0  0  0  0  0  0  0  0  0  0  0  0
   -7.0002   18.2376  -30.2694 H   0  0  0  0  0  0  0  0  0  0  0  0
   -6.1176   17.0291  -31.2631 H   0  0  0  0  0  0  0  0  0  0  0  0
   -5.5932   18.7472  -31.2631 H   0  0  0  0  0  0  0  0  0  0  0  0
   -6.8620   18.1114  -33.3221 H   0  0  0  0  0  0  0  0  0  0  0  0
   -8.2951   17.7445  -32.2278 H   0  0  0  0  0  0  0  0  0  0  0  0
   -8.8610   20.0690  -34.2040 H   0  0  0  0  0  0  0  0  0  0  0  0
   -8.7049   19.6222  -30.5015 H   0  0  0  0  0  0  0  0  0  0  0  0
   -7.2224   20.6939  -30.6521 H   0  0  0  0  0  0  0  0  0  0  0  0
   -9.2684   21.9512  -30.0145 H   0  0  0  0  0  0  0  0  0  0  0  0
   -8.5443   22.4831  -31.5700 H   0  0  0  0  0  0  0  0  0  0  0  0
  -10.0192   21.4577  -31.5700 H   0  0  0  0  0  0  0  0  0  0  0  0
   -7.1992   21.1768  -34.0674 H   0  0  0  0  0  0  0  0  0  0  0  0
   -6.5599   21.5006  -32.3548 H   0  0  0  0  0  0  0  0  0  0  0  0
   -5.5468   19.0074  -33.3683 H   0  0  0  0  0  0  0  0  0  0  0  0
   -5.1786   20.3946  -34.4990 H   0  0  0  0  0  0  0  0  0  0  0  0
   -3.1018   18.7695  -32.9575 H   0  0  0  0  0  0  0  0  0  0  0  0
   -1.1885   19.5266  -31.5089 H   0  0  0  0  0  0  0  0  0  0  0  0
   -0.3210   21.6586  -29.8182 H   0  0  0  0  0  0  0  0  0  0  0  0
   -3.0780   25.3600  -28.5070 H   0  0  0  0  0  0  0  0  0  0  0  0
   -1.5940   25.9500  -27.6850 H   0  0  0  0  0  0  0  0  0  0  0  0
   -5.2802   22.4193  -31.9856 H   0  0  0  0  0  0  0  0  0  0  0  0
  1  2  1  0
  2  3  1  0
  3  4  1  0
  3  5  1  0
  5  6  1  0
  3  7  1  0
  7  8  1  0
  8  9  1  0
  9 10  2  0
 10 11  1  0
 11 12  2  0
 12 13  1  0
 13 14  2  0
 14 15  1  0
 15 16  1  0
 15 17  2  0
 14 18  1  0
 18 19  1  0
 19 20  2  0
 19 21  1  0
 18 22  1  0
 22 23  2  0
 23  9  1  0
 22 12  1  0
  1 24  1  0
  1 25  1  0
  1 26  1  0
  2 27  1  0
  2 28  1  0
  4 29  1  0
  5 30  1  0
  5 31  1  0
  6 32  1  0
  6 33  1  0
  6 34  1  0
  7 35  1  0
  7 36  1  0
  8 37  1  0
  8 38  1  0
 10 39  1  0
 11 40  1  0
 13 41  1  0
 16 42  1  0
 16 43  1  0
 23 44  1  0
M  CHG  1  21  -1
M  END
>  <UniqueID>  (51) 
51

>  <SMILES>  (51) 
CCC(O)(CC)CCc1ccc2cc(C(N)=O)n(C(=O)[O-])c2c1

>  <Energy>  (51) 
85.31490653030592

>  <Genealogy>  (51) 
CCC(O)(CC)CCc1ccc2cc(C(N)=O)n(C(=O)[O-])c2c1 (protonated)
CCC(O)(CC)CCc1ccc2cc(C(N)=O)n(C(=O)[O-])c2c1 (3D coordinates assigned)
CCC(O)(CC)CCc1ccc2cc(C(N)=O)n(C(=O)[O-])c2c1 (optimized conformer: 85.31490653030592 kcal/mol)

>  <smiles>  (51) 
CCC(O)(CC)CCc1ccc2cc(C(N)=O)n(C(=O)O)c2c1

>  <score_type>  (51) 
oracle

>  <origin>  (51) 
adg

>  <m_score__min__energy>  (51) 
-9.6300000000000008

>  <m_primary>  (51) 
energy

$$$$
51:0
     RDKit          3D

 30 31  0  0  0  0  0  0  0  0999 V2000
   -5.1020   18.2460  -34.4010 C   0  0  0  0  0  0  0  0  0  0  0  0
   -4.4680   19.3590  -33.6820 N   0  0  0  0  0  0  0  0  0  0  0  0
   -3.0030   19.4280  -33.6320 C   0  0  0  0  0  0  0  0  0  0  0  0
   -5.2780   20.3740  -33.0330 C   0  0  0  0  0  0  0  0  0  0  0  0
   -6.6980   20.2800  -33.0340 C   0  0  0  0  0  0  0  0  0  0  0  0
   -7.4890   21.2500  -32.3980 C   0  0  0  0  0  0  0  0  0  0  0  0
   -6.8470   22.3130  -31.7760 C   0  0  0  0  0  0  0  0  0  0  0  0
   -7.3720   23.3650  -31.0620 C   0  0  0  0  0  0  0  0  0  0  0  0
   -6.2730   24.1150  -30.6540 C   0  0  0  0  0  0  0  0  0  0  0  0
   -6.3890   25.3820  -29.9060 C   0  0  0  0  0  0  0  0  0  0  0  0
   -5.5900   26.5170  -30.2440 N   0  0  0  0  0  0  0  0  0  0  0  0
   -7.2480   25.4830  -28.9890 O   0  0  0  0  0  0  0  0  0  0  0  0
   -5.1130   23.5450  -31.0850 N   0  0  0  0  0  0  0  0  0  0  0  0
   -3.7720   23.9550  -30.7650 C   0  0  0  0  0  0  0  0  0  0  0  0
   -2.8380   23.1120  -30.7260 O   0  0  0  0  0  0  0  0  0  0  0  0
   -3.4940   25.2880  -30.4910 O   0  0  0  0  0  0  0  0  0  0  0  0
   -5.4830   22.4410  -31.7750 C   0  0  0  0  0  0  0  0  0  0  0  0
   -4.6670   21.4770  -32.3810 C   0  0  0  0  0  0  0  0  0  0  0  0
   -5.5115   17.5271  -33.6761 H   0  0  0  0  0  0  0  0  0  0  0  0
   -5.9150   18.6333  -35.0327 H   0  0  0  0  0  0  0  0  0  0  0  0
   -4.3542   17.7442  -35.0327 H   0  0  0  0  0  0  0  0  0  0  0  0
   -2.6723   19.4436  -32.5830 H   0  0  0  0  0  0  0  0  0  0  0  0
   -2.5770   18.5489  -34.1378 H   0  0  0  0  0  0  0  0  0  0  0  0
   -2.6616   20.3432  -34.1378 H   0  0  0  0  0  0  0  0  0  0  0  0
   -7.1838   19.4335  -33.5414 H   0  0  0  0  0  0  0  0  0  0  0  0
   -8.5861   21.1704  -32.3925 H   0  0  0  0  0  0  0  0  0  0  0  0
   -8.4332   23.5696  -30.8573 H   0  0  0  0  0  0  0  0  0  0  0  0
   -5.6600   27.3930  -29.6800 H   0  0  0  0  0  0  0  0  0  0  0  0
   -4.9920   26.5190  -31.0990 H   0  0  0  0  0  0  0  0  0  0  0  0
   -3.5716   21.5731  -32.3521 H   0  0  0  0  0  0  0  0  0  0  0  0
  1  2  1  0
  2  3  1  0
  2  4  1  0
  4  5  2  0
  5  6  1  0
  6  7  2  0
  7  8  1  0
  8  9  2  0
  9 10  1  0
 10 11  1  0
 10 12  2  0
  9 13  1  0
 13 14  1  0
 14 15  2  0
 14 16  1  0
 13 17  1  0
 17 18  2  0
 18  4  1  0
 17  7  1  0
  1 19  1  0
  1 20  1  0
  1 21  1  0
  3 22  1  0
  3 23  1  0
  3 24  1  0
  5 25  1  0
  6 26  1  0
  8 27  1  0
 11 28  1  0
 11 29  1  0
 18 30  1  0
M  CHG  1  16  -1
M  END
>  <UniqueID>  (52) 
52

>  <SMILES>  (52) 
CN(C)c1ccc2cc(C(N)=O)n(C(=O)[O-])c2c1

>  <Energy>  (52) 
71.76411835850607

>  <Genealogy>  (52) 
CN(C)c1ccc2cc(C(N)=O)n(C(=O)[O-])c2c1 (protonated)
CN(C)c1ccc2cc(C(N)=O)n(C(=O)[O-])c2c1 (3D coordinates assigned)
CN(C)c1ccc2cc(C(N)=O)n(C(=O)[O-])c2c1 (optimized conformer: 71.76411835850607 kcal/mol)

>  <smiles>  (52) 
CN(C)c1ccc2cc(C(N)=O)n(C(=O)O)c2c1

>  <score_type>  (52) 
oracle

>  <origin>  (52) 
adg

>  <m_score__min__energy>  (52) 
-8.3200000000000003

>  <m_primary>  (52) 
energy

$$$$
52:0
     RDKit          3D

 45 47  0  0  0  0  0  0  0  0999 V2000
   -6.8410   14.9040  -34.2200 C   0  0  0  0  0  0  0  0  0  0  0  0
   -6.4240   16.2990  -34.1590 N   0  0  0  0  0  0  0  0  0  0  0  0
   -7.0050   17.2670  -33.4240 C   0  0  0  0  0  0  0  0  0  0  0  0
   -6.2610   18.4310  -33.5680 C   0  0  0  0  0  0  0  0  0  0  0  0
   -6.5160   19.7530  -32.9410 C   0  0  0  0  0  0  0  0  0  0  0  0
   -7.8460   20.2060  -32.7300 C   0  0  0  0  0  0  0  0  0  0  0  0
   -8.0980   21.4590  -32.1460 C   0  0  0  0  0  0  0  0  0  0  0  0
   -7.0070   22.2370  -31.7730 C   0  0  0  0  0  0  0  0  0  0  0  0
   -6.9660   23.4930  -31.2120 C   0  0  0  0  0  0  0  0  0  0  0  0
   -5.6120   23.7860  -31.0630 C   0  0  0  0  0  0  0  0  0  0  0  0
   -5.1120   25.0150  -30.4120 C   0  0  0  0  0  0  0  0  0  0  0  0
   -3.8980   25.6290  -30.8350 N   0  0  0  0  0  0  0  0  0  0  0  0
   -5.7430   25.5040  -29.4370 O   0  0  0  0  0  0  0  0  0  0  0  0
   -4.8480   22.7560  -31.5230 N   0  0  0  0  0  0  0  0  0  0  0  0
   -3.4170   22.6910  -31.6230 C   0  0  0  0  0  0  0  0  0  0  0  0
   -2.7040   23.2210  -30.7290 O   0  0  0  0  0  0  0  0  0  0  0  0
   -2.8340   22.0620  -32.7330 O   0  0  0  0  0  0  0  0  0  0  0  0
   -2.0270   20.8770  -32.7150 C   0  0  0  0  0  0  0  0  0  0  0  0
   -2.2010   20.1230  -31.3820 C   0  0  0  0  0  0  0  0  0  0  0  0
   -0.5460   21.2270  -32.9530 C   0  0  0  0  0  0  0  0  0  0  0  0
   -2.5140   19.9790  -33.8630 C   0  0  0  0  0  0  0  0  0  0  0  0
   -5.7180   21.8140  -31.9510 C   0  0  0  0  0  0  0  0  0  0  0  0
   -5.4360   20.5810  -32.5500 C   0  0  0  0  0  0  0  0  0  0  0  0
   -5.2120   18.0790  -34.4110 C   0  0  0  0  0  0  0  0  0  0  0  0
   -5.3410   16.7820  -34.7430 N   0  0  0  0  0  0  0  0  0  0  0  0
   -6.9584   14.5114  -33.1992 H   0  0  0  0  0  0  0  0  0  0  0  0
   -7.8002   14.8310  -34.7534 H   0  0  0  0  0  0  0  0  0  0  0  0
   -6.0792   14.3166  -34.7534 H   0  0  0  0  0  0  0  0  0  0  0  0
   -7.9135   17.1547  -32.8140 H   0  0  0  0  0  0  0  0  0  0  0  0
   -8.6903   19.5669  -33.0280 H   0  0  0  0  0  0  0  0  0  0  0  0
   -9.1272   21.8139  -31.9885 H   0  0  0  0  0  0  0  0  0  0  0  0
   -7.8203   24.1300  -30.9393 H   0  0  0  0  0  0  0  0  0  0  0  0
   -2.9740   25.2960  -30.4780 H   0  0  0  0  0  0  0  0  0  0  0  0
   -2.0407   20.8176  -30.5442 H   0  0  0  0  0  0  0  0  0  0  0  0
   -3.2184   19.7086  -31.3252 H   0  0  0  0  0  0  0  0  0  0  0  0
   -1.4681   19.3047  -31.3252 H   0  0  0  0  0  0  0  0  0  0  0  0
   -0.0375   21.3472  -31.9850 H   0  0  0  0  0  0  0  0  0  0  0  0
   -0.0649   20.4178  -33.5220 H   0  0  0  0  0  0  0  0  0  0  0  0
   -0.4780   22.1660  -33.5220 H   0  0  0  0  0  0  0  0  0  0  0  0
   -2.9995   19.0837  -33.4475 H   0  0  0  0  0  0  0  0  0  0  0  0
   -3.2350   20.5334  -34.4816 H   0  0  0  0  0  0  0  0  0  0  0  0
   -1.6560   19.6771  -34.4816 H   0  0  0  0  0  0  0  0  0  0  0  0
   -4.3962   20.2615  -32.7138 H   0  0  0  0  0  0  0  0  0  0  0  0
   -4.4095   18.7505  -34.7501 H   0  0  0  0  0  0  0  0  0  0  0  0
   -4.6910   16.2340  -35.3500 H   0  0  0  0  0  0  0  0  0  0  0  0
  1  2  1  0
  2  3  1  0
  3  4  2  0
  4  5  1  0
  5  6  2  0
  6  7  1  0
  7  8  2  0
  8  9  1  0
  9 10  2  0
 10 11  1  0
 11 12  1  0
 11 13  2  0
 10 14  1  0
 14 15  1  0
 15 16  2  0
 15 17  1  0
 17 18  1  0
 18 19  1  0
 18 20  1  0
 18 21  1  0
 14 22  1  0
 22 23  2  0
  4 24  1  0
 24 25  2  0
 25  2  1  0
 23  5  1  0
 22  8  1  0
  1 26  1  0
  1 27  1  0
  1 28  1  0
  3 29  1  0
  6 30  1  0
  7 31  1  0
  9 32  1  0
 12 33  1  0
 19 34  1  0
 19 35  1  0
 19 36  1  0
 20 37  1  0
 20 38  1  0
 20 39  1  0
 21 40  1  0
 21 41  1  0
 21 42  1  0
 23 43  1  0
 24 44  1  0
 25 45  1  0
M  CHG  2  12  -1  25   1
M  END
>  <UniqueID>  (53) 
53

>  <SMILES>  (53) 
Cn1cc(-c2ccc3cc(C([NH-])=O)n(C(=O)OC(C)(C)C)c3c2)c[nH+]1

>  <Energy>  (53) 
112.45928087954388

>  <Genealogy>  (53) 
Cn1cc(-c2ccc3cc(C([NH-])=O)n(C(=O)OC(C)(C)C)c3c2)c[nH+]1 (protonated)
Cn1cc(-c2ccc3cc(C([NH-])=O)n(C(=O)OC(C)(C)C)c3c2)c[nH+]1 (3D coordinates assigned)
Cn1cc(-c2ccc3cc(C([NH-])=O)n(C(=O)OC(C)(C)C)c3c2)c[nH+]1 (optimized conformer: 112.45928087954388 kcal/mol)

>  <smiles>  (53) 
Cn1cc(-c2ccc3cc(C(N)=O)n(C(=O)OC(C)(C)C)c3c2)cn1

>  <score_type>  (53) 
oracle

>  <origin>  (53) 
adg

>  <m_score__min__energy>  (53) 
-10.75

>  <m_primary>  (53) 
energy

$$$$
53:0
     RDKit          3D

 34 35  0  0  0  0  0  0  0  0999 V2000
   -8.6960   18.5930  -33.4910 H   0  0  0  0  0  0  0  0  0  0  0  0
   -8.7600   19.2870  -32.7300 N   0  0  0  0  0  0  0  0  0  0  0  0
   -7.8350   20.1580  -32.5260 C   0  0  0  0  0  0  0  0  0  0  0  0
   -7.9850   21.1060  -31.3650 C   0  0  0  0  0  0  0  0  0  0  0  0
   -7.8966   20.5473  -30.4216 H   0  0  0  0  0  0  0  0  0  0  0  0
   -7.1969   21.8719  -31.4128 H   0  0  0  0  0  0  0  0  0  0  0  0
   -8.9711   21.5911  -31.4128 H   0  0  0  0  0  0  0  0  0  0  0  0
   -6.5870   20.1570  -33.3990 C   0  0  2  0  0  0  0  0  0  0  0  0
   -6.7233   20.9482  -34.1509 H   0  0  0  0  0  0  0  0  0  0  0  0
   -6.4320   18.8520  -34.1390 C   0  0  0  0  0  0  0  0  0  0  0  0
   -5.9600   18.8520  -35.3080 O   0  0  0  0  0  0  0  0  0  0  0  0
   -6.7660   17.6120  -33.5160 N   0  0  0  0  0  0  0  0  0  0  0  0
   -7.7290   17.4370  -33.1520 H   0  0  0  0  0  0  0  0  0  0  0  0
   -5.3340   20.5180  -32.6190 C   0  0  0  0  0  0  0  0  0  0  0  0
   -4.2380   19.6150  -32.6080 C   0  0  0  0  0  0  0  0  0  0  0  0
   -4.3180   18.6575  -33.1435 H   0  0  0  0  0  0  0  0  0  0  0  0
   -3.0530   19.9290  -31.9220 C   0  0  0  0  0  0  0  0  0  0  0  0
   -2.2085   19.2245  -31.8988 H   0  0  0  0  0  0  0  0  0  0  0  0
   -2.9790   21.1570  -31.2730 C   0  0  0  0  0  0  0  0  0  0  0  0
   -1.9610   21.7040  -30.5260 C   0  0  0  0  0  0  0  0  0  0  0  0
   -0.9849   21.2520  -30.2961 H   0  0  0  0  0  0  0  0  0  0  0  0
   -2.4300   22.9520  -30.1230 C   0  0  0  0  0  0  0  0  0  0  0  0
   -1.6090   23.9230  -29.3690 C   0  0  0  0  0  0  0  0  0  0  0  0
   -0.5530   23.5380  -28.8000 O   0  0  0  0  0  0  0  0  0  0  0  0
   -1.9630   25.3030  -29.3230 N   0  0  0  0  0  0  0  0  0  0  0  0
   -2.9630   25.6000  -29.3230 H   0  0  0  0  0  0  0  0  0  0  0  0
   -3.6910   23.1640  -30.5930 N   0  0  0  0  0  0  0  0  0  0  0  0
   -4.5550   24.2810  -30.3260 C   0  0  0  0  0  0  0  0  0  0  0  0
   -5.5780   24.1330  -29.6060 O   0  0  0  0  0  0  0  0  0  0  0  0
   -4.2420   25.5710  -30.8460 N   0  0  0  0  0  0  0  0  0  0  0  0
   -3.2540   25.8430  -31.0500 H   0  0  0  0  0  0  0  0  0  0  0  0
   -4.0110   22.0570  -31.2970 C   0  0  0  0  0  0  0  0  0  0  0  0
   -5.2120   21.7640  -31.9550 C   0  0  0  0  0  0  0  0  0  0  0  0
   -6.0425   22.4853  -31.9564 H   0  0  0  0  0  0  0  0  0  0  0  0
  1  2  1  0
  2  3  2  0
  3  4  1  0
  4  5  1  0
  4  6  1  0
  4  7  1  0
  3  8  1  0
  8  9  1  6
  8 10  1  0
 10 11  2  0
 10 12  1  0
 12 13  1  0
  8 14  1  0
 14 15  2  0
 15 16  1  0
 15 17  1  0
 17 18  1  0
 17 19  2  0
 19 20  1  0
 20 21  1  0
 20 22  2  0
 22 23  1  0
 23 24  2  0
 23 25  1  0
 25 26  1  0
 22 27  1  0
 27 28  1  0
 28 29  2  0
 28 30  1  0
 30 31  1  0
 27 32  1  0
 32 33  2  0
 33 34  1  0
 33 14  1  0
 32 19  1  0
M  CHG  3  12  -1  25  -1  30  -1
M  END
>  <UniqueID>  (54) 
54

>  <SMILES>  (54) 
[H]/N=C(/C)[C@H](C([NH-])=O)c1ccc2cc(C([NH-])=O)n(C([NH-])=O)c2c1

>  <Energy>  (54) 
73.53466223358615

>  <Genealogy>  (54) 
CC(=N)C(C([NH-])=O)c1ccc2cc(C([NH-])=O)n(C([NH-])=O)c2c1 (protonated)
CC(=N)[C@H](C([NH-])=O)c1ccc2cc(C([NH-])=O)n(C([NH-])=O)c2c1 (chirality)
[H]/N=C(/C)[C@H](C([NH-])=O)c1ccc2cc(C([NH-])=O)n(C([NH-])=O)c2c1 (cis-trans isomerization)
[H]/N=C(/C)[C@H](C([NH-])=O)c1ccc2cc(C([NH-])=O)n(C([NH-])=O)c2c1 (3D coordinates assigned)
[H]/N=C(/C)[C@H](C([NH-])=O)c1ccc2cc(C([NH-])=O)n(C([NH-])=O)c2c1 (optimized conformer: 73.53466223358615 kcal/mol)

>  <smiles>  (54) 
CC(=N)C(C(N)=O)c1ccc2cc(C(N)=O)n(C(N)=O)c2c1

>  <score_type>  (54) 
oracle

>  <origin>  (54) 
adg

>  <m_score__min__energy>  (54) 
-10.49

>  <m_primary>  (54) 
energy

$$$$
54:0
     RDKit          3D

 35 37  0  0  0  0  0  0  0  0999 V2000
   -6.8710   15.2720  -34.2040 C   0  0  0  0  0  0  0  0  0  0  0  0
   -6.0300   16.5060  -34.1040 C   0  0  0  0  0  0  0  0  0  0  0  0
   -6.5450   17.6660  -33.5080 C   0  0  0  0  0  0  0  0  0  0  0  0
   -5.7390   18.8130  -33.4070 C   0  0  0  0  0  0  0  0  0  0  0  0
   -6.2650   20.0540  -32.7830 C   0  0  0  0  0  0  0  0  0  0  0  0
   -7.6640   20.2530  -32.6540 C   0  0  0  0  0  0  0  0  0  0  0  0
   -8.1730   21.4290  -32.0820 C   0  0  0  0  0  0  0  0  0  0  0  0
   -7.2660   22.3840  -31.6360 C   0  0  0  0  0  0  0  0  0  0  0  0
   -7.4940   23.6120  -31.0610 C   0  0  0  0  0  0  0  0  0  0  0  0
   -6.2320   24.1490  -30.8380 C   0  0  0  0  0  0  0  0  0  0  0  0
   -6.0200   25.4630  -30.2100 C   0  0  0  0  0  0  0  0  0  0  0  0
   -6.4400   25.7080  -28.8680 N   0  0  0  0  0  0  0  0  0  0  0  0
   -5.3960   26.3580  -30.8390 O   0  0  0  0  0  0  0  0  0  0  0  0
   -5.2520   23.2810  -31.2280 N   0  0  0  0  0  0  0  0  0  0  0  0
   -3.8340   23.4100  -31.0020 C   0  0  0  0  0  0  0  0  0  0  0  0
   -3.2940   24.6130  -30.4590 N   0  0  0  0  0  0  0  0  0  0  0  0
   -3.0490   22.4790  -31.3170 O   0  0  0  0  0  0  0  0  0  0  0  0
   -5.9090   22.2070  -31.7290 C   0  0  0  0  0  0  0  0  0  0  0  0
   -5.3750   21.0510  -32.3150 C   0  0  0  0  0  0  0  0  0  0  0  0
   -4.4260   18.7640  -33.9060 C   0  0  0  0  0  0  0  0  0  0  0  0
   -3.9510   17.5870  -34.4880 C   0  0  0  0  0  0  0  0  0  0  0  0
   -4.7540   16.4950  -34.5730 N   0  0  0  0  0  0  0  0  0  0  0  0
   -7.1161   14.9124  -33.1937 H   0  0  0  0  0  0  0  0  0  0  0  0
   -7.7997   15.5041  -34.7459 H   0  0  0  0  0  0  0  0  0  0  0  0
   -6.3153   14.4925  -34.7459 H   0  0  0  0  0  0  0  0  0  0  0  0
   -7.5747   17.6783  -33.1214 H   0  0  0  0  0  0  0  0  0  0  0  0
   -8.3581   19.4759  -33.0067 H   0  0  0  0  0  0  0  0  0  0  0  0
   -9.2571   21.5905  -31.9892 H   0  0  0  0  0  0  0  0  0  0  0  0
   -8.4662   24.0706  -30.8277 H   0  0  0  0  0  0  0  0  0  0  0  0
   -6.8390   24.9370  -28.2860 H   0  0  0  0  0  0  0  0  0  0  0  0
   -6.2990   26.6460  -28.4340 H   0  0  0  0  0  0  0  0  0  0  0  0
   -3.3940   25.5220  -30.9620 H   0  0  0  0  0  0  0  0  0  0  0  0
   -4.2868   20.9210  -32.4094 H   0  0  0  0  0  0  0  0  0  0  0  0
   -3.7757   19.6486  -33.8384 H   0  0  0  0  0  0  0  0  0  0  0  0
   -2.9236   17.5441  -34.8787 H   0  0  0  0  0  0  0  0  0  0  0  0
  1  2  1  0
  2  3  2  0
  3  4  1  0
  4  5  1  0
  5  6  2  0
  6  7  1  0
  7  8  2  0
  8  9  1  0
  9 10  2  0
 10 11  1  0
 11 12  1  0
 11 13  2  0
 10 14  1  0
 14 15  1  0
 15 16  1  0
 15 17  2  0
 14 18  1  0
 18 19  2  0
  4 20  2  0
 20 21  1  0
 21 22  2  0
 22  2  1  0
 19  5  1  0
 18  8  1  0
  1 23  1  0
  1 24  1  0
  1 25  1  0
  3 26  1  0
  6 27  1  0
  7 28  1  0
  9 29  1  0
 12 30  1  0
 12 31  1  0
 16 32  1  0
 19 33  1  0
 20 34  1  0
 21 35  1  0
M  CHG  1  16  -1
M  END
>  <UniqueID>  (55) 
55

>  <SMILES>  (55) 
Cc1cc(-c2ccc3cc(C(N)=O)n(C([NH-])=O)c3c2)ccn1

>  <Energy>  (55) 
84.90279408111249

>  <Genealogy>  (55) 
Cc1cc(-c2ccc3cc(C(N)=O)n(C([NH-])=O)c3c2)ccn1 (protonated)
Cc1cc(-c2ccc3cc(C(N)=O)n(C([NH-])=O)c3c2)ccn1 (3D coordinates assigned)
Cc1cc(-c2ccc3cc(C(N)=O)n(C([NH-])=O)c3c2)ccn1 (optimized conformer: 84.90279408111249 kcal/mol)

>  <smiles>  (55) 
Cc1cc(-c2ccc3cc(C(N)=O)n(C(N)=O)c3c2)ccn1

>  <score_type>  (55) 
oracle

>  <origin>  (55) 
adg

>  <m_score__min__energy>  (55) 
-9.9100000000000001

>  <m_primary>  (55) 
energy

$$$$
55:0
     RDKit          3D

 35 37  0  0  0  0  0  0  0  0999 V2000
   -8.4260   23.1610  -31.9750 C   0  0  0  0  0  0  0  0  0  0  0  0
   -7.3370   22.9550  -30.9690 C   0  0  0  0  0  0  0  0  0  0  0  0
   -7.6120   23.0440  -29.7420 O   0  0  0  0  0  0  0  0  0  0  0  0
   -5.9860   22.6900  -31.3810 N   0  0  0  0  0  0  0  0  0  0  0  0
   -4.8540   23.3710  -31.0400 C   0  0  0  0  0  0  0  0  0  0  0  0
   -4.8040   24.6510  -30.3070 C   0  0  0  0  0  0  0  0  0  0  0  0
   -5.4430   24.8020  -29.0400 N   0  0  0  0  0  0  0  0  0  0  0  0
   -4.2320   25.6440  -30.8330 O   0  0  0  0  0  0  0  0  0  0  0  0
   -3.7240   22.7240  -31.5330 C   0  0  0  0  0  0  0  0  0  0  0  0
   -4.2020   21.6230  -32.2080 C   0  0  0  0  0  0  0  0  0  0  0  0
   -3.5140   20.6170  -32.8820 C   0  0  0  0  0  0  0  0  0  0  0  0
   -4.2650   19.5790  -33.4570 C   0  0  0  0  0  0  0  0  0  0  0  0
   -5.6780   19.5650  -33.3530 C   0  0  0  0  0  0  0  0  0  0  0  0
   -6.4660   18.4220  -33.9290 C   0  0  0  0  0  0  0  0  0  0  0  0
   -6.8690   17.4520  -32.8130 C   0  0  0  0  0  0  0  0  0  0  0  0
   -5.7190   16.6720  -32.1950 C   0  0  0  0  0  0  0  0  0  0  0  0
   -6.3720   17.8060  -31.4190 C   0  0  0  0  0  0  0  0  0  0  0  0
   -6.3410   20.5970  -32.6500 C   0  0  0  0  0  0  0  0  0  0  0  0
   -5.5690   21.6270  -32.1020 C   0  0  0  0  0  0  0  0  0  0  0  0
   -9.3777   23.3410  -31.4535 H   0  0  0  0  0  0  0  0  0  0  0  0
   -8.1834   24.0292  -32.6054 H   0  0  0  0  0  0  0  0  0  0  0  0
   -8.5173   22.2642  -32.6054 H   0  0  0  0  0  0  0  0  0  0  0  0
   -5.3610   25.7020  -28.5160 H   0  0  0  0  0  0  0  0  0  0  0  0
   -6.0640   24.0570  -28.6560 H   0  0  0  0  0  0  0  0  0  0  0  0
   -2.6739   23.0275  -31.4097 H   0  0  0  0  0  0  0  0  0  0  0  0
   -2.4170   20.6349  -32.9614 H   0  0  0  0  0  0  0  0  0  0  0  0
   -3.7508   18.7682  -33.9938 H   0  0  0  0  0  0  0  0  0  0  0  0
   -7.3710   18.8124  -34.4175 H   0  0  0  0  0  0  0  0  0  0  0  0
   -5.8463   17.8896  -34.6656 H   0  0  0  0  0  0  0  0  0  0  0  0
   -7.8475   17.1956  -33.2451 H   0  0  0  0  0  0  0  0  0  0  0  0
   -5.8696   15.6298  -31.8769 H   0  0  0  0  0  0  0  0  0  0  0  0
   -4.6904   16.4302  -32.5006 H   0  0  0  0  0  0  0  0  0  0  0  0
   -6.9949   17.5838  -30.5400 H   0  0  0  0  0  0  0  0  0  0  0  0
   -6.0114   18.7237  -30.9313 H   0  0  0  0  0  0  0  0  0  0  0  0
   -7.4351   20.5903  -32.5369 H   0  0  0  0  0  0  0  0  0  0  0  0
  1  2  1  0
  2  3  2  0
  2  4  1  0
  4  5  1  0
  5  6  1  0
  6  7  1  0
  6  8  2  0
  5  9  2  0
  9 10  1  0
 10 11  2  0
 11 12  1  0
 12 13  2  0
 13 14  1  0
 14 15  1  0
 15 16  1  0
 16 17  1  0
 13 18  1  0
 18 19  2  0
 19  4  1  0
 19 10  1  0
 17 15  1  0
  1 20  1  0
  1 21  1  0
  1 22  1  0
  7 23  1  0
  7 24  1  0
  9 25  1  0
 11 26  1  0
 12 27  1  0
 14 28  1  0
 14 29  1  0
 15 30  1  0
 16 31  1  0
 16 32  1  0
 17 33  1  0
 17 34  1  0
 18 35  1  0
M  END
>  <UniqueID>  (56) 
56

>  <SMILES>  (56) 
CC(=O)n1c(C(N)=O)cc2ccc(CC3CC3)cc21

>  <Energy>  (56) 
337.0356231569157

>  <Genealogy>  (56) 
CC(=O)n1c(C(N)=O)cc2ccc(CC3CC3)cc21 (3D coordinates assigned)
CC(=O)n1c(C(N)=O)cc2ccc(CC3CC3)cc21 (nonaromatic ring conformer: 337.0356231569157 kcal/mol)

>  <smiles>  (56) 
CC(=O)n1c(C(N)=O)cc2ccc(CC3CC3)cc21

>  <score_type>  (56) 
oracle

>  <origin>  (56) 
adg

>  <m_score__min__energy>  (56) 
-8.5700000000000003

>  <m_primary>  (56) 
energy

$$$$
56:0
     RDKit          3D

 51 53  0  0  0  0  0  0  0  0999 V2000
   -0.8750   26.5050  -27.8120 C   0  0  0  0  0  0  0  0  0  0  0  0
   -1.3810   25.7770  -28.9020 O   0  0  0  0  0  0  0  0  0  0  0  0
   -0.9100   24.4430  -28.8450 C   0  0  0  0  0  0  0  0  0  0  0  0
   -1.9020   23.5320  -28.0840 C   0  0  1  0  0  0  0  0  0  0  0  0
   -3.2840   24.1380  -27.9110 C   0  0  0  0  0  0  0  0  0  0  0  0
   -4.1480   22.9500  -27.5470 C   0  0  0  0  0  0  0  0  0  0  0  0
   -3.3750   21.7180  -28.0220 C   0  0  0  0  0  0  0  0  0  0  0  0
   -2.0870   22.1580  -28.6040 N   0  0  0  0  0  0  0  0  0  0  0  0
   -2.1000   22.0460  -30.0850 C   0  0  0  0  0  0  0  0  0  0  0  0
   -3.3740   21.3380  -30.5720 C   0  0  0  0  0  0  0  0  0  0  0  0
   -4.0930   22.1900  -31.5760 C   0  0  0  0  0  0  0  0  0  0  0  0
   -3.5380   22.4540  -32.6800 O   0  0  0  0  0  0  0  0  0  0  0  0
   -5.4590   22.5760  -31.3530 N   0  0  0  0  0  0  0  0  0  0  0  0
   -5.9260   23.7600  -30.8690 C   0  0  0  0  0  0  0  0  0  0  0  0
   -5.1250   24.9840  -30.6540 C   0  0  0  0  0  0  0  0  0  0  0  0
   -3.7000   24.9410  -30.7080 N   0  0  0  0  0  0  0  0  0  0  0  0
   -5.7040   26.0880  -30.4770 O   0  0  0  0  0  0  0  0  0  0  0  0
   -7.3110   23.7090  -30.7120 C   0  0  0  0  0  0  0  0  0  0  0  0
   -7.6790   22.4490  -31.1300 C   0  0  0  0  0  0  0  0  0  0  0  0
   -8.9400   21.8610  -31.2050 C   0  0  0  0  0  0  0  0  0  0  0  0
   -9.0240   20.5450  -31.6910 C   0  0  0  0  0  0  0  0  0  0  0  0
   -7.8570   19.8480  -32.0920 C   0  0  0  0  0  0  0  0  0  0  0  0
   -7.9630   18.4400  -32.6130 C   0  0  0  0  0  0  0  0  0  0  0  0
   -6.7910   17.6200  -32.1680 C   0  0  0  0  0  0  0  0  0  0  0  0
   -6.4930   17.5570  -30.9860 O   0  0  0  0  0  0  0  0  0  0  0  0
   -6.5940   20.4690  -31.9770 C   0  0  0  0  0  0  0  0  0  0  0  0
   -6.5420   21.7860  -31.5090 C   0  0  0  0  0  0  0  0  0  0  0  0
   -1.2021   26.0343  -26.8731 H   0  0  0  0  0  0  0  0  0  0  0  0
    0.2241   26.5127  -27.8547 H   0  0  0  0  0  0  0  0  0  0  0  0
   -1.2509   27.5379  -27.8547 H   0  0  0  0  0  0  0  0  0  0  0  0
   -0.7863   24.0620  -29.8695 H   0  0  0  0  0  0  0  0  0  0  0  0
    0.0510   24.4353  -28.3099 H   0  0  0  0  0  0  0  0  0  0  0  0
   -1.3809   23.4526  -27.1185 H   0  0  0  0  0  0  0  0  0  0  0  0
   -3.2867   24.8874  -27.1058 H   0  0  0  0  0  0  0  0  0  0  0  0
   -3.6365   24.6644  -28.8102 H   0  0  0  0  0  0  0  0  0  0  0  0
   -4.3054   22.9087  -26.4591 H   0  0  0  0  0  0  0  0  0  0  0  0
   -5.1422   23.0116  -28.0137 H   0  0  0  0  0  0  0  0  0  0  0  0
   -3.1861   21.0488  -27.1697 H   0  0  0  0  0  0  0  0  0  0  0  0
   -3.9620   21.1775  -28.7792 H   0  0  0  0  0  0  0  0  0  0  0  0
   -2.0592   23.0544  -30.5225 H   0  0  0  0  0  0  0  0  0  0  0  0
   -1.2278   21.4541  -30.3996 H   0  0  0  0  0  0  0  0  0  0  0  0
   -3.1008   20.3801  -31.0386 H   0  0  0  0  0  0  0  0  0  0  0  0
   -4.0368   21.1632  -29.7117 H   0  0  0  0  0  0  0  0  0  0  0  0
   -3.1610   25.6710  -31.2250 H   0  0  0  0  0  0  0  0  0  0  0  0
   -7.9693   24.5054  -30.3347 H   0  0  0  0  0  0  0  0  0  0  0  0
   -9.8412   22.4095  -30.8937 H   0  0  0  0  0  0  0  0  0  0  0  0
  -10.0046   20.0514  -31.7608 H   0  0  0  0  0  0  0  0  0  0  0  0
   -8.8884   17.9831  -32.2325 H   0  0  0  0  0  0  0  0  0  0  0  0
   -7.9758   18.4703  -33.7125 H   0  0  0  0  0  0  0  0  0  0  0  0
   -6.1948   17.0708  -32.9116 H   0  0  0  0  0  0  0  0  0  0  0  0
   -5.6741   19.9305  -32.2487 H   0  0  0  0  0  0  0  0  0  0  0  0
  1  2  1  0
  2  3  1  0
  3  4  1  0
  4  5  1  0
  5  6  1  0
  6  7  1  0
  7  8  1  0
  8  9  1  0
  9 10  1  0
 10 11  1  0
 11 12  2  0
 11 13  1  0
 13 14  1  0
 14 15  1  0
 15 16  1  0
 15 17  2  0
 14 18  2  0
 18 19  1  0
 19 20  2  0
 20 21  1  0
 21 22  2  0
 22 23  1  0
 23 24  1  0
 24 25  2  0
 22 26  1  0
 26 27  2  0
  8  4  1  0
 27 13  1  0
 27 19  1  0
  1 28  1  0
  1 29  1  0
  1 30  1  0
  3 31  1  0
  3 32  1  0
  4 33  1  1
  5 34  1  0
  5 35  1  0
  6 36  1  0
  6 37  1  0
  7 38  1  0
  7 39  1  0
  9 40  1  0
  9 41  1  0
 10 42  1  0
 10 43  1  0
 16 44  1  0
 18 45  1  0
 20 46  1  0
 21 47  1  0
 23 48  1  0
 23 49  1  0
 24 50  1  0
 26 51  1  0
M  CHG  1  16  -1
M  END
>  <UniqueID>  (57) 
57

>  <SMILES>  (57) 
COC[C@H]1CCCN1CCC(=O)n1c(C([NH-])=O)cc2ccc(CC=O)cc21

>  <Energy>  (57) 
96.69810535484578

>  <Genealogy>  (57) 
COCC1CCCN1CCC(=O)n1c(C([NH-])=O)cc2ccc(CC=O)cc21 (protonated)
COC[C@H]1CCCN1CCC(=O)n1c(C([NH-])=O)cc2ccc(CC=O)cc21 (chirality)
COC[C@H]1CCCN1CCC(=O)n1c(C([NH-])=O)cc2ccc(CC=O)cc21 (3D coordinates assigned)
COC[C@H]1CCCN1CCC(=O)n1c(C([NH-])=O)cc2ccc(CC=O)cc21 (nonaromatic ring conformer: 96.69810535484578 kcal/mol)

>  <smiles>  (57) 
COCC1CCCN1CCC(=O)n1c(C(N)=O)cc2ccc(CC=O)cc21

>  <score_type>  (57) 
oracle

>  <origin>  (57) 
adg

>  <m_score__min__energy>  (57) 
-11.34

>  <m_primary>  (57) 
energy

$$$$
57:0
     RDKit          3D

 34 36  0  0  0  0  0  0  0  0999 V2000
   -1.6840   25.6740  -28.9820 N   0  0  0  0  0  0  0  0  0  0  0  0
   -1.3380   24.2930  -28.9850 C   0  0  0  0  0  0  0  0  0  0  0  0
   -0.5550   23.8510  -28.1020 O   0  0  0  0  0  0  0  0  0  0  0  0
   -1.9290   23.3620  -29.9690 C   0  0  0  0  0  0  0  0  0  0  0  0
   -1.2820   22.2140  -30.4200 C   0  0  0  0  0  0  0  0  0  0  0  0
   -2.1880   21.5830  -31.2410 C   0  0  0  0  0  0  0  0  0  0  0  0
   -2.0640   20.4050  -31.9730 C   0  0  0  0  0  0  0  0  0  0  0  0
   -3.1520   20.0060  -32.7670 C   0  0  0  0  0  0  0  0  0  0  0  0
   -4.3360   20.7850  -32.8150 C   0  0  0  0  0  0  0  0  0  0  0  0
   -5.4710   20.3760  -33.7120 C   0  0  0  0  0  0  0  0  0  0  0  0
   -6.5960   19.8020  -32.8930 C   0  0  0  0  0  0  0  0  0  0  0  0
   -7.5910   20.6440  -32.3670 C   0  0  0  0  0  0  0  0  0  0  0  0
   -8.6560   20.1050  -31.6380 C   0  0  0  0  0  0  0  0  0  0  0  0
   -8.7400   18.7250  -31.4360 C   0  0  0  0  0  0  0  0  0  0  0  0
   -7.7600   17.8800  -31.9660 C   0  0  0  0  0  0  0  0  0  0  0  0
   -6.6940   18.4150  -32.6960 C   0  0  0  0  0  0  0  0  0  0  0  0
   -4.4210   21.9800  -32.0660 C   0  0  0  0  0  0  0  0  0  0  0  0
   -3.3290   22.3450  -31.2700 C   0  0  0  0  0  0  0  0  0  0  0  0
   -3.1830   23.4440  -30.4960 N   0  0  0  0  0  0  0  0  0  0  0  0
   -4.1270   24.5190  -30.3560 C   0  0  0  0  0  0  0  0  0  0  0  0
   -3.8630   25.6620  -30.8130 O   0  0  0  0  0  0  0  0  0  0  0  0
   -5.3280   24.3140  -29.6880 O   0  0  0  0  0  0  0  0  0  0  0  0
   -2.6830   25.9780  -28.9820 H   0  0  0  0  0  0  0  0  0  0  0  0
   -0.2629   21.8822  -30.1723 H   0  0  0  0  0  0  0  0  0  0  0  0
   -1.1427   19.8055  -31.9308 H   0  0  0  0  0  0  0  0  0  0  0  0
   -3.0849   19.0802  -33.3573 H   0  0  0  0  0  0  0  0  0  0  0  0
   -5.8343   21.2558  -34.2633 H   0  0  0  0  0  0  0  0  0  0  0  0
   -5.1142   19.6126  -34.4190 H   0  0  0  0  0  0  0  0  0  0  0  0
   -7.5319   21.7304  -32.5292 H   0  0  0  0  0  0  0  0  0  0  0  0
   -9.4288   20.7687  -31.2230 H   0  0  0  0  0  0  0  0  0  0  0  0
   -9.5770   18.3033  -30.8601 H   0  0  0  0  0  0  0  0  0  0  0  0
   -7.8277   16.7934  -31.8085 H   0  0  0  0  0  0  0  0  0  0  0  0
   -5.9289   17.7466  -33.1177 H   0  0  0  0  0  0  0  0  0  0  0  0
   -5.3231   22.6081  -32.1074 H   0  0  0  0  0  0  0  0  0  0  0  0
  1  2  1  0
  2  3  2  0
  2  4  1  0
  4  5  2  0
  5  6  1  0
  6  7  2  0
  7  8  1  0
  8  9  2  0
  9 10  1  0
 10 11  1  0
 11 12  2  0
 12 13  1  0
 13 14  2  0
 14 15  1  0
 15 16  2  0
  9 17  1  0
 17 18  2  0
 18 19  1  0
 19 20  1  0
 20 21  2  0
 20 22  1  0
 19  4  1  0
 18  6  1  0
 16 11  1  0
  1 23  1  0
  5 24  1  0
  7 25  1  0
  8 26  1  0
 10 27  1  0
 10 28  1  0
 12 29  1  0
 13 30  1  0
 14 31  1  0
 15 32  1  0
 16 33  1  0
 17 34  1  0
M  CHG  2   1  -1  22  -1
M  END
>  <UniqueID>  (58) 
58

>  <SMILES>  (58) 
[NH-]C(=O)c1cc2ccc(Cc3ccccc3)cc2n1C(=O)[O-]

>  <Energy>  (58) 
75.07652525441257

>  <Genealogy>  (58) 
[NH-]C(=O)c1cc2ccc(Cc3ccccc3)cc2n1C(=O)[O-] (protonated)
[NH-]C(=O)c1cc2ccc(Cc3ccccc3)cc2n1C(=O)[O-] (3D coordinates assigned)
[NH-]C(=O)c1cc2ccc(Cc3ccccc3)cc2n1C(=O)[O-] (optimized conformer: 75.07652525441257 kcal/mol)

>  <smiles>  (58) 
NC(=O)c1cc2ccc(Cc3ccccc3)cc2n1C(=O)O

>  <score_type>  (58) 
oracle

>  <origin>  (58) 
adg

>  <m_score__min__energy>  (58) 
-12.050000000000001

>  <m_primary>  (58) 
energy

$$$$
58:0
     RDKit          3D

 47 49  0  0  0  0  0  0  0  0999 V2000
   -9.5370   21.1080  -31.9320 C   0  0  0  0  0  0  0  0  0  0  0  0
   -9.0810   20.0150  -32.7200 O   0  0  0  0  0  0  0  0  0  0  0  0
   -8.2360   19.0210  -32.2160 C   0  0  0  0  0  0  0  0  0  0  0  0
   -8.6560   18.2280  -31.3280 O   0  0  0  0  0  0  0  0  0  0  0  0
   -6.8510   18.9000  -32.7240 C   0  0  0  0  0  0  0  0  0  0  0  0
   -6.5610   18.0710  -33.8210 C   0  0  0  0  0  0  0  0  0  0  0  0
   -5.2530   17.9570  -34.2940 C   0  0  0  0  0  0  0  0  0  0  0  0
   -4.2190   18.6670  -33.6820 C   0  0  0  0  0  0  0  0  0  0  0  0
   -4.4840   19.5050  -32.5840 C   0  0  0  0  0  0  0  0  0  0  0  0
   -3.3840   20.2620  -31.9330 C   0  0  0  0  0  0  0  0  0  0  0  0
   -2.0650   19.7390  -31.9160 C   0  0  0  0  0  0  0  0  0  0  0  0
   -1.0160   20.4520  -31.3110 C   0  0  0  0  0  0  0  0  0  0  0  0
   -1.3130   21.6780  -30.7250 C   0  0  0  0  0  0  0  0  0  0  0  0
   -0.4900   22.5770  -30.0880 C   0  0  0  0  0  0  0  0  0  0  0  0
   -1.3180   23.6290  -29.7040 C   0  0  0  0  0  0  0  0  0  0  0  0
   -0.8540   24.7790  -28.8990 C   0  0  0  0  0  0  0  0  0  0  0  0
   -1.5660   26.0130  -28.9480 N   0  0  0  0  0  0  0  0  0  0  0  0
    0.1870   24.6960  -28.1950 O   0  0  0  0  0  0  0  0  0  0  0  0
   -2.6020   23.3930  -30.0980 N   0  0  0  0  0  0  0  0  0  0  0  0
   -3.7470   24.2440  -29.9330 C   0  0  0  0  0  0  0  0  0  0  0  0
   -3.8550   25.2950  -30.6220 O   0  0  0  0  0  0  0  0  0  0  0  0
   -4.7460   23.8900  -29.0190 O   0  0  0  0  0  0  0  0  0  0  0  0
   -5.9920   23.3120  -29.4010 C   0  0  0  0  0  0  0  0  0  0  0  0
   -6.8730   24.3220  -30.1500 C   0  0  0  0  0  0  0  0  0  0  0  0
   -7.6140   23.7000  -31.3390 C   0  0  0  0  0  0  0  0  0  0  0  0
   -6.5020   22.8230  -32.4240 Cl  0  0  0  0  0  0  0  0  0  0  0  0
   -2.5830   22.1920  -30.7150 C   0  0  0  0  0  0  0  0  0  0  0  0
   -3.6430   21.5130  -31.3260 C   0  0  0  0  0  0  0  0  0  0  0  0
   -5.8050   19.6140  -32.1120 C   0  0  0  0  0  0  0  0  0  0  0  0
   -9.4333   20.8595  -30.8655 H   0  0  0  0  0  0  0  0  0  0  0  0
   -8.9362   22.0007  -32.1606 H   0  0  0  0  0  0  0  0  0  0  0  0
  -10.5940   21.3090  -32.1606 H   0  0  0  0  0  0  0  0  0  0  0  0
   -7.3700   17.5084  -34.3099 H   0  0  0  0  0  0  0  0  0  0  0  0
   -5.0361   17.3048  -35.1528 H   0  0  0  0  0  0  0  0  0  0  0  0
   -3.1907   18.5706  -34.0606 H   0  0  0  0  0  0  0  0  0  0  0  0
   -1.8612   18.7637  -32.3820 H   0  0  0  0  0  0  0  0  0  0  0  0
    0.0089   20.0527  -31.3012 H   0  0  0  0  0  0  0  0  0  0  0  0
    0.5928   22.4847  -29.9178 H   0  0  0  0  0  0  0  0  0  0  0  0
   -2.6090   26.0290  -28.9890 H   0  0  0  0  0  0  0  0  0  0  0  0
   -5.8003   22.4495  -30.0563 H   0  0  0  0  0  0  0  0  0  0  0  0
   -6.5224   22.9999  -28.4892 H   0  0  0  0  0  0  0  0  0  0  0  0
   -7.6154   24.7290  -29.4477 H   0  0  0  0  0  0  0  0  0  0  0  0
   -6.2119   25.1066  -30.5467 H   0  0  0  0  0  0  0  0  0  0  0  0
   -8.3701   22.9970  -30.9595 H   0  0  0  0  0  0  0  0  0  0  0  0
   -8.0838   24.5122  -31.9132 H   0  0  0  0  0  0  0  0  0  0  0  0
   -4.6556   21.9427  -31.3341 H   0  0  0  0  0  0  0  0  0  0  0  0
   -6.0226   20.2661  -31.2532 H   0  0  0  0  0  0  0  0  0  0  0  0
  1  2  1  0
  2  3  1  0
  3  4  2  0
  3  5  1  0
  5  6  2  0
  6  7  1  0
  7  8  2  0
  8  9  1  0
  9 10  1  0
 10 11  2  0
 11 12  1  0
 12 13  2  0
 13 14  1  0
 14 15  2  0
 15 16  1  0
 16 17  1  0
 16 18  2  0
 15 19  1  0
 19 20  1  0
 20 21  2  0
 20 22  1  0
 22 23  1  0
 23 24  1  0
 24 25  1  0
 25 26  1  0
 19 27  1  0
 27 28  2  0
  9 29  2  0
 29  5  1  0
 28 10  1  0
 27 13  1  0
  1 30  1  0
  1 31  1  0
  1 32  1  0
  6 33  1  0
  7 34  1  0
  8 35  1  0
 11 36  1  0
 12 37  1  0
 14 38  1  0
 17 39  1  0
 23 40  1  0
 23 41  1  0
 24 42  1  0
 24 43  1  0
 25 44  1  0
 25 45  1  0
 28 46  1  0
 29 47  1  0
M  CHG  1  17  -1
M  END
>  <UniqueID>  (59) 
59

>  <SMILES>  (59) 
COC(=O)c1cccc(-c2ccc3cc(C([NH-])=O)n(C(=O)OCCCCl)c3c2)c1

>  <Energy>  (59) 
86.13260517999747

>  <Genealogy>  (59) 
COC(=O)c1cccc(-c2ccc3cc(C([NH-])=O)n(C(=O)OCCCCl)c3c2)c1 (protonated)
COC(=O)c1cccc(-c2ccc3cc(C([NH-])=O)n(C(=O)OCCCCl)c3c2)c1 (3D coordinates assigned)
COC(=O)c1cccc(-c2ccc3cc(C([NH-])=O)n(C(=O)OCCCCl)c3c2)c1 (optimized conformer: 86.13260517999747 kcal/mol)

>  <smiles>  (59) 
COC(=O)c1cccc(-c2ccc3cc(C(N)=O)n(C(=O)OCCCCl)c3c2)c1

>  <score_type>  (59) 
oracle

>  <origin>  (59) 
adg

>  <m_score__min__energy>  (59) 
-11.19

>  <m_primary>  (59) 
energy

$$$$
59:0
     RDKit          3D

 35 36  0  0  0  0  0  0  0  0999 V2000
   -3.4010   19.0410  -33.8300 C   0  0  0  0  0  0  0  0  0  0  0  0
   -4.4310   17.9900  -34.2470 C   0  0  0  0  0  0  0  0  0  0  0  0
   -5.8060   18.6060  -34.5780 C   0  0  0  0  0  0  0  0  0  0  0  0
   -6.8250   18.4860  -33.4330 C   0  0  0  0  0  0  0  0  0  0  0  0
   -7.0540   19.7960  -32.7270 C   0  0  0  0  0  0  0  0  0  0  0  0
   -8.3660   20.1830  -32.3600 C   0  0  0  0  0  0  0  0  0  0  0  0
   -8.5970   21.4090  -31.7150 C   0  0  0  0  0  0  0  0  0  0  0  0
   -7.5020   22.2300  -31.4640 C   0  0  0  0  0  0  0  0  0  0  0  0
   -7.4400   23.4490  -30.8300 C   0  0  0  0  0  0  0  0  0  0  0  0
   -6.0940   23.8060  -30.8510 C   0  0  0  0  0  0  0  0  0  0  0  0
   -5.5850   25.0850  -30.3170 C   0  0  0  0  0  0  0  0  0  0  0  0
   -6.1110   25.6480  -29.1140 N   0  0  0  0  0  0  0  0  0  0  0  0
   -4.6320   25.6640  -30.9030 O   0  0  0  0  0  0  0  0  0  0  0  0
   -5.3490   22.8430  -31.4630 N   0  0  0  0  0  0  0  0  0  0  0  0
   -3.9170   22.7950  -31.5840 C   0  0  0  0  0  0  0  0  0  0  0  0
   -3.0960   23.6370  -30.7770 N   0  0  0  0  0  0  0  0  0  0  0  0
   -3.3770   21.9990  -32.3980 O   0  0  0  0  0  0  0  0  0  0  0  0
   -6.2270   21.8820  -31.8330 C   0  0  0  0  0  0  0  0  0  0  0  0
   -5.9650   20.6540  -32.4520 C   0  0  0  0  0  0  0  0  0  0  0  0
   -3.3520   19.0910  -32.7322 H   0  0  0  0  0  0  0  0  0  0  0  0
   -2.4137   18.7653  -34.2289 H   0  0  0  0  0  0  0  0  0  0  0  0
   -3.6966   20.0226  -34.2289 H   0  0  0  0  0  0  0  0  0  0  0  0
   -4.0569   17.4640  -35.1377 H   0  0  0  0  0  0  0  0  0  0  0  0
   -4.5689   17.3035  -33.3987 H   0  0  0  0  0  0  0  0  0  0  0  0
   -5.6635   19.6725  -34.8066 H   0  0  0  0  0  0  0  0  0  0  0  0
   -6.2133   18.0462  -35.4328 H   0  0  0  0  0  0  0  0  0  0  0  0
   -7.7821   18.1363  -33.8474 H   0  0  0  0  0  0  0  0  0  0  0  0
   -6.4199   17.7756  -32.6974 H   0  0  0  0  0  0  0  0  0  0  0  0
   -9.2125   19.5167  -32.5824 H   0  0  0  0  0  0  0  0  0  0  0  0
   -9.6121   21.7108  -31.4175 H   0  0  0  0  0  0  0  0  0  0  0  0
   -8.2753   24.0201  -30.3985 H   0  0  0  0  0  0  0  0  0  0  0  0
   -5.7670   26.5740  -28.7760 H   0  0  0  0  0  0  0  0  0  0  0  0
   -6.7720   25.1110  -28.5120 H   0  0  0  0  0  0  0  0  0  0  0  0
   -3.0630   24.6670  -30.9390 H   0  0  0  0  0  0  0  0  0  0  0  0
   -4.9376   20.3642  -32.7176 H   0  0  0  0  0  0  0  0  0  0  0  0
  1  2  1  0
  2  3  1  0
  3  4  1  0
  4  5  1  0
  5  6  2  0
  6  7  1  0
  7  8  2  0
  8  9  1  0
  9 10  2  0
 10 11  1  0
 11 12  1  0
 11 13  2  0
 10 14  1  0
 14 15  1  0
 15 16  1  0
 15 17  2  0
 14 18  1  0
 18 19  2  0
 19  5  1  0
 18  8  1  0
  1 20  1  0
  1 21  1  0
  1 22  1  0
  2 23  1  0
  2 24  1  0
  3 25  1  0
  3 26  1  0
  4 27  1  0
  4 28  1  0
  6 29  1  0
  7 30  1  0
  9 31  1  0
 12 32  1  0
 12 33  1  0
 16 34  1  0
 19 35  1  0
M  CHG  1  16  -1
M  END
>  <UniqueID>  (60) 
60

>  <SMILES>  (60) 
CCCCc1ccc2cc(C(N)=O)n(C([NH-])=O)c2c1

>  <Energy>  (60) 
69.42626587716438

>  <Genealogy>  (60) 
CCCCc1ccc2cc(C(N)=O)n(C([NH-])=O)c2c1 (protonated)
CCCCc1ccc2cc(C(N)=O)n(C([NH-])=O)c2c1 (3D coordinates assigned)
CCCCc1ccc2cc(C(N)=O)n(C([NH-])=O)c2c1 (optimized conformer: 69.42626587716438 kcal/mol)

>  <smiles>  (60) 
CCCCc1ccc2cc(C(N)=O)n(C(N)=O)c2c1

>  <score_type>  (60) 
oracle

>  <origin>  (60) 
adg

>  <m_score__min__energy>  (60) 
-8.9199999999999999

>  <m_primary>  (60) 
energy

$$$$
60:0
     RDKit          3D

 38 40  0  0  0  0  0  0  0  0999 V2000
   -7.6150   22.3910  -31.0960 C   0  0  0  0  0  0  0  0  0  0  0  0
   -7.9860   21.7750  -32.3220 O   0  0  0  0  0  0  0  0  0  0  0  0
   -8.7550   20.6090  -32.3790 C   0  0  0  0  0  0  0  0  0  0  0  0
   -9.9570   20.6180  -32.0020 O   0  0  0  0  0  0  0  0  0  0  0  0
   -8.1730   19.3740  -32.8130 N   0  0  0  0  0  0  0  0  0  0  0  0
   -6.7880   19.1560  -33.1150 C   0  0  0  0  0  0  0  0  0  0  0  0
   -6.4580   18.2750  -34.1510 C   0  0  0  0  0  0  0  0  0  0  0  0
   -5.1220   18.0450  -34.4840 C   0  0  0  0  0  0  0  0  0  0  0  0
   -4.1030   18.7050  -33.7950 C   0  0  0  0  0  0  0  0  0  0  0  0
   -4.4110   19.6180  -32.7710 C   0  0  0  0  0  0  0  0  0  0  0  0
   -3.3290   20.3370  -32.0520 C   0  0  0  0  0  0  0  0  0  0  0  0
   -2.0290   19.7730  -31.9660 C   0  0  0  0  0  0  0  0  0  0  0  0
   -1.0010   20.4380  -31.2790 C   0  0  0  0  0  0  0  0  0  0  0  0
   -1.2940   21.6660  -30.6960 C   0  0  0  0  0  0  0  0  0  0  0  0
   -0.4950   22.5050  -29.9540 C   0  0  0  0  0  0  0  0  0  0  0  0
   -1.3070   23.5860  -29.6170 C   0  0  0  0  0  0  0  0  0  0  0  0
   -0.8160   24.7730  -28.8850 C   0  0  0  0  0  0  0  0  0  0  0  0
   -1.5170   26.0120  -28.9420 N   0  0  0  0  0  0  0  0  0  0  0  0
    0.2660   24.7050  -28.2420 O   0  0  0  0  0  0  0  0  0  0  0  0
   -2.5620   23.4170  -30.1230 N   0  0  0  0  0  0  0  0  0  0  0  0
   -3.7110   24.2570  -29.9280 C   0  0  0  0  0  0  0  0  0  0  0  0
   -3.8310   25.3320  -30.5730 O   0  0  0  0  0  0  0  0  0  0  0  0
   -4.6900   23.9050  -29.0070 O   0  0  0  0  0  0  0  0  0  0  0  0
   -2.5370   22.2370  -30.7820 C   0  0  0  0  0  0  0  0  0  0  0  0
   -3.5860   21.5880  -31.4430 C   0  0  0  0  0  0  0  0  0  0  0  0
   -5.7620   19.8430  -32.4410 C   0  0  0  0  0  0  0  0  0  0  0  0
   -7.9808   21.7836  -30.2550 H   0  0  0  0  0  0  0  0  0  0  0  0
   -6.5191   22.4697  -31.0421 H   0  0  0  0  0  0  0  0  0  0  0  0
   -8.0579   23.3964  -31.0421 H   0  0  0  0  0  0  0  0  0  0  0  0
   -7.2562   17.7606  -34.7063 H   0  0  0  0  0  0  0  0  0  0  0  0
   -4.8715   17.3416  -35.2917 H   0  0  0  0  0  0  0  0  0  0  0  0
   -3.0522   18.5095  -34.0549 H   0  0  0  0  0  0  0  0  0  0  0  0
   -1.8247   18.8033  -32.4434 H   0  0  0  0  0  0  0  0  0  0  0  0
    0.0057   20.0009  -31.2042 H   0  0  0  0  0  0  0  0  0  0  0  0
    0.5607   22.3544  -29.6841 H   0  0  0  0  0  0  0  0  0  0  0  0
   -2.5600   26.0380  -28.9710 H   0  0  0  0  0  0  0  0  0  0  0  0
   -4.5877   22.0403  -31.4881 H   0  0  0  0  0  0  0  0  0  0  0  0
   -6.0169   20.5625  -31.6490 H   0  0  0  0  0  0  0  0  0  0  0  0
  1  2  1  0
  2  3  1  0
  3  4  2  0
  3  5  1  0
  5  6  1  0
  6  7  2  0
  7  8  1  0
  8  9  2  0
  9 10  1  0
 10 11  1  0
 11 12  2  0
 12 13  1  0
 13 14  2  0
 14 15  1  0
 15 16  2  0
 16 17  1  0
 17 18  1  0
 17 19  2  0
 16 20  1  0
 20 21  1  0
 21 22  2  0
 21 23  1  0
 20 24  1  0
 24 25  2  0
 10 26  2  0
 26  6  1  0
 25 11  1  0
 24 14  1  0
  1 27  1  0
  1 28  1  0
  1 29  1  0
  7 30  1  0
  8 31  1  0
  9 32  1  0
 12 33  1  0
 13 34  1  0
 15 35  1  0
 18 36  1  0
 25 37  1  0
 26 38  1  0
M  CHG  3   5  -1  18  -1  23  -1
M  END
>  <UniqueID>  (61) 
61

>  <SMILES>  (61) 
COC(=O)[N-]c1cccc(-c2ccc3cc(C([NH-])=O)n(C(=O)[O-])c3c2)c1

>  <Energy>  (61) 
86.53644044413734

>  <Genealogy>  (61) 
COC(=O)[N-]c1cccc(-c2ccc3cc(C([NH-])=O)n(C(=O)[O-])c3c2)c1 (protonated)
COC(=O)[N-]c1cccc(-c2ccc3cc(C([NH-])=O)n(C(=O)[O-])c3c2)c1 (3D coordinates assigned)
COC(=O)[N-]c1cccc(-c2ccc3cc(C([NH-])=O)n(C(=O)[O-])c3c2)c1 (optimized conformer: 86.53644044413734 kcal/mol)

>  <smiles>  (61) 
COC(=O)Nc1cccc(-c2ccc3cc(C(N)=O)n(C(=O)O)c3c2)c1

>  <score_type>  (61) 
oracle

>  <origin>  (61) 
adg

>  <m_score__min__energy>  (61) 
-11.6

>  <m_primary>  (61) 
energy

$$$$
61:0
     RDKit          3D

 43 45  0  0  0  0  0  0  0  0999 V2000
    0.6500   18.9370  -36.4870 C   0  0  0  0  0  0  0  0  0  0  0  0
    0.5000   20.2930  -35.8800 C   0  0  0  0  0  0  0  0  0  0  0  0
    1.0620   21.3840  -36.3460 O   0  0  0  0  0  0  0  0  0  0  0  0
    0.6710   22.3550  -35.5530 C   0  0  0  0  0  0  0  0  0  0  0  0
    1.0200   23.5560  -35.6950 O   0  0  0  0  0  0  0  0  0  0  0  0
   -0.1250   21.9370  -34.5950 O   0  0  0  0  0  0  0  0  0  0  0  0
   -0.2570   20.6440  -34.7760 C   0  0  0  0  0  0  0  0  0  0  0  0
   -1.0800   19.7460  -33.9100 C   0  0  0  0  0  0  0  0  0  0  0  0
   -2.4080   20.2480  -33.8400 O   0  0  0  0  0  0  0  0  0  0  0  0
   -3.1280   20.3570  -32.6490 C   0  0  0  0  0  0  0  0  0  0  0  0
   -2.5280   20.3210  -31.5400 O   0  0  0  0  0  0  0  0  0  0  0  0
   -4.5560   20.5270  -32.6930 N   0  0  0  0  0  0  0  0  0  0  0  0
   -5.4630   19.7750  -33.3800 C   0  0  0  0  0  0  0  0  0  0  0  0
   -5.1460   18.7120  -34.3520 C   0  0  0  0  0  0  0  0  0  0  0  0
   -3.9230   17.9770  -34.2700 N   0  0  0  0  0  0  0  0  0  0  0  0
   -5.9370   18.4890  -35.3070 O   0  0  0  0  0  0  0  0  0  0  0  0
   -6.7620   20.1900  -33.1000 C   0  0  0  0  0  0  0  0  0  0  0  0
   -6.6250   21.2440  -32.2270 C   0  0  0  0  0  0  0  0  0  0  0  0
   -7.5980   22.0390  -31.6300 C   0  0  0  0  0  0  0  0  0  0  0  0
   -7.1760   23.0550  -30.7560 C   0  0  0  0  0  0  0  0  0  0  0  0
   -5.7980   23.2520  -30.4850 C   0  0  0  0  0  0  0  0  0  0  0  0
   -5.3630   24.3520  -29.5380 C   0  0  2  0  0  0  0  0  0  0  0  0
   -6.3910   25.4920  -29.5020 C   0  0  0  0  0  0  0  0  0  0  0  0
   -3.9940   24.8560  -29.9060 C   0  0  0  0  0  0  0  0  0  0  0  0
   -3.8580   25.6610  -30.8650 O   0  0  0  0  0  0  0  0  0  0  0  0
   -2.8770   24.4840  -29.1650 O   0  0  0  0  0  0  0  0  0  0  0  0
   -4.8400   22.4150  -31.1060 C   0  0  0  0  0  0  0  0  0  0  0  0
   -5.2860   21.4280  -31.9930 C   0  0  0  0  0  0  0  0  0  0  0  0
    0.7332   18.1850  -35.6885 H   0  0  0  0  0  0  0  0  0  0  0  0
   -0.2290   18.7148  -37.1098 H   0  0  0  0  0  0  0  0  0  0  0  0
    1.5564   18.9123  -37.1098 H   0  0  0  0  0  0  0  0  0  0  0  0
   -1.0923   18.7329  -34.3383 H   0  0  0  0  0  0  0  0  0  0  0  0
   -0.6463   19.7098  -32.8998 H   0  0  0  0  0  0  0  0  0  0  0  0
   -3.1770   18.2480  -33.5920 H   0  0  0  0  0  0  0  0  0  0  0  0
   -3.7290   17.2060  -34.9470 H   0  0  0  0  0  0  0  0  0  0  0  0
   -7.6978   19.7658  -33.4929 H   0  0  0  0  0  0  0  0  0  0  0  0
   -8.6663   21.8770  -31.8361 H   0  0  0  0  0  0  0  0  0  0  0  0
   -7.9229   23.7049  -30.2766 H   0  0  0  0  0  0  0  0  0  0  0  0
   -5.3071   23.9306  -28.5235 H   0  0  0  0  0  0  0  0  0  0  0  0
   -6.6202   25.7462  -28.4566 H   0  0  0  0  0  0  0  0  0  0  0  0
   -5.9776   26.3747  -30.0118 H   0  0  0  0  0  0  0  0  0  0  0  0
   -7.3116   25.1718  -30.0118 H   0  0  0  0  0  0  0  0  0  0  0  0
   -3.7672   22.5376  -30.8959 H   0  0  0  0  0  0  0  0  0  0  0  0
  1  2  1  0
  2  3  1  0
  3  4  1  0
  4  5  2  0
  4  6  1  0
  6  7  1  0
  7  8  1  0
  8  9  1  0
  9 10  1  0
 10 11  2  0
 10 12  1  0
 12 13  1  0
 13 14  1  0
 14 15  1  0
 14 16  2  0
 13 17  2  0
 17 18  1  0
 18 19  2  0
 19 20  1  0
 20 21  2  0
 21 22  1  0
 22 23  1  0
 22 24  1  0
 24 25  2  0
 24 26  1  0
 21 27  1  0
 27 28  2  0
  7  2  2  0
 28 12  1  0
 28 18  1  0
  1 29  1  0
  1 30  1  0
  1 31  1  0
  8 32  1  0
  8 33  1  0
 15 34  1  0
 15 35  1  0
 17 36  1  0
 19 37  1  0
 20 38  1  0
 22 39  1  1
 23 40  1  0
 23 41  1  0
 23 42  1  0
 27 43  1  0
M  CHG  1  26  -1
M  END
>  <UniqueID>  (62) 
62

>  <SMILES>  (62) 
Cc1oc(=O)oc1COC(=O)n1c(C(N)=O)cc2ccc([C@H](C)C(=O)[O-])cc21

>  <Energy>  (62) 
110.64655074644718

>  <Genealogy>  (62) 
Cc1oc(=O)oc1COC(=O)n1c(C(N)=O)cc2ccc(C(C)C(=O)[O-])cc21 (protonated)
Cc1oc(=O)oc1COC(=O)n1c(C(N)=O)cc2ccc([C@H](C)C(=O)[O-])cc21 (chirality)
Cc1oc(=O)oc1COC(=O)n1c(C(N)=O)cc2ccc([C@H](C)C(=O)[O-])cc21 (3D coordinates assigned)
Cc1oc(=O)oc1COC(=O)n1c(C(N)=O)cc2ccc([C@H](C)C(=O)[O-])cc21 (optimized conformer: 110.64655074644718 kcal/mol)

>  <smiles>  (62) 
Cc1oc(=O)oc1COC(=O)n1c(C(N)=O)cc2ccc(C(C)C(=O)O)cc21

>  <score_type>  (62) 
oracle

>  <origin>  (62) 
adg

>  <m_score__min__energy>  (62) 
-10.85

>  <m_primary>  (62) 
energy

$$$$
62:0
     RDKit          3D

 35 36  0  0  0  0  0  0  0  0999 V2000
   -6.8760   16.9390  -33.2630 C   0  0  0  0  0  0  0  0  0  0  0  0
   -5.3640   15.9790  -33.5880 S   0  0  0  0  0  0  0  0  0  0  0  0
   -4.7180   17.1380  -34.8450 C   0  0  0  0  0  0  0  0  0  0  0  0
   -5.1830   18.5740  -34.5730 C   0  0  0  0  0  0  0  0  0  0  0  0
   -4.4880   19.2360  -33.3710 C   0  0  0  0  0  0  0  0  0  0  0  0
   -5.3360   20.3130  -32.7450 C   0  0  0  0  0  0  0  0  0  0  0  0
   -6.7470   20.2580  -32.8550 C   0  0  0  0  0  0  0  0  0  0  0  0
   -7.5480   21.2680  -32.2970 C   0  0  0  0  0  0  0  0  0  0  0  0
   -6.9100   22.3240  -31.6530 C   0  0  0  0  0  0  0  0  0  0  0  0
   -7.4430   23.4230  -31.0180 C   0  0  0  0  0  0  0  0  0  0  0  0
   -6.3470   24.1510  -30.5580 C   0  0  0  0  0  0  0  0  0  0  0  0
   -6.4550   25.4690  -29.8920 C   0  0  0  0  0  0  0  0  0  0  0  0
   -5.5790   26.5400  -30.2490 N   0  0  0  0  0  0  0  0  0  0  0  0
   -7.3040   25.6490  -28.9800 O   0  0  0  0  0  0  0  0  0  0  0  0
   -5.1830   23.5260  -30.8940 N   0  0  0  0  0  0  0  0  0  0  0  0
   -3.8420   23.9280  -30.5630 C   0  0  0  0  0  0  0  0  0  0  0  0
   -2.9650   23.0630  -30.2990 O   0  0  0  0  0  0  0  0  0  0  0  0
   -3.4960   25.2730  -30.5460 O   0  0  0  0  0  0  0  0  0  0  0  0
   -5.5450   22.4080  -31.5620 C   0  0  0  0  0  0  0  0  0  0  0  0
   -4.7240   21.4030  -32.0860 C   0  0  0  0  0  0  0  0  0  0  0  0
   -7.0242   17.0331  -32.1771 H   0  0  0  0  0  0  0  0  0  0  0  0
   -6.7773   17.9402  -33.7077 H   0  0  0  0  0  0  0  0  0  0  0  0
   -7.7401   16.4238  -33.7077 H   0  0  0  0  0  0  0  0  0  0  0  0
   -3.6185   17.1084  -34.8277 H   0  0  0  0  0  0  0  0  0  0  0  0
   -5.1011   16.8304  -35.8292 H   0  0  0  0  0  0  0  0  0  0  0  0
   -4.9788   19.1798  -35.4682 H   0  0  0  0  0  0  0  0  0  0  0  0
   -6.2555   18.5229  -34.3339 H   0  0  0  0  0  0  0  0  0  0  0  0
   -4.2787   18.4655  -32.6144 H   0  0  0  0  0  0  0  0  0  0  0  0
   -3.5608   19.7042  -33.7330 H   0  0  0  0  0  0  0  0  0  0  0  0
   -7.2200   19.4165  -33.3823 H   0  0  0  0  0  0  0  0  0  0  0  0
   -8.6450   21.2256  -32.3668 H   0  0  0  0  0  0  0  0  0  0  0  0
   -8.5075   23.6734  -30.8989 H   0  0  0  0  0  0  0  0  0  0  0  0
   -5.6370   27.4530  -29.7450 H   0  0  0  0  0  0  0  0  0  0  0  0
   -4.9010   26.4480  -31.0360 H   0  0  0  0  0  0  0  0  0  0  0  0
   -3.6299   21.4601  -31.9874 H   0  0  0  0  0  0  0  0  0  0  0  0
  1  2  1  0
  2  3  1  0
  3  4  1  0
  4  5  1  0
  5  6  1  0
  6  7  2  0
  7  8  1  0
  8  9  2  0
  9 10  1  0
 10 11  2  0
 11 12  1  0
 12 13  1  0
 12 14  2  0
 11 15  1  0
 15 16  1  0
 16 17  2  0
 16 18  1  0
 15 19  1  0
 19 20  2  0
 20  6  1  0
 19  9  1  0
  1 21  1  0
  1 22  1  0
  1 23  1  0
  3 24  1  0
  3 25  1  0
  4 26  1  0
  4 27  1  0
  5 28  1  0
  5 29  1  0
  7 30  1  0
  8 31  1  0
 10 32  1  0
 13 33  1  0
 13 34  1  0
 20 35  1  0
M  CHG  1  18  -1
M  END
>  <UniqueID>  (63) 
63

>  <SMILES>  (63) 
CSCCCc1ccc2cc(C(N)=O)n(C(=O)[O-])c2c1

>  <Energy>  (63) 
65.83634610521521

>  <Genealogy>  (63) 
CSCCCc1ccc2cc(C(N)=O)n(C(=O)[O-])c2c1 (protonated)
CSCCCc1ccc2cc(C(N)=O)n(C(=O)[O-])c2c1 (3D coordinates assigned)
CSCCCc1ccc2cc(C(N)=O)n(C(=O)[O-])c2c1 (optimized conformer: 65.83634610521521 kcal/mol)

>  <smiles>  (63) 
CSCCCc1ccc2cc(C(N)=O)n(C(=O)O)c2c1

>  <score_type>  (63) 
oracle

>  <origin>  (63) 
adg

>  <m_score__min__energy>  (63) 
-8.6699999999999999

>  <m_primary>  (63) 
energy

$$$$
63:0
     RDKit          3D

 43 45  0  0  0  0  0  0  0  0999 V2000
   -1.1680   26.3070  -27.7770 C   0  0  0  0  0  0  0  0  0  0  0  0
   -1.6580   25.6590  -28.9440 O   0  0  0  0  0  0  0  0  0  0  0  0
   -1.5790   24.2740  -29.1270 C   0  0  0  0  0  0  0  0  0  0  0  0
   -0.5390   23.7510  -29.6120 O   0  0  0  0  0  0  0  0  0  0  0  0
   -2.7220   23.3970  -28.7080 C   0  0  0  0  0  0  0  0  0  0  0  0
   -2.8250   22.1220  -29.5550 C   0  0  0  0  0  0  0  0  0  0  0  0
   -3.4020   22.4050  -30.9140 C   0  0  0  0  0  0  0  0  0  0  0  0
   -2.6300   22.6080  -31.8880 O   0  0  0  0  0  0  0  0  0  0  0  0
   -4.8190   22.5550  -31.0870 N   0  0  0  0  0  0  0  0  0  0  0  0
   -5.5790   23.6630  -30.8610 C   0  0  0  0  0  0  0  0  0  0  0  0
   -5.1250   24.9020  -30.1980 C   0  0  0  0  0  0  0  0  0  0  0  0
   -4.0140   25.6370  -30.7050 N   0  0  0  0  0  0  0  0  0  0  0  0
   -5.7020   25.2990  -29.1510 O   0  0  0  0  0  0  0  0  0  0  0  0
   -6.8900   23.4480  -31.2860 C   0  0  0  0  0  0  0  0  0  0  0  0
   -6.9080   22.1610  -31.7750 C   0  0  0  0  0  0  0  0  0  0  0  0
   -7.9460   21.4340  -32.3470 C   0  0  0  0  0  0  0  0  0  0  0  0
   -7.6680   20.1330  -32.8000 C   0  0  0  0  0  0  0  0  0  0  0  0
   -6.3640   19.5830  -32.6770 C   0  0  0  0  0  0  0  0  0  0  0  0
   -6.0800   18.2100  -33.1680 C   0  0  0  0  0  0  0  0  0  0  0  0
   -4.7680   17.8250  -33.5010 C   0  0  0  0  0  0  0  0  0  0  0  0
   -4.5030   16.5330  -33.9640 C   0  0  0  0  0  0  0  0  0  0  0  0
   -5.5430   15.6110  -34.0970 C   0  0  0  0  0  0  0  0  0  0  0  0
   -6.8490   15.9790  -33.7690 C   0  0  0  0  0  0  0  0  0  0  0  0
   -7.1190   17.2710  -33.3070 C   0  0  0  0  0  0  0  0  0  0  0  0
   -5.3370   20.3580  -32.0890 C   0  0  0  0  0  0  0  0  0  0  0  0
   -5.6470   21.6440  -31.6400 C   0  0  0  0  0  0  0  0  0  0  0  0
   -1.5550   25.7952  -26.8835 H   0  0  0  0  0  0  0  0  0  0  0  0
   -0.0686   26.2718  -27.7723 H   0  0  0  0  0  0  0  0  0  0  0  0
   -1.5013   27.3553  -27.7723 H   0  0  0  0  0  0  0  0  0  0  0  0
   -2.5797   23.1108  -27.6555 H   0  0  0  0  0  0  0  0  0  0  0  0
   -3.6512   23.9684  -28.8495 H   0  0  0  0  0  0  0  0  0  0  0  0
   -1.8198   21.6921  -29.6765 H   0  0  0  0  0  0  0  0  0  0  0  0
   -3.4935   21.4184  -29.0373 H   0  0  0  0  0  0  0  0  0  0  0  0
   -3.0360   25.3000  -30.5610 H   0  0  0  0  0  0  0  0  0  0  0  0
   -7.7306   24.1560  -31.2402 H   0  0  0  0  0  0  0  0  0  0  0  0
   -8.9540   21.8640  -32.4421 H   0  0  0  0  0  0  0  0  0  0  0  0
   -8.4699   19.5333  -33.2553 H   0  0  0  0  0  0  0  0  0  0  0  0
   -3.9444   18.5466  -33.3961 H   0  0  0  0  0  0  0  0  0  0  0  0
   -3.4744   16.2425  -34.2238 H   0  0  0  0  0  0  0  0  0  0  0  0
   -5.3332   14.5942  -34.4604 H   0  0  0  0  0  0  0  0  0  0  0  0
   -7.6672   15.2514  -33.8741 H   0  0  0  0  0  0  0  0  0  0  0  0
   -8.1502   17.5552  -33.0506 H   0  0  0  0  0  0  0  0  0  0  0  0
   -4.3176   19.9572  -31.9876 H   0  0  0  0  0  0  0  0  0  0  0  0
  1  2  1  0
  2  3  1  0
  3  4  2  0
  3  5  1  0
  5  6  1  0
  6  7  1  0
  7  8  2  0
  7  9  1  0
  9 10  1  0
 10 11  1  0
 11 12  1  0
 11 13  2  0
 10 14  2  0
 14 15  1  0
 15 16  2  0
 16 17  1  0
 17 18  2  0
 18 19  1  0
 19 20  2  0
 20 21  1  0
 21 22  2  0
 22 23  1  0
 23 24  2  0
 18 25  1  0
 25 26  2  0
 26  9  1  0
 26 15  1  0
 24 19  1  0
  1 27  1  0
  1 28  1  0
  1 29  1  0
  5 30  1  0
  5 31  1  0
  6 32  1  0
  6 33  1  0
 12 34  1  0
 14 35  1  0
 16 36  1  0
 17 37  1  0
 20 38  1  0
 21 39  1  0
 22 40  1  0
 23 41  1  0
 24 42  1  0
 25 43  1  0
M  CHG  1  12  -1
M  END
>  <UniqueID>  (64) 
64

>  <SMILES>  (64) 
COC(=O)CCC(=O)n1c(C([NH-])=O)cc2ccc(-c3ccccc3)cc21

>  <Energy>  (64) 
81.7608511285637

>  <Genealogy>  (64) 
COC(=O)CCC(=O)n1c(C([NH-])=O)cc2ccc(-c3ccccc3)cc21 (protonated)
COC(=O)CCC(=O)n1c(C([NH-])=O)cc2ccc(-c3ccccc3)cc21 (3D coordinates assigned)
COC(=O)CCC(=O)n1c(C([NH-])=O)cc2ccc(-c3ccccc3)cc21 (optimized conformer: 81.7608511285637 kcal/mol)

>  <smiles>  (64) 
COC(=O)CCC(=O)n1c(C(N)=O)cc2ccc(-c3ccccc3)cc21

>  <score_type>  (64) 
oracle

>  <origin>  (64) 
adg

>  <m_score__min__energy>  (64) 
-11.34

>  <m_primary>  (64) 
energy

$$$$
64:0
     RDKit          3D

 38 40  0  0  0  0  0  0  0  0999 V2000
   -9.8700   21.5710  -31.2010 C   0  0  0  0  0  0  0  0  0  0  0  0
   -9.3090   20.2780  -31.4070 O   0  0  0  0  0  0  0  0  0  0  0  0
   -8.0180   20.0460  -31.9040 C   0  0  0  0  0  0  0  0  0  0  0  0
   -7.3670   21.0870  -32.5770 C   0  0  0  0  0  0  0  0  0  0  0  0
   -6.0800   20.9060  -33.0910 C   0  0  0  0  0  0  0  0  0  0  0  0
   -5.4270   19.6730  -32.9460 C   0  0  0  0  0  0  0  0  0  0  0  0
   -4.0260   19.4890  -33.4630 C   0  0  0  0  0  0  0  0  0  0  0  0
   -3.0450   20.1720  -32.5510 C   0  0  0  0  0  0  0  0  0  0  0  0
   -1.7540   19.6220  -32.3560 C   0  0  0  0  0  0  0  0  0  0  0  0
   -0.8190   20.2650  -31.5270 C   0  0  0  0  0  0  0  0  0  0  0  0
   -1.1970   21.4610  -30.9240 C   0  0  0  0  0  0  0  0  0  0  0  0
   -0.4980   22.2770  -30.0640 C   0  0  0  0  0  0  0  0  0  0  0  0
   -1.3600   23.3320  -29.7750 C   0  0  0  0  0  0  0  0  0  0  0  0
   -0.9700   24.4940  -28.9490 C   0  0  0  0  0  0  0  0  0  0  0  0
   -1.7350   25.6960  -28.9670 N   0  0  0  0  0  0  0  0  0  0  0  0
    0.0810   24.4420  -28.2560 O   0  0  0  0  0  0  0  0  0  0  0  0
   -2.5480   23.1720  -30.4230 N   0  0  0  0  0  0  0  0  0  0  0  0
   -3.7250   23.9900  -30.3130 C   0  0  0  0  0  0  0  0  0  0  0  0
   -4.7490   23.5540  -29.7240 O   0  0  0  0  0  0  0  0  0  0  0  0
   -3.7340   25.2790  -30.8310 O   0  0  0  0  0  0  0  0  0  0  0  0
   -2.4320   22.0220  -31.1240 C   0  0  0  0  0  0  0  0  0  0  0  0
   -3.3890   21.3930  -31.9280 C   0  0  0  0  0  0  0  0  0  0  0  0
   -6.0720   18.6300  -32.2610 C   0  0  0  0  0  0  0  0  0  0  0  0
   -7.3580   18.8120  -31.7480 C   0  0  0  0  0  0  0  0  0  0  0  0
   -9.9547   21.7662  -30.1218 H   0  0  0  0  0  0  0  0  0  0  0  0
   -9.2203   22.3301  -31.6611 H   0  0  0  0  0  0  0  0  0  0  0  0
  -10.8682   21.6151  -31.6611 H   0  0  0  0  0  0  0  0  0  0  0  0
   -7.8729   22.0557  -32.7023 H   0  0  0  0  0  0  0  0  0  0  0  0
   -5.5769   21.7342  -33.6116 H   0  0  0  0  0  0  0  0  0  0  0  0
   -3.7932   18.4149  -33.5088 H   0  0  0  0  0  0  0  0  0  0  0  0
   -3.9519   19.9312  -34.4675 H   0  0  0  0  0  0  0  0  0  0  0  0
   -1.4808   18.6824  -32.8585 H   0  0  0  0  0  0  0  0  0  0  0  0
    0.1802   19.8365  -31.3600 H   0  0  0  0  0  0  0  0  0  0  0  0
    0.5240   22.1277  -29.6855 H   0  0  0  0  0  0  0  0  0  0  0  0
   -2.7620   25.6760  -29.1480 H   0  0  0  0  0  0  0  0  0  0  0  0
   -4.3847   21.8380  -32.0716 H   0  0  0  0  0  0  0  0  0  0  0  0
   -5.5614   17.6648  -32.1280 H   0  0  0  0  0  0  0  0  0  0  0  0
   -7.8580   17.9871  -31.2193 H   0  0  0  0  0  0  0  0  0  0  0  0
  1  2  1  0
  2  3  1  0
  3  4  2  0
  4  5  1  0
  5  6  2  0
  6  7  1  0
  7  8  1  0
  8  9  2  0
  9 10  1  0
 10 11  2  0
 11 12  1  0
 12 13  2  0
 13 14  1  0
 14 15  1  0
 14 16  2  0
 13 17  1  0
 17 18  1  0
 18 19  2  0
 18 20  1  0
 17 21  1  0
 21 22  2  0
  6 23  1  0
 23 24  2  0
 24  3  1  0
 22  8  1  0
 21 11  1  0
  1 25  1  0
  1 26  1  0
  1 27  1  0
  4 28  1  0
  5 29  1  0
  7 30  1  0
  7 31  1  0
  9 32  1  0
 10 33  1  0
 12 34  1  0
 15 35  1  0
 22 36  1  0
 23 37  1  0
 24 38  1  0
M  CHG  2  15  -1  20  -1
M  END
>  <UniqueID>  (65) 
65

>  <SMILES>  (65) 
COc1ccc(Cc2ccc3cc(C([NH-])=O)n(C(=O)[O-])c3c2)cc1

>  <Energy>  (65) 
78.2447815695399

>  <Genealogy>  (65) 
COc1ccc(Cc2ccc3cc(C([NH-])=O)n(C(=O)[O-])c3c2)cc1 (protonated)
COc1ccc(Cc2ccc3cc(C([NH-])=O)n(C(=O)[O-])c3c2)cc1 (3D coordinates assigned)
COc1ccc(Cc2ccc3cc(C([NH-])=O)n(C(=O)[O-])c3c2)cc1 (optimized conformer: 78.2447815695399 kcal/mol)

>  <smiles>  (65) 
COc1ccc(Cc2ccc3cc(C(N)=O)n(C(=O)O)c3c2)cc1

>  <score_type>  (65) 
oracle

>  <origin>  (65) 
adg

>  <m_score__min__energy>  (65) 
-11.880000000000001

>  <m_primary>  (65) 
energy

$$$$
65:0
     RDKit          3D

 43 45  0  0  0  0  0  0  0  0999 V2000
   -2.7220   14.3460  -32.7950 C   0  0  0  0  0  0  0  0  0  0  0  0
   -1.7290   15.2240  -33.5520 C   0  0  0  0  0  0  0  0  0  0  0  0
   -2.0060   15.1720  -35.0230 C   0  0  0  0  0  0  0  0  0  0  0  0
   -1.1720   14.6290  -35.7950 O   0  0  0  0  0  0  0  0  0  0  0  0
   -3.2750   15.6210  -35.5140 N   0  0  0  0  0  0  0  0  0  0  0  0
   -4.1580   16.5200  -34.8360 C   0  0  0  0  0  0  0  0  0  0  0  0
   -5.2910   16.1000  -34.2370 N   0  0  0  0  0  0  0  0  0  0  0  0
   -5.9480   17.1180  -33.6140 C   0  0  0  0  0  0  0  0  0  0  0  0
   -7.2260   16.8710  -32.8780 C   0  0  0  0  0  0  0  0  0  0  0  0
   -5.3200   18.3660  -33.7200 C   0  0  0  0  0  0  0  0  0  0  0  0
   -5.7700   19.6500  -33.1480 C   0  0  0  0  0  0  0  0  0  0  0  0
   -7.1430   20.0060  -33.1580 C   0  0  0  0  0  0  0  0  0  0  0  0
   -7.5680   21.2350  -32.6230 C   0  0  0  0  0  0  0  0  0  0  0  0
   -6.6010   22.0870  -32.0970 C   0  0  0  0  0  0  0  0  0  0  0  0
   -6.7350   23.3210  -31.5010 C   0  0  0  0  0  0  0  0  0  0  0  0
   -5.4400   23.7050  -31.1490 C   0  0  0  0  0  0  0  0  0  0  0  0
   -5.1110   25.0110  -30.5430 C   0  0  0  0  0  0  0  0  0  0  0  0
   -3.8830   25.6730  -30.8400 N   0  0  0  0  0  0  0  0  0  0  0  0
   -5.9430   25.5730  -29.7800 O   0  0  0  0  0  0  0  0  0  0  0  0
   -4.5440   22.7460  -31.5170 N   0  0  0  0  0  0  0  0  0  0  0  0
   -3.1370   22.7090  -31.2450 C   0  0  0  0  0  0  0  0  0  0  0  0
   -2.6900   23.2010  -30.1730 O   0  0  0  0  0  0  0  0  0  0  0  0
   -2.2680   22.1550  -32.1890 O   0  0  0  0  0  0  0  0  0  0  0  0
   -1.4460   21.0300  -31.9060 C   0  0  0  0  0  0  0  0  0  0  0  0
   -5.2690   21.7660  -32.1000 C   0  0  0  0  0  0  0  0  0  0  0  0
   -4.8190   20.5460  -32.6150 C   0  0  0  0  0  0  0  0  0  0  0  0
   -3.8990   18.1670  -34.6030 S   0  0  0  0  0  0  0  0  0  0  0  0
   -2.5752   14.4758  -31.7126 H   0  0  0  0  0  0  0  0  0  0  0  0
   -3.7481   14.6376  -33.0634 H   0  0  0  0  0  0  0  0  0  0  0  0
   -2.5583   13.2919  -33.0634 H   0  0  0  0  0  0  0  0  0  0  0  0
   -1.8222   16.2625  -33.2016 H   0  0  0  0  0  0  0  0  0  0  0  0
   -0.7099   14.8539  -33.3663 H   0  0  0  0  0  0  0  0  0  0  0  0
   -7.0382   16.9073  -31.7948 H   0  0  0  0  0  0  0  0  0  0  0  0
   -7.9604   17.6438  -33.1489 H   0  0  0  0  0  0  0  0  0  0  0  0
   -7.6195   15.8802  -33.1489 H   0  0  0  0  0  0  0  0  0  0  0  0
   -7.8822   19.3142  -33.5883 H   0  0  0  0  0  0  0  0  0  0  0  0
   -8.6319   21.5145  -32.6202 H   0  0  0  0  0  0  0  0  0  0  0  0
   -7.6653   23.8847  -31.3370 H   0  0  0  0  0  0  0  0  0  0  0  0
   -2.9700   25.2950  -30.5010 H   0  0  0  0  0  0  0  0  0  0  0  0
   -1.3558   20.9065  -30.8167 H   0  0  0  0  0  0  0  0  0  0  0  0
   -1.8983   20.1267  -32.3412 H   0  0  0  0  0  0  0  0  0  0  0  0
   -0.4479   21.1864  -32.3412 H   0  0  0  0  0  0  0  0  0  0  0  0
   -3.7490   20.2909  -32.6048 H   0  0  0  0  0  0  0  0  0  0  0  0
  1  2  1  0
  2  3  1  0
  3  4  2  0
  3  5  1  0
  5  6  1  0
  6  7  2  0
  7  8  1  0
  8  9  1  0
  8 10  2  0
 10 11  1  0
 11 12  2  0
 12 13  1  0
 13 14  2  0
 14 15  1  0
 15 16  2  0
 16 17  1  0
 17 18  1  0
 17 19  2  0
 16 20  1  0
 20 21  1  0
 21 22  2  0
 21 23  1  0
 23 24  1  0
 20 25  1  0
 25 26  2  0
 10 27  1  0
 27  6  1  0
 26 11  1  0
 25 14  1  0
  1 28  1  0
  1 29  1  0
  1 30  1  0
  2 31  1  0
  2 32  1  0
  9 33  1  0
  9 34  1  0
  9 35  1  0
 12 36  1  0
 13 37  1  0
 15 38  1  0
 18 39  1  0
 24 40  1  0
 24 41  1  0
 24 42  1  0
 26 43  1  0
M  CHG  2   5  -1  18  -1
M  END
>  <UniqueID>  (66) 
66

>  <SMILES>  (66) 
CCC(=O)[N-]c1nc(C)c(-c2ccc3cc(C([NH-])=O)n(C(=O)OC)c3c2)s1

>  <Energy>  (66) 
114.14796330274919

>  <Genealogy>  (66) 
CCC(=O)[N-]c1nc(C)c(-c2ccc3cc(C([NH-])=O)n(C(=O)OC)c3c2)s1 (protonated)
CCC(=O)[N-]c1nc(C)c(-c2ccc3cc(C([NH-])=O)n(C(=O)OC)c3c2)s1 (3D coordinates assigned)
CCC(=O)[N-]c1nc(C)c(-c2ccc3cc(C([NH-])=O)n(C(=O)OC)c3c2)s1 (optimized conformer: 114.14796330274919 kcal/mol)

>  <smiles>  (66) 
CCC(=O)Nc1nc(C)c(-c2ccc3cc(C(N)=O)n(C(=O)OC)c3c2)s1

>  <score_type>  (66) 
oracle

>  <origin>  (66) 
adg

>  <m_score__min__energy>  (66) 
-10.41

>  <m_primary>  (66) 
energy

$$$$
66:0
     RDKit          3D

 51 53  0  0  0  0  0  0  0  0999 V2000
   -1.5430   25.1370  -27.8250 C   0  0  0  0  0  0  0  0  0  0  0  0
   -2.2150   24.3820  -28.8080 O   0  0  0  0  0  0  0  0  0  0  0  0
   -3.3760   23.7800  -28.2650 C   0  0  0  0  0  0  0  0  0  0  0  0
   -3.2650   22.2540  -28.3110 C   0  0  0  0  0  0  0  0  0  0  0  0
   -3.2530   21.7750  -29.6560 O   0  0  0  0  0  0  0  0  0  0  0  0
   -3.6480   22.5490  -30.7540 C   0  0  0  0  0  0  0  0  0  0  0  0
   -2.7840   23.1180  -31.4750 O   0  0  0  0  0  0  0  0  0  0  0  0
   -5.0460   22.7310  -31.0340 N   0  0  0  0  0  0  0  0  0  0  0  0
   -5.7540   23.8960  -31.0170 C   0  0  0  0  0  0  0  0  0  0  0  0
   -5.2710   25.1980  -30.5160 C   0  0  0  0  0  0  0  0  0  0  0  0
   -3.9670   25.6680  -30.8430 N   0  0  0  0  0  0  0  0  0  0  0  0
   -5.9980   25.8790  -29.7450 O   0  0  0  0  0  0  0  0  0  0  0  0
   -7.0560   23.6850  -31.4670 C   0  0  0  0  0  0  0  0  0  0  0  0
   -7.1280   22.3430  -31.7570 C   0  0  0  0  0  0  0  0  0  0  0  0
   -8.1900   21.5900  -32.2480 C   0  0  0  0  0  0  0  0  0  0  0  0
   -7.9740   20.2220  -32.4840 C   0  0  0  0  0  0  0  0  0  0  0  0
   -6.7060   19.6360  -32.2420 C   0  0  0  0  0  0  0  0  0  0  0  0
   -6.4980   18.2310  -32.4880 N   0  0  0  0  0  0  0  0  0  0  0  0
   -5.9430   17.3770  -31.4270 C   0  0  0  0  0  0  0  0  0  0  0  0
   -5.3460   16.0840  -32.0060 C   0  0  0  0  0  0  0  0  0  0  0  0
   -4.6010   16.3680  -33.3250 C   0  0  0  0  0  0  0  0  0  0  0  0
   -3.5500   17.2920  -33.0890 O   0  0  0  0  0  0  0  0  0  0  0  0
   -3.5650   18.3260  -34.0480 C   0  0  0  0  0  0  0  0  0  0  0  0
   -5.5570   16.9620  -34.3910 C   0  0  0  0  0  0  0  0  0  0  0  0
   -6.8040   17.6390  -33.7960 C   0  0  0  0  0  0  0  0  0  0  0  0
   -5.6540   20.4330  -31.7360 C   0  0  0  0  0  0  0  0  0  0  0  0
   -5.9030   21.7890  -31.4900 C   0  0  0  0  0  0  0  0  0  0  0  0
   -1.8490   24.7932  -26.8259 H   0  0  0  0  0  0  0  0  0  0  0  0
   -0.4570   25.0063  -27.9411 H   0  0  0  0  0  0  0  0  0  0  0  0
   -1.7988   26.2005  -27.9411 H   0  0  0  0  0  0  0  0  0  0  0  0
   -3.4950   24.1022  -27.2200 H   0  0  0  0  0  0  0  0  0  0  0  0
   -4.2472   24.0898  -28.8609 H   0  0  0  0  0  0  0  0  0  0  0  0
   -2.3333   21.9473  -27.8131 H   0  0  0  0  0  0  0  0  0  0  0  0
   -4.1393   21.8267  -27.7981 H   0  0  0  0  0  0  0  0  0  0  0  0
   -3.1210   25.0990  -30.6200 H   0  0  0  0  0  0  0  0  0  0  0  0
   -7.8560   24.4331  -31.5686 H   0  0  0  0  0  0  0  0  0  0  0  0
   -9.1687   22.0517  -32.4454 H   0  0  0  0  0  0  0  0  0  0  0  0
   -8.7981   19.5985  -32.8609 H   0  0  0  0  0  0  0  0  0  0  0  0
   -5.1535   17.9306  -30.8977 H   0  0  0  0  0  0  0  0  0  0  0  0
   -6.7567   17.1058  -30.7383 H   0  0  0  0  0  0  0  0  0  0  0  0
   -4.6410   15.6550  -31.2787 H   0  0  0  0  0  0  0  0  0  0  0  0
   -6.1644   15.3775  -32.2084 H   0  0  0  0  0  0  0  0  0  0  0  0
   -4.1981   15.4155  -33.6998 H   0  0  0  0  0  0  0  0  0  0  0  0
   -3.5791   19.2999  -33.5369 H   0  0  0  0  0  0  0  0  0  0  0  0
   -2.6657   18.2553  -34.6775 H   0  0  0  0  0  0  0  0  0  0  0  0
   -4.4618   18.2292  -34.6775 H   0  0  0  0  0  0  0  0  0  0  0  0
   -5.0022   17.7098  -34.9767 H   0  0  0  0  0  0  0  0  0  0  0  0
   -5.9108   16.1230  -35.0082 H   0  0  0  0  0  0  0  0  0  0  0  0
   -7.1462   18.4301  -34.4794 H   0  0  0  0  0  0  0  0  0  0  0  0
   -7.5903   16.8808  -33.6661 H   0  0  0  0  0  0  0  0  0  0  0  0
   -4.6628   19.9982  -31.5400 H   0  0  0  0  0  0  0  0  0  0  0  0
  1  2  1  0
  2  3  1  0
  3  4  1  0
  4  5  1  0
  5  6  1  0
  6  7  2  0
  6  8  1  0
  8  9  1  0
  9 10  1  0
 10 11  1  0
 10 12  2  0
  9 13  2  0
 13 14  1  0
 14 15  2  0
 15 16  1  0
 16 17  2  0
 17 18  1  0
 18 19  1  0
 19 20  1  0
 20 21  1  0
 21 22  1  0
 22 23  1  0
 21 24  1  0
 24 25  1  0
 17 26  1  0
 26 27  2  0
 27  8  1  0
 27 14  1  0
 25 18  1  0
  1 28  1  0
  1 29  1  0
  1 30  1  0
  3 31  1  0
  3 32  1  0
  4 33  1  0
  4 34  1  0
 11 35  1  0
 13 36  1  0
 15 37  1  0
 16 38  1  0
 19 39  1  0
 19 40  1  0
 20 41  1  0
 20 42  1  0
 21 43  1  0
 23 44  1  0
 23 45  1  0
 23 46  1  0
 24 47  1  0
 24 48  1  0
 25 49  1  0
 25 50  1  0
 26 51  1  0
M  CHG  1  11  -1
M  END
>  <UniqueID>  (67) 
67

>  <SMILES>  (67) 
COCCOC(=O)n1c(C([NH-])=O)cc2ccc(N3CCC(OC)CC3)cc21

>  <Energy>  (67) 
98.47677825412283

>  <Genealogy>  (67) 
COCCOC(=O)n1c(C([NH-])=O)cc2ccc(N3CCC(OC)CC3)cc21 (protonated)
COCCOC(=O)n1c(C([NH-])=O)cc2ccc(N3CCC(OC)CC3)cc21 (3D coordinates assigned)
COCCOC(=O)n1c(C([NH-])=O)cc2ccc(N3CCC(OC)CC3)cc21 (nonaromatic ring conformer: 98.47677825412283 kcal/mol)

>  <smiles>  (67) 
COCCOC(=O)n1c(C(N)=O)cc2ccc(N3CCC(OC)CC3)cc21

>  <score_type>  (67) 
oracle

>  <origin>  (67) 
adg

>  <m_score__min__energy>  (67) 
-10.91

>  <m_primary>  (67) 
energy

$$$$
67:0
     RDKit          3D

 40 42  0  0  0  0  0  0  0  0999 V2000
   -2.5000   20.7910  -32.3540 C   0  0  0  0  0  0  0  0  0  0  0  0
   -3.0520   22.1000  -32.4210 O   0  0  0  0  0  0  0  0  0  0  0  0
   -3.6870   22.7080  -31.3340 C   0  0  0  0  0  0  0  0  0  0  0  0
   -3.0150   23.0960  -30.3400 O   0  0  0  0  0  0  0  0  0  0  0  0
   -5.1090   22.9130  -31.3620 N   0  0  0  0  0  0  0  0  0  0  0  0
   -5.8020   23.9980  -30.9150 C   0  0  0  0  0  0  0  0  0  0  0  0
   -5.2170   25.2760  -30.4630 C   0  0  0  0  0  0  0  0  0  0  0  0
   -3.8960   25.6530  -30.8420 N   0  0  0  0  0  0  0  0  0  0  0  0
   -5.9100   26.0700  -29.7720 O   0  0  0  0  0  0  0  0  0  0  0  0
   -7.1750   23.7760  -31.0170 C   0  0  0  0  0  0  0  0  0  0  0  0
   -7.3010   22.5150  -31.5520 C   0  0  0  0  0  0  0  0  0  0  0  0
   -8.4450   21.7830  -31.8540 C   0  0  0  0  0  0  0  0  0  0  0  0
   -8.2810   20.4870  -32.3700 C   0  0  0  0  0  0  0  0  0  0  0  0
   -6.9850   19.9430  -32.5730 C   0  0  0  0  0  0  0  0  0  0  0  0
   -6.8330   18.5300  -33.1070 C   0  0  0  0  0  0  0  0  0  0  0  0
   -6.0990   18.4920  -34.4740 C   0  0  0  0  0  0  0  0  0  0  0  0
   -4.6990   17.8700  -34.3670 C   0  0  0  0  0  0  0  0  0  0  0  0
   -4.7310   16.5090  -33.8020 N   0  0  0  0  0  0  0  0  0  0  0  0
   -5.7120   16.3070  -32.7150 C   0  0  0  0  0  0  0  0  0  0  0  0
   -6.1630   17.6190  -32.0600 C   0  0  0  0  0  0  0  0  0  0  0  0
   -5.8480   20.7200  -32.2460 C   0  0  0  0  0  0  0  0  0  0  0  0
   -6.0410   22.0150  -31.7510 C   0  0  0  0  0  0  0  0  0  0  0  0
   -2.3767   20.4985  -31.3008 H   0  0  0  0  0  0  0  0  0  0  0  0
   -3.1758   20.0820  -32.8547 H   0  0  0  0  0  0  0  0  0  0  0  0
   -1.5206   20.7800  -32.8547 H   0  0  0  0  0  0  0  0  0  0  0  0
   -3.0630   25.2630  -30.3500 H   0  0  0  0  0  0  0  0  0  0  0  0
   -7.9849   24.4631  -30.7306 H   0  0  0  0  0  0  0  0  0  0  0  0
   -9.4475   22.2064  -31.6935 H   0  0  0  0  0  0  0  0  0  0  0  0
   -9.1676   19.8858  -32.6200 H   0  0  0  0  0  0  0  0  0  0  0  0
   -7.8427   18.1360  -33.2950 H   0  0  0  0  0  0  0  0  0  0  0  0
   -6.6971   17.8975  -35.1802 H   0  0  0  0  0  0  0  0  0  0  0  0
   -5.9807   19.5290  -34.8213 H   0  0  0  0  0  0  0  0  0  0  0  0
   -4.2546   17.8249  -35.3722 H   0  0  0  0  0  0  0  0  0  0  0  0
   -4.1026   18.5001  -33.6908 H   0  0  0  0  0  0  0  0  0  0  0  0
   -4.9520   15.8350  -34.5730 H   0  0  0  0  0  0  0  0  0  0  0  0
   -6.5960   15.8013  -33.1307 H   0  0  0  0  0  0  0  0  0  0  0  0
   -5.2204   15.7041  -31.9373 H   0  0  0  0  0  0  0  0  0  0  0  0
   -6.8819   17.3969  -31.2576 H   0  0  0  0  0  0  0  0  0  0  0  0
   -5.2849   18.1341  -31.6434 H   0  0  0  0  0  0  0  0  0  0  0  0
   -4.8340   20.3147  -32.3781 H   0  0  0  0  0  0  0  0  0  0  0  0
  1  2  1  0
  2  3  1  0
  3  4  2  0
  3  5  1  0
  5  6  1  0
  6  7  1  0
  7  8  1  0
  7  9  2  0
  6 10  2  0
 10 11  1  0
 11 12  2  0
 12 13  1  0
 13 14  2  0
 14 15  1  0
 15 16  1  0
 16 17  1  0
 17 18  1  0
 18 19  1  0
 19 20  1  0
 14 21  1  0
 21 22  2  0
 22  5  1  0
 22 11  1  0
 20 15  1  0
  1 23  1  0
  1 24  1  0
  1 25  1  0
  8 26  1  0
 10 27  1  0
 12 28  1  0
 13 29  1  0
 15 30  1  0
 16 31  1  0
 16 32  1  0
 17 33  1  0
 17 34  1  0
 18 35  1  0
 19 36  1  0
 19 37  1  0
 20 38  1  0
 20 39  1  0
 21 40  1  0
M  CHG  1   8  -1
M  END
>  <UniqueID>  (68) 
68

>  <SMILES>  (68) 
COC(=O)n1c(C([NH-])=O)cc2ccc(C3CCNCC3)cc21

>  <Energy>  (68) 
85.28234083396907

>  <Genealogy>  (68) 
COC(=O)n1c(C([NH-])=O)cc2ccc(C3CCNCC3)cc21 (protonated)
COC(=O)n1c(C([NH-])=O)cc2ccc(C3CCNCC3)cc21 (3D coordinates assigned)
COC(=O)n1c(C([NH-])=O)cc2ccc(C3CCNCC3)cc21 (nonaromatic ring conformer: 85.28234083396907 kcal/mol)

>  <smiles>  (68) 
COC(=O)n1c(C(N)=O)cc2ccc(C3CCNCC3)cc21

>  <score_type>  (68) 
oracle

>  <origin>  (68) 
adg

>  <m_score__min__energy>  (68) 
-10.67

>  <m_primary>  (68) 
energy

$$$$
68:0
     RDKit          3D

 39 40  0  0  0  0  0  0  0  0999 V2000
   -2.9470   24.5070  -27.4640 C   0  0  0  0  0  0  0  0  0  0  0  0
   -1.7060   25.2850  -27.8720 C   0  0  0  0  0  0  0  0  0  0  0  0
   -1.4070   25.0010  -29.2220 O   0  0  0  0  0  0  0  0  0  0  0  0
   -0.5950   23.8460  -29.3210 C   0  0  0  0  0  0  0  0  0  0  0  0
   -1.3190   22.7300  -30.0800 C   0  0  0  0  0  0  0  0  0  0  0  0
   -2.7090   23.1010  -30.3340 N   0  0  0  0  0  0  0  0  0  0  0  0
   -3.7800   22.1480  -30.3110 C   0  0  0  0  0  0  0  0  0  0  0  0
   -3.5960   20.9950  -29.8360 O   0  0  0  0  0  0  0  0  0  0  0  0
   -5.0660   22.5010  -30.8410 N   0  0  0  0  0  0  0  0  0  0  0  0
   -5.6880   23.7120  -30.7910 C   0  0  0  0  0  0  0  0  0  0  0  0
   -5.0950   24.9730  -30.2950 C   0  0  0  0  0  0  0  0  0  0  0  0
   -3.8830   25.4810  -30.8460 N   0  0  0  0  0  0  0  0  0  0  0  0
   -5.6840   25.6280  -29.3950 O   0  0  0  0  0  0  0  0  0  0  0  0
   -6.9670   23.6250  -31.3370 C   0  0  0  0  0  0  0  0  0  0  0  0
   -7.1100   22.3120  -31.7260 C   0  0  0  0  0  0  0  0  0  0  0  0
   -8.1890   21.6650  -32.3190 C   0  0  0  0  0  0  0  0  0  0  0  0
   -8.0690   20.2890  -32.5830 C   0  0  0  0  0  0  0  0  0  0  0  0
   -6.8910   19.5830  -32.2250 C   0  0  0  0  0  0  0  0  0  0  0  0
   -6.7600   18.1150  -32.5440 C   0  0  0  0  0  0  0  0  0  0  0  0
   -6.3700   17.9330  -33.8600 F   0  0  0  0  0  0  0  0  0  0  0  0
   -5.8120   17.5510  -31.7110 F   0  0  0  0  0  0  0  0  0  0  0  0
   -7.9680   17.4650  -32.3580 F   0  0  0  0  0  0  0  0  0  0  0  0
   -5.8090   20.2820  -31.6440 C   0  0  0  0  0  0  0  0  0  0  0  0
   -5.9510   21.6550  -31.4120 C   0  0  0  0  0  0  0  0  0  0  0  0
   -3.0105   24.4672  -26.3666 H   0  0  0  0  0  0  0  0  0  0  0  0
   -3.8412   25.0064  -27.8651 H   0  0  0  0  0  0  0  0  0  0  0  0
   -2.8871   23.4845  -27.8651 H   0  0  0  0  0  0  0  0  0  0  0  0
   -1.8916   26.3628  -27.7545 H   0  0  0  0  0  0  0  0  0  0  0  0
   -0.8585   24.9923  -27.2348 H   0  0  0  0  0  0  0  0  0  0  0  0
    0.3315   24.1023  -29.8556 H   0  0  0  0  0  0  0  0  0  0  0  0
   -0.3676   23.4891  -28.3056 H   0  0  0  0  0  0  0  0  0  0  0  0
   -0.8099   22.5557  -31.0394 H   0  0  0  0  0  0  0  0  0  0  0  0
   -1.3013   21.8154  -29.4691 H   0  0  0  0  0  0  0  0  0  0  0  0
   -2.9090   24.0750  -30.6540 H   0  0  0  0  0  0  0  0  0  0  0  0
   -2.9630   25.2910  -30.3880 H   0  0  0  0  0  0  0  0  0  0  0  0
   -7.7059   24.4339  -31.4362 H   0  0  0  0  0  0  0  0  0  0  0  0
   -9.1082   22.2129  -32.5737 H   0  0  0  0  0  0  0  0  0  0  0  0
   -8.8967   19.7543  -33.0720 H   0  0  0  0  0  0  0  0  0  0  0  0
   -4.8775   19.7596  -31.3804 H   0  0  0  0  0  0  0  0  0  0  0  0
  1  2  1  0
  2  3  1  0
  3  4  1  0
  4  5  1  0
  5  6  1  0
  6  7  1  0
  7  8  2  0
  7  9  1  0
  9 10  1  0
 10 11  1  0
 11 12  1  0
 11 13  2  0
 10 14  2  0
 14 15  1  0
 15 16  2  0
 16 17  1  0
 17 18  2  0
 18 19  1  0
 19 20  1  0
 19 21  1  0
 19 22  1  0
 18 23  1  0
 23 24  2  0
 24  9  1  0
 24 15  1  0
  1 25  1  0
  1 26  1  0
  1 27  1  0
  2 28  1  0
  2 29  1  0
  4 30  1  0
  4 31  1  0
  5 32  1  0
  5 33  1  0
  6 34  1  0
 12 35  1  0
 14 36  1  0
 16 37  1  0
 17 38  1  0
 23 39  1  0
M  CHG  1  12  -1
M  END
>  <UniqueID>  (69) 
69

>  <SMILES>  (69) 
CCOCCNC(=O)n1c(C([NH-])=O)cc2ccc(C(F)(F)F)cc21

>  <Energy>  (69) 
73.54359383086071

>  <Genealogy>  (69) 
CCOCCNC(=O)n1c(C([NH-])=O)cc2ccc(C(F)(F)F)cc21 (protonated)
CCOCCNC(=O)n1c(C([NH-])=O)cc2ccc(C(F)(F)F)cc21 (3D coordinates assigned)
CCOCCNC(=O)n1c(C([NH-])=O)cc2ccc(C(F)(F)F)cc21 (optimized conformer: 73.54359383086071 kcal/mol)

>  <smiles>  (69) 
CCOCCNC(=O)n1c(C(N)=O)cc2ccc(C(F)(F)F)cc21

>  <score_type>  (69) 
oracle

>  <origin>  (69) 
adg

>  <m_score__min__energy>  (69) 
-9.6400000000000006

>  <m_primary>  (69) 
energy

$$$$
69:0
     RDKit          3D

 32 34  0  0  0  0  0  0  0  0999 V2000
   -5.2700   26.3890  -30.4810 N   0  0  0  0  0  0  0  0  0  0  0  0
   -6.2350   25.4480  -30.0080 C   0  0  0  0  0  0  0  0  0  0  0  0
   -6.8920   25.7080  -28.9650 O   0  0  0  0  0  0  0  0  0  0  0  0
   -6.4270   24.1470  -30.6800 C   0  0  0  0  0  0  0  0  0  0  0  0
   -7.6750   23.6610  -31.0610 C   0  0  0  0  0  0  0  0  0  0  0  0
   -7.4320   22.4110  -31.5820 C   0  0  0  0  0  0  0  0  0  0  0  0
   -8.3160   21.4830  -32.1230 C   0  0  0  0  0  0  0  0  0  0  0  0
   -7.7870   20.2830  -32.6240 C   0  0  0  0  0  0  0  0  0  0  0  0
   -6.3910   20.0350  -32.5890 C   0  0  0  0  0  0  0  0  0  0  0  0
   -5.8390   18.7670  -33.1250 C   0  0  0  0  0  0  0  0  0  0  0  0
   -5.3790   18.7070  -34.4520 C   0  0  0  0  0  0  0  0  0  0  0  0
   -4.8510   17.5190  -34.9670 C   0  0  0  0  0  0  0  0  0  0  0  0
   -4.7810   16.3780  -34.1630 C   0  0  0  0  0  0  0  0  0  0  0  0
   -4.2700   15.2270  -34.6650 F   0  0  0  0  0  0  0  0  0  0  0  0
   -5.2410   16.4230  -32.8450 C   0  0  0  0  0  0  0  0  0  0  0  0
   -5.7690   17.6090  -32.3240 C   0  0  0  0  0  0  0  0  0  0  0  0
   -6.2440   17.6120  -31.0520 F   0  0  0  0  0  0  0  0  0  0  0  0
   -5.5260   21.0020  -32.0270 C   0  0  0  0  0  0  0  0  0  0  0  0
   -6.0810   22.1820  -31.5160 C   0  0  0  0  0  0  0  0  0  0  0  0
   -5.4480   23.2440  -30.9650 N   0  0  0  0  0  0  0  0  0  0  0  0
   -4.0290   23.4280  -30.8340 C   0  0  0  0  0  0  0  0  0  0  0  0
   -3.2540   22.4350  -30.8120 O   0  0  0  0  0  0  0  0  0  0  0  0
   -3.4940   24.7070  -30.7330 O   0  0  0  0  0  0  0  0  0  0  0  0
   -5.1730   27.3170  -30.0150 H   0  0  0  0  0  0  0  0  0  0  0  0
   -4.5980   26.1370  -31.2390 H   0  0  0  0  0  0  0  0  0  0  0  0
   -8.6467   24.1677  -30.9659 H   0  0  0  0  0  0  0  0  0  0  0  0
   -9.3970   21.6835  -32.1572 H   0  0  0  0  0  0  0  0  0  0  0  0
   -8.4631   19.5263  -33.0486 H   0  0  0  0  0  0  0  0  0  0  0  0
   -5.4348   19.6013  -35.0900 H   0  0  0  0  0  0  0  0  0  0  0  0
   -4.4905   17.4825  -36.0056 H   0  0  0  0  0  0  0  0  0  0  0  0
   -5.1879   15.5230  -32.2147 H   0  0  0  0  0  0  0  0  0  0  0  0
   -4.4399   20.8311  -31.9919 H   0  0  0  0  0  0  0  0  0  0  0  0
  1  2  1  0
  2  3  2  0
  2  4  1  0
  4  5  2  0
  5  6  1  0
  6  7  2  0
  7  8  1  0
  8  9  2  0
  9 10  1  0
 10 11  2  0
 11 12  1  0
 12 13  2  0
 13 14  1  0
 13 15  1  0
 15 16  2  0
 16 17  1  0
  9 18  1  0
 18 19  2  0
 19 20  1  0
 20 21  1  0
 21 22  2  0
 21 23  1  0
 20  4  1  0
 19  6  1  0
 16 10  1  0
  1 24  1  0
  1 25  1  0
  5 26  1  0
  7 27  1  0
  8 28  1  0
 11 29  1  0
 12 30  1  0
 15 31  1  0
 18 32  1  0
M  CHG  1  23  -1
M  END
>  <UniqueID>  (70) 
70

>  <SMILES>  (70) 
NC(=O)c1cc2ccc(-c3ccc(F)cc3F)cc2n1C(=O)[O-]

>  <Energy>  (70) 
81.26950650766783

>  <Genealogy>  (70) 
NC(=O)c1cc2ccc(-c3ccc(F)cc3F)cc2n1C(=O)[O-] (protonated)
NC(=O)c1cc2ccc(-c3ccc(F)cc3F)cc2n1C(=O)[O-] (3D coordinates assigned)
NC(=O)c1cc2ccc(-c3ccc(F)cc3F)cc2n1C(=O)[O-] (optimized conformer: 81.26950650766783 kcal/mol)

>  <smiles>  (70) 
NC(=O)c1cc2ccc(-c3ccc(F)cc3F)cc2n1C(=O)O

>  <score_type>  (70) 
oracle

>  <origin>  (70) 
adg

>  <m_score__min__energy>  (70) 
-9.3699999999999992

>  <m_primary>  (70) 
energy

$$$$
70:0
     RDKit          3D

 52 54  0  0  0  0  0  0  0  0999 V2000
   -3.8470   18.4420  -33.4370 C   0  0  0  0  0  0  0  0  0  0  0  0
   -5.0410   17.6560  -33.7840 N   0  0  0  0  0  0  0  0  0  0  0  0
   -5.7040   18.1930  -34.9840 C   0  0  0  0  0  0  0  0  0  0  0  0
   -5.9680   17.4760  -32.6450 C   0  0  0  0  0  0  0  0  0  0  0  0
   -7.3930   18.0090  -32.8930 C   0  0  0  0  0  0  0  0  0  0  0  0
   -7.5270   19.4090  -32.3580 C   0  0  0  0  0  0  0  0  0  0  0  0
   -8.8110   19.9770  -32.1580 C   0  0  0  0  0  0  0  0  0  0  0  0
   -8.9440   21.2960  -31.6930 C   0  0  0  0  0  0  0  0  0  0  0  0
   -7.7830   22.0210  -31.4400 C   0  0  0  0  0  0  0  0  0  0  0  0
   -7.6220   23.3180  -31.0070 C   0  0  0  0  0  0  0  0  0  0  0  0
   -6.2430   23.5200  -30.9480 C   0  0  0  0  0  0  0  0  0  0  0  0
   -5.5970   24.7690  -30.4800 C   0  0  0  0  0  0  0  0  0  0  0  0
   -5.8900   25.3080  -29.1890 N   0  0  0  0  0  0  0  0  0  0  0  0
   -4.7640   25.3620  -31.2150 O   0  0  0  0  0  0  0  0  0  0  0  0
   -5.5820   22.3880  -31.3210 N   0  0  0  0  0  0  0  0  0  0  0  0
   -4.1610   22.2110  -31.4550 C   0  0  0  0  0  0  0  0  0  0  0  0
   -3.6840   21.9090  -32.5820 O   0  0  0  0  0  0  0  0  0  0  0  0
   -3.2500   22.3610  -30.2920 C   0  0  0  0  0  0  0  0  0  0  0  0
   -3.0250   23.5700  -29.7570 C   0  0  0  0  0  0  0  0  0  0  0  0
   -2.1520   23.7070  -28.5840 C   0  0  0  0  0  0  0  0  0  0  0  0
   -1.9060   25.1420  -27.9320 S   0  0  1  0  0  6  0  0  0  0  0  0
   -0.8950   25.0320  -26.4690 C   0  0  0  0  0  0  0  0  0  0  0  0
   -1.2320   26.0380  -28.9330 O   0  0  0  0  0  0  0  0  0  0  0  0
   -1.5700   22.5400  -28.0010 N   0  0  0  0  0  0  0  0  0  0  0  0
   -1.7460   21.3560  -28.5030 C   0  0  0  0  0  0  0  0  0  0  0  0
   -2.5440   21.1260  -29.7630 C   0  0  0  0  0  0  0  0  0  0  0  0
   -6.5370   21.4850  -31.6270 C   0  0  0  0  0  0  0  0  0  0  0  0
   -6.3720   20.1810  -32.1070 C   0  0  0  0  0  0  0  0  0  0  0  0
   -3.7537   18.5034  -32.3427 H   0  0  0  0  0  0  0  0  0  0  0  0
   -2.9534   17.9550  -33.8544 H   0  0  0  0  0  0  0  0  0  0  0  0
   -3.9410   19.4554  -33.8544 H   0  0  0  0  0  0  0  0  0  0  0  0
   -6.5259   18.8587  -34.6819 H   0  0  0  0  0  0  0  0  0  0  0  0
   -4.9754   18.7587  -35.5833 H   0  0  0  0  0  0  0  0  0  0  0  0
   -6.1060   17.3628  -35.5833 H   0  0  0  0  0  0  0  0  0  0  0  0
   -6.0366   16.4006  -32.4239 H   0  0  0  0  0  0  0  0  0  0  0  0
   -5.5555   18.0603  -31.8093 H   0  0  0  0  0  0  0  0  0  0  0  0
   -7.5961   18.0126  -33.9741 H   0  0  0  0  0  0  0  0  0  0  0  0
   -8.1136   17.3579  -32.3765 H   0  0  0  0  0  0  0  0  0  0  0  0
   -9.7104   19.3797  -32.3687 H   0  0  0  0  0  0  0  0  0  0  0  0
   -9.9365   21.7427  -31.5335 H   0  0  0  0  0  0  0  0  0  0  0  0
   -8.4130   24.0414  -30.7600 H   0  0  0  0  0  0  0  0  0  0  0  0
   -6.6200   24.8880  -28.5730 H   0  0  0  0  0  0  0  0  0  0  0  0
   -5.3970   26.1680  -28.8590 H   0  0  0  0  0  0  0  0  0  0  0  0
   -3.4955   24.4612  -30.1978 H   0  0  0  0  0  0  0  0  0  0  0  0
   -3.1160   25.6860  -27.5850 H   0  0  0  0  0  0  0  0  0  0  0  0
   -1.5335   25.1015  -25.5760 H   0  0  0  0  0  0  0  0  0  0  0  0
   -0.3608   24.0704  -26.4639 H   0  0  0  0  0  0  0  0  0  0  0  0
   -0.1665   25.8562  -26.4639 H   0  0  0  0  0  0  0  0  0  0  0  0
   -1.2981   20.4907  -27.9925 H   0  0  0  0  0  0  0  0  0  0  0  0
   -1.8589   20.7610  -30.5424 H   0  0  0  0  0  0  0  0  0  0  0  0
   -3.3300   20.3997  -29.5087 H   0  0  0  0  0  0  0  0  0  0  0  0
   -5.3680   19.7680  -32.2842 H   0  0  0  0  0  0  0  0  0  0  0  0
  1  2  1  0
  2  3  1  0
  2  4  1  0
  4  5  1  0
  5  6  1  0
  6  7  2  0
  7  8  1  0
  8  9  2  0
  9 10  1  0
 10 11  2  0
 11 12  1  0
 12 13  1  0
 12 14  2  0
 11 15  1  0
 15 16  1  0
 16 17  2  0
 16 18  1  0
 18 19  2  0
 19 20  1  0
 20 21  2  0
 21 22  1  0
 21 23  2  0
 20 24  1  0
 24 25  2  0
 25 26  1  0
 15 27  1  0
 27 28  2  0
 28  6  1  0
 27  9  1  0
 26 18  1  0
  1 29  1  0
  1 30  1  0
  1 31  1  0
  3 32  1  0
  3 33  1  0
  3 34  1  0
  4 35  1  0
  4 36  1  0
  5 37  1  0
  5 38  1  0
  7 39  1  0
  8 40  1  0
 10 41  1  0
 13 42  1  0
 13 43  1  0
 19 44  1  0
 21 45  1  1
 22 46  1  0
 22 47  1  0
 22 48  1  0
 25 49  1  0
 26 50  1  0
 26 51  1  0
 28 52  1  0
M  END
>  <UniqueID>  (71) 
71

>  <SMILES>  (71) 
CN(C)CCc1ccc2cc(C(N)=O)n(C(=O)C3=CC(=[S@@H](C)=O)N=CC3)c2c1

>  <Energy>  (71) 
87.33077796953953

>  <Genealogy>  (71) 
CN(C)CCc1ccc2cc(C(N)=O)n(C(=O)C3=CC(=[S@@H](C)=O)N=CC3)c2c1 (chirality)
CN(C)CCc1ccc2cc(C(N)=O)n(C(=O)C3=CC(=[S@@H](C)=O)N=CC3)c2c1 (3D coordinates assigned)
CN(C)CCc1ccc2cc(C(N)=O)n(C(=O)C3=CC(=[S@@H](C)=O)N=CC3)c2c1 (nonaromatic ring conformer: 87.33077796953953 kcal/mol)

>  <smiles>  (71) 
CN(C)CCc1ccc2cc(C(N)=O)n(C(=O)C3=CC(=[SH](C)=O)N=CC3)c2c1

>  <score_type>  (71) 
oracle

>  <origin>  (71) 
adg

>  <m_score__min__energy>  (71) 
-11.5

>  <m_primary>  (71) 
energy

$$$$
71:0
     RDKit          3D

 39 41  0  0  0  0  0  0  0  0999 V2000
   -8.0940   20.3140  -32.8930 C   0  0  0  0  0  0  0  0  0  0  0  0
   -8.5970   18.9670  -32.5810 N   0  0  0  0  0  0  0  0  0  0  0  0
   -9.1090   18.9040  -31.2030 C   0  0  0  0  0  0  0  0  0  0  0  0
   -7.5970   17.9130  -32.8590 C   0  0  0  0  0  0  0  0  0  0  0  0
   -6.2150   18.4520  -33.1120 C   0  0  0  0  0  0  0  0  0  0  0  0
   -5.4840   18.2950  -34.2730 C   0  0  0  0  0  0  0  0  0  0  0  0
   -4.2830   18.9320  -34.0490 C   0  0  0  0  0  0  0  0  0  0  0  0
   -4.3550   19.4390  -32.7600 C   0  0  0  0  0  0  0  0  0  0  0  0
   -3.3120   20.2080  -32.0420 C   0  0  0  0  0  0  0  0  0  0  0  0
   -1.9920   19.6910  -31.9730 C   0  0  0  0  0  0  0  0  0  0  0  0
   -0.9750   20.3980  -31.3120 C   0  0  0  0  0  0  0  0  0  0  0  0
   -1.3030   21.6140  -30.7230 C   0  0  0  0  0  0  0  0  0  0  0  0
   -0.5090   22.5100  -30.0440 C   0  0  0  0  0  0  0  0  0  0  0  0
   -1.3560   23.5550  -29.6850 C   0  0  0  0  0  0  0  0  0  0  0  0
   -0.9260   24.7020  -28.8580 C   0  0  0  0  0  0  0  0  0  0  0  0
   -1.6090   25.9500  -28.9650 N   0  0  0  0  0  0  0  0  0  0  0  0
    0.0630   24.6040  -28.0850 O   0  0  0  0  0  0  0  0  0  0  0  0
   -2.6220   23.3190  -30.1300 N   0  0  0  0  0  0  0  0  0  0  0  0
   -3.7650   24.1850  -30.0270 C   0  0  0  0  0  0  0  0  0  0  0  0
   -4.7450   23.8620  -29.3040 O   0  0  0  0  0  0  0  0  0  0  0  0
   -3.8130   25.3740  -30.7430 O   0  0  0  0  0  0  0  0  0  0  0  0
   -2.5730   22.1240  -30.7610 C   0  0  0  0  0  0  0  0  0  0  0  0
   -3.6040   21.4510  -31.4290 C   0  0  0  0  0  0  0  0  0  0  0  0
   -5.5210   19.1350  -32.2320 O   0  0  0  0  0  0  0  0  0  0  0  0
   -7.8917   20.8557  -31.9572 H   0  0  0  0  0  0  0  0  0  0  0  0
   -7.1657   20.2325  -33.4775 H   0  0  0  0  0  0  0  0  0  0  0  0
   -8.8485   20.8609  -33.4775 H   0  0  0  0  0  0  0  0  0  0  0  0
   -8.2726   19.0069  -30.4960 H   0  0  0  0  0  0  0  0  0  0  0  0
   -9.8283   19.7204  -31.0414 H   0  0  0  0  0  0  0  0  0  0  0  0
   -9.6089   17.9376  -31.0414 H   0  0  0  0  0  0  0  0  0  0  0  0
   -7.5541   17.2360  -31.9931 H   0  0  0  0  0  0  0  0  0  0  0  0
   -7.9166   17.3959  -33.7757 H   0  0  0  0  0  0  0  0  0  0  0  0
   -5.7961   17.7698  -35.1878 H   0  0  0  0  0  0  0  0  0  0  0  0
   -3.4394   19.0204  -34.7494 H   0  0  0  0  0  0  0  0  0  0  0  0
   -1.7628   18.7236  -32.4437 H   0  0  0  0  0  0  0  0  0  0  0  0
    0.0500   20.0020  -31.2616 H   0  0  0  0  0  0  0  0  0  0  0  0
    0.5663   22.4197  -29.8304 H   0  0  0  0  0  0  0  0  0  0  0  0
   -2.6520   25.9910  -28.9710 H   0  0  0  0  0  0  0  0  0  0  0  0
   -4.6167   21.8779  -31.4764 H   0  0  0  0  0  0  0  0  0  0  0  0
  1  2  1  0
  2  3  1  0
  2  4  1  0
  4  5  1  0
  5  6  2  0
  6  7  1  0
  7  8  2  0
  8  9  1  0
  9 10  2  0
 10 11  1  0
 11 12  2  0
 12 13  1  0
 13 14  2  0
 14 15  1  0
 15 16  1  0
 15 17  2  0
 14 18  1  0
 18 19  1  0
 19 20  2  0
 19 21  1  0
 18 22  1  0
 22 23  2  0
  8 24  1  0
 24  5  1  0
 23  9  1  0
 22 12  1  0
  1 25  1  0
  1 26  1  0
  1 27  1  0
  3 28  1  0
  3 29  1  0
  3 30  1  0
  4 31  1  0
  4 32  1  0
  6 33  1  0
  7 34  1  0
 10 35  1  0
 11 36  1  0
 13 37  1  0
 16 38  1  0
 23 39  1  0
M  CHG  2  16  -1  21  -1
M  END
>  <UniqueID>  (72) 
72

>  <SMILES>  (72) 
CN(C)Cc1ccc(-c2ccc3cc(C([NH-])=O)n(C(=O)[O-])c3c2)o1

>  <Energy>  (72) 
108.51425813844341

>  <Genealogy>  (72) 
CN(C)Cc1ccc(-c2ccc3cc(C([NH-])=O)n(C(=O)[O-])c3c2)o1 (protonated)
CN(C)Cc1ccc(-c2ccc3cc(C([NH-])=O)n(C(=O)[O-])c3c2)o1 (3D coordinates assigned)
CN(C)Cc1ccc(-c2ccc3cc(C([NH-])=O)n(C(=O)[O-])c3c2)o1 (optimized conformer: 108.51425813844341 kcal/mol)

>  <smiles>  (72) 
CN(C)Cc1ccc(-c2ccc3cc(C(N)=O)n(C(=O)O)c3c2)o1

>  <score_type>  (72) 
oracle

>  <origin>  (72) 
adg

>  <m_score__min__energy>  (72) 
-11.33

>  <m_primary>  (72) 
energy

$$$$
72:0
     RDKit          3D

 28 29  0  0  0  0  0  0  0  0999 V2000
   -5.0090   18.2310  -34.3500 C   0  0  0  0  0  0  0  0  0  0  0  0
   -4.1840   19.2570  -33.5800 C   0  0  0  0  0  0  0  0  0  0  0  0
   -5.0750   20.2940  -32.9520 C   0  0  0  0  0  0  0  0  0  0  0  0
   -6.4800   20.2160  -33.1180 C   0  0  0  0  0  0  0  0  0  0  0  0
   -7.3210   21.2020  -32.5750 C   0  0  0  0  0  0  0  0  0  0  0  0
   -6.7290   22.2510  -31.8770 C   0  0  0  0  0  0  0  0  0  0  0  0
   -7.3030   23.3490  -31.2780 C   0  0  0  0  0  0  0  0  0  0  0  0
   -6.2410   24.0770  -30.7460 C   0  0  0  0  0  0  0  0  0  0  0  0
   -6.4090   25.3010  -29.9300 C   0  0  0  0  0  0  0  0  0  0  0  0
   -5.6500   26.4770  -30.2130 N   0  0  0  0  0  0  0  0  0  0  0  0
   -7.2540   25.3270  -28.9960 O   0  0  0  0  0  0  0  0  0  0  0  0
   -5.0560   23.4550  -31.0090 N   0  0  0  0  0  0  0  0  0  0  0  0
   -3.7330   23.9150  -30.6840 C   0  0  0  0  0  0  0  0  0  0  0  0
   -2.7820   23.0950  -30.5780 O   0  0  0  0  0  0  0  0  0  0  0  0
   -3.4900   25.2660  -30.4700 O   0  0  0  0  0  0  0  0  0  0  0  0
   -5.3720   22.3380  -31.7010 C   0  0  0  0  0  0  0  0  0  0  0  0
   -4.5100   21.3790  -32.2470 C   0  0  0  0  0  0  0  0  0  0  0  0
   -5.5354   17.5763  -33.6399 H   0  0  0  0  0  0  0  0  0  0  0  0
   -5.7432   18.7512  -34.9827 H   0  0  0  0  0  0  0  0  0  0  0  0
   -4.3434   17.6255  -34.9827 H   0  0  0  0  0  0  0  0  0  0  0  0
   -3.6154   18.7438  -32.7905 H   0  0  0  0  0  0  0  0  0  0  0  0
   -3.4991   19.7572  -34.2805 H   0  0  0  0  0  0  0  0  0  0  0  0
   -6.9166   19.3754  -33.6774 H   0  0  0  0  0  0  0  0  0  0  0  0
   -8.4128   21.1468  -32.6976 H   0  0  0  0  0  0  0  0  0  0  0  0
   -8.3732   23.5988  -31.2296 H   0  0  0  0  0  0  0  0  0  0  0  0
   -5.8050   27.3470  -29.6580 H   0  0  0  0  0  0  0  0  0  0  0  0
   -4.9030   26.4780  -30.9430 H   0  0  0  0  0  0  0  0  0  0  0  0
   -3.4200   21.4687  -32.1296 H   0  0  0  0  0  0  0  0  0  0  0  0
  1  2  1  0
  2  3  1  0
  3  4  2  0
  4  5  1  0
  5  6  2  0
  6  7  1  0
  7  8  2  0
  8  9  1  0
  9 10  1  0
  9 11  2  0
  8 12  1  0
 12 13  1  0
 13 14  2  0
 13 15  1  0
 12 16  1  0
 16 17  2  0
 17  3  1  0
 16  6  1  0
  1 18  1  0
  1 19  1  0
  1 20  1  0
  2 21  1  0
  2 22  1  0
  4 23  1  0
  5 24  1  0
  7 25  1  0
 10 26  1  0
 10 27  1  0
 17 28  1  0
M  CHG  1  15  -1
M  END
>  <UniqueID>  (73) 
73

>  <SMILES>  (73) 
CCc1ccc2cc(C(N)=O)n(C(=O)[O-])c2c1

>  <Energy>  (73) 
64.1894711411955

>  <Genealogy>  (73) 
CCc1ccc2cc(C(N)=O)n(C(=O)[O-])c2c1 (protonated)
CCc1ccc2cc(C(N)=O)n(C(=O)[O-])c2c1 (3D coordinates assigned)
CCc1ccc2cc(C(N)=O)n(C(=O)[O-])c2c1 (optimized conformer: 64.1894711411955 kcal/mol)

>  <smiles>  (73) 
CCc1ccc2cc(C(N)=O)n(C(=O)O)c2c1

>  <score_type>  (73) 
oracle

>  <origin>  (73) 
adg

>  <m_score__min__energy>  (73) 
-8.3000000000000007

>  <m_primary>  (73) 
energy

$$$$
73:0
     RDKit          3D

 42 43  0  0  0  0  0  0  0  0999 V2000
   -4.2500   25.5560  -30.6270 N   0  0  0  0  0  0  0  0  0  0  0  0
   -5.6130   25.1940  -30.3980 C   0  0  0  0  0  0  0  0  0  0  0  0
   -6.3860   26.0190  -29.8420 O   0  0  0  0  0  0  0  0  0  0  0  0
   -6.1480   23.8960  -30.8580 C   0  0  0  0  0  0  0  0  0  0  0  0
   -7.4960   23.6770  -31.1260 C   0  0  0  0  0  0  0  0  0  0  0  0
   -7.5680   22.3810  -31.5840 C   0  0  0  0  0  0  0  0  0  0  0  0
   -8.6720   21.6360  -31.9880 C   0  0  0  0  0  0  0  0  0  0  0  0
   -8.4590   20.3040  -32.3820 C   0  0  0  0  0  0  0  0  0  0  0  0
   -7.1600   19.7410  -32.3500 C   0  0  0  0  0  0  0  0  0  0  0  0
   -6.9450   18.3150  -32.7890 C   0  0  0  0  0  0  0  0  0  0  0  0
   -6.0900   18.2240  -34.0650 C   0  0  0  0  0  0  0  0  0  0  0  0
   -4.6610   17.7320  -33.8130 C   0  0  0  0  0  0  0  0  0  0  0  0
   -3.3900   19.1980  -33.7620 Br  0  0  0  0  0  0  0  0  0  0  0  0
   -6.0620   20.5280  -31.9350 C   0  0  0  0  0  0  0  0  0  0  0  0
   -6.2990   21.8600  -31.5700 C   0  0  0  0  0  0  0  0  0  0  0  0
   -5.4140   22.7800  -31.1250 N   0  0  0  0  0  0  0  0  0  0  0  0
   -4.0150   22.5750  -30.8670 C   0  0  0  0  0  0  0  0  0  0  0  0
   -3.1570   22.9340  -31.7170 O   0  0  0  0  0  0  0  0  0  0  0  0
   -3.6130   21.9800  -29.6640 O   0  0  0  0  0  0  0  0  0  0  0  0
   -3.8340   22.5690  -28.3850 C   0  0  0  0  0  0  0  0  0  0  0  0
   -2.5230   23.1250  -27.8180 C   0  0  0  0  0  0  0  0  0  0  0  0
   -2.3600   24.6150  -28.1200 C   0  0  0  0  0  0  0  0  0  0  0  0
   -2.2950   24.8210  -29.5050 O   0  0  0  0  0  0  0  0  0  0  0  0
   -3.6300   24.9700  -31.2280 H   0  0  0  0  0  0  0  0  0  0  0  0
   -3.8790   26.4600  -30.2580 H   0  0  0  0  0  0  0  0  0  0  0  0
   -8.3261   24.3875  -30.9990 H   0  0  0  0  0  0  0  0  0  0  0  0
   -9.6800   22.0762  -31.9986 H   0  0  0  0  0  0  0  0  0  0  0  0
   -9.3094   19.6928  -32.7185 H   0  0  0  0  0  0  0  0  0  0  0  0
   -6.4360   17.7683  -31.9815 H   0  0  0  0  0  0  0  0  0  0  0  0
   -7.9295   17.8767  -33.0094 H   0  0  0  0  0  0  0  0  0  0  0  0
   -6.5793   17.5281  -34.7624 H   0  0  0  0  0  0  0  0  0  0  0  0
   -6.0128   19.2420  -34.4744 H   0  0  0  0  0  0  0  0  0  0  0  0
   -4.6319   17.2023  -32.8494 H   0  0  0  0  0  0  0  0  0  0  0  0
   -4.3790   17.0647  -34.6407 H   0  0  0  0  0  0  0  0  0  0  0  0
   -5.0469   20.1056  -31.8994 H   0  0  0  0  0  0  0  0  0  0  0  0
   -4.5619   23.3877  -28.4841 H   0  0  0  0  0  0  0  0  0  0  0  0
   -4.2206   21.7997  -27.7003 H   0  0  0  0  0  0  0  0  0  0  0  0
   -2.5169   22.9800  -26.7276 H   0  0  0  0  0  0  0  0  0  0  0  0
   -1.6896   22.5868  -28.2933 H   0  0  0  0  0  0  0  0  0  0  0  0
   -3.2196   25.1656  -27.7101 H   0  0  0  0  0  0  0  0  0  0  0  0
   -1.4295   24.9765  -27.6580 H   0  0  0  0  0  0  0  0  0  0  0  0
   -2.5180   23.9490  -29.9220 H   0  0  0  0  0  0  0  0  0  0  0  0
  1  2  1  0
  2  3  2  0
  2  4  1  0
  4  5  2  0
  5  6  1  0
  6  7  2  0
  7  8  1  0
  8  9  2  0
  9 10  1  0
 10 11  1  0
 11 12  1  0
 12 13  1  0
  9 14  1  0
 14 15  2  0
 15 16  1  0
 16 17  1  0
 17 18  2  0
 17 19  1  0
 19 20  1  0
 20 21  1  0
 21 22  1  0
 22 23  1  0
 16  4  1  0
 15  6  1  0
  1 24  1  0
  1 25  1  0
  5 26  1  0
  7 27  1  0
  8 28  1  0
 10 29  1  0
 10 30  1  0
 11 31  1  0
 11 32  1  0
 12 33  1  0
 12 34  1  0
 14 35  1  0
 20 36  1  0
 20 37  1  0
 21 38  1  0
 21 39  1  0
 22 40  1  0
 22 41  1  0
 23 42  1  0
M  END
>  <UniqueID>  (74) 
74

>  <SMILES>  (74) 
NC(=O)c1cc2ccc(CCCBr)cc2n1C(=O)OCCCO

>  <Energy>  (74) 
70.56775824650619

>  <Genealogy>  (74) 
NC(=O)c1cc2ccc(CCCBr)cc2n1C(=O)OCCCO (3D coordinates assigned)
NC(=O)c1cc2ccc(CCCBr)cc2n1C(=O)OCCCO (optimized conformer: 70.56775824650619 kcal/mol)

>  <smiles>  (74) 
NC(=O)c1cc2ccc(CCCBr)cc2n1C(=O)OCCCO

>  <score_type>  (74) 
oracle

>  <origin>  (74) 
adg

>  <m_score__min__energy>  (74) 
-8.6799999999999997

>  <m_primary>  (74) 
energy

$$$$
74:0
     RDKit          3D

 51 54  0  0  0  0  0  0  0  0999 V2000
    0.0090   11.6010  -33.6730 C   0  0  0  0  0  0  0  0  0  0  0  0
   -1.0490   11.6070  -34.6140 O   0  0  0  0  0  0  0  0  0  0  0  0
   -1.8270   12.8040  -34.6080 C   0  0  0  0  0  0  0  0  0  0  0  0
   -0.9560   13.9710  -34.3180 C   0  0  0  0  0  0  0  0  0  0  0  0
   -0.2780   14.8810  -34.0930 N   0  0  0  0  0  0  0  0  0  0  0  0
   -2.8510   12.6600  -33.4380 C   0  0  0  0  0  0  0  0  0  0  0  0
   -4.2280   13.2880  -33.7110 C   0  0  0  0  0  0  0  0  0  0  0  0
   -4.0970   14.4560  -34.5860 N   0  0  0  0  0  0  0  0  0  0  0  0
   -4.5430   15.7600  -34.1610 C   0  0  0  0  0  0  0  0  0  0  0  0
   -5.7590   15.9080  -33.4750 C   0  0  0  0  0  0  0  0  0  0  0  0
   -6.1840   17.1700  -33.0490 C   0  0  0  0  0  0  0  0  0  0  0  0
   -5.3960   18.3090  -33.2950 C   0  0  0  0  0  0  0  0  0  0  0  0
   -5.8460   19.6500  -32.8410 C   0  0  0  0  0  0  0  0  0  0  0  0
   -7.2120   20.0220  -32.9470 C   0  0  0  0  0  0  0  0  0  0  0  0
   -7.6460   21.2910  -32.5310 C   0  0  0  0  0  0  0  0  0  0  0  0
   -6.7000   22.1660  -32.0080 C   0  0  0  0  0  0  0  0  0  0  0  0
   -6.8450   23.4570  -31.5560 C   0  0  0  0  0  0  0  0  0  0  0  0
   -5.5700   23.8540  -31.1590 C   0  0  0  0  0  0  0  0  0  0  0  0
   -5.2860   25.1570  -30.5240 C   0  0  0  0  0  0  0  0  0  0  0  0
   -3.9560   25.6720  -30.5230 N   0  0  0  0  0  0  0  0  0  0  0  0
   -6.2110   25.8420  -30.0120 O   0  0  0  0  0  0  0  0  0  0  0  0
   -4.6700   22.8500  -31.3630 N   0  0  0  0  0  0  0  0  0  0  0  0
   -3.2490   22.8870  -31.1510 C   0  0  0  0  0  0  0  0  0  0  0  0
   -2.7730   23.4480  -30.1280 O   0  0  0  0  0  0  0  0  0  0  0  0
   -2.3870   22.2800  -32.0560 O   0  0  0  0  0  0  0  0  0  0  0  0
   -5.3800   21.8220  -31.8810 C   0  0  0  0  0  0  0  0  0  0  0  0
   -4.9150   20.5710  -32.3030 C   0  0  0  0  0  0  0  0  0  0  0  0
   -4.1750   18.1570  -33.9740 C   0  0  0  0  0  0  0  0  0  0  0  0
   -3.7510   16.8940  -34.3980 C   0  0  0  0  0  0  0  0  0  0  0  0
   -3.4840   14.2820  -35.9080 C   0  0  0  0  0  0  0  0  0  0  0  0
   -2.5870   13.0290  -35.9520 C   0  0  0  0  0  0  0  0  0  0  0  0
   -0.4062   11.6034  -32.6544 H   0  0  0  0  0  0  0  0  0  0  0  0
    0.6225   10.6994  -33.8168 H   0  0  0  0  0  0  0  0  0  0  0  0
    0.6327   12.4956  -33.8168 H   0  0  0  0  0  0  0  0  0  0  0  0
   -2.9962   11.5879  -33.2393 H   0  0  0  0  0  0  0  0  0  0  0  0
   -2.4247   13.2038  -32.5821 H   0  0  0  0  0  0  0  0  0  0  0  0
   -4.8754   12.5430  -34.1967 H   0  0  0  0  0  0  0  0  0  0  0  0
   -4.6679   13.6082  -32.7550 H   0  0  0  0  0  0  0  0  0  0  0  0
   -6.3819   15.0246  -33.2712 H   0  0  0  0  0  0  0  0  0  0  0  0
   -7.1416   17.2730  -32.5176 H   0  0  0  0  0  0  0  0  0  0  0  0
   -7.9392   19.3075  -33.3600 H   0  0  0  0  0  0  0  0  0  0  0  0
   -8.7028   21.5843  -32.6163 H   0  0  0  0  0  0  0  0  0  0  0  0
   -7.7707   24.0498  -31.5164 H   0  0  0  0  0  0  0  0  0  0  0  0
   -3.2400   25.3110  -31.1910 H   0  0  0  0  0  0  0  0  0  0  0  0
   -3.8499   20.3093  -32.2185 H   0  0  0  0  0  0  0  0  0  0  0  0
   -3.5480   19.0386  -34.1734 H   0  0  0  0  0  0  0  0  0  0  0  0
   -2.7893   16.7884  -34.9214 H   0  0  0  0  0  0  0  0  0  0  0  0
   -4.2796   14.1791  -36.6606 H   0  0  0  0  0  0  0  0  0  0  0  0
   -2.8591   15.1625  -36.1182 H   0  0  0  0  0  0  0  0  0  0  0  0
   -3.2157   12.1496  -36.1555 H   0  0  0  0  0  0  0  0  0  0  0  0
   -1.8381   13.1761  -36.7442 H   0  0  0  0  0  0  0  0  0  0  0  0
  1  2  1  0
  2  3  1  0
  3  4  1  0
  4  5  3  0
  3  6  1  0
  6  7  1  0
  7  8  1  0
  8  9  1  0
  9 10  2  0
 10 11  1  0
 11 12  2  0
 12 13  1  0
 13 14  2  0
 14 15  1  0
 15 16  2  0
 16 17  1  0
 17 18  2  0
 18 19  1  0
 19 20  1  0
 19 21  2  0
 18 22  1  0
 22 23  1  0
 23 24  2  0
 23 25  1  0
 22 26  1  0
 26 27  2  0
 12 28  1  0
 28 29  2  0
  8 30  1  0
 30 31  1  0
 31  3  1  0
 29  9  1  0
 27 13  1  0
 26 16  1  0
  1 32  1  0
  1 33  1  0
  1 34  1  0
  6 35  1  0
  6 36  1  0
  7 37  1  0
  7 38  1  0
 10 39  1  0
 11 40  1  0
 14 41  1  0
 15 42  1  0
 17 43  1  0
 20 44  1  0
 27 45  1  0
 28 46  1  0
 29 47  1  0
 30 48  1  0
 30 49  1  0
 31 50  1  0
 31 51  1  0
M  CHG  2  20  -1  25  -1
M  END
>  <UniqueID>  (75) 
75

>  <SMILES>  (75) 
COC1(C#N)CCN(c2ccc(-c3ccc4cc(C([NH-])=O)n(C(=O)[O-])c4c3)cc2)CC1

>  <Energy>  (75) 
114.86686134239147

>  <Genealogy>  (75) 
COC1(C#N)CCN(c2ccc(-c3ccc4cc(C([NH-])=O)n(C(=O)[O-])c4c3)cc2)CC1 (protonated)
COC1(C#N)CCN(c2ccc(-c3ccc4cc(C([NH-])=O)n(C(=O)[O-])c4c3)cc2)CC1 (3D coordinates assigned)
COC1(C#N)CCN(c2ccc(-c3ccc4cc(C([NH-])=O)n(C(=O)[O-])c4c3)cc2)CC1 (nonaromatic ring conformer: 114.86686134239147 kcal/mol)

>  <smiles>  (75) 
COC1(C#N)CCN(c2ccc(-c3ccc4cc(C(N)=O)n(C(=O)O)c4c3)cc2)CC1

>  <score_type>  (75) 
oracle

>  <origin>  (75) 
adg

>  <m_score__min__energy>  (75) 
-10.779999999999999

>  <m_primary>  (75) 
energy

$$$$
75:0
     RDKit          3D

 45 47  0  0  0  0  0  0  0  0999 V2000
   -2.9390   22.4660  -30.3970 C   0  0  0  0  0  0  0  0  0  0  0  0
   -3.8250   22.5340  -31.6000 C   0  0  0  0  0  0  0  0  0  0  0  0
   -3.3360   22.3050  -32.7390 O   0  0  0  0  0  0  0  0  0  0  0  0
   -5.2340   22.7690  -31.4630 N   0  0  0  0  0  0  0  0  0  0  0  0
   -5.8590   23.8230  -30.8690 C   0  0  0  0  0  0  0  0  0  0  0  0
   -5.2020   25.0470  -30.3630 C   0  0  0  0  0  0  0  0  0  0  0  0
   -3.8190   25.2890  -30.6040 N   0  0  0  0  0  0  0  0  0  0  0  0
   -5.8810   25.9090  -29.7430 O   0  0  0  0  0  0  0  0  0  0  0  0
   -7.2400   23.6320  -30.8650 C   0  0  0  0  0  0  0  0  0  0  0  0
   -7.4430   22.4220  -31.4910 C   0  0  0  0  0  0  0  0  0  0  0  0
   -8.6210   21.7340  -31.7530 C   0  0  0  0  0  0  0  0  0  0  0  0
   -8.5270   20.4860  -32.3930 C   0  0  0  0  0  0  0  0  0  0  0  0
   -7.2650   19.9490  -32.7650 C   0  0  0  0  0  0  0  0  0  0  0  0
   -7.1950   18.5740  -33.4130 C   0  0  2  0  0  0  0  0  0  0  0  0
   -7.1600   17.4530  -32.3520 C   0  0  0  0  0  0  0  0  0  0  0  0
   -5.7440   17.1540  -31.8190 C   0  0  0  0  0  0  0  0  0  0  0  0
   -4.6790   17.1550  -32.8650 N   0  0  1  0  0  0  0  0  0  0  0  0
   -3.8060   16.0060  -32.7120 C   0  0  0  0  0  0  0  0  0  0  0  0
   -4.3730   14.6620  -32.3590 C   0  0  0  0  0  0  0  0  0  0  0  0
   -2.5970   16.1240  -32.8640 O   0  0  0  0  0  0  0  0  0  0  0  0
   -5.1960   17.2040  -34.2490 C   0  0  0  0  0  0  0  0  0  0  0  0
   -6.0550   18.4580  -34.4590 C   0  0  0  0  0  0  0  0  0  0  0  0
   -6.0890   20.6820  -32.4700 C   0  0  0  0  0  0  0  0  0  0  0  0
   -6.2170   21.9240  -31.8420 C   0  0  0  0  0  0  0  0  0  0  0  0
   -3.5535   22.5132  -29.4859 H   0  0  0  0  0  0  0  0  0  0  0  0
   -2.3746   21.5219  -30.4102 H   0  0  0  0  0  0  0  0  0  0  0  0
   -2.2372   23.3129  -30.4102 H   0  0  0  0  0  0  0  0  0  0  0  0
   -3.5110   26.0470  -31.2520 H   0  0  0  0  0  0  0  0  0  0  0  0
   -8.0050   24.3047  -30.4500 H   0  0  0  0  0  0  0  0  0  0  0  0
   -9.5974   22.1530  -31.4684 H   0  0  0  0  0  0  0  0  0  0  0  0
   -9.4433   19.9170  -32.6089 H   0  0  0  0  0  0  0  0  0  0  0  0
   -8.1242   18.4398  -33.9862 H   0  0  0  0  0  0  0  0  0  0  0  0
   -7.7940   17.7551  -31.5054 H   0  0  0  0  0  0  0  0  0  0  0  0
   -7.5228   16.5356  -32.8387 H   0  0  0  0  0  0  0  0  0  0  0  0
   -5.4903   17.9175  -31.0689 H   0  0  0  0  0  0  0  0  0  0  0  0
   -5.7737   16.1366  -31.4018 H   0  0  0  0  0  0  0  0  0  0  0  0
   -4.0960   18.0150  -32.7270 H   0  0  0  0  0  0  0  0  0  0  0  0
   -4.4167   14.5584  -31.2648 H   0  0  0  0  0  0  0  0  0  0  0  0
   -5.3865   14.5704  -32.7768 H   0  0  0  0  0  0  0  0  0  0  0  0
   -3.7314   13.8722  -32.7768 H   0  0  0  0  0  0  0  0  0  0  0  0
   -4.3493   17.2237  -34.9510 H   0  0  0  0  0  0  0  0  0  0  0  0
   -5.8171   16.3139  -34.4279 H   0  0  0  0  0  0  0  0  0  0  0  0
   -5.4102   19.3456  -34.3792 H   0  0  0  0  0  0  0  0  0  0  0  0
   -6.5181   18.3854  -35.4541 H   0  0  0  0  0  0  0  0  0  0  0  0
   -5.0975   20.2825  -32.7294 H   0  0  0  0  0  0  0  0  0  0  0  0
  1  2  1  0
  2  3  2  0
  2  4  1  0
  4  5  1  0
  5  6  1  0
  6  7  1  0
  6  8  2  0
  5  9  2  0
  9 10  1  0
 10 11  2  0
 11 12  1  0
 12 13  2  0
 13 14  1  0
 14 15  1  0
 15 16  1  0
 16 17  1  0
 17 18  1  0
 18 19  1  0
 18 20  2  0
 17 21  1  0
 21 22  1  0
 13 23  1  0
 23 24  2  0
 24  4  1  0
 24 10  1  0
 22 14  1  0
  1 25  1  0
  1 26  1  0
  1 27  1  0
  7 28  1  0
  9 29  1  0
 11 30  1  0
 12 31  1  0
 14 32  1  6
 15 33  1  0
 15 34  1  0
 16 35  1  0
 16 36  1  0
 17 37  1  1
 19 38  1  0
 19 39  1  0
 19 40  1  0
 21 41  1  0
 21 42  1  0
 22 43  1  0
 22 44  1  0
 23 45  1  0
M  CHG  2   7  -1  17   1
M  END
>  <UniqueID>  (76) 
76

>  <SMILES>  (76) 
CC(=O)n1c(C([NH-])=O)cc2ccc(C3CC[NH+](C(C)=O)CC3)cc21

>  <Energy>  (76) 
94.97538397269103

>  <Genealogy>  (76) 
CC(=O)n1c(C([NH-])=O)cc2ccc(C3CC[NH+](C(C)=O)CC3)cc21 (protonated)
CC(=O)n1c(C([NH-])=O)cc2ccc(C3CC[NH+](C(C)=O)CC3)cc21 (3D coordinates assigned)
CC(=O)n1c(C([NH-])=O)cc2ccc(C3CC[NH+](C(C)=O)CC3)cc21 (nonaromatic ring conformer: 94.97538397269103 kcal/mol)

>  <smiles>  (76) 
CC(=O)N1CCC(c2ccc3cc(C(N)=O)n(C(C)=O)c3c2)CC1

>  <score_type>  (76) 
oracle

>  <origin>  (76) 
adg

>  <m_score__min__energy>  (76) 
-11.01

>  <m_primary>  (76) 
energy

$$$$
76:0
     RDKit          3D

 31 33  0  0  0  0  0  0  0  0999 V2000
   -1.7350   25.6790  -28.9610 N   0  0  0  0  0  0  0  0  0  0  0  0
   -0.9470   24.4960  -29.0930 C   0  0  0  0  0  0  0  0  0  0  0  0
    0.1880   24.4480  -28.5530 O   0  0  0  0  0  0  0  0  0  0  0  0
   -1.4530   23.3640  -29.8950 C   0  0  0  0  0  0  0  0  0  0  0  0
   -0.6410   22.3330  -30.3650 C   0  0  0  0  0  0  0  0  0  0  0  0
   -1.4960   21.4430  -30.9730 C   0  0  0  0  0  0  0  0  0  0  0  0
   -1.2250   20.2410  -31.6190 C   0  0  0  0  0  0  0  0  0  0  0  0
   -2.3040   19.5370  -32.1800 C   0  0  0  0  0  0  0  0  0  0  0  0
   -3.6280   20.0430  -32.0930 C   0  0  0  0  0  0  0  0  0  0  0  0
   -4.7580   19.2950  -32.7000 C   0  0  0  0  0  0  0  0  0  0  0  0
   -4.5830   18.5720  -33.8910 C   0  0  0  0  0  0  0  0  0  0  0  0
   -5.6600   17.8770  -34.4450 C   0  0  0  0  0  0  0  0  0  0  0  0
   -6.8740   17.8990  -33.8340 N   0  0  0  0  0  0  0  0  0  0  0  0
   -7.0770   18.5880  -32.6800 C   0  0  0  0  0  0  0  0  0  0  0  0
   -8.6610   18.5770  -31.9320 Cl  0  0  0  0  0  0  0  0  0  0  0  0
   -6.0260   19.2990  -32.0920 C   0  0  0  0  0  0  0  0  0  0  0  0
   -3.8590   21.2700  -31.4270 C   0  0  0  0  0  0  0  0  0  0  0  0
   -2.7680   21.9420  -30.8640 C   0  0  0  0  0  0  0  0  0  0  0  0
   -2.7580   23.1240  -30.2080 N   0  0  0  0  0  0  0  0  0  0  0  0
   -3.8940   23.9710  -29.9670 C   0  0  0  0  0  0  0  0  0  0  0  0
   -3.9210   25.3000  -30.4820 N   0  0  0  0  0  0  0  0  0  0  0  0
   -4.8850   23.5330  -29.3230 O   0  0  0  0  0  0  0  0  0  0  0  0
   -2.7450   25.6820  -29.2210 H   0  0  0  0  0  0  0  0  0  0  0  0
    0.4516   22.2489  -30.2699 H   0  0  0  0  0  0  0  0  0  0  0  0
   -0.1978   19.8537  -31.6885 H   0  0  0  0  0  0  0  0  0  0  0  0
   -2.1207   18.5815  -32.6932 H   0  0  0  0  0  0  0  0  0  0  0  0
   -3.6008   18.5532  -34.3859 H   0  0  0  0  0  0  0  0  0  0  0  0
   -5.5256   17.3103  -35.3782 H   0  0  0  0  0  0  0  0  0  0  0  0
   -6.1903   19.8582  -31.1591 H   0  0  0  0  0  0  0  0  0  0  0  0
   -4.8743   21.6867  -31.3534 H   0  0  0  0  0  0  0  0  0  0  0  0
   -3.7820   26.1210  -29.8530 H   0  0  0  0  0  0  0  0  0  0  0  0
  1  2  1  0
  2  3  2  0
  2  4  1  0
  4  5  2  0
  5  6  1  0
  6  7  2  0
  7  8  1  0
  8  9  2  0
  9 10  1  0
 10 11  2  0
 11 12  1  0
 12 13  2  0
 13 14  1  0
 14 15  1  0
 14 16  2  0
  9 17  1  0
 17 18  2  0
 18 19  1  0
 19 20  1  0
 20 21  1  0
 20 22  2  0
 19  4  1  0
 18  6  1  0
 16 10  1  0
  1 23  1  0
  5 24  1  0
  7 25  1  0
  8 26  1  0
 11 27  1  0
 12 28  1  0
 16 29  1  0
 17 30  1  0
 21 31  1  0
M  CHG  2   1  -1  21  -1
M  END
>  <UniqueID>  (77) 
77

>  <SMILES>  (77) 
[NH-]C(=O)c1cc2ccc(-c3ccnc(Cl)c3)cc2n1C([NH-])=O

>  <Energy>  (77) 
78.74827842382342

>  <Genealogy>  (77) 
[NH-]C(=O)c1cc2ccc(-c3ccnc(Cl)c3)cc2n1C([NH-])=O (protonated)
[NH-]C(=O)c1cc2ccc(-c3ccnc(Cl)c3)cc2n1C([NH-])=O (3D coordinates assigned)
[NH-]C(=O)c1cc2ccc(-c3ccnc(Cl)c3)cc2n1C([NH-])=O (optimized conformer: 78.74827842382342 kcal/mol)

>  <smiles>  (77) 
NC(=O)c1cc2ccc(-c3ccnc(Cl)c3)cc2n1C(N)=O

>  <score_type>  (77) 
oracle

>  <origin>  (77) 
adg

>  <m_score__min__energy>  (77) 
-11.640000000000001

>  <m_primary>  (77) 
energy

$$$$
77:0
     RDKit          3D

 26 27  0  0  0  0  0  0  0  0999 V2000
   -3.1090   23.6350  -30.7900 N   0  0  0  0  0  0  0  0  0  0  0  0
   -3.9380   22.8140  -31.6080 C   0  0  0  0  0  0  0  0  0  0  0  0
   -3.4070   22.0310  -32.4410 O   0  0  0  0  0  0  0  0  0  0  0  0
   -5.3690   22.8660  -31.4740 N   0  0  0  0  0  0  0  0  0  0  0  0
   -6.1070   23.8190  -30.8380 C   0  0  0  0  0  0  0  0  0  0  0  0
   -5.5960   25.0970  -30.3030 C   0  0  0  0  0  0  0  0  0  0  0  0
   -6.1240   25.6590  -29.1020 N   0  0  0  0  0  0  0  0  0  0  0  0
   -4.6390   25.6730  -30.8860 O   0  0  0  0  0  0  0  0  0  0  0  0
   -7.4510   23.4580  -30.8020 C   0  0  0  0  0  0  0  0  0  0  0  0
   -7.5210   22.2490  -31.4540 C   0  0  0  0  0  0  0  0  0  0  0  0
   -8.6170   21.4270  -31.6990 C   0  0  0  0  0  0  0  0  0  0  0  0
   -8.3920   20.2120  -32.3670 C   0  0  0  0  0  0  0  0  0  0  0  0
   -7.0850   19.8380  -32.7670 C   0  0  0  0  0  0  0  0  0  0  0  0
   -6.8660   18.5260  -33.4630 C   0  0  0  0  0  0  0  0  0  0  0  0
   -6.4860   17.5670  -32.5410 F   0  0  0  0  0  0  0  0  0  0  0  0
   -5.8720   18.6630  -34.4140 F   0  0  0  0  0  0  0  0  0  0  0  0
   -5.9960   20.6970  -32.4990 C   0  0  0  0  0  0  0  0  0  0  0  0
   -6.2500   21.9120  -31.8500 C   0  0  0  0  0  0  0  0  0  0  0  0
   -3.0630   24.6680  -30.9370 H   0  0  0  0  0  0  0  0  0  0  0  0
   -5.7750   26.5810  -28.7580 H   0  0  0  0  0  0  0  0  0  0  0  0
   -6.7990   25.1280  -28.5090 H   0  0  0  0  0  0  0  0  0  0  0  0
   -8.2806   24.0202  -30.3485 H   0  0  0  0  0  0  0  0  0  0  0  0
   -9.6280   21.7197  -31.3795 H   0  0  0  0  0  0  0  0  0  0  0  0
   -9.2391   19.5440  -32.5818 H   0  0  0  0  0  0  0  0  0  0  0  0
   -7.8021   18.2170  -33.9512 H   0  0  0  0  0  0  0  0  0  0  0  0
   -4.9732   20.4184  -32.7929 H   0  0  0  0  0  0  0  0  0  0  0  0
  1  2  1  0
  2  3  2  0
  2  4  1  0
  4  5  1  0
  5  6  1  0
  6  7  1  0
  6  8  2  0
  5  9  2  0
  9 10  1  0
 10 11  2  0
 11 12  1  0
 12 13  2  0
 13 14  1  0
 14 15  1  0
 14 16  1  0
 13 17  1  0
 17 18  2  0
 18  4  1  0
 18 10  1  0
  1 19  1  0
  7 20  1  0
  7 21  1  0
  9 22  1  0
 11 23  1  0
 12 24  1  0
 14 25  1  0
 17 26  1  0
M  CHG  1   1  -1
M  END
>  <UniqueID>  (78) 
78

>  <SMILES>  (78) 
[NH-]C(=O)n1c(C(N)=O)cc2ccc(C(F)F)cc21

>  <Energy>  (78) 
65.7216511471294

>  <Genealogy>  (78) 
[NH-]C(=O)n1c(C(N)=O)cc2ccc(C(F)F)cc21 (protonated)
[NH-]C(=O)n1c(C(N)=O)cc2ccc(C(F)F)cc21 (3D coordinates assigned)
[NH-]C(=O)n1c(C(N)=O)cc2ccc(C(F)F)cc21 (optimized conformer: 65.7216511471294 kcal/mol)

>  <smiles>  (78) 
NC(=O)c1cc2ccc(C(F)F)cc2n1C(N)=O

>  <score_type>  (78) 
oracle

>  <origin>  (78) 
adg

>  <m_score__min__energy>  (78) 
-8.0399999999999991

>  <m_primary>  (78) 
energy

$$$$
78:0
     RDKit          3D

 37 40  0  0  0  0  0  0  0  0999 V2000
   -3.3350   22.9520  -28.5970 C   0  0  0  0  0  0  0  0  0  0  0  0
   -2.8390   23.1810  -29.9100 O   0  0  0  0  0  0  0  0  0  0  0  0
   -3.4850   22.7020  -31.0540 C   0  0  0  0  0  0  0  0  0  0  0  0
   -2.8240   22.1480  -31.9740 O   0  0  0  0  0  0  0  0  0  0  0  0
   -4.9120   22.8210  -31.1690 N   0  0  0  0  0  0  0  0  0  0  0  0
   -5.6840   23.9010  -30.8600 C   0  0  0  0  0  0  0  0  0  0  0  0
   -5.1920   25.2470  -30.5050 C   0  0  0  0  0  0  0  0  0  0  0  0
   -3.8760   25.6650  -30.8640 N   0  0  0  0  0  0  0  0  0  0  0  0
   -5.9580   26.0590  -29.9200 O   0  0  0  0  0  0  0  0  0  0  0  0
   -7.0350   23.5930  -31.0050 C   0  0  0  0  0  0  0  0  0  0  0  0
   -7.0680   22.2820  -31.4240 C   0  0  0  0  0  0  0  0  0  0  0  0
   -8.1540   21.4630  -31.7090 C   0  0  0  0  0  0  0  0  0  0  0  0
   -7.8960   20.1360  -32.0930 C   0  0  0  0  0  0  0  0  0  0  0  0
   -6.5650   19.6510  -32.1750 C   0  0  0  0  0  0  0  0  0  0  0  0
   -6.3060   18.2480  -32.5680 C   0  0  0  0  0  0  0  0  0  0  0  0
   -5.2600   17.5250  -32.0820 N   0  0  0  0  0  0  0  0  0  0  0  0
   -5.4110   16.3420  -32.6920 C   0  0  0  0  0  0  0  0  0  0  0  0
   -4.6110   15.2070  -32.5650 C   0  0  0  0  0  0  0  0  0  0  0  0
   -4.9700   14.0690  -33.3120 C   0  0  0  0  0  0  0  0  0  0  0  0
   -6.1030   14.0960  -34.1570 C   0  0  0  0  0  0  0  0  0  0  0  0
   -6.8860   15.2620  -34.2610 C   0  0  0  0  0  0  0  0  0  0  0  0
   -6.5010   16.3680  -33.5050 C   0  0  0  0  0  0  0  0  0  0  0  0
   -7.0920   17.5690  -33.4470 N   0  0  0  0  0  0  0  0  0  0  0  0
   -5.4870   20.5170  -31.8750 C   0  0  0  0  0  0  0  0  0  0  0  0
   -5.7750   21.8380  -31.5140 C   0  0  0  0  0  0  0  0  0  0  0  0
   -2.5935   23.2943  -27.8601 H   0  0  0  0  0  0  0  0  0  0  0  0
   -4.2740   23.5077  -28.4577 H   0  0  0  0  0  0  0  0  0  0  0  0
   -3.5211   21.8768  -28.4577 H   0  0  0  0  0  0  0  0  0  0  0  0
   -3.0390   25.2850  -30.3700 H   0  0  0  0  0  0  0  0  0  0  0  0
   -7.8933   24.2566  -30.8232 H   0  0  0  0  0  0  0  0  0  0  0  0
   -9.1841   21.8419  -31.6362 H   0  0  0  0  0  0  0  0  0  0  0  0
   -8.7349   19.4661  -32.3326 H   0  0  0  0  0  0  0  0  0  0  0  0
   -3.7311   15.2010  -31.9049 H   0  0  0  0  0  0  0  0  0  0  0  0
   -4.3652   13.1532  -33.2377 H   0  0  0  0  0  0  0  0  0  0  0  0
   -6.3746   13.2013  -34.7365 H   0  0  0  0  0  0  0  0  0  0  0  0
   -7.7695   15.2986  -34.9152 H   0  0  0  0  0  0  0  0  0  0  0  0
   -4.4476   20.1604  -31.9244 H   0  0  0  0  0  0  0  0  0  0  0  0
  1  2  1  0
  2  3  1  0
  3  4  2  0
  3  5  1  0
  5  6  1  0
  6  7  1  0
  7  8  1  0
  7  9  2  0
  6 10  2  0
 10 11  1  0
 11 12  2  0
 12 13  1  0
 13 14  2  0
 14 15  1  0
 15 16  2  0
 16 17  1  0
 17 18  2  0
 18 19  1  0
 19 20  2  0
 20 21  1  0
 21 22  2  0
 22 23  1  0
 14 24  1  0
 24 25  2  0
 25  5  1  0
 25 11  1  0
 23 15  1  0
 22 17  1  0
  1 26  1  0
  1 27  1  0
  1 28  1  0
  8 29  1  0
 10 30  1  0
 12 31  1  0
 13 32  1  0
 18 33  1  0
 19 34  1  0
 20 35  1  0
 21 36  1  0
 24 37  1  0
M  CHG  2   8  -1  23  -1
M  END
>  <UniqueID>  (79) 
79

>  <SMILES>  (79) 
COC(=O)n1c(C([NH-])=O)cc2ccc(-c3nc4ccccc4[n-]3)cc21

>  <Energy>  (79) 
114.48390239559501

>  <Genealogy>  (79) 
COC(=O)n1c(C([NH-])=O)cc2ccc(-c3nc4ccccc4[n-]3)cc21 (protonated)
COC(=O)n1c(C([NH-])=O)cc2ccc(-c3nc4ccccc4[n-]3)cc21 (3D coordinates assigned)
COC(=O)n1c(C([NH-])=O)cc2ccc(-c3nc4ccccc4[n-]3)cc21 (optimized conformer: 114.48390239559501 kcal/mol)

>  <smiles>  (79) 
COC(=O)n1c(C(N)=O)cc2ccc(-c3nc4ccccc4[nH]3)cc21

>  <score_type>  (79) 
oracle

>  <origin>  (79) 
adg

>  <m_score__min__energy>  (79) 
-10.4

>  <m_primary>  (79) 
energy

$$$$
79:0
     RDKit          3D

 39 40  0  0  0  0  0  0  0  0999 V2000
   -9.0320   19.3270  -31.9750 C   0  0  0  0  0  0  0  0  0  0  0  0
   -8.6960   20.7370  -32.2370 N   0  0  0  0  0  0  0  0  0  0  0  0
   -9.5460   21.6040  -31.4020 C   0  0  0  0  0  0  0  0  0  0  0  0
   -7.2600   20.9830  -31.9710 C   0  0  0  0  0  0  0  0  0  0  0  0
   -6.4010   19.8730  -32.5950 C   0  0  0  0  0  0  0  0  0  0  0  0
   -5.2660   20.4310  -33.4650 C   0  0  0  0  0  0  0  0  0  0  0  0
   -4.0840   20.8750  -32.6400 C   0  0  0  0  0  0  0  0  0  0  0  0
   -2.9020   20.0950  -32.6110 C   0  0  0  0  0  0  0  0  0  0  0  0
   -1.7920   20.5080  -31.8560 C   0  0  0  0  0  0  0  0  0  0  0  0
   -1.8880   21.7060  -31.1540 C   0  0  0  0  0  0  0  0  0  0  0  0
   -0.9740   22.3260  -30.3340 C   0  0  0  0  0  0  0  0  0  0  0  0
   -1.6010   23.4910  -29.8950 C   0  0  0  0  0  0  0  0  0  0  0  0
   -0.9410   24.5160  -29.0560 C   0  0  0  0  0  0  0  0  0  0  0  0
   -1.5570   25.7860  -28.8370 N   0  0  0  0  0  0  0  0  0  0  0  0
    0.1600   24.2650  -28.5000 O   0  0  0  0  0  0  0  0  0  0  0  0
   -2.8550   23.5860  -30.4230 N   0  0  0  0  0  0  0  0  0  0  0  0
   -3.8390   24.6050  -30.1710 C   0  0  0  0  0  0  0  0  0  0  0  0
   -3.8590   25.6560  -30.8640 O   0  0  0  0  0  0  0  0  0  0  0  0
   -4.7690   24.4460  -29.1520 O   0  0  0  0  0  0  0  0  0  0  0  0
   -3.0160   22.4850  -31.1910 C   0  0  0  0  0  0  0  0  0  0  0  0
   -4.1440   22.0880  -31.9190 C   0  0  0  0  0  0  0  0  0  0  0  0
   -9.0729   19.1555  -30.8892 H   0  0  0  0  0  0  0  0  0  0  0  0
  -10.0107   19.0945  -32.4201 H   0  0  0  0  0  0  0  0  0  0  0  0
   -8.2633   18.6781  -32.4201 H   0  0  0  0  0  0  0  0  0  0  0  0
   -9.3461   21.4001  -30.3397 H   0  0  0  0  0  0  0  0  0  0  0  0
   -9.3219   22.6583  -31.6215 H   0  0  0  0  0  0  0  0  0  0  0  0
  -10.6046   21.4008  -31.6215 H   0  0  0  0  0  0  0  0  0  0  0  0
   -6.9718   21.9516  -32.4055 H   0  0  0  0  0  0  0  0  0  0  0  0
   -7.0955   20.9921  -30.8834 H   0  0  0  0  0  0  0  0  0  0  0  0
   -5.9625   19.2691  -31.7869 H   0  0  0  0  0  0  0  0  0  0  0  0
   -7.0531   19.2678  -33.2419 H   0  0  0  0  0  0  0  0  0  0  0  0
   -4.9367   19.6477  -34.1635 H   0  0  0  0  0  0  0  0  0  0  0  0
   -5.6523   21.3092  -34.0031 H   0  0  0  0  0  0  0  0  0  0  0  0
   -2.8530   19.1577  -33.1847 H   0  0  0  0  0  0  0  0  0  0  0  0
   -0.8742   19.9027  -31.8206 H   0  0  0  0  0  0  0  0  0  0  0  0
    0.0373   21.9765  -30.0788 H   0  0  0  0  0  0  0  0  0  0  0  0
   -1.1020   26.4870  -28.2120 H   0  0  0  0  0  0  0  0  0  0  0  0
   -2.4410   26.0520  -29.3240 H   0  0  0  0  0  0  0  0  0  0  0  0
   -5.0543   22.7054  -31.9292 H   0  0  0  0  0  0  0  0  0  0  0  0
  1  2  1  0
  2  3  1  0
  2  4  1  0
  4  5  1  0
  5  6  1  0
  6  7  1  0
  7  8  2  0
  8  9  1  0
  9 10  2  0
 10 11  1  0
 11 12  2  0
 12 13  1  0
 13 14  1  0
 13 15  2  0
 12 16  1  0
 16 17  1  0
 17 18  2  0
 17 19  1  0
 16 20  1  0
 20 21  2  0
 21  7  1  0
 20 10  1  0
  1 22  1  0
  1 23  1  0
  1 24  1  0
  3 25  1  0
  3 26  1  0
  3 27  1  0
  4 28  1  0
  4 29  1  0
  5 30  1  0
  5 31  1  0
  6 32  1  0
  6 33  1  0
  8 34  1  0
  9 35  1  0
 11 36  1  0
 14 37  1  0
 14 38  1  0
 21 39  1  0
M  CHG  1  19  -1
M  END
>  <UniqueID>  (80) 
80

>  <SMILES>  (80) 
CN(C)CCCc1ccc2cc(C(N)=O)n(C(=O)[O-])c2c1

>  <Energy>  (80) 
74.68288909978368

>  <Genealogy>  (80) 
CN(C)CCCc1ccc2cc(C(N)=O)n(C(=O)[O-])c2c1 (protonated)
CN(C)CCCc1ccc2cc(C(N)=O)n(C(=O)[O-])c2c1 (3D coordinates assigned)
CN(C)CCCc1ccc2cc(C(N)=O)n(C(=O)[O-])c2c1 (optimized conformer: 74.68288909978368 kcal/mol)

>  <smiles>  (80) 
CN(C)CCCc1ccc2cc(C(N)=O)n(C(=O)O)c2c1

>  <score_type>  (80) 
oracle

>  <origin>  (80) 
adg

>  <m_score__min__energy>  (80) 
-8.6899999999999995

>  <m_primary>  (80) 
energy

$$$$
80:0
     RDKit          3D

 30 31  0  0  0  0  0  0  0  0999 V2000
   -4.2850   17.8480  -35.0060 N   0  0  0  0  0  0  0  0  0  0  0  0
   -5.6000   18.0020  -34.4700 C   0  0  0  0  0  0  0  0  0  0  0  0
   -6.5130   17.2160  -34.8370 O   0  0  0  0  0  0  0  0  0  0  0  0
   -5.9230   19.1070  -33.5460 C   0  0  0  0  0  0  0  0  0  0  0  0
   -7.2110   19.3650  -33.0830 C   0  0  0  0  0  0  0  0  0  0  0  0
   -7.0990   20.4990  -32.3120 C   0  0  0  0  0  0  0  0  0  0  0  0
   -8.0690   21.1880  -31.5920 C   0  0  0  0  0  0  0  0  0  0  0  0
   -7.6670   22.3080  -30.8470 C   0  0  0  0  0  0  0  0  0  0  0  0
   -6.3090   22.7140  -30.8320 C   0  0  0  0  0  0  0  0  0  0  0  0
   -5.8790   23.8890  -29.9910 C   0  0  0  0  0  0  0  0  0  0  0  0
   -4.4220   23.7560  -29.5310 C   0  0  0  0  0  0  0  0  0  0  0  0
   -3.5930   24.9220  -29.9760 C   0  0  0  0  0  0  0  0  0  0  0  0
   -3.9950   25.6650  -30.9080 O   0  0  0  0  0  0  0  0  0  0  0  0
   -2.3970   25.2120  -29.3310 O   0  0  0  0  0  0  0  0  0  0  0  0
   -5.3490   21.9840  -31.5690 C   0  0  0  0  0  0  0  0  0  0  0  0
   -5.7820   20.8840  -32.3190 C   0  0  0  0  0  0  0  0  0  0  0  0
   -5.0440   20.0350  -33.0710 N   0  0  0  0  0  0  0  0  0  0  0  0
   -3.6150   20.0370  -33.2250 C   0  0  0  0  0  0  0  0  0  0  0  0
   -2.9290   19.0540  -32.8400 O   0  0  0  0  0  0  0  0  0  0  0  0
   -2.9740   21.1240  -33.8080 O   0  0  0  0  0  0  0  0  0  0  0  0
   -4.0660   17.0400  -35.6300 H   0  0  0  0  0  0  0  0  0  0  0  0
   -3.5520   18.5750  -34.8530 H   0  0  0  0  0  0  0  0  0  0  0  0
   -8.1230   18.7858  -33.2896 H   0  0  0  0  0  0  0  0  0  0  0  0
   -9.1204   20.8649  -31.6058 H   0  0  0  0  0  0  0  0  0  0  0  0
   -8.4122   22.8753  -30.2700 H   0  0  0  0  0  0  0  0  0  0  0  0
   -5.9825   24.8091  -30.5849 H   0  0  0  0  0  0  0  0  0  0  0  0
   -6.5187   23.9223  -29.0967 H   0  0  0  0  0  0  0  0  0  0  0  0
   -4.3984   23.7000  -28.4327 H   0  0  0  0  0  0  0  0  0  0  0  0
   -4.0018   22.8443  -29.9807 H   0  0  0  0  0  0  0  0  0  0  0  0
   -4.2878   22.2730  -31.5537 H   0  0  0  0  0  0  0  0  0  0  0  0
  1  2  1  0
  2  3  2  0
  2  4  1  0
  4  5  2  0
  5  6  1  0
  6  7  2  0
  7  8  1  0
  8  9  2  0
  9 10  1  0
 10 11  1  0
 11 12  1  0
 12 13  2  0
 12 14  1  0
  9 15  1  0
 15 16  2  0
 16 17  1  0
 17 18  1  0
 18 19  2  0
 18 20  1  0
 17  4  1  0
 16  6  1  0
  1 21  1  0
  1 22  1  0
  5 23  1  0
  7 24  1  0
  8 25  1  0
 10 26  1  0
 10 27  1  0
 11 28  1  0
 11 29  1  0
 15 30  1  0
M  CHG  2  14  -1  20  -1
M  END
>  <UniqueID>  (81) 
81

>  <SMILES>  (81) 
NC(=O)c1cc2ccc(CCC(=O)[O-])cc2n1C(=O)[O-]

>  <Energy>  (81) 
66.95539724400228

>  <Genealogy>  (81) 
NC(=O)c1cc2ccc(CCC(=O)[O-])cc2n1C(=O)[O-] (protonated)
NC(=O)c1cc2ccc(CCC(=O)[O-])cc2n1C(=O)[O-] (3D coordinates assigned)
NC(=O)c1cc2ccc(CCC(=O)[O-])cc2n1C(=O)[O-] (optimized conformer: 66.95539724400228 kcal/mol)

>  <smiles>  (81) 
NC(=O)c1cc2ccc(CCC(=O)O)cc2n1C(=O)O

>  <score_type>  (81) 
oracle

>  <origin>  (81) 
adg

>  <m_score__min__energy>  (81) 
-9.7100000000000009

>  <m_primary>  (81) 
energy

$$$$
81:0
     RDKit          3D

 46 48  0  0  0  0  0  0  0  0999 V2000
   -6.5490   25.3520  -29.7000 C   0  0  0  0  0  0  0  0  0  0  0  0
   -6.2640   23.8610  -29.7210 C   0  0  0  0  0  0  0  0  0  0  0  0
   -4.9150   23.6200  -29.3310 O   0  0  0  0  0  0  0  0  0  0  0  0
   -3.8330   23.9530  -30.1500 C   0  0  0  0  0  0  0  0  0  0  0  0
   -3.8490   25.0250  -30.8160 O   0  0  0  0  0  0  0  0  0  0  0  0
   -2.7000   23.0770  -30.2390 N   0  0  0  0  0  0  0  0  0  0  0  0
   -1.4200   23.3350  -29.8450 C   0  0  0  0  0  0  0  0  0  0  0  0
   -0.9700   24.5100  -29.0690 C   0  0  0  0  0  0  0  0  0  0  0  0
   -1.7820   25.6770  -28.9670 N   0  0  0  0  0  0  0  0  0  0  0  0
    0.1260   24.4650  -28.4480 O   0  0  0  0  0  0  0  0  0  0  0  0
   -0.5750   22.2910  -30.2100 C   0  0  0  0  0  0  0  0  0  0  0  0
   -1.3840   21.3720  -30.8380 C   0  0  0  0  0  0  0  0  0  0  0  0
   -1.0580   20.1540  -31.4230 C   0  0  0  0  0  0  0  0  0  0  0  0
   -2.0870   19.4260  -32.0390 C   0  0  0  0  0  0  0  0  0  0  0  0
   -3.4160   19.9170  -32.0630 C   0  0  0  0  0  0  0  0  0  0  0  0
   -4.4340   19.1290  -32.7130 N   0  0  0  0  0  0  0  0  0  0  0  0
   -5.3900   19.6610  -33.6940 C   0  0  1  0  0  0  0  0  0  0  0  0
   -5.7770   18.5760  -34.7050 C   0  0  0  0  0  0  0  0  0  0  0  0
   -6.6340   20.1860  -33.0100 C   0  0  0  0  0  0  0  0  0  0  0  0
   -7.6290   19.2870  -32.5890 C   0  0  0  0  0  0  0  0  0  0  0  0
   -8.7710   19.7520  -31.9330 C   0  0  0  0  0  0  0  0  0  0  0  0
   -8.9270   21.1170  -31.6770 C   0  0  0  0  0  0  0  0  0  0  0  0
  -10.0380   21.5640  -31.0410 F   0  0  0  0  0  0  0  0  0  0  0  0
   -7.9320   22.0190  -32.0680 C   0  0  0  0  0  0  0  0  0  0  0  0
   -8.0730   23.3420  -31.8070 F   0  0  0  0  0  0  0  0  0  0  0  0
   -6.7850   21.5560  -32.7220 C   0  0  0  0  0  0  0  0  0  0  0  0
   -3.7090   21.1650  -31.4550 C   0  0  0  0  0  0  0  0  0  0  0  0
   -2.6630   21.8660  -30.8400 C   0  0  0  0  0  0  0  0  0  0  0  0
   -6.6151   25.6980  -28.6579 H   0  0  0  0  0  0  0  0  0  0  0  0
   -5.7370   25.8878  -30.2134 H   0  0  0  0  0  0  0  0  0  0  0  0
   -7.5014   25.5505  -30.2134 H   0  0  0  0  0  0  0  0  0  0  0  0
   -6.9426   23.3500  -29.0222 H   0  0  0  0  0  0  0  0  0  0  0  0
   -6.4209   23.4764  -30.7396 H   0  0  0  0  0  0  0  0  0  0  0  0
   -2.7680   25.6770  -29.3080 H   0  0  0  0  0  0  0  0  0  0  0  0
    0.5083   22.2165  -30.0340 H   0  0  0  0  0  0  0  0  0  0  0  0
   -0.0262   19.7731  -31.4036 H   0  0  0  0  0  0  0  0  0  0  0  0
   -1.8585   18.4589  -32.5107 H   0  0  0  0  0  0  0  0  0  0  0  0
   -4.5340   18.1320  -32.4150 H   0  0  0  0  0  0  0  0  0  0  0  0
   -4.9024   20.4930  -34.2231 H   0  0  0  0  0  0  0  0  0  0  0  0
   -6.0994   17.6721  -34.1674 H   0  0  0  0  0  0  0  0  0  0  0  0
   -6.6006   18.9403  -35.3366 H   0  0  0  0  0  0  0  0  0  0  0  0
   -4.9087   18.3369  -35.3366 H   0  0  0  0  0  0  0  0  0  0  0  0
   -7.5075   18.2101  -32.7774 H   0  0  0  0  0  0  0  0  0  0  0  0
   -9.5496   19.0421  -31.6171 H   0  0  0  0  0  0  0  0  0  0  0  0
   -5.9969   22.2662  -33.0128 H   0  0  0  0  0  0  0  0  0  0  0  0
   -4.7309   21.5718  -31.4661 H   0  0  0  0  0  0  0  0  0  0  0  0
  1  2  1  0
  2  3  1  0
  3  4  1  0
  4  5  2  0
  4  6  1  0
  6  7  1  0
  7  8  1  0
  8  9  1  0
  8 10  2  0
  7 11  2  0
 11 12  1  0
 12 13  2  0
 13 14  1  0
 14 15  2  0
 15 16  1  0
 16 17  1  0
 17 18  1  0
 17 19  1  0
 19 20  2  0
 20 21  1  0
 21 22  2  0
 22 23  1  0
 22 24  1  0
 24 25  1  0
 24 26  2  0
 15 27  1  0
 27 28  2  0
 28  6  1  0
 28 12  1  0
 26 19  1  0
  1 29  1  0
  1 30  1  0
  1 31  1  0
  2 32  1  0
  2 33  1  0
  9 34  1  0
 11 35  1  0
 13 36  1  0
 14 37  1  0
 16 38  1  0
 17 39  1  6
 18 40  1  0
 18 41  1  0
 18 42  1  0
 20 43  1  0
 21 44  1  0
 26 45  1  0
 27 46  1  0
M  CHG  1   9  -1
M  END
>  <UniqueID>  (82) 
82

>  <SMILES>  (82) 
CCOC(=O)n1c(C([NH-])=O)cc2ccc(N[C@@H](C)c3ccc(F)c(F)c3)cc21

>  <Energy>  (82) 
79.51455495616503

>  <Genealogy>  (82) 
CCOC(=O)n1c(C([NH-])=O)cc2ccc(NC(C)c3ccc(F)c(F)c3)cc21 (protonated)
CCOC(=O)n1c(C([NH-])=O)cc2ccc(N[C@@H](C)c3ccc(F)c(F)c3)cc21 (chirality)
CCOC(=O)n1c(C([NH-])=O)cc2ccc(N[C@@H](C)c3ccc(F)c(F)c3)cc21 (3D coordinates assigned)
CCOC(=O)n1c(C([NH-])=O)cc2ccc(N[C@@H](C)c3ccc(F)c(F)c3)cc21 (optimized conformer: 79.51455495616503 kcal/mol)

>  <smiles>  (82) 
CCOC(=O)n1c(C(N)=O)cc2ccc(NC(C)c3ccc(F)c(F)c3)cc21

>  <score_type>  (82) 
oracle

>  <origin>  (82) 
adg

>  <m_score__min__energy>  (82) 
-11.18

>  <m_primary>  (82) 
energy

$$$$
82:0
     RDKit          3D

 38 39  0  0  0  0  0  0  0  0999 V2000
   -3.2870   19.1270  -33.8390 C   0  0  0  0  0  0  0  0  0  0  0  0
   -4.0310   17.9150  -33.8480 O   0  0  0  0  0  0  0  0  0  0  0  0
   -5.2150   17.7630  -34.5770 C   0  0  0  0  0  0  0  0  0  0  0  0
   -5.2060   17.8300  -35.8360 O   0  0  0  0  0  0  0  0  0  0  0  0
   -6.5010   17.4800  -33.8560 C   0  0  1  0  0  0  0  0  0  0  0  0
   -6.7310   15.9670  -33.7970 C   0  0  0  0  0  0  0  0  0  0  0  0
   -6.4570   18.0470  -32.5020 N   0  0  0  0  0  0  0  0  0  0  0  0
   -6.7210   19.4310  -32.1950 C   0  0  0  0  0  0  0  0  0  0  0  0
   -8.0260   19.9880  -32.3010 C   0  0  0  0  0  0  0  0  0  0  0  0
   -8.2570   21.3390  -31.9910 C   0  0  0  0  0  0  0  0  0  0  0  0
   -7.1760   22.1110  -31.5820 C   0  0  0  0  0  0  0  0  0  0  0  0
   -7.1200   23.4360  -31.2110 C   0  0  0  0  0  0  0  0  0  0  0  0
   -5.7830   23.6750  -30.8970 C   0  0  0  0  0  0  0  0  0  0  0  0
   -5.2540   25.0040  -30.5290 C   0  0  0  0  0  0  0  0  0  0  0  0
   -3.8610   25.2750  -30.6630 N   0  0  0  0  0  0  0  0  0  0  0  0
   -6.0140   25.8950  -30.0680 O   0  0  0  0  0  0  0  0  0  0  0  0
   -5.0460   22.5390  -31.0590 N   0  0  0  0  0  0  0  0  0  0  0  0
   -3.6490   22.3430  -30.7900 C   0  0  0  0  0  0  0  0  0  0  0  0
   -3.1390   22.2750  -29.3860 C   0  0  0  0  0  0  0  0  0  0  0  0
   -2.8470   22.1640  -31.7460 O   0  0  0  0  0  0  0  0  0  0  0  0
   -5.9110   21.5960  -31.4840 C   0  0  0  0  0  0  0  0  0  0  0  0
   -5.6500   20.2530  -31.7740 C   0  0  0  0  0  0  0  0  0  0  0  0
   -3.0986   19.4339  -32.7996 H   0  0  0  0  0  0  0  0  0  0  0  0
   -2.3280   18.9724  -34.3552 H   0  0  0  0  0  0  0  0  0  0  0  0
   -3.8589   19.9121  -34.3552 H   0  0  0  0  0  0  0  0  0  0  0  0
   -7.3348   17.9480  -34.3998 H   0  0  0  0  0  0  0  0  0  0  0  0
   -6.7801   15.6443  -32.7466 H   0  0  0  0  0  0  0  0  0  0  0  0
   -7.6770   15.7200  -34.3010 H   0  0  0  0  0  0  0  0  0  0  0  0
   -5.9011   15.4500  -34.3010 H   0  0  0  0  0  0  0  0  0  0  0  0
   -6.2010   17.4150  -31.7080 H   0  0  0  0  0  0  0  0  0  0  0  0
   -8.8631   19.3542  -32.6291 H   0  0  0  0  0  0  0  0  0  0  0  0
   -9.2646   21.7732  -32.0698 H   0  0  0  0  0  0  0  0  0  0  0  0
   -7.9531   24.1532  -31.1709 H   0  0  0  0  0  0  0  0  0  0  0  0
   -3.5190   26.0320  -31.2960 H   0  0  0  0  0  0  0  0  0  0  0  0
   -3.9792   22.3870  -28.6849 H   0  0  0  0  0  0  0  0  0  0  0  0
   -2.6500   21.3037  -29.2201 H   0  0  0  0  0  0  0  0  0  0  0  0
   -2.4126   23.0842  -29.2201 H   0  0  0  0  0  0  0  0  0  0  0  0
   -4.6332   19.8447  -31.6767 H   0  0  0  0  0  0  0  0  0  0  0  0
  1  2  1  0
  2  3  1  0
  3  4  2  0
  3  5  1  0
  5  6  1  0
  5  7  1  0
  7  8  1  0
  8  9  2  0
  9 10  1  0
 10 11  2  0
 11 12  1  0
 12 13  2  0
 13 14  1  0
 14 15  1  0
 14 16  2  0
 13 17  1  0
 17 18  1  0
 18 19  1  0
 18 20  2  0
 17 21  1  0
 21 22  2  0
 22  8  1  0
 21 11  1  0
  1 23  1  0
  1 24  1  0
  1 25  1  0
  5 26  1  6
  6 27  1  0
  6 28  1  0
  6 29  1  0
  7 30  1  0
  9 31  1  0
 10 32  1  0
 12 33  1  0
 15 34  1  0
 19 35  1  0
 19 36  1  0
 19 37  1  0
 22 38  1  0
M  CHG  1  15  -1
M  END
>  <UniqueID>  (83) 
83

>  <SMILES>  (83) 
COC(=O)[C@@H](C)Nc1ccc2cc(C([NH-])=O)n(C(C)=O)c2c1

>  <Energy>  (83) 
71.57046252168347

>  <Genealogy>  (83) 
COC(=O)C(C)Nc1ccc2cc(C([NH-])=O)n(C(C)=O)c2c1 (protonated)
COC(=O)[C@@H](C)Nc1ccc2cc(C([NH-])=O)n(C(C)=O)c2c1 (chirality)
COC(=O)[C@@H](C)Nc1ccc2cc(C([NH-])=O)n(C(C)=O)c2c1 (3D coordinates assigned)
COC(=O)[C@@H](C)Nc1ccc2cc(C([NH-])=O)n(C(C)=O)c2c1 (optimized conformer: 71.57046252168347 kcal/mol)

>  <smiles>  (83) 
COC(=O)C(C)Nc1ccc2cc(C(N)=O)n(C(C)=O)c2c1

>  <score_type>  (83) 
oracle

>  <origin>  (83) 
adg

>  <m_score__min__energy>  (83) 
-10.25

>  <m_primary>  (83) 
energy

$$$$
83:0
     RDKit          3D

 31 32  0  0  0  0  0  0  0  0999 V2000
   -3.8760   23.3130  -28.0800 C   0  0  0  0  0  0  0  0  0  0  0  0
   -2.9130   22.5570  -28.9860 C   0  0  0  0  0  0  0  0  0  0  0  0
   -2.8750   23.1450  -30.2840 O   0  0  0  0  0  0  0  0  0  0  0  0
   -3.6820   22.7230  -31.3470 C   0  0  0  0  0  0  0  0  0  0  0  0
   -3.1640   22.2160  -32.3790 O   0  0  0  0  0  0  0  0  0  0  0  0
   -5.1070   22.8860  -31.2680 N   0  0  0  0  0  0  0  0  0  0  0  0
   -5.7990   24.0220  -30.9710 C   0  0  0  0  0  0  0  0  0  0  0  0
   -5.2180   25.2930  -30.4920 C   0  0  0  0  0  0  0  0  0  0  0  0
   -3.8870   25.6660  -30.8370 N   0  0  0  0  0  0  0  0  0  0  0  0
   -5.8880   26.0360  -29.7270 O   0  0  0  0  0  0  0  0  0  0  0  0
   -7.1700   23.8060  -31.1020 C   0  0  0  0  0  0  0  0  0  0  0  0
   -7.2980   22.4900  -31.4840 C   0  0  0  0  0  0  0  0  0  0  0  0
   -8.4380   21.7510  -31.7790 C   0  0  0  0  0  0  0  0  0  0  0  0
   -8.2730   20.4180  -32.1890 C   0  0  0  0  0  0  0  0  0  0  0  0
   -6.9780   19.8440  -32.2860 C   0  0  0  0  0  0  0  0  0  0  0  0
   -6.8110   18.4320  -32.7870 C   0  0  0  0  0  0  0  0  0  0  0  0
   -8.0030   17.7510  -32.6340 F   0  0  0  0  0  0  0  0  0  0  0  0
   -6.4580   18.4280  -34.1260 F   0  0  0  0  0  0  0  0  0  0  0  0
   -5.8210   17.7760  -32.0770 F   0  0  0  0  0  0  0  0  0  0  0  0
   -5.8420   20.6370  -32.0000 C   0  0  0  0  0  0  0  0  0  0  0  0
   -6.0380   21.9570  -31.5760 C   0  0  0  0  0  0  0  0  0  0  0  0
   -3.6226   23.1141  -27.0282 H   0  0  0  0  0  0  0  0  0  0  0  0
   -3.7959   24.3919  -28.2787 H   0  0  0  0  0  0  0  0  0  0  0  0
   -4.9051   22.9790  -28.2787 H   0  0  0  0  0  0  0  0  0  0  0  0
   -1.9051   22.5869  -28.5465 H   0  0  0  0  0  0  0  0  0  0  0  0
   -3.2583   21.5168  -29.0792 H   0  0  0  0  0  0  0  0  0  0  0  0
   -3.0700   25.3000  -30.3000 H   0  0  0  0  0  0  0  0  0  0  0  0
   -7.9783   24.5333  -30.9354 H   0  0  0  0  0  0  0  0  0  0  0  0
   -9.4398   22.1973  -31.6938 H   0  0  0  0  0  0  0  0  0  0  0  0
   -9.1567   19.8120  -32.4377 H   0  0  0  0  0  0  0  0  0  0  0  0
   -4.8275   20.2259  -32.1083 H   0  0  0  0  0  0  0  0  0  0  0  0
  1  2  1  0
  2  3  1  0
  3  4  1  0
  4  5  2  0
  4  6  1  0
  6  7  1  0
  7  8  1  0
  8  9  1  0
  8 10  2  0
  7 11  2  0
 11 12  1  0
 12 13  2  0
 13 14  1  0
 14 15  2  0
 15 16  1  0
 16 17  1  0
 16 18  1  0
 16 19  1  0
 15 20  1  0
 20 21  2  0
 21  6  1  0
 21 12  1  0
  1 22  1  0
  1 23  1  0
  1 24  1  0
  2 25  1  0
  2 26  1  0
  9 27  1  0
 11 28  1  0
 13 29  1  0
 14 30  1  0
 20 31  1  0
M  CHG  1   9  -1
M  END
>  <UniqueID>  (84) 
84

>  <SMILES>  (84) 
CCOC(=O)n1c(C([NH-])=O)cc2ccc(C(F)(F)F)cc21

>  <Energy>  (84) 
67.17308341838637

>  <Genealogy>  (84) 
CCOC(=O)n1c(C([NH-])=O)cc2ccc(C(F)(F)F)cc21 (protonated)
CCOC(=O)n1c(C([NH-])=O)cc2ccc(C(F)(F)F)cc21 (3D coordinates assigned)
CCOC(=O)n1c(C([NH-])=O)cc2ccc(C(F)(F)F)cc21 (optimized conformer: 67.17308341838637 kcal/mol)

>  <smiles>  (84) 
CCOC(=O)n1c(C(N)=O)cc2ccc(C(F)(F)F)cc21

>  <score_type>  (84) 
oracle

>  <origin>  (84) 
adg

>  <m_score__min__energy>  (84) 
-8.9399999999999995

>  <m_primary>  (84) 
energy

$$$$
84:0
     RDKit          3D

 27 28  0  0  0  0  0  0  0  0999 V2000
   -3.4770   22.1600  -29.2260 C   0  0  0  0  0  0  0  0  0  0  0  0
   -3.9150   22.2880  -30.6510 C   0  0  0  0  0  0  0  0  0  0  0  0
   -3.0710   22.1210  -31.5710 O   0  0  0  0  0  0  0  0  0  0  0  0
   -5.2760   22.6070  -30.9780 N   0  0  0  0  0  0  0  0  0  0  0  0
   -5.9020   23.8100  -30.8430 C   0  0  0  0  0  0  0  0  0  0  0  0
   -5.2620   25.0830  -30.4460 C   0  0  0  0  0  0  0  0  0  0  0  0
   -3.8610   25.2820  -30.6090 N   0  0  0  0  0  0  0  0  0  0  0  0
   -5.9690   26.0200  -29.9870 O   0  0  0  0  0  0  0  0  0  0  0  0
   -7.2480   23.7010  -31.1900 C   0  0  0  0  0  0  0  0  0  0  0  0
   -7.4270   22.3830  -31.5460 C   0  0  0  0  0  0  0  0  0  0  0  0
   -8.5780   21.7160  -31.9540 C   0  0  0  0  0  0  0  0  0  0  0  0
   -8.4810   20.3390  -32.2210 C   0  0  0  0  0  0  0  0  0  0  0  0
   -7.2450   19.6620  -32.0770 C   0  0  0  0  0  0  0  0  0  0  0  0
   -7.1650   18.1830  -32.3160 C   0  0  0  0  0  0  0  0  0  0  0  0
   -6.0820   17.8310  -33.8820 Br  0  0  0  0  0  0  0  0  0  0  0  0
   -6.1010   20.3710  -31.6460 C   0  0  0  0  0  0  0  0  0  0  0  0
   -6.2230   21.7440  -31.4070 C   0  0  0  0  0  0  0  0  0  0  0  0
   -4.3177   22.4057  -28.5605 H   0  0  0  0  0  0  0  0  0  0  0  0
   -3.1476   21.1280  -29.0349 H   0  0  0  0  0  0  0  0  0  0  0  0
   -2.6437   22.8522  -29.0349 H   0  0  0  0  0  0  0  0  0  0  0  0
   -3.4950   26.0450  -31.2210 H   0  0  0  0  0  0  0  0  0  0  0  0
   -8.0057   24.4983  -31.1812 H   0  0  0  0  0  0  0  0  0  0  0  0
   -9.5338   22.2493  -32.0642 H   0  0  0  0  0  0  0  0  0  0  0  0
   -9.3729   19.7824  -32.5446 H   0  0  0  0  0  0  0  0  0  0  0  0
   -6.7111   17.6954  -31.4407 H   0  0  0  0  0  0  0  0  0  0  0  0
   -8.1778   17.7853  -32.4773 H   0  0  0  0  0  0  0  0  0  0  0  0
   -5.1394   19.8566  -31.5022 H   0  0  0  0  0  0  0  0  0  0  0  0
  1  2  1  0
  2  3  2  0
  2  4  1  0
  4  5  1  0
  5  6  1  0
  6  7  1  0
  6  8  2  0
  5  9  2  0
  9 10  1  0
 10 11  2  0
 11 12  1  0
 12 13  2  0
 13 14  1  0
 14 15  1  0
 13 16  1  0
 16 17  2  0
 17  4  1  0
 17 10  1  0
  1 18  1  0
  1 19  1  0
  1 20  1  0
  7 21  1  0
  9 22  1  0
 11 23  1  0
 12 24  1  0
 14 25  1  0
 14 26  1  0
 16 27  1  0
M  CHG  1   7  -1
M  END
>  <UniqueID>  (85) 
85

>  <SMILES>  (85) 
CC(=O)n1c(C([NH-])=O)cc2ccc(CBr)cc21

>  <Energy>  (85) 
64.94982704998051

>  <Genealogy>  (85) 
CC(=O)n1c(C([NH-])=O)cc2ccc(CBr)cc21 (protonated)
CC(=O)n1c(C([NH-])=O)cc2ccc(CBr)cc21 (3D coordinates assigned)
CC(=O)n1c(C([NH-])=O)cc2ccc(CBr)cc21 (optimized conformer: 64.94982704998051 kcal/mol)

>  <smiles>  (85) 
CC(=O)n1c(C(N)=O)cc2ccc(CBr)cc21

>  <score_type>  (85) 
oracle

>  <origin>  (85) 
adg

>  <m_score__min__energy>  (85) 
-10.19

>  <m_primary>  (85) 
energy

$$$$
85:0
     RDKit          3D

 36 38  0  0  0  0  0  0  0  0999 V2000
   -2.1550   25.2950  -28.5030 N   0  0  0  0  0  0  0  0  0  0  0  0
   -1.4370   24.2310  -29.1290 C   0  0  0  0  0  0  0  0  0  0  0  0
   -0.1830   24.1830  -29.0180 O   0  0  0  0  0  0  0  0  0  0  0  0
   -2.1300   23.2270  -29.9590 C   0  0  0  0  0  0  0  0  0  0  0  0
   -1.6000   21.9720  -30.2430 C   0  0  0  0  0  0  0  0  0  0  0  0
   -2.5100   21.3760  -31.0870 C   0  0  0  0  0  0  0  0  0  0  0  0
   -2.4970   20.1120  -31.6620 C   0  0  0  0  0  0  0  0  0  0  0  0
   -3.5900   19.7370  -32.4600 C   0  0  0  0  0  0  0  0  0  0  0  0
   -4.6770   20.6290  -32.6730 C   0  0  0  0  0  0  0  0  0  0  0  0
   -5.9080   20.2300  -33.4790 C   0  0  0  0  0  0  0  0  0  0  0  0
   -7.1990   20.4970  -32.6820 C   0  0  0  0  0  0  0  0  0  0  0  0
   -7.4750   19.4000  -31.6250 C   0  0  0  0  0  0  0  0  0  0  0  0
   -6.7910   18.1770  -31.8560 O   0  0  0  0  0  0  0  0  0  0  0  0
   -6.8040   17.8430  -33.2270 C   0  0  0  0  0  0  0  0  0  0  0  0
   -5.8740   18.7770  -34.0200 C   0  0  0  0  0  0  0  0  0  0  0  0
   -4.6550   21.9020  -32.0530 C   0  0  0  0  0  0  0  0  0  0  0  0
   -3.5430   22.2560  -31.2800 C   0  0  0  0  0  0  0  0  0  0  0  0
   -3.3270   23.3990  -30.5890 N   0  0  0  0  0  0  0  0  0  0  0  0
   -4.2330   24.5060  -30.4460 C   0  0  0  0  0  0  0  0  0  0  0  0
   -3.8700   25.6730  -30.7480 O   0  0  0  0  0  0  0  0  0  0  0  0
   -5.5250   24.2980  -29.9780 O   0  0  0  0  0  0  0  0  0  0  0  0
   -1.6540   25.9760  -27.8900 H   0  0  0  0  0  0  0  0  0  0  0  0
   -3.1650   25.4580  -28.7090 H   0  0  0  0  0  0  0  0  0  0  0  0
   -0.6556   21.5469  -29.8723 H   0  0  0  0  0  0  0  0  0  0  0  0
   -1.6546   19.4241  -31.4971 H   0  0  0  0  0  0  0  0  0  0  0  0
   -3.6056   18.7408  -32.9262 H   0  0  0  0  0  0  0  0  0  0  0  0
   -5.8969   20.8726  -34.3717 H   0  0  0  0  0  0  0  0  0  0  0  0
   -7.1044   21.4659  -32.1698 H   0  0  0  0  0  0  0  0  0  0  0  0
   -8.0387   20.4983  -33.3925 H   0  0  0  0  0  0  0  0  0  0  0  0
   -7.1683   19.7852  -30.6413 H   0  0  0  0  0  0  0  0  0  0  0  0
   -8.5500   19.1737  -31.6809 H   0  0  0  0  0  0  0  0  0  0  0  0
   -6.4633   16.8043  -33.3494 H   0  0  0  0  0  0  0  0  0  0  0  0
   -7.8292   17.9545  -33.6097 H   0  0  0  0  0  0  0  0  0  0  0  0
   -4.8445   18.3961  -33.9494 H   0  0  0  0  0  0  0  0  0  0  0  0
   -6.2217   18.7956  -35.0634 H   0  0  0  0  0  0  0  0  0  0  0  0
   -5.4963   22.5998  -32.1766 H   0  0  0  0  0  0  0  0  0  0  0  0
  1  2  1  0
  2  3  2  0
  2  4  1  0
  4  5  2  0
  5  6  1  0
  6  7  2  0
  7  8  1  0
  8  9  2  0
  9 10  1  0
 10 11  1  0
 11 12  1  0
 12 13  1  0
 13 14  1  0
 14 15  1  0
  9 16  1  0
 16 17  2  0
 17 18  1  0
 18 19  1  0
 19 20  2  0
 19 21  1  0
 18  4  1  0
 17  6  1  0
 15 10  1  0
  1 22  1  0
  1 23  1  0
  5 24  1  0
  7 25  1  0
  8 26  1  0
 10 27  1  0
 11 28  1  0
 11 29  1  0
 12 30  1  0
 12 31  1  0
 14 32  1  0
 14 33  1  0
 15 34  1  0
 15 35  1  0
 16 36  1  0
M  CHG  1  21  -1
M  END
>  <UniqueID>  (86) 
86

>  <SMILES>  (86) 
NC(=O)c1cc2ccc(C3CCOCC3)cc2n1C(=O)[O-]

>  <Energy>  (86) 
87.71057079042356

>  <Genealogy>  (86) 
NC(=O)c1cc2ccc(C3CCOCC3)cc2n1C(=O)[O-] (protonated)
NC(=O)c1cc2ccc(C3CCOCC3)cc2n1C(=O)[O-] (3D coordinates assigned)
NC(=O)c1cc2ccc(C3CCOCC3)cc2n1C(=O)[O-] (nonaromatic ring conformer: 87.71057079042356 kcal/mol)

>  <smiles>  (86) 
NC(=O)c1cc2ccc(C3CCOCC3)cc2n1C(=O)O

>  <score_type>  (86) 
oracle

>  <origin>  (86) 
adg

>  <m_score__min__energy>  (86) 
-9.2100000000000009

>  <m_primary>  (86) 
energy

$$$$
86:0
     RDKit          3D

 48 49  0  0  0  0  0  0  0  0999 V2000
   -7.1730   23.7680  -31.4450 C   0  0  0  0  0  0  0  0  0  0  0  0
   -6.8650   23.0370  -30.1430 C   0  0  0  0  0  0  0  0  0  0  0  0
   -5.6300   23.4870  -29.5930 O   0  0  0  0  0  0  0  0  0  0  0  0
   -4.5410   23.8950  -30.3720 C   0  0  0  0  0  0  0  0  0  0  0  0
   -4.4580   25.0860  -30.7780 O   0  0  0  0  0  0  0  0  0  0  0  0
   -3.5040   22.9560  -30.6930 N   0  0  0  0  0  0  0  0  0  0  0  0
   -2.2000   22.9860  -30.2950 C   0  0  0  0  0  0  0  0  0  0  0  0
   -1.6160   23.9090  -29.3000 C   0  0  0  0  0  0  0  0  0  0  0  0
   -1.9250   25.3010  -29.3220 N   0  0  0  0  0  0  0  0  0  0  0  0
   -0.8720   23.4560  -28.3900 O   0  0  0  0  0  0  0  0  0  0  0  0
   -1.4820   21.9540  -30.8980 C   0  0  0  0  0  0  0  0  0  0  0  0
   -2.3950   21.2810  -31.6770 C   0  0  0  0  0  0  0  0  0  0  0  0
   -2.2230   20.1740  -32.5020 C   0  0  0  0  0  0  0  0  0  0  0  0
   -3.3380   19.7040  -33.2130 C   0  0  0  0  0  0  0  0  0  0  0  0
   -4.5950   20.3510  -33.0970 C   0  0  0  0  0  0  0  0  0  0  0  0
   -5.7880   19.8230  -33.8560 C   0  0  0  0  0  0  0  0  0  0  0  0
   -6.5920   18.7790  -33.0440 C   0  0  2  0  0  0  0  0  0  0  0  0
   -6.5320   17.4470  -33.7470 C   0  0  0  0  0  0  0  0  0  0  0  0
   -6.9920   16.4170  -33.1860 O   0  0  0  0  0  0  0  0  0  0  0  0
   -5.9480   17.3340  -35.0030 O   0  0  0  0  0  0  0  0  0  0  0  0
   -8.0520   19.2340  -32.7090 C   0  0  1  0  0  0  0  0  0  0  0  0
   -8.7570   18.3770  -31.6410 C   0  0  0  0  0  0  0  0  0  0  0  0
   -8.1680   20.7580  -32.4210 C   0  0  0  0  0  0  0  0  0  0  0  0
   -9.5310   21.2360  -31.9080 C   0  0  0  0  0  0  0  0  0  0  0  0
   -4.7290   21.4740  -32.2520 C   0  0  0  0  0  0  0  0  0  0  0  0
   -3.6060   21.9070  -31.5390 C   0  0  0  0  0  0  0  0  0  0  0  0
   -7.5910   24.7600  -31.2185 H   0  0  0  0  0  0  0  0  0  0  0  0
   -6.2475   23.8845  -32.0279 H   0  0  0  0  0  0  0  0  0  0  0  0
   -7.9028   23.1870  -32.0279 H   0  0  0  0  0  0  0  0  0  0  0  0
   -7.6728   23.2287  -29.4214 H   0  0  0  0  0  0  0  0  0  0  0  0
   -6.7876   21.9598  -30.3519 H   0  0  0  0  0  0  0  0  0  0  0  0
   -2.9150   25.6300  -29.3410 H   0  0  0  0  0  0  0  0  0  0  0  0
   -0.4127   21.7262  -30.7767 H   0  0  0  0  0  0  0  0  0  0  0  0
   -1.2433   19.6823  -32.5942 H   0  0  0  0  0  0  0  0  0  0  0  0
   -3.2361   18.8252  -33.8667 H   0  0  0  0  0  0  0  0  0  0  0  0
   -6.4510   20.6656  -34.1016 H   0  0  0  0  0  0  0  0  0  0  0  0
   -5.4139   19.3253  -34.7628 H   0  0  0  0  0  0  0  0  0  0  0  0
   -6.1177   18.6755  -32.0569 H   0  0  0  0  0  0  0  0  0  0  0  0
   -8.6114   19.0484  -33.6378 H   0  0  0  0  0  0  0  0  0  0  0  0
   -8.4680   18.7284  -30.6395 H   0  0  0  0  0  0  0  0  0  0  0  0
   -9.8469   18.4659  -31.7604 H   0  0  0  0  0  0  0  0  0  0  0  0
   -8.4597   17.3247  -31.7604 H   0  0  0  0  0  0  0  0  0  0  0  0
   -7.4124   21.0174  -31.6648 H   0  0  0  0  0  0  0  0  0  0  0  0
   -8.0201   21.2581  -33.3895 H   0  0  0  0  0  0  0  0  0  0  0  0
   -9.5295   21.2355  -30.8080 H   0  0  0  0  0  0  0  0  0  0  0  0
   -9.7236   22.2553  -32.2739 H   0  0  0  0  0  0  0  0  0  0  0  0
  -10.3181   20.5602  -32.2739 H   0  0  0  0  0  0  0  0  0  0  0  0
   -5.6927   21.9957  -32.1566 H   0  0  0  0  0  0  0  0  0  0  0  0
  1  2  1  0
  2  3  1  0
  3  4  1  0
  4  5  2  0
  4  6  1  0
  6  7  1  0
  7  8  1  0
  8  9  1  0
  8 10  2  0
  7 11  2  0
 11 12  1  0
 12 13  2  0
 13 14  1  0
 14 15  2  0
 15 16  1  0
 16 17  1  0
 17 18  1  0
 18 19  2  0
 18 20  1  0
 17 21  1  0
 21 22  1  0
 21 23  1  0
 23 24  1  0
 15 25  1  0
 25 26  2  0
 26  6  1  0
 26 12  1  0
  1 27  1  0
  1 28  1  0
  1 29  1  0
  2 30  1  0
  2 31  1  0
  9 32  1  0
 11 33  1  0
 13 34  1  0
 14 35  1  0
 16 36  1  0
 16 37  1  0
 17 38  1  1
 21 39  1  6
 22 40  1  0
 22 41  1  0
 22 42  1  0
 23 43  1  0
 23 44  1  0
 24 45  1  0
 24 46  1  0
 24 47  1  0
 25 48  1  0
M  CHG  2   9  -1  20  -1
M  END
>  <UniqueID>  (87) 
87

>  <SMILES>  (87) 
CCOC(=O)n1c(C([NH-])=O)cc2ccc(C[C@H](C(=O)[O-])[C@@H](C)CC)cc21

>  <Energy>  (87) 
80.86522251142826

>  <Genealogy>  (87) 
CCOC(=O)n1c(C([NH-])=O)cc2ccc(C[C@H](C(=O)[O-])[C@@H](C)CC)cc21 (protonated)
CCOC(=O)n1c(C([NH-])=O)cc2ccc(C[C@H](C(=O)[O-])[C@@H](C)CC)cc21 (3D coordinates assigned)
CCOC(=O)n1c(C([NH-])=O)cc2ccc(C[C@H](C(=O)[O-])[C@@H](C)CC)cc21 (optimized conformer: 80.86522251142826 kcal/mol)

>  <smiles>  (87) 
CCOC(=O)n1c(C(N)=O)cc2ccc(C[C@H](C(=O)O)[C@@H](C)CC)cc21

>  <score_type>  (87) 
oracle

>  <origin>  (87) 
adg

>  <m_score__min__energy>  (87) 
-10.869999999999999

>  <m_primary>  (87) 
energy

$$$$
87:0
     RDKit          3D

 41 43  0  0  0  0  0  0  0  0999 V2000
   -1.0230   20.5420  -32.2590 C   0  0  0  0  0  0  0  0  0  0  0  0
   -1.0700   21.1120  -33.6680 C   0  0  0  0  0  0  0  0  0  0  0  0
   -1.5140   20.1070  -34.5720 O   0  0  0  0  0  0  0  0  0  0  0  0
   -1.6150   18.7600  -34.2170 C   0  0  0  0  0  0  0  0  0  0  0  0
   -0.5780   18.1000  -33.9290 O   0  0  0  0  0  0  0  0  0  0  0  0
   -2.9030   18.1210  -34.1840 N   0  0  0  0  0  0  0  0  0  0  0  0
   -3.2340   16.8960  -34.6810 C   0  0  0  0  0  0  0  0  0  0  0  0
   -2.2900   15.8940  -35.2130 C   0  0  0  0  0  0  0  0  0  0  0  0
   -1.0950   16.2880  -35.8910 N   0  0  0  0  0  0  0  0  0  0  0  0
   -2.5120   14.6690  -35.0190 O   0  0  0  0  0  0  0  0  0  0  0  0
   -4.6050   16.6770  -34.5760 C   0  0  0  0  0  0  0  0  0  0  0  0
   -5.1090   17.8090  -33.9810 C   0  0  0  0  0  0  0  0  0  0  0  0
   -6.4200   18.1330  -33.6460 C   0  0  0  0  0  0  0  0  0  0  0  0
   -6.6600   19.3920  -33.0690 C   0  0  0  0  0  0  0  0  0  0  0  0
   -5.5980   20.3050  -32.8520 C   0  0  0  0  0  0  0  0  0  0  0  0
   -5.8680   21.6310  -32.2460 C   0  0  0  0  0  0  0  0  0  0  0  0
   -7.1750   22.1430  -32.2460 C   0  0  0  0  0  0  0  0  0  0  0  0
   -7.4480   23.3840  -31.6720 C   0  0  0  0  0  0  0  0  0  0  0  0
   -8.7160   23.8640  -31.6720 F   0  0  0  0  0  0  0  0  0  0  0  0
   -6.4220   24.1300  -31.0920 C   0  0  0  0  0  0  0  0  0  0  0  0
   -5.1010   23.6460  -31.0820 C   0  0  0  0  0  0  0  0  0  0  0  0
   -4.0230   24.4590  -30.4650 C   0  0  0  0  0  0  0  0  0  0  0  0
   -3.8610   25.6620  -30.8010 O   0  0  0  0  0  0  0  0  0  0  0  0
   -3.1770   23.9150  -29.5070 O   0  0  0  0  0  0  0  0  0  0  0  0
   -4.8280   22.3900  -31.6680 C   0  0  0  0  0  0  0  0  0  0  0  0
   -3.5550   21.9190  -31.7130 F   0  0  0  0  0  0  0  0  0  0  0  0
   -4.2780   19.9360  -33.2030 C   0  0  0  0  0  0  0  0  0  0  0  0
   -4.0630   18.6680  -33.7550 C   0  0  0  0  0  0  0  0  0  0  0  0
   -1.0906   21.3623  -31.5292 H   0  0  0  0  0  0  0  0  0  0  0  0
   -1.8673   19.8519  -32.1143 H   0  0  0  0  0  0  0  0  0  0  0  0
   -0.0771   19.9995  -32.1143 H   0  0  0  0  0  0  0  0  0  0  0  0
   -1.7658   21.9635  -33.6960 H   0  0  0  0  0  0  0  0  0  0  0  0
   -0.0648   21.4498  -33.9604 H   0  0  0  0  0  0  0  0  0  0  0  0
   -0.4580   15.5660  -36.2940 H   0  0  0  0  0  0  0  0  0  0  0  0
   -0.7980   17.2880  -35.9190 H   0  0  0  0  0  0  0  0  0  0  0  0
   -5.1654   15.7877  -34.9001 H   0  0  0  0  0  0  0  0  0  0  0  0
   -7.2430   17.4259  -33.8271 H   0  0  0  0  0  0  0  0  0  0  0  0
   -7.6844   19.6720  -32.7824 H   0  0  0  0  0  0  0  0  0  0  0  0
   -7.9895   21.5611  -32.7020 H   0  0  0  0  0  0  0  0  0  0  0  0
   -6.6479   25.1062  -30.6380 H   0  0  0  0  0  0  0  0  0  0  0  0
   -3.4394   20.6302  -33.0455 H   0  0  0  0  0  0  0  0  0  0  0  0
  1  2  1  0
  2  3  1  0
  3  4  1  0
  4  5  2  0
  4  6  1  0
  6  7  1  0
  7  8  1  0
  8  9  1  0
  8 10  2  0
  7 11  2  0
 11 12  1  0
 12 13  2  0
 13 14  1  0
 14 15  2  0
 15 16  1  0
 16 17  2  0
 17 18  1  0
 18 19  1  0
 18 20  2  0
 20 21  1  0
 21 22  1  0
 22 23  2  0
 22 24  1  0
 21 25  2  0
 25 26  1  0
 15 27  1  0
 27 28  2  0
 28  6  1  0
 28 12  1  0
 25 16  1  0
  1 29  1  0
  1 30  1  0
  1 31  1  0
  2 32  1  0
  2 33  1  0
  9 34  1  0
  9 35  1  0
 11 36  1  0
 13 37  1  0
 14 38  1  0
 17 39  1  0
 20 40  1  0
 27 41  1  0
M  CHG  1  24  -1
M  END
>  <UniqueID>  (88) 
88

>  <SMILES>  (88) 
CCOC(=O)n1c(C(N)=O)cc2ccc(-c3cc(F)cc(C(=O)[O-])c3F)cc21

>  <Energy>  (88) 
86.07668710219887

>  <Genealogy>  (88) 
CCOC(=O)n1c(C(N)=O)cc2ccc(-c3cc(F)cc(C(=O)[O-])c3F)cc21 (protonated)
CCOC(=O)n1c(C(N)=O)cc2ccc(-c3cc(F)cc(C(=O)[O-])c3F)cc21 (3D coordinates assigned)
CCOC(=O)n1c(C(N)=O)cc2ccc(-c3cc(F)cc(C(=O)[O-])c3F)cc21 (optimized conformer: 86.07668710219887 kcal/mol)

>  <smiles>  (88) 
CCOC(=O)n1c(C(N)=O)cc2ccc(-c3cc(F)cc(C(=O)O)c3F)cc21

>  <score_type>  (88) 
oracle

>  <origin>  (88) 
adg

>  <m_score__min__energy>  (88) 
-9.6799999999999997

>  <m_primary>  (88) 
energy

$$$$
88:0
     RDKit          3D

 33 34  0  0  0  0  0  0  0  0999 V2000
   -3.8700   23.3380  -28.0420 C   0  0  0  0  0  0  0  0  0  0  0  0
   -2.9540   22.5390  -28.9610 C   0  0  0  0  0  0  0  0  0  0  0  0
   -2.9110   23.1250  -30.2600 O   0  0  0  0  0  0  0  0  0  0  0  0
   -3.7020   22.6900  -31.3300 C   0  0  0  0  0  0  0  0  0  0  0  0
   -3.1690   22.1580  -32.3420 O   0  0  0  0  0  0  0  0  0  0  0  0
   -5.1250   22.8660  -31.2810 N   0  0  0  0  0  0  0  0  0  0  0  0
   -5.8150   24.0030  -30.9820 C   0  0  0  0  0  0  0  0  0  0  0  0
   -5.2330   25.2590  -30.4650 C   0  0  0  0  0  0  0  0  0  0  0  0
   -3.9210   25.6680  -30.8400 N   0  0  0  0  0  0  0  0  0  0  0  0
   -5.8850   25.9560  -29.6420 O   0  0  0  0  0  0  0  0  0  0  0  0
   -7.1830   23.8050  -31.1520 C   0  0  0  0  0  0  0  0  0  0  0  0
   -7.3140   22.4980  -31.5610 C   0  0  0  0  0  0  0  0  0  0  0  0
   -8.4560   21.7750  -31.8950 C   0  0  0  0  0  0  0  0  0  0  0  0
   -8.2930   20.4470  -32.3240 C   0  0  0  0  0  0  0  0  0  0  0  0
   -7.0010   19.8700  -32.4080 C   0  0  0  0  0  0  0  0  0  0  0  0
   -6.8360   18.4630  -32.9130 C   0  0  0  0  0  0  0  0  0  0  0  0
   -5.7320   18.4050  -33.9190 C   0  0  0  0  0  0  0  0  0  0  0  0
   -4.5400   18.2460  -33.5430 O   0  0  0  0  0  0  0  0  0  0  0  0
   -6.0110   18.5780  -35.2680 O   0  0  0  0  0  0  0  0  0  0  0  0
   -5.8640   20.6380  -32.0730 C   0  0  0  0  0  0  0  0  0  0  0  0
   -6.0580   21.9530  -31.6320 C   0  0  0  0  0  0  0  0  0  0  0  0
   -3.6191   23.1191  -26.9936 H   0  0  0  0  0  0  0  0  0  0  0  0
   -3.7357   24.4127  -28.2345 H   0  0  0  0  0  0  0  0  0  0  0  0
   -4.9165   23.0590  -28.2345 H   0  0  0  0  0  0  0  0  0  0  0  0
   -1.9391   22.5253  -28.5369 H   0  0  0  0  0  0  0  0  0  0  0  0
   -3.3445   21.5142  -29.0471 H   0  0  0  0  0  0  0  0  0  0  0  0
   -3.0790   25.2860  -30.3540 H   0  0  0  0  0  0  0  0  0  0  0  0
   -7.9877   24.5379  -30.9930 H   0  0  0  0  0  0  0  0  0  0  0  0
   -9.4553   22.2295  -31.8252 H   0  0  0  0  0  0  0  0  0  0  0  0
   -9.1756   19.8500  -32.5970 H   0  0  0  0  0  0  0  0  0  0  0  0
   -6.5949   17.7995  -32.0694 H   0  0  0  0  0  0  0  0  0  0  0  0
   -7.7736   18.1385  -33.3880 H   0  0  0  0  0  0  0  0  0  0  0  0
   -4.8523   20.2143  -32.1563 H   0  0  0  0  0  0  0  0  0  0  0  0
  1  2  1  0
  2  3  1  0
  3  4  1  0
  4  5  2  0
  4  6  1  0
  6  7  1  0
  7  8  1  0
  8  9  1  0
  8 10  2  0
  7 11  2  0
 11 12  1  0
 12 13  2  0
 13 14  1  0
 14 15  2  0
 15 16  1  0
 16 17  1  0
 17 18  2  0
 17 19  1  0
 15 20  1  0
 20 21  2  0
 21  6  1  0
 21 12  1  0
  1 22  1  0
  1 23  1  0
  1 24  1  0
  2 25  1  0
  2 26  1  0
  9 27  1  0
 11 28  1  0
 13 29  1  0
 14 30  1  0
 16 31  1  0
 16 32  1  0
 20 33  1  0
M  CHG  2   9  -1  19  -1
M  END
>  <UniqueID>  (89) 
89

>  <SMILES>  (89) 
CCOC(=O)n1c(C([NH-])=O)cc2ccc(CC(=O)[O-])cc21

>  <Energy>  (89) 
66.78814839812931

>  <Genealogy>  (89) 
CCOC(=O)n1c(C([NH-])=O)cc2ccc(CC(=O)[O-])cc21 (protonated)
CCOC(=O)n1c(C([NH-])=O)cc2ccc(CC(=O)[O-])cc21 (3D coordinates assigned)
CCOC(=O)n1c(C([NH-])=O)cc2ccc(CC(=O)[O-])cc21 (optimized conformer: 66.78814839812931 kcal/mol)

>  <smiles>  (89) 
CCOC(=O)n1c(C(N)=O)cc2ccc(CC(=O)O)cc21

>  <score_type>  (89) 
oracle

>  <origin>  (89) 
adg

>  <m_score__min__energy>  (89) 
-9.6999999999999993

>  <m_primary>  (89) 
energy

$$$$
89:0
     RDKit          3D

 37 39  0  0  0  0  0  0  0  0999 V2000
   -1.7530   25.6710  -28.9610 N   0  0  0  0  0  0  0  0  0  0  0  0
   -1.3900   24.3000  -28.8170 C   0  0  0  0  0  0  0  0  0  0  0  0
   -0.5840   23.9670  -27.9070 O   0  0  0  0  0  0  0  0  0  0  0  0
   -1.8980   23.2770  -29.7530 C   0  0  0  0  0  0  0  0  0  0  0  0
   -1.1980   22.1130  -30.0690 C   0  0  0  0  0  0  0  0  0  0  0  0
   -1.9550   21.4800  -31.0270 C   0  0  0  0  0  0  0  0  0  0  0  0
   -1.7390   20.2700  -31.6820 C   0  0  0  0  0  0  0  0  0  0  0  0
   -2.7090   19.8370  -32.6000 C   0  0  0  0  0  0  0  0  0  0  0  0
   -3.8690   20.6150  -32.8470 C   0  0  0  0  0  0  0  0  0  0  0  0
   -4.9270   20.1120  -33.7890 C   0  0  0  0  0  0  0  0  0  0  0  0
   -6.0800   19.5350  -33.0140 C   0  0  0  0  0  0  0  0  0  0  0  0
   -6.0730   18.1900  -32.6200 C   0  0  0  0  0  0  0  0  0  0  0  0
   -7.1340   17.6680  -31.9530 N   0  0  0  0  0  0  0  0  0  0  0  0
   -8.2310   18.4140  -31.6540 C   0  0  0  0  0  0  0  0  0  0  0  0
   -8.2980   19.7580  -32.0360 C   0  0  0  0  0  0  0  0  0  0  0  0
   -9.4550   20.4860  -31.7140 O   0  0  0  0  0  0  0  0  0  0  0  0
   -9.4730   21.8220  -31.2160 C   0  0  0  0  0  0  0  0  0  0  0  0
   -9.6150   22.7190  -32.2590 F   0  0  0  0  0  0  0  0  0  0  0  0
   -8.3070   22.0870  -30.5210 F   0  0  0  0  0  0  0  0  0  0  0  0
  -10.5460   21.9650  -30.3570 F   0  0  0  0  0  0  0  0  0  0  0  0
   -7.2080   20.3170  -32.7260 C   0  0  0  0  0  0  0  0  0  0  0  0
   -4.0590   21.8310  -32.1540 C   0  0  0  0  0  0  0  0  0  0  0  0
   -3.0670   22.2480  -31.2590 C   0  0  0  0  0  0  0  0  0  0  0  0
   -3.0500   23.3530  -30.4810 N   0  0  0  0  0  0  0  0  0  0  0  0
   -4.0870   24.3430  -30.3880 C   0  0  0  0  0  0  0  0  0  0  0  0
   -3.8760   25.5240  -30.7710 O   0  0  0  0  0  0  0  0  0  0  0  0
   -5.3250   24.0130  -29.8490 O   0  0  0  0  0  0  0  0  0  0  0  0
   -2.7550   25.9630  -28.9560 H   0  0  0  0  0  0  0  0  0  0  0  0
   -0.2427   21.7731  -29.6424 H   0  0  0  0  0  0  0  0  0  0  0  0
   -0.8366   19.6723  -31.4862 H   0  0  0  0  0  0  0  0  0  0  0  0
   -2.5680   18.8851  -33.1329 H   0  0  0  0  0  0  0  0  0  0  0  0
   -5.2872   20.9457  -34.4096 H   0  0  0  0  0  0  0  0  0  0  0  0
   -4.4954   19.3276  -34.4281 H   0  0  0  0  0  0  0  0  0  0  0  0
   -5.2050   17.5553  -32.8519 H   0  0  0  0  0  0  0  0  0  0  0  0
   -9.0704   17.9580  -31.1087 H   0  0  0  0  0  0  0  0  0  0  0  0
   -7.2400   21.3705  -33.0408 H   0  0  0  0  0  0  0  0  0  0  0  0
   -4.9642   22.4353  -32.3137 H   0  0  0  0  0  0  0  0  0  0  0  0
  1  2  1  0
  2  3  2  0
  2  4  1  0
  4  5  2  0
  5  6  1  0
  6  7  2  0
  7  8  1  0
  8  9  2  0
  9 10  1  0
 10 11  1  0
 11 12  2  0
 12 13  1  0
 13 14  2  0
 14 15  1  0
 15 16  1  0
 16 17  1  0
 17 18  1  0
 17 19  1  0
 17 20  1  0
 15 21  2  0
  9 22  1  0
 22 23  2  0
 23 24  1  0
 24 25  1  0
 25 26  2  0
 25 27  1  0
 24  4  1  0
 23  6  1  0
 21 11  1  0
  1 28  1  0
  5 29  1  0
  7 30  1  0
  8 31  1  0
 10 32  1  0
 10 33  1  0
 12 34  1  0
 14 35  1  0
 21 36  1  0
 22 37  1  0
M  CHG  2   1  -1  27  -1
M  END
>  <UniqueID>  (90) 
90

>  <SMILES>  (90) 
[NH-]C(=O)c1cc2ccc(Cc3cncc(OC(F)(F)F)c3)cc2n1C(=O)[O-]

>  <Energy>  (90) 
78.88132974758679

>  <Genealogy>  (90) 
[NH-]C(=O)c1cc2ccc(Cc3cncc(OC(F)(F)F)c3)cc2n1C(=O)[O-] (protonated)
[NH-]C(=O)c1cc2ccc(Cc3cncc(OC(F)(F)F)c3)cc2n1C(=O)[O-] (3D coordinates assigned)
[NH-]C(=O)c1cc2ccc(Cc3cncc(OC(F)(F)F)c3)cc2n1C(=O)[O-] (optimized conformer: 78.88132974758679 kcal/mol)

>  <smiles>  (90) 
NC(=O)c1cc2ccc(Cc3cncc(OC(F)(F)F)c3)cc2n1C(=O)O

>  <score_type>  (90) 
oracle

>  <origin>  (90) 
adg

>  <m_score__min__energy>  (90) 
-11.800000000000001

>  <m_primary>  (90) 
energy

$$$$
90:0
     RDKit          3D

 23 24  0  0  0  0  0  0  0  0999 V2000
   -3.8990   25.3160  -30.6580 N   0  0  0  0  0  0  0  0  0  0  0  0
   -5.3080   25.2190  -30.4660 C   0  0  0  0  0  0  0  0  0  0  0  0
   -5.9260   26.1800  -29.9350 O   0  0  0  0  0  0  0  0  0  0  0  0
   -6.0150   23.9760  -30.8350 C   0  0  0  0  0  0  0  0  0  0  0  0
   -7.3850   23.7980  -30.6510 C   0  0  0  0  0  0  0  0  0  0  0  0
   -7.6730   22.5740  -31.2100 C   0  0  0  0  0  0  0  0  0  0  0  0
   -8.8850   21.8980  -31.3100 C   0  0  0  0  0  0  0  0  0  0  0  0
   -8.8860   20.6360  -31.9300 C   0  0  0  0  0  0  0  0  0  0  0  0
   -7.6840   20.0800  -32.4290 C   0  0  0  0  0  0  0  0  0  0  0  0
   -7.6970   18.7920  -33.0530 N   0  0  0  0  0  0  0  0  0  0  0  0
   -6.4730   20.7940  -32.3120 C   0  0  0  0  0  0  0  0  0  0  0  0
   -6.5030   22.0520  -31.6990 C   0  0  0  0  0  0  0  0  0  0  0  0
   -5.4730   22.8960  -31.4690 N   0  0  0  0  0  0  0  0  0  0  0  0
   -4.0930   22.6320  -31.7750 C   0  0  0  0  0  0  0  0  0  0  0  0
   -3.7460   22.2380  -32.9200 O   0  0  0  0  0  0  0  0  0  0  0  0
   -3.4910   26.0500  -31.2790 H   0  0  0  0  0  0  0  0  0  0  0  0
   -8.0873   24.4895  -30.1624 H   0  0  0  0  0  0  0  0  0  0  0  0
   -9.8135   22.3372  -30.9163 H   0  0  0  0  0  0  0  0  0  0  0  0
   -9.8281   20.0767  -32.0279 H   0  0  0  0  0  0  0  0  0  0  0  0
   -7.6200   17.9210  -32.4820 H   0  0  0  0  0  0  0  0  0  0  0  0
   -7.7850   18.7020  -34.0900 H   0  0  0  0  0  0  0  0  0  0  0  0
   -5.5304   20.3734  -32.6923 H   0  0  0  0  0  0  0  0  0  0  0  0
   -3.3286   22.7763  -30.9972 H   0  0  0  0  0  0  0  0  0  0  0  0
  1  2  1  0
  2  3  2  0
  2  4  1  0
  4  5  2  0
  5  6  1  0
  6  7  2  0
  7  8  1  0
  8  9  2  0
  9 10  1  0
  9 11  1  0
 11 12  2  0
 12 13  1  0
 13 14  1  0
 14 15  2  0
 13  4  1  0
 12  6  1  0
  1 16  1  0
  5 17  1  0
  7 18  1  0
  8 19  1  0
 10 20  1  0
 10 21  1  0
 11 22  1  0
 14 23  1  0
M  CHG  1   1  -1
M  END
>  <UniqueID>  (91) 
91

>  <SMILES>  (91) 
[NH-]C(=O)c1cc2ccc(N)cc2n1C=O

>  <Energy>  (91) 
60.965091780875866

>  <Genealogy>  (91) 
[NH-]C(=O)c1cc2ccc(N)cc2n1C=O (protonated)
[NH-]C(=O)c1cc2ccc(N)cc2n1C=O (3D coordinates assigned)
[NH-]C(=O)c1cc2ccc(N)cc2n1C=O (optimized conformer: 60.965091780875866 kcal/mol)

>  <smiles>  (91) 
NC(=O)c1cc2ccc(N)cc2n1C=O

>  <score_type>  (91) 
oracle

>  <origin>  (91) 
adg

>  <m_score__min__energy>  (91) 
-8.7300000000000004

>  <m_primary>  (91) 
energy

$$$$
91:0
     RDKit          3D

 36 37  0  0  0  0  0  0  0  0999 V2000
   -3.7840   22.9810  -28.4020 C   0  0  0  0  0  0  0  0  0  0  0  0
   -2.6940   22.5270  -29.3850 C   0  0  0  0  0  0  0  0  0  0  0  0
   -1.3200   22.9650  -28.8440 C   0  0  0  0  0  0  0  0  0  0  0  0
   -2.7600   20.9940  -29.5260 C   0  0  0  0  0  0  0  0  0  0  0  0
   -2.9680   23.1640  -30.6420 O   0  0  0  0  0  0  0  0  0  0  0  0
   -3.8930   22.7380  -31.6070 C   0  0  0  0  0  0  0  0  0  0  0  0
   -3.5080   22.1890  -32.6750 O   0  0  0  0  0  0  0  0  0  0  0  0
   -5.2950   22.9540  -31.3840 N   0  0  0  0  0  0  0  0  0  0  0  0
   -5.9000   24.0930  -30.9390 C   0  0  0  0  0  0  0  0  0  0  0  0
   -5.2150   25.2930  -30.4190 C   0  0  0  0  0  0  0  0  0  0  0  0
   -3.8980   25.6290  -30.8470 N   0  0  0  0  0  0  0  0  0  0  0  0
   -5.7800   26.0050  -29.5460 O   0  0  0  0  0  0  0  0  0  0  0  0
   -7.2860   23.9500  -30.9620 C   0  0  0  0  0  0  0  0  0  0  0  0
   -7.5150   22.6780  -31.4320 C   0  0  0  0  0  0  0  0  0  0  0  0
   -8.7150   22.0130  -31.6690 C   0  0  0  0  0  0  0  0  0  0  0  0
   -8.6540   20.7100  -32.1900 C   0  0  0  0  0  0  0  0  0  0  0  0
   -7.4060   20.1040  -32.4700 C   0  0  0  0  0  0  0  0  0  0  0  0
   -7.3580   18.7820  -33.0120 N   0  0  0  0  0  0  0  0  0  0  0  0
   -6.2080   20.8070  -32.2180 C   0  0  0  0  0  0  0  0  0  0  0  0
   -6.2970   22.0970  -31.6810 C   0  0  0  0  0  0  0  0  0  0  0  0
   -3.4316   22.8342  -27.3704 H   0  0  0  0  0  0  0  0  0  0  0  0
   -4.0051   24.0460  -28.5659 H   0  0  0  0  0  0  0  0  0  0  0  0
   -4.6957   22.3878  -28.5659 H   0  0  0  0  0  0  0  0  0  0  0  0
   -1.3400   22.9586  -27.7442 H   0  0  0  0  0  0  0  0  0  0  0  0
   -0.5466   22.2689  -29.2007 H   0  0  0  0  0  0  0  0  0  0  0  0
   -1.0922   23.9803  -29.2007 H   0  0  0  0  0  0  0  0  0  0  0  0
   -2.7798   20.5344  -28.5268 H   0  0  0  0  0  0  0  0  0  0  0  0
   -3.6710   20.7152  -30.0759 H   0  0  0  0  0  0  0  0  0  0  0  0
   -1.8764   20.6380  -30.0759 H   0  0  0  0  0  0  0  0  0  0  0  0
   -3.0600   25.2990  -30.3180 H   0  0  0  0  0  0  0  0  0  0  0  0
   -8.0379   24.6966  -30.6667 H   0  0  0  0  0  0  0  0  0  0  0  0
   -9.6812   22.4933  -31.4548 H   0  0  0  0  0  0  0  0  0  0  0  0
   -9.5845   20.1556  -32.3821 H   0  0  0  0  0  0  0  0  0  0  0  0
   -6.7220   18.0600  -32.6050 H   0  0  0  0  0  0  0  0  0  0  0  0
   -7.9580   18.5160  -33.8230 H   0  0  0  0  0  0  0  0  0  0  0  0
   -5.2303   20.3532  -32.4377 H   0  0  0  0  0  0  0  0  0  0  0  0
  1  2  1  0
  2  3  1  0
  2  4  1  0
  2  5  1  0
  5  6  1  0
  6  7  2  0
  6  8  1  0
  8  9  1  0
  9 10  1  0
 10 11  1  0
 10 12  2  0
  9 13  2  0
 13 14  1  0
 14 15  2  0
 15 16  1  0
 16 17  2  0
 17 18  1  0
 17 19  1  0
 19 20  2  0
 20  8  1  0
 20 14  1  0
  1 21  1  0
  1 22  1  0
  1 23  1  0
  3 24  1  0
  3 25  1  0
  3 26  1  0
  4 27  1  0
  4 28  1  0
  4 29  1  0
 11 30  1  0
 13 31  1  0
 15 32  1  0
 16 33  1  0
 18 34  1  0
 18 35  1  0
 19 36  1  0
M  CHG  1  11  -1
M  END
>  <UniqueID>  (92) 
92

>  <SMILES>  (92) 
CC(C)(C)OC(=O)n1c(C([NH-])=O)cc2ccc(N)cc21

>  <Energy>  (92) 
69.42267151147622

>  <Genealogy>  (92) 
CC(C)(C)OC(=O)n1c(C([NH-])=O)cc2ccc(N)cc21 (protonated)
CC(C)(C)OC(=O)n1c(C([NH-])=O)cc2ccc(N)cc21 (3D coordinates assigned)
CC(C)(C)OC(=O)n1c(C([NH-])=O)cc2ccc(N)cc21 (optimized conformer: 69.42267151147622 kcal/mol)

>  <smiles>  (92) 
CC(C)(C)OC(=O)n1c(C(N)=O)cc2ccc(N)cc21

>  <score_type>  (92) 
oracle

>  <origin>  (92) 
adg

>  <m_score__min__energy>  (92) 
-9.1300000000000008

>  <m_primary>  (92) 
energy

$$$$
92:0
     RDKit          3D

 47 48  0  0  0  0  0  0  0  0999 V2000
   -3.2800   19.9560  -32.5620 C   0  0  0  0  0  0  0  0  0  0  0  0
   -2.8920   21.2210  -33.3090 C   0  0  0  0  0  0  0  0  0  0  0  0
   -3.8450   22.2440  -33.0400 O   0  0  0  0  0  0  0  0  0  0  0  0
   -4.1400   22.6790  -31.7440 C   0  0  0  0  0  0  0  0  0  0  0  0
   -3.2280   22.7580  -30.8760 O   0  0  0  0  0  0  0  0  0  0  0  0
   -5.4920   23.0160  -31.3960 N   0  0  0  0  0  0  0  0  0  0  0  0
   -5.9580   24.2090  -30.9320 C   0  0  0  0  0  0  0  0  0  0  0  0
   -5.1320   25.3620  -30.5170 C   0  0  0  0  0  0  0  0  0  0  0  0
   -3.7110   25.2640  -30.4610 N   0  0  0  0  0  0  0  0  0  0  0  0
   -5.6900   26.4340  -30.1600 O   0  0  0  0  0  0  0  0  0  0  0  0
   -7.3470   24.1820  -30.8210 C   0  0  0  0  0  0  0  0  0  0  0  0
   -7.7200   22.9230  -31.2290 C   0  0  0  0  0  0  0  0  0  0  0  0
   -8.9850   22.3580  -31.3420 C   0  0  0  0  0  0  0  0  0  0  0  0
   -9.0790   21.0470  -31.8350 C   0  0  0  0  0  0  0  0  0  0  0  0
   -7.9190   20.3200  -32.2060 C   0  0  0  0  0  0  0  0  0  0  0  0
   -8.0780   18.9860  -32.7310 N   0  0  0  0  0  0  0  0  0  0  0  0
   -7.7420   17.7470  -32.0260 C   0  0  0  0  0  0  0  0  0  0  0  0
   -6.3580   17.2350  -32.4440 C   0  0  0  0  0  0  0  0  0  0  0  0
   -6.3520   16.6950  -33.8920 C   0  0  0  0  0  0  0  0  0  0  0  0
   -5.5300   17.4860  -34.8340 N   0  0  0  0  0  0  0  0  0  0  0  0
   -4.1110   17.0980  -34.8240 C   0  0  0  0  0  0  0  0  0  0  0  0
   -5.6860   18.9380  -34.6570 C   0  0  0  0  0  0  0  0  0  0  0  0
   -6.6480   20.9350  -32.0790 C   0  0  0  0  0  0  0  0  0  0  0  0
   -6.5830   22.2380  -31.5700 C   0  0  0  0  0  0  0  0  0  0  0  0
   -3.2241   20.1382  -31.4786 H   0  0  0  0  0  0  0  0  0  0  0  0
   -4.3070   19.6704  -32.8333 H   0  0  0  0  0  0  0  0  0  0  0  0
   -2.5897   19.1436  -32.8333 H   0  0  0  0  0  0  0  0  0  0  0  0
   -1.8965   21.5514  -32.9777 H   0  0  0  0  0  0  0  0  0  0  0  0
   -2.8703   21.0159  -34.3895 H   0  0  0  0  0  0  0  0  0  0  0  0
   -3.1130   25.6740  -31.2120 H   0  0  0  0  0  0  0  0  0  0  0  0
   -8.0049   24.9948  -30.4797 H   0  0  0  0  0  0  0  0  0  0  0  0
   -9.8850   22.9210  -31.0539 H   0  0  0  0  0  0  0  0  0  0  0  0
  -10.0680   20.5760  -31.9352 H   0  0  0  0  0  0  0  0  0  0  0  0
   -8.4660   18.8800  -33.6960 H   0  0  0  0  0  0  0  0  0  0  0  0
   -7.7429   17.9379  -30.9427 H   0  0  0  0  0  0  0  0  0  0  0  0
   -8.4907   16.9833  -32.2832 H   0  0  0  0  0  0  0  0  0  0  0  0
   -5.6366   18.0622  -32.3707 H   0  0  0  0  0  0  0  0  0  0  0  0
   -6.0853   16.4076  -31.7723 H   0  0  0  0  0  0  0  0  0  0  0  0
   -5.9620   15.6666  -33.8744 H   0  0  0  0  0  0  0  0  0  0  0  0
   -7.3891   16.7532  -34.2539 H   0  0  0  0  0  0  0  0  0  0  0  0
   -3.7641   17.0032  -33.7844 H   0  0  0  0  0  0  0  0  0  0  0  0
   -3.9908   16.1340  -35.3400 H   0  0  0  0  0  0  0  0  0  0  0  0
   -3.5170   17.8667  -35.3400 H   0  0  0  0  0  0  0  0  0  0  0  0
   -5.7116   19.1758  -33.5833 H   0  0  0  0  0  0  0  0  0  0  0  0
   -4.8385   19.4579  -35.1277 H   0  0  0  0  0  0  0  0  0  0  0  0
   -6.6246   19.2660  -35.1277 H   0  0  0  0  0  0  0  0  0  0  0  0
   -5.7329   20.4004  -32.3738 H   0  0  0  0  0  0  0  0  0  0  0  0
  1  2  1  0
  2  3  1  0
  3  4  1  0
  4  5  2  0
  4  6  1  0
  6  7  1  0
  7  8  1  0
  8  9  1  0
  8 10  2  0
  7 11  2  0
 11 12  1  0
 12 13  2  0
 13 14  1  0
 14 15  2  0
 15 16  1  0
 16 17  1  0
 17 18  1  0
 18 19  1  0
 19 20  1  0
 20 21  1  0
 20 22  1  0
 15 23  1  0
 23 24  2  0
 24  6  1  0
 24 12  1  0
  1 25  1  0
  1 26  1  0
  1 27  1  0
  2 28  1  0
  2 29  1  0
  9 30  1  0
 11 31  1  0
 13 32  1  0
 14 33  1  0
 16 34  1  0
 17 35  1  0
 17 36  1  0
 18 37  1  0
 18 38  1  0
 19 39  1  0
 19 40  1  0
 21 41  1  0
 21 42  1  0
 21 43  1  0
 22 44  1  0
 22 45  1  0
 22 46  1  0
 23 47  1  0
M  CHG  1   9  -1
M  END
>  <UniqueID>  (93) 
93

>  <SMILES>  (93) 
CCOC(=O)n1c(C([NH-])=O)cc2ccc(NCCCN(C)C)cc21

>  <Energy>  (93) 
81.09338472014751

>  <Genealogy>  (93) 
CCOC(=O)n1c(C([NH-])=O)cc2ccc(NCCCN(C)C)cc21 (protonated)
CCOC(=O)n1c(C([NH-])=O)cc2ccc(NCCCN(C)C)cc21 (3D coordinates assigned)
CCOC(=O)n1c(C([NH-])=O)cc2ccc(NCCCN(C)C)cc21 (optimized conformer: 81.09338472014751 kcal/mol)

>  <smiles>  (93) 
CCOC(=O)n1c(C(N)=O)cc2ccc(NCCCN(C)C)cc21

>  <score_type>  (93) 
oracle

>  <origin>  (93) 
adg

>  <m_score__min__energy>  (93) 
-10.31

>  <m_primary>  (93) 
energy

$$$$
93:0
     RDKit          3D

 46 47  0  0  0  0  0  0  0  0999 V2000
   -2.9570   19.3700  -32.5490 C   0  0  0  0  0  0  0  0  0  0  0  0
   -3.6960   19.2890  -33.8930 C   0  0  0  0  0  0  0  0  0  0  0  0
   -4.8500   18.3550  -33.8980 N   0  0  0  0  0  0  0  0  0  0  0  0
   -4.8490   17.4050  -35.0350 C   0  0  0  0  0  0  0  0  0  0  0  0
   -4.2240   16.0640  -34.6520 C   0  0  0  0  0  0  0  0  0  0  0  0
   -5.0100   17.6550  -32.6030 C   0  0  0  0  0  0  0  0  0  0  0  0
   -6.4980   17.3940  -32.3220 C   0  0  0  0  0  0  0  0  0  0  0  0
   -7.4160   18.3550  -33.0910 C   0  0  0  0  0  0  0  0  0  0  0  0
   -7.5350   19.6890  -32.4010 C   0  0  0  0  0  0  0  0  0  0  0  0
   -8.7390   20.0420  -31.7420 C   0  0  0  0  0  0  0  0  0  0  0  0
   -8.8480   21.2610  -31.0530 C   0  0  0  0  0  0  0  0  0  0  0  0
   -7.7410   22.1050  -31.0410 C   0  0  0  0  0  0  0  0  0  0  0  0
   -7.5650   23.3240  -30.4280 C   0  0  0  0  0  0  0  0  0  0  0  0
   -6.2600   23.7050  -30.7330 C   0  0  0  0  0  0  0  0  0  0  0  0
   -5.6720   25.0100  -30.3520 C   0  0  0  0  0  0  0  0  0  0  0  0
   -6.1300   25.7050  -29.1910 N   0  0  0  0  0  0  0  0  0  0  0  0
   -4.7820   25.5350  -31.0710 O   0  0  0  0  0  0  0  0  0  0  0  0
   -5.6510   22.7580  -31.5010 N   0  0  0  0  0  0  0  0  0  0  0  0
   -4.2900   22.7410  -31.9600 C   0  0  0  0  0  0  0  0  0  0  0  0
   -3.2610   23.3460  -31.1810 N   0  0  0  0  0  0  0  0  0  0  0  0
   -3.9930   22.1710  -33.0440 O   0  0  0  0  0  0  0  0  0  0  0  0
   -6.5730   21.7860  -31.6830 C   0  0  0  0  0  0  0  0  0  0  0  0
   -6.4310   20.5710  -32.3640 C   0  0  0  0  0  0  0  0  0  0  0  0
   -3.6827   19.2905  -31.7262 H   0  0  0  0  0  0  0  0  0  0  0  0
   -2.2317   18.5460  -32.4791 H   0  0  0  0  0  0  0  0  0  0  0  0
   -2.4274   20.3316  -32.4791 H   0  0  0  0  0  0  0  0  0  0  0  0
   -4.0648   20.2942  -34.1450 H   0  0  0  0  0  0  0  0  0  0  0  0
   -2.9740   18.9031  -34.6278 H   0  0  0  0  0  0  0  0  0  0  0  0
   -5.8866   17.2351  -35.3582 H   0  0  0  0  0  0  0  0  0  0  0  0
   -4.2494   17.8429  -35.8466 H   0  0  0  0  0  0  0  0  0  0  0  0
   -4.1838   15.9778  -33.5561 H   0  0  0  0  0  0  0  0  0  0  0  0
   -4.8332   15.2451  -35.0621 H   0  0  0  0  0  0  0  0  0  0  0  0
   -3.2051   16.0039  -35.0621 H   0  0  0  0  0  0  0  0  0  0  0  0
   -4.4733   16.6955  -32.6397 H   0  0  0  0  0  0  0  0  0  0  0  0
   -4.5980   18.2849  -31.8008 H   0  0  0  0  0  0  0  0  0  0  0  0
   -6.7380   16.3624  -32.6191 H   0  0  0  0  0  0  0  0  0  0  0  0
   -6.6696   17.5540  -31.2473 H   0  0  0  0  0  0  0  0  0  0  0  0
   -7.0036   18.5111  -34.0987 H   0  0  0  0  0  0  0  0  0  0  0  0
   -8.4185   17.9047  -33.1389 H   0  0  0  0  0  0  0  0  0  0  0  0
   -9.5970   19.3542  -31.7704 H   0  0  0  0  0  0  0  0  0  0  0  0
   -9.7794   21.5402  -30.5387 H   0  0  0  0  0  0  0  0  0  0  0  0
   -8.2985   23.8796  -29.8253 H   0  0  0  0  0  0  0  0  0  0  0  0
   -6.8270   25.2780  -28.5420 H   0  0  0  0  0  0  0  0  0  0  0  0
   -5.7360   26.6430  -28.9530 H   0  0  0  0  0  0  0  0  0  0  0  0
   -3.0910   24.3760  -31.2220 H   0  0  0  0  0  0  0  0  0  0  0  0
   -5.4837   20.3092  -32.8581 H   0  0  0  0  0  0  0  0  0  0  0  0
  1  2  1  0
  2  3  1  0
  3  4  1  0
  4  5  1  0
  3  6  1  0
  6  7  1  0
  7  8  1  0
  8  9  1  0
  9 10  2  0
 10 11  1  0
 11 12  2  0
 12 13  1  0
 13 14  2  0
 14 15  1  0
 15 16  1  0
 15 17  2  0
 14 18  1  0
 18 19  1  0
 19 20  1  0
 19 21  2  0
 18 22  1  0
 22 23  2  0
 23  9  1  0
 22 12  1  0
  1 24  1  0
  1 25  1  0
  1 26  1  0
  2 27  1  0
  2 28  1  0
  4 29  1  0
  4 30  1  0
  5 31  1  0
  5 32  1  0
  5 33  1  0
  6 34  1  0
  6 35  1  0
  7 36  1  0
  7 37  1  0
  8 38  1  0
  8 39  1  0
 10 40  1  0
 11 41  1  0
 13 42  1  0
 16 43  1  0
 16 44  1  0
 20 45  1  0
 23 46  1  0
M  CHG  1  20  -1
M  END
>  <UniqueID>  (94) 
94

>  <SMILES>  (94) 
CCN(CC)CCCc1ccc2cc(C(N)=O)n(C([NH-])=O)c2c1

>  <Energy>  (94) 
81.55589105250722

>  <Genealogy>  (94) 
CCN(CC)CCCc1ccc2cc(C(N)=O)n(C([NH-])=O)c2c1 (protonated)
CCN(CC)CCCc1ccc2cc(C(N)=O)n(C([NH-])=O)c2c1 (3D coordinates assigned)
CCN(CC)CCCc1ccc2cc(C(N)=O)n(C([NH-])=O)c2c1 (optimized conformer: 81.55589105250722 kcal/mol)

>  <smiles>  (94) 
CCN(CC)CCCc1ccc2cc(C(N)=O)n(C(N)=O)c2c1

>  <score_type>  (94) 
oracle

>  <origin>  (94) 
adg

>  <m_score__min__energy>  (94) 
-8.8499999999999996

>  <m_primary>  (94) 
energy

$$$$
94:0
     RDKit          3D

 38 40  0  0  0  0  0  0  0  0999 V2000
   -4.8270   20.6370  -33.2480 N   0  0  0  0  0  0  0  0  0  0  0  0
   -5.6750   20.4280  -32.1210 C   0  0  0  0  0  0  0  0  0  0  0  0
   -5.6440   19.3230  -31.5180 O   0  0  0  0  0  0  0  0  0  0  0  0
   -6.5510   21.4760  -31.6690 N   0  0  0  0  0  0  0  0  0  0  0  0
   -7.8920   21.5860  -31.8820 C   0  0  0  0  0  0  0  0  0  0  0  0
   -8.7620   20.5510  -32.4770 C   0  0  0  0  0  0  0  0  0  0  0  0
   -8.2110   19.3870  -33.0920 N   0  0  0  0  0  0  0  0  0  0  0  0
  -10.0140   20.6700  -32.3900 O   0  0  0  0  0  0  0  0  0  0  0  0
   -8.3690   22.8050  -31.4080 C   0  0  0  0  0  0  0  0  0  0  0  0
   -7.2710   23.4410  -30.8770 C   0  0  0  0  0  0  0  0  0  0  0  0
   -7.1660   24.6930  -30.2790 C   0  0  0  0  0  0  0  0  0  0  0  0
   -5.8970   25.1160  -29.8510 C   0  0  0  0  0  0  0  0  0  0  0  0
   -4.7540   24.2920  -30.0410 C   0  0  0  0  0  0  0  0  0  0  0  0
   -3.4400   24.7140  -29.6290 N   0  0  0  0  0  0  0  0  0  0  0  0
   -2.5310   23.9110  -28.8080 C   0  0  0  0  0  0  0  0  0  0  0  0
   -1.9010   24.7520  -27.7240 C   0  0  0  0  0  0  0  0  0  0  0  0
   -1.9640   24.3210  -26.3860 C   0  0  0  0  0  0  0  0  0  0  0  0
   -1.3970   25.0880  -25.3670 C   0  0  0  0  0  0  0  0  0  0  0  0
   -0.7730   26.3020  -25.6670 C   0  0  0  0  0  0  0  0  0  0  0  0
   -0.0610   27.2640  -24.3840 Cl  0  0  0  0  0  0  0  0  0  0  0  0
   -0.7210   26.7510  -26.9890 C   0  0  0  0  0  0  0  0  0  0  0  0
   -1.2860   25.9880  -28.0160 C   0  0  0  0  0  0  0  0  0  0  0  0
   -1.2330   26.4670  -29.3220 O   0  0  0  0  0  0  0  0  0  0  0  0
   -4.9060   23.0260  -30.6500 C   0  0  0  0  0  0  0  0  0  0  0  0
   -6.1860   22.6210  -31.0480 C   0  0  0  0  0  0  0  0  0  0  0  0
   -4.9680   21.4530  -33.8820 H   0  0  0  0  0  0  0  0  0  0  0  0
   -8.8390   18.6830  -33.5390 H   0  0  0  0  0  0  0  0  0  0  0  0
   -7.1900   19.1790  -33.0340 H   0  0  0  0  0  0  0  0  0  0  0  0
   -9.4025   23.1794  -31.4493 H   0  0  0  0  0  0  0  0  0  0  0  0
   -8.0509   25.3326  -30.1454 H   0  0  0  0  0  0  0  0  0  0  0  0
   -5.7861   26.0957  -29.3633 H   0  0  0  0  0  0  0  0  0  0  0  0
   -3.1200   25.6740  -29.8940 H   0  0  0  0  0  0  0  0  0  0  0  0
   -3.0957   23.0890  -28.3439 H   0  0  0  0  0  0  0  0  0  0  0  0
   -1.7336   23.5127  -29.4526 H   0  0  0  0  0  0  0  0  0  0  0  0
   -2.4640   23.3723  -26.1412 H   0  0  0  0  0  0  0  0  0  0  0  0
   -1.4414   24.7362  -24.3257 H   0  0  0  0  0  0  0  0  0  0  0  0
   -0.2335   27.7089  -27.2232 H   0  0  0  0  0  0  0  0  0  0  0  0
   -4.0361   22.3716  -30.8083 H   0  0  0  0  0  0  0  0  0  0  0  0
  1  2  1  0
  2  3  2  0
  2  4  1  0
  4  5  1  0
  5  6  1  0
  6  7  1  0
  6  8  2  0
  5  9  2  0
  9 10  1  0
 10 11  2  0
 11 12  1  0
 12 13  2  0
 13 14  1  0
 14 15  1  0
 15 16  1  0
 16 17  2  0
 17 18  1  0
 18 19  2  0
 19 20  1  0
 19 21  1  0
 21 22  2  0
 22 23  1  0
 13 24  1  0
 24 25  2  0
 25  4  1  0
 25 10  1  0
 22 16  1  0
  1 26  1  0
  7 27  1  0
  7 28  1  0
  9 29  1  0
 11 30  1  0
 12 31  1  0
 14 32  1  0
 15 33  1  0
 15 34  1  0
 17 35  1  0
 18 36  1  0
 21 37  1  0
 24 38  1  0
M  CHG  2   1  -1  23  -1
M  END
>  <UniqueID>  (95) 
95

>  <SMILES>  (95) 
[NH-]C(=O)n1c(C(N)=O)cc2ccc(NCc3ccc(Cl)cc3[O-])cc21

>  <Energy>  (95) 
80.52806302464299

>  <Genealogy>  (95) 
[NH-]C(=O)n1c(C(N)=O)cc2ccc(NCc3ccc(Cl)cc3[O-])cc21 (protonated)
[NH-]C(=O)n1c(C(N)=O)cc2ccc(NCc3ccc(Cl)cc3[O-])cc21 (3D coordinates assigned)
[NH-]C(=O)n1c(C(N)=O)cc2ccc(NCc3ccc(Cl)cc3[O-])cc21 (optimized conformer: 80.52806302464299 kcal/mol)

>  <smiles>  (95) 
NC(=O)c1cc2ccc(NCc3ccc(Cl)cc3O)cc2n1C(N)=O

>  <score_type>  (95) 
oracle

>  <origin>  (95) 
adg

>  <m_score__min__energy>  (95) 
-11.68

>  <m_primary>  (95) 
energy

$$$$
95:0
     RDKit          3D

 43 44  0  0  0  0  0  0  0  0999 V2000
   -9.1780   18.2040  -31.6300 C   0  0  0  0  0  0  0  0  0  0  0  0
   -8.5290   19.0450  -32.5770 O   0  0  0  0  0  0  0  0  0  0  0  0
   -7.3380   19.7180  -32.2910 C   0  0  0  0  0  0  0  0  0  0  0  0
   -7.3570   20.8830  -31.8080 O   0  0  0  0  0  0  0  0  0  0  0  0
   -6.0210   19.0560  -32.5880 C   0  0  2  0  0  0  0  0  0  0  0  0
   -5.1520   19.9480  -33.4960 C   0  0  0  0  0  0  0  0  0  0  0  0
   -3.9700   20.5170  -32.7530 C   0  0  0  0  0  0  0  0  0  0  0  0
   -2.7480   19.8010  -32.7030 C   0  0  0  0  0  0  0  0  0  0  0  0
   -1.6590   20.2930  -31.9630 C   0  0  0  0  0  0  0  0  0  0  0  0
   -1.8240   21.4970  -31.2830 C   0  0  0  0  0  0  0  0  0  0  0  0
   -0.9540   22.1810  -30.4650 C   0  0  0  0  0  0  0  0  0  0  0  0
   -1.6570   23.3050  -30.0340 C   0  0  0  0  0  0  0  0  0  0  0  0
   -1.0710   24.3630  -29.1860 C   0  0  0  0  0  0  0  0  0  0  0  0
   -1.7640   25.5880  -28.9570 N   0  0  0  0  0  0  0  0  0  0  0  0
    0.0730   24.2000  -28.6860 O   0  0  0  0  0  0  0  0  0  0  0  0
   -2.9150   23.3090  -30.5600 N   0  0  0  0  0  0  0  0  0  0  0  0
   -3.9850   24.2300  -30.2990 C   0  0  0  0  0  0  0  0  0  0  0  0
   -5.1610   23.8210  -29.4720 C   0  0  0  0  0  0  0  0  0  0  0  0
   -3.9740   25.3700  -30.8360 O   0  0  0  0  0  0  0  0  0  0  0  0
   -2.9980   22.2010  -31.3260 C   0  0  0  0  0  0  0  0  0  0  0  0
   -4.1000   21.7350  -32.0480 C   0  0  0  0  0  0  0  0  0  0  0  0
   -6.2590   17.7590  -33.2280 N   0  0  0  0  0  0  0  0  0  0  0  0
   -5.2170   16.7880  -33.3960 C   0  0  0  0  0  0  0  0  0  0  0  0
   -4.0430   17.0420  -33.0130 O   0  0  0  0  0  0  0  0  0  0  0  0
   -5.5250   15.4660  -34.0300 C   0  0  0  0  0  0  0  0  0  0  0  0
   -5.4820   14.4730  -33.0700 F   0  0  0  0  0  0  0  0  0  0  0  0
   -6.7890   15.5060  -34.5890 F   0  0  0  0  0  0  0  0  0  0  0  0
   -4.6030   15.1750  -35.0220 F   0  0  0  0  0  0  0  0  0  0  0  0
   -8.9236   18.5337  -30.6119 H   0  0  0  0  0  0  0  0  0  0  0  0
  -10.2671   18.2629  -31.7731 H   0  0  0  0  0  0  0  0  0  0  0  0
   -8.8450   17.1654  -31.7731 H   0  0  0  0  0  0  0  0  0  0  0  0
   -5.4796   18.9029  -31.6428 H   0  0  0  0  0  0  0  0  0  0  0  0
   -4.7858   19.3467  -34.3412 H   0  0  0  0  0  0  0  0  0  0  0  0
   -5.7717   20.7861  -33.8474 H   0  0  0  0  0  0  0  0  0  0  0  0
   -2.6508   18.8509  -33.2487 H   0  0  0  0  0  0  0  0  0  0  0  0
   -0.7065   19.7443  -31.9223 H   0  0  0  0  0  0  0  0  0  0  0  0
    0.0776   21.9003  -30.2061 H   0  0  0  0  0  0  0  0  0  0  0  0
   -2.7870   25.6710  -29.1520 H   0  0  0  0  0  0  0  0  0  0  0  0
   -4.9075   23.9092  -28.4052 H   0  0  0  0  0  0  0  0  0  0  0  0
   -6.0155   24.4747  -29.7011 H   0  0  0  0  0  0  0  0  0  0  0  0
   -5.4254   22.7781  -29.7011 H   0  0  0  0  0  0  0  0  0  0  0  0
   -5.0431   22.3009  -32.0671 H   0  0  0  0  0  0  0  0  0  0  0  0
   -7.2200   17.5180  -33.5650 H   0  0  0  0  0  0  0  0  0  0  0  0
  1  2  1  0
  2  3  1  0
  3  4  2  0
  3  5  1  0
  5  6  1  0
  6  7  1  0
  7  8  2  0
  8  9  1  0
  9 10  2  0
 10 11  1  0
 11 12  2  0
 12 13  1  0
 13 14  1  0
 13 15  2  0
 12 16  1  0
 16 17  1  0
 17 18  1  0
 17 19  2  0
 16 20  1  0
 20 21  2  0
  5 22  1  0
 22 23  1  0
 23 24  2  0
 23 25  1  0
 25 26  1  0
 25 27  1  0
 25 28  1  0
 21  7  1  0
 20 10  1  0
  1 29  1  0
  1 30  1  0
  1 31  1  0
  5 32  1  1
  6 33  1  0
  6 34  1  0
  8 35  1  0
  9 36  1  0
 11 37  1  0
 14 38  1  0
 18 39  1  0
 18 40  1  0
 18 41  1  0
 21 42  1  0
 22 43  1  0
M  CHG  1  14  -1
M  END
>  <UniqueID>  (96) 
96

>  <SMILES>  (96) 
COC(=O)[C@H](Cc1ccc2cc(C([NH-])=O)n(C(C)=O)c2c1)NC(=O)C(F)(F)F

>  <Energy>  (96) 
73.28819297870317

>  <Genealogy>  (96) 
COC(=O)[C@H](Cc1ccc2cc(C([NH-])=O)n(C(C)=O)c2c1)NC(=O)C(F)(F)F (protonated)
COC(=O)[C@H](Cc1ccc2cc(C([NH-])=O)n(C(C)=O)c2c1)NC(=O)C(F)(F)F (3D coordinates assigned)
COC(=O)[C@H](Cc1ccc2cc(C([NH-])=O)n(C(C)=O)c2c1)NC(=O)C(F)(F)F (optimized conformer: 73.28819297870317 kcal/mol)

>  <smiles>  (96) 
COC(=O)[C@H](Cc1ccc2cc(C(N)=O)n(C(C)=O)c2c1)NC(=O)C(F)(F)F

>  <score_type>  (96) 
oracle

>  <origin>  (96) 
adg

>  <m_score__min__energy>  (96) 
-10.01

>  <m_primary>  (96) 
energy

$$$$
