0:0
     RDKit          3D

 35 36  0  0  0  0  0  0  0  0999 V2000
   -4.1950   25.5640  -30.7330 N   0  0  0  0  0  0  0  0  0  0  0  0
   -5.5080   25.1200  -30.3920 C   0  0  0  0  0  0  0  0  0  0  0  0
   -6.2180   25.8290  -29.6290 O   0  0  0  0  0  0  0  0  0  0  0  0
   -6.0260   23.8210  -30.8630 C   0  0  0  0  0  0  0  0  0  0  0  0
   -7.3550   23.6220  -31.2190 C   0  0  0  0  0  0  0  0  0  0  0  0
   -7.4330   22.3110  -31.6180 C   0  0  0  0  0  0  0  0  0  0  0  0
   -8.5190   21.5990  -32.1200 C   0  0  0  0  0  0  0  0  0  0  0  0
   -8.3040   20.2760  -32.5360 C   0  0  0  0  0  0  0  0  0  0  0  0
   -7.0150   19.6970  -32.4570 C   0  0  0  0  0  0  0  0  0  0  0  0
   -6.7820   18.2990  -32.9670 C   0  0  0  0  0  0  0  0  0  0  0  0
   -5.6490   18.2630  -33.9920 C   0  0  0  0  0  0  0  0  0  0  0  0
   -6.0950   18.7730  -35.2190 O   0  0  0  0  0  0  0  0  0  0  0  0
   -5.9320   20.4560  -31.9580 C   0  0  0  0  0  0  0  0  0  0  0  0
   -6.1790   21.7600  -31.5070 C   0  0  0  0  0  0  0  0  0  0  0  0
   -5.3010   22.6750  -31.0290 N   0  0  0  0  0  0  0  0  0  0  0  0
   -3.8770   22.5210  -30.8610 C   0  0  0  0  0  0  0  0  0  0  0  0
   -3.0860   23.0430  -31.6890 O   0  0  0  0  0  0  0  0  0  0  0  0
   -3.1880   21.5830  -29.4870 S   0  0  0  0  0  0  0  0  0  0  0  0
   -2.8350   23.0330  -28.4340 C   0  0  0  0  0  0  0  0  0  0  0  0
   -1.9040   23.9820  -29.1190 C   0  0  0  0  0  0  0  0  0  0  0  0
   -0.7310   23.6260  -29.4090 O   0  0  0  0  0  0  0  0  0  0  0  0
   -2.3040   25.2880  -29.3710 O   0  0  0  0  0  0  0  0  0  0  0  0
   -3.5220   24.9220  -31.2010 H   0  0  0  0  0  0  0  0  0  0  0  0
   -3.8630   26.5050  -30.4310 H   0  0  0  0  0  0  0  0  0  0  0  0
   -8.1711   24.3589  -31.1876 H   0  0  0  0  0  0  0  0  0  0  0  0
   -9.5156   22.0596  -32.1885 H   0  0  0  0  0  0  0  0  0  0  0  0
   -9.1446   19.6839  -32.9269 H   0  0  0  0  0  0  0  0  0  0  0  0
   -6.5198   17.6478  -32.1201 H   0  0  0  0  0  0  0  0  0  0  0  0
   -7.7035   17.9499  -33.4559 H   0  0  0  0  0  0  0  0  0  0  0  0
   -4.8091   18.8729  -33.6279 H   0  0  0  0  0  0  0  0  0  0  0  0
   -5.3219   17.2221  -34.1316 H   0  0  0  0  0  0  0  0  0  0  0  0
   -6.8800   19.3430  -35.0110 H   0  0  0  0  0  0  0  0  0  0  0  0
   -4.9173   20.0325  -31.9243 H   0  0  0  0  0  0  0  0  0  0  0  0
   -3.7782   23.5532  -28.2110 H   0  0  0  0  0  0  0  0  0  0  0  0
   -2.3576   22.6834  -27.5067 H   0  0  0  0  0  0  0  0  0  0  0  0
  1  2  1  0
  2  3  2  0
  2  4  1  0
  4  5  2  0
  5  6  1  0
  6  7  2  0
  7  8  1  0
  8  9  2  0
  9 10  1  0
 10 11  1  0
 11 12  1  0
  9 13  1  0
 13 14  2  0
 14 15  1  0
 15 16  1  0
 16 17  2  0
 16 18  1  0
 18 19  1  0
 19 20  1  0
 20 21  2  0
 20 22  1  0
 15  4  1  0
 14  6  1  0
  1 23  1  0
  1 24  1  0
  5 25  1  0
  7 26  1  0
  8 27  1  0
 10 28  1  0
 10 29  1  0
 11 30  1  0
 11 31  1  0
 12 32  1  0
 13 33  1  0
 19 34  1  0
 19 35  1  0
M  CHG  1  22  -1
M  END
>  <UniqueID>  (1) 
1

>  <SMILES>  (1) 
NC(=O)c1cc2ccc(CCO)cc2n1C(=O)SCC(=O)[O-]

>  <Energy>  (1) 
69.13064166705156

>  <Genealogy>  (1) 
NC(=O)c1cc2ccc(CCO)cc2n1C(=O)SCC(=O)[O-] (protonated)
NC(=O)c1cc2ccc(CCO)cc2n1C(=O)SCC(=O)[O-] (3D coordinates assigned)
NC(=O)c1cc2ccc(CCO)cc2n1C(=O)SCC(=O)[O-] (optimized conformer: 69.13064166705156 kcal/mol)

>  <smiles>  (1) 
NC(=O)c1cc2ccc(CCO)cc2n1C(=O)SCC(=O)O

>  <score_type>  (1) 
oracle

>  <origin>  (1) 
adg

>  <m_score__min__energy>  (1) 
-10.699999999999999

>  <m_primary>  (1) 
energy

$$$$
1:0
     RDKit          3D

 39 40  0  0  0  0  0  0  0  0999 V2000
   -3.1230   24.4660  -27.0970 C   0  0  0  0  0  0  0  0  0  0  0  0
   -1.8310   23.9120  -27.0570 O   0  0  0  0  0  0  0  0  0  0  0  0
   -1.0420   24.2990  -28.5180 P   0  0  0  0  0  0  0  0  0  0  0  0
   -1.4670   25.6820  -28.9670 O   0  0  0  0  0  0  0  0  0  0  0  0
   -1.5660   23.0840  -29.7680 C   0  0  0  0  0  0  0  0  0  0  0  0
   -2.9820   23.1140  -29.9190 O   0  0  0  0  0  0  0  0  0  0  0  0
   -3.6470   22.6710  -31.0690 C   0  0  0  0  0  0  0  0  0  0  0  0
   -3.0070   22.1160  -32.0020 O   0  0  0  0  0  0  0  0  0  0  0  0
   -5.0620   22.8800  -31.1960 N   0  0  0  0  0  0  0  0  0  0  0  0
   -5.7750   24.0000  -30.8830 C   0  0  0  0  0  0  0  0  0  0  0  0
   -5.2100   25.2990  -30.4610 C   0  0  0  0  0  0  0  0  0  0  0  0
   -3.8800   25.6500  -30.8380 N   0  0  0  0  0  0  0  0  0  0  0  0
   -5.8750   26.0880  -29.7390 O   0  0  0  0  0  0  0  0  0  0  0  0
   -7.1350   23.7880  -31.0970 C   0  0  0  0  0  0  0  0  0  0  0  0
   -7.2340   22.4970  -31.5640 C   0  0  0  0  0  0  0  0  0  0  0  0
   -8.3580   21.7630  -31.9320 C   0  0  0  0  0  0  0  0  0  0  0  0
   -8.1670   20.4370  -32.3580 C   0  0  0  0  0  0  0  0  0  0  0  0
   -6.8680   19.8720  -32.4010 C   0  0  0  0  0  0  0  0  0  0  0  0
   -6.6890   18.4490  -32.8480 C   0  0  0  0  0  0  0  0  0  0  0  0
   -7.8190   17.7150  -32.5350 F   0  0  0  0  0  0  0  0  0  0  0  0
   -6.4850   18.4120  -34.2140 F   0  0  0  0  0  0  0  0  0  0  0  0
   -5.7510   20.6480  -32.0180 C   0  0  0  0  0  0  0  0  0  0  0  0
   -5.9690   21.9710  -31.6160 C   0  0  0  0  0  0  0  0  0  0  0  0
    0.6510   24.2170  -28.2920 O   0  0  0  0  0  0  0  0  0  0  0  0
    0.9290   24.3000  -26.9160 C   0  0  0  0  0  0  0  0  0  0  0  0
   -3.4870   24.6221  -26.0708 H   0  0  0  0  0  0  0  0  0  0  0  0
   -3.0924   25.4301  -27.6258 H   0  0  0  0  0  0  0  0  0  0  0  0
   -3.8003   23.7792  -27.6258 H   0  0  0  0  0  0  0  0  0  0  0  0
   -1.0926   23.3260  -30.7310 H   0  0  0  0  0  0  0  0  0  0  0  0
   -1.2608   22.0788  -29.4419 H   0  0  0  0  0  0  0  0  0  0  0  0
   -3.0570   25.2600  -30.3280 H   0  0  0  0  0  0  0  0  0  0  0  0
   -7.9556   24.5009  -30.9286 H   0  0  0  0  0  0  0  0  0  0  0  0
   -9.3638   22.2065  -31.8908 H   0  0  0  0  0  0  0  0  0  0  0  0
   -9.0343   19.8320  -32.6609 H   0  0  0  0  0  0  0  0  0  0  0  0
   -5.8173   18.0179  -32.3340 H   0  0  0  0  0  0  0  0  0  0  0  0
   -4.7364   20.2235  -32.0353 H   0  0  0  0  0  0  0  0  0  0  0  0
    0.0291   24.0313  -26.3433 H   0  0  0  0  0  0  0  0  0  0  0  0
    1.7446   23.6062  -26.6642 H   0  0  0  0  0  0  0  0  0  0  0  0
    1.2307   25.3274  -26.6642 H   0  0  0  0  0  0  0  0  0  0  0  0
  1  2  1  0
  2  3  1  0
  3  4  2  0
  3  5  1  0
  5  6  1  0
  6  7  1  0
  7  8  2  0
  7  9  1  0
  9 10  1  0
 10 11  1  0
 11 12  1  0
 11 13  2  0
 10 14  2  0
 14 15  1  0
 15 16  2  0
 16 17  1  0
 17 18  2  0
 18 19  1  0
 19 20  1  0
 19 21  1  0
 18 22  1  0
 22 23  2  0
  3 24  1  0
 24 25  1  0
 23  9  1  0
 23 15  1  0
  1 26  1  0
  1 27  1  0
  1 28  1  0
  5 29  1  0
  5 30  1  0
 12 31  1  0
 14 32  1  0
 16 33  1  0
 17 34  1  0
 19 35  1  0
 22 36  1  0
 25 37  1  0
 25 38  1  0
 25 39  1  0
M  CHG  1  12  -1
M  END
>  <UniqueID>  (2) 
2

>  <SMILES>  (2) 
COP(=O)(COC(=O)n1c(C([NH-])=O)cc2ccc(C(F)F)cc21)OC

>  <Energy>  (2) 
70.8490363902177

>  <Genealogy>  (2) 
COP(=O)(COC(=O)n1c(C([NH-])=O)cc2ccc(C(F)F)cc21)OC (protonated)
COP(=O)(COC(=O)n1c(C([NH-])=O)cc2ccc(C(F)F)cc21)OC (3D coordinates assigned)
COP(=O)(COC(=O)n1c(C([NH-])=O)cc2ccc(C(F)F)cc21)OC (optimized conformer: 70.8490363902177 kcal/mol)

>  <smiles>  (2) 
COP(=O)(COC(=O)n1c(C(N)=O)cc2ccc(C(F)F)cc21)OC

>  <score_type>  (2) 
oracle

>  <origin>  (2) 
adg

>  <m_score__min__energy>  (2) 
-10.15

>  <m_primary>  (2) 
energy

$$$$
2:0
     RDKit          3D

 39 40  0  0  0  0  0  0  0  0999 V2000
   -6.6020   21.0920  -32.7000 C   0  0  0  0  0  0  0  0  0  0  0  0
   -6.7990   19.9680  -31.8520 O   0  0  0  0  0  0  0  0  0  0  0  0
   -6.9290   18.6660  -32.3440 C   0  0  0  0  0  0  0  0  0  0  0  0
   -8.0640   18.1980  -32.6320 O   0  0  0  0  0  0  0  0  0  0  0  0
   -5.7120   17.7980  -32.4780 C   0  0  1  0  0  0  0  0  0  0  0  0
   -6.0920   16.4340  -32.5330 O   0  0  0  0  0  0  0  0  0  0  0  0
   -5.0520   15.6110  -32.0520 C   0  0  0  0  0  0  0  0  0  0  0  0
   -4.9980   18.1660  -33.7470 C   0  0  0  0  0  0  0  0  0  0  0  0
   -5.6600   18.3790  -34.7990 O   0  0  0  0  0  0  0  0  0  0  0  0
   -3.5650   18.1850  -33.8010 N   0  0  0  0  0  0  0  0  0  0  0  0
   -2.7450   17.3150  -34.4500 C   0  0  0  0  0  0  0  0  0  0  0  0
   -3.1800   16.1080  -35.1800 C   0  0  0  0  0  0  0  0  0  0  0  0
   -4.4900   15.5840  -34.9740 N   0  0  0  0  0  0  0  0  0  0  0  0
   -2.4090   15.5360  -35.9960 O   0  0  0  0  0  0  0  0  0  0  0  0
   -1.4130   17.7100  -34.3120 C   0  0  0  0  0  0  0  0  0  0  0  0
   -1.4500   18.8570  -33.5490 C   0  0  0  0  0  0  0  0  0  0  0  0
   -0.4170   19.6840  -33.1140 C   0  0  0  0  0  0  0  0  0  0  0  0
   -0.7570   20.8150  -32.3510 C   0  0  0  0  0  0  0  0  0  0  0  0
   -2.1100   21.0900  -32.0390 C   0  0  0  0  0  0  0  0  0  0  0  0
   -2.4480   22.2590  -31.2730 C   0  0  0  0  0  0  0  0  0  0  0  0
   -2.7360   23.2390  -30.6340 C   0  0  0  0  0  0  0  0  0  0  0  0
   -3.1610   24.6700  -29.7010 P   0  0  0  0  0  0  0  0  0  0  0  0
   -3.8890   24.2530  -28.4440 O   0  0  0  0  0  0  0  0  0  0  0  0
   -1.7530   25.5090  -29.2840 O   0  0  0  0  0  0  0  0  0  0  0  0
   -4.1610   25.6710  -30.6260 O   0  0  0  0  0  0  0  0  0  0  0  0
   -3.1300   20.2280  -32.4880 C   0  0  0  0  0  0  0  0  0  0  0  0
   -2.7630   19.1170  -33.2510 C   0  0  0  0  0  0  0  0  0  0  0  0
   -6.4444   21.9912  -32.0863 H   0  0  0  0  0  0  0  0  0  0  0  0
   -5.7199   20.9222  -33.3349 H   0  0  0  0  0  0  0  0  0  0  0  0
   -7.4892   21.2323  -33.3349 H   0  0  0  0  0  0  0  0  0  0  0  0
   -5.0529   17.9500  -31.6105 H   0  0  0  0  0  0  0  0  0  0  0  0
   -5.0590   15.6165  -30.9520 H   0  0  0  0  0  0  0  0  0  0  0  0
   -5.2004   14.5831  -32.4145 H   0  0  0  0  0  0  0  0  0  0  0  0
   -4.0857   15.9917  -32.4145 H   0  0  0  0  0  0  0  0  0  0  0  0
   -5.2430   16.1730  -34.5530 H   0  0  0  0  0  0  0  0  0  0  0  0
   -0.5233   17.2117  -34.7245 H   0  0  0  0  0  0  0  0  0  0  0  0
    0.6314   19.4594  -33.3596 H   0  0  0  0  0  0  0  0  0  0  0  0
    0.0340   21.4909  -31.9940 H   0  0  0  0  0  0  0  0  0  0  0  0
   -4.1847   20.4242  -32.2448 H   0  0  0  0  0  0  0  0  0  0  0  0
  1  2  1  0
  2  3  1  0
  3  4  2  0
  3  5  1  0
  5  6  1  0
  6  7  1  0
  5  8  1  0
  8  9  2  0
  8 10  1  0
 10 11  1  0
 11 12  1  0
 12 13  1  0
 12 14  2  0
 11 15  2  0
 15 16  1  0
 16 17  2  0
 17 18  1  0
 18 19  2  0
 19 20  1  0
 20 21  3  0
 21 22  1  0
 22 23  2  0
 22 24  1  0
 22 25  1  0
 19 26  1  0
 26 27  2  0
 27 10  1  0
 27 16  1  0
  1 28  1  0
  1 29  1  0
  1 30  1  0
  5 31  1  1
  7 32  1  0
  7 33  1  0
  7 34  1  0
 13 35  1  0
 15 36  1  0
 17 37  1  0
 18 38  1  0
 26 39  1  0
M  CHG  3  13  -1  24  -1  25  -1
M  END
>  <UniqueID>  (3) 
3

>  <SMILES>  (3) 
COC(=O)[C@@H](OC)C(=O)n1c(C([NH-])=O)cc2ccc(C#CP(=O)([O-])[O-])cc21

>  <Energy>  (3) 
70.89455723315046

>  <Genealogy>  (3) 
COC(=O)[C@@H](OC)C(=O)n1c(C([NH-])=O)cc2ccc(C#CP(=O)([O-])[O-])cc21 (protonated)
COC(=O)[C@@H](OC)C(=O)n1c(C([NH-])=O)cc2ccc(C#CP(=O)([O-])[O-])cc21 (3D coordinates assigned)
COC(=O)[C@@H](OC)C(=O)n1c(C([NH-])=O)cc2ccc(C#CP(=O)([O-])[O-])cc21 (optimized conformer: 70.89455723315046 kcal/mol)

>  <smiles>  (3) 
COC(=O)[C@@H](OC)C(=O)n1c(C(N)=O)cc2ccc(C#CP(=O)(O)O)cc21

>  <score_type>  (3) 
oracle

>  <origin>  (3) 
adg

>  <m_score__min__energy>  (3) 
-10.529999999999999

>  <m_primary>  (3) 
energy

$$$$
3:0
     RDKit          3D

 37 38  0  0  0  0  0  0  0  0999 V2000
   -3.9320   25.3710  -30.4680 N   0  0  0  0  0  0  0  0  0  0  0  0
   -5.3460   25.2000  -30.5020 C   0  0  0  0  0  0  0  0  0  0  0  0
   -6.0890   26.1370  -30.1060 O   0  0  0  0  0  0  0  0  0  0  0  0
   -5.9500   23.9270  -30.9520 C   0  0  0  0  0  0  0  0  0  0  0  0
   -7.2010   23.8400  -31.5580 C   0  0  0  0  0  0  0  0  0  0  0  0
   -7.4190   22.4960  -31.7560 C   0  0  0  0  0  0  0  0  0  0  0  0
   -8.5040   21.8380  -32.3260 C   0  0  0  0  0  0  0  0  0  0  0  0
   -8.4490   20.4370  -32.4230 C   0  0  0  0  0  0  0  0  0  0  0  0
   -7.3060   19.7230  -31.9770 C   0  0  0  0  0  0  0  0  0  0  0  0
   -7.2740   18.2190  -32.0520 C   0  0  0  0  0  0  0  0  0  0  0  0
   -8.5540   17.6970  -31.9660 F   0  0  0  0  0  0  0  0  0  0  0  0
   -6.7170   17.8010  -33.2500 F   0  0  0  0  0  0  0  0  0  0  0  0
   -6.5160   17.7260  -31.0080 F   0  0  0  0  0  0  0  0  0  0  0  0
   -6.2330   20.4280  -31.3840 C   0  0  0  0  0  0  0  0  0  0  0  0
   -6.3250   21.8210  -31.2820 C   0  0  0  0  0  0  0  0  0  0  0  0
   -5.4150   22.6850  -30.7840 N   0  0  0  0  0  0  0  0  0  0  0  0
   -4.1210   22.3480  -30.2640 C   0  0  0  0  0  0  0  0  0  0  0  0
   -3.4730   21.3930  -30.7710 O   0  0  0  0  0  0  0  0  0  0  0  0
   -3.5740   23.0930  -29.1660 N   0  0  0  0  0  0  0  0  0  0  0  0
   -2.2490   22.8230  -28.6090 C   0  0  0  0  0  0  0  0  0  0  0  0
   -1.7020   24.0690  -27.8980 C   0  0  2  0  0  0  0  0  0  0  0  0
   -2.7610   24.9370  -27.5820 O   0  0  0  0  0  0  0  0  0  0  0  0
   -0.6650   24.7960  -28.7710 C   0  0  0  0  0  0  0  0  0  0  0  0
   -1.2140   25.9470  -29.3570 O   0  0  0  0  0  0  0  0  0  0  0  0
   -3.4470   25.6670  -29.5920 H   0  0  0  0  0  0  0  0  0  0  0  0
   -7.8726   24.6701  -31.8224 H   0  0  0  0  0  0  0  0  0  0  0  0
   -9.3786   22.3973  -32.6898 H   0  0  0  0  0  0  0  0  0  0  0  0
   -9.3013   19.8875  -32.8493 H   0  0  0  0  0  0  0  0  0  0  0  0
   -5.3464   19.8939  -31.0115 H   0  0  0  0  0  0  0  0  0  0  0  0
   -4.0940   23.9280  -28.8170 H   0  0  0  0  0  0  0  0  0  0  0  0
   -2.3212   21.9963  -27.8869 H   0  0  0  0  0  0  0  0  0  0  0  0
   -1.5667   22.5517  -29.4280 H   0  0  0  0  0  0  0  0  0  0  0  0
   -1.2015   23.7488  -26.9723 H   0  0  0  0  0  0  0  0  0  0  0  0
   -3.0840   25.3180  -28.4390 H   0  0  0  0  0  0  0  0  0  0  0  0
    0.1917   25.0857  -28.1447 H   0  0  0  0  0  0  0  0  0  0  0  0
   -0.3454   24.1147  -29.5733 H   0  0  0  0  0  0  0  0  0  0  0  0
   -2.0770   25.6760  -29.7670 H   0  0  0  0  0  0  0  0  0  0  0  0
  1  2  1  0
  2  3  2  0
  2  4  1  0
  4  5  2  0
  5  6  1  0
  6  7  2  0
  7  8  1  0
  8  9  2  0
  9 10  1  0
 10 11  1  0
 10 12  1  0
 10 13  1  0
  9 14  1  0
 14 15  2  0
 15 16  1  0
 16 17  1  0
 17 18  2  0
 17 19  1  0
 19 20  1  0
 20 21  1  0
 21 22  1  0
 21 23  1  0
 23 24  1  0
 16  4  1  0
 15  6  1  0
  1 25  1  0
  5 26  1  0
  7 27  1  0
  8 28  1  0
 14 29  1  0
 19 30  1  0
 20 31  1  0
 20 32  1  0
 21 33  1  1
 22 34  1  0
 23 35  1  0
 23 36  1  0
 24 37  1  0
M  CHG  1   1  -1
M  END
>  <UniqueID>  (4) 
4

>  <SMILES>  (4) 
[NH-]C(=O)c1cc2ccc(C(F)(F)F)cc2n1C(=O)NC[C@H](O)CO

>  <Energy>  (4) 
72.17138871416364

>  <Genealogy>  (4) 
[NH-]C(=O)c1cc2ccc(C(F)(F)F)cc2n1C(=O)NCC(O)CO (protonated)
[NH-]C(=O)c1cc2ccc(C(F)(F)F)cc2n1C(=O)NC[C@H](O)CO (chirality)
[NH-]C(=O)c1cc2ccc(C(F)(F)F)cc2n1C(=O)NC[C@H](O)CO (3D coordinates assigned)
[NH-]C(=O)c1cc2ccc(C(F)(F)F)cc2n1C(=O)NC[C@H](O)CO (optimized conformer: 72.17138871416364 kcal/mol)

>  <smiles>  (4) 
NC(=O)c1cc2ccc(C(F)(F)F)cc2n1C(=O)NCC(O)CO

>  <score_type>  (4) 
oracle

>  <origin>  (4) 
adg

>  <m_score__min__energy>  (4) 
-9.4299999999999997

>  <m_primary>  (4) 
energy

$$$$
4:0
     RDKit          3D

 38 39  0  0  0  0  0  0  0  0999 V2000
   -9.7431   20.7882  -30.4057 H   0  0  0  0  0  0  0  0  0  0  0  0
   -9.3370   20.8890  -31.4230 C   0  0  0  0  0  0  0  0  0  0  0  0
   -9.0860   19.7910  -32.1350 C   0  0  0  0  0  0  0  0  0  0  0  0
   -9.3490   18.5700  -31.6040 F   0  0  0  0  0  0  0  0  0  0  0  0
   -8.5540   19.8660  -33.3820 F   0  0  0  0  0  0  0  0  0  0  0  0
   -9.0830   22.2370  -31.9670 C   0  0  0  0  0  0  0  0  0  0  0  0
   -9.7391   22.5950  -32.7741 H   0  0  0  0  0  0  0  0  0  0  0  0
   -8.1080   23.0560  -31.5460 C   0  0  0  0  0  0  0  0  0  0  0  0
   -8.1047   24.0798  -31.9482 H   0  0  0  0  0  0  0  0  0  0  0  0
   -7.0360   22.7040  -30.5880 C   0  0  0  0  0  0  0  0  0  0  0  0
   -7.3160   22.6830  -29.3600 O   0  0  0  0  0  0  0  0  0  0  0  0
   -5.6820   22.4470  -31.0050 N   0  0  0  0  0  0  0  0  0  0  0  0
   -4.6270   23.3060  -30.9410 C   0  0  0  0  0  0  0  0  0  0  0  0
   -4.6290   24.6330  -30.2910 C   0  0  0  0  0  0  0  0  0  0  0  0
   -3.9000   25.5490  -30.7550 O   0  0  0  0  0  0  0  0  0  0  0  0
   -5.4000   24.8830  -29.1140 N   0  0  0  0  0  0  0  0  0  0  0  0
   -5.4270   25.8420  -28.7020 H   0  0  0  0  0  0  0  0  0  0  0  0
   -5.8640   24.1070  -28.5950 H   0  0  0  0  0  0  0  0  0  0  0  0
   -3.5060   22.7550  -31.5580 C   0  0  0  0  0  0  0  0  0  0  0  0
   -2.5115   23.2123  -31.6670 H   0  0  0  0  0  0  0  0  0  0  0  0
   -3.9090   21.5160  -32.0020 C   0  0  0  0  0  0  0  0  0  0  0  0
   -3.2000   20.5420  -32.6970 C   0  0  0  0  0  0  0  0  0  0  0  0
   -2.1403   20.6871  -32.9538 H   0  0  0  0  0  0  0  0  0  0  0  0
   -3.8790   19.3670  -33.0610 C   0  0  0  0  0  0  0  0  0  0  0  0
   -3.3424   18.5761  -33.6055 H   0  0  0  0  0  0  0  0  0  0  0  0
   -5.2480   19.1880  -32.7350 C   0  0  0  0  0  0  0  0  0  0  0  0
   -5.9340   17.9790  -33.1230 N   0  0  0  0  0  0  0  0  0  0  0  0
   -6.5070   17.1240  -32.0780 C   0  0  0  0  0  0  0  0  0  0  0  0
   -6.2389   17.5241  -31.0890 H   0  0  0  0  0  0  0  0  0  0  0  0
   -7.6020   17.1034  -32.1806 H   0  0  0  0  0  0  0  0  0  0  0  0
   -6.1098   16.1034  -32.1806 H   0  0  0  0  0  0  0  0  0  0  0  0
   -5.8910   17.4960  -34.5110 C   0  0  0  0  0  0  0  0  0  0  0  0
   -4.6530   16.9350  -34.7690 F   0  0  0  0  0  0  0  0  0  0  0  0
   -6.1150   18.5360  -35.3970 F   0  0  0  0  0  0  0  0  0  0  0  0
   -6.8720   16.5410  -34.7150 F   0  0  0  0  0  0  0  0  0  0  0  0
   -5.9370   20.2120  -32.0440 C   0  0  0  0  0  0  0  0  0  0  0  0
   -7.0065   20.1097  -31.8082 H   0  0  0  0  0  0  0  0  0  0  0  0
   -5.2280   21.3580  -31.6670 C   0  0  0  0  0  0  0  0  0  0  0  0
  1  2  1  0
  2  3  2  0
  3  4  1  0
  3  5  1  0
  2  6  1  0
  6  7  1  0
  6  8  2  0
  8  9  1  0
  8 10  1  0
 10 11  2  0
 10 12  1  0
 12 13  1  0
 13 14  1  0
 14 15  2  0
 14 16  1  0
 16 17  1  0
 16 18  1  0
 13 19  2  0
 19 20  1  0
 19 21  1  0
 21 22  2  0
 22 23  1  0
 22 24  1  0
 24 25  1  0
 24 26  2  0
 26 27  1  0
 27 28  1  0
 28 29  1  0
 28 30  1  0
 28 31  1  0
 27 32  1  0
 32 33  1  0
 32 34  1  0
 32 35  1  0
 26 36  1  0
 36 37  1  0
 36 38  2  0
 38 12  1  0
 38 21  1  0
M  END
>  <UniqueID>  (5) 
5

>  <SMILES>  (5) 
CN(c1ccc2cc(C(N)=O)n(C(=O)/C=C\C=C(F)F)c2c1)C(F)(F)F

>  <Energy>  (5) 
82.61016499335378

>  <Genealogy>  (5) 
CN(c1ccc2cc(C(N)=O)n(C(=O)/C=C\C=C(F)F)c2c1)C(F)(F)F (cis-trans isomerization)
CN(c1ccc2cc(C(N)=O)n(C(=O)/C=C\C=C(F)F)c2c1)C(F)(F)F (3D coordinates assigned)
CN(c1ccc2cc(C(N)=O)n(C(=O)/C=C\C=C(F)F)c2c1)C(F)(F)F (optimized conformer: 82.61016499335378 kcal/mol)

>  <smiles>  (5) 
CN(c1ccc2cc(C(N)=O)n(C(=O)C=CC=C(F)F)c2c1)C(F)(F)F

>  <score_type>  (5) 
oracle

>  <origin>  (5) 
adg

>  <m_score__min__energy>  (5) 
-8.7699999999999996

>  <m_primary>  (5) 
energy

$$$$
5:0
     RDKit          3D

 37 38  0  0  0  0  0  0  0  0999 V2000
   -3.8620   25.2950  -30.7890 N   0  0  0  0  0  0  0  0  0  0  0  0
   -4.8200   24.4860  -30.1130 C   0  0  0  0  0  0  0  0  0  0  0  0
   -5.1620   24.7930  -28.9400 O   0  0  0  0  0  0  0  0  0  0  0  0
   -5.4350   23.3080  -30.7680 C   0  0  0  0  0  0  0  0  0  0  0  0
   -6.7480   23.2900  -31.2360 C   0  0  0  0  0  0  0  0  0  0  0  0
   -6.9250   22.0400  -31.7810 C   0  0  0  0  0  0  0  0  0  0  0  0
   -8.0510   21.4720  -32.3700 C   0  0  0  0  0  0  0  0  0  0  0  0
   -7.9630   20.1430  -32.8150 C   0  0  0  0  0  0  0  0  0  0  0  0
   -6.7630   19.4120  -32.6520 C   0  0  0  0  0  0  0  0  0  0  0  0
   -6.6880   18.0460  -33.0970 C   0  0  0  0  0  0  0  0  0  0  0  0
   -6.6250   16.9020  -33.4700 C   0  0  0  0  0  0  0  0  0  0  0  0
   -6.5510   15.5390  -33.9140 C   0  0  0  0  0  0  0  0  0  0  0  0
   -5.5550   14.8320  -33.6140 O   0  0  0  0  0  0  0  0  0  0  0  0
   -7.5790   15.0010  -34.6760 O   0  0  0  0  0  0  0  0  0  0  0  0
   -5.6410   20.0140  -32.0470 C   0  0  0  0  0  0  0  0  0  0  0  0
   -5.7500   21.3470  -31.6350 C   0  0  0  0  0  0  0  0  0  0  0  0
   -4.8190   22.1180  -31.0280 N   0  0  0  0  0  0  0  0  0  0  0  0
   -3.4830   21.7280  -30.6670 C   0  0  0  0  0  0  0  0  0  0  0  0
   -3.2190   20.5050  -30.5160 O   0  0  0  0  0  0  0  0  0  0  0  0
   -2.3670   22.7340  -30.5210 C   0  0  0  0  0  0  0  0  0  0  0  0
   -1.7240   22.7640  -29.1240 C   0  0  0  0  0  0  0  0  0  0  0  0
   -0.4490   23.6110  -29.0860 C   0  0  0  0  0  0  0  0  0  0  0  0
   -0.7410   25.1510  -28.2340 S   0  0  0  0  0  0  0  0  0  0  0  0
    0.5160   25.5970  -27.5430 O   0  0  0  0  0  0  0  0  0  0  0  0
   -1.8270   24.9570  -27.2150 O   0  0  0  0  0  0  0  0  0  0  0  0
   -1.2200   26.3250  -29.3360 O   0  0  0  0  0  0  0  0  0  0  0  0
   -4.1250   26.2240  -31.1820 H   0  0  0  0  0  0  0  0  0  0  0  0
   -7.4863   24.1036  -31.1810 H   0  0  0  0  0  0  0  0  0  0  0  0
   -8.9819   22.0469  -32.4835 H   0  0  0  0  0  0  0  0  0  0  0  0
   -8.8322   19.6677  -33.2931 H   0  0  0  0  0  0  0  0  0  0  0  0
   -4.7065   19.4520  -31.9029 H   0  0  0  0  0  0  0  0  0  0  0  0
   -1.5851   22.4909  -31.2555 H   0  0  0  0  0  0  0  0  0  0  0  0
   -2.8124   23.7263  -30.6854 H   0  0  0  0  0  0  0  0  0  0  0  0
   -2.4484   23.1840  -28.4107 H   0  0  0  0  0  0  0  0  0  0  0  0
   -1.4491   21.7323  -28.8592 H   0  0  0  0  0  0  0  0  0  0  0  0
    0.3403   23.0522  -28.5618 H   0  0  0  0  0  0  0  0  0  0  0  0
   -0.1393   23.8309  -30.1183 H   0  0  0  0  0  0  0  0  0  0  0  0
  1  2  1  0
  2  3  2  0
  2  4  1  0
  4  5  2  0
  5  6  1  0
  6  7  2  0
  7  8  1  0
  8  9  2  0
  9 10  1  0
 10 11  3  0
 11 12  1  0
 12 13  2  0
 12 14  1  0
  9 15  1  0
 15 16  2  0
 16 17  1  0
 17 18  1  0
 18 19  2  0
 18 20  1  0
 20 21  1  0
 21 22  1  0
 22 23  1  0
 23 24  2  0
 23 25  2  0
 23 26  1  0
 17  4  1  0
 16  6  1  0
  1 27  1  0
  5 28  1  0
  7 29  1  0
  8 30  1  0
 15 31  1  0
 20 32  1  0
 20 33  1  0
 21 34  1  0
 21 35  1  0
 22 36  1  0
 22 37  1  0
M  CHG  3   1  -1  14  -1  26  -1
M  END
>  <UniqueID>  (6) 
6

>  <SMILES>  (6) 
[NH-]C(=O)c1cc2ccc(C#CC(=O)[O-])cc2n1C(=O)CCCS(=O)(=O)[O-]

>  <Energy>  (6) 
64.45201159117389

>  <Genealogy>  (6) 
[NH-]C(=O)c1cc2ccc(C#CC(=O)[O-])cc2n1C(=O)CCCS(=O)(=O)[O-] (protonated)
[NH-]C(=O)c1cc2ccc(C#CC(=O)[O-])cc2n1C(=O)CCCS(=O)(=O)[O-] (3D coordinates assigned)
[NH-]C(=O)c1cc2ccc(C#CC(=O)[O-])cc2n1C(=O)CCCS(=O)(=O)[O-] (optimized conformer: 64.45201159117389 kcal/mol)

>  <smiles>  (6) 
NC(=O)c1cc2ccc(C#CC(=O)O)cc2n1C(=O)CCCS(=O)(=O)O

>  <score_type>  (6) 
oracle

>  <origin>  (6) 
adg

>  <m_score__min__energy>  (6) 
-14.35

>  <m_primary>  (6) 
energy

$$$$
6:0
     RDKit          3D

 36 37  0  0  0  0  0  0  0  0999 V2000
   -7.4620   17.7390  -32.7480 C   0  0  0  0  0  0  0  0  0  0  0  0
   -8.1840   18.9710  -33.0470 N   0  0  0  0  0  0  0  0  0  0  0  0
   -7.9020   20.2310  -32.4100 C   0  0  0  0  0  0  0  0  0  0  0  0
   -8.9620   21.1490  -32.1980 C   0  0  0  0  0  0  0  0  0  0  0  0
   -8.7330   22.3850  -31.5680 C   0  0  0  0  0  0  0  0  0  0  0  0
   -7.4330   22.6770  -31.1590 C   0  0  0  0  0  0  0  0  0  0  0  0
   -6.9320   23.7830  -30.5100 C   0  0  0  0  0  0  0  0  0  0  0  0
   -5.5690   23.5320  -30.3510 C   0  0  0  0  0  0  0  0  0  0  0  0
   -4.6200   24.4980  -29.7560 C   0  0  0  0  0  0  0  0  0  0  0  0
   -3.8620   25.3820  -30.5770 N   0  0  0  0  0  0  0  0  0  0  0  0
   -4.4980   24.5630  -28.5030 O   0  0  0  0  0  0  0  0  0  0  0  0
   -5.2470   22.3180  -30.8770 N   0  0  0  0  0  0  0  0  0  0  0  0
   -3.9720   21.6620  -30.8750 C   0  0  0  0  0  0  0  0  0  0  0  0
   -3.8810   20.4770  -30.4550 O   0  0  0  0  0  0  0  0  0  0  0  0
   -2.7290   22.4140  -31.2520 C   0  0  0  0  0  0  0  0  0  0  0  0
   -1.7570   22.4820  -30.0740 C   0  0  0  0  0  0  0  0  0  0  0  0
   -1.4930   23.8340  -29.7560 O   0  0  0  0  0  0  0  0  0  0  0  0
   -1.4070   23.9800  -28.3570 C   0  0  0  0  0  0  0  0  0  0  0  0
   -6.3960   21.8090  -31.3700 C   0  0  0  0  0  0  0  0  0  0  0  0
   -6.5940   20.5700  -31.9880 C   0  0  0  0  0  0  0  0  0  0  0  0
   -7.3880   17.6127  -31.6578 H   0  0  0  0  0  0  0  0  0  0  0  0
   -8.0017   16.8836  -33.1804 H   0  0  0  0  0  0  0  0  0  0  0  0
   -6.4519   17.7918  -33.1804 H   0  0  0  0  0  0  0  0  0  0  0  0
   -8.9470   18.9250  -33.7600 H   0  0  0  0  0  0  0  0  0  0  0  0
   -9.9779   20.8904  -32.5312 H   0  0  0  0  0  0  0  0  0  0  0  0
   -9.5537   23.0987  -31.4032 H   0  0  0  0  0  0  0  0  0  0  0  0
   -7.4882   24.6749  -30.1858 H   0  0  0  0  0  0  0  0  0  0  0  0
   -2.8220   25.3000  -30.6380 H   0  0  0  0  0  0  0  0  0  0  0  0
   -2.2397   21.9027  -32.0941 H   0  0  0  0  0  0  0  0  0  0  0  0
   -3.0098   23.4387  -31.5369 H   0  0  0  0  0  0  0  0  0  0  0  0
   -2.2026   21.9809  -29.2020 H   0  0  0  0  0  0  0  0  0  0  0  0
   -0.8169   21.9798  -30.3459 H   0  0  0  0  0  0  0  0  0  0  0  0
   -1.9072   23.1309  -27.8683 H   0  0  0  0  0  0  0  0  0  0  0  0
   -0.3495   24.0057  -28.0553 H   0  0  0  0  0  0  0  0  0  0  0  0
   -1.8972   24.9174  -28.0553 H   0  0  0  0  0  0  0  0  0  0  0  0
   -5.7543   19.8763  -32.1423 H   0  0  0  0  0  0  0  0  0  0  0  0
  1  2  1  0
  2  3  1  0
  3  4  2  0
  4  5  1  0
  5  6  2  0
  6  7  1  0
  7  8  2  0
  8  9  1  0
  9 10  1  0
  9 11  2  0
  8 12  1  0
 12 13  1  0
 13 14  2  0
 13 15  1  0
 15 16  1  0
 16 17  1  0
 17 18  1  0
 12 19  1  0
 19 20  2  0
 20  3  1  0
 19  6  1  0
  1 21  1  0
  1 22  1  0
  1 23  1  0
  2 24  1  0
  4 25  1  0
  5 26  1  0
  7 27  1  0
 10 28  1  0
 15 29  1  0
 15 30  1  0
 16 31  1  0
 16 32  1  0
 18 33  1  0
 18 34  1  0
 18 35  1  0
 20 36  1  0
M  CHG  1  10  -1
M  END
>  <UniqueID>  (7) 
7

>  <SMILES>  (7) 
CNc1ccc2cc(C([NH-])=O)n(C(=O)CCOC)c2c1

>  <Energy>  (7) 
70.89727003867938

>  <Genealogy>  (7) 
CNc1ccc2cc(C([NH-])=O)n(C(=O)CCOC)c2c1 (protonated)
CNc1ccc2cc(C([NH-])=O)n(C(=O)CCOC)c2c1 (3D coordinates assigned)
CNc1ccc2cc(C([NH-])=O)n(C(=O)CCOC)c2c1 (optimized conformer: 70.89727003867938 kcal/mol)

>  <smiles>  (7) 
CNc1ccc2cc(C(N)=O)n(C(=O)CCOC)c2c1

>  <score_type>  (7) 
oracle

>  <origin>  (7) 
adg

>  <m_score__min__energy>  (7) 
-9.6099999999999994

>  <m_primary>  (7) 
energy

$$$$
7:0
     RDKit          3D

 53 55  0  0  0  0  0  0  0  0999 V2000
    4.5020   22.7280  -35.3280 C   0  0  0  0  0  0  0  0  0  0  0  0
    3.5400   23.3120  -36.3740 C   0  0  0  0  0  0  0  0  0  0  0  0
    4.3620   23.8680  -37.5540 C   0  0  0  0  0  0  0  0  0  0  0  0
    2.7080   24.4300  -35.7160 C   0  0  0  0  0  0  0  0  0  0  0  0
    2.6870   22.2440  -36.8130 O   0  0  0  0  0  0  0  0  0  0  0  0
    2.9870   20.8760  -36.7710 C   0  0  0  0  0  0  0  0  0  0  0  0
    3.2320   20.2310  -37.8260 O   0  0  0  0  0  0  0  0  0  0  0  0
    2.9960   20.2150  -35.5010 N   0  0  0  0  0  0  0  0  0  0  0  0
    1.8860   20.1800  -34.5450 C   0  0  0  0  0  0  0  0  0  0  0  0
    1.3130   21.6010  -34.2840 C   0  0  0  0  0  0  0  0  0  0  0  0
   -0.1810   21.7220  -34.6080 C   0  0  0  0  0  0  0  0  0  0  0  0
   -0.9290   20.6160  -33.9920 N   0  0  0  0  0  0  0  0  0  0  0  0
   -2.2240   20.8560  -33.4000 C   0  0  0  0  0  0  0  0  0  0  0  0
   -3.3190   20.0090  -33.7130 C   0  0  0  0  0  0  0  0  0  0  0  0
   -4.5720   20.2070  -33.1150 C   0  0  0  0  0  0  0  0  0  0  0  0
   -4.7110   21.2640  -32.2220 C   0  0  0  0  0  0  0  0  0  0  0  0
   -5.8000   21.6550  -31.4800 C   0  0  0  0  0  0  0  0  0  0  0  0
   -5.3720   22.7620  -30.7530 C   0  0  0  0  0  0  0  0  0  0  0  0
   -6.2530   23.5320  -29.8540 C   0  0  0  0  0  0  0  0  0  0  0  0
   -5.7930   24.7130  -29.1970 N   0  0  0  0  0  0  0  0  0  0  0  0
   -7.4530   23.1740  -29.7130 O   0  0  0  0  0  0  0  0  0  0  0  0
   -4.0660   23.0440  -31.0270 N   0  0  0  0  0  0  0  0  0  0  0  0
   -3.2420   24.0470  -30.4110 C   0  0  0  0  0  0  0  0  0  0  0  0
   -3.5310   25.2670  -30.5200 O   0  0  0  0  0  0  0  0  0  0  0  0
   -2.1300   23.6770  -29.6650 O   0  0  0  0  0  0  0  0  0  0  0  0
   -3.6750   22.1140  -31.9280 C   0  0  0  0  0  0  0  0  0  0  0  0
   -2.4080   21.9260  -32.4940 C   0  0  0  0  0  0  0  0  0  0  0  0
   -0.4140   19.2400  -34.0810 C   0  0  0  0  0  0  0  0  0  0  0  0
    0.8200   19.1590  -34.9880 C   0  0  0  0  0  0  0  0  0  0  0  0
    4.1280   22.9550  -34.3187 H   0  0  0  0  0  0  0  0  0  0  0  0
    4.5673   21.6377  -35.4582 H   0  0  0  0  0  0  0  0  0  0  0  0
    5.4994   23.1732  -35.4582 H   0  0  0  0  0  0  0  0  0  0  0  0
    5.2149   24.4449  -37.1671 H   0  0  0  0  0  0  0  0  0  0  0  0
    4.7320   23.0339  -38.1684 H   0  0  0  0  0  0  0  0  0  0  0  0
    3.7256   24.5218  -38.1684 H   0  0  0  0  0  0  0  0  0  0  0  0
    2.7744   24.3408  -34.6216 H   0  0  0  0  0  0  0  0  0  0  0  0
    3.0984   25.4098  -36.0284 H   0  0  0  0  0  0  0  0  0  0  0  0
    1.6574   24.3374  -36.0284 H   0  0  0  0  0  0  0  0  0  0  0  0
    2.2673   19.8330  -33.5733 H   0  0  0  0  0  0  0  0  0  0  0  0
    1.4610   21.8474  -33.2222 H   0  0  0  0  0  0  0  0  0  0  0  0
    1.8477   22.2949  -34.9492 H   0  0  0  0  0  0  0  0  0  0  0  0
   -0.5604   22.6780  -34.2180 H   0  0  0  0  0  0  0  0  0  0  0  0
   -0.3146   21.6799  -35.6990 H   0  0  0  0  0  0  0  0  0  0  0  0
   -3.1834   19.1882  -34.4326 H   0  0  0  0  0  0  0  0  0  0  0  0
   -5.4201   19.5455  -33.3456 H   0  0  0  0  0  0  0  0  0  0  0  0
   -6.7975   21.1916  -31.4641 H   0  0  0  0  0  0  0  0  0  0  0  0
   -6.4180   25.2200  -28.5320 H   0  0  0  0  0  0  0  0  0  0  0  0
   -4.8650   25.1320  -29.4250 H   0  0  0  0  0  0  0  0  0  0  0  0
   -1.5738   22.5963  -32.2393 H   0  0  0  0  0  0  0  0  0  0  0  0
   -0.1400   18.8951  -33.0731 H   0  0  0  0  0  0  0  0  0  0  0  0
   -1.2013   18.6041  -34.5120 H   0  0  0  0  0  0  0  0  0  0  0  0
    1.2443   18.1457  -34.9316 H   0  0  0  0  0  0  0  0  0  0  0  0
    0.5171   19.3875  -36.0205 H   0  0  0  0  0  0  0  0  0  0  0  0
  1  2  1  0
  2  3  1  0
  2  4  1  0
  2  5  1  0
  5  6  1  0
  6  7  2  0
  6  8  1  0
  8  9  1  0
  9 10  1  0
 10 11  1  0
 11 12  1  0
 12 13  1  0
 13 14  2  0
 14 15  1  0
 15 16  2  0
 16 17  1  0
 17 18  2  0
 18 19  1  0
 19 20  1  0
 19 21  2  0
 18 22  1  0
 22 23  1  0
 23 24  2  0
 23 25  1  0
 22 26  1  0
 26 27  2  0
 12 28  1  0
 28 29  1  0
 29  9  1  0
 27 13  1  0
 26 16  1  0
  1 30  1  0
  1 31  1  0
  1 32  1  0
  3 33  1  0
  3 34  1  0
  3 35  1  0
  4 36  1  0
  4 37  1  0
  4 38  1  0
  9 39  1  0
 10 40  1  0
 10 41  1  0
 11 42  1  0
 11 43  1  0
 14 44  1  0
 15 45  1  0
 17 46  1  0
 20 47  1  0
 20 48  1  0
 27 49  1  0
 28 50  1  0
 28 51  1  0
 29 52  1  0
 29 53  1  0
M  CHG  2   8  -1  25  -1
M  END
>  <UniqueID>  (8) 
8

>  <SMILES>  (8) 
CC(C)(C)OC(=O)[N-]C1CCN(c2ccc3cc(C(N)=O)n(C(=O)[O-])c3c2)CC1

>  <Energy>  (8) 
94.34116533059127

>  <Genealogy>  (8) 
CC(C)(C)OC(=O)[N-]C1CCN(c2ccc3cc(C(N)=O)n(C(=O)[O-])c3c2)CC1 (protonated)
CC(C)(C)OC(=O)[N-]C1CCN(c2ccc3cc(C(N)=O)n(C(=O)[O-])c3c2)CC1 (3D coordinates assigned)
CC(C)(C)OC(=O)[N-]C1CCN(c2ccc3cc(C(N)=O)n(C(=O)[O-])c3c2)CC1 (nonaromatic ring conformer: 94.34116533059127 kcal/mol)

>  <smiles>  (8) 
CC(C)(C)OC(=O)NC1CCN(c2ccc3cc(C(N)=O)n(C(=O)O)c3c2)CC1

>  <score_type>  (8) 
oracle

>  <origin>  (8) 
adg

>  <m_score__min__energy>  (8) 
-9.5800000000000001

>  <m_primary>  (8) 
energy

$$$$
8:0
     RDKit          3D

 42 43  0  0  0  0  0  0  0  0999 V2000
   -7.2580   23.2950  -32.3530 C   0  0  0  0  0  0  0  0  0  0  0  0
   -7.6550   22.4500  -31.3950 C   0  0  0  0  0  0  0  0  0  0  0  0
   -7.2980   22.7280  -29.9600 C   0  0  0  0  0  0  0  0  0  0  0  0
   -8.3760   21.2020  -31.7300 C   0  0  0  0  0  0  0  0  0  0  0  0
   -9.0470   20.5950  -30.8490 O   0  0  0  0  0  0  0  0  0  0  0  0
   -8.3060   20.6960  -33.0340 O   0  0  0  0  0  0  0  0  0  0  0  0
   -7.3120   19.7710  -33.4670 C   0  0  0  0  0  0  0  0  0  0  0  0
   -5.9230   20.4180  -33.4260 C   0  0  0  0  0  0  0  0  0  0  0  0
   -5.0470   19.7130  -32.4780 N   0  0  0  0  0  0  0  0  0  0  0  0
   -5.3830   18.3310  -32.1160 C   0  0  0  0  0  0  0  0  0  0  0  0
   -3.8950   20.3650  -31.8810 C   0  0  0  0  0  0  0  0  0  0  0  0
   -2.6110   19.7510  -31.9130 C   0  0  0  0  0  0  0  0  0  0  0  0
   -1.4910   20.3860  -31.3520 C   0  0  0  0  0  0  0  0  0  0  0  0
   -1.6720   21.6280  -30.7590 C   0  0  0  0  0  0  0  0  0  0  0  0
   -0.7560   22.4690  -30.1700 C   0  0  0  0  0  0  0  0  0  0  0  0
   -1.4860   23.5800  -29.7580 C   0  0  0  0  0  0  0  0  0  0  0  0
   -0.8970   24.7010  -28.9950 C   0  0  0  0  0  0  0  0  0  0  0  0
   -1.5420   25.9700  -28.9370 N   0  0  0  0  0  0  0  0  0  0  0  0
    0.1660   24.5210  -28.3440 O   0  0  0  0  0  0  0  0  0  0  0  0
   -2.8010   23.4380  -30.0890 N   0  0  0  0  0  0  0  0  0  0  0  0
   -3.8630   24.3910  -29.9180 C   0  0  0  0  0  0  0  0  0  0  0  0
   -3.8980   25.4360  -30.6210 O   0  0  0  0  0  0  0  0  0  0  0  0
   -4.8740   24.1580  -28.9940 O   0  0  0  0  0  0  0  0  0  0  0  0
   -2.8980   22.2360  -30.7000 C   0  0  0  0  0  0  0  0  0  0  0  0
   -4.0290   21.6370  -31.2660 C   0  0  0  0  0  0  0  0  0  0  0  0
   -7.5165   23.0961  -33.4035 H   0  0  0  0  0  0  0  0  0  0  0  0
   -6.6730   24.1887  -32.0902 H   0  0  0  0  0  0  0  0  0  0  0  0
   -7.9914   22.1881  -29.2984 H   0  0  0  0  0  0  0  0  0  0  0  0
   -6.2690   22.3910  -29.7662 H   0  0  0  0  0  0  0  0  0  0  0  0
   -7.3726   23.8082  -29.7662 H   0  0  0  0  0  0  0  0  0  0  0  0
   -7.3219   18.8926  -32.8050 H   0  0  0  0  0  0  0  0  0  0  0  0
   -7.5335   19.4687  -34.5012 H   0  0  0  0  0  0  0  0  0  0  0  0
   -5.4757   20.3762  -34.4301 H   0  0  0  0  0  0  0  0  0  0  0  0
   -6.0298   21.4625  -33.0980 H   0  0  0  0  0  0  0  0  0  0  0  0
   -5.4065   18.2343  -31.0205 H   0  0  0  0  0  0  0  0  0  0  0  0
   -6.3699   18.0736  -32.5281 H   0  0  0  0  0  0  0  0  0  0  0  0
   -4.6244   17.6493  -32.5281 H   0  0  0  0  0  0  0  0  0  0  0  0
   -2.4943   18.7640  -32.3844 H   0  0  0  0  0  0  0  0  0  0  0  0
   -0.4985   19.9126  -31.3817 H   0  0  0  0  0  0  0  0  0  0  0  0
    0.3242   22.2992  -30.0502 H   0  0  0  0  0  0  0  0  0  0  0  0
   -2.5820   26.0460  -28.9660 H   0  0  0  0  0  0  0  0  0  0  0  0
   -5.0050   22.1433  -31.2348 H   0  0  0  0  0  0  0  0  0  0  0  0
  1  2  2  0
  2  3  1  0
  2  4  1  0
  4  5  2  0
  4  6  1  0
  6  7  1  0
  7  8  1  0
  8  9  1  0
  9 10  1  0
  9 11  1  0
 11 12  2  0
 12 13  1  0
 13 14  2  0
 14 15  1  0
 15 16  2  0
 16 17  1  0
 17 18  1  0
 17 19  2  0
 16 20  1  0
 20 21  1  0
 21 22  2  0
 21 23  1  0
 20 24  1  0
 24 25  2  0
 25 11  1  0
 24 14  1  0
  1 26  1  0
  1 27  1  0
  3 28  1  0
  3 29  1  0
  3 30  1  0
  7 31  1  0
  7 32  1  0
  8 33  1  0
  8 34  1  0
 10 35  1  0
 10 36  1  0
 10 37  1  0
 12 38  1  0
 13 39  1  0
 15 40  1  0
 18 41  1  0
 25 42  1  0
M  CHG  2  18  -1  23  -1
M  END
>  <UniqueID>  (9) 
9

>  <SMILES>  (9) 
C=C(C)C(=O)OCCN(C)c1ccc2cc(C([NH-])=O)n(C(=O)[O-])c2c1

>  <Energy>  (9) 
79.25187709490302

>  <Genealogy>  (9) 
C=C(C)C(=O)OCCN(C)c1ccc2cc(C([NH-])=O)n(C(=O)[O-])c2c1 (protonated)
C=C(C)C(=O)OCCN(C)c1ccc2cc(C([NH-])=O)n(C(=O)[O-])c2c1 (3D coordinates assigned)
C=C(C)C(=O)OCCN(C)c1ccc2cc(C([NH-])=O)n(C(=O)[O-])c2c1 (optimized conformer: 79.25187709490302 kcal/mol)

>  <smiles>  (9) 
C=C(C)C(=O)OCCN(C)c1ccc2cc(C(N)=O)n(C(=O)O)c2c1

>  <score_type>  (9) 
oracle

>  <origin>  (9) 
adg

>  <m_score__min__energy>  (9) 
-11.210000000000001

>  <m_primary>  (9) 
energy

$$$$
9:0
     RDKit          3D

 40 41  0  0  0  0  0  0  0  0999 V2000
   -7.5970   17.3840  -32.7630 C   0  0  0  0  0  0  0  0  0  0  0  0
   -6.3310   18.1340  -32.3160 C   0  0  1  0  0  0  0  0  0  0  0  0
   -5.1390   17.9240  -33.2790 C   0  0  0  0  0  0  0  0  0  0  0  0
   -5.5280   17.7110  -34.7500 C   0  0  0  0  0  0  0  0  0  0  0  0
   -6.0670   18.8920  -35.2790 O   0  0  0  0  0  0  0  0  0  0  0  0
   -6.5770   19.6040  -32.0150 C   0  0  0  0  0  0  0  0  0  0  0  0
   -7.9100   20.0940  -32.0120 C   0  0  0  0  0  0  0  0  0  0  0  0
   -8.1860   21.4340  -31.6940 C   0  0  0  0  0  0  0  0  0  0  0  0
   -7.1140   22.2640  -31.3790 C   0  0  0  0  0  0  0  0  0  0  0  0
   -7.1020   23.5860  -30.9980 C   0  0  0  0  0  0  0  0  0  0  0  0
   -5.7610   23.8940  -30.7770 C   0  0  0  0  0  0  0  0  0  0  0  0
   -5.2820   25.2450  -30.4210 C   0  0  0  0  0  0  0  0  0  0  0  0
   -3.9880   25.6730  -30.8440 N   0  0  0  0  0  0  0  0  0  0  0  0
   -5.9860   26.0160  -29.7170 O   0  0  0  0  0  0  0  0  0  0  0  0
   -4.9770   22.8030  -31.0090 N   0  0  0  0  0  0  0  0  0  0  0  0
   -3.5590   22.6840  -30.8160 C   0  0  0  0  0  0  0  0  0  0  0  0
   -2.8770   21.9680  -31.5980 O   0  0  0  0  0  0  0  0  0  0  0  0
   -2.9450   23.3450  -29.7450 O   0  0  0  0  0  0  0  0  0  0  0  0
   -1.5750   23.1660  -29.3960 C   0  0  0  0  0  0  0  0  0  0  0  0
   -0.9450   24.4810  -29.0650 C   0  0  0  0  0  0  0  0  0  0  0  0
    0.2190   24.5200  -28.5870 O   0  0  0  0  0  0  0  0  0  0  0  0
   -1.6280   25.6650  -29.3120 O   0  0  0  0  0  0  0  0  0  0  0  0
   -5.8200   21.8150  -31.3790 C   0  0  0  0  0  0  0  0  0  0  0  0
   -5.5170   20.4810  -31.6760 C   0  0  0  0  0  0  0  0  0  0  0  0
   -8.1582   17.0515  -31.8773 H   0  0  0  0  0  0  0  0  0  0  0  0
   -8.2269   18.0547  -33.3657 H   0  0  0  0  0  0  0  0  0  0  0  0
   -7.3114   16.5093  -33.3657 H   0  0  0  0  0  0  0  0  0  0  0  0
   -6.0441   17.6745  -31.3586 H   0  0  0  0  0  0  0  0  0  0  0  0
   -4.4922   18.8118  -33.2213 H   0  0  0  0  0  0  0  0  0  0  0  0
   -4.6383   16.9999  -32.9545 H   0  0  0  0  0  0  0  0  0  0  0  0
   -4.6344   17.4284  -35.3259 H   0  0  0  0  0  0  0  0  0  0  0  0
   -6.2803   16.9110  -34.8124 H   0  0  0  0  0  0  0  0  0  0  0  0
   -7.0040   18.9480  -34.9550 H   0  0  0  0  0  0  0  0  0  0  0  0
   -8.7380   19.4145  -32.2623 H   0  0  0  0  0  0  0  0  0  0  0  0
   -9.2176   21.8157  -31.6939 H   0  0  0  0  0  0  0  0  0  0  0  0
   -7.9669   24.2571  -30.8907 H   0  0  0  0  0  0  0  0  0  0  0  0
   -3.1250   25.2840  -30.4040 H   0  0  0  0  0  0  0  0  0  0  0  0
   -1.5075   22.5016  -28.5219 H   0  0  0  0  0  0  0  0  0  0  0  0
   -1.0443   22.7214  -30.2508 H   0  0  0  0  0  0  0  0  0  0  0  0
   -4.4779   20.1212  -31.6468 H   0  0  0  0  0  0  0  0  0  0  0  0
  1  2  1  0
  2  3  1  0
  3  4  1  0
  4  5  1  0
  2  6  1  0
  6  7  2  0
  7  8  1  0
  8  9  2  0
  9 10  1  0
 10 11  2  0
 11 12  1  0
 12 13  1  0
 12 14  2  0
 11 15  1  0
 15 16  1  0
 16 17  2  0
 16 18  1  0
 18 19  1  0
 19 20  1  0
 20 21  2  0
 20 22  1  0
 15 23  1  0
 23 24  2  0
 24  6  1  0
 23  9  1  0
  1 25  1  0
  1 26  1  0
  1 27  1  0
  2 28  1  1
  3 29  1  0
  3 30  1  0
  4 31  1  0
  4 32  1  0
  5 33  1  0
  7 34  1  0
  8 35  1  0
 10 36  1  0
 13 37  1  0
 19 38  1  0
 19 39  1  0
 24 40  1  0
M  CHG  2  13  -1  22  -1
M  END
>  <UniqueID>  (10) 
10

>  <SMILES>  (10) 
C[C@@H](CCO)c1ccc2cc(C([NH-])=O)n(C(=O)OCC(=O)[O-])c2c1

>  <Energy>  (10) 
73.97496440462731

>  <Genealogy>  (10) 
CC(CCO)c1ccc2cc(C([NH-])=O)n(C(=O)OCC(=O)[O-])c2c1 (protonated)
C[C@@H](CCO)c1ccc2cc(C([NH-])=O)n(C(=O)OCC(=O)[O-])c2c1 (chirality)
C[C@@H](CCO)c1ccc2cc(C([NH-])=O)n(C(=O)OCC(=O)[O-])c2c1 (3D coordinates assigned)
C[C@@H](CCO)c1ccc2cc(C([NH-])=O)n(C(=O)OCC(=O)[O-])c2c1 (optimized conformer: 73.97496440462731 kcal/mol)

>  <smiles>  (10) 
CC(CCO)c1ccc2cc(C(N)=O)n(C(=O)OCC(=O)O)c2c1

>  <score_type>  (10) 
oracle

>  <origin>  (10) 
adg

>  <m_score__min__energy>  (10) 
-12.82

>  <m_primary>  (10) 
energy

$$$$
10:0
     RDKit          3D

 45 46  0  0  0  0  0  0  0  0999 V2000
   -3.1010   25.2830  -30.1950 H   0  0  0  0  0  0  0  0  0  0  0  0
   -3.8880   25.3390  -30.8810 N   0  0  0  0  0  0  0  0  0  0  0  0
   -5.2410   25.1940  -30.4540 C   0  0  0  0  0  0  0  0  0  0  0  0
   -5.7560   26.0820  -29.7250 O   0  0  0  0  0  0  0  0  0  0  0  0
   -6.0040   23.9850  -30.8290 C   0  0  0  0  0  0  0  0  0  0  0  0
   -7.3950   23.9480  -30.8950 C   0  0  0  0  0  0  0  0  0  0  0  0
   -8.0968   24.7489  -30.6192 H   0  0  0  0  0  0  0  0  0  0  0  0
   -7.7050   22.6980  -31.3780 C   0  0  0  0  0  0  0  0  0  0  0  0
   -8.9430   22.1240  -31.6440 C   0  0  0  0  0  0  0  0  0  0  0  0
   -9.8743   22.6862  -31.4810 H   0  0  0  0  0  0  0  0  0  0  0  0
   -8.9700   20.8050  -32.1270 C   0  0  0  0  0  0  0  0  0  0  0  0
   -9.9351   20.3291  -32.3554 H   0  0  0  0  0  0  0  0  0  0  0  0
   -7.7630   20.0780  -32.3240 C   0  0  0  0  0  0  0  0  0  0  0  0
   -7.7630   18.7220  -32.8130 N   0  0  0  0  0  0  0  0  0  0  0  0
   -8.2290   18.5260  -33.7290 H   0  0  0  0  0  0  0  0  0  0  0  0
   -7.1520   17.5870  -32.1230 C   0  0  0  0  0  0  0  0  0  0  0  0
   -6.7875   17.9158  -31.1386 H   0  0  0  0  0  0  0  0  0  0  0  0
   -7.9068   16.7957  -32.0040 H   0  0  0  0  0  0  0  0  0  0  0  0
   -5.9780   17.0320  -32.9350 C   0  0  0  0  0  0  0  0  0  0  0  0
   -5.0499   17.1463  -32.3558 H   0  0  0  0  0  0  0  0  0  0  0  0
   -6.1609   15.9683  -33.1475 H   0  0  0  0  0  0  0  0  0  0  0  0
   -5.8490   17.7570  -34.2040 C   0  0  0  0  0  0  0  0  0  0  0  0
   -5.7460   18.3280  -35.2050 N   0  0  0  0  0  0  0  0  0  0  0  0
   -6.5280   20.7020  -32.0430 C   0  0  0  0  0  0  0  0  0  0  0  0
   -5.5815   20.1594  -32.1837 H   0  0  0  0  0  0  0  0  0  0  0  0
   -6.5300   22.0240  -31.5820 C   0  0  0  0  0  0  0  0  0  0  0  0
   -5.4740   22.7990  -31.2460 N   0  0  0  0  0  0  0  0  0  0  0  0
   -4.0900   22.4120  -31.2870 C   0  0  0  0  0  0  0  0  0  0  0  0
   -3.4060   22.6160  -32.3260 O   0  0  0  0  0  0  0  0  0  0  0  0
   -3.5000   21.8440  -30.1570 O   0  0  0  0  0  0  0  0  0  0  0  0
   -2.2310   22.2480  -29.6510 C   0  0  0  0  0  0  0  0  0  0  0  0
   -1.4961   22.2429  -30.4695 H   0  0  0  0  0  0  0  0  0  0  0  0
   -1.9221   21.5472  -28.8614 H   0  0  0  0  0  0  0  0  0  0  0  0
   -2.3150   23.6280  -29.0710 C   0  0  0  0  0  0  0  0  0  0  0  0
   -1.4320   24.5250  -29.3870 N   0  0  0  0  0  0  0  0  0  0  0  0
   -1.4690   25.7970  -28.8610 O   0  0  0  0  0  0  0  0  0  0  0  0
   -0.8260   26.0790  -27.6300 C   0  0  0  0  0  0  0  0  0  0  0  0
   -1.4846   25.7901  -26.7977 H   0  0  0  0  0  0  0  0  0  0  0  0
    0.1136   25.5104  -27.5684 H   0  0  0  0  0  0  0  0  0  0  0  0
   -0.6079   27.1554  -27.5684 H   0  0  0  0  0  0  0  0  0  0  0  0
   -3.6460   24.0120  -27.9240 S   0  0  0  0  0  0  0  0  0  0  0  0
   -3.9450   22.2710  -27.4940 C   0  0  0  0  0  0  0  0  0  0  0  0
   -3.9638   22.1616  -26.3996 H   0  0  0  0  0  0  0  0  0  0  0  0
   -4.9112   21.9510  -27.9111 H   0  0  0  0  0  0  0  0  0  0  0  0
   -3.1409   21.6470  -27.9111 H   0  0  0  0  0  0  0  0  0  0  0  0
  1  2  1  0
  2  3  1  0
  3  4  2  0
  3  5  1  0
  5  6  2  0
  6  7  1  0
  6  8  1  0
  8  9  2  0
  9 10  1  0
  9 11  1  0
 11 12  1  0
 11 13  2  0
 13 14  1  0
 14 15  1  0
 14 16  1  0
 16 17  1  0
 16 18  1  0
 16 19  1  0
 19 20  1  0
 19 21  1  0
 19 22  1  0
 22 23  3  0
 13 24  1  0
 24 25  1  0
 24 26  2  0
 26 27  1  0
 27 28  1  0
 28 29  2  0
 28 30  1  0
 30 31  1  0
 31 32  1  0
 31 33  1  0
 31 34  1  0
 34 35  2  0
 35 36  1  0
 36 37  1  0
 37 38  1  0
 37 39  1  0
 37 40  1  0
 34 41  1  0
 41 42  1  0
 42 43  1  0
 42 44  1  0
 42 45  1  0
 27  5  1  0
 26  8  1  0
M  CHG  1   2  -1
M  END
>  <UniqueID>  (11) 
11

>  <SMILES>  (11) 
CO/N=C(/COC(=O)n1c(C([NH-])=O)cc2ccc(NCCC#N)cc21)SC

>  <Energy>  (11) 
68.94041559528925

>  <Genealogy>  (11) 
CO/N=C(/COC(=O)n1c(C([NH-])=O)cc2ccc(NCCC#N)cc21)SC (protonated)
CO/N=C(/COC(=O)n1c(C([NH-])=O)cc2ccc(NCCC#N)cc21)SC (cis-trans isomerization)
CO/N=C(/COC(=O)n1c(C([NH-])=O)cc2ccc(NCCC#N)cc21)SC (3D coordinates assigned)
CO/N=C(/COC(=O)n1c(C([NH-])=O)cc2ccc(NCCC#N)cc21)SC (optimized conformer: 68.94041559528925 kcal/mol)

>  <smiles>  (11) 
CO/N=C(/COC(=O)n1c(C(N)=O)cc2ccc(NCCC#N)cc21)SC

>  <score_type>  (11) 
oracle

>  <origin>  (11) 
adg

>  <m_score__min__energy>  (11) 
-11.130000000000001

>  <m_primary>  (11) 
energy

$$$$
11:0
     RDKit          3D

 44 45  0  0  0  0  0  0  0  0999 V2000
   -4.0590   22.8230  -28.5280 C   0  0  0  0  0  0  0  0  0  0  0  0
   -3.1770   22.7870  -29.6980 N   0  0  0  0  0  0  0  0  0  0  0  0
   -1.7200   22.8580  -29.5310 C   0  0  0  0  0  0  0  0  0  0  0  0
   -1.3100   24.2660  -29.2400 C   0  0  0  0  0  0  0  0  0  0  0  0
   -0.1190   24.5290  -28.9280 O   0  0  0  0  0  0  0  0  0  0  0  0
   -2.2330   25.2970  -29.3670 O   0  0  0  0  0  0  0  0  0  0  0  0
   -3.7480   22.6480  -31.0140 C   0  0  0  0  0  0  0  0  0  0  0  0
   -3.0030   22.4600  -32.0140 O   0  0  0  0  0  0  0  0  0  0  0  0
   -5.1670   22.7320  -31.2050 N   0  0  0  0  0  0  0  0  0  0  0  0
   -5.9830   23.7890  -30.9420 C   0  0  0  0  0  0  0  0  0  0  0  0
   -5.5250   25.1190  -30.4720 C   0  0  0  0  0  0  0  0  0  0  0  0
   -4.1750   25.5450  -30.6630 N   0  0  0  0  0  0  0  0  0  0  0  0
   -6.3300   25.8890  -29.8840 O   0  0  0  0  0  0  0  0  0  0  0  0
   -7.3090   23.4550  -31.2250 C   0  0  0  0  0  0  0  0  0  0  0  0
   -7.2720   22.1490  -31.6600 C   0  0  0  0  0  0  0  0  0  0  0  0
   -8.3020   21.3050  -32.0620 C   0  0  0  0  0  0  0  0  0  0  0  0
   -7.9700   19.9920  -32.4380 C   0  0  0  0  0  0  0  0  0  0  0  0
   -6.6240   19.5420  -32.4010 C   0  0  0  0  0  0  0  0  0  0  0  0
   -6.2990   18.1860  -32.7770 N   0  0  0  0  0  0  0  0  0  0  0  0
   -7.2900   17.1210  -32.5940 C   0  0  0  0  0  0  0  0  0  0  0  0
   -5.0380   17.8710  -33.4690 C   0  0  0  0  0  0  0  0  0  0  0  0
   -5.2200   17.8870  -34.9900 C   0  0  0  0  0  0  0  0  0  0  0  0
   -6.0930   18.9120  -35.3830 O   0  0  0  0  0  0  0  0  0  0  0  0
   -5.6070   20.4330  -31.9870 C   0  0  0  0  0  0  0  0  0  0  0  0
   -5.9680   21.7360  -31.6340 C   0  0  0  0  0  0  0  0  0  0  0  0
   -3.4524   22.7982  -27.6107 H   0  0  0  0  0  0  0  0  0  0  0  0
   -4.6566   23.7463  -28.5476 H   0  0  0  0  0  0  0  0  0  0  0  0
   -4.7299   21.9515  -28.5476 H   0  0  0  0  0  0  0  0  0  0  0  0
   -1.4164   22.2096  -28.6959 H   0  0  0  0  0  0  0  0  0  0  0  0
   -1.2321   22.5226  -30.4581 H   0  0  0  0  0  0  0  0  0  0  0  0
   -3.4880   24.9710  -31.1990 H   0  0  0  0  0  0  0  0  0  0  0  0
   -3.8640   26.4720  -30.2970 H   0  0  0  0  0  0  0  0  0  0  0  0
   -8.1951   24.0986  -31.1222 H   0  0  0  0  0  0  0  0  0  0  0  0
   -9.3447   21.6545  -32.0849 H   0  0  0  0  0  0  0  0  0  0  0  0
   -8.7635   19.3040  -32.7652 H   0  0  0  0  0  0  0  0  0  0  0  0
   -7.4496   16.9494  -31.5193 H   0  0  0  0  0  0  0  0  0  0  0  0
   -8.2394   17.4191  -33.0627 H   0  0  0  0  0  0  0  0  0  0  0  0
   -6.9244   16.1955  -33.0627 H   0  0  0  0  0  0  0  0  0  0  0  0
   -4.2800   18.6180  -33.1907 H   0  0  0  0  0  0  0  0  0  0  0  0
   -4.7186   16.8624  -33.1677 H   0  0  0  0  0  0  0  0  0  0  0  0
   -4.2417   18.0455  -35.4673 H   0  0  0  0  0  0  0  0  0  0  0  0
   -5.6500   16.9234  -35.3007 H   0  0  0  0  0  0  0  0  0  0  0  0
   -6.9390   18.7690  -34.8840 H   0  0  0  0  0  0  0  0  0  0  0  0
   -4.5569   20.1082  -31.9439 H   0  0  0  0  0  0  0  0  0  0  0  0
  1  2  1  0
  2  3  1  0
  3  4  1  0
  4  5  2  0
  4  6  1  0
  2  7  1  0
  7  8  2  0
  7  9  1  0
  9 10  1  0
 10 11  1  0
 11 12  1  0
 11 13  2  0
 10 14  2  0
 14 15  1  0
 15 16  2  0
 16 17  1  0
 17 18  2  0
 18 19  1  0
 19 20  1  0
 19 21  1  0
 21 22  1  0
 22 23  1  0
 18 24  1  0
 24 25  2  0
 25  9  1  0
 25 15  1  0
  1 26  1  0
  1 27  1  0
  1 28  1  0
  3 29  1  0
  3 30  1  0
 12 31  1  0
 12 32  1  0
 14 33  1  0
 16 34  1  0
 17 35  1  0
 20 36  1  0
 20 37  1  0
 20 38  1  0
 21 39  1  0
 21 40  1  0
 22 41  1  0
 22 42  1  0
 23 43  1  0
 24 44  1  0
M  CHG  1   6  -1
M  END
>  <UniqueID>  (12) 
12

>  <SMILES>  (12) 
CN(CC(=O)[O-])C(=O)n1c(C(N)=O)cc2ccc(N(C)CCO)cc21

>  <Energy>  (12) 
79.64653223041336

>  <Genealogy>  (12) 
CN(CC(=O)[O-])C(=O)n1c(C(N)=O)cc2ccc(N(C)CCO)cc21 (protonated)
CN(CC(=O)[O-])C(=O)n1c(C(N)=O)cc2ccc(N(C)CCO)cc21 (3D coordinates assigned)
CN(CC(=O)[O-])C(=O)n1c(C(N)=O)cc2ccc(N(C)CCO)cc21 (optimized conformer: 79.64653223041336 kcal/mol)

>  <smiles>  (12) 
CN(CC(=O)O)C(=O)n1c(C(N)=O)cc2ccc(N(C)CCO)cc21

>  <score_type>  (12) 
oracle

>  <origin>  (12) 
adg

>  <m_score__min__energy>  (12) 
-10.75

>  <m_primary>  (12) 
energy

$$$$
12:0
     RDKit          3D

 49 50  0  0  0  0  0  0  0  0999 V2000
   -4.5920   14.4490  -32.6630 C   0  0  0  0  0  0  0  0  0  0  0  0
   -4.9860   15.8650  -32.2620 C   0  0  0  0  0  0  0  0  0  0  0  0
   -5.8490   16.4410  -33.2410 O   0  0  0  0  0  0  0  0  0  0  0  0
   -5.4300   17.4000  -34.1700 C   0  0  0  0  0  0  0  0  0  0  0  0
   -4.5150   17.1420  -34.9980 O   0  0  0  0  0  0  0  0  0  0  0  0
   -6.1060   18.7410  -34.2000 C   0  0  0  0  0  0  0  0  0  0  0  0
   -7.2440   18.8010  -33.2680 N   0  0  0  0  0  0  0  0  0  0  0  0
   -7.3150   20.0820  -32.6050 C   0  0  0  0  0  0  0  0  0  0  0  0
   -8.5740   20.6470  -32.2760 C   0  0  0  0  0  0  0  0  0  0  0  0
   -8.6560   21.9230  -31.6930 C   0  0  0  0  0  0  0  0  0  0  0  0
   -7.4690   22.6070  -31.4500 C   0  0  0  0  0  0  0  0  0  0  0  0
   -7.2640   23.8700  -30.9430 C   0  0  0  0  0  0  0  0  0  0  0  0
   -5.8820   24.0520  -30.9540 C   0  0  0  0  0  0  0  0  0  0  0  0
   -5.2140   25.2570  -30.4190 C   0  0  0  0  0  0  0  0  0  0  0  0
   -3.8970   25.5910  -30.8550 N   0  0  0  0  0  0  0  0  0  0  0  0
   -5.8040   26.0140  -29.6050 O   0  0  0  0  0  0  0  0  0  0  0  0
   -5.2590   22.9470  -31.4520 N   0  0  0  0  0  0  0  0  0  0  0  0
   -3.8580   22.7560  -31.7010 C   0  0  0  0  0  0  0  0  0  0  0  0
   -3.4840   22.2010  -32.7690 O   0  0  0  0  0  0  0  0  0  0  0  0
   -2.9270   23.1660  -30.7350 O   0  0  0  0  0  0  0  0  0  0  0  0
   -2.6910   22.5470  -29.4620 C   0  0  0  0  0  0  0  0  0  0  0  0
   -3.8220   22.8920  -28.4750 C   0  0  0  0  0  0  0  0  0  0  0  0
   -2.5500   21.0200  -29.6170 C   0  0  0  0  0  0  0  0  0  0  0  0
   -1.3700   23.1140  -28.9210 C   0  0  0  0  0  0  0  0  0  0  0  0
   -6.2440   22.0710  -31.7460 C   0  0  0  0  0  0  0  0  0  0  0  0
   -6.1320   20.8080  -32.3380 C   0  0  0  0  0  0  0  0  0  0  0  0
   -4.4240   13.8452  -31.7590 H   0  0  0  0  0  0  0  0  0  0  0  0
   -5.3990   13.9989  -33.2598 H   0  0  0  0  0  0  0  0  0  0  0  0
   -3.6685   14.4805  -33.2598 H   0  0  0  0  0  0  0  0  0  0  0  0
   -5.5067   15.8351  -31.2935 H   0  0  0  0  0  0  0  0  0  0  0  0
   -4.0763   16.4786  -32.1854 H   0  0  0  0  0  0  0  0  0  0  0  0
   -5.3755   19.5143  -33.9201 H   0  0  0  0  0  0  0  0  0  0  0  0
   -6.4886   18.9081  -35.2177 H   0  0  0  0  0  0  0  0  0  0  0  0
   -8.1280   18.6460  -33.8080 H   0  0  0  0  0  0  0  0  0  0  0  0
   -7.1700   18.0270  -32.5670 H   0  0  0  0  0  0  0  0  0  0  0  0
   -9.4949   20.0808  -32.4792 H   0  0  0  0  0  0  0  0  0  0  0  0
   -9.6290   22.3675  -31.4366 H   0  0  0  0  0  0  0  0  0  0  0  0
   -8.0281   24.5839  -30.6017 H   0  0  0  0  0  0  0  0  0  0  0  0
   -3.0590   25.2860  -30.3140 H   0  0  0  0  0  0  0  0  0  0  0  0
   -3.4556   22.7802  -27.4439 H   0  0  0  0  0  0  0  0  0  0  0  0
   -4.1470   23.9301  -28.6381 H   0  0  0  0  0  0  0  0  0  0  0  0
   -4.6711   22.2120  -28.6381 H   0  0  0  0  0  0  0  0  0  0  0  0
   -2.5069   20.5529  -28.6220 H   0  0  0  0  0  0  0  0  0  0  0  0
   -3.4156   20.6261  -30.1698 H   0  0  0  0  0  0  0  0  0  0  0  0
   -1.6269   20.7912  -30.1698 H   0  0  0  0  0  0  0  0  0  0  0  0
   -1.3903   23.1053  -27.8212 H   0  0  0  0  0  0  0  0  0  0  0  0
   -0.5326   22.4961  -29.2772 H   0  0  0  0  0  0  0  0  0  0  0  0
   -1.2411   24.1467  -29.2772 H   0  0  0  0  0  0  0  0  0  0  0  0
   -5.1462   20.3899  -32.5897 H   0  0  0  0  0  0  0  0  0  0  0  0
  1  2  1  0
  2  3  1  0
  3  4  1  0
  4  5  2  0
  4  6  1  0
  6  7  1  0
  7  8  1  0
  8  9  2  0
  9 10  1  0
 10 11  2  0
 11 12  1  0
 12 13  2  0
 13 14  1  0
 14 15  1  0
 14 16  2  0
 13 17  1  0
 17 18  1  0
 18 19  2  0
 18 20  1  0
 20 21  1  0
 21 22  1  0
 21 23  1  0
 21 24  1  0
 17 25  1  0
 25 26  2  0
 26  8  1  0
 25 11  1  0
  1 27  1  0
  1 28  1  0
  1 29  1  0
  2 30  1  0
  2 31  1  0
  6 32  1  0
  6 33  1  0
  7 34  1  0
  7 35  1  0
  9 36  1  0
 10 37  1  0
 12 38  1  0
 15 39  1  0
 22 40  1  0
 22 41  1  0
 22 42  1  0
 23 43  1  0
 23 44  1  0
 23 45  1  0
 24 46  1  0
 24 47  1  0
 24 48  1  0
 26 49  1  0
M  CHG  2   7   1  15  -1
M  END
>  <UniqueID>  (13) 
13

>  <SMILES>  (13) 
CCOC(=O)C[NH2+]c1ccc2cc(C([NH-])=O)n(C(=O)OC(C)(C)C)c2c1

>  <Energy>  (13) 
74.97968062963609

>  <Genealogy>  (13) 
CCOC(=O)C[NH2+]c1ccc2cc(C([NH-])=O)n(C(=O)OC(C)(C)C)c2c1 (protonated)
CCOC(=O)C[NH2+]c1ccc2cc(C([NH-])=O)n(C(=O)OC(C)(C)C)c2c1 (3D coordinates assigned)
CCOC(=O)C[NH2+]c1ccc2cc(C([NH-])=O)n(C(=O)OC(C)(C)C)c2c1 (optimized conformer: 74.97968062963609 kcal/mol)

>  <smiles>  (13) 
CCOC(=O)CNc1ccc2cc(C(N)=O)n(C(=O)OC(C)(C)C)c2c1

>  <score_type>  (13) 
oracle

>  <origin>  (13) 
adg

>  <m_score__min__energy>  (13) 
-9.6500000000000004

>  <m_primary>  (13) 
energy

$$$$
13:0
     RDKit          3D

 42 43  0  0  0  0  0  0  0  0999 V2000
   -2.3430   19.1030  -33.4950 C   0  0  0  0  0  0  0  0  0  0  0  0
   -3.7640   19.2710  -33.7700 N   0  0  0  0  0  0  0  0  0  0  0  0
   -4.6040   18.1540  -34.0890 C   0  0  0  0  0  0  0  0  0  0  0  0
   -4.1410   16.9830  -34.0380 O   0  0  0  0  0  0  0  0  0  0  0  0
   -6.0520   18.3540  -34.4400 C   0  0  0  0  0  0  0  0  0  0  0  0
   -6.8740   18.5790  -33.2390 N   0  0  0  0  0  0  0  0  0  0  0  0
   -7.6060   17.4400  -32.6690 C   0  0  0  0  0  0  0  0  0  0  0  0
   -7.0170   19.9050  -32.6570 C   0  0  0  0  0  0  0  0  0  0  0  0
   -8.3060   20.4300  -32.3520 C   0  0  0  0  0  0  0  0  0  0  0  0
   -8.4570   21.7130  -31.8010 C   0  0  0  0  0  0  0  0  0  0  0  0
   -7.3120   22.4540  -31.5470 C   0  0  0  0  0  0  0  0  0  0  0  0
   -7.1730   23.7250  -31.0350 C   0  0  0  0  0  0  0  0  0  0  0  0
   -5.8000   23.9590  -30.9970 C   0  0  0  0  0  0  0  0  0  0  0  0
   -5.2010   25.1830  -30.4250 C   0  0  0  0  0  0  0  0  0  0  0  0
   -3.9150   25.6360  -30.8440 N   0  0  0  0  0  0  0  0  0  0  0  0
   -5.8100   25.8110  -29.5190 O   0  0  0  0  0  0  0  0  0  0  0  0
   -5.1190   22.8790  -31.4760 N   0  0  0  0  0  0  0  0  0  0  0  0
   -3.7020   22.7340  -31.6530 C   0  0  0  0  0  0  0  0  0  0  0  0
   -3.2570   22.0530  -32.6170 O   0  0  0  0  0  0  0  0  0  0  0  0
   -2.8290   23.3430  -30.7400 O   0  0  0  0  0  0  0  0  0  0  0  0
   -2.9210   23.2380  -29.3460 C   0  0  0  0  0  0  0  0  0  0  0  0
   -3.3990   21.9610  -28.7440 C   0  0  0  0  0  0  0  0  0  0  0  0
   -2.5590   24.1810  -28.5930 O   0  0  0  0  0  0  0  0  0  0  0  0
   -6.0590   21.9680  -31.8080 C   0  0  0  0  0  0  0  0  0  0  0  0
   -5.8770   20.7060  -32.3820 C   0  0  0  0  0  0  0  0  0  0  0  0
   -2.1798   19.0837  -32.4073 H   0  0  0  0  0  0  0  0  0  0  0  0
   -1.9937   18.1573  -33.9350 H   0  0  0  0  0  0  0  0  0  0  0  0
   -1.7828   19.9412  -33.9350 H   0  0  0  0  0  0  0  0  0  0  0  0
   -4.1680   20.2340  -33.7360 H   0  0  0  0  0  0  0  0  0  0  0  0
   -6.1415   19.2273  -35.1028 H   0  0  0  0  0  0  0  0  0  0  0  0
   -6.4142   17.4434  -34.9397 H   0  0  0  0  0  0  0  0  0  0  0  0
   -7.5711   17.4942  -31.5709 H   0  0  0  0  0  0  0  0  0  0  0  0
   -8.6531   17.4720  -33.0046 H   0  0  0  0  0  0  0  0  0  0  0  0
   -7.1419   16.5009  -33.0046 H   0  0  0  0  0  0  0  0  0  0  0  0
   -9.1989   19.8194  -32.5517 H   0  0  0  0  0  0  0  0  0  0  0  0
   -9.4546   22.1187  -31.5772 H   0  0  0  0  0  0  0  0  0  0  0  0
   -7.9752   24.4097  -30.7226 H   0  0  0  0  0  0  0  0  0  0  0  0
   -3.0460   25.2850  -30.3850 H   0  0  0  0  0  0  0  0  0  0  0  0
   -3.3697   22.0391  -27.6472 H   0  0  0  0  0  0  0  0  0  0  0  0
   -4.4312   21.7656  -29.0703 H   0  0  0  0  0  0  0  0  0  0  0  0
   -2.7489   21.1359  -29.0703 H   0  0  0  0  0  0  0  0  0  0  0  0
   -4.8668   20.3394  -32.6168 H   0  0  0  0  0  0  0  0  0  0  0  0
  1  2  1  0
  2  3  1  0
  3  4  2  0
  3  5  1  0
  5  6  1  0
  6  7  1  0
  6  8  1  0
  8  9  2  0
  9 10  1  0
 10 11  2  0
 11 12  1  0
 12 13  2  0
 13 14  1  0
 14 15  1  0
 14 16  2  0
 13 17  1  0
 17 18  1  0
 18 19  2  0
 18 20  1  0
 20 21  1  0
 21 22  1  0
 21 23  2  0
 17 24  1  0
 24 25  2  0
 25  8  1  0
 24 11  1  0
  1 26  1  0
  1 27  1  0
  1 28  1  0
  2 29  1  0
  5 30  1  0
  5 31  1  0
  7 32  1  0
  7 33  1  0
  7 34  1  0
  9 35  1  0
 10 36  1  0
 12 37  1  0
 15 38  1  0
 22 39  1  0
 22 40  1  0
 22 41  1  0
 25 42  1  0
M  CHG  1  15  -1
M  END
>  <UniqueID>  (14) 
14

>  <SMILES>  (14) 
CNC(=O)CN(C)c1ccc2cc(C([NH-])=O)n(C(=O)OC(C)=O)c2c1

>  <Energy>  (14) 
77.71533918625026

>  <Genealogy>  (14) 
CNC(=O)CN(C)c1ccc2cc(C([NH-])=O)n(C(=O)OC(C)=O)c2c1 (protonated)
CNC(=O)CN(C)c1ccc2cc(C([NH-])=O)n(C(=O)OC(C)=O)c2c1 (3D coordinates assigned)
CNC(=O)CN(C)c1ccc2cc(C([NH-])=O)n(C(=O)OC(C)=O)c2c1 (optimized conformer: 77.71533918625026 kcal/mol)

>  <smiles>  (14) 
CNC(=O)CN(C)c1ccc2cc(C(N)=O)n(C(=O)OC(C)=O)c2c1

>  <score_type>  (14) 
oracle

>  <origin>  (14) 
adg

>  <m_score__min__energy>  (14) 
-9.7200000000000006

>  <m_primary>  (14) 
energy

$$$$
14:0
     RDKit          3D

 47 48  0  0  0  0  0  0  0  0999 V2000
   -6.8420   16.9600  -33.4390 C   0  0  0  0  0  0  0  0  0  0  0  0
   -6.9840   18.0810  -33.0200 C   0  0  0  0  0  0  0  0  0  0  0  0
   -7.1480   19.4220  -32.5260 C   0  0  0  0  0  0  0  0  0  0  0  0
   -8.4030   20.0670  -32.6330 C   0  0  0  0  0  0  0  0  0  0  0  0
   -8.5590   21.3960  -32.2010 C   0  0  0  0  0  0  0  0  0  0  0  0
   -7.4480   22.0450  -31.6710 C   0  0  0  0  0  0  0  0  0  0  0  0
   -7.3000   23.3460  -31.2430 C   0  0  0  0  0  0  0  0  0  0  0  0
   -5.9600   23.4630  -30.8700 C   0  0  0  0  0  0  0  0  0  0  0  0
   -5.3600   24.6860  -30.2940 C   0  0  0  0  0  0  0  0  0  0  0  0
   -5.8440   25.2280  -29.0650 N   0  0  0  0  0  0  0  0  0  0  0  0
   -4.3960   25.2500  -30.8750 O   0  0  0  0  0  0  0  0  0  0  0  0
   -5.3130   22.2780  -31.0470 N   0  0  0  0  0  0  0  0  0  0  0  0
   -3.9140   22.0090  -30.8760 C   0  0  0  0  0  0  0  0  0  0  0  0
   -3.5170   21.3750  -29.8610 O   0  0  0  0  0  0  0  0  0  0  0  0
   -3.0040   22.4240  -31.8510 O   0  0  0  0  0  0  0  0  0  0  0  0
   -2.0360   21.5520  -32.4280 C   0  0  0  0  0  0  0  0  0  0  0  0
   -0.9120   21.4490  -31.5570 O   0  0  0  0  0  0  0  0  0  0  0  0
   -0.5640   20.2750  -30.8770 C   0  0  0  0  0  0  0  0  0  0  0  0
   -0.6590   19.1590  -31.4580 O   0  0  0  0  0  0  0  0  0  0  0  0
   -0.1100   20.3400  -29.5140 N   0  0  0  0  0  0  0  0  0  0  0  0
    1.1270   19.6570  -29.1260 C   0  0  0  0  0  0  0  0  0  0  0  0
   -0.8550   21.1330  -28.5290 C   0  0  0  0  0  0  0  0  0  0  0  0
   -0.4180   22.6030  -28.5650 C   0  0  0  0  0  0  0  0  0  0  0  0
   -1.2420   23.3820  -29.5010 N   0  0  0  0  0  0  0  0  0  0  0  0
   -2.1990   24.2400  -28.7930 C   0  0  0  0  0  0  0  0  0  0  0  0
   -6.2330   21.4220  -31.5420 C   0  0  0  0  0  0  0  0  0  0  0  0
   -6.0460   20.1030  -31.9730 C   0  0  0  0  0  0  0  0  0  0  0  0
   -6.7124   15.9368  -33.8214 H   0  0  0  0  0  0  0  0  0  0  0  0
   -9.2616   19.5255  -33.0567 H   0  0  0  0  0  0  0  0  0  0  0  0
   -9.5298   21.9072  -32.2796 H   0  0  0  0  0  0  0  0  0  0  0  0
   -8.0737   24.1270  -31.2035 H   0  0  0  0  0  0  0  0  0  0  0  0
   -6.6910   24.8410  -28.5950 H   0  0  0  0  0  0  0  0  0  0  0  0
   -5.3780   26.0620  -28.6410 H   0  0  0  0  0  0  0  0  0  0  0  0
   -2.4798   20.5561  -32.5736 H   0  0  0  0  0  0  0  0  0  0  0  0
   -1.7123   21.9540  -33.3994 H   0  0  0  0  0  0  0  0  0  0  0  0
    1.1961   19.6188  -28.0288 H   0  0  0  0  0  0  0  0  0  0  0  0
    1.1226   18.6335  -29.5289 H   0  0  0  0  0  0  0  0  0  0  0  0
    1.9909   20.2060  -29.5289 H   0  0  0  0  0  0  0  0  0  0  0  0
   -1.9296   21.0712  -28.7557 H   0  0  0  0  0  0  0  0  0  0  0  0
   -0.6496   20.7301  -27.5262 H   0  0  0  0  0  0  0  0  0  0  0  0
   -0.5184   23.0316  -27.5569 H   0  0  0  0  0  0  0  0  0  0  0  0
    0.6277   22.6464  -28.9037 H   0  0  0  0  0  0  0  0  0  0  0  0
   -1.8040   22.7060  -30.0680 H   0  0  0  0  0  0  0  0  0  0  0  0
   -2.0656   24.1204  -27.7077 H   0  0  0  0  0  0  0  0  0  0  0  0
   -2.0249   25.2901  -29.0703 H   0  0  0  0  0  0  0  0  0  0  0  0
   -3.2240   23.9527  -29.0703 H   0  0  0  0  0  0  0  0  0  0  0  0
   -5.0657   19.6122  -31.8823 H   0  0  0  0  0  0  0  0  0  0  0  0
  1  2  3  0
  2  3  1  0
  3  4  2  0
  4  5  1  0
  5  6  2  0
  6  7  1  0
  7  8  2  0
  8  9  1  0
  9 10  1  0
  9 11  2  0
  8 12  1  0
 12 13  1  0
 13 14  2  0
 13 15  1  0
 15 16  1  0
 16 17  1  0
 17 18  1  0
 18 19  2  0
 18 20  1  0
 20 21  1  0
 20 22  1  0
 22 23  1  0
 23 24  1  0
 24 25  1  0
 12 26  1  0
 26 27  2  0
 27  3  1  0
 26  6  1  0
  1 28  1  0
  4 29  1  0
  5 30  1  0
  7 31  1  0
 10 32  1  0
 10 33  1  0
 16 34  1  0
 16 35  1  0
 21 36  1  0
 21 37  1  0
 21 38  1  0
 22 39  1  0
 22 40  1  0
 23 41  1  0
 23 42  1  0
 24 43  1  0
 25 44  1  0
 25 45  1  0
 25 46  1  0
 27 47  1  0
M  END
>  <UniqueID>  (15) 
15

>  <SMILES>  (15) 
C#Cc1ccc2cc(C(N)=O)n(C(=O)OCOC(=O)N(C)CCNC)c2c1

>  <Energy>  (15) 
73.82881094321945

>  <Genealogy>  (15) 
C#Cc1ccc2cc(C(N)=O)n(C(=O)OCOC(=O)N(C)CCNC)c2c1 (3D coordinates assigned)
C#Cc1ccc2cc(C(N)=O)n(C(=O)OCOC(=O)N(C)CCNC)c2c1 (optimized conformer: 73.82881094321945 kcal/mol)

>  <smiles>  (15) 
C#Cc1ccc2cc(C(N)=O)n(C(=O)OCOC(=O)N(C)CCNC)c2c1

>  <score_type>  (15) 
oracle

>  <origin>  (15) 
adg

>  <m_score__min__energy>  (15) 
-8.4800000000000004

>  <m_primary>  (15) 
energy

$$$$
15:0
     RDKit          3D

 44 45  0  0  0  0  0  0  0  0999 V2000
   -6.8640   18.4350  -32.9290 C   0  0  0  0  0  0  0  0  0  0  0  0
   -7.0750   19.8480  -32.4740 C   0  0  0  0  0  0  0  0  0  0  0  0
   -8.3750   20.4120  -32.4750 C   0  0  0  0  0  0  0  0  0  0  0  0
   -8.5830   21.7290  -32.0290 C   0  0  0  0  0  0  0  0  0  0  0  0
   -7.4790   22.4470  -31.5780 C   0  0  0  0  0  0  0  0  0  0  0  0
   -7.3880   23.7400  -31.1140 C   0  0  0  0  0  0  0  0  0  0  0  0
   -6.0410   23.9300  -30.8120 C   0  0  0  0  0  0  0  0  0  0  0  0
   -5.5090   25.1650  -30.2070 C   0  0  0  0  0  0  0  0  0  0  0  0
   -4.1800   25.5960  -30.4800 N   0  0  0  0  0  0  0  0  0  0  0  0
   -6.2180   25.8240  -29.4020 O   0  0  0  0  0  0  0  0  0  0  0  0
   -5.3250   22.8040  -31.0900 N   0  0  0  0  0  0  0  0  0  0  0  0
   -3.9020   22.6150  -31.0370 C   0  0  0  0  0  0  0  0  0  0  0  0
   -3.2980   22.2840  -32.0940 O   0  0  0  0  0  0  0  0  0  0  0  0
   -3.1620   22.9920  -29.8450 N   0  0  1  0  0  0  0  0  0  0  0  0
   -3.7090   22.3930  -28.5970 C   0  0  0  0  0  0  0  0  0  0  0  0
   -4.2490   23.4040  -27.5540 C   0  0  0  0  0  0  0  0  0  0  0  0
   -3.7390   24.6890  -27.7950 O   0  0  0  0  0  0  0  0  0  0  0  0
   -1.7000   22.7340  -30.0130 C   0  0  0  0  0  0  0  0  0  0  0  0
   -0.8670   23.1580  -28.7850 C   0  0  0  0  0  0  0  0  0  0  0  0
   -0.9010   24.6680  -28.5160 C   0  0  0  0  0  0  0  0  0  0  0  0
   -1.8520   25.3030  -29.3270 O   0  0  0  0  0  0  0  0  0  0  0  0
   -6.2200   21.9040  -31.5490 C   0  0  0  0  0  0  0  0  0  0  0  0
   -5.9820   20.6000  -31.9940 C   0  0  0  0  0  0  0  0  0  0  0  0
   -6.7659   17.7782  -32.0521 H   0  0  0  0  0  0  0  0  0  0  0  0
   -7.7239   18.1124  -33.5344 H   0  0  0  0  0  0  0  0  0  0  0  0
   -5.9473   18.3777  -33.5344 H   0  0  0  0  0  0  0  0  0  0  0  0
   -9.2285   19.8144  -32.8277 H   0  0  0  0  0  0  0  0  0  0  0  0
   -9.5871   22.1782  -32.0362 H   0  0  0  0  0  0  0  0  0  0  0  0
   -8.2050   24.4684  -31.0049 H   0  0  0  0  0  0  0  0  0  0  0  0
   -3.4660   25.6550  -29.7200 H   0  0  0  0  0  0  0  0  0  0  0  0
   -3.3110   24.0200  -29.7270 H   0  0  0  0  0  0  0  0  0  0  0  0
   -4.5338   21.7211  -28.8766 H   0  0  0  0  0  0  0  0  0  0  0  0
   -2.8650   21.8803  -28.1124 H   0  0  0  0  0  0  0  0  0  0  0  0
   -5.3468   23.4343  -27.6159 H   0  0  0  0  0  0  0  0  0  0  0  0
   -3.9308   23.0806  -26.5519 H   0  0  0  0  0  0  0  0  0  0  0  0
   -4.4040   25.1580  -28.3640 H   0  0  0  0  0  0  0  0  0  0  0  0
   -1.5514   21.6573  -30.1824 H   0  0  0  0  0  0  0  0  0  0  0  0
   -1.3561   23.3358  -30.8671 H   0  0  0  0  0  0  0  0  0  0  0  0
   -1.2614   22.6374  -27.8999 H   0  0  0  0  0  0  0  0  0  0  0  0
    0.1790   22.8895  -28.9944 H   0  0  0  0  0  0  0  0  0  0  0  0
   -1.1573   24.8393  -27.4601 H   0  0  0  0  0  0  0  0  0  0  0  0
    0.0900   25.0866  -28.7457 H   0  0  0  0  0  0  0  0  0  0  0  0
   -2.6640   25.4290  -28.7690 H   0  0  0  0  0  0  0  0  0  0  0  0
   -4.9691   20.1717  -31.9705 H   0  0  0  0  0  0  0  0  0  0  0  0
  1  2  1  0
  2  3  2  0
  3  4  1  0
  4  5  2  0
  5  6  1  0
  6  7  2  0
  7  8  1  0
  8  9  1  0
  8 10  2  0
  7 11  1  0
 11 12  1  0
 12 13  2  0
 12 14  1  0
 14 15  1  0
 15 16  1  0
 16 17  1  0
 14 18  1  0
 18 19  1  0
 19 20  1  0
 20 21  1  0
 11 22  1  0
 22 23  2  0
 23  2  1  0
 22  5  1  0
  1 24  1  0
  1 25  1  0
  1 26  1  0
  3 27  1  0
  4 28  1  0
  6 29  1  0
  9 30  1  0
 14 31  1  1
 15 32  1  0
 15 33  1  0
 16 34  1  0
 16 35  1  0
 17 36  1  0
 18 37  1  0
 18 38  1  0
 19 39  1  0
 19 40  1  0
 20 41  1  0
 20 42  1  0
 21 43  1  0
 23 44  1  0
M  CHG  2   9  -1  14   1
M  END
>  <UniqueID>  (16) 
16

>  <SMILES>  (16) 
Cc1ccc2cc(C([NH-])=O)n(C(=O)[N@@H+](CCO)CCCO)c2c1

>  <Energy>  (16) 
90.35611711889372

>  <Genealogy>  (16) 
Cc1ccc2cc(C([NH-])=O)n(C(=O)[NH+](CCO)CCCO)c2c1 (protonated)
Cc1ccc2cc(C([NH-])=O)n(C(=O)[N@@H+](CCO)CCCO)c2c1 (chirality)
Cc1ccc2cc(C([NH-])=O)n(C(=O)[N@@H+](CCO)CCCO)c2c1 (3D coordinates assigned)
Cc1ccc2cc(C([NH-])=O)n(C(=O)[N@@H+](CCO)CCCO)c2c1 (optimized conformer: 90.35611711889372 kcal/mol)

>  <smiles>  (16) 
Cc1ccc2cc(C(N)=O)n(C(=O)N(CCO)CCCO)c2c1

>  <score_type>  (16) 
oracle

>  <origin>  (16) 
adg

>  <m_score__min__energy>  (16) 
-9.1500000000000004

>  <m_primary>  (16) 
energy

$$$$
16:0
     RDKit          3D

 43 44  0  0  0  0  0  0  0  0999 V2000
   -7.0550   18.2810  -32.7580 C   0  0  0  0  0  0  0  0  0  0  0  0
   -7.2060   19.7280  -32.4020 C   0  0  0  0  0  0  0  0  0  0  0  0
   -8.4940   20.3220  -32.3680 C   0  0  0  0  0  0  0  0  0  0  0  0
   -8.6530   21.6650  -31.9890 C   0  0  0  0  0  0  0  0  0  0  0  0
   -7.5120   22.3860  -31.6460 C   0  0  0  0  0  0  0  0  0  0  0  0
   -7.3810   23.6840  -31.2070 C   0  0  0  0  0  0  0  0  0  0  0  0
   -6.0170   23.8640  -30.9830 C   0  0  0  0  0  0  0  0  0  0  0  0
   -5.4230   25.1420  -30.5350 C   0  0  0  0  0  0  0  0  0  0  0  0
   -4.0170   25.3620  -30.5930 N   0  0  0  0  0  0  0  0  0  0  0  0
   -6.1730   26.0660  -30.1180 O   0  0  0  0  0  0  0  0  0  0  0  0
   -5.3330   22.7230  -31.2770 N   0  0  0  0  0  0  0  0  0  0  0  0
   -3.9290   22.4710  -31.1120 C   0  0  0  0  0  0  0  0  0  0  0  0
   -3.1800   22.4600  -32.1270 O   0  0  0  0  0  0  0  0  0  0  0  0
   -3.3620   22.2340  -29.7640 C   0  0  0  0  0  0  0  0  0  0  0  0
   -3.2300   21.0430  -29.3690 O   0  0  0  0  0  0  0  0  0  0  0  0
   -2.9710   23.3400  -28.9010 N   0  0  1  0  0  0  0  0  0  0  0  0
   -3.9390   23.4450  -27.7870 C   0  0  0  0  0  0  0  0  0  0  0  0
   -1.5280   23.2700  -28.4750 C   0  0  0  0  0  0  0  0  0  0  0  0
   -0.7160   22.1970  -29.2560 C   0  0  0  0  0  0  0  0  0  0  0  0
   -1.4200   22.9220  -26.9680 C   0  0  0  0  0  0  0  0  0  0  0  0
   -0.8750   24.6370  -28.6580 C   0  0  0  0  0  0  0  0  0  0  0  0
    0.3030   24.8540  -28.2660 O   0  0  0  0  0  0  0  0  0  0  0  0
   -1.5570   25.6500  -29.3250 O   0  0  0  0  0  0  0  0  0  0  0  0
   -6.2620   21.8270  -31.6750 C   0  0  0  0  0  0  0  0  0  0  0  0
   -6.0750   20.4860  -32.0290 C   0  0  0  0  0  0  0  0  0  0  0  0
   -6.9925   17.6816  -31.8378 H   0  0  0  0  0  0  0  0  0  0  0  0
   -7.9241   17.9561  -33.3488 H   0  0  0  0  0  0  0  0  0  0  0  0
   -6.1375   18.1426  -33.3488 H   0  0  0  0  0  0  0  0  0  0  0  0
   -9.3766   19.7249  -32.6411 H   0  0  0  0  0  0  0  0  0  0  0  0
   -9.6482   22.1330  -31.9639 H   0  0  0  0  0  0  0  0  0  0  0  0
   -8.1831   24.4230  -31.0633 H   0  0  0  0  0  0  0  0  0  0  0  0
   -3.4860   25.6730  -29.7500 H   0  0  0  0  0  0  0  0  0  0  0  0
   -3.0910   24.2270  -29.4450 H   0  0  0  0  0  0  0  0  0  0  0  0
   -3.4026   23.3868  -26.8284 H   0  0  0  0  0  0  0  0  0  0  0  0
   -4.4702   24.4060  -27.8522 H   0  0  0  0  0  0  0  0  0  0  0  0
   -4.6639   22.6202  -27.8522 H   0  0  0  0  0  0  0  0  0  0  0  0
   -0.2105   21.5290  -28.5431 H   0  0  0  0  0  0  0  0  0  0  0  0
   -1.3979   21.6097  -29.8885 H   0  0  0  0  0  0  0  0  0  0  0  0
    0.0345   22.6937  -29.8885 H   0  0  0  0  0  0  0  0  0  0  0  0
   -1.6932   23.8024  -26.3679 H   0  0  0  0  0  0  0  0  0  0  0  0
   -2.1029   22.0921  -26.7335 H   0  0  0  0  0  0  0  0  0  0  0  0
   -0.3873   22.6245  -26.7335 H   0  0  0  0  0  0  0  0  0  0  0  0
   -5.0722   20.0341  -32.0169 H   0  0  0  0  0  0  0  0  0  0  0  0
  1  2  1  0
  2  3  2  0
  3  4  1  0
  4  5  2  0
  5  6  1  0
  6  7  2  0
  7  8  1  0
  8  9  1  0
  8 10  2  0
  7 11  1  0
 11 12  1  0
 12 13  2  0
 12 14  1  0
 14 15  2  0
 14 16  1  0
 16 17  1  0
 16 18  1  0
 18 19  1  0
 18 20  1  0
 18 21  1  0
 21 22  2  0
 21 23  1  0
 11 24  1  0
 24 25  2  0
 25  2  1  0
 24  5  1  0
  1 26  1  0
  1 27  1  0
  1 28  1  0
  3 29  1  0
  4 30  1  0
  6 31  1  0
  9 32  1  0
 16 33  1  6
 17 34  1  0
 17 35  1  0
 17 36  1  0
 19 37  1  0
 19 38  1  0
 19 39  1  0
 20 40  1  0
 20 41  1  0
 20 42  1  0
 25 43  1  0
M  CHG  3   9  -1  16   1  23  -1
M  END
>  <UniqueID>  (17) 
17

>  <SMILES>  (17) 
Cc1ccc2cc(C([NH-])=O)n(C(=O)C(=O)[N@@H+](C)C(C)(C)C(=O)[O-])c2c1

>  <Energy>  (17) 
91.660266421265

>  <Genealogy>  (17) 
Cc1ccc2cc(C([NH-])=O)n(C(=O)C(=O)[NH+](C)C(C)(C)C(=O)[O-])c2c1 (protonated)
Cc1ccc2cc(C([NH-])=O)n(C(=O)C(=O)[N@@H+](C)C(C)(C)C(=O)[O-])c2c1 (chirality)
Cc1ccc2cc(C([NH-])=O)n(C(=O)C(=O)[N@@H+](C)C(C)(C)C(=O)[O-])c2c1 (3D coordinates assigned)
Cc1ccc2cc(C([NH-])=O)n(C(=O)C(=O)[N@@H+](C)C(C)(C)C(=O)[O-])c2c1 (optimized conformer: 91.660266421265 kcal/mol)

>  <smiles>  (17) 
Cc1ccc2cc(C(N)=O)n(C(=O)C(=O)N(C)C(C)(C)C(=O)O)c2c1

>  <score_type>  (17) 
oracle

>  <origin>  (17) 
adg

>  <m_score__min__energy>  (17) 
-12.35

>  <m_primary>  (17) 
energy

$$$$
17:0
     RDKit          3D

 37 39  0  0  0  0  0  0  0  0999 V2000
   -4.3140   25.6820  -30.8400 N   0  0  0  0  0  0  0  0  0  0  0  0
   -5.5860   25.1970  -30.4170 C   0  0  0  0  0  0  0  0  0  0  0  0
   -6.2990   25.9080  -29.6600 O   0  0  0  0  0  0  0  0  0  0  0  0
   -6.1020   23.8980  -30.8990 C   0  0  0  0  0  0  0  0  0  0  0  0
   -7.4510   23.5520  -30.8730 C   0  0  0  0  0  0  0  0  0  0  0  0
   -7.5250   22.3240  -31.4890 C   0  0  0  0  0  0  0  0  0  0  0  0
   -8.6250   21.5100  -31.7320 C   0  0  0  0  0  0  0  0  0  0  0  0
   -8.4080   20.2770  -32.3670 C   0  0  0  0  0  0  0  0  0  0  0  0
   -7.0940   19.8720  -32.7440 C   0  0  0  0  0  0  0  0  0  0  0  0
   -6.7860   18.5470  -33.4230 C   0  0  0  0  0  0  0  0  0  0  0  0
   -5.7360   18.5560  -34.5260 C   0  0  0  0  0  0  0  0  0  0  0  0
   -5.4140   17.9370  -33.1720 C   0  0  0  0  0  0  0  0  0  0  0  0
   -6.0070   20.7320  -32.4760 C   0  0  0  0  0  0  0  0  0  0  0  0
   -6.2570   21.9630  -31.8590 C   0  0  0  0  0  0  0  0  0  0  0  0
   -5.3700   22.9160  -31.4990 N   0  0  0  0  0  0  0  0  0  0  0  0
   -3.9450   22.8530  -31.6580 C   0  0  0  0  0  0  0  0  0  0  0  0
   -3.4470   22.1660  -32.5900 O   0  0  0  0  0  0  0  0  0  0  0  0
   -3.1200   23.5810  -30.7930 O   0  0  0  0  0  0  0  0  0  0  0  0
   -2.8430   23.1910  -29.4480 C   0  0  0  0  0  0  0  0  0  0  0  0
   -1.3350   23.1810  -29.1670 C   0  0  0  0  0  0  0  0  0  0  0  0
   -0.6740   22.6740  -30.2740 F   0  0  0  0  0  0  0  0  0  0  0  0
   -1.0600   22.3620  -28.0870 F   0  0  0  0  0  0  0  0  0  0  0  0
   -0.8380   24.5670  -28.8830 C   0  0  0  0  0  0  0  0  0  0  0  0
    0.2660   24.7390  -28.3010 O   0  0  0  0  0  0  0  0  0  0  0  0
   -1.5640   25.6710  -29.3130 O   0  0  0  0  0  0  0  0  0  0  0  0
   -3.4950   25.6720  -30.1940 H   0  0  0  0  0  0  0  0  0  0  0  0
   -8.2811   24.1366  -30.4497 H   0  0  0  0  0  0  0  0  0  0  0  0
   -9.6369   21.8230  -31.4352 H   0  0  0  0  0  0  0  0  0  0  0  0
   -9.2617   19.6156  -32.5762 H   0  0  0  0  0  0  0  0  0  0  0  0
   -7.8233   18.1908  -33.3387 H   0  0  0  0  0  0  0  0  0  0  0  0
   -5.8606   17.9125  -35.4094 H   0  0  0  0  0  0  0  0  0  0  0  0
   -5.2761   19.3316  -35.1560 H   0  0  0  0  0  0  0  0  0  0  0  0
   -5.3059   16.8464  -33.0776 H   0  0  0  0  0  0  0  0  0  0  0  0
   -4.6250   18.0804  -32.4191 H   0  0  0  0  0  0  0  0  0  0  0  0
   -4.9818   20.4397  -32.7473 H   0  0  0  0  0  0  0  0  0  0  0  0
   -3.3300   23.9000  -28.7623 H   0  0  0  0  0  0  0  0  0  0  0  0
   -3.2300   22.1726  -29.2964 H   0  0  0  0  0  0  0  0  0  0  0  0
  1  2  1  0
  2  3  2  0
  2  4  1  0
  4  5  2  0
  5  6  1  0
  6  7  2  0
  7  8  1  0
  8  9  2  0
  9 10  1  0
 10 11  1  0
 11 12  1  0
  9 13  1  0
 13 14  2  0
 14 15  1  0
 15 16  1  0
 16 17  2  0
 16 18  1  0
 18 19  1  0
 19 20  1  0
 20 21  1  0
 20 22  1  0
 20 23  1  0
 23 24  2  0
 23 25  1  0
 15  4  1  0
 14  6  1  0
 12 10  1  0
  1 26  1  0
  5 27  1  0
  7 28  1  0
  8 29  1  0
 10 30  1  0
 11 31  1  0
 11 32  1  0
 12 33  1  0
 12 34  1  0
 13 35  1  0
 19 36  1  0
 19 37  1  0
M  CHG  2   1  -1  25  -1
M  END
>  <UniqueID>  (18) 
18

>  <SMILES>  (18) 
[NH-]C(=O)c1cc2ccc(C3CC3)cc2n1C(=O)OCC(F)(F)C(=O)[O-]

>  <Energy>  (18) 
341.8941208495472

>  <Genealogy>  (18) 
[NH-]C(=O)c1cc2ccc(C3CC3)cc2n1C(=O)OCC(F)(F)C(=O)[O-] (protonated)
[NH-]C(=O)c1cc2ccc(C3CC3)cc2n1C(=O)OCC(F)(F)C(=O)[O-] (3D coordinates assigned)
[NH-]C(=O)c1cc2ccc(C3CC3)cc2n1C(=O)OCC(F)(F)C(=O)[O-] (nonaromatic ring conformer: 341.8941208495472 kcal/mol)

>  <smiles>  (18) 
NC(=O)c1cc2ccc(C3CC3)cc2n1C(=O)OCC(F)(F)C(=O)O

>  <score_type>  (18) 
oracle

>  <origin>  (18) 
adg

>  <m_score__min__energy>  (18) 
-12.82

>  <m_primary>  (18) 
energy

$$$$
18:0
     RDKit          3D

 40 41  0  0  0  0  0  0  0  0999 V2000
   -7.4840   18.3810  -32.7190 C   0  0  0  0  0  0  0  0  0  0  0  0
   -7.5020   19.8130  -32.2760 C   0  0  0  0  0  0  0  0  0  0  0  0
   -8.7050   20.5610  -32.3400 C   0  0  0  0  0  0  0  0  0  0  0  0
   -8.7240   21.9170  -31.9710 C   0  0  0  0  0  0  0  0  0  0  0  0
   -7.5310   22.4960  -31.5510 C   0  0  0  0  0  0  0  0  0  0  0  0
   -7.2630   23.7880  -31.1590 C   0  0  0  0  0  0  0  0  0  0  0  0
   -5.9040   23.8090  -30.8570 C   0  0  0  0  0  0  0  0  0  0  0  0
   -5.2130   24.9900  -30.2990 C   0  0  0  0  0  0  0  0  0  0  0  0
   -3.9700   25.4130  -30.8570 N   0  0  0  0  0  0  0  0  0  0  0  0
   -5.7230   25.6540  -29.3600 O   0  0  0  0  0  0  0  0  0  0  0  0
   -5.3500   22.5800  -31.0630 N   0  0  0  0  0  0  0  0  0  0  0  0
   -3.9750   22.1930  -30.9150 C   0  0  0  0  0  0  0  0  0  0  0  0
   -3.6160   21.0210  -31.2110 O   0  0  0  0  0  0  0  0  0  0  0  0
   -3.0500   23.1260  -30.4280 O   0  0  0  0  0  0  0  0  0  0  0  0
   -2.2130   22.9310  -29.3210 C   0  0  0  0  0  0  0  0  0  0  0  0
   -1.0900   22.3710  -29.4450 O   0  0  0  0  0  0  0  0  0  0  0  0
   -2.6770   23.3700  -27.9570 C   0  0  2  0  0  0  0  0  0  0  0  0
   -3.5220   24.5600  -28.0740 N   0  0  0  0  0  0  0  0  0  0  0  0
   -1.4920   23.6690  -27.0130 C   0  0  0  0  0  0  0  0  0  0  0  0
   -0.3390   24.4300  -27.6910 C   0  0  0  0  0  0  0  0  0  0  0  0
   -0.7260   25.8230  -28.0840 C   0  0  0  0  0  0  0  0  0  0  0  0
   -1.6240   26.0120  -28.9470 O   0  0  0  0  0  0  0  0  0  0  0  0
   -0.0900   26.9130  -27.5040 O   0  0  0  0  0  0  0  0  0  0  0  0
   -6.3600   21.7860  -31.4820 C   0  0  0  0  0  0  0  0  0  0  0  0
   -6.3070   20.4400  -31.8610 C   0  0  0  0  0  0  0  0  0  0  0  0
   -7.4757   17.7243  -31.8366 H   0  0  0  0  0  0  0  0  0  0  0  0
   -8.3796   18.1727  -33.3227 H   0  0  0  0  0  0  0  0  0  0  0  0
   -6.5834   18.1953  -33.3227 H   0  0  0  0  0  0  0  0  0  0  0  0
   -9.6313   20.0758  -32.6814 H   0  0  0  0  0  0  0  0  0  0  0  0
   -9.6541   22.5027  -32.0131 H   0  0  0  0  0  0  0  0  0  0  0  0
   -7.9724   24.6264  -31.0974 H   0  0  0  0  0  0  0  0  0  0  0  0
   -3.0760   25.2890  -30.3330 H   0  0  0  0  0  0  0  0  0  0  0  0
   -3.2550   22.5408  -27.5229 H   0  0  0  0  0  0  0  0  0  0  0  0
   -3.1110   25.3380  -27.5050 H   0  0  0  0  0  0  0  0  0  0  0  0
   -3.5270   24.8730  -29.0730 H   0  0  0  0  0  0  0  0  0  0  0  0
   -1.8616   24.2750  -26.1726 H   0  0  0  0  0  0  0  0  0  0  0  0
   -1.0889   22.6994  -26.6853 H   0  0  0  0  0  0  0  0  0  0  0  0
    0.5085   24.4830  -26.9917 H   0  0  0  0  0  0  0  0  0  0  0  0
   -0.0718   23.8851  -28.6084 H   0  0  0  0  0  0  0  0  0  0  0  0
   -5.3580   19.8843  -31.8362 H   0  0  0  0  0  0  0  0  0  0  0  0
  1  2  1  0
  2  3  2  0
  3  4  1  0
  4  5  2  0
  5  6  1  0
  6  7  2  0
  7  8  1  0
  8  9  1  0
  8 10  2  0
  7 11  1  0
 11 12  1  0
 12 13  2  0
 12 14  1  0
 14 15  1  0
 15 16  2  0
 15 17  1  0
 17 18  1  0
 17 19  1  0
 19 20  1  0
 20 21  1  0
 21 22  2  0
 21 23  1  0
 11 24  1  0
 24 25  2  0
 25  2  1  0
 24  5  1  0
  1 26  1  0
  1 27  1  0
  1 28  1  0
  3 29  1  0
  4 30  1  0
  6 31  1  0
  9 32  1  0
 17 33  1  1
 18 34  1  0
 18 35  1  0
 19 36  1  0
 19 37  1  0
 20 38  1  0
 20 39  1  0
 25 40  1  0
M  CHG  2   9  -1  23  -1
M  END
>  <UniqueID>  (19) 
19

>  <SMILES>  (19) 
Cc1ccc2cc(C([NH-])=O)n(C(=O)OC(=O)[C@H](N)CCC(=O)[O-])c2c1

>  <Energy>  (19) 
73.83336383413196

>  <Genealogy>  (19) 
Cc1ccc2cc(C([NH-])=O)n(C(=O)OC(=O)C(N)CCC(=O)[O-])c2c1 (protonated)
Cc1ccc2cc(C([NH-])=O)n(C(=O)OC(=O)[C@H](N)CCC(=O)[O-])c2c1 (chirality)
Cc1ccc2cc(C([NH-])=O)n(C(=O)OC(=O)[C@H](N)CCC(=O)[O-])c2c1 (3D coordinates assigned)
Cc1ccc2cc(C([NH-])=O)n(C(=O)OC(=O)[C@H](N)CCC(=O)[O-])c2c1 (optimized conformer: 73.83336383413196 kcal/mol)

>  <smiles>  (19) 
Cc1ccc2cc(C(N)=O)n(C(=O)OC(=O)C(N)CCC(=O)O)c2c1

>  <score_type>  (19) 
oracle

>  <origin>  (19) 
adg

>  <m_score__min__energy>  (19) 
-12.35

>  <m_primary>  (19) 
energy

$$$$
19:0
     RDKit          3D

 43 44  0  0  0  0  0  0  0  0999 V2000
   -4.2450   24.5530  -27.2110 C   0  0  0  0  0  0  0  0  0  0  0  0
   -3.3570   23.8400  -28.1490 N   0  0  0  0  0  0  0  0  0  0  0  0
   -1.9520   24.1240  -27.8010 C   0  0  0  0  0  0  0  0  0  0  0  0
   -3.6230   22.3730  -28.1330 C   0  0  0  0  0  0  0  0  0  0  0  0
   -2.4210   21.5420  -28.6200 C   0  0  0  0  0  0  0  0  0  0  0  0
   -2.1370   21.7200  -30.1120 C   0  0  0  0  0  0  0  0  0  0  0  0
   -2.9090   22.8080  -30.6090 O   0  0  0  0  0  0  0  0  0  0  0  0
   -3.8620   22.6600  -31.6220 C   0  0  0  0  0  0  0  0  0  0  0  0
   -3.5140   22.2660  -32.7680 O   0  0  0  0  0  0  0  0  0  0  0  0
   -5.2440   22.9320  -31.3430 N   0  0  0  0  0  0  0  0  0  0  0  0
   -5.8020   24.1080  -30.9340 C   0  0  0  0  0  0  0  0  0  0  0  0
   -5.0690   25.3340  -30.5570 C   0  0  0  0  0  0  0  0  0  0  0  0
   -3.6510   25.2990  -30.4230 N   0  0  0  0  0  0  0  0  0  0  0  0
   -5.6780   26.4230  -30.3860 O   0  0  0  0  0  0  0  0  0  0  0  0
   -7.1860   23.9820  -30.8350 C   0  0  0  0  0  0  0  0  0  0  0  0
   -7.4610   22.6810  -31.1890 C   0  0  0  0  0  0  0  0  0  0  0  0
   -8.6810   22.0190  -31.2850 C   0  0  0  0  0  0  0  0  0  0  0  0
   -8.6720   20.6790  -31.7100 C   0  0  0  0  0  0  0  0  0  0  0  0
   -7.4530   20.0250  -32.0210 C   0  0  0  0  0  0  0  0  0  0  0  0
   -7.4620   18.6070  -32.5350 C   0  0  0  0  0  0  0  0  0  0  0  0
   -6.8050   18.5240  -33.7510 F   0  0  0  0  0  0  0  0  0  0  0  0
   -6.8300   17.7590  -31.6420 F   0  0  0  0  0  0  0  0  0  0  0  0
   -8.7700   18.1920  -32.7000 F   0  0  0  0  0  0  0  0  0  0  0  0
   -6.2360   20.7410  -31.9350 C   0  0  0  0  0  0  0  0  0  0  0  0
   -6.2730   22.0680  -31.4910 C   0  0  0  0  0  0  0  0  0  0  0  0
   -3.9516   24.3174  -26.1774 H   0  0  0  0  0  0  0  0  0  0  0  0
   -4.1604   25.6369  -27.3781 H   0  0  0  0  0  0  0  0  0  0  0  0
   -5.2851   24.2363  -27.3781 H   0  0  0  0  0  0  0  0  0  0  0  0
   -3.5180   24.2340  -29.1050 H   0  0  0  0  0  0  0  0  0  0  0  0
   -1.8426   24.1461  -26.7067 H   0  0  0  0  0  0  0  0  0  0  0  0
   -1.3049   23.3385  -28.2184 H   0  0  0  0  0  0  0  0  0  0  0  0
   -1.6608   25.0992  -28.2184 H   0  0  0  0  0  0  0  0  0  0  0  0
   -3.8646   22.0710  -27.1032 H   0  0  0  0  0  0  0  0  0  0  0  0
   -4.4587   22.1809  -28.8219 H   0  0  0  0  0  0  0  0  0  0  0  0
   -1.5294   21.8502  -28.0542 H   0  0  0  0  0  0  0  0  0  0  0  0
   -2.6654   20.4822  -28.4557 H   0  0  0  0  0  0  0  0  0  0  0  0
   -1.0674   21.9297  -30.2605 H   0  0  0  0  0  0  0  0  0  0  0  0
   -2.4052   20.7997  -30.6516 H   0  0  0  0  0  0  0  0  0  0  0  0
   -3.0500   24.8910  -31.1740 H   0  0  0  0  0  0  0  0  0  0  0  0
   -7.9063   24.7581  -30.5370 H   0  0  0  0  0  0  0  0  0  0  0  0
   -9.6236   22.5285  -31.0360 H   0  0  0  0  0  0  0  0  0  0  0  0
   -9.6216   20.1316  -31.8023 H   0  0  0  0  0  0  0  0  0  0  0  0
   -5.2829   20.2661  -32.2106 H   0  0  0  0  0  0  0  0  0  0  0  0
  1  2  1  0
  2  3  1  0
  2  4  1  0
  4  5  1  0
  5  6  1  0
  6  7  1  0
  7  8  1  0
  8  9  2  0
  8 10  1  0
 10 11  1  0
 11 12  1  0
 12 13  1  0
 12 14  2  0
 11 15  2  0
 15 16  1  0
 16 17  2  0
 17 18  1  0
 18 19  2  0
 19 20  1  0
 20 21  1  0
 20 22  1  0
 20 23  1  0
 19 24  1  0
 24 25  2  0
 25 10  1  0
 25 16  1  0
  1 26  1  0
  1 27  1  0
  1 28  1  0
  2 29  1  0
  3 30  1  0
  3 31  1  0
  3 32  1  0
  4 33  1  0
  4 34  1  0
  5 35  1  0
  5 36  1  0
  6 37  1  0
  6 38  1  0
 13 39  1  0
 15 40  1  0
 17 41  1  0
 18 42  1  0
 24 43  1  0
M  CHG  2   2   1  13  -1
M  END
>  <UniqueID>  (20) 
20

>  <SMILES>  (20) 
C[NH+](C)CCCOC(=O)n1c(C([NH-])=O)cc2ccc(C(F)(F)F)cc21

>  <Energy>  (20) 
80.05688965564865

>  <Genealogy>  (20) 
C[NH+](C)CCCOC(=O)n1c(C([NH-])=O)cc2ccc(C(F)(F)F)cc21 (protonated)
C[NH+](C)CCCOC(=O)n1c(C([NH-])=O)cc2ccc(C(F)(F)F)cc21 (3D coordinates assigned)
C[NH+](C)CCCOC(=O)n1c(C([NH-])=O)cc2ccc(C(F)(F)F)cc21 (optimized conformer: 80.05688965564865 kcal/mol)

>  <smiles>  (20) 
CN(C)CCCOC(=O)n1c(C(N)=O)cc2ccc(C(F)(F)F)cc21

>  <score_type>  (20) 
oracle

>  <origin>  (20) 
adg

>  <m_score__min__energy>  (20) 
-8.4900000000000002

>  <m_primary>  (20) 
energy

$$$$
20:0
     RDKit          3D

 46 50  0  0  0  0  0  0  0  0999 V2000
   -3.8680   25.3000  -30.5870 N   0  0  0  0  0  0  0  0  0  0  0  0
   -5.2670   25.1650  -30.3530 C   0  0  0  0  0  0  0  0  0  0  0  0
   -5.9000   26.1220  -29.8300 O   0  0  0  0  0  0  0  0  0  0  0  0
   -5.9910   23.9360  -30.7410 C   0  0  0  0  0  0  0  0  0  0  0  0
   -7.3270   23.9150  -31.1360 C   0  0  0  0  0  0  0  0  0  0  0  0
   -7.5910   22.6030  -31.4620 C   0  0  0  0  0  0  0  0  0  0  0  0
   -8.7690   22.0060  -31.9040 C   0  0  0  0  0  0  0  0  0  0  0  0
   -8.7550   20.6220  -32.1430 C   0  0  0  0  0  0  0  0  0  0  0  0
   -7.5710   19.8620  -31.9520 C   0  0  0  0  0  0  0  0  0  0  0  0
   -7.5860   18.3690  -32.1570 C   0  0  0  0  0  0  0  0  0  0  0  0
   -6.7350   17.7760  -31.2430 F   0  0  0  0  0  0  0  0  0  0  0  0
   -7.1690   18.0450  -33.4360 F   0  0  0  0  0  0  0  0  0  0  0  0
   -8.8630   17.8640  -31.9770 F   0  0  0  0  0  0  0  0  0  0  0  0
   -6.4020   20.5030  -31.4800 C   0  0  0  0  0  0  0  0  0  0  0  0
   -6.4440   21.8830  -31.2600 C   0  0  0  0  0  0  0  0  0  0  0  0
   -5.4570   22.6830  -30.8090 N   0  0  0  0  0  0  0  0  0  0  0  0
   -4.1320   22.2620  -30.4500 C   0  0  0  0  0  0  0  0  0  0  0  0
   -3.8030   22.2510  -29.2320 O   0  0  0  0  0  0  0  0  0  0  0  0
   -3.1440   21.8790  -31.4870 C   0  0  0  0  0  0  0  0  0  0  0  0
   -1.7810   21.7660  -31.1700 C   0  0  0  0  0  0  0  0  0  0  0  0
   -0.8570   21.4020  -32.1500 C   0  0  0  0  0  0  0  0  0  0  0  0
   -1.2970   21.1530  -33.4590 C   0  0  0  0  0  0  0  0  0  0  0  0
   -0.3770   20.7740  -34.5010 N   0  0  0  0  0  0  0  0  0  0  0  0
   -0.0700   19.4000  -34.8700 C   0  0  0  0  0  0  0  0  0  0  0  0
    0.9460   19.4800  -36.0030 C   0  0  2  0  0  0  0  0  0  0  0  0
    2.2940   20.0920  -35.6550 C   0  0  0  0  0  0  0  0  0  0  0  0
    1.2020   20.9520  -36.2760 C   0  0  2  0  0  0  0  0  0  0  0  0
    0.3410   21.7500  -35.3060 C   0  0  0  0  0  0  0  0  0  0  0  0
   -2.6220   21.2760  -33.7460 N   0  0  0  0  0  0  0  0  0  0  0  0
   -3.5420   21.6270  -32.8090 C   0  0  0  0  0  0  0  0  0  0  0  0
   -3.5000   26.0330  -31.2340 H   0  0  0  0  0  0  0  0  0  0  0  0
   -8.0232   24.7656  -31.1785 H   0  0  0  0  0  0  0  0  0  0  0  0
   -9.6817   22.5996  -32.0610 H   0  0  0  0  0  0  0  0  0  0  0  0
   -9.6732   20.1204  -32.4826 H   0  0  0  0  0  0  0  0  0  0  0  0
   -5.4824   19.9299  -31.2907 H   0  0  0  0  0  0  0  0  0  0  0  0
   -1.4397   21.9655  -30.1435 H   0  0  0  0  0  0  0  0  0  0  0  0
    0.2099   21.3108  -31.8981 H   0  0  0  0  0  0  0  0  0  0  0  0
   -0.9802   18.8842  -35.2099 H   0  0  0  0  0  0  0  0  0  0  0  0
    0.3280   18.8349  -34.0143 H   0  0  0  0  0  0  0  0  0  0  0  0
    0.6769   18.5658  -36.5523 H   0  0  0  0  0  0  0  0  0  0  0  0
    3.1863   19.8275  -36.2413 H   0  0  0  0  0  0  0  0  0  0  0  0
    2.9100   20.1526  -34.7457 H   0  0  0  0  0  0  0  0  0  0  0  0
    1.2135   21.6519  -37.1246 H   0  0  0  0  0  0  0  0  0  0  0  0
   -0.3681   22.3838  -35.8586 H   0  0  0  0  0  0  0  0  0  0  0  0
    0.9547   22.4128  -34.6783 H   0  0  0  0  0  0  0  0  0  0  0  0
   -4.6025   21.7139  -33.0880 H   0  0  0  0  0  0  0  0  0  0  0  0
  1  2  1  0
  2  3  2  0
  2  4  1  0
  4  5  2  0
  5  6  1  0
  6  7  2  0
  7  8  1  0
  8  9  2  0
  9 10  1  0
 10 11  1  0
 10 12  1  0
 10 13  1  0
  9 14  1  0
 14 15  2  0
 15 16  1  0
 16 17  1  0
 17 18  2  0
 17 19  1  0
 19 20  2  0
 20 21  1  0
 21 22  2  0
 22 23  1  0
 23 24  1  0
 24 25  1  0
 25 26  1  0
 26 27  1  0
 27 28  1  0
 22 29  1  0
 29 30  2  0
 16  4  1  0
 30 19  1  0
 15  6  1  0
 28 23  1  0
 27 25  1  0
  1 31  1  0
  5 32  1  0
  7 33  1  0
  8 34  1  0
 14 35  1  0
 20 36  1  0
 21 37  1  0
 24 38  1  0
 24 39  1  0
 25 40  1  6
 26 41  1  0
 26 42  1  0
 27 43  1  6
 28 44  1  0
 28 45  1  0
 30 46  1  0
M  CHG  1   1  -1
M  END
>  <UniqueID>  (21) 
21

>  <SMILES>  (21) 
[NH-]C(=O)c1cc2ccc(C(F)(F)F)cc2n1C(=O)c1ccc(N2C[C@H]3C[C@H]3C2)nc1

>  <Energy>  (21) 
358.373035499592

>  <Genealogy>  (21) 
[NH-]C(=O)c1cc2ccc(C(F)(F)F)cc2n1C(=O)c1ccc(N2CC3CC3C2)nc1 (protonated)
[NH-]C(=O)c1cc2ccc(C(F)(F)F)cc2n1C(=O)c1ccc(N2C[C@H]3C[C@H]3C2)nc1 (chirality)
[NH-]C(=O)c1cc2ccc(C(F)(F)F)cc2n1C(=O)c1ccc(N2C[C@H]3C[C@H]3C2)nc1 (3D coordinates assigned)
[NH-]C(=O)c1cc2ccc(C(F)(F)F)cc2n1C(=O)c1ccc(N2C[C@H]3C[C@H]3C2)nc1 (nonaromatic ring conformer: 358.373035499592 kcal/mol)

>  <smiles>  (21) 
NC(=O)c1cc2ccc(C(F)(F)F)cc2n1C(=O)c1ccc(N2CC3CC3C2)nc1

>  <score_type>  (21) 
oracle

>  <origin>  (21) 
adg

>  <m_score__min__energy>  (21) 
-11.99

>  <m_primary>  (21) 
energy

$$$$
21:0
     RDKit          3D

 43 45  0  0  0  0  0  0  0  0999 V2000
   -3.2790   21.7510  -29.0370 C   0  0  0  0  0  0  0  0  0  0  0  0
   -3.1460   22.7820  -30.1050 C   0  0  0  0  0  0  0  0  0  0  0  0
   -2.3280   23.7340  -29.9580 O   0  0  0  0  0  0  0  0  0  0  0  0
   -3.8860   22.6570  -31.3700 C   0  0  0  0  0  0  0  0  0  0  0  0
   -3.2670   22.4130  -32.4400 O   0  0  0  0  0  0  0  0  0  0  0  0
   -5.3140   22.7950  -31.3970 N   0  0  0  0  0  0  0  0  0  0  0  0
   -6.0570   23.8220  -30.9050 C   0  0  0  0  0  0  0  0  0  0  0  0
   -5.5180   25.0620  -30.3060 C   0  0  0  0  0  0  0  0  0  0  0  0
   -4.1720   25.4760  -30.5520 N   0  0  0  0  0  0  0  0  0  0  0  0
   -6.2760   25.7910  -29.6070 O   0  0  0  0  0  0  0  0  0  0  0  0
   -7.4160   23.5540  -31.0500 C   0  0  0  0  0  0  0  0  0  0  0  0
   -7.4800   22.3230  -31.6630 C   0  0  0  0  0  0  0  0  0  0  0  0
   -8.5830   21.5460  -32.0160 C   0  0  0  0  0  0  0  0  0  0  0  0
   -8.3480   20.2670  -32.5490 C   0  0  0  0  0  0  0  0  0  0  0  0
   -7.0210   19.7840  -32.6950 C   0  0  0  0  0  0  0  0  0  0  0  0
   -6.7790   18.4140  -33.0540 N   0  0  0  0  0  0  0  0  0  0  0  0
   -7.5860   17.4010  -32.3610 C   0  0  0  0  0  0  0  0  0  0  0  0
   -6.0440   18.0440  -34.2780 C   0  0  1  0  0  0  0  0  0  0  0  0
   -4.5670   18.4660  -34.2960 C   0  0  0  0  0  0  0  0  0  0  0  0
   -4.1510   17.0020  -34.3340 C   0  0  2  0  0  0  0  0  0  0  0  0
   -3.5630   16.6590  -35.5620 O   0  0  0  0  0  0  0  0  0  0  0  0
   -5.6130   16.5790  -34.2720 C   0  0  0  0  0  0  0  0  0  0  0  0
   -5.9310   20.6130  -32.3650 C   0  0  0  0  0  0  0  0  0  0  0  0
   -6.1950   21.8840  -31.8550 C   0  0  0  0  0  0  0  0  0  0  0  0
   -3.2166   22.2344  -28.0509 H   0  0  0  0  0  0  0  0  0  0  0  0
   -4.2500   21.2437  -29.1359 H   0  0  0  0  0  0  0  0  0  0  0  0
   -2.4685   21.0139  -29.1359 H   0  0  0  0  0  0  0  0  0  0  0  0
   -3.5690   24.9510  -31.2260 H   0  0  0  0  0  0  0  0  0  0  0  0
   -3.8670   26.4400  -30.2880 H   0  0  0  0  0  0  0  0  0  0  0  0
   -8.2584   24.1902  -30.7407 H   0  0  0  0  0  0  0  0  0  0  0  0
   -9.6074   21.9233  -31.8811 H   0  0  0  0  0  0  0  0  0  0  0  0
   -9.1964   19.6371  -32.8546 H   0  0  0  0  0  0  0  0  0  0  0  0
   -7.4826   17.5308  -31.2736 H   0  0  0  0  0  0  0  0  0  0  0  0
   -8.6424   17.5164  -32.6452 H   0  0  0  0  0  0  0  0  0  0  0  0
   -7.2374   16.3972  -32.6452 H   0  0  0  0  0  0  0  0  0  0  0  0
   -6.7321   18.4445  -35.0370 H   0  0  0  0  0  0  0  0  0  0  0  0
   -4.2744   19.0396  -35.1879 H   0  0  0  0  0  0  0  0  0  0  0  0
   -4.1700   19.1383  -33.5211 H   0  0  0  0  0  0  0  0  0  0  0  0
   -3.4223   16.6086  -33.6100 H   0  0  0  0  0  0  0  0  0  0  0  0
   -4.2570   16.8380  -36.2500 H   0  0  0  0  0  0  0  0  0  0  0  0
   -5.9520   16.0086  -35.1493 H   0  0  0  0  0  0  0  0  0  0  0  0
   -5.9612   15.9018  -33.4782 H   0  0  0  0  0  0  0  0  0  0  0  0
   -4.8966   20.2663  -32.5061 H   0  0  0  0  0  0  0  0  0  0  0  0
  1  2  1  0
  2  3  2  0
  2  4  1  0
  4  5  2  0
  4  6  1  0
  6  7  1  0
  7  8  1  0
  8  9  1  0
  8 10  2  0
  7 11  2  0
 11 12  1  0
 12 13  2  0
 13 14  1  0
 14 15  2  0
 15 16  1  0
 16 17  1  0
 16 18  1  0
 18 19  1  0
 19 20  1  0
 20 21  1  0
 20 22  1  0
 15 23  1  0
 23 24  2  0
 24  6  1  0
 24 12  1  0
 22 18  1  0
  1 25  1  0
  1 26  1  0
  1 27  1  0
  9 28  1  0
  9 29  1  0
 11 30  1  0
 13 31  1  0
 14 32  1  0
 17 33  1  0
 17 34  1  0
 17 35  1  0
 18 36  1  6
 19 37  1  0
 19 38  1  0
 20 39  1  1
 21 40  1  0
 22 41  1  0
 22 42  1  0
 23 43  1  0
M  END
>  <UniqueID>  (22) 
22

>  <SMILES>  (22) 
CC(=O)C(=O)n1c(C(N)=O)cc2ccc(N(C)C3CC(O)C3)cc21

>  <Energy>  (22) 
154.11907071705227

>  <Genealogy>  (22) 
CC(=O)C(=O)n1c(C(N)=O)cc2ccc(N(C)C3CC(O)C3)cc21 (3D coordinates assigned)
CC(=O)C(=O)n1c(C(N)=O)cc2ccc(N(C)C3CC(O)C3)cc21 (nonaromatic ring conformer: 154.11907071705227 kcal/mol)

>  <smiles>  (22) 
CC(=O)C(=O)n1c(C(N)=O)cc2ccc(N(C)C3CC(O)C3)cc21

>  <score_type>  (22) 
oracle

>  <origin>  (22) 
adg

>  <m_score__min__energy>  (22) 
-9.3000000000000007

>  <m_primary>  (22) 
energy

$$$$
22:0
     RDKit          3D

 55 56  0  0  0  0  0  0  0  0999 V2000
   -6.1000   16.6780  -34.4750 C   0  0  0  0  0  0  0  0  0  0  0  0
   -6.1820   17.9290  -34.0730 C   0  0  0  0  0  0  0  0  0  0  0  0
   -6.0790   18.9630  -35.0010 O   0  0  0  0  0  0  0  0  0  0  0  0
   -6.3750   18.2550  -32.7080 N   0  0  0  0  0  0  0  0  0  0  0  0
   -6.1260   17.2250  -31.6900 C   0  0  0  0  0  0  0  0  0  0  0  0
   -6.8010   19.5480  -32.3420 C   0  0  0  0  0  0  0  0  0  0  0  0
   -8.1060   19.9290  -32.5470 C   0  0  0  0  0  0  0  0  0  0  0  0
   -8.4540   21.2050  -32.1690 C   0  0  0  0  0  0  0  0  0  0  0  0
   -7.5270   22.0510  -31.6110 C   0  0  0  0  0  0  0  0  0  0  0  0
   -7.6510   23.3420  -31.2060 C   0  0  0  0  0  0  0  0  0  0  0  0
   -6.3970   23.7840  -30.7280 C   0  0  0  0  0  0  0  0  0  0  0  0
   -6.2720   25.1260  -30.2150 C   0  0  0  0  0  0  0  0  0  0  0  0
   -5.1440   25.9630  -30.1770 N   0  0  0  0  0  0  0  0  0  0  0  0
   -7.3330   25.6690  -29.7000 O   0  0  0  0  0  0  0  0  0  0  0  0
   -5.5130   22.7460  -30.8510 N   0  0  0  0  0  0  0  0  0  0  0  0
   -4.1520   22.8890  -30.5860 C   0  0  0  0  0  0  0  0  0  0  0  0
   -3.6690   23.9850  -31.1610 O   0  0  0  0  0  0  0  0  0  0  0  0
   -3.1790   22.2130  -29.8870 N   0  0  0  0  0  0  0  0  0  0  0  0
   -2.2660   21.1630  -30.2520 C   0  0  0  0  0  0  0  0  0  0  0  0
   -2.9930   22.6360  -28.4510 C   0  0  0  0  0  0  0  0  0  0  0  0
   -3.3850   24.0580  -28.3210 C   0  0  0  0  0  0  0  0  0  0  0  0
   -4.5690   24.3620  -27.9470 O   0  0  0  0  0  0  0  0  0  0  0  0
   -2.4520   25.0200  -28.6090 O   0  0  0  0  0  0  0  0  0  0  0  0
   -1.2970   25.2630  -27.8300 C   0  0  0  0  0  0  0  0  0  0  0  0
   -1.6630   24.9800  -26.3910 C   0  0  0  0  0  0  0  0  0  0  0  0
   -0.1590   24.3530  -28.2200 C   0  0  0  0  0  0  0  0  0  0  0  0
   -0.8610   26.7140  -27.9170 C   0  0  0  0  0  0  0  0  0  0  0  0
   -6.2060   21.7010  -31.3880 C   0  0  0  0  0  0  0  0  0  0  0  0
   -5.8870   20.4170  -31.7790 C   0  0  0  0  0  0  0  0  0  0  0  0
   -6.1809   15.8593  -33.7449 H   0  0  0  0  0  0  0  0  0  0  0  0
   -5.9506   16.4515  -35.5410 H   0  0  0  0  0  0  0  0  0  0  0  0
   -6.8260   19.0750  -35.6610 H   0  0  0  0  0  0  0  0  0  0  0  0
   -6.2327   17.6664  -30.6881 H   0  0  0  0  0  0  0  0  0  0  0  0
   -6.8524   16.4078  -31.8099 H   0  0  0  0  0  0  0  0  0  0  0  0
   -5.1065   16.8298  -31.8099 H   0  0  0  0  0  0  0  0  0  0  0  0
   -8.8404   19.2429  -32.9941 H   0  0  0  0  0  0  0  0  0  0  0  0
   -9.4875   21.5521  -32.3154 H   0  0  0  0  0  0  0  0  0  0  0  0
   -8.5723   23.9419  -31.2439 H   0  0  0  0  0  0  0  0  0  0  0  0
   -5.0910   26.9190  -30.5950 H   0  0  0  0  0  0  0  0  0  0  0  0
   -4.2480   25.6560  -29.6920 H   0  0  0  0  0  0  0  0  0  0  0  0
   -1.8606   20.6968  -29.3419 H   0  0  0  0  0  0  0  0  0  0  0  0
   -2.7974   20.4053  -30.8466 H   0  0  0  0  0  0  0  0  0  0  0  0
   -1.4419   21.5840  -30.8466 H   0  0  0  0  0  0  0  0  0  0  0  0
   -3.6250   22.0165  -27.7977 H   0  0  0  0  0  0  0  0  0  0  0  0
   -1.9411   22.5084  -28.1557 H   0  0  0  0  0  0  0  0  0  0  0  0
   -0.9707   25.5153  -25.7245 H   0  0  0  0  0  0  0  0  0  0  0  0
   -2.6917   25.3199  -26.2006 H   0  0  0  0  0  0  0  0  0  0  0  0
   -1.5929   23.8989  -26.2006 H   0  0  0  0  0  0  0  0  0  0  0  0
    0.3270   23.9643  -27.3130 H   0  0  0  0  0  0  0  0  0  0  0  0
   -0.5480   23.5141  -28.8157 H   0  0  0  0  0  0  0  0  0  0  0  0
    0.5738   24.9170  -28.8157 H   0  0  0  0  0  0  0  0  0  0  0  0
   -0.7385   27.1215  -26.9026 H   0  0  0  0  0  0  0  0  0  0  0  0
    0.0959   26.7777  -28.4557 H   0  0  0  0  0  0  0  0  0  0  0  0
   -1.6244   27.2946  -28.4557 H   0  0  0  0  0  0  0  0  0  0  0  0
   -4.8537   20.0681  -31.6353 H   0  0  0  0  0  0  0  0  0  0  0  0
  1  2  2  0
  2  3  1  0
  2  4  1  0
  4  5  1  0
  4  6  1  0
  6  7  2  0
  7  8  1  0
  8  9  2  0
  9 10  1  0
 10 11  2  0
 11 12  1  0
 12 13  1  0
 12 14  2  0
 11 15  1  0
 15 16  1  0
 16 17  2  0
 16 18  1  0
 18 19  1  0
 18 20  1  0
 20 21  1  0
 21 22  2  0
 21 23  1  0
 23 24  1  0
 24 25  1  0
 24 26  1  0
 24 27  1  0
 15 28  1  0
 28 29  2  0
 29  6  1  0
 28  9  1  0
  1 30  1  0
  1 31  1  0
  3 32  1  0
  5 33  1  0
  5 34  1  0
  5 35  1  0
  7 36  1  0
  8 37  1  0
 10 38  1  0
 13 39  1  0
 13 40  1  0
 19 41  1  0
 19 42  1  0
 19 43  1  0
 20 44  1  0
 20 45  1  0
 25 46  1  0
 25 47  1  0
 25 48  1  0
 26 49  1  0
 26 50  1  0
 26 51  1  0
 27 52  1  0
 27 53  1  0
 27 54  1  0
 29 55  1  0
M  END
>  <smiles>  (23) 
C=C(O)N(C)c1ccc2cc(C(N)=O)n(C(=O)N(C)CC(=O)OC(C)(C)C)c2c1

>  <score_type>  (23) 
oracle

>  <origin>  (23) 
adg

>  <m_score__min__energy>  (23) 
-9.3100000000000005

>  <m_primary>  (23) 
energy

$$$$
23:0
     RDKit          3D

 34 35  0  0  0  0  0  0  0  0999 V2000
   -3.9280   25.1410  -30.0420 N   0  0  0  0  0  0  0  0  0  0  0  0
   -5.1760   25.1110  -30.7370 C   0  0  0  0  0  0  0  0  0  0  0  0
   -5.6990   26.1920  -31.1150 O   0  0  0  0  0  0  0  0  0  0  0  0
   -5.8300   23.8310  -31.0760 C   0  0  0  0  0  0  0  0  0  0  0  0
   -7.1790   23.5770  -30.8460 C   0  0  0  0  0  0  0  0  0  0  0  0
   -7.4020   22.3170  -31.3490 C   0  0  0  0  0  0  0  0  0  0  0  0
   -8.5690   21.5580  -31.3700 C   0  0  0  0  0  0  0  0  0  0  0  0
   -8.5050   20.2670  -31.9170 C   0  0  0  0  0  0  0  0  0  0  0  0
   -7.2830   19.7570  -32.4220 C   0  0  0  0  0  0  0  0  0  0  0  0
   -7.2140   18.3670  -32.9880 C   0  0  0  0  0  0  0  0  0  0  0  0
   -6.3670   18.3480  -34.0820 F   0  0  0  0  0  0  0  0  0  0  0  0
   -6.7380   17.4960  -32.0260 F   0  0  0  0  0  0  0  0  0  0  0  0
   -6.1180   20.5540  -32.3800 C   0  0  0  0  0  0  0  0  0  0  0  0
   -6.2140   21.8460  -31.8480 C   0  0  0  0  0  0  0  0  0  0  0  0
   -5.2360   22.7670  -31.6860 N   0  0  0  0  0  0  0  0  0  0  0  0
   -3.8360   22.6000  -31.9700 C   0  0  0  0  0  0  0  0  0  0  0  0
   -3.4680   21.9560  -32.9900 O   0  0  0  0  0  0  0  0  0  0  0  0
   -2.8850   23.1550  -31.1090 O   0  0  0  0  0  0  0  0  0  0  0  0
   -1.9060   22.3720  -30.4300 C   0  0  0  0  0  0  0  0  0  0  0  0
   -1.6640   22.9350  -29.0300 C   0  0  0  0  0  0  0  0  0  0  0  0
   -0.9350   22.0230  -28.2870 F   0  0  0  0  0  0  0  0  0  0  0  0
   -2.8830   23.1360  -28.4050 F   0  0  0  0  0  0  0  0  0  0  0  0
   -0.9180   24.2340  -29.1020 C   0  0  0  0  0  0  0  0  0  0  0  0
    0.3310   24.2590  -28.9350 O   0  0  0  0  0  0  0  0  0  0  0  0
   -1.6070   25.4250  -29.2940 O   0  0  0  0  0  0  0  0  0  0  0  0
   -3.4990   26.0560  -29.7750 H   0  0  0  0  0  0  0  0  0  0  0  0
   -3.3920   24.2650  -29.8570 H   0  0  0  0  0  0  0  0  0  0  0  0
   -7.9107   24.2424  -30.3645 H   0  0  0  0  0  0  0  0  0  0  0  0
   -9.5125   21.9579  -30.9701 H   0  0  0  0  0  0  0  0  0  0  0  0
   -9.4117   19.6453  -31.9541 H   0  0  0  0  0  0  0  0  0  0  0  0
   -8.2218   18.0556  -33.3002 H   0  0  0  0  0  0  0  0  0  0  0  0
   -5.1585   20.1694  -32.7560 H   0  0  0  0  0  0  0  0  0  0  0  0
   -2.2621   21.3344  -30.3486 H   0  0  0  0  0  0  0  0  0  0  0  0
   -0.9643   22.4003  -30.9978 H   0  0  0  0  0  0  0  0  0  0  0  0
  1  2  1  0
  2  3  2  0
  2  4  1  0
  4  5  2  0
  5  6  1  0
  6  7  2  0
  7  8  1  0
  8  9  2  0
  9 10  1  0
 10 11  1  0
 10 12  1  0
  9 13  1  0
 13 14  2  0
 14 15  1  0
 15 16  1  0
 16 17  2  0
 16 18  1  0
 18 19  1  0
 19 20  1  0
 20 21  1  0
 20 22  1  0
 20 23  1  0
 23 24  2  0
 23 25  1  0
 15  4  1  0
 14  6  1  0
  1 26  1  0
  1 27  1  0
  5 28  1  0
  7 29  1  0
  8 30  1  0
 10 31  1  0
 13 32  1  0
 19 33  1  0
 19 34  1  0
M  CHG  1  25  -1
M  END
>  <UniqueID>  (24) 
23

>  <SMILES>  (24) 
NC(=O)c1cc2ccc(C(F)F)cc2n1C(=O)OCC(F)(F)C(=O)[O-]

>  <Energy>  (24) 
68.17847714868427

>  <Genealogy>  (24) 
NC(=O)c1cc2ccc(C(F)F)cc2n1C(=O)OCC(F)(F)C(=O)[O-] (protonated)
NC(=O)c1cc2ccc(C(F)F)cc2n1C(=O)OCC(F)(F)C(=O)[O-] (3D coordinates assigned)
NC(=O)c1cc2ccc(C(F)F)cc2n1C(=O)OCC(F)(F)C(=O)[O-] (optimized conformer: 68.17847714868427 kcal/mol)

>  <smiles>  (24) 
NC(=O)c1cc2ccc(C(F)F)cc2n1C(=O)OCC(F)(F)C(=O)O

>  <score_type>  (24) 
oracle

>  <origin>  (24) 
adg

>  <m_score__min__energy>  (24) 
-10.08

>  <m_primary>  (24) 
energy

$$$$
24:0
     RDKit          3D

 40 42  0  0  0  0  0  0  0  0999 V2000
   -3.8720   25.6560  -30.8480 N   0  0  0  0  0  0  0  0  0  0  0  0
   -5.2380   25.5170  -30.4680 C   0  0  0  0  0  0  0  0  0  0  0  0
   -5.8440   26.5020  -29.9680 O   0  0  0  0  0  0  0  0  0  0  0  0
   -5.9670   24.2530  -30.7030 C   0  0  0  0  0  0  0  0  0  0  0  0
   -7.3510   24.1810  -30.8480 C   0  0  0  0  0  0  0  0  0  0  0  0
   -7.6210   22.8620  -31.1310 C   0  0  0  0  0  0  0  0  0  0  0  0
   -8.8380   22.2230  -31.3460 C   0  0  0  0  0  0  0  0  0  0  0  0
   -8.8240   20.8370  -31.5750 C   0  0  0  0  0  0  0  0  0  0  0  0
   -7.6010   20.1200  -31.5870 C   0  0  0  0  0  0  0  0  0  0  0  0
   -7.6040   18.6280  -31.7760 C   0  0  0  0  0  0  0  0  0  0  0  0
   -6.4510   18.2100  -32.6510 C   0  0  0  0  0  0  0  0  0  0  0  0
   -5.6440   17.1230  -32.2730 C   0  0  0  0  0  0  0  0  0  0  0  0
   -4.5480   16.7490  -33.0590 C   0  0  0  0  0  0  0  0  0  0  0  0
   -3.7780   15.6970  -32.6890 F   0  0  0  0  0  0  0  0  0  0  0  0
   -4.2460   17.4620  -34.2210 C   0  0  0  0  0  0  0  0  0  0  0  0
   -5.0360   18.5510  -34.5990 C   0  0  0  0  0  0  0  0  0  0  0  0
   -6.1330   18.9300  -33.8190 C   0  0  0  0  0  0  0  0  0  0  0  0
   -6.8800   19.9950  -34.2020 F   0  0  0  0  0  0  0  0  0  0  0  0
   -6.3860   20.8020  -31.3560 C   0  0  0  0  0  0  0  0  0  0  0  0
   -6.4290   22.1850  -31.1470 C   0  0  0  0  0  0  0  0  0  0  0  0
   -5.4040   23.0250  -30.8830 N   0  0  0  0  0  0  0  0  0  0  0  0
   -4.0260   22.6590  -30.7140 C   0  0  0  0  0  0  0  0  0  0  0  0
   -3.2390   22.7040  -31.6980 O   0  0  0  0  0  0  0  0  0  0  0  0
   -3.5720   22.2270  -29.4620 O   0  0  0  0  0  0  0  0  0  0  0  0
   -2.9230   23.0860  -28.5270 C   0  0  0  0  0  0  0  0  0  0  0  0
   -1.8670   23.8960  -29.2110 C   0  0  0  0  0  0  0  0  0  0  0  0
   -0.8840   23.3270  -29.7540 O   0  0  0  0  0  0  0  0  0  0  0  0
   -1.9560   25.2810  -29.2240 O   0  0  0  0  0  0  0  0  0  0  0  0
   -3.2400   24.8250  -30.8940 H   0  0  0  0  0  0  0  0  0  0  0  0
   -8.0745   25.0044  -30.7557 H   0  0  0  0  0  0  0  0  0  0  0  0
   -9.7829   22.7861  -31.3370 H   0  0  0  0  0  0  0  0  0  0  0  0
   -9.7704   20.3033  -31.7465 H   0  0  0  0  0  0  0  0  0  0  0  0
   -7.5120   18.1378  -30.7956 H   0  0  0  0  0  0  0  0  0  0  0  0
   -8.5463   18.3302  -32.2590 H   0  0  0  0  0  0  0  0  0  0  0  0
   -5.8750   16.5633  -31.3546 H   0  0  0  0  0  0  0  0  0  0  0  0
   -3.3856   17.1663  -34.8393 H   0  0  0  0  0  0  0  0  0  0  0  0
   -4.7940   19.1122  -35.5136 H   0  0  0  0  0  0  0  0  0  0  0  0
   -5.4293   20.2593  -31.3408 H   0  0  0  0  0  0  0  0  0  0  0  0
   -3.6661   23.7625  -28.0795 H   0  0  0  0  0  0  0  0  0  0  0  0
   -2.4522   22.4724  -27.7448 H   0  0  0  0  0  0  0  0  0  0  0  0
  1  2  1  0
  2  3  2  0
  2  4  1  0
  4  5  2  0
  5  6  1  0
  6  7  2  0
  7  8  1  0
  8  9  2  0
  9 10  1  0
 10 11  1  0
 11 12  2  0
 12 13  1  0
 13 14  1  0
 13 15  2  0
 15 16  1  0
 16 17  2  0
 17 18  1  0
  9 19  1  0
 19 20  2  0
 20 21  1  0
 21 22  1  0
 22 23  2  0
 22 24  1  0
 24 25  1  0
 25 26  1  0
 26 27  2  0
 26 28  1  0
 21  4  1  0
 20  6  1  0
 17 11  1  0
  1 29  1  0
  5 30  1  0
  7 31  1  0
  8 32  1  0
 10 33  1  0
 10 34  1  0
 12 35  1  0
 15 36  1  0
 16 37  1  0
 19 38  1  0
 25 39  1  0
 25 40  1  0
M  CHG  2   1  -1  28  -1
M  END
>  <UniqueID>  (25) 
24

>  <SMILES>  (25) 
[NH-]C(=O)c1cc2ccc(Cc3cc(F)ccc3F)cc2n1C(=O)OCC(=O)[O-]

>  <Energy>  (25) 
78.4958003022245

>  <Genealogy>  (25) 
[NH-]C(=O)c1cc2ccc(Cc3cc(F)ccc3F)cc2n1C(=O)OCC(=O)[O-] (protonated)
[NH-]C(=O)c1cc2ccc(Cc3cc(F)ccc3F)cc2n1C(=O)OCC(=O)[O-] (3D coordinates assigned)
[NH-]C(=O)c1cc2ccc(Cc3cc(F)ccc3F)cc2n1C(=O)OCC(=O)[O-] (optimized conformer: 78.4958003022245 kcal/mol)

>  <smiles>  (25) 
NC(=O)c1cc2ccc(Cc3cc(F)ccc3F)cc2n1C(=O)OCC(=O)O

>  <score_type>  (25) 
oracle

>  <origin>  (25) 
adg

>  <m_score__min__energy>  (25) 
-13.119999999999999

>  <m_primary>  (25) 
energy

$$$$
25:0
     RDKit          3D

 39 40  0  0  0  0  0  0  0  0999 V2000
   -1.9750   25.5770  -25.8180 C   0  0  0  0  0  0  0  0  0  0  0  0
   -1.5410   24.6200  -26.8390 N   0  0  0  0  0  0  0  0  0  0  0  0
   -1.7600   23.1800  -26.6510 C   0  0  0  0  0  0  0  0  0  0  0  0
   -2.3360   22.5970  -27.8660 C   0  0  0  0  0  0  0  0  0  0  0  0
   -2.8090   22.1230  -28.8680 C   0  0  0  0  0  0  0  0  0  0  0  0
   -3.3760   21.5610  -30.0650 C   0  0  0  0  0  0  0  0  0  0  0  0
   -3.3990   20.3100  -30.2040 O   0  0  0  0  0  0  0  0  0  0  0  0
   -3.9080   22.4350  -31.1250 C   0  0  0  0  0  0  0  0  0  0  0  0
   -3.1240   22.9300  -31.9810 O   0  0  0  0  0  0  0  0  0  0  0  0
   -5.3150   22.7060  -31.2160 N   0  0  0  0  0  0  0  0  0  0  0  0
   -5.9620   23.8440  -30.8370 C   0  0  0  0  0  0  0  0  0  0  0  0
   -5.3160   25.0950  -30.3880 C   0  0  0  0  0  0  0  0  0  0  0  0
   -3.9140   25.1540  -30.1180 N   0  0  0  0  0  0  0  0  0  0  0  0
   -6.0070   26.1440  -30.2840 O   0  0  0  0  0  0  0  0  0  0  0  0
   -7.3410   23.6780  -30.9300 C   0  0  0  0  0  0  0  0  0  0  0  0
   -7.5230   22.3900  -31.3840 C   0  0  0  0  0  0  0  0  0  0  0  0
   -8.6960   21.6820  -31.6260 C   0  0  0  0  0  0  0  0  0  0  0  0
   -8.5850   20.3430  -32.0360 C   0  0  0  0  0  0  0  0  0  0  0  0
   -7.3120   19.7360  -32.1850 C   0  0  0  0  0  0  0  0  0  0  0  0
   -7.1990   18.2960  -32.5960 C   0  0  0  0  0  0  0  0  0  0  0  0
   -6.2720   18.1710  -33.6150 F   0  0  0  0  0  0  0  0  0  0  0  0
   -6.7930   17.5350  -31.5150 F   0  0  0  0  0  0  0  0  0  0  0  0
   -6.1440   20.4840  -31.9200 C   0  0  0  0  0  0  0  0  0  0  0  0
   -6.2840   21.8230  -31.5420 C   0  0  0  0  0  0  0  0  0  0  0  0
   -0.9190   25.1120  -28.0400 C   0  0  0  0  0  0  0  0  0  0  0  0
    0.3350   25.1020  -28.1640 O   0  0  0  0  0  0  0  0  0  0  0  0
   -1.6970   25.6070  -29.0820 O   0  0  0  0  0  0  0  0  0  0  0  0
   -1.7851   25.1583  -24.8187 H   0  0  0  0  0  0  0  0  0  0  0  0
   -1.4149   26.5165  -25.9344 H   0  0  0  0  0  0  0  0  0  0  0  0
   -3.0508   25.7746  -25.9344 H   0  0  0  0  0  0  0  0  0  0  0  0
   -0.7992   22.6910  -26.4326 H   0  0  0  0  0  0  0  0  0  0  0  0
   -2.4557   23.0273  -25.8128 H   0  0  0  0  0  0  0  0  0  0  0  0
   -3.4910   26.0330  -29.7460 H   0  0  0  0  0  0  0  0  0  0  0  0
   -3.2790   24.3690  -30.3780 H   0  0  0  0  0  0  0  0  0  0  0  0
   -8.1196   24.4177  -30.6918 H   0  0  0  0  0  0  0  0  0  0  0  0
   -9.6804   22.1564  -31.5001 H   0  0  0  0  0  0  0  0  0  0  0  0
   -9.4942   19.7597  -32.2435 H   0  0  0  0  0  0  0  0  0  0  0  0
   -8.1802   17.9446  -32.9479 H   0  0  0  0  0  0  0  0  0  0  0  0
   -5.1484   20.0247  -32.0087 H   0  0  0  0  0  0  0  0  0  0  0  0
  1  2  1  0
  2  3  1  0
  3  4  1  0
  4  5  3  0
  5  6  1  0
  6  7  2  0
  6  8  1  0
  8  9  2  0
  8 10  1  0
 10 11  1  0
 11 12  1  0
 12 13  1  0
 12 14  2  0
 11 15  2  0
 15 16  1  0
 16 17  2  0
 17 18  1  0
 18 19  2  0
 19 20  1  0
 20 21  1  0
 20 22  1  0
 19 23  1  0
 23 24  2  0
  2 25  1  0
 25 26  2  0
 25 27  1  0
 24 10  1  0
 24 16  1  0
  1 28  1  0
  1 29  1  0
  1 30  1  0
  3 31  1  0
  3 32  1  0
 13 33  1  0
 13 34  1  0
 15 35  1  0
 17 36  1  0
 18 37  1  0
 20 38  1  0
 23 39  1  0
M  CHG  1  27  -1
M  END
>  <UniqueID>  (26) 
25

>  <SMILES>  (26) 
CN(CC#CC(=O)C(=O)n1c(C(N)=O)cc2ccc(C(F)F)cc21)C(=O)[O-]

>  <Energy>  (26) 
71.38829815353735

>  <Genealogy>  (26) 
CN(CC#CC(=O)C(=O)n1c(C(N)=O)cc2ccc(C(F)F)cc21)C(=O)[O-] (protonated)
CN(CC#CC(=O)C(=O)n1c(C(N)=O)cc2ccc(C(F)F)cc21)C(=O)[O-] (3D coordinates assigned)
CN(CC#CC(=O)C(=O)n1c(C(N)=O)cc2ccc(C(F)F)cc21)C(=O)[O-] (optimized conformer: 71.38829815353735 kcal/mol)

>  <smiles>  (26) 
CN(CC#CC(=O)C(=O)n1c(C(N)=O)cc2ccc(C(F)F)cc21)C(=O)O

>  <score_type>  (26) 
oracle

>  <origin>  (26) 
adg

>  <m_score__min__energy>  (26) 
-11.050000000000001

>  <m_primary>  (26) 
energy

$$$$
26:0
     RDKit          3D

 57 60  0  0  0  0  0  0  0  0999 V2000
   -2.5620   19.6530  -26.7500 C   0  0  0  0  0  0  0  0  0  0  0  0
   -1.2930   20.3700  -26.9180 N   0  0  0  0  0  0  0  0  0  0  0  0
   -0.1630   19.7060  -27.5980 C   0  0  0  0  0  0  0  0  0  0  0  0
   -0.5030   18.2480  -27.9180 C   0  0  0  0  0  0  0  0  0  0  0  0
    0.2110   17.3860  -27.0730 O   0  0  0  0  0  0  0  0  0  0  0  0
   -1.2140   21.7480  -26.4880 C   0  0  0  0  0  0  0  0  0  0  0  0
   -0.5410   22.1430  -25.0420 S   0  0  0  0  0  0  0  0  0  0  0  0
   -1.5410   22.7980  -27.4130 N   0  0  0  0  0  0  0  0  0  0  0  0
   -2.7700   23.5550  -27.4570 C   0  0  1  0  0  0  0  0  0  0  0  0
   -2.3380   24.8960  -28.0670 C   0  0  0  0  0  0  0  0  0  0  0  0
   -1.0490   24.5800  -28.8360 C   0  0  0  0  0  0  0  0  0  0  0  0
   -0.8430   23.0740  -28.6450 C   0  0  2  0  0  0  0  0  0  0  0  0
   -1.5250   22.2800  -29.7790 C   0  0  0  0  0  0  0  0  0  0  0  0
   -3.0860   22.1040  -29.6230 C   0  0  2  0  0  0  0  0  0  0  0  0
   -3.8230   22.3740  -30.9310 C   0  0  0  0  0  0  0  0  0  0  0  0
   -3.1770   22.4610  -32.0130 O   0  0  0  0  0  0  0  0  0  0  0  0
   -5.2410   22.6190  -30.9620 N   0  0  0  0  0  0  0  0  0  0  0  0
   -5.8830   23.8020  -30.7270 C   0  0  0  0  0  0  0  0  0  0  0  0
   -5.2360   25.0960  -30.4220 C   0  0  0  0  0  0  0  0  0  0  0  0
   -3.8420   25.3000  -30.6270 N   0  0  0  0  0  0  0  0  0  0  0  0
   -5.9220   26.0310  -29.9250 O   0  0  0  0  0  0  0  0  0  0  0  0
   -7.2530   23.6640  -30.9360 C   0  0  0  0  0  0  0  0  0  0  0  0
   -7.4360   22.3520  -31.3010 C   0  0  0  0  0  0  0  0  0  0  0  0
   -8.6000   21.6830  -31.6630 C   0  0  0  0  0  0  0  0  0  0  0  0
   -8.4950   20.3310  -32.0300 C   0  0  0  0  0  0  0  0  0  0  0  0
   -7.2360   19.6710  -32.0140 C   0  0  0  0  0  0  0  0  0  0  0  0
   -7.1030   18.2450  -32.4900 C   0  0  0  0  0  0  0  0  0  0  0  0
   -6.7240   18.2220  -33.8210 F   0  0  0  0  0  0  0  0  0  0  0  0
   -6.1560   17.5500  -31.7580 F   0  0  0  0  0  0  0  0  0  0  0  0
   -8.3250   17.6090  -32.3590 F   0  0  0  0  0  0  0  0  0  0  0  0
   -6.0760   20.3880  -31.6410 C   0  0  0  0  0  0  0  0  0  0  0  0
   -6.2090   21.7390  -31.3060 C   0  0  0  0  0  0  0  0  0  0  0  0
   -3.7560   22.8280  -28.3920 C   0  0  0  0  0  0  0  0  0  0  0  0
   -2.7757   19.5322  -25.6777 H   0  0  0  0  0  0  0  0  0  0  0  0
   -3.3726   20.2266  -27.2232 H   0  0  0  0  0  0  0  0  0  0  0  0
   -2.4890   18.6626  -27.2232 H   0  0  0  0  0  0  0  0  0  0  0  0
    0.0579   20.2389  -28.5346 H   0  0  0  0  0  0  0  0  0  0  0  0
    0.7115   19.7263  -26.9310 H   0  0  0  0  0  0  0  0  0  0  0  0
   -1.5815   18.0866  -27.7739 H   0  0  0  0  0  0  0  0  0  0  0  0
   -0.2270   18.0365  -28.9616 H   0  0  0  0  0  0  0  0  0  0  0  0
   -0.4440   16.7410  -26.7000 H   0  0  0  0  0  0  0  0  0  0  0  0
   -3.2635   23.6777  -26.4816 H   0  0  0  0  0  0  0  0  0  0  0  0
   -2.1461   25.6371  -27.2771 H   0  0  0  0  0  0  0  0  0  0  0  0
   -3.1144   25.3256  -28.7171 H   0  0  0  0  0  0  0  0  0  0  0  0
   -0.2008   25.1436  -28.4201 H   0  0  0  0  0  0  0  0  0  0  0  0
   -1.1179   24.8598  -29.8976 H   0  0  0  0  0  0  0  0  0  0  0  0
    0.2212   22.7957  -28.6395 H   0  0  0  0  0  0  0  0  0  0  0  0
   -1.0705   21.2790  -29.8162 H   0  0  0  0  0  0  0  0  0  0  0  0
   -1.3712   22.8631  -30.6990 H   0  0  0  0  0  0  0  0  0  0  0  0
   -3.2013   21.0392  -29.3724 H   0  0  0  0  0  0  0  0  0  0  0  0
   -3.5030   26.0520  -31.2640 H   0  0  0  0  0  0  0  0  0  0  0  0
   -8.0249   24.4406  -30.8311 H   0  0  0  0  0  0  0  0  0  0  0  0
   -9.5728   22.1964  -31.6620 H   0  0  0  0  0  0  0  0  0  0  0  0
   -9.3961   19.7775  -32.3328 H   0  0  0  0  0  0  0  0  0  0  0  0
   -5.0929   19.8951  -31.6150 H   0  0  0  0  0  0  0  0  0  0  0  0
   -4.2941   22.0720  -27.8013 H   0  0  0  0  0  0  0  0  0  0  0  0
   -4.4166   23.6024  -28.8092 H   0  0  0  0  0  0  0  0  0  0  0  0
  1  2  1  0
  2  3  1  0
  3  4  1  0
  4  5  1  0
  2  6  1  0
  6  7  2  0
  6  8  1  0
  8  9  1  0
  9 10  1  0
 10 11  1  0
 11 12  1  0
 12 13  1  0
 13 14  1  0
 14 15  1  0
 15 16  2  0
 15 17  1  0
 17 18  1  0
 18 19  1  0
 19 20  1  0
 19 21  2  0
 18 22  2  0
 22 23  1  0
 23 24  2  0
 24 25  1  0
 25 26  2  0
 26 27  1  0
 27 28  1  0
 27 29  1  0
 27 30  1  0
 26 31  1  0
 31 32  2  0
 14 33  1  0
 12  8  1  0
 32 17  1  0
 33  9  1  0
 32 23  1  0
  1 34  1  0
  1 35  1  0
  1 36  1  0
  3 37  1  0
  3 38  1  0
  4 39  1  0
  4 40  1  0
  5 41  1  0
  9 42  1  1
 10 43  1  0
 10 44  1  0
 11 45  1  0
 11 46  1  0
 12 47  1  1
 13 48  1  0
 13 49  1  0
 14 50  1  1
 20 51  1  0
 22 52  1  0
 24 53  1  0
 25 54  1  0
 31 55  1  0
 33 56  1  0
 33 57  1  0
M  CHG  1  20  -1
M  END
>  <UniqueID>  (27) 
26

>  <SMILES>  (27) 
CN(CCO)C(=S)N1[C@@H]2CC[C@H]1CC(C(=O)n1c(C([NH-])=O)cc3ccc(C(F)(F)F)cc31)C2

>  <Energy>  (27) 
126.84490579197066

>  <Genealogy>  (27) 
CN(CCO)C(=S)N1C2CCC1CC(C(=O)n1c(C([NH-])=O)cc3ccc(C(F)(F)F)cc31)C2 (protonated)
CN(CCO)C(=S)N1[C@@H]2CC[C@H]1CC(C(=O)n1c(C([NH-])=O)cc3ccc(C(F)(F)F)cc31)C2 (chirality)
CN(CCO)C(=S)N1[C@@H]2CC[C@H]1CC(C(=O)n1c(C([NH-])=O)cc3ccc(C(F)(F)F)cc31)C2 (3D coordinates assigned)
CN(CCO)C(=S)N1[C@@H]2CC[C@H]1CC(C(=O)n1c(C([NH-])=O)cc3ccc(C(F)(F)F)cc31)C2 (nonaromatic ring conformer: 126.84490579197066 kcal/mol)

>  <smiles>  (27) 
CN(CCO)C(=S)N1C2CCC1CC(C(=O)n1c(C(N)=O)cc3ccc(C(F)(F)F)cc31)C2

>  <score_type>  (27) 
oracle

>  <origin>  (27) 
adg

>  <m_score__min__energy>  (27) 
-12.49

>  <m_primary>  (27) 
energy

$$$$
27:0
     RDKit          3D

 41 43  0  0  0  0  0  0  0  0999 V2000
   -8.8890   21.9590  -29.5420 H   0  0  0  0  0  0  0  0  0  0  0  0
   -9.6600   21.6050  -30.0580 O   0  0  0  0  0  0  0  0  0  0  0  0
   -9.4600   21.9300  -31.4130 C   0  0  1  0  0  0  0  0  0  0  0  0
   -9.9958   22.8756  -31.5823 H   0  0  0  0  0  0  0  0  0  0  0  0
   -7.9720   22.0670  -31.7340 C   0  0  0  0  0  0  0  0  0  0  0  0
   -7.7980   22.9411  -32.3788 H   0  0  0  0  0  0  0  0  0  0  0  0
   -7.3728   22.2123  -30.8231 H   0  0  0  0  0  0  0  0  0  0  0  0
   -7.6020   20.8410  -32.4300 N   0  0  0  0  0  0  0  0  0  0  0  0
   -6.2430   20.4950  -32.7880 C   0  0  0  0  0  0  0  0  0  0  0  0
   -5.9850   19.5370  -33.8080 C   0  0  0  0  0  0  0  0  0  0  0  0
   -6.8283   19.0650  -34.3334 H   0  0  0  0  0  0  0  0  0  0  0  0
   -4.6710   19.1850  -34.1540 C   0  0  0  0  0  0  0  0  0  0  0  0
   -4.4723   18.4398  -34.9384 H   0  0  0  0  0  0  0  0  0  0  0  0
   -3.6280   19.8060  -33.4760 C   0  0  0  0  0  0  0  0  0  0  0  0
   -2.2680   19.6320  -33.5930 C   0  0  0  0  0  0  0  0  0  0  0  0
   -1.7388   18.9489  -34.2737 H   0  0  0  0  0  0  0  0  0  0  0  0
   -1.7050   20.5040  -32.6670 C   0  0  0  0  0  0  0  0  0  0  0  0
   -0.2500   20.6980  -32.5160 C   0  0  0  0  0  0  0  0  0  0  0  0
    0.4670   20.8300  -33.5440 O   0  0  0  0  0  0  0  0  0  0  0  0
    0.3540   20.7960  -31.2260 N   0  0  0  0  0  0  0  0  0  0  0  0
    1.3900   20.8900  -31.1370 H   0  0  0  0  0  0  0  0  0  0  0  0
   -0.2280   20.8560  -30.3610 H   0  0  0  0  0  0  0  0  0  0  0  0
   -2.6780   21.1750  -31.9850 N   0  0  0  0  0  0  0  0  0  0  0  0
   -2.5190   22.1020  -30.8940 C   0  0  0  0  0  0  0  0  0  0  0  0
   -1.4050   22.6620  -30.7150 O   0  0  0  0  0  0  0  0  0  0  0  0
   -3.6000   22.3600  -29.9180 C   0  0  0  0  0  0  0  0  0  0  0  0
   -4.0532   21.4855  -29.4282 H   0  0  0  0  0  0  0  0  0  0  0  0
   -4.0760   23.5670  -29.5780 C   0  0  0  0  0  0  0  0  0  0  0  0
   -4.9930   23.5918  -28.9709 H   0  0  0  0  0  0  0  0  0  0  0  0
   -3.4790   24.8620  -29.9460 C   0  0  0  0  0  0  0  0  0  0  0  0
   -3.9750   25.5790  -30.8540 O   0  0  0  0  0  0  0  0  0  0  0  0
   -2.2960   25.2620  -29.3370 O   0  0  0  0  0  0  0  0  0  0  0  0
   -3.8500   20.7450  -32.5040 C   0  0  0  0  0  0  0  0  0  0  0  0
   -5.1480   21.1030  -32.1240 C   0  0  0  0  0  0  0  0  0  0  0  0
   -5.3155   21.8414  -31.3261 H   0  0  0  0  0  0  0  0  0  0  0  0
   -8.7560   20.0020  -32.7210 C   0  0  0  0  0  0  0  0  0  0  0  0
   -8.7893   19.7566  -33.7928 H   0  0  0  0  0  0  0  0  0  0  0  0
   -8.7116   19.0513  -32.1694 H   0  0  0  0  0  0  0  0  0  0  0  0
   -9.9800   20.8180  -32.3270 C   0  0  0  0  0  0  0  0  0  0  0  0
  -10.4582   21.2475  -33.2197 H   0  0  0  0  0  0  0  0  0  0  0  0
  -10.7359   20.1982  -31.8225 H   0  0  0  0  0  0  0  0  0  0  0  0
  1  2  1  0
  2  3  1  0
  3  4  1  6
  3  5  1  0
  5  6  1  0
  5  7  1  0
  5  8  1  0
  8  9  1  0
  9 10  2  0
 10 11  1  0
 10 12  1  0
 12 13  1  0
 12 14  2  0
 14 15  1  0
 15 16  1  0
 15 17  2  0
 17 18  1  0
 18 19  2  0
 18 20  1  0
 20 21  1  0
 20 22  1  0
 17 23  1  0
 23 24  1  0
 24 25  2  0
 24 26  1  0
 26 27  1  0
 26 28  2  0
 28 29  1  0
 28 30  1  0
 30 31  2  0
 30 32  1  0
 23 33  1  0
 33 34  2  0
 34 35  1  0
  8 36  1  0
 36 37  1  0
 36 38  1  0
 36 39  1  0
 39 40  1  0
 39 41  1  0
 39  3  1  0
 34  9  1  0
 33 14  1  0
M  CHG  1  32  -1
M  END
>  <UniqueID>  (28) 
27

>  <SMILES>  (28) 
NC(=O)c1cc2ccc(N3CC[C@@H](O)C3)cc2n1C(=O)/C=C\C(=O)[O-]

>  <Energy>  (28) 
90.77568331555749

>  <Genealogy>  (28) 
NC(=O)c1cc2ccc(N3CC[C@@H](O)C3)cc2n1C(=O)/C=C\C(=O)[O-] (protonated)
NC(=O)c1cc2ccc(N3CC[C@@H](O)C3)cc2n1C(=O)/C=C\C(=O)[O-] (cis-trans isomerization)
NC(=O)c1cc2ccc(N3CC[C@@H](O)C3)cc2n1C(=O)/C=C\C(=O)[O-] (3D coordinates assigned)
NC(=O)c1cc2ccc(N3CC[C@@H](O)C3)cc2n1C(=O)/C=C\C(=O)[O-] (nonaromatic ring conformer: 90.77568331555749 kcal/mol)

>  <smiles>  (28) 
NC(=O)c1cc2ccc(N3CC[C@@H](O)C3)cc2n1C(=O)/C=C\C(=O)O

>  <score_type>  (28) 
oracle

>  <origin>  (28) 
adg

>  <m_score__min__energy>  (28) 
-10.77

>  <m_primary>  (28) 
energy

$$$$
28:0
     RDKit          3D

 42 43  0  0  0  0  0  0  0  0999 V2000
   -3.8940   25.5230  -30.8410 N   0  0  0  0  0  0  0  0  0  0  0  0
   -5.2570   25.2870  -30.5010 C   0  0  0  0  0  0  0  0  0  0  0  0
   -5.8780   26.1380  -29.8120 O   0  0  0  0  0  0  0  0  0  0  0  0
   -5.9150   24.0330  -30.9270 C   0  0  0  0  0  0  0  0  0  0  0  0
   -7.2980   23.8650  -30.9660 C   0  0  0  0  0  0  0  0  0  0  0  0
   -7.4980   22.6080  -31.4890 C   0  0  0  0  0  0  0  0  0  0  0  0
   -8.6820   21.9230  -31.7450 C   0  0  0  0  0  0  0  0  0  0  0  0
   -8.5910   20.6230  -32.2690 C   0  0  0  0  0  0  0  0  0  0  0  0
   -7.3270   20.0280  -32.5050 C   0  0  0  0  0  0  0  0  0  0  0  0
   -7.2440   18.6480  -33.0880 C   0  0  0  0  0  0  0  0  0  0  0  0
   -8.0000   17.7780  -32.3240 F   0  0  0  0  0  0  0  0  0  0  0  0
   -6.1470   20.7590  -32.2480 C   0  0  0  0  0  0  0  0  0  0  0  0
   -6.2680   22.0590  -31.7440 C   0  0  0  0  0  0  0  0  0  0  0  0
   -5.2850   22.9210  -31.4020 N   0  0  0  0  0  0  0  0  0  0  0  0
   -3.8720   22.6750  -31.4780 C   0  0  0  0  0  0  0  0  0  0  0  0
   -3.3830   22.1270  -32.5030 O   0  0  0  0  0  0  0  0  0  0  0  0
   -3.0210   23.0620  -30.3950 N   0  0  0  0  0  0  0  0  0  0  0  0
   -2.3110   22.1080  -29.5500 C   0  0  0  0  0  0  0  0  0  0  0  0
   -0.8480   22.4560  -29.4610 C   0  0  0  0  0  0  0  0  0  0  0  0
   -0.0950   22.1860  -30.4350 O   0  0  0  0  0  0  0  0  0  0  0  0
   -0.2610   23.0030  -28.2730 N   0  0  0  0  0  0  0  0  0  0  0  0
    0.0510   24.4110  -28.0370 C   0  0  0  0  0  0  0  0  0  0  0  0
   -1.2260   25.2660  -28.0030 C   0  0  1  0  0  0  0  0  0  0  0  0
   -1.5600   25.6360  -29.3160 O   0  0  0  0  0  0  0  0  0  0  0  0
   -2.4050   24.5190  -27.3520 C   0  0  0  0  0  0  0  0  0  0  0  0
   -3.5500   24.5710  -28.1600 O   0  0  0  0  0  0  0  0  0  0  0  0
   -3.1240   25.2560  -30.1880 H   0  0  0  0  0  0  0  0  0  0  0  0
   -8.0664   24.5844  -30.6466 H   0  0  0  0  0  0  0  0  0  0  0  0
   -9.6594   22.3856  -31.5431 H   0  0  0  0  0  0  0  0  0  0  0  0
   -9.5090   20.0620  -32.4981 H   0  0  0  0  0  0  0  0  0  0  0  0
   -7.6299   18.6614  -34.1180 H   0  0  0  0  0  0  0  0  0  0  0  0
   -6.1957   18.3149  -33.0932 H   0  0  0  0  0  0  0  0  0  0  0  0
   -5.1575   20.3180  -32.4390 H   0  0  0  0  0  0  0  0  0  0  0  0
   -2.7478   22.1258  -28.5406 H   0  0  0  0  0  0  0  0  0  0  0  0
   -2.4082   21.1055  -29.9922 H   0  0  0  0  0  0  0  0  0  0  0  0
    0.5721   24.5062  -27.0730 H   0  0  0  0  0  0  0  0  0  0  0  0
    0.6877   24.7690  -28.8595 H   0  0  0  0  0  0  0  0  0  0  0  0
   -1.0281   26.1579  -27.3903 H   0  0  0  0  0  0  0  0  0  0  0  0
   -2.0370   24.8650  -29.7200 H   0  0  0  0  0  0  0  0  0  0  0  0
   -2.1220   23.4671  -27.1989 H   0  0  0  0  0  0  0  0  0  0  0  0
   -2.6354   25.0038  -26.3919 H   0  0  0  0  0  0  0  0  0  0  0  0
   -3.2460   24.4290  -29.0950 H   0  0  0  0  0  0  0  0  0  0  0  0
  1  2  1  0
  2  3  2  0
  2  4  1  0
  4  5  2  0
  5  6  1  0
  6  7  2  0
  7  8  1  0
  8  9  2  0
  9 10  1  0
 10 11  1  0
  9 12  1  0
 12 13  2  0
 13 14  1  0
 14 15  1  0
 15 16  2  0
 15 17  1  0
 17 18  1  0
 18 19  1  0
 19 20  2  0
 19 21  1  0
 21 22  1  0
 22 23  1  0
 23 24  1  0
 23 25  1  0
 25 26  1  0
 14  4  1  0
 13  6  1  0
  1 27  1  0
  5 28  1  0
  7 29  1  0
  8 30  1  0
 10 31  1  0
 10 32  1  0
 12 33  1  0
 18 34  1  0
 18 35  1  0
 22 36  1  0
 22 37  1  0
 23 38  1  1
 24 39  1  0
 25 40  1  0
 25 41  1  0
 26 42  1  0
M  CHG  3   1  -1  17  -1  21  -1
M  END
>  <UniqueID>  (29) 
28

>  <SMILES>  (29) 
[NH-]C(=O)c1cc2ccc(CF)cc2n1C(=O)[N-]CC(=O)[N-]C[C@@H](O)CO

>  <Energy>  (29) 
74.16486539664095

>  <Genealogy>  (29) 
[NH-]C(=O)c1cc2ccc(CF)cc2n1C(=O)[N-]CC(=O)[N-]CC(O)CO (protonated)
[NH-]C(=O)c1cc2ccc(CF)cc2n1C(=O)[N-]CC(=O)[N-]C[C@@H](O)CO (chirality)
[NH-]C(=O)c1cc2ccc(CF)cc2n1C(=O)[N-]CC(=O)[N-]C[C@@H](O)CO (3D coordinates assigned)
[NH-]C(=O)c1cc2ccc(CF)cc2n1C(=O)[N-]CC(=O)[N-]C[C@@H](O)CO (optimized conformer: 74.16486539664095 kcal/mol)

>  <smiles>  (29) 
NC(=O)c1cc2ccc(CF)cc2n1C(=O)NCC(=O)NCC(O)CO

>  <score_type>  (29) 
oracle

>  <origin>  (29) 
adg

>  <m_score__min__energy>  (29) 
-10.460000000000001

>  <m_primary>  (29) 
energy

$$$$
29:0
     RDKit          3D

 40 41  0  0  0  0  0  0  0  0999 V2000
   -9.0480   21.4870  -30.7380 N   0  0  0  0  0  0  0  0  0  0  0  0
   -8.8890   20.5060  -31.7660 C   0  0  0  0  0  0  0  0  0  0  0  0
   -9.9010   19.8770  -32.1740 O   0  0  0  0  0  0  0  0  0  0  0  0
   -7.5620   20.2420  -32.3630 C   0  0  0  0  0  0  0  0  0  0  0  0
   -7.2290   19.0790  -33.0610 C   0  0  0  0  0  0  0  0  0  0  0  0
   -5.8910   19.2070  -33.3660 C   0  0  0  0  0  0  0  0  0  0  0  0
   -5.0440   18.3530  -34.0680 C   0  0  0  0  0  0  0  0  0  0  0  0
   -3.7150   18.7640  -34.2670 C   0  0  0  0  0  0  0  0  0  0  0  0
   -3.2670   20.0090  -33.7680 C   0  0  0  0  0  0  0  0  0  0  0  0
   -1.9110   20.4310  -34.0030 C   0  0  0  0  0  0  0  0  0  0  0  0
   -0.7770   20.7860  -34.2010 C   0  0  0  0  0  0  0  0  0  0  0  0
    0.6020   21.2210  -34.4420 C   0  0  0  0  0  0  0  0  0  0  0  0
    0.6070   22.4280  -35.1540 O   0  0  0  0  0  0  0  0  0  0  0  0
   -4.1470   20.8460  -33.0560 C   0  0  0  0  0  0  0  0  0  0  0  0
   -5.4610   20.4070  -32.8630 C   0  0  0  0  0  0  0  0  0  0  0  0
   -6.4730   21.0520  -32.2470 N   0  0  0  0  0  0  0  0  0  0  0  0
   -6.4000   22.3540  -31.6460 C   0  0  0  0  0  0  0  0  0  0  0  0
   -7.3070   23.1990  -31.8730 O   0  0  0  0  0  0  0  0  0  0  0  0
   -5.3060   22.6900  -30.6770 C   0  0  0  0  0  0  0  0  0  0  0  0
   -4.4960   23.7840  -31.2000 N   0  0  0  0  0  0  0  0  0  0  0  0
   -4.3760   25.0460  -30.5400 C   0  0  0  0  0  0  0  0  0  0  0  0
   -5.2630   25.9210  -30.7270 O   0  0  0  0  0  0  0  0  0  0  0  0
   -3.2720   25.2990  -29.7120 O   0  0  0  0  0  0  0  0  0  0  0  0
   -2.8730   24.4900  -28.6390 C   0  0  0  0  0  0  0  0  0  0  0  0
   -1.7170   23.9910  -28.5950 O   0  0  0  0  0  0  0  0  0  0  0  0
   -3.8240   24.2330  -27.5160 C   0  0  0  0  0  0  0  0  0  0  0  0
   -5.0000   24.9280  -27.7380 F   0  0  0  0  0  0  0  0  0  0  0  0
   -4.1020   22.8820  -27.4450 F   0  0  0  0  0  0  0  0  0  0  0  0
   -3.2750   24.6480  -26.3170 F   0  0  0  0  0  0  0  0  0  0  0  0
   -9.9970   21.6910  -30.3530 H   0  0  0  0  0  0  0  0  0  0  0  0
   -8.2280   21.9820  -30.3260 H   0  0  0  0  0  0  0  0  0  0  0  0
   -7.8933   18.2394  -33.3136 H   0  0  0  0  0  0  0  0  0  0  0  0
   -5.4037   17.3879  -34.4542 H   0  0  0  0  0  0  0  0  0  0  0  0
   -3.0182   18.1126  -34.8148 H   0  0  0  0  0  0  0  0  0  0  0  0
    1.1122   21.3647  -33.4781 H   0  0  0  0  0  0  0  0  0  0  0  0
    1.1250   20.4528  -35.0305 H   0  0  0  0  0  0  0  0  0  0  0  0
   -0.3280   22.5910  -35.4440 H   0  0  0  0  0  0  0  0  0  0  0  0
   -3.8111   21.8169  -32.6629 H   0  0  0  0  0  0  0  0  0  0  0  0
   -5.7497   22.9919  -29.7168 H   0  0  0  0  0  0  0  0  0  0  0  0
   -4.6682   21.8057  -30.5313 H   0  0  0  0  0  0  0  0  0  0  0  0
  1  2  1  0
  2  3  2  0
  2  4  1  0
  4  5  2  0
  5  6  1  0
  6  7  2  0
  7  8  1  0
  8  9  2  0
  9 10  1  0
 10 11  3  0
 11 12  1  0
 12 13  1  0
  9 14  1  0
 14 15  2  0
 15 16  1  0
 16 17  1  0
 17 18  2  0
 17 19  1  0
 19 20  1  0
 20 21  1  0
 21 22  2  0
 21 23  1  0
 23 24  1  0
 24 25  2  0
 24 26  1  0
 26 27  1  0
 26 28  1  0
 26 29  1  0
 16  4  1  0
 15  6  1  0
  1 30  1  0
  1 31  1  0
  5 32  1  0
  7 33  1  0
  8 34  1  0
 12 35  1  0
 12 36  1  0
 13 37  1  0
 14 38  1  0
 19 39  1  0
 19 40  1  0
M  CHG  1  20  -1
M  END
>  <UniqueID>  (30) 
29

>  <SMILES>  (30) 
NC(=O)c1cc2ccc(C#CCO)cc2n1C(=O)C[N-]C(=O)OC(=O)C(F)(F)F

>  <Energy>  (30) 
67.28325675944657

>  <Genealogy>  (30) 
NC(=O)c1cc2ccc(C#CCO)cc2n1C(=O)C[N-]C(=O)OC(=O)C(F)(F)F (protonated)
NC(=O)c1cc2ccc(C#CCO)cc2n1C(=O)C[N-]C(=O)OC(=O)C(F)(F)F (3D coordinates assigned)
NC(=O)c1cc2ccc(C#CCO)cc2n1C(=O)C[N-]C(=O)OC(=O)C(F)(F)F (optimized conformer: 67.28325675944657 kcal/mol)

>  <smiles>  (30) 
NC(=O)c1cc2ccc(C#CCO)cc2n1C(=O)CNC(=O)OC(=O)C(F)(F)F

>  <score_type>  (30) 
oracle

>  <origin>  (30) 
adg

>  <m_score__min__energy>  (30) 
-9.7599999999999998

>  <m_primary>  (30) 
energy

$$$$
30:0
     RDKit          3D

 35 36  0  0  0  0  0  0  0  0999 V2000
   -9.0230   21.1270  -31.9930 C   0  0  0  0  0  0  0  0  0  0  0  0
   -8.3390   19.8290  -32.0600 N   0  0  0  0  0  0  0  0  0  0  0  0
   -9.0910   18.6130  -31.7240 C   0  0  0  0  0  0  0  0  0  0  0  0
   -6.9440   19.7490  -32.4530 C   0  0  0  0  0  0  0  0  0  0  0  0
   -6.4670   18.6490  -33.2230 C   0  0  0  0  0  0  0  0  0  0  0  0
   -5.1210   18.5690  -33.6170 C   0  0  0  0  0  0  0  0  0  0  0  0
   -4.2640   19.5890  -33.2240 C   0  0  0  0  0  0  0  0  0  0  0  0
   -2.9260   19.7750  -33.4920 C   0  0  0  0  0  0  0  0  0  0  0  0
   -2.5880   20.9750  -32.8690 C   0  0  0  0  0  0  0  0  0  0  0  0
   -1.2260   21.5500  -32.8780 C   0  0  0  0  0  0  0  0  0  0  0  0
   -0.6110   21.8990  -34.1160 N   0  0  0  0  0  0  0  0  0  0  0  0
   -0.5910   21.7260  -31.8050 O   0  0  0  0  0  0  0  0  0  0  0  0
   -3.6740   21.5020  -32.2370 N   0  0  0  0  0  0  0  0  0  0  0  0
   -3.7460   22.7300  -31.4960 C   0  0  0  0  0  0  0  0  0  0  0  0
   -4.6690   23.5530  -31.7370 O   0  0  0  0  0  0  0  0  0  0  0  0
   -2.7010   23.0690  -30.4770 C   0  0  0  0  0  0  0  0  0  0  0  0
   -3.0610   24.6850  -29.7290 P   0  0  0  0  0  0  0  0  0  0  0  0
   -3.9250   24.4890  -28.5050 O   0  0  0  0  0  0  0  0  0  0  0  0
   -1.6150   25.4370  -29.2790 O   0  0  0  0  0  0  0  0  0  0  0  0
   -3.8810   25.6590  -30.8420 O   0  0  0  0  0  0  0  0  0  0  0  0
   -4.6910   20.6460  -32.4690 C   0  0  0  0  0  0  0  0  0  0  0  0
   -6.0290   20.7680  -32.0800 C   0  0  0  0  0  0  0  0  0  0  0  0
   -9.1717   21.4092  -30.9403 H   0  0  0  0  0  0  0  0  0  0  0  0
   -8.4102   21.8907  -32.4943 H   0  0  0  0  0  0  0  0  0  0  0  0
   -9.9994   21.0533  -32.4943 H   0  0  0  0  0  0  0  0  0  0  0  0
   -9.1539   18.5112  -30.6305 H   0  0  0  0  0  0  0  0  0  0  0  0
  -10.1050   18.6809  -32.1449 H   0  0  0  0  0  0  0  0  0  0  0  0
   -8.5773   17.7361  -32.1449 H   0  0  0  0  0  0  0  0  0  0  0  0
   -7.1642   17.8494  -33.5137 H   0  0  0  0  0  0  0  0  0  0  0  0
   -4.7565   17.7236  -34.2190 H   0  0  0  0  0  0  0  0  0  0  0  0
   -2.2646   19.1164  -34.0741 H   0  0  0  0  0  0  0  0  0  0  0  0
   -1.1820   22.0330  -34.9800 H   0  0  0  0  0  0  0  0  0  0  0  0
   -2.6941   22.2981  -29.6923 H   0  0  0  0  0  0  0  0  0  0  0  0
   -1.7180   23.1105  -30.9689 H   0  0  0  0  0  0  0  0  0  0  0  0
   -6.3658   21.6372  -31.4960 H   0  0  0  0  0  0  0  0  0  0  0  0
  1  2  1  0
  2  3  1  0
  2  4  1  0
  4  5  2  0
  5  6  1  0
  6  7  2  0
  7  8  1  0
  8  9  2  0
  9 10  1  0
 10 11  1  0
 10 12  2  0
  9 13  1  0
 13 14  1  0
 14 15  2  0
 14 16  1  0
 16 17  1  0
 17 18  2  0
 17 19  1  0
 17 20  1  0
 13 21  1  0
 21 22  2  0
 22  4  1  0
 21  7  1  0
  1 23  1  0
  1 24  1  0
  1 25  1  0
  3 26  1  0
  3 27  1  0
  3 28  1  0
  5 29  1  0
  6 30  1  0
  8 31  1  0
 11 32  1  0
 16 33  1  0
 16 34  1  0
 22 35  1  0
M  CHG  3  11  -1  19  -1  20  -1
M  END
>  <UniqueID>  (31) 
30

>  <SMILES>  (31) 
CN(C)c1ccc2cc(C([NH-])=O)n(C(=O)CP(=O)([O-])[O-])c2c1

>  <Energy>  (31) 
70.39973491793111

>  <Genealogy>  (31) 
CN(C)c1ccc2cc(C([NH-])=O)n(C(=O)CP(=O)([O-])[O-])c2c1 (protonated)
CN(C)c1ccc2cc(C([NH-])=O)n(C(=O)CP(=O)([O-])[O-])c2c1 (3D coordinates assigned)
CN(C)c1ccc2cc(C([NH-])=O)n(C(=O)CP(=O)([O-])[O-])c2c1 (optimized conformer: 70.39973491793111 kcal/mol)

>  <smiles>  (31) 
CN(C)c1ccc2cc(C(N)=O)n(C(=O)CP(=O)(O)O)c2c1

>  <score_type>  (31) 
oracle

>  <origin>  (31) 
adg

>  <m_score__min__energy>  (31) 
-12.82

>  <m_primary>  (31) 
energy

$$$$
31:0
     RDKit          3D

 42 43  0  0  0  0  0  0  0  0999 V2000
   -1.6680   23.1960  -26.9890 C   0  0  0  0  0  0  0  0  0  0  0  0
   -2.3200   24.4290  -27.6330 C   0  0  0  0  0  0  0  0  0  0  0  0
   -1.5460   25.6850  -27.1830 C   0  0  0  0  0  0  0  0  0  0  0  0
   -3.7920   24.5130  -27.1860 C   0  0  0  0  0  0  0  0  0  0  0  0
   -2.2340   24.2620  -29.0560 O   0  0  0  0  0  0  0  0  0  0  0  0
   -1.9870   23.0620  -29.7410 C   0  0  0  0  0  0  0  0  0  0  0  0
   -0.8340   22.7660  -30.1580 O   0  0  0  0  0  0  0  0  0  0  0  0
   -3.1290   22.1380  -30.0130 C   0  0  0  0  0  0  0  0  0  0  0  0
   -3.8450   22.5560  -31.2620 C   0  0  0  0  0  0  0  0  0  0  0  0
   -3.2130   22.6440  -32.3470 O   0  0  0  0  0  0  0  0  0  0  0  0
   -5.2590   22.8050  -31.2360 N   0  0  0  0  0  0  0  0  0  0  0  0
   -5.8920   23.9690  -30.9150 C   0  0  0  0  0  0  0  0  0  0  0  0
   -5.2330   25.2240  -30.4910 C   0  0  0  0  0  0  0  0  0  0  0  0
   -3.8670   25.4550  -30.8320 N   0  0  0  0  0  0  0  0  0  0  0  0
   -5.8640   26.0970  -29.8410 O   0  0  0  0  0  0  0  0  0  0  0  0
   -7.2700   23.8320  -31.0750 C   0  0  0  0  0  0  0  0  0  0  0  0
   -7.4610   22.5360  -31.5040 C   0  0  0  0  0  0  0  0  0  0  0  0
   -8.6360   21.8540  -31.8070 C   0  0  0  0  0  0  0  0  0  0  0  0
   -8.5320   20.5110  -32.2110 C   0  0  0  0  0  0  0  0  0  0  0  0
   -7.2660   19.8800  -32.3010 C   0  0  0  0  0  0  0  0  0  0  0  0
   -7.1730   18.4470  -32.7420 C   0  0  0  0  0  0  0  0  0  0  0  0
   -6.2740   18.3390  -33.7870 F   0  0  0  0  0  0  0  0  0  0  0  0
   -6.7480   17.6610  -31.6880 F   0  0  0  0  0  0  0  0  0  0  0  0
   -6.0960   20.6030  -31.9760 C   0  0  0  0  0  0  0  0  0  0  0  0
   -6.2310   21.9390  -31.5910 C   0  0  0  0  0  0  0  0  0  0  0  0
   -1.7156   23.2860  -25.8937 H   0  0  0  0  0  0  0  0  0  0  0  0
   -2.2047   22.2897  -27.3061 H   0  0  0  0  0  0  0  0  0  0  0  0
   -0.6168   23.1294  -27.3061 H   0  0  0  0  0  0  0  0  0  0  0  0
   -1.5207   25.7260  -26.0841 H   0  0  0  0  0  0  0  0  0  0  0  0
   -0.5180   25.6412  -27.5720 H   0  0  0  0  0  0  0  0  0  0  0  0
   -2.0473   26.5836  -27.5720 H   0  0  0  0  0  0  0  0  0  0  0  0
   -3.8419   24.5158  -26.0871 H   0  0  0  0  0  0  0  0  0  0  0  0
   -4.2414   25.4382  -27.5759 H   0  0  0  0  0  0  0  0  0  0  0  0
   -4.3437   23.6449  -27.5759 H   0  0  0  0  0  0  0  0  0  0  0  0
   -2.7465   21.1143  -30.1384 H   0  0  0  0  0  0  0  0  0  0  0  0
   -3.8308   22.1749  -29.1668 H   0  0  0  0  0  0  0  0  0  0  0  0
   -3.1980   24.6620  -30.9680 H   0  0  0  0  0  0  0  0  0  0  0  0
   -8.0412   24.5959  -30.8968 H   0  0  0  0  0  0  0  0  0  0  0  0
   -9.6151   22.3499  -31.7328 H   0  0  0  0  0  0  0  0  0  0  0  0
   -9.4418   19.9448  -32.4595 H   0  0  0  0  0  0  0  0  0  0  0  0
   -8.1648   18.1071  -33.0748 H   0  0  0  0  0  0  0  0  0  0  0  0
   -5.1057   20.1266  -32.0249 H   0  0  0  0  0  0  0  0  0  0  0  0
  1  2  1  0
  2  3  1  0
  2  4  1  0
  2  5  1  0
  5  6  1  0
  6  7  2  0
  6  8  1  0
  8  9  1  0
  9 10  2  0
  9 11  1  0
 11 12  1  0
 12 13  1  0
 13 14  1  0
 13 15  2  0
 12 16  2  0
 16 17  1  0
 17 18  2  0
 18 19  1  0
 19 20  2  0
 20 21  1  0
 21 22  1  0
 21 23  1  0
 20 24  1  0
 24 25  2  0
 25 11  1  0
 25 17  1  0
  1 26  1  0
  1 27  1  0
  1 28  1  0
  3 29  1  0
  3 30  1  0
  3 31  1  0
  4 32  1  0
  4 33  1  0
  4 34  1  0
  8 35  1  0
  8 36  1  0
 14 37  1  0
 16 38  1  0
 18 39  1  0
 19 40  1  0
 21 41  1  0
 24 42  1  0
M  CHG  1  14  -1
M  END
>  <UniqueID>  (32) 
31

>  <SMILES>  (32) 
CC(C)(C)OC(=O)CC(=O)n1c(C([NH-])=O)cc2ccc(C(F)F)cc21

>  <Energy>  (32) 
72.44725210430683

>  <Genealogy>  (32) 
CC(C)(C)OC(=O)CC(=O)n1c(C([NH-])=O)cc2ccc(C(F)F)cc21 (protonated)
CC(C)(C)OC(=O)CC(=O)n1c(C([NH-])=O)cc2ccc(C(F)F)cc21 (3D coordinates assigned)
CC(C)(C)OC(=O)CC(=O)n1c(C([NH-])=O)cc2ccc(C(F)F)cc21 (optimized conformer: 72.44725210430683 kcal/mol)

>  <smiles>  (32) 
CC(C)(C)OC(=O)CC(=O)n1c(C(N)=O)cc2ccc(C(F)F)cc21

>  <score_type>  (32) 
oracle

>  <origin>  (32) 
adg

>  <m_score__min__energy>  (32) 
-10.18

>  <m_primary>  (32) 
energy

$$$$
32:0
     RDKit          3D

 43 44  0  0  0  0  0  0  0  0999 V2000
   -2.2900   22.2480  -27.1750 C   0  0  0  0  0  0  0  0  0  0  0  0
   -1.1690   22.8570  -27.8970 N   0  0  0  0  0  0  0  0  0  0  0  0
   -0.6570   24.1650  -27.4590 C   0  0  0  0  0  0  0  0  0  0  0  0
   -1.7370   25.2410  -27.5860 C   0  0  0  0  0  0  0  0  0  0  0  0
   -2.1390   25.3660  -28.9220 O   0  0  0  0  0  0  0  0  0  0  0  0
   -0.6780   22.2060  -29.0860 C   0  0  0  0  0  0  0  0  0  0  0  0
    0.2830   21.3930  -28.9970 O   0  0  0  0  0  0  0  0  0  0  0  0
   -1.2360   22.5130  -30.4500 C   0  0  0  0  0  0  0  0  0  0  0  0
   -2.6780   22.7530  -30.4010 N   0  0  0  0  0  0  0  0  0  0  0  0
   -3.6340   21.8900  -31.0360 C   0  0  0  0  0  0  0  0  0  0  0  0
   -3.2570   20.8120  -31.5690 O   0  0  0  0  0  0  0  0  0  0  0  0
   -5.0250   22.2550  -31.0790 N   0  0  0  0  0  0  0  0  0  0  0  0
   -5.5800   23.4510  -30.7320 C   0  0  0  0  0  0  0  0  0  0  0  0
   -4.8720   24.5820  -30.0940 C   0  0  0  0  0  0  0  0  0  0  0  0
   -3.9200   25.3360  -30.8410 N   0  0  0  0  0  0  0  0  0  0  0  0
   -5.1230   24.9110  -28.9050 O   0  0  0  0  0  0  0  0  0  0  0  0
   -6.9470   23.4530  -30.9980 C   0  0  0  0  0  0  0  0  0  0  0  0
   -7.2190   22.2100  -31.5190 C   0  0  0  0  0  0  0  0  0  0  0  0
   -8.4200   21.6740  -31.9780 C   0  0  0  0  0  0  0  0  0  0  0  0
   -8.4020   20.3700  -32.5000 C   0  0  0  0  0  0  0  0  0  0  0  0
   -7.1970   19.6290  -32.5480 C   0  0  0  0  0  0  0  0  0  0  0  0
   -7.1800   18.2540  -33.1470 C   0  0  0  0  0  0  0  0  0  0  0  0
   -5.9920   18.1880  -34.4700 Cl  0  0  0  0  0  0  0  0  0  0  0  0
   -5.9960   20.2100  -32.0850 C   0  0  0  0  0  0  0  0  0  0  0  0
   -6.0440   21.5050  -31.5570 C   0  0  0  0  0  0  0  0  0  0  0  0
   -2.1216   22.3395  -26.0918 H   0  0  0  0  0  0  0  0  0  0  0  0
   -3.2236   22.7629  -27.4457 H   0  0  0  0  0  0  0  0  0  0  0  0
   -2.3661   21.1845  -27.4457 H   0  0  0  0  0  0  0  0  0  0  0  0
   -0.3398   24.0946  -26.4081 H   0  0  0  0  0  0  0  0  0  0  0  0
    0.1943   24.4425  -28.0980 H   0  0  0  0  0  0  0  0  0  0  0  0
   -2.6041   24.9602  -26.9702 H   0  0  0  0  0  0  0  0  0  0  0  0
   -1.3285   26.2027  -27.2421 H   0  0  0  0  0  0  0  0  0  0  0  0
   -3.1290   25.4200  -28.9070 H   0  0  0  0  0  0  0  0  0  0  0  0
   -0.7381   23.4106  -30.8455 H   0  0  0  0  0  0  0  0  0  0  0  0
   -1.0540   21.6440  -31.0994 H   0  0  0  0  0  0  0  0  0  0  0  0
   -3.0070   23.6700  -30.0260 H   0  0  0  0  0  0  0  0  0  0  0  0
   -2.9020   25.2880  -30.6150 H   0  0  0  0  0  0  0  0  0  0  0  0
   -7.6582   24.2746  -30.8275 H   0  0  0  0  0  0  0  0  0  0  0  0
   -9.3536   22.2539  -31.9331 H   0  0  0  0  0  0  0  0  0  0  0  0
   -9.3333   19.9205  -32.8750 H   0  0  0  0  0  0  0  0  0  0  0  0
   -6.9059   17.5219  -32.3731 H   0  0  0  0  0  0  0  0  0  0  0  0
   -8.1786   18.0179  -33.5433 H   0  0  0  0  0  0  0  0  0  0  0  0
   -5.0460   19.6580  -32.1381 H   0  0  0  0  0  0  0  0  0  0  0  0
  1  2  1  0
  2  3  1  0
  3  4  1  0
  4  5  1  0
  2  6  1  0
  6  7  2  0
  6  8  1  0
  8  9  1  0
  9 10  1  0
 10 11  2  0
 10 12  1  0
 12 13  1  0
 13 14  1  0
 14 15  1  0
 14 16  2  0
 13 17  2  0
 17 18  1  0
 18 19  2  0
 19 20  1  0
 20 21  2  0
 21 22  1  0
 22 23  1  0
 21 24  1  0
 24 25  2  0
 25 12  1  0
 25 18  1  0
  1 26  1  0
  1 27  1  0
  1 28  1  0
  3 29  1  0
  3 30  1  0
  4 31  1  0
  4 32  1  0
  5 33  1  0
  8 34  1  0
  8 35  1  0
  9 36  1  0
 15 37  1  0
 17 38  1  0
 19 39  1  0
 20 40  1  0
 22 41  1  0
 22 42  1  0
 24 43  1  0
M  CHG  1  15  -1
M  END
>  <UniqueID>  (33) 
32

>  <SMILES>  (33) 
CN(CCO)C(=O)CNC(=O)n1c(C([NH-])=O)cc2ccc(CCl)cc21

>  <Energy>  (33) 
74.12449129716053

>  <Genealogy>  (33) 
CN(CCO)C(=O)CNC(=O)n1c(C([NH-])=O)cc2ccc(CCl)cc21 (protonated)
CN(CCO)C(=O)CNC(=O)n1c(C([NH-])=O)cc2ccc(CCl)cc21 (3D coordinates assigned)
CN(CCO)C(=O)CNC(=O)n1c(C([NH-])=O)cc2ccc(CCl)cc21 (optimized conformer: 74.12449129716053 kcal/mol)

>  <smiles>  (33) 
CN(CCO)C(=O)CNC(=O)n1c(C(N)=O)cc2ccc(CCl)cc21

>  <score_type>  (33) 
oracle

>  <origin>  (33) 
adg

>  <m_score__min__energy>  (33) 
-9.9700000000000006

>  <m_primary>  (33) 
energy

$$$$
33:0
     RDKit          3D

 37 38  0  0  0  0  0  0  0  0999 V2000
   -2.1270   25.6970  -25.7540 C   0  0  0  0  0  0  0  0  0  0  0  0
   -1.4330   24.7660  -26.7400 C   0  0  0  0  0  0  0  0  0  0  0  0
   -2.0340   24.9010  -28.1020 C   0  0  0  0  0  0  0  0  0  0  0  0
   -1.5100   25.6800  -28.9440 O   0  0  0  0  0  0  0  0  0  0  0  0
   -3.1980   24.1920  -28.4130 O   0  0  0  0  0  0  0  0  0  0  0  0
   -3.1840   22.9460  -29.1010 C   0  0  0  0  0  0  0  0  0  0  0  0
   -2.9130   23.1630  -30.4810 O   0  0  0  0  0  0  0  0  0  0  0  0
   -3.7680   22.7310  -31.4980 C   0  0  0  0  0  0  0  0  0  0  0  0
   -3.2980   22.1800  -32.5310 O   0  0  0  0  0  0  0  0  0  0  0  0
   -5.1840   22.9380  -31.3750 N   0  0  0  0  0  0  0  0  0  0  0  0
   -5.8330   24.0240  -30.8640 C   0  0  0  0  0  0  0  0  0  0  0  0
   -5.2040   25.2940  -30.4450 C   0  0  0  0  0  0  0  0  0  0  0  0
   -3.8700   25.5920  -30.8490 N   0  0  0  0  0  0  0  0  0  0  0  0
   -5.8170   26.1030  -29.7000 O   0  0  0  0  0  0  0  0  0  0  0  0
   -7.2100   23.8150  -30.8650 C   0  0  0  0  0  0  0  0  0  0  0  0
   -7.3890   22.5630  -31.4040 C   0  0  0  0  0  0  0  0  0  0  0  0
   -8.5610   21.8460  -31.6340 C   0  0  0  0  0  0  0  0  0  0  0  0
   -8.4480   20.5590  -32.1840 C   0  0  0  0  0  0  0  0  0  0  0  0
   -7.1770   20.0110  -32.4860 C   0  0  0  0  0  0  0  0  0  0  0  0
   -7.0800   18.6260  -33.0590 C   0  0  0  0  0  0  0  0  0  0  0  0
   -6.7170   17.7340  -32.0670 F   0  0  0  0  0  0  0  0  0  0  0  0
   -6.1290   18.6030  -34.0630 F   0  0  0  0  0  0  0  0  0  0  0  0
   -6.0090   20.7660  -32.2360 C   0  0  0  0  0  0  0  0  0  0  0  0
   -6.1530   22.0540  -31.7060 C   0  0  0  0  0  0  0  0  0  0  0  0
   -1.8929   25.3829  -24.7261 H   0  0  0  0  0  0  0  0  0  0  0  0
   -1.7745   26.7270  -25.9119 H   0  0  0  0  0  0  0  0  0  0  0  0
   -3.2147   25.6534  -25.9119 H   0  0  0  0  0  0  0  0  0  0  0  0
   -0.3645   25.0227  -26.7891 H   0  0  0  0  0  0  0  0  0  0  0  0
   -1.5592   23.7283  -26.3975 H   0  0  0  0  0  0  0  0  0  0  0  0
   -2.4034   22.3003  -28.6722 H   0  0  0  0  0  0  0  0  0  0  0  0
   -4.1651   22.4601  -28.9945 H   0  0  0  0  0  0  0  0  0  0  0  0
   -3.0540   25.2960  -30.2680 H   0  0  0  0  0  0  0  0  0  0  0  0
   -7.9892   24.5054  -30.5098 H   0  0  0  0  0  0  0  0  0  0  0  0
   -9.5447   22.2748  -31.3922 H   0  0  0  0  0  0  0  0  0  0  0  0
   -9.3557   19.9702  -32.3824 H   0  0  0  0  0  0  0  0  0  0  0  0
   -8.0584   18.3384  -33.4712 H   0  0  0  0  0  0  0  0  0  0  0  0
   -5.0128   20.3527  -32.4521 H   0  0  0  0  0  0  0  0  0  0  0  0
  1  2  1  0
  2  3  1  0
  3  4  2  0
  3  5  1  0
  5  6  1  0
  6  7  1  0
  7  8  1  0
  8  9  2  0
  8 10  1  0
 10 11  1  0
 11 12  1  0
 12 13  1  0
 12 14  2  0
 11 15  2  0
 15 16  1  0
 16 17  2  0
 17 18  1  0
 18 19  2  0
 19 20  1  0
 20 21  1  0
 20 22  1  0
 19 23  1  0
 23 24  2  0
 24 10  1  0
 24 16  1  0
  1 25  1  0
  1 26  1  0
  1 27  1  0
  2 28  1  0
  2 29  1  0
  6 30  1  0
  6 31  1  0
 13 32  1  0
 15 33  1  0
 17 34  1  0
 18 35  1  0
 20 36  1  0
 23 37  1  0
M  CHG  1  13  -1
M  END
>  <UniqueID>  (34) 
33

>  <SMILES>  (34) 
CCC(=O)OCOC(=O)n1c(C([NH-])=O)cc2ccc(C(F)F)cc21

>  <Energy>  (34) 
67.78786282780734

>  <Genealogy>  (34) 
CCC(=O)OCOC(=O)n1c(C([NH-])=O)cc2ccc(C(F)F)cc21 (protonated)
CCC(=O)OCOC(=O)n1c(C([NH-])=O)cc2ccc(C(F)F)cc21 (3D coordinates assigned)
CCC(=O)OCOC(=O)n1c(C([NH-])=O)cc2ccc(C(F)F)cc21 (optimized conformer: 67.78786282780734 kcal/mol)

>  <smiles>  (34) 
CCC(=O)OCOC(=O)n1c(C(N)=O)cc2ccc(C(F)F)cc21

>  <score_type>  (34) 
oracle

>  <origin>  (34) 
adg

>  <m_score__min__energy>  (34) 
-9.6899999999999995

>  <m_primary>  (34) 
energy

$$$$
34:0
     RDKit          3D

 47 48  0  0  0  0  0  0  0  0999 V2000
   -5.0550   17.4840  -34.9720 C   0  0  0  0  0  0  0  0  0  0  0  0
   -6.0490   16.6800  -34.3770 O   0  0  0  0  0  0  0  0  0  0  0  0
   -5.7190   16.4030  -33.0280 C   0  0  0  0  0  0  0  0  0  0  0  0
   -6.3300   17.4610  -32.1060 C   0  0  0  0  0  0  0  0  0  0  0  0
   -7.0780   18.4580  -32.8730 N   0  0  0  0  0  0  0  0  0  0  0  0
   -7.2650   19.8170  -32.4320 C   0  0  0  0  0  0  0  0  0  0  0  0
   -8.5310   20.4570  -32.5040 C   0  0  0  0  0  0  0  0  0  0  0  0
   -8.6870   21.7870  -32.0810 C   0  0  0  0  0  0  0  0  0  0  0  0
   -7.5700   22.4510  -31.5840 C   0  0  0  0  0  0  0  0  0  0  0  0
   -7.4380   23.7450  -31.1380 C   0  0  0  0  0  0  0  0  0  0  0  0
   -6.1010   23.8710  -30.7720 C   0  0  0  0  0  0  0  0  0  0  0  0
   -5.5370   25.0960  -30.1700 C   0  0  0  0  0  0  0  0  0  0  0  0
   -4.2360   25.5640  -30.5260 N   0  0  0  0  0  0  0  0  0  0  0  0
   -6.1930   25.7090  -29.2840 O   0  0  0  0  0  0  0  0  0  0  0  0
   -5.4270   22.7080  -30.9960 N   0  0  0  0  0  0  0  0  0  0  0  0
   -4.0160   22.4740  -30.8460 C   0  0  0  0  0  0  0  0  0  0  0  0
   -3.2010   23.0080  -31.6470 O   0  0  0  0  0  0  0  0  0  0  0  0
   -3.5460   21.6670  -29.8040 O   0  0  0  0  0  0  0  0  0  0  0  0
   -2.2760   21.8730  -29.1880 C   0  0  0  0  0  0  0  0  0  0  0  0
   -2.2910   23.1130  -28.2590 C   0  0  2  0  0  0  0  0  0  0  0  0
   -1.6310   22.7780  -26.9140 C   0  0  0  0  0  0  0  0  0  0  0  0
   -3.6270   23.4740  -28.0030 O   0  0  0  0  0  0  0  0  0  0  0  0
   -1.5650   24.2890  -28.8800 C   0  0  0  0  0  0  0  0  0  0  0  0
   -2.2010   25.2690  -29.3510 O   0  0  0  0  0  0  0  0  0  0  0  0
   -0.1800   24.2630  -28.9940 O   0  0  0  0  0  0  0  0  0  0  0  0
   -6.3440   21.8450  -31.4900 C   0  0  0  0  0  0  0  0  0  0  0  0
   -6.1560   20.5290  -31.9230 C   0  0  0  0  0  0  0  0  0  0  0  0
   -4.4563   17.9683  -34.1865 H   0  0  0  0  0  0  0  0  0  0  0  0
   -4.4018   16.8572  -35.5968 H   0  0  0  0  0  0  0  0  0  0  0  0
   -5.5315   18.2538  -35.5968 H   0  0  0  0  0  0  0  0  0  0  0  0
   -6.1110   15.4124  -32.7541 H   0  0  0  0  0  0  0  0  0  0  0  0
   -4.6248   16.4182  -32.9159 H   0  0  0  0  0  0  0  0  0  0  0  0
   -7.0108   16.9690  -31.3958 H   0  0  0  0  0  0  0  0  0  0  0  0
   -5.5156   17.9706  -31.5702 H   0  0  0  0  0  0  0  0  0  0  0  0
   -7.5030   18.1770  -33.7880 H   0  0  0  0  0  0  0  0  0  0  0  0
   -9.3984   19.9051  -32.8952 H   0  0  0  0  0  0  0  0  0  0  0  0
   -9.6639   22.2891  -32.1409 H   0  0  0  0  0  0  0  0  0  0  0  0
   -8.2211   24.5154  -31.0824 H   0  0  0  0  0  0  0  0  0  0  0  0
   -3.8720   26.4570  -30.1230 H   0  0  0  0  0  0  0  0  0  0  0  0
   -3.6040   24.9940  -31.1310 H   0  0  0  0  0  0  0  0  0  0  0  0
   -2.0184   20.9840  -28.5936 H   0  0  0  0  0  0  0  0  0  0  0  0
   -1.5315   22.0433  -29.9797 H   0  0  0  0  0  0  0  0  0  0  0  0
   -2.2836   23.1092  -26.0928 H   0  0  0  0  0  0  0  0  0  0  0  0
   -1.4748   21.6915  -26.8428 H   0  0  0  0  0  0  0  0  0  0  0  0
   -0.6618   23.2932  -26.8428 H   0  0  0  0  0  0  0  0  0  0  0  0
   -3.9260   24.0780  -28.7330 H   0  0  0  0  0  0  0  0  0  0  0  0
   -5.1639   20.0571  -31.8684 H   0  0  0  0  0  0  0  0  0  0  0  0
  1  2  1  0
  2  3  1  0
  3  4  1  0
  4  5  1  0
  5  6  1  0
  6  7  2  0
  7  8  1  0
  8  9  2  0
  9 10  1  0
 10 11  2  0
 11 12  1  0
 12 13  1  0
 12 14  2  0
 11 15  1  0
 15 16  1  0
 16 17  2  0
 16 18  1  0
 18 19  1  0
 19 20  1  0
 20 21  1  0
 20 22  1  1
 20 23  1  0
 23 24  2  0
 23 25  1  0
 15 26  1  0
 26 27  2  0
 27  6  1  0
 26  9  1  0
  1 28  1  0
  1 29  1  0
  1 30  1  0
  3 31  1  0
  3 32  1  0
  4 33  1  0
  4 34  1  0
  5 35  1  0
  7 36  1  0
  8 37  1  0
 10 38  1  0
 13 39  1  0
 13 40  1  0
 19 41  1  0
 19 42  1  0
 21 43  1  0
 21 44  1  0
 21 45  1  0
 22 46  1  0
 27 47  1  0
M  CHG  1  25  -1
M  END
>  <UniqueID>  (35) 
34

>  <SMILES>  (35) 
COCCNc1ccc2cc(C(N)=O)n(C(=O)OC[C@](C)(O)C(=O)[O-])c2c1

>  <Energy>  (35) 
82.52825053824587

>  <Genealogy>  (35) 
COCCNc1ccc2cc(C(N)=O)n(C(=O)OCC(C)(O)C(=O)[O-])c2c1 (protonated)
COCCNc1ccc2cc(C(N)=O)n(C(=O)OC[C@](C)(O)C(=O)[O-])c2c1 (chirality)
COCCNc1ccc2cc(C(N)=O)n(C(=O)OC[C@](C)(O)C(=O)[O-])c2c1 (3D coordinates assigned)
COCCNc1ccc2cc(C(N)=O)n(C(=O)OC[C@](C)(O)C(=O)[O-])c2c1 (optimized conformer: 82.52825053824587 kcal/mol)

>  <smiles>  (35) 
COCCNc1ccc2cc(C(N)=O)n(C(=O)OCC(C)(O)C(=O)O)c2c1

>  <score_type>  (35) 
oracle

>  <origin>  (35) 
adg

>  <m_score__min__energy>  (35) 
-11.01

>  <m_primary>  (35) 
energy

$$$$
35:0
     RDKit          3D

 38 39  0  0  0  0  0  0  0  0999 V2000
   -3.4940   25.3670  -30.9160 H   0  0  0  0  0  0  0  0  0  0  0  0
   -4.2540   25.9460  -30.4920 N   0  0  0  0  0  0  0  0  0  0  0  0
   -5.5110   25.3680  -30.1480 C   0  0  0  0  0  0  0  0  0  0  0  0
   -6.2870   25.9940  -29.3790 O   0  0  0  0  0  0  0  0  0  0  0  0
   -5.9080   24.0700  -30.7280 C   0  0  0  0  0  0  0  0  0  0  0  0
   -7.2100   23.7730  -31.1260 C   0  0  0  0  0  0  0  0  0  0  0  0
   -8.0754   24.4519  -31.1364 H   0  0  0  0  0  0  0  0  0  0  0  0
   -7.1830   22.4510  -31.5030 C   0  0  0  0  0  0  0  0  0  0  0  0
   -8.2020   21.6380  -31.9840 C   0  0  0  0  0  0  0  0  0  0  0  0
   -9.2259   22.0225  -32.1015 H   0  0  0  0  0  0  0  0  0  0  0  0
   -7.8850   20.3090  -32.3160 C   0  0  0  0  0  0  0  0  0  0  0  0
   -8.6742   19.6440  -32.6967 H   0  0  0  0  0  0  0  0  0  0  0  0
   -6.5600   19.8090  -32.1680 C   0  0  0  0  0  0  0  0  0  0  0  0
   -6.2400   18.4390  -32.5260 N   0  0  0  0  0  0  0  0  0  0  0  0
   -6.0330   18.0640  -33.9300 C   0  0  0  0  0  0  0  0  0  0  0  0
   -5.5019   17.1019  -33.9781 H   0  0  0  0  0  0  0  0  0  0  0  0
   -7.0073   17.9705  -34.4320 H   0  0  0  0  0  0  0  0  0  0  0  0
   -5.4347   18.8386  -34.4320 H   0  0  0  0  0  0  0  0  0  0  0  0
   -6.1190   17.4060  -31.4900 C   0  0  0  0  0  0  0  0  0  0  0  0
   -6.1739   17.8749  -30.4965 H   0  0  0  0  0  0  0  0  0  0  0  0
   -6.9382   16.6800  -31.5986 H   0  0  0  0  0  0  0  0  0  0  0  0
   -5.1542   16.8890  -31.5986 H   0  0  0  0  0  0  0  0  0  0  0  0
   -5.5550   20.6800  -31.6700 C   0  0  0  0  0  0  0  0  0  0  0  0
   -4.5197   20.3287  -31.5484 H   0  0  0  0  0  0  0  0  0  0  0  0
   -5.9050   21.9920  -31.3370 C   0  0  0  0  0  0  0  0  0  0  0  0
   -5.1030   22.9780  -30.8760 N   0  0  0  0  0  0  0  0  0  0  0  0
   -3.6900   22.8720  -30.6190 C   0  0  0  0  0  0  0  0  0  0  0  0
   -2.8750   23.1290  -31.5440 O   0  0  0  0  0  0  0  0  0  0  0  0
   -3.1570   22.4100  -29.3200 C   0  0  0  0  0  0  0  0  0  0  0  0
   -3.5494   21.4612  -28.9252 H   0  0  0  0  0  0  0  0  0  0  0  0
   -2.2320   23.0500  -28.5770 C   0  0  0  0  0  0  0  0  0  0  0  0
   -1.4710   24.2230  -29.0600 C   0  0  0  0  0  0  0  0  0  0  0  0
   -2.0580   25.3000  -29.3450 O   0  0  0  0  0  0  0  0  0  0  0  0
   -0.1010   24.1200  -29.2760 O   0  0  0  0  0  0  0  0  0  0  0  0
   -1.9670   22.5630  -27.1790 C   0  0  0  0  0  0  0  0  0  0  0  0
   -2.3632   23.2911  -26.4558 H   0  0  0  0  0  0  0  0  0  0  0  0
   -2.4609   21.5916  -27.0293 H   0  0  0  0  0  0  0  0  0  0  0  0
   -0.8831   22.4502  -27.0293 H   0  0  0  0  0  0  0  0  0  0  0  0
  1  2  1  0
  2  3  1  0
  3  4  2  0
  3  5  1  0
  5  6  2  0
  6  7  1  0
  6  8  1  0
  8  9  2  0
  9 10  1  0
  9 11  1  0
 11 12  1  0
 11 13  2  0
 13 14  1  0
 14 15  1  0
 15 16  1  0
 15 17  1  0
 15 18  1  0
 14 19  1  0
 19 20  1  0
 19 21  1  0
 19 22  1  0
 13 23  1  0
 23 24  1  0
 23 25  2  0
 25 26  1  0
 26 27  1  0
 27 28  2  0
 27 29  1  0
 29 30  1  0
 29 31  2  0
 31 32  1  0
 32 33  2  0
 32 34  1  0
 31 35  1  0
 35 36  1  0
 35 37  1  0
 35 38  1  0
 26  5  1  0
 25  8  1  0
M  CHG  2   2  -1  34  -1
M  END
>  <UniqueID>  (36) 
35

>  <SMILES>  (36) 
C/C(=C/C(=O)n1c(C([NH-])=O)cc2ccc(N(C)C)cc21)C(=O)[O-]

>  <Energy>  (36) 
84.68039484011608

>  <Genealogy>  (36) 
CC(=CC(=O)n1c(C([NH-])=O)cc2ccc(N(C)C)cc21)C(=O)[O-] (protonated)
C/C(=C/C(=O)n1c(C([NH-])=O)cc2ccc(N(C)C)cc21)C(=O)[O-] (cis-trans isomerization)
C/C(=C/C(=O)n1c(C([NH-])=O)cc2ccc(N(C)C)cc21)C(=O)[O-] (3D coordinates assigned)
C/C(=C/C(=O)n1c(C([NH-])=O)cc2ccc(N(C)C)cc21)C(=O)[O-] (optimized conformer: 84.68039484011608 kcal/mol)

>  <smiles>  (36) 
CC(=CC(=O)n1c(C(N)=O)cc2ccc(N(C)C)cc21)C(=O)O

>  <score_type>  (36) 
oracle

>  <origin>  (36) 
adg

>  <m_score__min__energy>  (36) 
-12.140000000000001

>  <m_primary>  (36) 
energy

$$$$
36:0
     RDKit          3D

 40 41  0  0  0  0  0  0  0  0999 V2000
   -2.8640   24.9100  -27.2290 C   0  0  0  0  0  0  0  0  0  0  0  0
   -2.5060   23.8700  -28.2080 N   0  0  0  0  0  0  0  0  0  0  0  0
   -2.3920   22.5550  -27.5650 C   0  0  0  0  0  0  0  0  0  0  0  0
   -1.2680   24.1940  -28.8760 C   0  0  0  0  0  0  0  0  0  0  0  0
   -0.8750   25.3950  -28.9510 O   0  0  0  0  0  0  0  0  0  0  0  0
   -0.4690   23.1580  -29.3780 O   0  0  0  0  0  0  0  0  0  0  0  0
   -0.9270   22.2440  -30.3680 C   0  0  0  0  0  0  0  0  0  0  0  0
   -2.3530   22.2330  -30.4070 O   0  0  0  0  0  0  0  0  0  0  0  0
   -3.0930   22.2410  -31.5940 C   0  0  0  0  0  0  0  0  0  0  0  0
   -2.5090   22.0980  -32.7030 O   0  0  0  0  0  0  0  0  0  0  0  0
   -4.5230   22.3730  -31.5430 N   0  0  0  0  0  0  0  0  0  0  0  0
   -5.2590   23.3760  -30.9800 C   0  0  0  0  0  0  0  0  0  0  0  0
   -4.7400   24.4980  -30.1670 C   0  0  0  0  0  0  0  0  0  0  0  0
   -3.6360   25.2840  -30.6080 N   0  0  0  0  0  0  0  0  0  0  0  0
   -5.2460   24.7330  -29.0360 O   0  0  0  0  0  0  0  0  0  0  0  0
   -6.6180   23.1460  -31.1630 C   0  0  0  0  0  0  0  0  0  0  0  0
   -6.6990   21.9490  -31.8370 C   0  0  0  0  0  0  0  0  0  0  0  0
   -7.8200   21.2360  -32.2570 C   0  0  0  0  0  0  0  0  0  0  0  0
   -7.6140   20.0220  -32.9330 C   0  0  0  0  0  0  0  0  0  0  0  0
   -6.3020   19.5520  -33.1920 C   0  0  0  0  0  0  0  0  0  0  0  0
   -6.1240   18.2590  -33.9480 C   0  0  0  0  0  0  0  0  0  0  0  0
   -7.1790   17.3880  -33.7260 F   0  0  0  0  0  0  0  0  0  0  0  0
   -4.9500   17.6500  -33.5450 F   0  0  0  0  0  0  0  0  0  0  0  0
   -6.0520   18.5200  -35.3050 F   0  0  0  0  0  0  0  0  0  0  0  0
   -5.1860   20.3170  -32.7650 C   0  0  0  0  0  0  0  0  0  0  0  0
   -5.4240   21.5030  -32.0580 C   0  0  0  0  0  0  0  0  0  0  0  0
   -2.7287   24.5170  -26.2105 H   0  0  0  0  0  0  0  0  0  0  0  0
   -2.2161   25.7873  -27.3726 H   0  0  0  0  0  0  0  0  0  0  0  0
   -3.9146   25.2026  -27.3726 H   0  0  0  0  0  0  0  0  0  0  0  0
   -3.2660   23.8190  -28.9220 H   0  0  0  0  0  0  0  0  0  0  0  0
   -2.4028   22.6791  -26.4721 H   0  0  0  0  0  0  0  0  0  0  0  0
   -3.2387   21.9228  -27.8706 H   0  0  0  0  0  0  0  0  0  0  0  0
   -1.4491   22.0779  -27.8706 H   0  0  0  0  0  0  0  0  0  0  0  0
   -0.5391   22.5489  -31.3511 H   0  0  0  0  0  0  0  0  0  0  0  0
   -0.5672   21.2349  -30.1185 H   0  0  0  0  0  0  0  0  0  0  0  0
   -2.7270   25.2740  -30.0910 H   0  0  0  0  0  0  0  0  0  0  0  0
   -7.4519   23.7855  -30.8378 H   0  0  0  0  0  0  0  0  0  0  0  0
   -8.8356   21.6124  -32.0650 H   0  0  0  0  0  0  0  0  0  0  0  0
   -8.4797   19.4300  -33.2648 H   0  0  0  0  0  0  0  0  0  0  0  0
   -4.1596   19.9872  -32.9835 H   0  0  0  0  0  0  0  0  0  0  0  0
  1  2  1  0
  2  3  1  0
  2  4  1  0
  4  5  2  0
  4  6  1  0
  6  7  1  0
  7  8  1  0
  8  9  1  0
  9 10  2  0
  9 11  1  0
 11 12  1  0
 12 13  1  0
 13 14  1  0
 13 15  2  0
 12 16  2  0
 16 17  1  0
 17 18  2  0
 18 19  1  0
 19 20  2  0
 20 21  1  0
 21 22  1  0
 21 23  1  0
 21 24  1  0
 20 25  1  0
 25 26  2  0
 26 11  1  0
 26 17  1  0
  1 27  1  0
  1 28  1  0
  1 29  1  0
  2 30  1  0
  3 31  1  0
  3 32  1  0
  3 33  1  0
  7 34  1  0
  7 35  1  0
 14 36  1  0
 16 37  1  0
 18 38  1  0
 19 39  1  0
 25 40  1  0
M  CHG  2   2   1  14  -1
M  END
>  <UniqueID>  (37) 
36

>  <SMILES>  (37) 
C[NH+](C)C(=O)OCOC(=O)n1c(C([NH-])=O)cc2ccc(C(F)(F)F)cc21

>  <Energy>  (37) 
77.10583535610778

>  <Genealogy>  (37) 
C[NH+](C)C(=O)OCOC(=O)n1c(C([NH-])=O)cc2ccc(C(F)(F)F)cc21 (protonated)
C[NH+](C)C(=O)OCOC(=O)n1c(C([NH-])=O)cc2ccc(C(F)(F)F)cc21 (3D coordinates assigned)
C[NH+](C)C(=O)OCOC(=O)n1c(C([NH-])=O)cc2ccc(C(F)(F)F)cc21 (optimized conformer: 77.10583535610778 kcal/mol)

>  <smiles>  (37) 
CN(C)C(=O)OCOC(=O)n1c(C(N)=O)cc2ccc(C(F)(F)F)cc21

>  <score_type>  (37) 
oracle

>  <origin>  (37) 
adg

>  <m_score__min__energy>  (37) 
-8.8800000000000008

>  <m_primary>  (37) 
energy

$$$$
37:0
     RDKit          3D

 46 47  0  0  0  0  0  0  0  0999 V2000
   -3.1000   25.0940  -31.1850 H   0  0  0  0  0  0  0  0  0  0  0  0
   -3.9110   25.5200  -30.6830 N   0  0  0  0  0  0  0  0  0  0  0  0
   -4.7570   24.7290  -29.8510 C   0  0  0  0  0  0  0  0  0  0  0  0
   -4.7240   24.8950  -28.6030 O   0  0  0  0  0  0  0  0  0  0  0  0
   -5.6770   23.7450  -30.4600 C   0  0  0  0  0  0  0  0  0  0  0  0
   -7.0650   23.8330  -30.3760 C   0  0  0  0  0  0  0  0  0  0  0  0
   -7.6549   24.6360  -29.9099 H   0  0  0  0  0  0  0  0  0  0  0  0
   -7.5420   22.7020  -31.0000 C   0  0  0  0  0  0  0  0  0  0  0  0
   -8.8510   22.2780  -31.2080 C   0  0  0  0  0  0  0  0  0  0  0  0
   -9.7034   22.8680  -30.8400 H   0  0  0  0  0  0  0  0  0  0  0  0
   -9.0500   21.0740  -31.9020 C   0  0  0  0  0  0  0  0  0  0  0  0
  -10.0733   20.7098  -32.0758 H   0  0  0  0  0  0  0  0  0  0  0  0
   -7.9470   20.3210  -32.3820 C   0  0  0  0  0  0  0  0  0  0  0  0
   -8.1640   19.1040  -33.1290 N   0  0  0  0  0  0  0  0  0  0  0  0
   -9.1750   19.0420  -33.3930 H   0  0  0  0  0  0  0  0  0  0  0  0
   -7.6120   19.1140  -34.0190 H   0  0  0  0  0  0  0  0  0  0  0  0
   -7.8120   17.9170  -32.3340 C   0  0  0  0  0  0  0  0  0  0  0  0
   -8.6178   17.1740  -32.4267 H   0  0  0  0  0  0  0  0  0  0  0  0
   -7.6837   18.2308  -31.2875 H   0  0  0  0  0  0  0  0  0  0  0  0
   -6.5240   17.2990  -32.7990 C   0  0  0  0  0  0  0  0  0  0  0  0
   -5.8660   16.5610  -32.0150 O   0  0  0  0  0  0  0  0  0  0  0  0
   -6.0630   17.5630  -34.0950 O   0  0  0  0  0  0  0  0  0  0  0  0
   -5.0930   18.5640  -34.3900 C   0  0  0  0  0  0  0  0  0  0  0  0
   -5.2786   19.4445  -33.7574 H   0  0  0  0  0  0  0  0  0  0  0  0
   -5.1752   18.8343  -35.4531 H   0  0  0  0  0  0  0  0  0  0  0  0
   -3.6830   18.0430  -34.1230 C   0  0  0  0  0  0  0  0  0  0  0  0
   -3.5145   17.9807  -33.0378 H   0  0  0  0  0  0  0  0  0  0  0  0
   -3.5706   17.0440  -34.5694 H   0  0  0  0  0  0  0  0  0  0  0  0
   -2.9480   18.7289  -34.5694 H   0  0  0  0  0  0  0  0  0  0  0  0
   -6.6320   20.7890  -32.1550 C   0  0  0  0  0  0  0  0  0  0  0  0
   -5.7628   20.2293  -32.5308 H   0  0  0  0  0  0  0  0  0  0  0  0
   -6.4620   21.9810  -31.4410 C   0  0  0  0  0  0  0  0  0  0  0  0
   -5.3090   22.6040  -31.1090 N   0  0  0  0  0  0  0  0  0  0  0  0
   -3.9750   22.1690  -31.4310 C   0  0  0  0  0  0  0  0  0  0  0  0
   -3.1340   23.0140  -31.8370 O   0  0  0  0  0  0  0  0  0  0  0  0
   -0.8800   20.7750  -33.5870 C   0  0  0  0  0  0  0  0  0  0  0  0
   -1.3570   19.9512  -34.1382 H   0  0  0  0  0  0  0  0  0  0  0  0
   -1.2980   21.0500  -32.3480 C   0  0  0  0  0  0  0  0  0  0  0  0
   -0.8355   21.8773  -31.7898 H   0  0  0  0  0  0  0  0  0  0  0  0
   -2.3730   20.2570  -31.7190 C   0  0  0  0  0  0  0  0  0  0  0  0
   -2.1727   19.1958  -31.5102 H   0  0  0  0  0  0  0  0  0  0  0  0
   -3.5780   20.7440  -31.3850 C   0  0  0  0  0  0  0  0  0  0  0  0
   -4.3361   20.0217  -31.0479 H   0  0  0  0  0  0  0  0  0  0  0  0
    0.1970   21.5370  -34.2390 C   0  0  0  0  0  0  0  0  0  0  0  0
    1.4080   21.3410  -33.9420 O   0  0  0  0  0  0  0  0  0  0  0  0
   -0.1220   22.4810  -35.2040 O   0  0  0  0  0  0  0  0  0  0  0  0
  1  2  1  0
  2  3  1  0
  3  4  2  0
  3  5  1  0
  5  6  2  0
  6  7  1  0
  6  8  1  0
  8  9  2  0
  9 10  1  0
  9 11  1  0
 11 12  1  0
 11 13  2  0
 13 14  1  0
 14 15  1  0
 14 16  1  0
 14 17  1  0
 17 18  1  0
 17 19  1  0
 17 20  1  0
 20 21  2  0
 20 22  1  0
 22 23  1  0
 23 24  1  0
 23 25  1  0
 23 26  1  0
 26 27  1  0
 26 28  1  0
 26 29  1  0
 13 30  1  0
 30 31  1  0
 30 32  2  0
 32 33  1  0
 33 34  1  0
 34 35  2  0
 34 36  1  0
 36 37  1  0
 36 38  2  0
 38 39  1  0
 38 40  1  0
 40 41  1  0
 40 42  2  3
 42 43  1  0
 42 44  1  0
 44 45  2  0
 44 46  1  0
 33  5  1  0
 32  8  1  0
M  CHG  3   2  -1  14   1  46  -1
M  END
>  <UniqueID>  (38) 
37

>  <SMILES>  (38) 
CCOC(=O)C[NH2+]c1ccc2cc(C([NH-])=O)n(C(=O)/C=C\C=CC(=O)[O-])c2c1

>  <Energy>  (38) 
80.4229311822753

>  <Genealogy>  (38) 
CCOC(=O)C[NH2+]c1ccc2cc(C([NH-])=O)n(C(=O)C=CC=CC(=O)[O-])c2c1 (protonated)
CCOC(=O)C[NH2+]c1ccc2cc(C([NH-])=O)n(C(=O)/C=C\C=CC(=O)[O-])c2c1 (cis-trans isomerization)
CCOC(=O)C[NH2+]c1ccc2cc(C([NH-])=O)n(C(=O)/C=C\C=CC(=O)[O-])c2c1 (3D coordinates assigned)
CCOC(=O)C[NH2+]c1ccc2cc(C([NH-])=O)n(C(=O)/C=C\C=CC(=O)[O-])c2c1 (optimized conformer: 80.4229311822753 kcal/mol)

>  <smiles>  (38) 
CCOC(=O)CNc1ccc2cc(C(N)=O)n(C(=O)C=CC=CC(=O)O)c2c1

>  <score_type>  (38) 
oracle

>  <origin>  (38) 
adg

>  <m_score__min__energy>  (38) 
-13.119999999999999

>  <m_primary>  (38) 
energy

$$$$
38:0
     RDKit          3D

 41 42  0  0  0  0  0  0  0  0999 V2000
   -6.7950   17.5140  -33.6330 C   0  0  0  0  0  0  0  0  0  0  0  0
   -6.5950   18.0660  -32.2870 N   0  0  0  0  0  0  0  0  0  0  0  0
   -6.1390   17.1740  -31.2140 C   0  0  0  0  0  0  0  0  0  0  0  0
   -6.8410   19.4720  -32.0230 C   0  0  0  0  0  0  0  0  0  0  0  0
   -8.1430   20.0240  -32.1880 C   0  0  0  0  0  0  0  0  0  0  0  0
   -8.3890   21.3850  -31.9460 C   0  0  0  0  0  0  0  0  0  0  0  0
   -7.3280   22.1770  -31.5300 C   0  0  0  0  0  0  0  0  0  0  0  0
   -7.2860   23.5260  -31.2590 C   0  0  0  0  0  0  0  0  0  0  0  0
   -5.9690   23.7860  -30.8970 C   0  0  0  0  0  0  0  0  0  0  0  0
   -5.4930   25.1160  -30.4650 C   0  0  0  0  0  0  0  0  0  0  0  0
   -4.1770   25.5710  -30.7800 N   0  0  0  0  0  0  0  0  0  0  0  0
   -6.2430   25.8390  -29.7560 O   0  0  0  0  0  0  0  0  0  0  0  0
   -5.2190   22.6490  -30.9560 N   0  0  0  0  0  0  0  0  0  0  0  0
   -3.8010   22.5250  -30.7530 C   0  0  0  0  0  0  0  0  0  0  0  0
   -3.0070   22.7710  -31.7030 O   0  0  0  0  0  0  0  0  0  0  0  0
   -3.3070   22.1270  -29.5060 O   0  0  0  0  0  0  0  0  0  0  0  0
   -3.7910   22.6440  -28.2670 C   0  0  0  0  0  0  0  0  0  0  0  0
   -2.6800   23.3720  -27.4990 C   0  0  0  0  0  0  0  0  0  0  0  0
   -2.4700   24.8080  -27.9930 C   0  0  0  0  0  0  0  0  0  0  0  0
   -2.3370   24.8490  -29.3880 O   0  0  0  0  0  0  0  0  0  0  0  0
   -6.0690   21.6710  -31.3420 C   0  0  0  0  0  0  0  0  0  0  0  0
   -5.7880   20.3230  -31.5980 C   0  0  0  0  0  0  0  0  0  0  0  0
   -7.1688   16.4824  -33.5544 H   0  0  0  0  0  0  0  0  0  0  0  0
   -7.5275   18.1290  -34.1764 H   0  0  0  0  0  0  0  0  0  0  0  0
   -5.8386   17.5171  -34.1764 H   0  0  0  0  0  0  0  0  0  0  0  0
   -6.3702   17.6262  -30.2382 H   0  0  0  0  0  0  0  0  0  0  0  0
   -6.6523   16.2049  -31.2999 H   0  0  0  0  0  0  0  0  0  0  0  0
   -5.0529   17.0225  -31.2999 H   0  0  0  0  0  0  0  0  0  0  0  0
   -8.9696   19.3737  -32.5103 H   0  0  0  0  0  0  0  0  0  0  0  0
   -9.3939   21.8113  -32.0822 H   0  0  0  0  0  0  0  0  0  0  0  0
   -8.1168   24.2446  -31.3165 H   0  0  0  0  0  0  0  0  0  0  0  0
   -3.8730   26.5300  -30.5000 H   0  0  0  0  0  0  0  0  0  0  0  0
   -3.4760   24.9340  -31.2170 H   0  0  0  0  0  0  0  0  0  0  0  0
   -4.6103   23.3499  -28.4681 H   0  0  0  0  0  0  0  0  0  0  0  0
   -4.1461   21.8032  -27.6531 H   0  0  0  0  0  0  0  0  0  0  0  0
   -2.9489   23.4013  -26.4328 H   0  0  0  0  0  0  0  0  0  0  0  0
   -1.7425   22.8208  -27.6642 H   0  0  0  0  0  0  0  0  0  0  0  0
   -3.3349   25.4196  -27.6967 H   0  0  0  0  0  0  0  0  0  0  0  0
   -1.5460   25.2000  -27.5429 H   0  0  0  0  0  0  0  0  0  0  0  0
   -2.3680   23.9090  -29.7040 H   0  0  0  0  0  0  0  0  0  0  0  0
   -4.7682   19.9306  -31.4717 H   0  0  0  0  0  0  0  0  0  0  0  0
  1  2  1  0
  2  3  1  0
  2  4  1  0
  4  5  2  0
  5  6  1  0
  6  7  2  0
  7  8  1  0
  8  9  2  0
  9 10  1  0
 10 11  1  0
 10 12  2  0
  9 13  1  0
 13 14  1  0
 14 15  2  0
 14 16  1  0
 16 17  1  0
 17 18  1  0
 18 19  1  0
 19 20  1  0
 13 21  1  0
 21 22  2  0
 22  4  1  0
 21  7  1  0
  1 23  1  0
  1 24  1  0
  1 25  1  0
  3 26  1  0
  3 27  1  0
  3 28  1  0
  5 29  1  0
  6 30  1  0
  8 31  1  0
 11 32  1  0
 11 33  1  0
 17 34  1  0
 17 35  1  0
 18 36  1  0
 18 37  1  0
 19 38  1  0
 19 39  1  0
 20 40  1  0
 22 41  1  0
M  END
>  <UniqueID>  (39) 
38

>  <SMILES>  (39) 
CN(C)c1ccc2cc(C(N)=O)n(C(=O)OCCCO)c2c1

>  <Energy>  (39) 
75.88067156485995

>  <Genealogy>  (39) 
CN(C)c1ccc2cc(C(N)=O)n(C(=O)OCCCO)c2c1 (3D coordinates assigned)
CN(C)c1ccc2cc(C(N)=O)n(C(=O)OCCCO)c2c1 (optimized conformer: 75.88067156485995 kcal/mol)

>  <smiles>  (39) 
CN(C)c1ccc2cc(C(N)=O)n(C(=O)OCCCO)c2c1

>  <score_type>  (39) 
oracle

>  <origin>  (39) 
adg

>  <m_score__min__energy>  (39) 
-8.3599999999999994

>  <m_primary>  (39) 
energy

$$$$
39:0
     RDKit          3D

 40 42  0  0  0  0  0  0  0  0999 V2000
   -1.4300   25.2810  -29.0050 N   0  0  0  0  0  0  0  0  0  0  0  0
   -1.0270   23.9230  -28.8410 C   0  0  0  0  0  0  0  0  0  0  0  0
   -0.3300   23.6030  -27.8420 O   0  0  0  0  0  0  0  0  0  0  0  0
   -1.3950   22.9190  -29.8610 C   0  0  0  0  0  0  0  0  0  0  0  0
   -0.5520   21.8800  -30.2540 C   0  0  0  0  0  0  0  0  0  0  0  0
   -1.2890   21.1270  -31.1390 C   0  0  0  0  0  0  0  0  0  0  0  0
   -0.9360   19.9860  -31.8520 C   0  0  0  0  0  0  0  0  0  0  0  0
   -1.8880   19.4350  -32.7270 C   0  0  0  0  0  0  0  0  0  0  0  0
   -3.1680   20.0290  -32.8660 C   0  0  0  0  0  0  0  0  0  0  0  0
   -4.1570   19.4670  -33.8480 C   0  0  0  0  0  0  0  0  0  0  0  0
   -5.5160   19.7250  -33.3820 N   0  0  0  0  0  0  0  0  0  0  0  0
   -6.4110   18.7940  -32.9990 C   0  0  0  0  0  0  0  0  0  0  0  0
   -7.5340   19.4590  -32.5500 C   0  0  0  0  0  0  0  0  0  0  0  0
   -8.7300   18.8670  -32.0350 N   0  0  0  0  0  0  0  0  0  0  0  0
   -8.7200   18.2810  -30.9330 O   0  0  0  0  0  0  0  0  0  0  0  0
   -9.9020   18.9400  -32.7510 O   0  0  0  0  0  0  0  0  0  0  0  0
   -7.2620   20.8080  -32.6740 C   0  0  0  0  0  0  0  0  0  0  0  0
   -6.0200   20.9330  -33.1780 N   0  0  0  0  0  0  0  0  0  0  0  0
   -3.4850   21.1950  -32.1370 C   0  0  0  0  0  0  0  0  0  0  0  0
   -2.5230   21.7130  -31.2610 C   0  0  0  0  0  0  0  0  0  0  0  0
   -2.6030   22.8160  -30.4860 N   0  0  0  0  0  0  0  0  0  0  0  0
   -3.7190   23.7170  -30.4040 C   0  0  0  0  0  0  0  0  0  0  0  0
   -3.5600   24.9420  -30.6610 O   0  0  0  0  0  0  0  0  0  0  0  0
   -4.9850   23.2240  -30.0650 O   0  0  0  0  0  0  0  0  0  0  0  0
   -6.2010   23.8580  -30.4500 C   0  0  0  0  0  0  0  0  0  0  0  0
   -6.4600   23.6440  -31.9070 C   0  0  0  0  0  0  0  0  0  0  0  0
   -7.6350   23.6860  -32.3570 O   0  0  0  0  0  0  0  0  0  0  0  0
   -5.4030   23.3700  -32.7650 O   0  0  0  0  0  0  0  0  0  0  0  0
   -1.6110   25.6770  -29.9540 H   0  0  0  0  0  0  0  0  0  0  0  0
    0.4825   21.7005  -29.9261 H   0  0  0  0  0  0  0  0  0  0  0  0
    0.0577   19.5290  -31.7347 H   0  0  0  0  0  0  0  0  0  0  0  0
   -1.6380   18.5355  -33.3088 H   0  0  0  0  0  0  0  0  0  0  0  0
   -4.0101   19.9441  -34.8282 H   0  0  0  0  0  0  0  0  0  0  0  0
   -4.0034   18.3815  -33.9380 H   0  0  0  0  0  0  0  0  0  0  0  0
   -6.2723   17.7035  -33.0371 H   0  0  0  0  0  0  0  0  0  0  0  0
   -7.9396   21.6328  -32.4083 H   0  0  0  0  0  0  0  0  0  0  0  0
   -5.5200   21.8300  -33.3680 H   0  0  0  0  0  0  0  0  0  0  0  0
   -4.4631   21.6846  -32.2539 H   0  0  0  0  0  0  0  0  0  0  0  0
   -7.0318   23.4331  -29.8676 H   0  0  0  0  0  0  0  0  0  0  0  0
   -6.1181   24.9377  -30.2564 H   0  0  0  0  0  0  0  0  0  0  0  0
  1  2  1  0
  2  3  2  0
  2  4  1  0
  4  5  2  0
  5  6  1  0
  6  7  2  0
  7  8  1  0
  8  9  2  0
  9 10  1  0
 10 11  1  0
 11 12  1  0
 12 13  2  0
 13 14  1  0
 14 15  2  0
 14 16  1  0
 13 17  1  0
 17 18  2  0
  9 19  1  0
 19 20  2  0
 20 21  1  0
 21 22  1  0
 22 23  2  0
 22 24  1  0
 24 25  1  0
 25 26  1  0
 26 27  2  0
 26 28  1  0
 21  4  1  0
 20  6  1  0
 18 11  1  0
  1 29  1  0
  5 30  1  0
  7 31  1  0
  8 32  1  0
 10 33  1  0
 10 34  1  0
 12 35  1  0
 17 36  1  0
 18 37  1  0
 19 38  1  0
 25 39  1  0
 25 40  1  0
M  CHG  5   1  -1  14   1  16  -1  18   1  28  -1
M  END
>  <UniqueID>  (40) 
39

>  <SMILES>  (40) 
[NH-]C(=O)c1cc2ccc(Cn3cc([N+](=O)[O-])c[nH+]3)cc2n1C(=O)OCC(=O)[O-]

>  <Energy>  (40) 
108.08794964944462

>  <Genealogy>  (40) 
[NH-]C(=O)c1cc2ccc(Cn3cc([N+](=O)[O-])c[nH+]3)cc2n1C(=O)OCC(=O)[O-] (protonated)
[NH-]C(=O)c1cc2ccc(Cn3cc([N+](=O)[O-])c[nH+]3)cc2n1C(=O)OCC(=O)[O-] (3D coordinates assigned)
[NH-]C(=O)c1cc2ccc(Cn3cc([N+](=O)[O-])c[nH+]3)cc2n1C(=O)OCC(=O)[O-] (optimized conformer: 108.08794964944462 kcal/mol)

>  <smiles>  (40) 
NC(=O)c1cc2ccc(Cn3cc([N+](=O)[O-])cn3)cc2n1C(=O)OCC(=O)O

>  <score_type>  (40) 
oracle

>  <origin>  (40) 
adg

>  <m_score__min__energy>  (40) 
-12.470000000000001

>  <m_primary>  (40) 
energy

$$$$
40:0
     RDKit          3D

 42 43  0  0  0  0  0  0  0  0999 V2000
   -6.5820   17.1770  -33.4540 C   0  0  0  0  0  0  0  0  0  0  0  0
   -6.7480   18.2940  -33.0290 C   0  0  0  0  0  0  0  0  0  0  0  0
   -6.9440   19.6290  -32.5280 C   0  0  0  0  0  0  0  0  0  0  0  0
   -8.2550   20.1360  -32.3740 C   0  0  0  0  0  0  0  0  0  0  0  0
   -8.4590   21.4470  -31.9120 C   0  0  0  0  0  0  0  0  0  0  0  0
   -7.3370   22.2150  -31.6110 C   0  0  0  0  0  0  0  0  0  0  0  0
   -7.2460   23.5230  -31.1950 C   0  0  0  0  0  0  0  0  0  0  0  0
   -5.8810   23.7830  -31.0860 C   0  0  0  0  0  0  0  0  0  0  0  0
   -5.3330   25.0810  -30.6330 C   0  0  0  0  0  0  0  0  0  0  0  0
   -3.9280   25.3030  -30.5610 N   0  0  0  0  0  0  0  0  0  0  0  0
   -6.1190   26.0010  -30.2800 O   0  0  0  0  0  0  0  0  0  0  0  0
   -5.1550   22.6770  -31.4200 N   0  0  0  0  0  0  0  0  0  0  0  0
   -3.7260   22.5580  -31.5010 C   0  0  0  0  0  0  0  0  0  0  0  0
   -3.2000   22.2270  -32.5990 O   0  0  0  0  0  0  0  0  0  0  0  0
   -2.9010   22.8830  -30.3570 N   0  0  2  0  0  0  0  0  0  0  0  0
   -1.5040   22.4910  -30.6070 C   0  0  0  0  0  0  0  0  0  0  0  0
   -3.4530   22.3470  -29.0840 C   0  0  0  0  0  0  0  0  0  0  0  0
   -2.5770   22.5920  -27.8350 C   0  0  0  0  0  0  0  0  0  0  0  0
   -2.3430   24.0310  -27.6550 N   0  0  0  0  0  0  0  0  0  0  0  0
   -3.1560   24.8000  -26.7090 C   0  0  0  0  0  0  0  0  0  0  0  0
   -1.3050   24.7050  -28.3930 C   0  0  0  0  0  0  0  0  0  0  0  0
   -0.0930   24.4390  -28.1840 O   0  0  0  0  0  0  0  0  0  0  0  0
   -1.6350   25.6630  -29.3450 O   0  0  0  0  0  0  0  0  0  0  0  0
   -6.0610   21.7280  -31.7440 C   0  0  0  0  0  0  0  0  0  0  0  0
   -5.8290   20.4320  -32.2150 C   0  0  0  0  0  0  0  0  0  0  0  0
   -6.4307   16.1587  -33.8415 H   0  0  0  0  0  0  0  0  0  0  0  0
   -9.1195   19.5007  -32.6172 H   0  0  0  0  0  0  0  0  0  0  0  0
   -9.4737   21.8543  -31.7917 H   0  0  0  0  0  0  0  0  0  0  0  0
   -8.0750   24.2168  -30.9915 H   0  0  0  0  0  0  0  0  0  0  0  0
   -3.4830   25.6440  -29.6800 H   0  0  0  0  0  0  0  0  0  0  0  0
   -2.8960   23.9260  -30.2590 H   0  0  0  0  0  0  0  0  0  0  0  0
   -0.9866   22.3458  -29.6472 H   0  0  0  0  0  0  0  0  0  0  0  0
   -1.4835   21.5524  -31.1803 H   0  0  0  0  0  0  0  0  0  0  0  0
   -0.9982   23.2819  -31.1803 H   0  0  0  0  0  0  0  0  0  0  0  0
   -4.4317   22.8187  -28.9116 H   0  0  0  0  0  0  0  0  0  0  0  0
   -3.5087   21.2556  -29.2098 H   0  0  0  0  0  0  0  0  0  0  0  0
   -3.0899   22.1933  -26.9473 H   0  0  0  0  0  0  0  0  0  0  0  0
   -1.6102   22.0847  -27.9690 H   0  0  0  0  0  0  0  0  0  0  0  0
   -2.8730   24.5323  -25.6803 H   0  0  0  0  0  0  0  0  0  0  0  0
   -2.9855   25.8750  -26.8683 H   0  0  0  0  0  0  0  0  0  0  0  0
   -4.2198   24.5700  -26.8683 H   0  0  0  0  0  0  0  0  0  0  0  0
   -4.8048   20.0500  -32.3378 H   0  0  0  0  0  0  0  0  0  0  0  0
  1  2  3  0
  2  3  1  0
  3  4  2  0
  4  5  1  0
  5  6  2  0
  6  7  1  0
  7  8  2  0
  8  9  1  0
  9 10  1  0
  9 11  2  0
  8 12  1  0
 12 13  1  0
 13 14  2  0
 13 15  1  0
 15 16  1  0
 15 17  1  0
 17 18  1  0
 18 19  1  0
 19 20  1  0
 19 21  1  0
 21 22  2  0
 21 23  1  0
 12 24  1  0
 24 25  2  0
 25  3  1  0
 24  6  1  0
  1 26  1  0
  4 27  1  0
  5 28  1  0
  7 29  1  0
 10 30  1  0
 15 31  1  1
 16 32  1  0
 16 33  1  0
 16 34  1  0
 17 35  1  0
 17 36  1  0
 18 37  1  0
 18 38  1  0
 20 39  1  0
 20 40  1  0
 20 41  1  0
 25 42  1  0
M  CHG  3  10  -1  15   1  23  -1
M  END
>  <UniqueID>  (41) 
40

>  <SMILES>  (41) 
C#Cc1ccc2cc(C([NH-])=O)n(C(=O)[N@H+](C)CCN(C)C(=O)[O-])c2c1

>  <Energy>  (41) 
81.78510136973085

>  <Genealogy>  (41) 
C#Cc1ccc2cc(C([NH-])=O)n(C(=O)[NH+](C)CCN(C)C(=O)[O-])c2c1 (protonated)
C#Cc1ccc2cc(C([NH-])=O)n(C(=O)[N@H+](C)CCN(C)C(=O)[O-])c2c1 (chirality)
C#Cc1ccc2cc(C([NH-])=O)n(C(=O)[N@H+](C)CCN(C)C(=O)[O-])c2c1 (3D coordinates assigned)
C#Cc1ccc2cc(C([NH-])=O)n(C(=O)[N@H+](C)CCN(C)C(=O)[O-])c2c1 (optimized conformer: 81.78510136973085 kcal/mol)

>  <smiles>  (41) 
C#Cc1ccc2cc(C(N)=O)n(C(=O)N(C)CCN(C)C(=O)O)c2c1

>  <score_type>  (41) 
oracle

>  <origin>  (41) 
adg

>  <m_score__min__energy>  (41) 
-12.26

>  <m_primary>  (41) 
energy

$$$$
41:0
     RDKit          3D

 39 40  0  0  0  0  0  0  0  0999 V2000
   -3.9060   25.6560  -30.8480 N   0  0  0  0  0  0  0  0  0  0  0  0
   -5.2000   25.1430  -30.5350 C   0  0  0  0  0  0  0  0  0  0  0  0
   -5.9570   25.8030  -29.7760 O   0  0  0  0  0  0  0  0  0  0  0  0
   -5.6510   23.8700  -31.1360 C   0  0  0  0  0  0  0  0  0  0  0  0
   -6.9890   23.5710  -31.3830 C   0  0  0  0  0  0  0  0  0  0  0  0
   -6.9930   22.2760  -31.8490 C   0  0  0  0  0  0  0  0  0  0  0  0
   -8.0560   21.4740  -32.2550 C   0  0  0  0  0  0  0  0  0  0  0  0
   -7.7650   20.1790  -32.7150 C   0  0  0  0  0  0  0  0  0  0  0  0
   -6.4280   19.7130  -32.7650 C   0  0  0  0  0  0  0  0  0  0  0  0
   -6.1370   18.3300  -33.2740 C   0  0  0  0  0  0  0  0  0  0  0  0
   -5.9700   18.3660  -34.6460 F   0  0  0  0  0  0  0  0  0  0  0  0
   -7.1890   17.4880  -32.9640 F   0  0  0  0  0  0  0  0  0  0  0  0
   -5.3740   20.5570  -32.3450 C   0  0  0  0  0  0  0  0  0  0  0  0
   -5.6950   21.8360  -31.8760 C   0  0  0  0  0  0  0  0  0  0  0  0
   -4.8580   22.8050  -31.4450 N   0  0  0  0  0  0  0  0  0  0  0  0
   -3.4260   22.7250  -31.3830 C   0  0  0  0  0  0  0  0  0  0  0  0
   -2.7990   22.0040  -32.2060 O   0  0  0  0  0  0  0  0  0  0  0  0
   -2.7360   23.4310  -30.3910 O   0  0  0  0  0  0  0  0  0  0  0  0
   -1.5680   22.9350  -29.7400 C   0  0  0  0  0  0  0  0  0  0  0  0
   -1.3300   23.6550  -28.3960 C   0  0  0  0  0  0  0  0  0  0  0  0
   -0.6270   25.0080  -28.6120 C   0  0  0  0  0  0  0  0  0  0  0  0
   -1.5680   25.9940  -28.9390 O   0  0  0  0  0  0  0  0  0  0  0  0
   -2.6540   23.8190  -27.6270 C   0  0  0  0  0  0  0  0  0  0  0  0
   -3.5060   24.7140  -28.2890 O   0  0  0  0  0  0  0  0  0  0  0  0
   -3.0540   25.2960  -30.3640 H   0  0  0  0  0  0  0  0  0  0  0  0
   -7.8576   24.2298  -31.2367 H   0  0  0  0  0  0  0  0  0  0  0  0
   -9.0916   21.8429  -32.2168 H   0  0  0  0  0  0  0  0  0  0  0  0
   -8.5836   19.5199  -33.0397 H   0  0  0  0  0  0  0  0  0  0  0  0
   -5.2169   17.9573  -32.8003 H   0  0  0  0  0  0  0  0  0  0  0  0
   -4.3287   20.2170  -32.3859 H   0  0  0  0  0  0  0  0  0  0  0  0
   -1.6913   21.8580  -29.5532 H   0  0  0  0  0  0  0  0  0  0  0  0
   -0.7013   23.1188  -30.3919 H   0  0  0  0  0  0  0  0  0  0  0  0
   -0.6615   23.0333  -27.7823 H   0  0  0  0  0  0  0  0  0  0  0  0
   -0.1032   25.2971  -27.6889 H   0  0  0  0  0  0  0  0  0  0  0  0
    0.0938   24.9110  -29.4373 H   0  0  0  0  0  0  0  0  0  0  0  0
   -2.0490   25.6600  -29.7410 H   0  0  0  0  0  0  0  0  0  0  0  0
   -3.1495   22.8400  -27.5490 H   0  0  0  0  0  0  0  0  0  0  0  0
   -2.4334   24.2171  -26.6256 H   0  0  0  0  0  0  0  0  0  0  0  0
   -3.2600   24.6690  -29.2500 H   0  0  0  0  0  0  0  0  0  0  0  0
  1  2  1  0
  2  3  2  0
  2  4  1  0
  4  5  2  0
  5  6  1  0
  6  7  2  0
  7  8  1  0
  8  9  2  0
  9 10  1  0
 10 11  1  0
 10 12  1  0
  9 13  1  0
 13 14  2  0
 14 15  1  0
 15 16  1  0
 16 17  2  0
 16 18  1  0
 18 19  1  0
 19 20  1  0
 20 21  1  0
 21 22  1  0
 20 23  1  0
 23 24  1  0
 15  4  1  0
 14  6  1  0
  1 25  1  0
  5 26  1  0
  7 27  1  0
  8 28  1  0
 10 29  1  0
 13 30  1  0
 19 31  1  0
 19 32  1  0
 20 33  1  0
 21 34  1  0
 21 35  1  0
 22 36  1  0
 23 37  1  0
 23 38  1  0
 24 39  1  0
M  CHG  1   1  -1
M  END
>  <UniqueID>  (42) 
41

>  <SMILES>  (42) 
[NH-]C(=O)c1cc2ccc(C(F)F)cc2n1C(=O)OCC(CO)CO

>  <Energy>  (42) 
71.10668354598162

>  <Genealogy>  (42) 
[NH-]C(=O)c1cc2ccc(C(F)F)cc2n1C(=O)OCC(CO)CO (protonated)
[NH-]C(=O)c1cc2ccc(C(F)F)cc2n1C(=O)OCC(CO)CO (3D coordinates assigned)
[NH-]C(=O)c1cc2ccc(C(F)F)cc2n1C(=O)OCC(CO)CO (optimized conformer: 71.10668354598162 kcal/mol)

>  <smiles>  (42) 
NC(=O)c1cc2ccc(C(F)F)cc2n1C(=O)OCC(CO)CO

>  <score_type>  (42) 
oracle

>  <origin>  (42) 
adg

>  <m_score__min__energy>  (42) 
-9.6400000000000006

>  <m_primary>  (42) 
energy

$$$$
42:0
     RDKit          3D

 36 37  0  0  0  0  0  0  0  0999 V2000
   -1.6210   25.6340  -30.0830 H   0  0  0  0  0  0  0  0  0  0  0  0
   -1.6540   25.1660  -29.1500 N   0  0  0  0  0  0  0  0  0  0  0  0
   -1.4680   23.7590  -29.0290 C   0  0  0  0  0  0  0  0  0  0  0  0
   -0.9040   23.2970  -28.0020 O   0  0  0  0  0  0  0  0  0  0  0  0
   -1.9680   22.8350  -30.0680 C   0  0  0  0  0  0  0  0  0  0  0  0
   -1.1380   22.1190  -30.9280 C   0  0  0  0  0  0  0  0  0  0  0  0
   -0.0418   22.1769  -30.9988 H   0  0  0  0  0  0  0  0  0  0  0  0
   -1.9810   21.3240  -31.6700 C   0  0  0  0  0  0  0  0  0  0  0  0
   -1.6960   20.4080  -32.6770 C   0  0  0  0  0  0  0  0  0  0  0  0
   -0.6592   20.2118  -32.9878 H   0  0  0  0  0  0  0  0  0  0  0  0
   -2.7740   19.7400  -33.2860 C   0  0  0  0  0  0  0  0  0  0  0  0
   -2.5787   18.9970  -34.0733 H   0  0  0  0  0  0  0  0  0  0  0  0
   -4.1100   20.0140  -32.8960 C   0  0  0  0  0  0  0  0  0  0  0  0
   -5.2550   19.2630  -33.5290 C   0  0  0  0  0  0  0  0  0  0  0  0
   -5.7610   18.3180  -32.6550 F   0  0  0  0  0  0  0  0  0  0  0  0
   -6.2790   20.1300  -33.8700 F   0  0  0  0  0  0  0  0  0  0  0  0
   -4.8050   18.6270  -34.6710 F   0  0  0  0  0  0  0  0  0  0  0  0
   -4.3570   20.9350  -31.8520 C   0  0  0  0  0  0  0  0  0  0  0  0
   -5.3832   21.1447  -31.5160 H   0  0  0  0  0  0  0  0  0  0  0  0
   -3.2630   21.5730  -31.2570 C   0  0  0  0  0  0  0  0  0  0  0  0
   -3.2730   22.5050  -30.2800 N   0  0  0  0  0  0  0  0  0  0  0  0
   -4.4400   23.0710  -29.6660 C   0  0  0  0  0  0  0  0  0  0  0  0
   -4.6600   22.8460  -28.4450 O   0  0  0  0  0  0  0  0  0  0  0  0
   -5.4070   23.8650  -30.4720 C   0  0  0  0  0  0  0  0  0  0  0  0
   -5.0990   25.0990  -30.9080 C   0  0  0  0  0  0  0  0  0  0  0  0
   -5.8533   25.6721  -31.4671 H   0  0  0  0  0  0  0  0  0  0  0  0
   -3.8540   25.6710  -30.6720 O   0  0  0  0  0  0  0  0  0  0  0  0
   -6.7000   23.3050  -30.7840 N   0  0  0  0  0  0  0  0  0  0  0  0
   -7.1660   23.2540  -32.1730 C   0  0  0  0  0  0  0  0  0  0  0  0
   -8.2594   23.1343  -32.1888 H   0  0  0  0  0  0  0  0  0  0  0  0
   -6.8919   24.1875  -32.6862 H   0  0  0  0  0  0  0  0  0  0  0  0
   -6.6964   22.4019  -32.6862 H   0  0  0  0  0  0  0  0  0  0  0  0
   -7.5050   22.6640  -29.7430 C   0  0  0  0  0  0  0  0  0  0  0  0
   -7.1297   22.9629  -28.7532 H   0  0  0  0  0  0  0  0  0  0  0  0
   -8.5546   22.9763  -29.8468 H   0  0  0  0  0  0  0  0  0  0  0  0
   -7.4357   21.5711  -29.8468 H   0  0  0  0  0  0  0  0  0  0  0  0
  1  2  1  0
  2  3  1  0
  3  4  2  0
  3  5  1  0
  5  6  2  0
  6  7  1  0
  6  8  1  0
  8  9  2  0
  9 10  1  0
  9 11  1  0
 11 12  1  0
 11 13  2  0
 13 14  1  0
 14 15  1  0
 14 16  1  0
 14 17  1  0
 13 18  1  0
 18 19  1  0
 18 20  2  0
 20 21  1  0
 21 22  1  0
 22 23  2  0
 22 24  1  0
 24 25  2  0
 25 26  1  0
 25 27  1  0
 24 28  1  0
 28 29  1  0
 29 30  1  0
 29 31  1  0
 29 32  1  0
 28 33  1  0
 33 34  1  0
 33 35  1  0
 33 36  1  0
 21  5  1  0
 20  8  1  0
M  CHG  2   2  -1  27  -1
M  END
>  <UniqueID>  (43) 
42

>  <SMILES>  (43) 
CN(C)/C(=C/[O-])C(=O)n1c(C([NH-])=O)cc2ccc(C(F)(F)F)cc21

>  <Energy>  (43) 
78.77816033364186

>  <Genealogy>  (43) 
CN(C)/C(=C/[O-])C(=O)n1c(C([NH-])=O)cc2ccc(C(F)(F)F)cc21 (protonated)
CN(C)/C(=C/[O-])C(=O)n1c(C([NH-])=O)cc2ccc(C(F)(F)F)cc21 (cis-trans isomerization)
CN(C)/C(=C/[O-])C(=O)n1c(C([NH-])=O)cc2ccc(C(F)(F)F)cc21 (3D coordinates assigned)
CN(C)/C(=C/[O-])C(=O)n1c(C([NH-])=O)cc2ccc(C(F)(F)F)cc21 (optimized conformer: 78.77816033364186 kcal/mol)

>  <smiles>  (43) 
CN(C)/C(=C/O)C(=O)n1c(C(N)=O)cc2ccc(C(F)(F)F)cc21

>  <score_type>  (43) 
oracle

>  <origin>  (43) 
adg

>  <m_score__min__energy>  (43) 
-11.59

>  <m_primary>  (43) 
energy

$$$$
43:0
     RDKit          3D

 40 41  0  0  0  0  0  0  0  0999 V2000
   -0.8630   26.9050  -27.8370 C   0  0  0  0  0  0  0  0  0  0  0  0
   -1.1240   25.9170  -28.8270 O   0  0  0  0  0  0  0  0  0  0  0  0
   -0.6050   24.6210  -28.7560 C   0  0  0  0  0  0  0  0  0  0  0  0
    0.2740   24.3360  -27.8970 O   0  0  0  0  0  0  0  0  0  0  0  0
   -1.0840   23.6280  -29.6720 N   0  0  0  0  0  0  0  0  0  0  0  0
   -0.6250   22.2700  -29.7050 C   0  0  0  0  0  0  0  0  0  0  0  0
    0.2280   21.8580  -28.8710 O   0  0  0  0  0  0  0  0  0  0  0  0
   -1.1320   21.4060  -30.6810 O   0  0  0  0  0  0  0  0  0  0  0  0
   -1.8860   21.8600  -31.8030 C   0  0  0  0  0  0  0  0  0  0  0  0
   -3.1010   22.4650  -31.3700 O   0  0  0  0  0  0  0  0  0  0  0  0
   -4.2820   22.4170  -32.1180 C   0  0  0  0  0  0  0  0  0  0  0  0
   -4.2520   22.0880  -33.3350 O   0  0  0  0  0  0  0  0  0  0  0  0
   -5.5370   22.7300  -31.4930 N   0  0  0  0  0  0  0  0  0  0  0  0
   -5.8310   23.8150  -30.7220 C   0  0  0  0  0  0  0  0  0  0  0  0
   -4.9540   24.9830  -30.5050 C   0  0  0  0  0  0  0  0  0  0  0  0
   -3.6550   24.8370  -29.9300 N   0  0  0  0  0  0  0  0  0  0  0  0
   -5.3370   26.1220  -30.8840 O   0  0  0  0  0  0  0  0  0  0  0  0
   -7.1160   23.7100  -30.1970 C   0  0  0  0  0  0  0  0  0  0  0  0
   -7.6130   22.5230  -30.6870 C   0  0  0  0  0  0  0  0  0  0  0  0
   -8.8460   21.9150  -30.4750 C   0  0  0  0  0  0  0  0  0  0  0  0
   -9.0790   20.6680  -31.0800 C   0  0  0  0  0  0  0  0  0  0  0  0
   -8.0780   20.0540  -31.8740 C   0  0  0  0  0  0  0  0  0  0  0  0
   -8.3230   18.7120  -32.5030 C   0  0  0  0  0  0  0  0  0  0  0  0
   -9.5730   18.6940  -33.0940 F   0  0  0  0  0  0  0  0  0  0  0  0
   -7.3600   18.4660  -33.4640 F   0  0  0  0  0  0  0  0  0  0  0  0
   -6.8370   20.7000  -32.0630 C   0  0  0  0  0  0  0  0  0  0  0  0
   -6.6400   21.9510  -31.4650 C   0  0  0  0  0  0  0  0  0  0  0  0
   -0.9800   26.4619  -26.8370 H   0  0  0  0  0  0  0  0  0  0  0  0
    0.1648   27.2791  -27.9543 H   0  0  0  0  0  0  0  0  0  0  0  0
   -1.5719   27.7379  -27.9543 H   0  0  0  0  0  0  0  0  0  0  0  0
   -1.8030   23.9160  -30.3730 H   0  0  0  0  0  0  0  0  0  0  0  0
   -1.2933   22.5974  -32.3642 H   0  0  0  0  0  0  0  0  0  0  0  0
   -2.1239   20.9998  -32.4460 H   0  0  0  0  0  0  0  0  0  0  0  0
   -3.0670   25.6790  -29.7450 H   0  0  0  0  0  0  0  0  0  0  0  0
   -3.2390   23.8930  -29.7710 H   0  0  0  0  0  0  0  0  0  0  0  0
   -7.6257   24.4232  -29.5324 H   0  0  0  0  0  0  0  0  0  0  0  0
   -9.6153   22.3956  -29.8527 H   0  0  0  0  0  0  0  0  0  0  0  0
  -10.0462   20.1643  -30.9362 H   0  0  0  0  0  0  0  0  0  0  0  0
   -8.2740   17.9357  -31.7252 H   0  0  0  0  0  0  0  0  0  0  0  0
   -6.0442   20.2322  -32.6652 H   0  0  0  0  0  0  0  0  0  0  0  0
  1  2  1  0
  2  3  1  0
  3  4  2  0
  3  5  1  0
  5  6  1  0
  6  7  2  0
  6  8  1  0
  8  9  1  0
  9 10  1  0
 10 11  1  0
 11 12  2  0
 11 13  1  0
 13 14  1  0
 14 15  1  0
 15 16  1  0
 15 17  2  0
 14 18  2  0
 18 19  1  0
 19 20  2  0
 20 21  1  0
 21 22  2  0
 22 23  1  0
 23 24  1  0
 23 25  1  0
 22 26  1  0
 26 27  2  0
 27 13  1  0
 27 19  1  0
  1 28  1  0
  1 29  1  0
  1 30  1  0
  5 31  1  0
  9 32  1  0
  9 33  1  0
 16 34  1  0
 16 35  1  0
 18 36  1  0
 20 37  1  0
 21 38  1  0
 23 39  1  0
 26 40  1  0
M  END
>  <UniqueID>  (44) 
43

>  <SMILES>  (44) 
COC(=O)NC(=O)OCOC(=O)n1c(C(N)=O)cc2ccc(C(F)F)cc21

>  <Energy>  (44) 
72.53901235495711

>  <Genealogy>  (44) 
COC(=O)NC(=O)OCOC(=O)n1c(C(N)=O)cc2ccc(C(F)F)cc21 (3D coordinates assigned)
COC(=O)NC(=O)OCOC(=O)n1c(C(N)=O)cc2ccc(C(F)F)cc21 (optimized conformer: 72.53901235495711 kcal/mol)

>  <smiles>  (44) 
COC(=O)NC(=O)OCOC(=O)n1c(C(N)=O)cc2ccc(C(F)F)cc21

>  <score_type>  (44) 
oracle

>  <origin>  (44) 
adg

>  <m_score__min__energy>  (44) 
-9.2400000000000002

>  <m_primary>  (44) 
energy

$$$$
44:0
     RDKit          3D

 50 52  0  0  0  0  0  0  0  0999 V2000
   -3.8750   25.6460  -30.8490 N   0  0  0  0  0  0  0  0  0  0  0  0
   -5.1960   25.2110  -30.5350 C   0  0  0  0  0  0  0  0  0  0  0  0
   -5.9310   25.9420  -29.8190 O   0  0  0  0  0  0  0  0  0  0  0  0
   -5.7010   23.9340  -31.0820 C   0  0  0  0  0  0  0  0  0  0  0  0
   -7.0520   23.6790  -31.3130 C   0  0  0  0  0  0  0  0  0  0  0  0
   -7.1100   22.3720  -31.7390 C   0  0  0  0  0  0  0  0  0  0  0  0
   -8.2040   21.6020  -32.1190 C   0  0  0  0  0  0  0  0  0  0  0  0
   -7.9670   20.2850  -32.5470 C   0  0  0  0  0  0  0  0  0  0  0  0
   -6.6480   19.7670  -32.6020 C   0  0  0  0  0  0  0  0  0  0  0  0
   -6.4170   18.4150  -33.0440 N   0  0  0  0  0  0  0  0  0  0  0  0
   -6.0650   18.1460  -34.4450 C   0  0  0  0  0  0  0  0  0  0  0  0
   -5.3810   16.7770  -34.5790 C   0  0  0  0  0  0  0  0  0  0  0  0
   -4.5320   16.5220  -33.3960 N   0  0  0  0  0  0  0  0  0  0  0  0
   -3.7130   15.3540  -33.6100 C   0  0  0  0  0  0  0  0  0  0  0  0
   -2.9570   14.9320  -32.6910 O   0  0  0  0  0  0  0  0  0  0  0  0
   -3.7630   14.6660  -34.8200 O   0  0  0  0  0  0  0  0  0  0  0  0
   -5.3380   16.3620  -32.1590 C   0  0  0  0  0  0  0  0  0  0  0  0
   -6.5790   17.2810  -32.1260 C   0  0  0  0  0  0  0  0  0  0  0  0
   -5.5630   20.5790  -32.1980 C   0  0  0  0  0  0  0  0  0  0  0  0
   -5.8310   21.8810  -31.7590 C   0  0  0  0  0  0  0  0  0  0  0  0
   -4.9540   22.8280  -31.3600 N   0  0  0  0  0  0  0  0  0  0  0  0
   -3.5250   22.6920  -31.3110 C   0  0  0  0  0  0  0  0  0  0  0  0
   -2.8860   23.0960  -30.3000 O   0  0  0  0  0  0  0  0  0  0  0  0
   -2.8430   22.1400  -32.4010 O   0  0  0  0  0  0  0  0  0  0  0  0
   -1.5760   21.4990  -32.2810 C   0  0  0  0  0  0  0  0  0  0  0  0
   -0.8680   21.5630  -33.5170 O   0  0  0  0  0  0  0  0  0  0  0  0
   -0.7180   20.4630  -34.3670 C   0  0  0  0  0  0  0  0  0  0  0  0
   -0.4830   20.6240  -35.5960 O   0  0  0  0  0  0  0  0  0  0  0  0
   -0.8300   19.0820  -33.8080 C   0  0  0  0  0  0  0  0  0  0  0  0
   -2.2500   18.6160  -33.8530 C   0  0  0  0  0  0  0  0  0  0  0  0
   -2.7250   18.1420  -34.9190 O   0  0  0  0  0  0  0  0  0  0  0  0
   -3.0640   18.7460  -32.7330 O   0  0  0  0  0  0  0  0  0  0  0  0
   -3.0490   25.2730  -30.3300 H   0  0  0  0  0  0  0  0  0  0  0  0
   -7.8935   24.3753  -31.1823 H   0  0  0  0  0  0  0  0  0  0  0  0
   -9.2243   22.0118  -32.0855 H   0  0  0  0  0  0  0  0  0  0  0  0
   -8.8140   19.6485  -32.8428 H   0  0  0  0  0  0  0  0  0  0  0  0
   -6.9801   18.1538  -35.0553 H   0  0  0  0  0  0  0  0  0  0  0  0
   -5.3693   18.9247  -34.7910 H   0  0  0  0  0  0  0  0  0  0  0  0
   -6.1477   15.9918  -34.6541 H   0  0  0  0  0  0  0  0  0  0  0  0
   -4.7543   16.7717  -35.4830 H   0  0  0  0  0  0  0  0  0  0  0  0
   -3.8930   17.3450  -33.2700 H   0  0  0  0  0  0  0  0  0  0  0  0
   -5.6737   15.3166  -32.0918 H   0  0  0  0  0  0  0  0  0  0  0  0
   -4.6976   16.6422  -31.3097 H   0  0  0  0  0  0  0  0  0  0  0  0
   -7.4647   16.7006  -32.4237 H   0  0  0  0  0  0  0  0  0  0  0  0
   -6.6999   17.6709  -31.1045 H   0  0  0  0  0  0  0  0  0  0  0  0
   -4.5321   20.1964  -32.2280 H   0  0  0  0  0  0  0  0  0  0  0  0
   -0.9876   22.0023  -31.4997 H   0  0  0  0  0  0  0  0  0  0  0  0
   -1.7337   20.4436  -32.0141 H   0  0  0  0  0  0  0  0  0  0  0  0
   -0.2051   18.3987  -34.4018 H   0  0  0  0  0  0  0  0  0  0  0  0
   -0.4902   19.0915  -32.7619 H   0  0  0  0  0  0  0  0  0  0  0  0
  1  2  1  0
  2  3  2  0
  2  4  1  0
  4  5  2  0
  5  6  1  0
  6  7  2  0
  7  8  1  0
  8  9  2  0
  9 10  1  0
 10 11  1  0
 11 12  1  0
 12 13  1  0
 13 14  1  0
 14 15  2  0
 14 16  1  0
 13 17  1  0
 17 18  1  0
  9 19  1  0
 19 20  2  0
 20 21  1  0
 21 22  1  0
 22 23  2  0
 22 24  1  0
 24 25  1  0
 25 26  1  0
 26 27  1  0
 27 28  2  0
 27 29  1  0
 29 30  1  0
 30 31  2  0
 30 32  1  0
 21  4  1  0
 20  6  1  0
 18 10  1  0
  1 33  1  0
  5 34  1  0
  7 35  1  0
  8 36  1  0
 11 37  1  0
 11 38  1  0
 12 39  1  0
 12 40  1  0
 13 41  1  0
 17 42  1  0
 17 43  1  0
 18 44  1  0
 18 45  1  0
 19 46  1  0
 25 47  1  0
 25 48  1  0
 29 49  1  0
 29 50  1  0
M  CHG  4   1  -1  13   1  16  -1  32  -1
M  END
>  <UniqueID>  (45) 
44

>  <SMILES>  (45) 
[NH-]C(=O)c1cc2ccc(N3CC[NH+](C(=O)[O-])CC3)cc2n1C(=O)OCOC(=O)CC(=O)[O-]

>  <Energy>  (45) 
95.22017594147923

>  <Genealogy>  (45) 
[NH-]C(=O)c1cc2ccc(N3CC[NH+](C(=O)[O-])CC3)cc2n1C(=O)OCOC(=O)CC(=O)[O-] (protonated)
[NH-]C(=O)c1cc2ccc(N3CC[NH+](C(=O)[O-])CC3)cc2n1C(=O)OCOC(=O)CC(=O)[O-] (3D coordinates assigned)
[NH-]C(=O)c1cc2ccc(N3CC[NH+](C(=O)[O-])CC3)cc2n1C(=O)OCOC(=O)CC(=O)[O-] (nonaromatic ring conformer: 95.22017594147923 kcal/mol)

>  <smiles>  (45) 
NC(=O)c1cc2ccc(N3CCN(C(=O)O)CC3)cc2n1C(=O)OCOC(=O)CC(=O)O

>  <score_type>  (45) 
oracle

>  <origin>  (45) 
adg

>  <m_score__min__energy>  (45) 
-11.460000000000001

>  <m_primary>  (45) 
energy

$$$$
45:0
     RDKit          3D

 48 49  0  0  0  0  0  0  0  0999 V2000
   -2.7320   24.3610  -28.0770 C   0  0  0  0  0  0  0  0  0  0  0  0
   -1.7050   25.0570  -28.8700 N   0  0  0  0  0  0  0  0  0  0  0  0
   -1.1020   26.1270  -28.0530 C   0  0  0  0  0  0  0  0  0  0  0  0
   -0.6840   24.0900  -29.3300 C   0  0  0  0  0  0  0  0  0  0  0  0
   -1.3100   22.7420  -29.7020 C   0  0  0  0  0  0  0  0  0  0  0  0
   -1.8590   22.7980  -31.0160 O   0  0  0  0  0  0  0  0  0  0  0  0
   -3.0750   22.1970  -31.3500 C   0  0  0  0  0  0  0  0  0  0  0  0
   -3.2320   21.6470  -32.4740 O   0  0  0  0  0  0  0  0  0  0  0  0
   -4.1740   22.1970  -30.3730 C   0  0  0  0  0  0  0  0  0  0  0  0
   -3.9540   21.8160  -29.1920 O   0  0  0  0  0  0  0  0  0  0  0  0
   -5.4910   22.6250  -30.7480 N   0  0  0  0  0  0  0  0  0  0  0  0
   -5.9610   23.9010  -30.8340 C   0  0  0  0  0  0  0  0  0  0  0  0
   -5.2270   25.1230  -30.4440 C   0  0  0  0  0  0  0  0  0  0  0  0
   -3.8680   25.3190  -30.8290 N   0  0  0  0  0  0  0  0  0  0  0  0
   -5.7980   25.9970  -29.7390 O   0  0  0  0  0  0  0  0  0  0  0  0
   -7.2770   23.9040  -31.2960 C   0  0  0  0  0  0  0  0  0  0  0  0
   -7.5980   22.5800  -31.4930 C   0  0  0  0  0  0  0  0  0  0  0  0
   -8.7790   22.0010  -31.9510 C   0  0  0  0  0  0  0  0  0  0  0  0
   -8.8200   20.6010  -32.0730 C   0  0  0  0  0  0  0  0  0  0  0  0
   -7.6870   19.8140  -31.7510 C   0  0  0  0  0  0  0  0  0  0  0  0
   -7.7520   18.3130  -31.8680 C   0  0  0  0  0  0  0  0  0  0  0  0
   -7.2350   17.8110  -33.2220 C   0  0  0  0  0  0  0  0  0  0  0  0
   -5.5210   18.3420  -33.5590 P   0  0  1  0  0  0  0  0  0  0  0  0
   -4.6480   18.0610  -32.3560 O   0  0  0  0  0  0  0  0  0  0  0  0
   -4.9120   17.5150  -34.9020 O   0  0  0  0  0  0  0  0  0  0  0  0
   -5.5080   20.0030  -33.8790 O   0  0  0  0  0  0  0  0  0  0  0  0
   -6.5050   20.4380  -31.2950 C   0  0  0  0  0  0  0  0  0  0  0  0
   -6.5010   21.8300  -31.1600 C   0  0  0  0  0  0  0  0  0  0  0  0
   -2.5254   24.5010  -27.0057 H   0  0  0  0  0  0  0  0  0  0  0  0
   -3.7228   24.7745  -28.3164 H   0  0  0  0  0  0  0  0  0  0  0  0
   -2.7151   23.2875  -28.3164 H   0  0  0  0  0  0  0  0  0  0  0  0
   -1.2341   25.8926  -26.9864 H   0  0  0  0  0  0  0  0  0  0  0  0
   -0.0287   26.2022  -28.2817 H   0  0  0  0  0  0  0  0  0  0  0  0
   -1.5936   27.0841  -28.2817 H   0  0  0  0  0  0  0  0  0  0  0  0
   -0.1741   24.5025  -30.2131 H   0  0  0  0  0  0  0  0  0  0  0  0
    0.0271   23.9235  -28.5074 H   0  0  0  0  0  0  0  0  0  0  0  0
   -0.5371   21.9602  -29.6646 H   0  0  0  0  0  0  0  0  0  0  0  0
   -2.1140   22.5112  -28.9876 H   0  0  0  0  0  0  0  0  0  0  0  0
   -3.1170   24.6730  -30.4970 H   0  0  0  0  0  0  0  0  0  0  0  0
   -7.9216   24.7788  -31.4667 H   0  0  0  0  0  0  0  0  0  0  0  0
   -9.6515   22.6192  -32.2090 H   0  0  0  0  0  0  0  0  0  0  0  0
   -9.7413   20.1117  -32.4221 H   0  0  0  0  0  0  0  0  0  0  0  0
   -7.1398   17.8692  -31.0691 H   0  0  0  0  0  0  0  0  0  0  0  0
   -8.8069   18.0142  -31.7792 H   0  0  0  0  0  0  0  0  0  0  0  0
   -7.2708   16.7116  -33.2273 H   0  0  0  0  0  0  0  0  0  0  0  0
   -7.8773   18.2413  -34.0045 H   0  0  0  0  0  0  0  0  0  0  0  0
   -4.7310   20.3510  -33.3720 H   0  0  0  0  0  0  0  0  0  0  0  0
   -5.6110   19.8448  -31.0524 H   0  0  0  0  0  0  0  0  0  0  0  0
  1  2  1  0
  2  3  1  0
  2  4  1  0
  4  5  1  0
  5  6  1  0
  6  7  1  0
  7  8  2  0
  7  9  1  0
  9 10  2  0
  9 11  1  0
 11 12  1  0
 12 13  1  0
 13 14  1  0
 13 15  2  0
 12 16  2  0
 16 17  1  0
 17 18  2  0
 18 19  1  0
 19 20  2  0
 20 21  1  0
 21 22  1  0
 22 23  1  0
 23 24  2  0
 23 25  1  6
 23 26  1  0
 20 27  1  0
 27 28  2  0
 28 11  1  0
 28 17  1  0
  1 29  1  0
  1 30  1  0
  1 31  1  0
  3 32  1  0
  3 33  1  0
  3 34  1  0
  4 35  1  0
  4 36  1  0
  5 37  1  0
  5 38  1  0
 14 39  1  0
 16 40  1  0
 18 41  1  0
 19 42  1  0
 21 43  1  0
 21 44  1  0
 22 45  1  0
 22 46  1  0
 26 47  1  0
 27 48  1  0
M  CHG  2  14  -1  25  -1
M  END
>  <UniqueID>  (46) 
45

>  <SMILES>  (46) 
CN(C)CCOC(=O)C(=O)n1c(C([NH-])=O)cc2ccc(CC[P@@](=O)([O-])O)cc21

>  <Energy>  (46) 
76.31987719416125

>  <Genealogy>  (46) 
CN(C)CCOC(=O)C(=O)n1c(C([NH-])=O)cc2ccc(CCP(=O)([O-])O)cc21 (protonated)
CN(C)CCOC(=O)C(=O)n1c(C([NH-])=O)cc2ccc(CC[P@@](=O)([O-])O)cc21 (chirality)
CN(C)CCOC(=O)C(=O)n1c(C([NH-])=O)cc2ccc(CC[P@@](=O)([O-])O)cc21 (3D coordinates assigned)
CN(C)CCOC(=O)C(=O)n1c(C([NH-])=O)cc2ccc(CC[P@@](=O)([O-])O)cc21 (optimized conformer: 76.31987719416125 kcal/mol)

>  <smiles>  (46) 
CN(C)CCOC(=O)C(=O)n1c(C(N)=O)cc2ccc(CCP(=O)(O)O)cc21

>  <score_type>  (46) 
oracle

>  <origin>  (46) 
adg

>  <m_score__min__energy>  (46) 
-10.43

>  <m_primary>  (46) 
energy

$$$$
46:0
     RDKit          3D

 42 43  0  0  0  0  0  0  0  0999 V2000
   -2.3820   21.1110  -29.5220 C   0  0  0  0  0  0  0  0  0  0  0  0
   -3.3270   22.2320  -29.5610 N   0  0  0  0  0  0  0  0  0  0  0  0
   -3.6290   22.9430  -28.3420 C   0  0  0  0  0  0  0  0  0  0  0  0
   -4.3500   22.4060  -27.4570 O   0  0  0  0  0  0  0  0  0  0  0  0
   -3.1050   24.2570  -28.1240 N   0  0  0  0  0  0  0  0  0  0  0  0
   -1.8180   24.5110  -27.4970 C   0  0  0  0  0  0  0  0  0  0  0  0
   -0.8750   25.0480  -28.5210 C   0  0  0  0  0  0  0  0  0  0  0  0
   -1.2290   25.9890  -29.2780 O   0  0  0  0  0  0  0  0  0  0  0  0
    0.4190   24.5490  -28.6010 O   0  0  0  0  0  0  0  0  0  0  0  0
   -3.8260   22.6920  -30.8350 C   0  0  0  0  0  0  0  0  0  0  0  0
   -3.0210   22.9290  -31.7750 O   0  0  0  0  0  0  0  0  0  0  0  0
   -5.2380   22.8520  -31.0620 N   0  0  0  0  0  0  0  0  0  0  0  0
   -5.9870   23.9780  -30.9030 C   0  0  0  0  0  0  0  0  0  0  0  0
   -5.5050   25.2700  -30.3720 C   0  0  0  0  0  0  0  0  0  0  0  0
   -4.1470   25.6590  -30.5760 N   0  0  0  0  0  0  0  0  0  0  0  0
   -6.2820   26.0470  -29.7580 O   0  0  0  0  0  0  0  0  0  0  0  0
   -7.3180   23.7280  -31.2310 C   0  0  0  0  0  0  0  0  0  0  0  0
   -7.3600   22.4010  -31.5950 C   0  0  0  0  0  0  0  0  0  0  0  0
   -8.4330   21.6170  -31.9980 C   0  0  0  0  0  0  0  0  0  0  0  0
   -8.1870   20.2690  -32.3090 C   0  0  0  0  0  0  0  0  0  0  0  0
   -6.8740   19.7220  -32.2230 C   0  0  0  0  0  0  0  0  0  0  0  0
   -6.6280   18.3290  -32.5460 N   0  0  0  0  0  0  0  0  0  0  0  0
   -6.5030   17.8990  -33.9450 C   0  0  0  0  0  0  0  0  0  0  0  0
   -6.4950   17.3280  -31.4800 C   0  0  0  0  0  0  0  0  0  0  0  0
   -5.8110   20.5660  -31.8100 C   0  0  0  0  0  0  0  0  0  0  0  0
   -6.0930   21.8970  -31.4900 C   0  0  0  0  0  0  0  0  0  0  0  0
   -2.1635   20.8518  -28.4755 H   0  0  0  0  0  0  0  0  0  0  0  0
   -2.8236   20.2413  -30.0306 H   0  0  0  0  0  0  0  0  0  0  0  0
   -1.4502   21.3991  -30.0306 H   0  0  0  0  0  0  0  0  0  0  0  0
   -1.9409   25.2459  -26.6877 H   0  0  0  0  0  0  0  0  0  0  0  0
   -1.4181   23.5757  -27.0784 H   0  0  0  0  0  0  0  0  0  0  0  0
   -3.4710   25.6830  -29.7810 H   0  0  0  0  0  0  0  0  0  0  0  0
   -8.1566   24.4394  -31.2047 H   0  0  0  0  0  0  0  0  0  0  0  0
   -9.4462   22.0390  -32.0716 H   0  0  0  0  0  0  0  0  0  0  0  0
   -9.0216   19.6254  -32.6240 H   0  0  0  0  0  0  0  0  0  0  0  0
   -6.1961   16.8432  -33.9781 H   0  0  0  0  0  0  0  0  0  0  0  0
   -7.4721   18.0152  -34.4523 H   0  0  0  0  0  0  0  0  0  0  0  0
   -5.7472   18.5166  -34.4523 H   0  0  0  0  0  0  0  0  0  0  0  0
   -6.5610   17.8244  -30.5006 H   0  0  0  0  0  0  0  0  0  0  0  0
   -7.3025   16.5866  -31.5704 H   0  0  0  0  0  0  0  0  0  0  0  0
   -5.5219   16.8232  -31.5704 H   0  0  0  0  0  0  0  0  0  0  0  0
   -4.7832   20.1797  -31.7428 H   0  0  0  0  0  0  0  0  0  0  0  0
  1  2  1  0
  2  3  1  0
  3  4  2  0
  3  5  1  0
  5  6  1  0
  6  7  1  0
  7  8  2  0
  7  9  1  0
  2 10  1  0
 10 11  2  0
 10 12  1  0
 12 13  1  0
 13 14  1  0
 14 15  1  0
 14 16  2  0
 13 17  2  0
 17 18  1  0
 18 19  2  0
 19 20  1  0
 20 21  2  0
 21 22  1  0
 22 23  1  0
 22 24  1  0
 21 25  1  0
 25 26  2  0
 26 12  1  0
 26 18  1  0
  1 27  1  0
  1 28  1  0
  1 29  1  0
  6 30  1  0
  6 31  1  0
 15 32  1  0
 17 33  1  0
 19 34  1  0
 20 35  1  0
 23 36  1  0
 23 37  1  0
 23 38  1  0
 24 39  1  0
 24 40  1  0
 24 41  1  0
 25 42  1  0
M  CHG  3   5  -1   9  -1  15  -1
M  END
>  <UniqueID>  (47) 
46

>  <SMILES>  (47) 
CN(C(=O)[N-]CC(=O)[O-])C(=O)n1c(C([NH-])=O)cc2ccc(N(C)C)cc21

>  <Energy>  (47) 
78.33257487056031

>  <Genealogy>  (47) 
CN(C(=O)[N-]CC(=O)[O-])C(=O)n1c(C([NH-])=O)cc2ccc(N(C)C)cc21 (protonated)
CN(C(=O)[N-]CC(=O)[O-])C(=O)n1c(C([NH-])=O)cc2ccc(N(C)C)cc21 (3D coordinates assigned)
CN(C(=O)[N-]CC(=O)[O-])C(=O)n1c(C([NH-])=O)cc2ccc(N(C)C)cc21 (optimized conformer: 78.33257487056031 kcal/mol)

>  <smiles>  (47) 
CN(C(=O)NCC(=O)O)C(=O)n1c(C(N)=O)cc2ccc(N(C)C)cc21

>  <score_type>  (47) 
oracle

>  <origin>  (47) 
adg

>  <m_score__min__energy>  (47) 
-12.84

>  <m_primary>  (47) 
energy

$$$$
47:0
     RDKit          3D

 36 38  0  0  0  0  0  0  0  0999 V2000
   -4.4470   14.9840  -33.4430 N   0  0  0  0  0  0  0  0  0  0  0  0
   -5.3290   15.6600  -33.7650 C   0  0  0  0  0  0  0  0  0  0  0  0
   -6.4510   16.5200  -34.1770 C   0  0  0  0  0  0  0  0  0  0  0  0
   -7.2010   17.1140  -33.0240 C   0  0  0  0  0  0  0  0  0  0  0  0
   -6.8010   18.5110  -33.2820 N   0  0  0  0  0  0  0  0  0  0  0  0
   -7.0330   19.7980  -32.7080 C   0  0  0  0  0  0  0  0  0  0  0  0
   -8.3540   20.2300  -32.4530 C   0  0  0  0  0  0  0  0  0  0  0  0
   -8.5950   21.4890  -31.8760 C   0  0  0  0  0  0  0  0  0  0  0  0
   -7.4950   22.2890  -31.5770 C   0  0  0  0  0  0  0  0  0  0  0  0
   -7.4400   23.5300  -30.9850 C   0  0  0  0  0  0  0  0  0  0  0  0
   -6.0860   23.8450  -30.9170 C   0  0  0  0  0  0  0  0  0  0  0  0
   -5.5760   25.1300  -30.4000 C   0  0  0  0  0  0  0  0  0  0  0  0
   -4.2210   25.5290  -30.6100 N   0  0  0  0  0  0  0  0  0  0  0  0
   -6.3650   25.9150  -29.8080 O   0  0  0  0  0  0  0  0  0  0  0  0
   -5.3290   22.8360  -31.4340 N   0  0  0  0  0  0  0  0  0  0  0  0
   -3.8960   22.7320  -31.4430 C   0  0  0  0  0  0  0  0  0  0  0  0
   -3.2380   23.0300  -30.4080 O   0  0  0  0  0  0  0  0  0  0  0  0
   -3.2360   22.3010  -32.5990 O   0  0  0  0  0  0  0  0  0  0  0  0
   -2.5780   21.0420  -32.6970 C   0  0  0  0  0  0  0  0  0  0  0  0
   -1.2950   21.2150  -33.1820 F   0  0  0  0  0  0  0  0  0  0  0  0
   -3.2850   20.2040  -33.5390 F   0  0  0  0  0  0  0  0  0  0  0  0
   -2.5120   20.4690  -31.4410 F   0  0  0  0  0  0  0  0  0  0  0  0
   -6.2080   21.8900  -31.8360 C   0  0  0  0  0  0  0  0  0  0  0  0
   -5.9410   20.6320  -32.3900 C   0  0  0  0  0  0  0  0  0  0  0  0
   -6.0530   17.9430  -34.4190 C   0  0  0  0  0  0  0  0  0  0  0  0
   -6.9028   15.8664  -34.9377 H   0  0  0  0  0  0  0  0  0  0  0  0
   -8.2878   16.9622  -33.1007 H   0  0  0  0  0  0  0  0  0  0  0  0
   -6.9877   16.7077  -32.0243 H   0  0  0  0  0  0  0  0  0  0  0  0
   -9.2007   19.5758  -32.7081 H   0  0  0  0  0  0  0  0  0  0  0  0
   -9.6194   21.8312  -31.6674 H   0  0  0  0  0  0  0  0  0  0  0  0
   -8.2858   24.1425  -30.6392 H   0  0  0  0  0  0  0  0  0  0  0  0
   -3.5910   24.9860  -31.2410 H   0  0  0  0  0  0  0  0  0  0  0  0
   -3.8680   26.4230  -30.2030 H   0  0  0  0  0  0  0  0  0  0  0  0
   -4.9073   20.3031  -32.5723 H   0  0  0  0  0  0  0  0  0  0  0  0
   -6.4038   18.3226  -35.3900 H   0  0  0  0  0  0  0  0  0  0  0  0
   -4.9758   18.1602  -34.4682 H   0  0  0  0  0  0  0  0  0  0  0  0
  1  2  3  0
  2  3  1  0
  3  4  1  0
  4  5  1  0
  5  6  1  0
  6  7  2  0
  7  8  1  0
  8  9  2  0
  9 10  1  0
 10 11  2  0
 11 12  1  0
 12 13  1  0
 12 14  2  0
 11 15  1  0
 15 16  1  0
 16 17  2  0
 16 18  1  0
 18 19  1  0
 19 20  1  0
 19 21  1  0
 19 22  1  0
 15 23  1  0
 23 24  2  0
  5 25  1  0
 25  3  1  0
 24  6  1  0
 23  9  1  0
  3 26  1  0
  4 27  1  0
  4 28  1  0
  7 29  1  0
  8 30  1  0
 10 31  1  0
 13 32  1  0
 13 33  1  0
 24 34  1  0
 25 35  1  0
 25 36  1  0
M  END
>  <UniqueID>  (48) 
47

>  <SMILES>  (48) 
N#CC1CN(c2ccc3cc(C(N)=O)n(C(=O)OC(F)(F)F)c3c2)C1

>  <Energy>  (48) 
118.77789181934615

>  <Genealogy>  (48) 
N#CC1CN(c2ccc3cc(C(N)=O)n(C(=O)OC(F)(F)F)c3c2)C1 (3D coordinates assigned)
N#CC1CN(c2ccc3cc(C(N)=O)n(C(=O)OC(F)(F)F)c3c2)C1 (nonaromatic ring conformer: 118.77789181934615 kcal/mol)

>  <smiles>  (48) 
N#CC1CN(c2ccc3cc(C(N)=O)n(C(=O)OC(F)(F)F)c3c2)C1

>  <score_type>  (48) 
oracle

>  <origin>  (48) 
adg

>  <m_score__min__energy>  (48) 
-8.9299999999999997

>  <m_primary>  (48) 
energy

$$$$
48:0
     RDKit          3D

 52 54  0  0  0  0  0  0  0  0999 V2000
   -3.8550   21.9450  -33.0320 C   0  0  0  0  0  0  0  0  0  0  0  0
   -3.5040   21.8080  -31.6130 N   0  0  0  0  0  0  0  0  0  0  0  0
   -2.1650   21.4200  -31.2380 C   0  0  0  0  0  0  0  0  0  0  0  0
   -1.7690   20.2420  -31.4500 O   0  0  0  0  0  0  0  0  0  0  0  0
   -1.2110   22.3970  -30.5990 C   0  0  0  0  0  0  0  0  0  0  0  0
   -1.7770   22.9660  -29.2920 C   0  0  0  0  0  0  0  0  0  0  0  0
   -1.4820   24.4280  -29.1570 C   0  0  0  0  0  0  0  0  0  0  0  0
   -2.3930   25.2780  -29.3410 O   0  0  0  0  0  0  0  0  0  0  0  0
   -0.1890   24.8540  -28.8690 O   0  0  0  0  0  0  0  0  0  0  0  0
   -4.5110   22.0420  -30.6050 C   0  0  0  0  0  0  0  0  0  0  0  0
   -4.2490   21.8580  -29.3850 O   0  0  0  0  0  0  0  0  0  0  0  0
   -5.8260   22.4890  -30.9740 N   0  0  0  0  0  0  0  0  0  0  0  0
   -6.3770   23.7160  -30.7580 C   0  0  0  0  0  0  0  0  0  0  0  0
   -5.6730   24.8960  -30.2130 C   0  0  0  0  0  0  0  0  0  0  0  0
   -4.8340   24.7990  -29.0600 N   0  0  0  0  0  0  0  0  0  0  0  0
   -5.7830   26.0040  -30.8030 O   0  0  0  0  0  0  0  0  0  0  0  0
   -7.7220   23.7160  -31.1210 C   0  0  0  0  0  0  0  0  0  0  0  0
   -7.9790   22.4390  -31.5660 C   0  0  0  0  0  0  0  0  0  0  0  0
   -9.1630   21.8670  -32.0170 C   0  0  0  0  0  0  0  0  0  0  0  0
   -9.1530   20.5040  -32.3570 C   0  0  0  0  0  0  0  0  0  0  0  0
   -7.9660   19.7270  -32.2260 C   0  0  0  0  0  0  0  0  0  0  0  0
   -7.9140   18.3170  -32.5460 N   0  0  0  0  0  0  0  0  0  0  0  0
   -6.7750   17.5510  -33.0750 C   0  0  0  0  0  0  0  0  0  0  0  0
   -6.1170   18.2120  -34.2840 C   0  0  0  0  0  0  0  0  0  0  0  0
   -4.6490   17.8280  -34.1950 C   0  0  0  0  0  0  0  0  0  0  0  0
   -4.3500   17.6110  -32.7160 C   0  0  0  0  0  0  0  0  0  0  0  0
   -5.6800   17.2930  -32.0350 C   0  0  0  0  0  0  0  0  0  0  0  0
   -6.7870   20.3530  -31.7610 C   0  0  0  0  0  0  0  0  0  0  0  0
   -6.8220   21.7170  -31.4580 C   0  0  0  0  0  0  0  0  0  0  0  0
   -4.8764   22.3437  -33.1202 H   0  0  0  0  0  0  0  0  0  0  0  0
   -3.1492   22.6337  -33.5195 H   0  0  0  0  0  0  0  0  0  0  0  0
   -3.8023   20.9603  -33.5195 H   0  0  0  0  0  0  0  0  0  0  0  0
   -0.2635   21.8815  -30.3832 H   0  0  0  0  0  0  0  0  0  0  0  0
   -1.0538   23.2316  -31.2980 H   0  0  0  0  0  0  0  0  0  0  0  0
   -2.8670   22.8187  -29.2804 H   0  0  0  0  0  0  0  0  0  0  0  0
   -1.3018   22.4389  -28.4516 H   0  0  0  0  0  0  0  0  0  0  0  0
   -4.4150   25.6620  -28.6460 H   0  0  0  0  0  0  0  0  0  0  0  0
   -4.5460   23.8740  -28.6720 H   0  0  0  0  0  0  0  0  0  0  0  0
   -8.4283   24.5574  -31.0641 H   0  0  0  0  0  0  0  0  0  0  0  0
  -10.0821   22.4650  -32.1052 H   0  0  0  0  0  0  0  0  0  0  0  0
  -10.0735   20.0305  -32.7292 H   0  0  0  0  0  0  0  0  0  0  0  0
   -8.7870   17.7640  -32.3900 H   0  0  0  0  0  0  0  0  0  0  0  0
   -7.2274   16.5944  -33.3755 H   0  0  0  0  0  0  0  0  0  0  0  0
   -6.5588   17.8352  -35.2182 H   0  0  0  0  0  0  0  0  0  0  0  0
   -6.2584   19.3029  -34.2851 H   0  0  0  0  0  0  0  0  0  0  0  0
   -4.4627   16.9031  -34.7605 H   0  0  0  0  0  0  0  0  0  0  0  0
   -4.0052   18.6115  -34.6213 H   0  0  0  0  0  0  0  0  0  0  0  0
   -3.6509   16.7710  -32.5909 H   0  0  0  0  0  0  0  0  0  0  0  0
   -3.8855   18.5046  -32.2735 H   0  0  0  0  0  0  0  0  0  0  0  0
   -5.7007   16.2409  -31.7147 H   0  0  0  0  0  0  0  0  0  0  0  0
   -5.8272   17.9156  -31.1402 H   0  0  0  0  0  0  0  0  0  0  0  0
   -5.8580   19.7766  -31.6397 H   0  0  0  0  0  0  0  0  0  0  0  0
  1  2  1  0
  2  3  1  0
  3  4  2  0
  3  5  1  0
  5  6  1  0
  6  7  1  0
  7  8  2  0
  7  9  1  0
  2 10  1  0
 10 11  2  0
 10 12  1  0
 12 13  1  0
 13 14  1  0
 14 15  1  0
 14 16  2  0
 13 17  2  0
 17 18  1  0
 18 19  2  0
 19 20  1  0
 20 21  2  0
 21 22  1  0
 22 23  1  0
 23 24  1  0
 24 25  1  0
 25 26  1  0
 26 27  1  0
 21 28  1  0
 28 29  2  0
 29 12  1  0
 29 18  1  0
 27 23  1  0
  1 30  1  0
  1 31  1  0
  1 32  1  0
  5 33  1  0
  5 34  1  0
  6 35  1  0
  6 36  1  0
 15 37  1  0
 15 38  1  0
 17 39  1  0
 19 40  1  0
 20 41  1  0
 22 42  1  0
 23 43  1  0
 24 44  1  0
 24 45  1  0
 25 46  1  0
 25 47  1  0
 26 48  1  0
 26 49  1  0
 27 50  1  0
 27 51  1  0
 28 52  1  0
M  CHG  1   9  -1
M  END
>  <UniqueID>  (49) 
48

>  <SMILES>  (49) 
CN(C(=O)CCC(=O)[O-])C(=O)n1c(C(N)=O)cc2ccc(NC3CCCC3)cc21

>  <Energy>  (49) 
95.51901037918977

>  <Genealogy>  (49) 
CN(C(=O)CCC(=O)[O-])C(=O)n1c(C(N)=O)cc2ccc(NC3CCCC3)cc21 (protonated)
CN(C(=O)CCC(=O)[O-])C(=O)n1c(C(N)=O)cc2ccc(NC3CCCC3)cc21 (3D coordinates assigned)
CN(C(=O)CCC(=O)[O-])C(=O)n1c(C(N)=O)cc2ccc(NC3CCCC3)cc21 (nonaromatic ring conformer: 95.51901037918977 kcal/mol)

>  <smiles>  (49) 
CN(C(=O)CCC(=O)O)C(=O)n1c(C(N)=O)cc2ccc(NC3CCCC3)cc21

>  <score_type>  (49) 
oracle

>  <origin>  (49) 
adg

>  <m_score__min__energy>  (49) 
-12.300000000000001

>  <m_primary>  (49) 
energy

$$$$
49:0
     RDKit          3D

 53 54  0  0  0  0  0  0  0  0999 V2000
   -5.2260   15.2210  -34.2050 C   0  0  0  0  0  0  0  0  0  0  0  0
   -5.4710   16.6030  -33.7500 N   0  0  0  0  0  0  0  0  0  0  0  0
   -5.1750   16.7240  -32.3020 C   0  0  0  0  0  0  0  0  0  0  0  0
   -6.2290   17.5890  -31.5760 C   0  0  0  0  0  0  0  0  0  0  0  0
   -7.1960   18.3320  -32.5170 C   0  0  0  0  0  0  0  0  0  0  0  0
   -7.3720   19.7800  -32.1290 C   0  0  0  0  0  0  0  0  0  0  0  0
   -8.6490   20.3920  -32.2170 C   0  0  0  0  0  0  0  0  0  0  0  0
   -8.8150   21.7500  -31.9000 C   0  0  0  0  0  0  0  0  0  0  0  0
   -7.6940   22.4650  -31.4890 C   0  0  0  0  0  0  0  0  0  0  0  0
   -7.5660   23.7960  -31.1620 C   0  0  0  0  0  0  0  0  0  0  0  0
   -6.2160   23.9740  -30.8570 C   0  0  0  0  0  0  0  0  0  0  0  0
   -5.6240   25.2530  -30.4020 C   0  0  0  0  0  0  0  0  0  0  0  0
   -4.2750   25.5930  -30.7280 N   0  0  0  0  0  0  0  0  0  0  0  0
   -6.3130   26.0650  -29.7310 O   0  0  0  0  0  0  0  0  0  0  0  0
   -5.5420   22.7950  -30.9810 N   0  0  0  0  0  0  0  0  0  0  0  0
   -4.1290   22.5800  -30.8170 C   0  0  0  0  0  0  0  0  0  0  0  0
   -3.4440   22.1690  -31.7920 O   0  0  0  0  0  0  0  0  0  0  0  0
   -3.4640   22.8180  -29.4910 C   0  0  0  0  0  0  0  0  0  0  0  0
   -2.2800   23.7190  -29.6460 C   0  0  0  0  0  0  0  0  0  0  0  0
   -1.1580   23.2420  -29.9620 O   0  0  0  0  0  0  0  0  0  0  0  0
   -2.4100   25.0850  -29.4220 O   0  0  0  0  0  0  0  0  0  0  0  0
   -6.4580   21.8830  -31.3740 C   0  0  0  0  0  0  0  0  0  0  0  0
   -6.2580   20.5380  -31.7050 C   0  0  0  0  0  0  0  0  0  0  0  0
   -4.7020   17.5680  -34.5750 C   0  0  0  0  0  0  0  0  0  0  0  0
   -3.3490   17.8700  -33.9230 C   0  0  0  0  0  0  0  0  0  0  0  0
   -3.2550   19.5520  -33.3220 S   0  0  0  0  0  0  0  0  0  0  0  0
   -1.7590   20.3010  -33.9270 C   0  0  0  0  0  0  0  0  0  0  0  0
   -4.4370   20.3410  -33.8110 O   0  0  0  0  0  0  0  0  0  0  0  0
   -3.2340   19.5600  -31.8190 O   0  0  0  0  0  0  0  0  0  0  0  0
   -5.1093   14.5627  -33.3315 H   0  0  0  0  0  0  0  0  0  0  0  0
   -6.0774   14.8782  -34.8113 H   0  0  0  0  0  0  0  0  0  0  0  0
   -4.3087   15.1918  -34.8113 H   0  0  0  0  0  0  0  0  0  0  0  0
   -5.1679   15.7194  -31.8540 H   0  0  0  0  0  0  0  0  0  0  0  0
   -4.1949   17.2109  -32.1909 H   0  0  0  0  0  0  0  0  0  0  0  0
   -6.8214   16.9330  -30.9213 H   0  0  0  0  0  0  0  0  0  0  0  0
   -5.6753   18.3601  -31.0204 H   0  0  0  0  0  0  0  0  0  0  0  0
   -6.7982   18.2860  -33.5415 H   0  0  0  0  0  0  0  0  0  0  0  0
   -8.1784   17.8423  -32.4456 H   0  0  0  0  0  0  0  0  0  0  0  0
   -9.5173   19.7971  -32.5366 H   0  0  0  0  0  0  0  0  0  0  0  0
   -9.8003   22.2334  -31.9742 H   0  0  0  0  0  0  0  0  0  0  0  0
   -8.3595   24.5576  -31.1448 H   0  0  0  0  0  0  0  0  0  0  0  0
   -3.6460   24.9200  -31.2190 H   0  0  0  0  0  0  0  0  0  0  0  0
   -3.8800   26.5120  -30.4280 H   0  0  0  0  0  0  0  0  0  0  0  0
   -4.1853   23.2849  -28.8042 H   0  0  0  0  0  0  0  0  0  0  0  0
   -3.1229   21.8527  -29.0887 H   0  0  0  0  0  0  0  0  0  0  0  0
   -5.2589   20.0828  -31.6367 H   0  0  0  0  0  0  0  0  0  0  0  0
   -4.5350   17.1383  -35.5737 H   0  0  0  0  0  0  0  0  0  0  0  0
   -5.2751   18.5034  -34.6564 H   0  0  0  0  0  0  0  0  0  0  0  0
   -3.2008   17.1820  -33.0776 H   0  0  0  0  0  0  0  0  0  0  0  0
   -2.5674   17.7376  -34.6856 H   0  0  0  0  0  0  0  0  0  0  0  0
   -1.1353   20.6133  -33.0764 H   0  0  0  0  0  0  0  0  0  0  0  0
   -1.2063   19.5733  -34.5393 H   0  0  0  0  0  0  0  0  0  0  0  0
   -2.0104   21.1795  -34.5393 H   0  0  0  0  0  0  0  0  0  0  0  0
  1  2  1  0
  2  3  1  0
  3  4  1  0
  4  5  1  0
  5  6  1  0
  6  7  2  0
  7  8  1  0
  8  9  2  0
  9 10  1  0
 10 11  2  0
 11 12  1  0
 12 13  1  0
 12 14  2  0
 11 15  1  0
 15 16  1  0
 16 17  2  0
 16 18  1  0
 18 19  1  0
 19 20  2  0
 19 21  1  0
 15 22  1  0
 22 23  2  0
  2 24  1  0
 24 25  1  0
 25 26  1  0
 26 27  1  0
 26 28  2  0
 26 29  2  0
 23  6  1  0
 22  9  1  0
  1 30  1  0
  1 31  1  0
  1 32  1  0
  3 33  1  0
  3 34  1  0
  4 35  1  0
  4 36  1  0
  5 37  1  0
  5 38  1  0
  7 39  1  0
  8 40  1  0
 10 41  1  0
 13 42  1  0
 13 43  1  0
 18 44  1  0
 18 45  1  0
 23 46  1  0
 24 47  1  0
 24 48  1  0
 25 49  1  0
 25 50  1  0
 27 51  1  0
 27 52  1  0
 27 53  1  0
M  CHG  1  21  -1
M  END
>  <UniqueID>  (50) 
49

>  <SMILES>  (50) 
CN(CCCc1ccc2cc(C(N)=O)n(C(=O)CC(=O)[O-])c2c1)CCS(C)(=O)=O

>  <Energy>  (50) 
82.96766779356304

>  <Genealogy>  (50) 
CN(CCCc1ccc2cc(C(N)=O)n(C(=O)CC(=O)[O-])c2c1)CCS(C)(=O)=O (protonated)
CN(CCCc1ccc2cc(C(N)=O)n(C(=O)CC(=O)[O-])c2c1)CCS(C)(=O)=O (3D coordinates assigned)
CN(CCCc1ccc2cc(C(N)=O)n(C(=O)CC(=O)[O-])c2c1)CCS(C)(=O)=O (optimized conformer: 82.96766779356304 kcal/mol)

>  <smiles>  (50) 
CN(CCCc1ccc2cc(C(N)=O)n(C(=O)CC(=O)O)c2c1)CCS(C)(=O)=O

>  <score_type>  (50) 
oracle

>  <origin>  (50) 
adg

>  <m_score__min__energy>  (50) 
-11.300000000000001

>  <m_primary>  (50) 
energy

$$$$
50:0
     RDKit          3D

 39 40  0  0  0  0  0  0  0  0999 V2000
   -3.6190   25.2900  -30.4930 N   0  0  0  0  0  0  0  0  0  0  0  0
   -5.0440   25.2910  -30.4960 C   0  0  0  0  0  0  0  0  0  0  0  0
   -5.6610   26.3210  -30.1140 O   0  0  0  0  0  0  0  0  0  0  0  0
   -5.8040   24.0860  -30.8870 C   0  0  0  0  0  0  0  0  0  0  0  0
   -7.1920   24.0620  -31.0060 C   0  0  0  0  0  0  0  0  0  0  0  0
   -7.5110   22.7540  -31.2920 C   0  0  0  0  0  0  0  0  0  0  0  0
   -8.7520   22.1640  -31.5110 C   0  0  0  0  0  0  0  0  0  0  0  0
   -8.7840   20.7900  -31.8090 C   0  0  0  0  0  0  0  0  0  0  0  0
   -7.5830   20.0410  -31.9090 C   0  0  0  0  0  0  0  0  0  0  0  0
   -7.6320   18.5610  -32.1920 C   0  0  0  0  0  0  0  0  0  0  0  0
   -8.9300   18.1110  -32.0370 F   0  0  0  0  0  0  0  0  0  0  0  0
   -6.8080   17.8700  -31.3210 F   0  0  0  0  0  0  0  0  0  0  0  0
   -7.2140   18.2950  -33.4840 F   0  0  0  0  0  0  0  0  0  0  0  0
   -6.3440   20.6740  -31.6560 C   0  0  0  0  0  0  0  0  0  0  0  0
   -6.3430   22.0390  -31.3420 C   0  0  0  0  0  0  0  0  0  0  0  0
   -5.2850   22.8440  -31.0980 N   0  0  0  0  0  0  0  0  0  0  0  0
   -3.8980   22.4730  -31.1560 C   0  0  0  0  0  0  0  0  0  0  0  0
   -3.3470   22.2730  -32.2730 O   0  0  0  0  0  0  0  0  0  0  0  0
   -3.1610   22.3580  -29.9740 O   0  0  0  0  0  0  0  0  0  0  0  0
   -1.7390   22.4050  -29.9480 C   0  0  0  0  0  0  0  0  0  0  0  0
   -1.3170   23.7580  -30.0630 O   0  0  0  0  0  0  0  0  0  0  0  0
   -0.9080   24.5150  -28.9630 C   0  0  0  0  0  0  0  0  0  0  0  0
    0.2660   24.4060  -28.5110 O   0  0  0  0  0  0  0  0  0  0  0  0
   -1.8180   25.4030  -28.3770 O   0  0  0  0  0  0  0  0  0  0  0  0
   -2.2610   25.3050  -27.0250 C   0  0  0  0  0  0  0  0  0  0  0  0
   -3.6010   24.5700  -26.9410 C   0  0  0  0  0  0  0  0  0  0  0  0
   -3.8430   23.8340  -28.1080 O   0  0  0  0  0  0  0  0  0  0  0  0
   -3.0840   24.5630  -29.9690 H   0  0  0  0  0  0  0  0  0  0  0  0
   -7.8855   24.9086  -30.8950 H   0  0  0  0  0  0  0  0  0  0  0  0
   -9.6788   22.7537  -31.4529 H   0  0  0  0  0  0  0  0  0  0  0  0
   -9.7512   20.2902  -31.9664 H   0  0  0  0  0  0  0  0  0  0  0  0
   -5.4025   20.1073  -31.7047 H   0  0  0  0  0  0  0  0  0  0  0  0
   -1.3736   21.9843  -28.9996 H   0  0  0  0  0  0  0  0  0  0  0  0
   -1.3330   21.8173  -30.7845 H   0  0  0  0  0  0  0  0  0  0  0  0
   -1.5106   24.7538  -26.4392 H   0  0  0  0  0  0  0  0  0  0  0  0
   -2.3916   26.3208  -26.6236 H   0  0  0  0  0  0  0  0  0  0  0  0
   -3.5823   23.8847  -26.0807 H   0  0  0  0  0  0  0  0  0  0  0  0
   -4.4025   25.3141  -26.8230 H   0  0  0  0  0  0  0  0  0  0  0  0
   -3.1390   24.0920  -28.7580 H   0  0  0  0  0  0  0  0  0  0  0  0
  1  2  1  0
  2  3  2  0
  2  4  1  0
  4  5  2  0
  5  6  1  0
  6  7  2  0
  7  8  1  0
  8  9  2  0
  9 10  1  0
 10 11  1  0
 10 12  1  0
 10 13  1  0
  9 14  1  0
 14 15  2  0
 15 16  1  0
 16 17  1  0
 17 18  2  0
 17 19  1  0
 19 20  1  0
 20 21  1  0
 21 22  1  0
 22 23  2  0
 22 24  1  0
 24 25  1  0
 25 26  1  0
 26 27  1  0
 16  4  1  0
 15  6  1  0
  1 28  1  0
  5 29  1  0
  7 30  1  0
  8 31  1  0
 14 32  1  0
 20 33  1  0
 20 34  1  0
 25 35  1  0
 25 36  1  0
 26 37  1  0
 26 38  1  0
 27 39  1  0
M  CHG  1   1  -1
M  END
>  <UniqueID>  (51) 
50

>  <SMILES>  (51) 
[NH-]C(=O)c1cc2ccc(C(F)(F)F)cc2n1C(=O)OCOC(=O)OCCO

>  <Energy>  (51) 
72.51180356897024

>  <Genealogy>  (51) 
[NH-]C(=O)c1cc2ccc(C(F)(F)F)cc2n1C(=O)OCOC(=O)OCCO (protonated)
[NH-]C(=O)c1cc2ccc(C(F)(F)F)cc2n1C(=O)OCOC(=O)OCCO (3D coordinates assigned)
[NH-]C(=O)c1cc2ccc(C(F)(F)F)cc2n1C(=O)OCOC(=O)OCCO (optimized conformer: 72.51180356897024 kcal/mol)

>  <smiles>  (51) 
NC(=O)c1cc2ccc(C(F)(F)F)cc2n1C(=O)OCOC(=O)OCCO

>  <score_type>  (51) 
oracle

>  <origin>  (51) 
adg

>  <m_score__min__energy>  (51) 
-9.1999999999999993

>  <m_primary>  (51) 
energy

$$$$
51:0
     RDKit          3D

 51 53  0  0  0  0  0  0  0  0999 V2000
   -1.4530   26.0540  -28.9150 N   0  0  0  0  0  0  0  0  0  0  0  0
   -0.7170   24.8540  -28.6900 C   0  0  0  0  0  0  0  0  0  0  0  0
    0.2830   24.8790  -27.9240 O   0  0  0  0  0  0  0  0  0  0  0  0
   -1.0750   23.6020  -29.3870 C   0  0  0  0  0  0  0  0  0  0  0  0
   -0.1680   22.5690  -29.6130 C   0  0  0  0  0  0  0  0  0  0  0  0
   -0.8470   21.6510  -30.3820 C   0  0  0  0  0  0  0  0  0  0  0  0
   -0.4080   20.4550  -30.9380 C   0  0  0  0  0  0  0  0  0  0  0  0
   -1.3150   19.7230  -31.7210 C   0  0  0  0  0  0  0  0  0  0  0  0
   -2.6400   20.1810  -31.9270 C   0  0  0  0  0  0  0  0  0  0  0  0
   -3.5230   19.4000  -32.7570 N   0  0  0  0  0  0  0  0  0  0  0  0
   -3.1140   18.6120  -33.9210 C   0  0  0  0  0  0  0  0  0  0  0  0
   -2.3850   17.3350  -33.5010 C   0  0  0  0  0  0  0  0  0  0  0  0
   -2.9110   16.1670  -34.2010 N   0  0  0  0  0  0  0  0  0  0  0  0
   -3.8790   15.2700  -33.6450 C   0  0  0  0  0  0  0  0  0  0  0  0
   -3.5600   14.0830  -33.3630 O   0  0  0  0  0  0  0  0  0  0  0  0
   -5.2640   15.7640  -33.3530 C   0  0  0  0  0  0  0  0  0  0  0  0
   -5.8380   16.5450  -34.5430 C   0  0  0  0  0  0  0  0  0  0  0  0
   -6.1050   17.9910  -34.2040 C   0  0  0  0  0  0  0  0  0  0  0  0
   -6.0620   18.8670  -35.1090 O   0  0  0  0  0  0  0  0  0  0  0  0
   -6.4120   18.3980  -32.8650 N   0  0  0  0  0  0  0  0  0  0  0  0
   -7.2680   19.4880  -32.4960 C   0  0  0  0  0  0  0  0  0  0  0  0
   -8.6650   19.3290  -32.4050 C   0  0  0  0  0  0  0  0  0  0  0  0
   -9.4750   20.4150  -32.0650 C   0  0  0  0  0  0  0  0  0  0  0  0
   -8.9040   21.6700  -31.8350 C   0  0  0  0  0  0  0  0  0  0  0  0
   -7.5190   21.8420  -31.9530 C   0  0  0  0  0  0  0  0  0  0  0  0
   -6.6590   23.7410  -31.6250 I   0  0  0  0  0  0  0  0  0  0  0  0
   -6.7060   20.7560  -32.2930 C   0  0  0  0  0  0  0  0  0  0  0  0
   -3.0480   21.4050  -31.3360 C   0  0  0  0  0  0  0  0  0  0  0  0
   -2.1160   22.1270  -30.5820 C   0  0  0  0  0  0  0  0  0  0  0  0
   -2.2710   23.3260  -29.9780 N   0  0  0  0  0  0  0  0  0  0  0  0
   -3.4760   24.1080  -29.9350 C   0  0  0  0  0  0  0  0  0  0  0  0
   -4.4560   23.7290  -29.2440 O   0  0  0  0  0  0  0  0  0  0  0  0
   -3.5780   25.2810  -30.6740 O   0  0  0  0  0  0  0  0  0  0  0  0
   -2.4970   26.0430  -28.9620 H   0  0  0  0  0  0  0  0  0  0  0  0
    0.8694   22.5013  -29.2536 H   0  0  0  0  0  0  0  0  0  0  0  0
    0.6172   20.0936  -30.7699 H   0  0  0  0  0  0  0  0  0  0  0  0
   -0.9915   18.7782  -32.1822 H   0  0  0  0  0  0  0  0  0  0  0  0
   -4.5420   19.3890  -32.5230 H   0  0  0  0  0  0  0  0  0  0  0  0
   -4.0081   18.3396  -34.5011 H   0  0  0  0  0  0  0  0  0  0  0  0
   -2.4264   19.2202  -34.5270 H   0  0  0  0  0  0  0  0  0  0  0  0
   -1.3152   17.4404  -33.7342 H   0  0  0  0  0  0  0  0  0  0  0  0
   -2.5364   17.1889  -32.4213 H   0  0  0  0  0  0  0  0  0  0  0  0
   -5.9149   14.9028  -33.1417 H   0  0  0  0  0  0  0  0  0  0  0  0
   -5.2173   16.4376  -32.4846 H   0  0  0  0  0  0  0  0  0  0  0  0
   -5.1181   16.5035  -35.3737 H   0  0  0  0  0  0  0  0  0  0  0  0
   -6.7967   16.0815  -34.8187 H   0  0  0  0  0  0  0  0  0  0  0  0
   -9.1191   18.3467  -32.6023 H   0  0  0  0  0  0  0  0  0  0  0  0
  -10.5635   20.2825  -31.9781 H   0  0  0  0  0  0  0  0  0  0  0  0
   -9.5426   22.5228  -31.5612 H   0  0  0  0  0  0  0  0  0  0  0  0
   -5.6206   20.8975  -32.4016 H   0  0  0  0  0  0  0  0  0  0  0  0
   -4.0744   21.7781  -31.4677 H   0  0  0  0  0  0  0  0  0  0  0  0
  1  2  1  0
  2  3  2  0
  2  4  1  0
  4  5  2  0
  5  6  1  0
  6  7  2  0
  7  8  1  0
  8  9  2  0
  9 10  1  0
 10 11  1  0
 11 12  1  0
 12 13  1  0
 13 14  1  0
 14 15  2  0
 14 16  1  0
 16 17  1  0
 17 18  1  0
 18 19  2  0
 18 20  1  0
 20 21  1  0
 21 22  2  0
 22 23  1  0
 23 24  2  0
 24 25  1  0
 25 26  1  0
 25 27  2  0
  9 28  1  0
 28 29  2  0
 29 30  1  0
 30 31  1  0
 31 32  2  0
 31 33  1  0
 30  4  1  0
 29  6  1  0
 27 21  1  0
  1 34  1  0
  5 35  1  0
  7 36  1  0
  8 37  1  0
 10 38  1  0
 11 39  1  0
 11 40  1  0
 12 41  1  0
 12 42  1  0
 16 43  1  0
 16 44  1  0
 17 45  1  0
 17 46  1  0
 22 47  1  0
 23 48  1  0
 24 49  1  0
 27 50  1  0
 28 51  1  0
M  CHG  4   1  -1  13  -1  20  -1  33  -1
M  END
>  <UniqueID>  (52) 
51

>  <SMILES>  (52) 
[NH-]C(=O)c1cc2ccc(NCC[N-]C(=O)CCC(=O)[N-]c3cccc(I)c3)cc2n1C(=O)[O-]

>  <Energy>  (52) 
87.2898811473541

>  <Genealogy>  (52) 
[NH-]C(=O)c1cc2ccc(NCC[N-]C(=O)CCC(=O)[N-]c3cccc(I)c3)cc2n1C(=O)[O-] (protonated)
[NH-]C(=O)c1cc2ccc(NCC[N-]C(=O)CCC(=O)[N-]c3cccc(I)c3)cc2n1C(=O)[O-] (3D coordinates assigned)
[NH-]C(=O)c1cc2ccc(NCC[N-]C(=O)CCC(=O)[N-]c3cccc(I)c3)cc2n1C(=O)[O-] (optimized conformer: 87.2898811473541 kcal/mol)

>  <smiles>  (52) 
NC(=O)c1cc2ccc(NCCNC(=O)CCC(=O)Nc3cccc(I)c3)cc2n1C(=O)O

>  <score_type>  (52) 
oracle

>  <origin>  (52) 
adg

>  <m_score__min__energy>  (52) 
-12.57

>  <m_primary>  (52) 
energy

$$$$
52:0
     RDKit          3D

 55 57  0  0  0  0  0  0  0  0999 V2000
   -3.8790   25.6730  -30.8410 N   0  0  0  0  0  0  0  0  0  0  0  0
   -5.2130   25.4320  -30.4050 C   0  0  0  0  0  0  0  0  0  0  0  0
   -5.8090   26.3140  -29.7290 O   0  0  0  0  0  0  0  0  0  0  0  0
   -5.9140   24.1760  -30.7500 C   0  0  0  0  0  0  0  0  0  0  0  0
   -7.2920   24.0820  -30.9340 C   0  0  0  0  0  0  0  0  0  0  0  0
   -7.5260   22.7720  -31.2870 C   0  0  0  0  0  0  0  0  0  0  0  0
   -8.7160   22.1280  -31.6100 C   0  0  0  0  0  0  0  0  0  0  0  0
   -8.6550   20.7670  -31.9580 C   0  0  0  0  0  0  0  0  0  0  0  0
   -7.4170   20.0740  -31.9600 C   0  0  0  0  0  0  0  0  0  0  0  0
   -7.3570   18.6960  -32.3760 N   0  0  0  0  0  0  0  0  0  0  0  0
   -6.0100   18.1600  -32.1360 C   0  0  0  0  0  0  0  0  0  0  0  0
   -5.4400   17.5200  -33.4110 C   0  0  0  0  0  0  0  0  0  0  0  0
   -5.2290   18.5520  -34.5240 C   0  0  0  0  0  0  0  0  0  0  0  0
   -6.3780   19.3390  -34.6940 O   0  0  0  0  0  0  0  0  0  0  0  0
   -6.2300   20.7650  -31.6230 C   0  0  0  0  0  0  0  0  0  0  0  0
   -6.3190   22.1220  -31.3010 C   0  0  0  0  0  0  0  0  0  0  0  0
   -5.3210   22.9720  -30.9810 N   0  0  0  0  0  0  0  0  0  0  0  0
   -3.9270   22.6500  -30.8540 C   0  0  0  0  0  0  0  0  0  0  0  0
   -3.1770   22.8350  -31.8520 O   0  0  0  0  0  0  0  0  0  0  0  0
   -3.3340   22.1730  -29.5320 C   0  0  2  0  0  0  0  0  0  0  0  0
   -3.0480   23.3840  -28.6020 C   0  0  0  0  0  0  0  0  0  0  0  0
   -1.9130   24.2370  -29.0830 C   0  0  0  0  0  0  0  0  0  0  0  0
   -0.9080   23.7090  -29.6270 O   0  0  0  0  0  0  0  0  0  0  0  0
   -1.9820   25.6220  -28.9720 O   0  0  0  0  0  0  0  0  0  0  0  0
   -2.0520   21.3270  -29.7770 C   0  0  0  0  0  0  0  0  0  0  0  0
   -1.8040   20.2950  -28.7040 C   0  0  0  0  0  0  0  0  0  0  0  0
   -2.7440   20.1060  -27.6760 C   0  0  0  0  0  0  0  0  0  0  0  0
   -2.5260   19.1410  -26.6890 C   0  0  0  0  0  0  0  0  0  0  0  0
   -1.3720   18.3530  -26.7240 C   0  0  0  0  0  0  0  0  0  0  0  0
   -0.4370   18.5270  -27.7480 C   0  0  0  0  0  0  0  0  0  0  0  0
   -0.6530   19.4910  -28.7380 C   0  0  0  0  0  0  0  0  0  0  0  0
   -3.1390   24.9450  -30.7330 H   0  0  0  0  0  0  0  0  0  0  0  0
   -8.0356   24.8847  -30.8211 H   0  0  0  0  0  0  0  0  0  0  0  0
   -9.6749   22.6667  -31.5937 H   0  0  0  0  0  0  0  0  0  0  0  0
   -9.5773   20.2337  -32.2317 H   0  0  0  0  0  0  0  0  0  0  0  0
   -8.0640   18.1370  -31.8400 H   0  0  0  0  0  0  0  0  0  0  0  0
   -7.5910   18.6210  -33.3940 H   0  0  0  0  0  0  0  0  0  0  0  0
   -5.3481   18.9786  -31.8170 H   0  0  0  0  0  0  0  0  0  0  0  0
   -6.0724   17.3895  -31.3534 H   0  0  0  0  0  0  0  0  0  0  0  0
   -4.4736   17.0519  -33.1723 H   0  0  0  0  0  0  0  0  0  0  0  0
   -6.1641   16.7742  -33.7708 H   0  0  0  0  0  0  0  0  0  0  0  0
   -4.3822   19.2018  -34.2583 H   0  0  0  0  0  0  0  0  0  0  0  0
   -5.0215   18.0207  -35.4646 H   0  0  0  0  0  0  0  0  0  0  0  0
   -6.7330   19.1390  -35.5990 H   0  0  0  0  0  0  0  0  0  0  0  0
   -5.2598   20.2467  -31.6145 H   0  0  0  0  0  0  0  0  0  0  0  0
   -4.0665   21.5247  -29.0289 H   0  0  0  0  0  0  0  0  0  0  0  0
   -3.9542   24.0051  -28.5466 H   0  0  0  0  0  0  0  0  0  0  0  0
   -2.7640   22.9831  -27.6178 H   0  0  0  0  0  0  0  0  0  0  0  0
   -2.1543   20.8095  -30.7423 H   0  0  0  0  0  0  0  0  0  0  0  0
   -1.1975   22.0197  -29.7667 H   0  0  0  0  0  0  0  0  0  0  0  0
   -3.6557   20.7208  -27.6484 H   0  0  0  0  0  0  0  0  0  0  0  0
   -3.2628   19.0015  -25.8842 H   0  0  0  0  0  0  0  0  0  0  0  0
   -1.1997   17.5956  -25.9452 H   0  0  0  0  0  0  0  0  0  0  0  0
    0.4699   17.9050  -27.7754 H   0  0  0  0  0  0  0  0  0  0  0  0
    0.0816   19.6200  -29.5465 H   0  0  0  0  0  0  0  0  0  0  0  0
  1  2  1  0
  2  3  2  0
  2  4  1  0
  4  5  2  0
  5  6  1  0
  6  7  2  0
  7  8  1  0
  8  9  2  0
  9 10  1  0
 10 11  1  0
 11 12  1  0
 12 13  1  0
 13 14  1  0
  9 15  1  0
 15 16  2  0
 16 17  1  0
 17 18  1  0
 18 19  2  0
 18 20  1  0
 20 21  1  0
 21 22  1  0
 22 23  2  0
 22 24  1  0
 20 25  1  0
 25 26  1  0
 26 27  2  0
 27 28  1  0
 28 29  2  0
 29 30  1  0
 30 31  2  0
 17  4  1  0
 31 26  1  0
 16  6  1  0
  1 32  1  0
  5 33  1  0
  7 34  1  0
  8 35  1  0
 10 36  1  0
 10 37  1  0
 11 38  1  0
 11 39  1  0
 12 40  1  0
 12 41  1  0
 13 42  1  0
 13 43  1  0
 14 44  1  0
 15 45  1  0
 20 46  1  1
 21 47  1  0
 21 48  1  0
 25 49  1  0
 25 50  1  0
 27 51  1  0
 28 52  1  0
 29 53  1  0
 30 54  1  0
 31 55  1  0
M  CHG  3   1  -1  10   1  24  -1
M  END
>  <UniqueID>  (53) 
52

>  <SMILES>  (53) 
[NH-]C(=O)c1cc2ccc([NH2+]CCCO)cc2n1C(=O)[C@H](CC(=O)[O-])Cc1ccccc1

>  <Energy>  (53) 
91.52950295580897

>  <Genealogy>  (53) 
[NH-]C(=O)c1cc2ccc([NH2+]CCCO)cc2n1C(=O)C(CC(=O)[O-])Cc1ccccc1 (protonated)
[NH-]C(=O)c1cc2ccc([NH2+]CCCO)cc2n1C(=O)[C@H](CC(=O)[O-])Cc1ccccc1 (chirality)
[NH-]C(=O)c1cc2ccc([NH2+]CCCO)cc2n1C(=O)[C@H](CC(=O)[O-])Cc1ccccc1 (3D coordinates assigned)
[NH-]C(=O)c1cc2ccc([NH2+]CCCO)cc2n1C(=O)[C@H](CC(=O)[O-])Cc1ccccc1 (optimized conformer: 91.52950295580897 kcal/mol)

>  <smiles>  (53) 
NC(=O)c1cc2ccc(NCCCO)cc2n1C(=O)C(CC(=O)O)Cc1ccccc1

>  <score_type>  (53) 
oracle

>  <origin>  (53) 
adg

>  <m_score__min__energy>  (53) 
-12.890000000000001

>  <m_primary>  (53) 
energy

$$$$
53:0
     RDKit          3D

 50 51  0  0  0  0  0  0  0  0999 V2000
   -1.6500   20.4350  -33.9880 C   0  0  0  0  0  0  0  0  0  0  0  0
   -1.9040   21.0250  -32.5880 C   0  0  0  0  0  0  0  0  0  0  0  0
   -2.4880   19.9310  -31.6790 C   0  0  0  0  0  0  0  0  0  0  0  0
   -0.5920   21.5450  -31.9660 C   0  0  0  0  0  0  0  0  0  0  0  0
   -2.8820   22.0710  -32.6580 O   0  0  0  0  0  0  0  0  0  0  0  0
   -3.4920   22.7260  -31.5740 C   0  0  0  0  0  0  0  0  0  0  0  0
   -2.8020   23.1450  -30.6060 O   0  0  0  0  0  0  0  0  0  0  0  0
   -4.9250   22.8500  -31.5390 N   0  0  0  0  0  0  0  0  0  0  0  0
   -5.6710   23.8310  -30.9560 C   0  0  0  0  0  0  0  0  0  0  0  0
   -5.1630   25.1020  -30.4000 C   0  0  0  0  0  0  0  0  0  0  0  0
   -3.9230   25.6500  -30.8380 N   0  0  0  0  0  0  0  0  0  0  0  0
   -5.8600   25.7400  -29.5640 O   0  0  0  0  0  0  0  0  0  0  0  0
   -7.0290   23.5220  -31.0330 C   0  0  0  0  0  0  0  0  0  0  0  0
   -7.0960   22.3160  -31.6950 C   0  0  0  0  0  0  0  0  0  0  0  0
   -8.2010   21.5420  -32.0380 C   0  0  0  0  0  0  0  0  0  0  0  0
   -7.9720   20.3290  -32.7050 C   0  0  0  0  0  0  0  0  0  0  0  0
   -6.6500   19.9040  -33.0040 C   0  0  0  0  0  0  0  0  0  0  0  0
   -6.4230   18.6880  -33.7460 N   0  0  0  0  0  0  0  0  0  0  0  0
   -5.1760   18.7870  -34.5250 C   0  0  0  0  0  0  0  0  0  0  0  0
   -4.0440   17.9530  -33.9080 C   0  0  0  0  0  0  0  0  0  0  0  0
   -4.5760   16.8010  -33.1560 N   0  0  0  0  0  0  0  0  0  0  0  0
   -5.0860   15.7220  -34.0210 C   0  0  0  0  0  0  0  0  0  0  0  0
   -6.5870   15.6450  -34.0070 C   0  0  0  0  0  0  0  0  0  0  0  0
   -7.2600   16.5180  -33.4050 O   0  0  0  0  0  0  0  0  0  0  0  0
   -7.2370   14.5820  -34.6210 O   0  0  0  0  0  0  0  0  0  0  0  0
   -5.5560   20.7210  -32.6370 C   0  0  0  0  0  0  0  0  0  0  0  0
   -5.8120   21.9340  -31.9900 C   0  0  0  0  0  0  0  0  0  0  0  0
   -1.2168   19.4288  -33.8888 H   0  0  0  0  0  0  0  0  0  0  0  0
   -2.6008   20.3723  -34.5375 H   0  0  0  0  0  0  0  0  0  0  0  0
   -0.9510   21.0826  -34.5375 H   0  0  0  0  0  0  0  0  0  0  0  0
   -2.3385   20.2110  -30.6258 H   0  0  0  0  0  0  0  0  0  0  0  0
   -3.5640   19.8226  -31.8805 H   0  0  0  0  0  0  0  0  0  0  0  0
   -1.9793   18.9767  -31.8805 H   0  0  0  0  0  0  0  0  0  0  0  0
   -0.6689   21.5145  -30.8691 H   0  0  0  0  0  0  0  0  0  0  0  0
    0.2453   20.9107  -32.2926 H   0  0  0  0  0  0  0  0  0  0  0  0
   -0.4166   22.5806  -32.2926 H   0  0  0  0  0  0  0  0  0  0  0  0
   -3.0180   25.2950  -30.4560 H   0  0  0  0  0  0  0  0  0  0  0  0
   -7.8698   24.1165  -30.6463 H   0  0  0  0  0  0  0  0  0  0  0  0
   -9.2218   21.8711  -31.7938 H   0  0  0  0  0  0  0  0  0  0  0  0
   -8.8253   19.7004  -32.9995 H   0  0  0  0  0  0  0  0  0  0  0  0
   -6.3960   17.8760  -33.0870 H   0  0  0  0  0  0  0  0  0  0  0  0
   -7.2280   18.5280  -34.3970 H   0  0  0  0  0  0  0  0  0  0  0  0
   -5.3661   18.4267  -35.5468 H   0  0  0  0  0  0  0  0  0  0  0  0
   -4.8595   19.8405  -34.5268 H   0  0  0  0  0  0  0  0  0  0  0  0
   -3.3906   17.5848  -34.7127 H   0  0  0  0  0  0  0  0  0  0  0  0
   -3.4814   18.5923  -33.2118 H   0  0  0  0  0  0  0  0  0  0  0  0
   -5.3520   17.1330  -32.5340 H   0  0  0  0  0  0  0  0  0  0  0  0
   -4.7503   15.9060  -35.0522 H   0  0  0  0  0  0  0  0  0  0  0  0
   -4.6952   14.7681  -33.6371 H   0  0  0  0  0  0  0  0  0  0  0  0
   -4.5242   20.4088  -32.8560 H   0  0  0  0  0  0  0  0  0  0  0  0
  1  2  1  0
  2  3  1  0
  2  4  1  0
  2  5  1  0
  5  6  1  0
  6  7  2  0
  6  8  1  0
  8  9  1  0
  9 10  1  0
 10 11  1  0
 10 12  2  0
  9 13  2  0
 13 14  1  0
 14 15  2  0
 15 16  1  0
 16 17  2  0
 17 18  1  0
 18 19  1  0
 19 20  1  0
 20 21  1  0
 21 22  1  0
 22 23  1  0
 23 24  2  0
 23 25  1  0
 17 26  1  0
 26 27  2  0
 27  8  1  0
 27 14  1  0
  1 28  1  0
  1 29  1  0
  1 30  1  0
  3 31  1  0
  3 32  1  0
  3 33  1  0
  4 34  1  0
  4 35  1  0
  4 36  1  0
 11 37  1  0
 13 38  1  0
 15 39  1  0
 16 40  1  0
 18 41  1  0
 18 42  1  0
 19 43  1  0
 19 44  1  0
 20 45  1  0
 20 46  1  0
 21 47  1  0
 22 48  1  0
 22 49  1  0
 26 50  1  0
M  CHG  3  11  -1  18   1  25  -1
M  END
>  <UniqueID>  (54) 
53

>  <SMILES>  (54) 
CC(C)(C)OC(=O)n1c(C([NH-])=O)cc2ccc([NH2+]CCNCC(=O)[O-])cc21

>  <Energy>  (54) 
84.84327646987492

>  <Genealogy>  (54) 
CC(C)(C)OC(=O)n1c(C([NH-])=O)cc2ccc([NH2+]CCNCC(=O)[O-])cc21 (protonated)
CC(C)(C)OC(=O)n1c(C([NH-])=O)cc2ccc([NH2+]CCNCC(=O)[O-])cc21 (3D coordinates assigned)
CC(C)(C)OC(=O)n1c(C([NH-])=O)cc2ccc([NH2+]CCNCC(=O)[O-])cc21 (optimized conformer: 84.84327646987492 kcal/mol)

>  <smiles>  (54) 
CC(C)(C)OC(=O)n1c(C(N)=O)cc2ccc(NCCNCC(=O)O)cc21

>  <score_type>  (54) 
oracle

>  <origin>  (54) 
adg

>  <m_score__min__energy>  (54) 
-9.3100000000000005

>  <m_primary>  (54) 
energy

$$$$
54:0
     RDKit          3D

 39 40  0  0  0  0  0  0  0  0999 V2000
   -7.7920   18.5090  -32.7430 C   0  0  0  0  0  0  0  0  0  0  0  0
   -7.7330   19.9310  -32.2700 C   0  0  0  0  0  0  0  0  0  0  0  0
   -8.9290   20.6470  -32.0230 C   0  0  0  0  0  0  0  0  0  0  0  0
   -8.8870   21.9710  -31.5560 C   0  0  0  0  0  0  0  0  0  0  0  0
   -7.6390   22.5420  -31.3270 C   0  0  0  0  0  0  0  0  0  0  0  0
   -7.3100   23.8060  -30.8940 C   0  0  0  0  0  0  0  0  0  0  0  0
   -5.9180   23.8300  -30.8450 C   0  0  0  0  0  0  0  0  0  0  0  0
   -5.1430   24.9840  -30.3420 C   0  0  0  0  0  0  0  0  0  0  0  0
   -3.8590   25.2950  -30.8770 N   0  0  0  0  0  0  0  0  0  0  0  0
   -5.5990   25.6740  -29.3920 O   0  0  0  0  0  0  0  0  0  0  0  0
   -5.4050   22.6300  -31.2400 N   0  0  0  0  0  0  0  0  0  0  0  0
   -4.0240   22.2700  -31.4060 C   0  0  0  0  0  0  0  0  0  0  0  0
   -3.4790   22.3710  -32.5380 O   0  0  0  0  0  0  0  0  0  0  0  0
   -3.2990   21.7830  -30.3150 O   0  0  0  0  0  0  0  0  0  0  0  0
   -3.5280   22.2220  -28.9800 C   0  0  0  0  0  0  0  0  0  0  0  0
   -2.4720   21.6100  -28.0590 C   0  0  0  0  0  0  0  0  0  0  0  0
   -1.8410   22.6590  -27.1430 C   0  0  0  0  0  0  0  0  0  0  0  0
   -2.2880   23.9420  -27.5140 O   0  0  0  0  0  0  0  0  0  0  0  0
   -1.2360   24.5550  -28.7070 P   0  0  1  0  0  0  0  0  0  0  0  0
   -1.4200   23.7970  -30.0030 O   0  0  0  0  0  0  0  0  0  0  0  0
   -1.5960   26.1870  -28.9700 O   0  0  0  0  0  0  0  0  0  0  0  0
    0.3730   24.4210  -28.1990 O   0  0  0  0  0  0  0  0  0  0  0  0
   -6.4710   21.8510  -31.5280 C   0  0  0  0  0  0  0  0  0  0  0  0
   -6.4840   20.5370  -32.0120 C   0  0  0  0  0  0  0  0  0  0  0  0
   -7.8200   17.8346  -31.8745 H   0  0  0  0  0  0  0  0  0  0  0  0
   -8.6970   18.3620  -33.3507 H   0  0  0  0  0  0  0  0  0  0  0  0
   -6.9023   18.2875  -33.3507 H   0  0  0  0  0  0  0  0  0  0  0  0
   -9.9005   20.1618  -32.1985 H   0  0  0  0  0  0  0  0  0  0  0  0
   -9.8119   22.5388  -31.3769 H   0  0  0  0  0  0  0  0  0  0  0  0
   -8.0000   24.6242  -30.6403 H   0  0  0  0  0  0  0  0  0  0  0  0
   -3.0080   25.2850  -30.2720 H   0  0  0  0  0  0  0  0  0  0  0  0
   -3.4614   23.3192  -28.9374 H   0  0  0  0  0  0  0  0  0  0  0  0
   -4.5296   21.9048  -28.6543 H   0  0  0  0  0  0  0  0  0  0  0  0
   -2.9463   20.8350  -27.4390 H   0  0  0  0  0  0  0  0  0  0  0  0
   -1.6770   21.1820  -28.6873 H   0  0  0  0  0  0  0  0  0  0  0  0
   -2.1314   22.4574  -26.1014 H   0  0  0  0  0  0  0  0  0  0  0  0
   -0.7459   22.6132  -27.2360 H   0  0  0  0  0  0  0  0  0  0  0  0
    0.6930   23.5730  -28.5960 H   0  0  0  0  0  0  0  0  0  0  0  0
   -5.5452   19.9909  -32.1867 H   0  0  0  0  0  0  0  0  0  0  0  0
  1  2  1  0
  2  3  2  0
  3  4  1  0
  4  5  2  0
  5  6  1  0
  6  7  2  0
  7  8  1  0
  8  9  1  0
  8 10  2  0
  7 11  1  0
 11 12  1  0
 12 13  2  0
 12 14  1  0
 14 15  1  0
 15 16  1  0
 16 17  1  0
 17 18  1  0
 18 19  1  0
 19 20  2  0
 19 21  1  6
 19 22  1  0
 11 23  1  0
 23 24  2  0
 24  2  1  0
 23  5  1  0
  1 25  1  0
  1 26  1  0
  1 27  1  0
  3 28  1  0
  4 29  1  0
  6 30  1  0
  9 31  1  0
 15 32  1  0
 15 33  1  0
 16 34  1  0
 16 35  1  0
 17 36  1  0
 17 37  1  0
 22 38  1  0
 24 39  1  0
M  CHG  2   9  -1  21  -1
M  END
>  <UniqueID>  (55) 
54

>  <SMILES>  (55) 
Cc1ccc2cc(C([NH-])=O)n(C(=O)OCCCO[P@@](=O)([O-])O)c2c1

>  <Energy>  (55) 
68.7429633774447

>  <Genealogy>  (55) 
Cc1ccc2cc(C([NH-])=O)n(C(=O)OCCCOP(=O)([O-])O)c2c1 (protonated)
Cc1ccc2cc(C([NH-])=O)n(C(=O)OCCCO[P@@](=O)([O-])O)c2c1 (chirality)
Cc1ccc2cc(C([NH-])=O)n(C(=O)OCCCO[P@@](=O)([O-])O)c2c1 (3D coordinates assigned)
Cc1ccc2cc(C([NH-])=O)n(C(=O)OCCCO[P@@](=O)([O-])O)c2c1 (optimized conformer: 68.7429633774447 kcal/mol)

>  <smiles>  (55) 
Cc1ccc2cc(C(N)=O)n(C(=O)OCCCOP(=O)(O)O)c2c1

>  <score_type>  (55) 
oracle

>  <origin>  (55) 
adg

>  <m_score__min__energy>  (55) 
-12.109999999999999

>  <m_primary>  (55) 
energy

$$$$
55:0
     RDKit          3D

 40 41  0  0  0  0  0  0  0  0999 V2000
   -6.9210   17.1060  -33.0920 C   0  0  0  0  0  0  0  0  0  0  0  0
   -6.4490   18.3730  -33.6630 N   0  0  0  0  0  0  0  0  0  0  0  0
   -5.7310   18.3510  -34.9430 C   0  0  0  0  0  0  0  0  0  0  0  0
   -6.6900   19.6280  -32.9740 C   0  0  0  0  0  0  0  0  0  0  0  0
   -8.0160   20.0450  -32.6670 C   0  0  0  0  0  0  0  0  0  0  0  0
   -8.2600   21.2620  -32.0100 C   0  0  0  0  0  0  0  0  0  0  0  0
   -7.1680   22.0440  -31.6570 C   0  0  0  0  0  0  0  0  0  0  0  0
   -7.1250   23.2750  -31.0420 C   0  0  0  0  0  0  0  0  0  0  0  0
   -5.7730   23.5900  -30.9480 C   0  0  0  0  0  0  0  0  0  0  0  0
   -5.2640   24.8060  -30.2840 C   0  0  0  0  0  0  0  0  0  0  0  0
   -5.7750   25.2270  -29.0180 N   0  0  0  0  0  0  0  0  0  0  0  0
   -4.4020   25.5150  -30.8680 O   0  0  0  0  0  0  0  0  0  0  0  0
   -5.0100   22.6020  -31.4960 N   0  0  0  0  0  0  0  0  0  0  0  0
   -3.5860   22.6000  -31.6810 C   0  0  0  0  0  0  0  0  0  0  0  0
   -2.8440   23.1960  -30.8520 O   0  0  0  0  0  0  0  0  0  0  0  0
   -3.0280   21.9370  -32.7800 O   0  0  0  0  0  0  0  0  0  0  0  0
   -2.2040   20.7780  -32.6650 C   0  0  0  0  0  0  0  0  0  0  0  0
   -1.5380   20.4330  -34.0050 C   0  0  0  0  0  0  0  0  0  0  0  0
   -0.0500   20.7980  -34.0410 C   0  0  0  0  0  0  0  0  0  0  0  0
    0.3150   21.9180  -35.3810 Cl  0  0  0  0  0  0  0  0  0  0  0  0
   -5.8820   21.6590  -31.9220 C   0  0  0  0  0  0  0  0  0  0  0  0
   -5.6070   20.4640  -32.5960 C   0  0  0  0  0  0  0  0  0  0  0  0
   -6.8981   17.1676  -31.9940 H   0  0  0  0  0  0  0  0  0  0  0  0
   -7.9510   16.9140  -33.4270 H   0  0  0  0  0  0  0  0  0  0  0  0
   -6.2677   16.2869  -33.4270 H   0  0  0  0  0  0  0  0  0  0  0  0
   -4.6477   18.3178  -34.7552 H   0  0  0  0  0  0  0  0  0  0  0  0
   -6.0311   17.4616  -35.5165 H   0  0  0  0  0  0  0  0  0  0  0  0
   -5.9761   19.2571  -35.5165 H   0  0  0  0  0  0  0  0  0  0  0  0
   -8.8637   19.4033  -32.9491 H   0  0  0  0  0  0  0  0  0  0  0  0
   -9.2860   21.5863  -31.7817 H   0  0  0  0  0  0  0  0  0  0  0  0
   -7.9771   23.8800  -30.6985 H   0  0  0  0  0  0  0  0  0  0  0  0
   -5.3710   26.0660  -28.5430 H   0  0  0  0  0  0  0  0  0  0  0  0
   -6.6070   24.7660  -28.5900 H   0  0  0  0  0  0  0  0  0  0  0  0
   -1.4224   20.9668  -31.9143 H   0  0  0  0  0  0  0  0  0  0  0  0
   -2.8365   19.9303  -32.3627 H   0  0  0  0  0  0  0  0  0  0  0  0
   -1.6387   19.3516  -34.1792 H   0  0  0  0  0  0  0  0  0  0  0  0
   -2.0419   21.0213  -34.7860 H   0  0  0  0  0  0  0  0  0  0  0  0
    0.2238   21.2774  -33.0896 H   0  0  0  0  0  0  0  0  0  0  0  0
    0.5286   19.8752  -34.1946 H   0  0  0  0  0  0  0  0  0  0  0  0
   -4.5707   20.1778  -32.8286 H   0  0  0  0  0  0  0  0  0  0  0  0
  1  2  1  0
  2  3  1  0
  2  4  1  0
  4  5  2  0
  5  6  1  0
  6  7  2  0
  7  8  1  0
  8  9  2  0
  9 10  1  0
 10 11  1  0
 10 12  2  0
  9 13  1  0
 13 14  1  0
 14 15  2  0
 14 16  1  0
 16 17  1  0
 17 18  1  0
 18 19  1  0
 19 20  1  0
 13 21  1  0
 21 22  2  0
 22  4  1  0
 21  7  1  0
  1 23  1  0
  1 24  1  0
  1 25  1  0
  3 26  1  0
  3 27  1  0
  3 28  1  0
  5 29  1  0
  6 30  1  0
  8 31  1  0
 11 32  1  0
 11 33  1  0
 17 34  1  0
 17 35  1  0
 18 36  1  0
 18 37  1  0
 19 38  1  0
 19 39  1  0
 22 40  1  0
M  END
>  <UniqueID>  (56) 
55

>  <SMILES>  (56) 
CN(C)c1ccc2cc(C(N)=O)n(C(=O)OCCCCl)c2c1

>  <Energy>  (56) 
74.86703392745683

>  <Genealogy>  (56) 
CN(C)c1ccc2cc(C(N)=O)n(C(=O)OCCCCl)c2c1 (3D coordinates assigned)
CN(C)c1ccc2cc(C(N)=O)n(C(=O)OCCCCl)c2c1 (optimized conformer: 74.86703392745683 kcal/mol)

>  <smiles>  (56) 
CN(C)c1ccc2cc(C(N)=O)n(C(=O)OCCCCl)c2c1

>  <score_type>  (56) 
oracle

>  <origin>  (56) 
adg

>  <m_score__min__energy>  (56) 
-8.2300000000000004

>  <m_primary>  (56) 
energy

$$$$
56:0
     RDKit          3D

 41 43  0  0  0  0  0  0  0  0999 V2000
   -3.8670   25.5790  -30.8580 N   0  0  0  0  0  0  0  0  0  0  0  0
   -5.2090   25.3330  -30.4420 C   0  0  0  0  0  0  0  0  0  0  0  0
   -5.7970   26.1800  -29.7180 O   0  0  0  0  0  0  0  0  0  0  0  0
   -5.9040   24.1120  -30.9000 C   0  0  0  0  0  0  0  0  0  0  0  0
   -7.2900   23.9750  -30.9050 C   0  0  0  0  0  0  0  0  0  0  0  0
   -7.5280   22.6810  -31.3050 C   0  0  0  0  0  0  0  0  0  0  0  0
   -8.7320   22.0070  -31.4790 C   0  0  0  0  0  0  0  0  0  0  0  0
   -8.6830   20.6730  -31.9160 C   0  0  0  0  0  0  0  0  0  0  0  0
   -7.4410   20.0470  -32.1880 C   0  0  0  0  0  0  0  0  0  0  0  0
   -7.4000   18.6110  -32.6420 C   0  0  0  0  0  0  0  0  0  0  0  0
   -6.0370   18.2710  -33.2620 C   0  0  0  0  0  0  0  0  0  0  0  0
   -4.9000   18.1070  -32.3520 N   0  0  0  0  0  0  0  0  0  0  0  0
   -5.7200   18.8780  -34.6240 C   0  0  0  0  0  0  0  0  0  0  0  0
   -6.0150   17.3830  -34.4980 C   0  0  0  0  0  0  0  0  0  0  0  0
   -6.2380   20.7620  -31.9940 C   0  0  0  0  0  0  0  0  0  0  0  0
   -6.3160   22.0820  -31.5330 C   0  0  0  0  0  0  0  0  0  0  0  0
   -5.3070   22.9480  -31.2900 N   0  0  0  0  0  0  0  0  0  0  0  0
   -3.9040   22.6860  -31.4480 C   0  0  0  0  0  0  0  0  0  0  0  0
   -3.0960   23.0020  -30.5330 O   0  0  0  0  0  0  0  0  0  0  0  0
   -3.4390   22.0980  -32.6300 O   0  0  0  0  0  0  0  0  0  0  0  0
   -2.1560   21.4900  -32.7560 C   0  0  0  0  0  0  0  0  0  0  0  0
   -2.0340   20.2930  -31.8140 C   0  0  0  0  0  0  0  0  0  0  0  0
   -3.3010   19.9100  -31.3520 O   0  0  0  0  0  0  0  0  0  0  0  0
   -3.0590   25.1770  -30.3340 H   0  0  0  0  0  0  0  0  0  0  0  0
   -8.0363   24.7399  -30.6442 H   0  0  0  0  0  0  0  0  0  0  0  0
   -9.6933   22.5034  -31.2805 H   0  0  0  0  0  0  0  0  0  0  0  0
   -9.6179   20.1086  -32.0484 H   0  0  0  0  0  0  0  0  0  0  0  0
   -7.5760   17.9547  -31.7770 H   0  0  0  0  0  0  0  0  0  0  0  0
   -8.1797   18.4607  -33.4033 H   0  0  0  0  0  0  0  0  0  0  0  0
   -4.0680   18.5510  -32.8030 H   0  0  0  0  0  0  0  0  0  0  0  0
   -5.0550   18.6230  -31.4540 H   0  0  0  0  0  0  0  0  0  0  0  0
   -6.4469   19.5433  -35.1129 H   0  0  0  0  0  0  0  0  0  0  0  0
   -4.8951   19.4772  -35.0369 H   0  0  0  0  0  0  0  0  0  0  0  0
   -6.9541   16.9720  -34.8969 H   0  0  0  0  0  0  0  0  0  0  0  0
   -5.4899   16.4595  -34.7834 H   0  0  0  0  0  0  0  0  0  0  0  0
   -5.2643   20.2935  -32.2000 H   0  0  0  0  0  0  0  0  0  0  0  0
   -2.0173   21.1498  -33.7928 H   0  0  0  0  0  0  0  0  0  0  0  0
   -1.3854   22.2293  -32.4921 H   0  0  0  0  0  0  0  0  0  0  0  0
   -1.5741   19.4517  -32.3531 H   0  0  0  0  0  0  0  0  0  0  0  0
   -1.4083   20.5748  -30.9543 H   0  0  0  0  0  0  0  0  0  0  0  0
   -3.9340   20.0570  -32.1030 H   0  0  0  0  0  0  0  0  0  0  0  0
  1  2  1  0
  2  3  2  0
  2  4  1  0
  4  5  2  0
  5  6  1  0
  6  7  2  0
  7  8  1  0
  8  9  2  0
  9 10  1  0
 10 11  1  0
 11 12  1  0
 11 13  1  0
 13 14  1  0
  9 15  1  0
 15 16  2  0
 16 17  1  0
 17 18  1  0
 18 19  2  0
 18 20  1  0
 20 21  1  0
 21 22  1  0
 22 23  1  0
 17  4  1  0
 16  6  1  0
 14 11  1  0
  1 24  1  0
  5 25  1  0
  7 26  1  0
  8 27  1  0
 10 28  1  0
 10 29  1  0
 12 30  1  0
 12 31  1  0
 13 32  1  0
 13 33  1  0
 14 34  1  0
 14 35  1  0
 15 36  1  0
 21 37  1  0
 21 38  1  0
 22 39  1  0
 22 40  1  0
 23 41  1  0
M  CHG  1   1  -1
M  END
>  <UniqueID>  (57) 
56

>  <SMILES>  (57) 
[NH-]C(=O)c1cc2ccc(CC3(N)CC3)cc2n1C(=O)OCCO

>  <Energy>  (57) 
344.10946252979744

>  <Genealogy>  (57) 
[NH-]C(=O)c1cc2ccc(CC3(N)CC3)cc2n1C(=O)OCCO (protonated)
[NH-]C(=O)c1cc2ccc(CC3(N)CC3)cc2n1C(=O)OCCO (3D coordinates assigned)
[NH-]C(=O)c1cc2ccc(CC3(N)CC3)cc2n1C(=O)OCCO (nonaromatic ring conformer: 344.10946252979744 kcal/mol)

>  <smiles>  (57) 
NC(=O)c1cc2ccc(CC3(N)CC3)cc2n1C(=O)OCCO

>  <score_type>  (57) 
oracle

>  <origin>  (57) 
adg

>  <m_score__min__energy>  (57) 
-10.890000000000001

>  <m_primary>  (57) 
energy

$$$$
57:0
     RDKit          3D

 37 38  0  0  0  0  0  0  0  0999 V2000
   -1.9540   24.9420  -27.9620 C   0  0  0  0  0  0  0  0  0  0  0  0
   -1.5890   24.8030  -29.3180 O   0  0  0  0  0  0  0  0  0  0  0  0
   -1.7580   23.4620  -29.7260 C   0  0  0  0  0  0  0  0  0  0  0  0
   -3.1440   23.1290  -29.7710 O   0  0  0  0  0  0  0  0  0  0  0  0
   -3.7670   22.6430  -30.9240 C   0  0  0  0  0  0  0  0  0  0  0  0
   -3.1110   21.9720  -31.7680 O   0  0  0  0  0  0  0  0  0  0  0  0
   -5.1650   22.8870  -31.1350 N   0  0  0  0  0  0  0  0  0  0  0  0
   -5.8580   24.0290  -30.8650 C   0  0  0  0  0  0  0  0  0  0  0  0
   -5.2690   25.3240  -30.4690 C   0  0  0  0  0  0  0  0  0  0  0  0
   -3.9450   25.6750  -30.8600 N   0  0  0  0  0  0  0  0  0  0  0  0
   -5.9620   26.1530  -29.8210 O   0  0  0  0  0  0  0  0  0  0  0  0
   -7.2190   23.8420  -31.1010 C   0  0  0  0  0  0  0  0  0  0  0  0
   -7.3380   22.5420  -31.5370 C   0  0  0  0  0  0  0  0  0  0  0  0
   -8.4680   21.8240  -31.9140 C   0  0  0  0  0  0  0  0  0  0  0  0
   -8.2980   20.4840  -32.3030 C   0  0  0  0  0  0  0  0  0  0  0  0
   -7.0130   19.8880  -32.2940 C   0  0  0  0  0  0  0  0  0  0  0  0
   -6.8430   18.4570  -32.7370 C   0  0  0  0  0  0  0  0  0  0  0  0
   -5.3650   18.0930  -32.9220 C   0  0  0  0  0  0  0  0  0  0  0  0
   -4.8890   18.4040  -34.3080 C   0  0  0  0  0  0  0  0  0  0  0  0
   -5.6390   18.1950  -35.2980 O   0  0  0  0  0  0  0  0  0  0  0  0
   -3.6010   18.8840  -34.5100 O   0  0  0  0  0  0  0  0  0  0  0  0
   -5.8870   20.6510  -31.9120 C   0  0  0  0  0  0  0  0  0  0  0  0
   -6.0840   21.9870  -31.5480 C   0  0  0  0  0  0  0  0  0  0  0  0
   -1.1175   24.6234  -27.3226 H   0  0  0  0  0  0  0  0  0  0  0  0
   -2.1949   25.9948  -27.7532 H   0  0  0  0  0  0  0  0  0  0  0  0
   -2.8341   24.3161  -27.7532 H   0  0  0  0  0  0  0  0  0  0  0  0
   -1.3203   23.3292  -30.7264 H   0  0  0  0  0  0  0  0  0  0  0  0
   -1.2549   22.8023  -29.0038 H   0  0  0  0  0  0  0  0  0  0  0  0
   -3.1160   25.2270  -30.4110 H   0  0  0  0  0  0  0  0  0  0  0  0
   -8.0263   24.5771  -30.9672 H   0  0  0  0  0  0  0  0  0  0  0  0
   -9.4642   22.2905  -31.9079 H   0  0  0  0  0  0  0  0  0  0  0  0
   -9.1708   19.8928  -32.6173 H   0  0  0  0  0  0  0  0  0  0  0  0
   -7.2811   17.7938  -31.9765 H   0  0  0  0  0  0  0  0  0  0  0  0
   -7.3503   18.3350  -33.7054 H   0  0  0  0  0  0  0  0  0  0  0  0
   -4.7634   18.6661  -32.2011 H   0  0  0  0  0  0  0  0  0  0  0  0
   -5.2539   17.0115  -32.7550 H   0  0  0  0  0  0  0  0  0  0  0  0
   -4.8812   20.2058  -31.9011 H   0  0  0  0  0  0  0  0  0  0  0  0
  1  2  1  0
  2  3  1  0
  3  4  1  0
  4  5  1  0
  5  6  2  0
  5  7  1  0
  7  8  1  0
  8  9  1  0
  9 10  1  0
  9 11  2  0
  8 12  2  0
 12 13  1  0
 13 14  2  0
 14 15  1  0
 15 16  2  0
 16 17  1  0
 17 18  1  0
 18 19  1  0
 19 20  2  0
 19 21  1  0
 16 22  1  0
 22 23  2  0
 23  7  1  0
 23 13  1  0
  1 24  1  0
  1 25  1  0
  1 26  1  0
  3 27  1  0
  3 28  1  0
 10 29  1  0
 12 30  1  0
 14 31  1  0
 15 32  1  0
 17 33  1  0
 17 34  1  0
 18 35  1  0
 18 36  1  0
 22 37  1  0
M  CHG  2  10  -1  21  -1
M  END
>  <UniqueID>  (58) 
57

>  <SMILES>  (58) 
COCOC(=O)n1c(C([NH-])=O)cc2ccc(CCC(=O)[O-])cc21

>  <Energy>  (58) 
72.08206998269137

>  <Genealogy>  (58) 
COCOC(=O)n1c(C([NH-])=O)cc2ccc(CCC(=O)[O-])cc21 (protonated)
COCOC(=O)n1c(C([NH-])=O)cc2ccc(CCC(=O)[O-])cc21 (3D coordinates assigned)
COCOC(=O)n1c(C([NH-])=O)cc2ccc(CCC(=O)[O-])cc21 (optimized conformer: 72.08206998269137 kcal/mol)

>  <smiles>  (58) 
COCOC(=O)n1c(C(N)=O)cc2ccc(CCC(=O)O)cc21

>  <score_type>  (58) 
oracle

>  <origin>  (58) 
adg

>  <m_score__min__energy>  (58) 
-9.5700000000000003

>  <m_primary>  (58) 
energy

$$$$
58:0
     RDKit          3D

 32 33  0  0  0  0  0  0  0  0999 V2000
   -8.6279   19.0036  -32.5200 H   0  0  0  0  0  0  0  0  0  0  0  0
   -7.9260   19.8090  -32.2580 C   0  0  0  0  0  0  0  0  0  0  0  0
   -6.5320   19.5720  -32.3220 C   0  0  0  0  0  0  0  0  0  0  0  0
   -6.0130   18.2130  -32.6940 C   0  0  0  0  0  0  0  0  0  0  0  0
   -5.0621   18.0295  -32.1723 H   0  0  0  0  0  0  0  0  0  0  0  0
   -6.7490   17.4498  -32.4010 H   0  0  0  0  0  0  0  0  0  0  0  0
   -5.7250   18.1240  -34.6060 Br  0  0  0  0  0  0  0  0  0  0  0  0
   -5.6270   20.5980  -31.9720 C   0  0  0  0  0  0  0  0  0  0  0  0
   -4.5414   20.4213  -31.9850 H   0  0  0  0  0  0  0  0  0  0  0  0
   -6.1470   21.8460  -31.6080 C   0  0  0  0  0  0  0  0  0  0  0  0
   -7.5010   22.0570  -31.5440 C   0  0  0  0  0  0  0  0  0  0  0  0
   -8.4220   21.0630  -31.8630 C   0  0  0  0  0  0  0  0  0  0  0  0
   -9.5040   21.2533  -31.8076 H   0  0  0  0  0  0  0  0  0  0  0  0
   -7.7060   23.3390  -31.0870 C   0  0  0  0  0  0  0  0  0  0  0  0
   -8.6702   23.8375  -30.9089 H   0  0  0  0  0  0  0  0  0  0  0  0
   -6.4320   23.8710  -30.8980 C   0  0  0  0  0  0  0  0  0  0  0  0
   -6.1820   25.2510  -30.4360 C   0  0  0  0  0  0  0  0  0  0  0  0
   -5.6410   26.0760  -31.2210 O   0  0  0  0  0  0  0  0  0  0  0  0
   -6.4910   25.6550  -29.1010 N   0  0  0  0  0  0  0  0  0  0  0  0
   -6.7630   24.9570  -28.3750 H   0  0  0  0  0  0  0  0  0  0  0  0
   -6.3540   26.6480  -28.8120 H   0  0  0  0  0  0  0  0  0  0  0  0
   -5.4770   22.9520  -31.2190 N   0  0  0  0  0  0  0  0  0  0  0  0
   -4.0560   23.0710  -31.0350 C   0  0  0  0  0  0  0  0  0  0  0  0
   -3.2810   22.3890  -31.7580 O   0  0  0  0  0  0  0  0  0  0  0  0
   -3.5210   23.9320  -29.9580 C   0  0  0  0  0  0  0  0  0  0  0  0
   -3.4670   25.3020  -30.2000 O   0  0  0  0  0  0  0  0  0  0  0  0
   -3.0680   23.4570  -28.7840 C   0  0  0  0  0  0  0  0  0  0  0  0
   -2.9870   21.5880  -28.3570 Br  0  0  0  0  0  0  0  0  0  0  0  0
   -2.4310   24.5880  -27.5430 S   0  0  0  0  0  0  0  0  0  0  0  0
   -1.0690   25.1060  -28.5800 C   0  0  0  0  0  0  0  0  0  0  0  0
   -1.1770   26.1340  -29.2970 O   0  0  0  0  0  0  0  0  0  0  0  0
    0.1080   24.3690  -28.5990 O   0  0  0  0  0  0  0  0  0  0  0  0
  1  2  1  0
  2  3  2  0
  3  4  1  0
  4  5  1  0
  4  6  1  0
  4  7  1  0
  3  8  1  0
  8  9  1  0
  8 10  2  0
 10 11  1  0
 11 12  2  0
 12 13  1  0
 11 14  1  0
 14 15  1  0
 14 16  2  0
 16 17  1  0
 17 18  2  0
 17 19  1  0
 19 20  1  0
 19 21  1  0
 16 22  1  0
 22 23  1  0
 23 24  2  0
 23 25  1  0
 25 26  1  0
 25 27  2  0
 27 28  1  0
 27 29  1  0
 29 30  1  0
 30 31  2  0
 30 32  1  0
 12  2  1  0
 22 10  1  0
M  CHG  2  26  -1  32  -1
M  END
>  <UniqueID>  (59) 
58

>  <SMILES>  (59) 
NC(=O)c1cc2ccc(CBr)cc2n1C(=O)/C([O-])=C(\Br)SC(=O)[O-]

>  <Energy>  (59) 
71.15910873183905

>  <Genealogy>  (59) 
NC(=O)c1cc2ccc(CBr)cc2n1C(=O)/C([O-])=C(\Br)SC(=O)[O-] (protonated)
NC(=O)c1cc2ccc(CBr)cc2n1C(=O)/C([O-])=C(\Br)SC(=O)[O-] (cis-trans isomerization)
NC(=O)c1cc2ccc(CBr)cc2n1C(=O)/C([O-])=C(\Br)SC(=O)[O-] (3D coordinates assigned)
NC(=O)c1cc2ccc(CBr)cc2n1C(=O)/C([O-])=C(\Br)SC(=O)[O-] (optimized conformer: 71.15910873183905 kcal/mol)

>  <smiles>  (59) 
NC(=O)c1cc2ccc(CBr)cc2n1C(=O)/C(O)=C(\Br)SC(=O)O

>  <score_type>  (59) 
oracle

>  <origin>  (59) 
adg

>  <m_score__min__energy>  (59) 
-15.31

>  <m_primary>  (59) 
energy

$$$$
59:0
     RDKit          3D

 43 45  0  0  0  0  0  0  0  0999 V2000
   -3.8910   25.2960  -30.9330 N   0  0  0  0  0  0  0  0  0  0  0  0
   -5.2390   25.2050  -30.4790 C   0  0  0  0  0  0  0  0  0  0  0  0
   -5.7190   26.1390  -29.7810 O   0  0  0  0  0  0  0  0  0  0  0  0
   -6.0950   24.0640  -30.8630 C   0  0  0  0  0  0  0  0  0  0  0  0
   -7.4870   24.1140  -30.8510 C   0  0  0  0  0  0  0  0  0  0  0  0
   -7.8990   22.9010  -31.3530 C   0  0  0  0  0  0  0  0  0  0  0  0
   -9.1840   22.4070  -31.5570 C   0  0  0  0  0  0  0  0  0  0  0  0
   -9.3170   21.1050  -32.0650 C   0  0  0  0  0  0  0  0  0  0  0  0
   -8.1710   20.3160  -32.3450 C   0  0  0  0  0  0  0  0  0  0  0  0
   -8.3190   18.9880  -32.8860 N   0  0  0  0  0  0  0  0  0  0  0  0
   -7.0310   18.3450  -32.9440 C   0  0  0  0  0  0  0  0  0  0  0  0
   -6.6380   17.4460  -31.9340 C   0  0  0  0  0  0  0  0  0  0  0  0
   -5.3760   16.8460  -31.9770 C   0  0  0  0  0  0  0  0  0  0  0  0
   -4.4940   17.1400  -33.0190 C   0  0  0  0  0  0  0  0  0  0  0  0
   -4.8700   18.0380  -34.0220 C   0  0  0  0  0  0  0  0  0  0  0  0
   -4.0120   18.3270  -35.0290 F   0  0  0  0  0  0  0  0  0  0  0  0
   -6.1310   18.6420  -33.9840 C   0  0  0  0  0  0  0  0  0  0  0  0
   -6.8820   20.8560  -32.1300 C   0  0  0  0  0  0  0  0  0  0  0  0
   -6.7800   22.1640  -31.6420 C   0  0  0  0  0  0  0  0  0  0  0  0
   -5.6630   22.8650  -31.3450 N   0  0  0  0  0  0  0  0  0  0  0  0
   -4.3100   22.3880  -31.4230 C   0  0  0  0  0  0  0  0  0  0  0  0
   -3.8270   22.0370  -32.5340 O   0  0  0  0  0  0  0  0  0  0  0  0
   -3.5390   22.2980  -30.2600 O   0  0  0  0  0  0  0  0  0  0  0  0
   -2.1700   22.6890  -30.2100 C   0  0  0  0  0  0  0  0  0  0  0  0
   -1.8340   23.2470  -28.8270 C   0  0  0  0  0  0  0  0  0  0  0  0
   -3.0100   23.5690  -28.1700 F   0  0  0  0  0  0  0  0  0  0  0  0
   -1.1700   22.2830  -28.0890 F   0  0  0  0  0  0  0  0  0  0  0  0
   -0.9740   24.4710  -28.9430 C   0  0  0  0  0  0  0  0  0  0  0  0
    0.2470   24.4210  -28.6340 O   0  0  0  0  0  0  0  0  0  0  0  0
   -1.5330   25.6810  -29.3360 O   0  0  0  0  0  0  0  0  0  0  0  0
   -3.0950   25.2930  -30.2580 H   0  0  0  0  0  0  0  0  0  0  0  0
   -8.1217   24.9461  -30.5123 H   0  0  0  0  0  0  0  0  0  0  0  0
  -10.0690   23.0184  -31.3271 H   0  0  0  0  0  0  0  0  0  0  0  0
  -10.3200   20.6920  -32.2479 H   0  0  0  0  0  0  0  0  0  0  0  0
   -8.7420   19.0340  -33.8430 H   0  0  0  0  0  0  0  0  0  0  0  0
   -8.9750   18.4300  -32.2920 H   0  0  0  0  0  0  0  0  0  0  0  0
   -7.3266   17.2149  -31.1079 H   0  0  0  0  0  0  0  0  0  0  0  0
   -5.0770   16.1404  -31.1879 H   0  0  0  0  0  0  0  0  0  0  0  0
   -3.5026   16.6645  -33.0505 H   0  0  0  0  0  0  0  0  0  0  0  0
   -6.4207   19.3532  -34.7716 H   0  0  0  0  0  0  0  0  0  0  0  0
   -5.9805   20.2621  -32.3413 H   0  0  0  0  0  0  0  0  0  0  0  0
   -1.5342   21.8149  -30.4141 H   0  0  0  0  0  0  0  0  0  0  0  0
   -1.9897   23.4673  -30.9661 H   0  0  0  0  0  0  0  0  0  0  0  0
  1  2  1  0
  2  3  2  0
  2  4  1  0
  4  5  2  0
  5  6  1  0
  6  7  2  0
  7  8  1  0
  8  9  2  0
  9 10  1  0
 10 11  1  0
 11 12  2  0
 12 13  1  0
 13 14  2  0
 14 15  1  0
 15 16  1  0
 15 17  2  0
  9 18  1  0
 18 19  2  0
 19 20  1  0
 20 21  1  0
 21 22  2  0
 21 23  1  0
 23 24  1  0
 24 25  1  0
 25 26  1  0
 25 27  1  0
 25 28  1  0
 28 29  2  0
 28 30  1  0
 20  4  1  0
 19  6  1  0
 17 11  1  0
  1 31  1  0
  5 32  1  0
  7 33  1  0
  8 34  1  0
 10 35  1  0
 10 36  1  0
 12 37  1  0
 13 38  1  0
 14 39  1  0
 17 40  1  0
 18 41  1  0
 24 42  1  0
 24 43  1  0
M  CHG  3   1  -1  10   1  30  -1
M  END
>  <UniqueID>  (60) 
59

>  <SMILES>  (60) 
[NH-]C(=O)c1cc2ccc([NH2+]c3cccc(F)c3)cc2n1C(=O)OCC(F)(F)C(=O)[O-]

>  <Energy>  (60) 
81.62085741583424

>  <Genealogy>  (60) 
[NH-]C(=O)c1cc2ccc([NH2+]c3cccc(F)c3)cc2n1C(=O)OCC(F)(F)C(=O)[O-] (protonated)
[NH-]C(=O)c1cc2ccc([NH2+]c3cccc(F)c3)cc2n1C(=O)OCC(F)(F)C(=O)[O-] (3D coordinates assigned)
[NH-]C(=O)c1cc2ccc([NH2+]c3cccc(F)c3)cc2n1C(=O)OCC(F)(F)C(=O)[O-] (optimized conformer: 81.62085741583424 kcal/mol)

>  <smiles>  (60) 
NC(=O)c1cc2ccc(Nc3cccc(F)c3)cc2n1C(=O)OCC(F)(F)C(=O)O

>  <score_type>  (60) 
oracle

>  <origin>  (60) 
adg

>  <m_score__min__energy>  (60) 
-13.220000000000001

>  <m_primary>  (60) 
energy

$$$$
60:0
     RDKit          3D

 39 40  0  0  0  0  0  0  0  0999 V2000
   -6.0710   17.3030  -34.1520 C   0  0  0  0  0  0  0  0  0  0  0  0
   -6.2900   18.2290  -32.9470 C   0  0  0  0  0  0  0  0  0  0  0  0
   -6.1160   17.4320  -31.6430 C   0  0  0  0  0  0  0  0  0  0  0  0
   -7.6250   18.8610  -33.0300 N   0  0  0  0  0  0  0  0  0  0  0  0
   -7.6200   20.1950  -32.4770 C   0  0  0  0  0  0  0  0  0  0  0  0
   -8.8450   20.8520  -32.1890 C   0  0  0  0  0  0  0  0  0  0  0  0
   -8.8570   22.1590  -31.6710 C   0  0  0  0  0  0  0  0  0  0  0  0
   -7.6330   22.7830  -31.4500 C   0  0  0  0  0  0  0  0  0  0  0  0
   -7.3520   24.0430  -30.9710 C   0  0  0  0  0  0  0  0  0  0  0  0
   -5.9610   24.1320  -30.9600 C   0  0  0  0  0  0  0  0  0  0  0  0
   -5.2160   25.2930  -30.4300 C   0  0  0  0  0  0  0  0  0  0  0  0
   -3.8790   25.5360  -30.8610 N   0  0  0  0  0  0  0  0  0  0  0  0
   -5.7600   26.0910  -29.6210 O   0  0  0  0  0  0  0  0  0  0  0  0
   -5.4070   22.9780  -31.4250 N   0  0  0  0  0  0  0  0  0  0  0  0
   -4.0170   22.6790  -31.6240 C   0  0  0  0  0  0  0  0  0  0  0  0
   -3.1860   22.9510  -30.7170 O   0  0  0  0  0  0  0  0  0  0  0  0
   -3.5560   21.9600  -32.8600 C   0  0  0  0  0  0  0  0  0  0  0  0
   -2.8360   20.6590  -32.5090 C   0  0  0  0  0  0  0  0  0  0  0  0
   -3.1030   19.4170  -33.7600 Cl  0  0  0  0  0  0  0  0  0  0  0  0
   -6.4410   22.1600  -31.7120 C   0  0  0  0  0  0  0  0  0  0  0  0
   -6.3980   20.8650  -32.2370 C   0  0  0  0  0  0  0  0  0  0  0  0
   -5.8314   16.2898  -33.7970 H   0  0  0  0  0  0  0  0  0  0  0  0
   -6.9864   17.2712  -34.7611 H   0  0  0  0  0  0  0  0  0  0  0  0
   -5.2383   17.6846  -34.7611 H   0  0  0  0  0  0  0  0  0  0  0  0
   -5.5402   19.0338  -32.9549 H   0  0  0  0  0  0  0  0  0  0  0  0
   -6.2621   18.1010  -30.7821 H   0  0  0  0  0  0  0  0  0  0  0  0
   -6.8582   16.6209  -31.6072 H   0  0  0  0  0  0  0  0  0  0  0  0
   -5.1033   17.0041  -31.6072 H   0  0  0  0  0  0  0  0  0  0  0  0
   -7.9200   18.9280  -34.0320 H   0  0  0  0  0  0  0  0  0  0  0  0
   -8.3330   18.2660  -32.5380 H   0  0  0  0  0  0  0  0  0  0  0  0
   -9.7967   20.3321  -32.3734 H   0  0  0  0  0  0  0  0  0  0  0  0
   -9.8040   22.6721  -31.4475 H   0  0  0  0  0  0  0  0  0  0  0  0
   -8.0722   24.8152  -30.6626 H   0  0  0  0  0  0  0  0  0  0  0  0
   -3.0690   25.1040  -30.3630 H   0  0  0  0  0  0  0  0  0  0  0  0
   -4.4298   21.7282  -33.4867 H   0  0  0  0  0  0  0  0  0  0  0  0
   -2.8526   22.6117  -33.3990 H   0  0  0  0  0  0  0  0  0  0  0  0
   -1.7573   20.8573  -32.4246 H   0  0  0  0  0  0  0  0  0  0  0  0
   -3.2372   20.2850  -31.5555 H   0  0  0  0  0  0  0  0  0  0  0  0
   -5.4364   20.3788  -32.4582 H   0  0  0  0  0  0  0  0  0  0  0  0
  1  2  1  0
  2  3  1  0
  2  4  1  0
  4  5  1  0
  5  6  2  0
  6  7  1  0
  7  8  2  0
  8  9  1  0
  9 10  2  0
 10 11  1  0
 11 12  1  0
 11 13  2  0
 10 14  1  0
 14 15  1  0
 15 16  2  0
 15 17  1  0
 17 18  1  0
 18 19  1  0
 14 20  1  0
 20 21  2  0
 21  5  1  0
 20  8  1  0
  1 22  1  0
  1 23  1  0
  1 24  1  0
  2 25  1  0
  3 26  1  0
  3 27  1  0
  3 28  1  0
  4 29  1  0
  4 30  1  0
  6 31  1  0
  7 32  1  0
  9 33  1  0
 12 34  1  0
 17 35  1  0
 17 36  1  0
 18 37  1  0
 18 38  1  0
 21 39  1  0
M  CHG  2   4   1  12  -1
M  END
>  <UniqueID>  (61) 
60

>  <SMILES>  (61) 
CC(C)[NH2+]c1ccc2cc(C([NH-])=O)n(C(=O)CCCl)c2c1

>  <Energy>  (61) 
72.04064308573068

>  <Genealogy>  (61) 
CC(C)[NH2+]c1ccc2cc(C([NH-])=O)n(C(=O)CCCl)c2c1 (protonated)
CC(C)[NH2+]c1ccc2cc(C([NH-])=O)n(C(=O)CCCl)c2c1 (3D coordinates assigned)
CC(C)[NH2+]c1ccc2cc(C([NH-])=O)n(C(=O)CCCl)c2c1 (optimized conformer: 72.04064308573068 kcal/mol)

>  <smiles>  (61) 
CC(C)Nc1ccc2cc(C(N)=O)n(C(=O)CCCl)c2c1

>  <score_type>  (61) 
oracle

>  <origin>  (61) 
adg

>  <m_score__min__energy>  (61) 
-10.23

>  <m_primary>  (61) 
energy

$$$$
61:0
     RDKit          3D

 43 44  0  0  0  0  0  0  0  0999 V2000
   -6.2920   17.2010  -32.5620 C   0  0  0  0  0  0  0  0  0  0  0  0
   -7.6900   17.8080  -32.5940 C   0  0  0  0  0  0  0  0  0  0  0  0
   -7.6420   19.2730  -32.2530 C   0  0  0  0  0  0  0  0  0  0  0  0
   -8.8170   20.0620  -32.3380 C   0  0  0  0  0  0  0  0  0  0  0  0
   -8.7910   21.4240  -31.9890 C   0  0  0  0  0  0  0  0  0  0  0  0
   -7.5830   21.9640  -31.5580 C   0  0  0  0  0  0  0  0  0  0  0  0
   -7.2760   23.2420  -31.1420 C   0  0  0  0  0  0  0  0  0  0  0  0
   -5.9200   23.2090  -30.8140 C   0  0  0  0  0  0  0  0  0  0  0  0
   -5.1320   24.3800  -30.3650 C   0  0  0  0  0  0  0  0  0  0  0  0
   -5.1420   24.7940  -28.9980 N   0  0  0  0  0  0  0  0  0  0  0  0
   -4.4490   25.0360  -31.1960 O   0  0  0  0  0  0  0  0  0  0  0  0
   -5.4150   21.9630  -31.0280 N   0  0  0  0  0  0  0  0  0  0  0  0
   -4.0780   21.5060  -30.7840 C   0  0  0  0  0  0  0  0  0  0  0  0
   -3.8670   20.7120  -29.8260 O   0  0  0  0  0  0  0  0  0  0  0  0
   -2.9850   21.9260  -31.6260 N   0  0  0  0  0  0  0  0  0  0  0  0
   -3.0940   21.6850  -33.0710 C   0  0  0  0  0  0  0  0  0  0  0  0
   -1.7460   22.4650  -31.0290 C   0  0  1  0  0  0  0  0  0  0  0  0
   -1.9780   22.8580  -29.5550 C   0  0  0  0  0  0  0  0  0  0  0  0
   -1.5770   24.2780  -29.2960 C   0  0  0  0  0  0  0  0  0  0  0  0
   -0.3870   24.5560  -28.9930 O   0  0  0  0  0  0  0  0  0  0  0  0
   -2.5280   25.2910  -29.3430 O   0  0  0  0  0  0  0  0  0  0  0  0
   -0.6000   21.4960  -31.1900 C   0  0  0  0  0  0  0  0  0  0  0  0
   -0.0430   21.3310  -32.3090 O   0  0  0  0  0  0  0  0  0  0  0  0
   -0.1500   20.7700  -30.0950 O   0  0  0  0  0  0  0  0  0  0  0  0
   -6.4410   21.2120  -31.4740 C   0  0  0  0  0  0  0  0  0  0  0  0
   -6.4390   19.8530  -31.7960 C   0  0  0  0  0  0  0  0  0  0  0  0
   -5.9757   17.0637  -31.5174 H   0  0  0  0  0  0  0  0  0  0  0  0
   -6.3035   16.2268  -33.0727 H   0  0  0  0  0  0  0  0  0  0  0  0
   -5.5881   17.8745  -33.0727 H   0  0  0  0  0  0  0  0  0  0  0  0
   -8.1138   17.6855  -33.6017 H   0  0  0  0  0  0  0  0  0  0  0  0
   -8.3164   17.2924  -31.8512 H   0  0  0  0  0  0  0  0  0  0  0  0
   -9.7572   19.6047  -32.6800 H   0  0  0  0  0  0  0  0  0  0  0  0
   -9.6976   22.0435  -32.0547 H   0  0  0  0  0  0  0  0  0  0  0  0
   -7.9557   24.1047  -31.0815 H   0  0  0  0  0  0  0  0  0  0  0  0
   -5.6370   24.2430  -28.2630 H   0  0  0  0  0  0  0  0  0  0  0  0
   -4.6120   25.6440  -28.7060 H   0  0  0  0  0  0  0  0  0  0  0  0
   -3.5416   20.6954  -33.2449 H   0  0  0  0  0  0  0  0  0  0  0  0
   -3.7293   22.4597  -33.5250 H   0  0  0  0  0  0  0  0  0  0  0  0
   -2.0927   21.7195  -33.5250 H   0  0  0  0  0  0  0  0  0  0  0  0
   -1.4661   23.3809  -31.5702 H   0  0  0  0  0  0  0  0  0  0  0  0
   -3.0453   22.7389  -29.3170 H   0  0  0  0  0  0  0  0  0  0  0  0
   -1.3604   22.2039  -28.9220 H   0  0  0  0  0  0  0  0  0  0  0  0
   -5.5241   19.2505  -31.6961 H   0  0  0  0  0  0  0  0  0  0  0  0
  1  2  1  0
  2  3  1  0
  3  4  2  0
  4  5  1  0
  5  6  2  0
  6  7  1  0
  7  8  2  0
  8  9  1  0
  9 10  1  0
  9 11  2  0
  8 12  1  0
 12 13  1  0
 13 14  2  0
 13 15  1  0
 15 16  1  0
 15 17  1  0
 17 18  1  0
 18 19  1  0
 19 20  2  0
 19 21  1  0
 17 22  1  0
 22 23  2  0
 22 24  1  0
 12 25  1  0
 25 26  2  0
 26  3  1  0
 25  6  1  0
  1 27  1  0
  1 28  1  0
  1 29  1  0
  2 30  1  0
  2 31  1  0
  4 32  1  0
  5 33  1  0
  7 34  1  0
 10 35  1  0
 10 36  1  0
 16 37  1  0
 16 38  1  0
 16 39  1  0
 17 40  1  6
 18 41  1  0
 18 42  1  0
 26 43  1  0
M  CHG  2  21  -1  24  -1
M  END
>  <UniqueID>  (62) 
61

>  <SMILES>  (62) 
CCc1ccc2cc(C(N)=O)n(C(=O)N(C)[C@@H](CC(=O)[O-])C(=O)[O-])c2c1

>  <Energy>  (62) 
76.2214940416173

>  <Genealogy>  (62) 
CCc1ccc2cc(C(N)=O)n(C(=O)N(C)C(CC(=O)[O-])C(=O)[O-])c2c1 (protonated)
CCc1ccc2cc(C(N)=O)n(C(=O)N(C)[C@@H](CC(=O)[O-])C(=O)[O-])c2c1 (chirality)
CCc1ccc2cc(C(N)=O)n(C(=O)N(C)[C@@H](CC(=O)[O-])C(=O)[O-])c2c1 (3D coordinates assigned)
CCc1ccc2cc(C(N)=O)n(C(=O)N(C)[C@@H](CC(=O)[O-])C(=O)[O-])c2c1 (optimized conformer: 76.2214940416173 kcal/mol)

>  <smiles>  (62) 
CCc1ccc2cc(C(N)=O)n(C(=O)N(C)C(CC(=O)O)C(=O)O)c2c1

>  <score_type>  (62) 
oracle

>  <origin>  (62) 
adg

>  <m_score__min__energy>  (62) 
-11.5

>  <m_primary>  (62) 
energy

$$$$
62:0
     RDKit          3D

 35 36  0  0  0  0  0  0  0  0999 V2000
   -4.1000   23.6450  -27.6970 C   0  0  0  0  0  0  0  0  0  0  0  0
   -3.0580   22.9140  -28.4270 N   0  0  0  0  0  0  0  0  0  0  0  0
   -1.6470   23.1390  -28.0800 C   0  0  0  0  0  0  0  0  0  0  0  0
   -1.1080   24.3420  -28.7910 C   0  0  0  0  0  0  0  0  0  0  0  0
    0.1330   24.4720  -28.9570 O   0  0  0  0  0  0  0  0  0  0  0  0
   -1.9730   25.2900  -29.3250 O   0  0  0  0  0  0  0  0  0  0  0  0
   -3.4500   22.0810  -29.5400 C   0  0  0  0  0  0  0  0  0  0  0  0
   -3.3750   20.8270  -29.4220 O   0  0  0  0  0  0  0  0  0  0  0  0
   -3.9300   22.6380  -30.8250 C   0  0  0  0  0  0  0  0  0  0  0  0
   -3.1200   22.9550  -31.7340 O   0  0  0  0  0  0  0  0  0  0  0  0
   -5.3340   22.8310  -31.0480 N   0  0  0  0  0  0  0  0  0  0  0  0
   -6.0500   23.9870  -30.9480 C   0  0  0  0  0  0  0  0  0  0  0  0
   -5.5210   25.2910  -30.4980 C   0  0  0  0  0  0  0  0  0  0  0  0
   -4.1910   25.6750  -30.8400 N   0  0  0  0  0  0  0  0  0  0  0  0
   -6.2390   26.0800  -29.8300 O   0  0  0  0  0  0  0  0  0  0  0  0
   -7.3860   23.7580  -31.2730 C   0  0  0  0  0  0  0  0  0  0  0  0
   -7.4670   22.4150  -31.5650 C   0  0  0  0  0  0  0  0  0  0  0  0
   -8.5580   21.6390  -31.9480 C   0  0  0  0  0  0  0  0  0  0  0  0
   -8.3420   20.2720  -32.1910 C   0  0  0  0  0  0  0  0  0  0  0  0
   -7.0500   19.7100  -32.0480 C   0  0  0  0  0  0  0  0  0  0  0  0
   -6.8420   18.3180  -32.3010 N   0  0  0  0  0  0  0  0  0  0  0  0
   -5.9660   20.5240  -31.6560 C   0  0  0  0  0  0  0  0  0  0  0  0
   -6.2140   21.8800  -31.4160 C   0  0  0  0  0  0  0  0  0  0  0  0
   -3.9380   23.5313  -26.6149 H   0  0  0  0  0  0  0  0  0  0  0  0
   -4.0558   24.7111  -27.9644 H   0  0  0  0  0  0  0  0  0  0  0  0
   -5.0874   23.2406  -27.9644 H   0  0  0  0  0  0  0  0  0  0  0  0
   -1.5633   23.2946  -26.9943 H   0  0  0  0  0  0  0  0  0  0  0  0
   -1.0643   22.2581  -28.3874 H   0  0  0  0  0  0  0  0  0  0  0  0
   -3.4230   24.9680  -30.8810 H   0  0  0  0  0  0  0  0  0  0  0  0
   -8.2028   24.4945  -31.2921 H   0  0  0  0  0  0  0  0  0  0  0  0
   -9.5586   22.0827  -32.0570 H   0  0  0  0  0  0  0  0  0  0  0  0
   -9.1839   19.6327  -32.4950 H   0  0  0  0  0  0  0  0  0  0  0  0
   -6.9590   17.9260  -33.2610 H   0  0  0  0  0  0  0  0  0  0  0  0
   -6.5720   17.6700  -31.5270 H   0  0  0  0  0  0  0  0  0  0  0  0
   -4.9554   20.1047  -31.5424 H   0  0  0  0  0  0  0  0  0  0  0  0
  1  2  1  0
  2  3  1  0
  3  4  1  0
  4  5  2  0
  4  6  1  0
  2  7  1  0
  7  8  2  0
  7  9  1  0
  9 10  2  0
  9 11  1  0
 11 12  1  0
 12 13  1  0
 13 14  1  0
 13 15  2  0
 12 16  2  0
 16 17  1  0
 17 18  2  0
 18 19  1  0
 19 20  2  0
 20 21  1  0
 20 22  1  0
 22 23  2  0
 23 11  1  0
 23 17  1  0
  1 24  1  0
  1 25  1  0
  1 26  1  0
  3 27  1  0
  3 28  1  0
 14 29  1  0
 16 30  1  0
 18 31  1  0
 19 32  1  0
 21 33  1  0
 21 34  1  0
 22 35  1  0
M  CHG  2   6  -1  14  -1
M  END
>  <UniqueID>  (63) 
62

>  <SMILES>  (63) 
CN(CC(=O)[O-])C(=O)C(=O)n1c(C([NH-])=O)cc2ccc(N)cc21

>  <Energy>  (63) 
75.03966778395535

>  <Genealogy>  (63) 
CN(CC(=O)[O-])C(=O)C(=O)n1c(C([NH-])=O)cc2ccc(N)cc21 (protonated)
CN(CC(=O)[O-])C(=O)C(=O)n1c(C([NH-])=O)cc2ccc(N)cc21 (3D coordinates assigned)
CN(CC(=O)[O-])C(=O)C(=O)n1c(C([NH-])=O)cc2ccc(N)cc21 (optimized conformer: 75.03966778395535 kcal/mol)

>  <smiles>  (63) 
CN(CC(=O)O)C(=O)C(=O)n1c(C(N)=O)cc2ccc(N)cc21

>  <score_type>  (63) 
oracle

>  <origin>  (63) 
adg

>  <m_score__min__energy>  (63) 
-11.65

>  <m_primary>  (63) 
energy

$$$$
63:0
     RDKit          3D

 44 45  0  0  0  0  0  0  0  0999 V2000
   -9.4170   18.2860  -31.8810 C   0  0  0  0  0  0  0  0  0  0  0  0
   -8.8680   19.4760  -32.6750 C   0  0  0  0  0  0  0  0  0  0  0  0
   -8.9430   20.7580  -31.8420 C   0  0  0  0  0  0  0  0  0  0  0  0
   -7.4810   19.2220  -33.0750 N   0  0  0  0  0  0  0  0  0  0  0  0
   -6.5200   18.6390  -32.1810 C   0  0  0  0  0  0  0  0  0  0  0  0
   -6.8450   18.3690  -30.9920 O   0  0  0  0  0  0  0  0  0  0  0  0
   -5.1510   18.2700  -32.6900 C   0  0  1  0  0  0  0  0  0  0  0  0
   -5.2300   17.2000  -33.7930 C   0  0  0  0  0  0  0  0  0  0  0  0
   -5.2780   17.8330  -35.1500 C   0  0  0  0  0  0  0  0  0  0  0  0
   -4.5290   17.4130  -36.0710 O   0  0  0  0  0  0  0  0  0  0  0  0
   -6.1100   18.9200  -35.3800 O   0  0  0  0  0  0  0  0  0  0  0  0
   -4.4970   19.4790  -33.2000 N   0  0  0  0  0  0  0  0  0  0  0  0
   -3.4750   20.1790  -32.4730 C   0  0  0  0  0  0  0  0  0  0  0  0
   -2.1820   19.6120  -32.3760 C   0  0  0  0  0  0  0  0  0  0  0  0
   -1.1600   20.2700  -31.6740 C   0  0  0  0  0  0  0  0  0  0  0  0
   -1.4640   21.4820  -31.0620 C   0  0  0  0  0  0  0  0  0  0  0  0
   -0.6640   22.3320  -30.3350 C   0  0  0  0  0  0  0  0  0  0  0  0
   -1.4900   23.3870  -29.9590 C   0  0  0  0  0  0  0  0  0  0  0  0
   -1.0480   24.4920  -29.0820 C   0  0  0  0  0  0  0  0  0  0  0  0
   -1.8540   25.6600  -28.9540 N   0  0  0  0  0  0  0  0  0  0  0  0
    0.0530   24.4320  -28.4730 O   0  0  0  0  0  0  0  0  0  0  0  0
   -2.7530   23.2030  -30.4420 N   0  0  0  0  0  0  0  0  0  0  0  0
   -3.8790   24.0900  -30.3280 C   0  0  0  0  0  0  0  0  0  0  0  0
   -4.9270   23.7170  -29.7360 O   0  0  0  0  0  0  0  0  0  0  0  0
   -3.8150   25.3760  -30.8490 O   0  0  0  0  0  0  0  0  0  0  0  0
   -2.7200   22.0300  -31.1140 C   0  0  0  0  0  0  0  0  0  0  0  0
   -3.7520   21.4050  -31.8240 C   0  0  0  0  0  0  0  0  0  0  0  0
   -9.3232   18.4892  -30.8040 H   0  0  0  0  0  0  0  0  0  0  0  0
  -10.4765   18.1335  -32.1345 H   0  0  0  0  0  0  0  0  0  0  0  0
   -8.8454   17.3810  -32.1345 H   0  0  0  0  0  0  0  0  0  0  0  0
   -9.4840   19.6044  -33.5772 H   0  0  0  0  0  0  0  0  0  0  0  0
   -8.9280   20.5017  -30.7724 H   0  0  0  0  0  0  0  0  0  0  0  0
   -8.0808   21.3993  -32.0775 H   0  0  0  0  0  0  0  0  0  0  0  0
   -9.8741   21.2943  -32.0775 H   0  0  0  0  0  0  0  0  0  0  0  0
   -7.1870   19.4300  -34.0570 H   0  0  0  0  0  0  0  0  0  0  0  0
   -4.5655   17.8437  -31.8621 H   0  0  0  0  0  0  0  0  0  0  0  0
   -4.3439   16.5513  -33.7294 H   0  0  0  0  0  0  0  0  0  0  0  0
   -6.1482   16.6121  -33.6470 H   0  0  0  0  0  0  0  0  0  0  0  0
   -4.9660   19.9820  -33.9880 H   0  0  0  0  0  0  0  0  0  0  0  0
   -1.9754   18.6442  -32.8564 H   0  0  0  0  0  0  0  0  0  0  0  0
   -0.1494   19.8405  -31.6097 H   0  0  0  0  0  0  0  0  0  0  0  0
    0.4031   22.2049  -30.1003 H   0  0  0  0  0  0  0  0  0  0  0  0
   -2.8310   25.6800  -29.3230 H   0  0  0  0  0  0  0  0  0  0  0  0
   -4.7538   21.8562  -31.8759 H   0  0  0  0  0  0  0  0  0  0  0  0
  1  2  1  0
  2  3  1  0
  2  4  1  0
  4  5  1  0
  5  6  2  0
  5  7  1  0
  7  8  1  0
  8  9  1  0
  9 10  2  0
  9 11  1  0
  7 12  1  0
 12 13  1  0
 13 14  2  0
 14 15  1  0
 15 16  2  0
 16 17  1  0
 17 18  2  0
 18 19  1  0
 19 20  1  0
 19 21  2  0
 18 22  1  0
 22 23  1  0
 23 24  2  0
 23 25  1  0
 22 26  1  0
 26 27  2  0
 27 13  1  0
 26 16  1  0
  1 28  1  0
  1 29  1  0
  1 30  1  0
  2 31  1  0
  3 32  1  0
  3 33  1  0
  3 34  1  0
  4 35  1  0
  7 36  1  1
  8 37  1  0
  8 38  1  0
 12 39  1  0
 14 40  1  0
 15 41  1  0
 17 42  1  0
 20 43  1  0
 27 44  1  0
M  CHG  3  11  -1  20  -1  25  -1
M  END
>  <UniqueID>  (64) 
63

>  <SMILES>  (64) 
CC(C)NC(=O)[C@@H](CC(=O)[O-])Nc1ccc2cc(C([NH-])=O)n(C(=O)[O-])c2c1

>  <Energy>  (64) 
75.6065936379921

>  <Genealogy>  (64) 
CC(C)NC(=O)C(CC(=O)[O-])Nc1ccc2cc(C([NH-])=O)n(C(=O)[O-])c2c1 (protonated)
CC(C)NC(=O)[C@@H](CC(=O)[O-])Nc1ccc2cc(C([NH-])=O)n(C(=O)[O-])c2c1 (chirality)
CC(C)NC(=O)[C@@H](CC(=O)[O-])Nc1ccc2cc(C([NH-])=O)n(C(=O)[O-])c2c1 (3D coordinates assigned)
CC(C)NC(=O)[C@@H](CC(=O)[O-])Nc1ccc2cc(C([NH-])=O)n(C(=O)[O-])c2c1 (optimized conformer: 75.6065936379921 kcal/mol)

>  <smiles>  (64) 
CC(C)NC(=O)C(CC(=O)O)Nc1ccc2cc(C(N)=O)n(C(=O)O)c2c1

>  <score_type>  (64) 
oracle

>  <origin>  (64) 
adg

>  <m_score__min__energy>  (64) 
-11.76

>  <m_primary>  (64) 
energy

$$$$
64:0
     RDKit          3D

 38 40  0  0  0  0  0  0  0  0999 V2000
   -4.3090   25.6530  -30.7620 N   0  0  0  0  0  0  0  0  0  0  0  0
   -5.5390   25.1590  -30.2240 C   0  0  0  0  0  0  0  0  0  0  0  0
   -6.0770   25.7710  -29.2640 O   0  0  0  0  0  0  0  0  0  0  0  0
   -6.1560   23.9250  -30.7600 C   0  0  0  0  0  0  0  0  0  0  0  0
   -7.5290   23.6810  -30.7620 C   0  0  0  0  0  0  0  0  0  0  0  0
   -7.6850   22.4880  -31.4280 C   0  0  0  0  0  0  0  0  0  0  0  0
   -8.8410   21.7650  -31.7050 C   0  0  0  0  0  0  0  0  0  0  0  0
   -8.7060   20.5430  -32.3850 C   0  0  0  0  0  0  0  0  0  0  0  0
   -7.4270   20.0710  -32.7800 C   0  0  0  0  0  0  0  0  0  0  0  0
   -7.2720   18.8050  -33.4450 N   0  0  0  0  0  0  0  0  0  0  0  0
   -6.0150   18.1340  -33.6050 C   0  0  0  0  0  0  0  0  0  0  0  0
   -5.1610   18.3580  -34.6280 N   0  0  0  0  0  0  0  0  0  0  0  0
   -4.0220   17.6280  -34.4970 C   0  0  0  0  0  0  0  0  0  0  0  0
   -3.9580   16.8300  -33.3610 C   0  0  0  0  0  0  0  0  0  0  0  0
   -5.3810   17.0490  -32.4890 S   0  0  0  0  0  0  0  0  0  0  0  0
   -6.2770   20.8240  -32.4610 C   0  0  0  0  0  0  0  0  0  0  0  0
   -6.4420   22.0480  -31.8010 C   0  0  0  0  0  0  0  0  0  0  0  0
   -5.4910   22.9200  -31.3980 N   0  0  0  0  0  0  0  0  0  0  0  0
   -4.0710   22.7700  -31.5610 C   0  0  0  0  0  0  0  0  0  0  0  0
   -3.6160   22.0680  -32.5060 O   0  0  0  0  0  0  0  0  0  0  0  0
   -3.1990   23.4160  -30.6820 O   0  0  0  0  0  0  0  0  0  0  0  0
   -3.0520   23.0310  -29.3190 C   0  0  0  0  0  0  0  0  0  0  0  0
   -2.5330   24.2140  -28.5100 C   0  0  0  0  0  0  0  0  0  0  0  0
   -2.2060   25.2790  -29.3610 O   0  0  0  0  0  0  0  0  0  0  0  0
   -3.8600   25.2050  -31.5900 H   0  0  0  0  0  0  0  0  0  0  0  0
   -3.8620   26.5020  -30.3490 H   0  0  0  0  0  0  0  0  0  0  0  0
   -8.3189   24.3090  -30.3242 H   0  0  0  0  0  0  0  0  0  0  0  0
   -9.8300   22.1386  -31.4010 H   0  0  0  0  0  0  0  0  0  0  0  0
   -9.6010   19.9457  -32.6137 H   0  0  0  0  0  0  0  0  0  0  0  0
   -8.1310   18.2970  -33.7500 H   0  0  0  0  0  0  0  0  0  0  0  0
   -3.2091   17.6661  -35.2371 H   0  0  0  0  0  0  0  0  0  0  0  0
   -3.1234   16.1706  -33.0807 H   0  0  0  0  0  0  0  0  0  0  0  0
   -5.2738   20.4579  -32.7248 H   0  0  0  0  0  0  0  0  0  0  0  0
   -4.0269   22.7137  -28.9204 H   0  0  0  0  0  0  0  0  0  0  0  0
   -2.3381   22.1971  -29.2485 H   0  0  0  0  0  0  0  0  0  0  0  0
   -3.3107   24.5396  -27.8034 H   0  0  0  0  0  0  0  0  0  0  0  0
   -1.6313   23.9044  -27.9613 H   0  0  0  0  0  0  0  0  0  0  0  0
   -1.7190   24.8870  -30.1320 H   0  0  0  0  0  0  0  0  0  0  0  0
  1  2  1  0
  2  3  2  0
  2  4  1  0
  4  5  2  0
  5  6  1  0
  6  7  2  0
  7  8  1  0
  8  9  2  0
  9 10  1  0
 10 11  1  0
 11 12  2  0
 12 13  1  0
 13 14  2  0
 14 15  1  0
  9 16  1  0
 16 17  2  0
 17 18  1  0
 18 19  1  0
 19 20  2  0
 19 21  1  0
 21 22  1  0
 22 23  1  0
 23 24  1  0
 18  4  1  0
 17  6  1  0
 15 11  1  0
  1 25  1  0
  1 26  1  0
  5 27  1  0
  7 28  1  0
  8 29  1  0
 10 30  1  0
 13 31  1  0
 14 32  1  0
 16 33  1  0
 22 34  1  0
 22 35  1  0
 23 36  1  0
 23 37  1  0
 24 38  1  0
M  END
>  <UniqueID>  (65) 
64

>  <SMILES>  (65) 
NC(=O)c1cc2ccc(Nc3nccs3)cc2n1C(=O)OCCO

>  <Energy>  (65) 
107.1877909695108

>  <Genealogy>  (65) 
NC(=O)c1cc2ccc(Nc3nccs3)cc2n1C(=O)OCCO (3D coordinates assigned)
NC(=O)c1cc2ccc(Nc3nccs3)cc2n1C(=O)OCCO (optimized conformer: 107.1877909695108 kcal/mol)

>  <smiles>  (65) 
NC(=O)c1cc2ccc(Nc3nccs3)cc2n1C(=O)OCCO

>  <score_type>  (65) 
oracle

>  <origin>  (65) 
adg

>  <m_score__min__energy>  (65) 
-8.9100000000000001

>  <m_primary>  (65) 
energy

$$$$
65:0
     RDKit          3D

 45 46  0  0  0  0  0  0  0  0999 V2000
   -3.7590   24.3340  -27.4340 C   0  0  0  0  0  0  0  0  0  0  0  0
   -2.7350   24.5170  -28.3860 O   0  0  0  0  0  0  0  0  0  0  0  0
   -1.5420   24.8800  -27.7230 C   0  0  0  0  0  0  0  0  0  0  0  0
   -0.3880   24.0430  -28.2620 C   0  0  0  0  0  0  0  0  0  0  0  0
   -0.3700   22.7840  -27.6110 O   0  0  0  0  0  0  0  0  0  0  0  0
    0.1200   21.7820  -28.4760 C   0  0  0  0  0  0  0  0  0  0  0  0
   -1.0190   21.2170  -29.2590 C   0  0  0  0  0  0  0  0  0  0  0  0
   -0.8090   20.2840  -30.0810 O   0  0  0  0  0  0  0  0  0  0  0  0
   -2.3480   21.7180  -29.0520 N   0  0  0  0  0  0  0  0  0  0  0  0
   -3.4630   21.3630  -29.9260 C   0  0  0  0  0  0  0  0  0  0  0  0
   -3.8700   22.5560  -30.7370 C   0  0  0  0  0  0  0  0  0  0  0  0
   -2.9910   23.2920  -31.2600 O   0  0  0  0  0  0  0  0  0  0  0  0
   -5.2570   22.8360  -30.9660 N   0  0  0  0  0  0  0  0  0  0  0  0
   -5.9060   24.0250  -30.8160 C   0  0  0  0  0  0  0  0  0  0  0  0
   -5.2900   25.3040  -30.4030 C   0  0  0  0  0  0  0  0  0  0  0  0
   -3.9820   25.6680  -30.8370 N   0  0  0  0  0  0  0  0  0  0  0  0
   -5.9310   26.0930  -29.6580 O   0  0  0  0  0  0  0  0  0  0  0  0
   -7.2510   23.8880  -31.1570 C   0  0  0  0  0  0  0  0  0  0  0  0
   -7.4040   22.5680  -31.5200 C   0  0  0  0  0  0  0  0  0  0  0  0
   -8.5380   21.8770  -31.9360 C   0  0  0  0  0  0  0  0  0  0  0  0
   -8.4040   20.5080  -32.2260 C   0  0  0  0  0  0  0  0  0  0  0  0
   -7.1470   19.8640  -32.1050 C   0  0  0  0  0  0  0  0  0  0  0  0
   -7.0130   18.3970  -32.3860 C   0  0  0  0  0  0  0  0  0  0  0  0
   -6.0200   20.5960  -31.6710 C   0  0  0  0  0  0  0  0  0  0  0  0
   -6.1850   21.9570  -31.3960 C   0  0  0  0  0  0  0  0  0  0  0  0
   -3.3360   24.4096  -26.4214 H   0  0  0  0  0  0  0  0  0  0  0  0
   -4.5279   25.1090  -27.5690 H   0  0  0  0  0  0  0  0  0  0  0  0
   -4.2119   23.3407  -27.5690 H   0  0  0  0  0  0  0  0  0  0  0  0
   -1.3349   25.9461  -27.8977 H   0  0  0  0  0  0  0  0  0  0  0  0
   -1.6527   24.7008  -26.6434 H   0  0  0  0  0  0  0  0  0  0  0  0
   -0.5179   23.8939  -29.3441 H   0  0  0  0  0  0  0  0  0  0  0  0
    0.5616   24.5654  -28.0740 H   0  0  0  0  0  0  0  0  0  0  0  0
    0.8601   22.2176  -29.1634 H   0  0  0  0  0  0  0  0  0  0  0  0
    0.5989   20.9850  -27.8883 H   0  0  0  0  0  0  0  0  0  0  0  0
   -2.5090   22.4320  -28.3060 H   0  0  0  0  0  0  0  0  0  0  0  0
   -3.1545   20.5506  -30.6004 H   0  0  0  0  0  0  0  0  0  0  0  0
   -4.3144   21.0318  -29.3134 H   0  0  0  0  0  0  0  0  0  0  0  0
   -3.1330   25.2770  -30.3720 H   0  0  0  0  0  0  0  0  0  0  0  0
   -8.0258   24.6686  -31.1398 H   0  0  0  0  0  0  0  0  0  0  0  0
   -9.5083   22.3858  -32.0348 H   0  0  0  0  0  0  0  0  0  0  0  0
   -9.2828   19.9311  -32.5499 H   0  0  0  0  0  0  0  0  0  0  0  0
   -6.9626   17.8448  -31.4360 H   0  0  0  0  0  0  0  0  0  0  0  0
   -7.8835   18.0534  -32.9641 H   0  0  0  0  0  0  0  0  0  0  0  0
   -6.0947   18.2168  -32.9641 H   0  0  0  0  0  0  0  0  0  0  0  0
   -5.0405   20.1095  -31.5527 H   0  0  0  0  0  0  0  0  0  0  0  0
  1  2  1  0
  2  3  1  0
  3  4  1  0
  4  5  1  0
  5  6  1  0
  6  7  1  0
  7  8  2  0
  7  9  1  0
  9 10  1  0
 10 11  1  0
 11 12  2  0
 11 13  1  0
 13 14  1  0
 14 15  1  0
 15 16  1  0
 15 17  2  0
 14 18  2  0
 18 19  1  0
 19 20  2  0
 20 21  1  0
 21 22  2  0
 22 23  1  0
 22 24  1  0
 24 25  2  0
 25 13  1  0
 25 19  1  0
  1 26  1  0
  1 27  1  0
  1 28  1  0
  3 29  1  0
  3 30  1  0
  4 31  1  0
  4 32  1  0
  6 33  1  0
  6 34  1  0
  9 35  1  0
 10 36  1  0
 10 37  1  0
 16 38  1  0
 18 39  1  0
 20 40  1  0
 21 41  1  0
 23 42  1  0
 23 43  1  0
 23 44  1  0
 24 45  1  0
M  CHG  1  16  -1
M  END
>  <UniqueID>  (66) 
65

>  <SMILES>  (66) 
COCCOCC(=O)NCC(=O)n1c(C([NH-])=O)cc2ccc(C)cc21

>  <Energy>  (66) 
79.49351904382388

>  <Genealogy>  (66) 
COCCOCC(=O)NCC(=O)n1c(C([NH-])=O)cc2ccc(C)cc21 (protonated)
COCCOCC(=O)NCC(=O)n1c(C([NH-])=O)cc2ccc(C)cc21 (3D coordinates assigned)
COCCOCC(=O)NCC(=O)n1c(C([NH-])=O)cc2ccc(C)cc21 (optimized conformer: 79.49351904382388 kcal/mol)

>  <smiles>  (66) 
COCCOCC(=O)NCC(=O)n1c(C(N)=O)cc2ccc(C)cc21

>  <score_type>  (66) 
oracle

>  <origin>  (66) 
adg

>  <m_score__min__energy>  (66) 
-10.59

>  <m_primary>  (66) 
energy

$$$$
66:0
     RDKit          3D

 36 38  0  0  0  0  0  0  0  0999 V2000
   -5.9672   23.6488  -30.0673 H   0  0  0  0  0  0  0  0  0  0  0  0
   -5.1530   23.7030  -30.8050 C   0  0  0  0  0  0  0  0  0  0  0  0
   -3.9460   24.4770  -30.4790 C   0  0  0  0  0  0  0  0  0  0  0  0
   -3.8710   25.6850  -30.8230 O   0  0  0  0  0  0  0  0  0  0  0  0
   -2.8850   23.8950  -29.7950 O   0  0  0  0  0  0  0  0  0  0  0  0
   -5.2910   23.0630  -31.9710 C   0  0  0  0  0  0  0  0  0  0  0  0
   -4.4752   23.1219  -32.7065 H   0  0  0  0  0  0  0  0  0  0  0  0
   -6.4970   22.2800  -32.3090 C   0  0  0  0  0  0  0  0  0  0  0  0
   -7.6030   22.8780  -32.4010 O   0  0  0  0  0  0  0  0  0  0  0  0
   -6.4410   20.8640  -32.5420 N   0  0  0  0  0  0  0  0  0  0  0  0
   -7.4660   19.9700  -32.4540 C   0  0  0  0  0  0  0  0  0  0  0  0
   -8.8300   20.2840  -31.9710 C   0  0  0  0  0  0  0  0  0  0  0  0
   -9.8170   19.6330  -32.4040 O   0  0  0  0  0  0  0  0  0  0  0  0
   -9.0530   21.3330  -31.0270 N   0  0  0  0  0  0  0  0  0  0  0  0
  -10.0250   21.5650  -30.7240 H   0  0  0  0  0  0  0  0  0  0  0  0
   -8.2610   21.8550  -30.5910 H   0  0  0  0  0  0  0  0  0  0  0  0
   -7.0310   18.6980  -32.8310 C   0  0  0  0  0  0  0  0  0  0  0  0
   -7.6237   17.7717  -32.8571 H   0  0  0  0  0  0  0  0  0  0  0  0
   -5.7040   18.8480  -33.1630 C   0  0  0  0  0  0  0  0  0  0  0  0
   -4.7810   17.9110  -33.6170 C   0  0  0  0  0  0  0  0  0  0  0  0
   -5.0621   16.8554  -33.7465 H   0  0  0  0  0  0  0  0  0  0  0  0
   -3.4790   18.3540  -33.9050 C   0  0  0  0  0  0  0  0  0  0  0  0
   -2.7268   17.6347  -34.2610 H   0  0  0  0  0  0  0  0  0  0  0  0
   -3.1220   19.7200  -33.7420 C   0  0  0  0  0  0  0  0  0  0  0  0
   -1.7430   20.1780  -34.0480 C   0  0  0  0  0  0  0  0  0  0  0  0
   -0.7860   19.2990  -34.5790 C   0  0  0  0  0  0  0  0  0  0  0  0
   -1.0530   18.2499  -34.7744 H   0  0  0  0  0  0  0  0  0  0  0  0
    0.4690   19.7410  -34.8520 N   0  0  0  0  0  0  0  0  0  0  0  0
    0.8250   21.0300  -34.6160 C   0  0  0  0  0  0  0  0  0  0  0  0
    1.8468   21.3690  -34.8420 H   0  0  0  0  0  0  0  0  0  0  0  0
   -0.0810   21.9000  -34.1010 N   0  0  0  0  0  0  0  0  0  0  0  0
   -1.3480   21.5050  -33.8160 C   0  0  0  0  0  0  0  0  0  0  0  0
   -2.0674   22.2269  -33.4020 H   0  0  0  0  0  0  0  0  0  0  0  0
   -4.0930   20.6400  -33.2840 C   0  0  0  0  0  0  0  0  0  0  0  0
   -3.8461   21.7052  -33.1639 H   0  0  0  0  0  0  0  0  0  0  0  0
   -5.3750   20.1650  -32.9870 C   0  0  0  0  0  0  0  0  0  0  0  0
  1  2  1  0
  2  3  1  0
  3  4  2  0
  3  5  1  0
  2  6  2  0
  6  7  1  0
  6  8  1  0
  8  9  2  0
  8 10  1  0
 10 11  1  0
 11 12  1  0
 12 13  2  0
 12 14  1  0
 14 15  1  0
 14 16  1  0
 11 17  2  0
 17 18  1  0
 17 19  1  0
 19 20  2  0
 20 21  1  0
 20 22  1  0
 22 23  1  0
 22 24  2  0
 24 25  1  0
 25 26  2  0
 26 27  1  0
 26 28  1  0
 28 29  2  0
 29 30  1  0
 29 31  1  0
 31 32  2  0
 32 33  1  0
 24 34  1  0
 34 35  1  0
 34 36  2  0
 36 10  1  0
 36 19  1  0
 32 25  1  0
M  CHG  1   5  -1
M  END
>  <UniqueID>  (67) 
66

>  <SMILES>  (67) 
NC(=O)c1cc2ccc(-c3cncnc3)cc2n1C(=O)/C=C/C(=O)[O-]

>  <Energy>  (67) 
82.56455445552913

>  <Genealogy>  (67) 
NC(=O)c1cc2ccc(-c3cncnc3)cc2n1C(=O)/C=C/C(=O)[O-] (protonated)
NC(=O)c1cc2ccc(-c3cncnc3)cc2n1C(=O)/C=C/C(=O)[O-] (cis-trans isomerization)
NC(=O)c1cc2ccc(-c3cncnc3)cc2n1C(=O)/C=C/C(=O)[O-] (3D coordinates assigned)
NC(=O)c1cc2ccc(-c3cncnc3)cc2n1C(=O)/C=C/C(=O)[O-] (optimized conformer: 82.56455445552913 kcal/mol)

>  <smiles>  (67) 
NC(=O)c1cc2ccc(-c3cncnc3)cc2n1C(=O)/C=C/C(=O)O

>  <score_type>  (67) 
oracle

>  <origin>  (67) 
adg

>  <m_score__min__energy>  (67) 
-11.550000000000001

>  <m_primary>  (67) 
energy

$$$$
67:0
     RDKit          3D

 47 48  0  0  0  0  0  0  0  0999 V2000
   -0.7020   21.7310  -27.4340 C   0  0  0  0  0  0  0  0  0  0  0  0
   -1.6310   22.8590  -27.5490 N   0  0  0  0  0  0  0  0  0  0  0  0
   -1.1410   24.2400  -27.4340 C   0  0  0  0  0  0  0  0  0  0  0  0
   -0.9030   24.8480  -28.8150 C   0  0  0  0  0  0  0  0  0  0  0  0
   -2.1160   25.2990  -29.3510 O   0  0  0  0  0  0  0  0  0  0  0  0
   -3.0350   22.6050  -27.7380 C   0  0  0  0  0  0  0  0  0  0  0  0
   -3.5030   21.4560  -27.5060 O   0  0  0  0  0  0  0  0  0  0  0  0
   -3.8800   23.6320  -28.1810 O   0  0  0  0  0  0  0  0  0  0  0  0
   -5.0130   23.4170  -29.0210 C   0  0  0  0  0  0  0  0  0  0  0  0
   -5.1070   24.5050  -30.0870 C   0  0  0  0  0  0  0  0  0  0  0  0
   -4.2090   24.2180  -31.1540 O   0  0  0  0  0  0  0  0  0  0  0  0
   -3.4450   23.0490  -31.2100 C   0  0  0  0  0  0  0  0  0  0  0  0
   -2.3990   22.9400  -30.5140 O   0  0  0  0  0  0  0  0  0  0  0  0
   -3.8530   21.9710  -32.0680 N   0  0  0  0  0  0  0  0  0  0  0  0
   -3.0540   21.1200  -32.7720 C   0  0  0  0  0  0  0  0  0  0  0  0
   -1.5890   21.2230  -32.9060 C   0  0  0  0  0  0  0  0  0  0  0  0
   -0.7370   21.1930  -31.7600 N   0  0  0  0  0  0  0  0  0  0  0  0
   -1.0820   21.3970  -34.0460 O   0  0  0  0  0  0  0  0  0  0  0  0
   -3.8150   20.1480  -33.4140 C   0  0  0  0  0  0  0  0  0  0  0  0
   -5.1220   20.4410  -33.0950 C   0  0  0  0  0  0  0  0  0  0  0  0
   -6.2970   19.7880  -33.4530 C   0  0  0  0  0  0  0  0  0  0  0  0
   -7.5090   20.2870  -32.9490 C   0  0  0  0  0  0  0  0  0  0  0  0
   -7.5280   21.4270  -32.1060 C   0  0  0  0  0  0  0  0  0  0  0  0
   -8.8290   21.9170  -31.5210 C   0  0  0  0  0  0  0  0  0  0  0  0
   -9.1120   23.1980  -31.9610 F   0  0  0  0  0  0  0  0  0  0  0  0
   -9.8750   21.0900  -31.8950 F   0  0  0  0  0  0  0  0  0  0  0  0
   -8.7330   21.9260  -30.1420 F   0  0  0  0  0  0  0  0  0  0  0  0
   -6.3100   22.0460  -31.7420 C   0  0  0  0  0  0  0  0  0  0  0  0
   -5.1190   21.5430  -32.2800 C   0  0  0  0  0  0  0  0  0  0  0  0
   -0.5213   21.5116  -26.3713 H   0  0  0  0  0  0  0  0  0  0  0  0
   -1.1370   20.8465  -27.9222 H   0  0  0  0  0  0  0  0  0  0  0  0
    0.2495   21.9884  -27.9222 H   0  0  0  0  0  0  0  0  0  0  0  0
   -1.8877   24.8441  -26.8978 H   0  0  0  0  0  0  0  0  0  0  0  0
   -0.1886   24.2315  -26.8837 H   0  0  0  0  0  0  0  0  0  0  0  0
   -0.2061   25.6944  -28.7261 H   0  0  0  0  0  0  0  0  0  0  0  0
   -0.4747   24.0830  -29.4794 H   0  0  0  0  0  0  0  0  0  0  0  0
   -2.5880   24.4900  -29.6820 H   0  0  0  0  0  0  0  0  0  0  0  0
   -4.9180   22.4373  -29.5121 H   0  0  0  0  0  0  0  0  0  0  0  0
   -5.9226   23.4470  -28.4032 H   0  0  0  0  0  0  0  0  0  0  0  0
   -6.1349   24.5459  -30.4766 H   0  0  0  0  0  0  0  0  0  0  0  0
   -4.8396   25.4738  -29.6398 H   0  0  0  0  0  0  0  0  0  0  0  0
    0.3000   21.2270  -31.8770 H   0  0  0  0  0  0  0  0  0  0  0  0
   -1.1310   21.2240  -30.7940 H   0  0  0  0  0  0  0  0  0  0  0  0
   -3.4503   19.3219  -34.0422 H   0  0  0  0  0  0  0  0  0  0  0  0
   -6.2773   18.9070  -34.1113 H   0  0  0  0  0  0  0  0  0  0  0  0
   -8.4537   19.7882  -33.2110 H   0  0  0  0  0  0  0  0  0  0  0  0
   -6.2983   22.9028  -31.0522 H   0  0  0  0  0  0  0  0  0  0  0  0
  1  2  1  0
  2  3  1  0
  3  4  1  0
  4  5  1  0
  2  6  1  0
  6  7  2  0
  6  8  1  0
  8  9  1  0
  9 10  1  0
 10 11  1  0
 11 12  1  0
 12 13  2  0
 12 14  1  0
 14 15  1  0
 15 16  1  0
 16 17  1  0
 16 18  2  0
 15 19  2  0
 19 20  1  0
 20 21  2  0
 21 22  1  0
 22 23  2  0
 23 24  1  0
 24 25  1  0
 24 26  1  0
 24 27  1  0
 23 28  1  0
 28 29  2  0
 29 14  1  0
 29 20  1  0
  1 30  1  0
  1 31  1  0
  1 32  1  0
  3 33  1  0
  3 34  1  0
  4 35  1  0
  4 36  1  0
  5 37  1  0
  9 38  1  0
  9 39  1  0
 10 40  1  0
 10 41  1  0
 17 42  1  0
 17 43  1  0
 19 44  1  0
 21 45  1  0
 22 46  1  0
 28 47  1  0
M  END
>  <UniqueID>  (68) 
67

>  <SMILES>  (68) 
CN(CCO)C(=O)OCCOC(=O)n1c(C(N)=O)cc2ccc(C(F)(F)F)cc21

>  <Energy>  (68) 
74.71399325559837

>  <Genealogy>  (68) 
CN(CCO)C(=O)OCCOC(=O)n1c(C(N)=O)cc2ccc(C(F)(F)F)cc21 (3D coordinates assigned)
CN(CCO)C(=O)OCCOC(=O)n1c(C(N)=O)cc2ccc(C(F)(F)F)cc21 (optimized conformer: 74.71399325559837 kcal/mol)

>  <smiles>  (68) 
CN(CCO)C(=O)OCCOC(=O)n1c(C(N)=O)cc2ccc(C(F)(F)F)cc21

>  <score_type>  (68) 
oracle

>  <origin>  (68) 
adg

>  <m_score__min__energy>  (68) 
-7.4900000000000002

>  <m_primary>  (68) 
energy

$$$$
68:0
     RDKit          3D

 38 40  0  0  0  0  0  0  0  0999 V2000
   -2.7470   21.3120  -32.2880 C   0  0  0  0  0  0  0  0  0  0  0  0
   -3.8140   22.0690  -31.6290 N   0  0  0  0  0  0  0  0  0  0  0  0
   -3.5590   22.7130  -30.3330 C   0  0  0  0  0  0  0  0  0  0  0  0
   -4.4740   23.8780  -30.1310 C   0  0  0  0  0  0  0  0  0  0  0  0
   -5.4410   23.9250  -29.1980 N   0  0  0  0  0  0  0  0  0  0  0  0
   -6.0310   25.1010  -29.3390 N   0  0  0  0  0  0  0  0  0  0  0  0
   -5.4050   25.7260  -30.3550 C   0  0  0  0  0  0  0  0  0  0  0  0
   -4.4490   24.9760  -30.8470 O   0  0  0  0  0  0  0  0  0  0  0  0
   -5.0920   22.2030  -32.2820 C   0  0  0  0  0  0  0  0  0  0  0  0
   -5.3770   23.2630  -32.9020 O   0  0  0  0  0  0  0  0  0  0  0  0
   -6.0540   21.1420  -32.2330 N   0  0  0  0  0  0  0  0  0  0  0  0
   -7.3460   21.2090  -31.8120 C   0  0  0  0  0  0  0  0  0  0  0  0
   -8.0040   22.3920  -31.2160 C   0  0  0  0  0  0  0  0  0  0  0  0
   -7.3020   23.6180  -31.0120 N   0  0  0  0  0  0  0  0  0  0  0  0
   -9.2070   22.3070  -30.8470 O   0  0  0  0  0  0  0  0  0  0  0  0
   -7.9980   20.0000  -32.0510 C   0  0  0  0  0  0  0  0  0  0  0  0
   -7.0560   19.1890  -32.6430 C   0  0  0  0  0  0  0  0  0  0  0  0
   -7.1620   17.8840  -33.1150 C   0  0  0  0  0  0  0  0  0  0  0  0
   -6.0350   17.3120  -33.7290 C   0  0  0  0  0  0  0  0  0  0  0  0
   -4.8370   18.0560  -33.8840 C   0  0  0  0  0  0  0  0  0  0  0  0
   -3.6410   17.4040  -34.5310 C   0  0  0  0  0  0  0  0  0  0  0  0
   -3.2880   16.2680  -33.8240 F   0  0  0  0  0  0  0  0  0  0  0  0
   -2.5780   18.2880  -34.5200 F   0  0  0  0  0  0  0  0  0  0  0  0
   -3.9060   17.0400  -35.8400 F   0  0  0  0  0  0  0  0  0  0  0  0
   -4.7680   19.3790  -33.3880 C   0  0  0  0  0  0  0  0  0  0  0  0
   -5.8960   19.9080  -32.7520 C   0  0  0  0  0  0  0  0  0  0  0  0
   -2.0994   20.8526  -31.5267 H   0  0  0  0  0  0  0  0  0  0  0  0
   -3.1899   20.5250  -32.9161 H   0  0  0  0  0  0  0  0  0  0  0  0
   -2.1505   21.9900  -32.9161 H   0  0  0  0  0  0  0  0  0  0  0  0
   -3.7232   21.9815  -29.5281 H   0  0  0  0  0  0  0  0  0  0  0  0
   -2.5198   23.0733  -30.3162 H   0  0  0  0  0  0  0  0  0  0  0  0
   -5.6615   26.7306  -30.7224 H   0  0  0  0  0  0  0  0  0  0  0  0
   -6.2640   23.6740  -31.1010 H   0  0  0  0  0  0  0  0  0  0  0  0
   -7.8110   24.4570  -30.6540 H   0  0  0  0  0  0  0  0  0  0  0  0
   -9.0427   19.7478  -31.8165 H   0  0  0  0  0  0  0  0  0  0  0  0
   -8.0993   17.3178  -33.0106 H   0  0  0  0  0  0  0  0  0  0  0  0
   -6.0821   16.2753  -34.0937 H   0  0  0  0  0  0  0  0  0  0  0  0
   -3.8511   19.9763  -33.4996 H   0  0  0  0  0  0  0  0  0  0  0  0
  1  2  1  0
  2  3  1  0
  3  4  1  0
  4  5  2  0
  5  6  1  0
  6  7  2  0
  7  8  1  0
  2  9  1  0
  9 10  2  0
  9 11  1  0
 11 12  1  0
 12 13  1  0
 13 14  1  0
 13 15  2  0
 12 16  2  0
 16 17  1  0
 17 18  2  0
 18 19  1  0
 19 20  2  0
 20 21  1  0
 21 22  1  0
 21 23  1  0
 21 24  1  0
 20 25  1  0
 25 26  2  0
  8  4  1  0
 26 11  1  0
 26 17  1  0
  1 27  1  0
  1 28  1  0
  1 29  1  0
  3 30  1  0
  3 31  1  0
  7 32  1  0
 14 33  1  0
 14 34  1  0
 16 35  1  0
 18 36  1  0
 19 37  1  0
 25 38  1  0
M  END
>  <UniqueID>  (69) 
68

>  <SMILES>  (69) 
CN(Cc1nnco1)C(=O)n1c(C(N)=O)cc2ccc(C(F)(F)F)cc21

>  <Energy>  (69) 
111.021555201668

>  <Genealogy>  (69) 
CN(Cc1nnco1)C(=O)n1c(C(N)=O)cc2ccc(C(F)(F)F)cc21 (3D coordinates assigned)
CN(Cc1nnco1)C(=O)n1c(C(N)=O)cc2ccc(C(F)(F)F)cc21 (optimized conformer: 111.021555201668 kcal/mol)

>  <smiles>  (69) 
CN(Cc1nnco1)C(=O)n1c(C(N)=O)cc2ccc(C(F)(F)F)cc21

>  <score_type>  (69) 
oracle

>  <origin>  (69) 
adg

>  <m_score__min__energy>  (69) 
-8.1099999999999994

>  <m_primary>  (69) 
energy

$$$$
69:0
     RDKit          3D

 47 49  0  0  0  0  0  0  0  0999 V2000
   -4.3600   25.9040  -30.4660 N   0  0  0  0  0  0  0  0  0  0  0  0
   -5.6390   25.3490  -30.1760 C   0  0  0  0  0  0  0  0  0  0  0  0
   -6.4350   25.9890  -29.4400 O   0  0  0  0  0  0  0  0  0  0  0  0
   -6.0260   24.0190  -30.6900 C   0  0  0  0  0  0  0  0  0  0  0  0
   -7.3230   23.7020  -31.0900 C   0  0  0  0  0  0  0  0  0  0  0  0
   -7.2790   22.3770  -31.4570 C   0  0  0  0  0  0  0  0  0  0  0  0
   -8.2810   21.5540  -31.9600 C   0  0  0  0  0  0  0  0  0  0  0  0
   -7.9420   20.2320  -32.2930 C   0  0  0  0  0  0  0  0  0  0  0  0
   -6.6140   19.7570  -32.1270 C   0  0  0  0  0  0  0  0  0  0  0  0
   -6.2650   18.3610  -32.4880 C   0  0  0  0  0  0  0  0  0  0  0  0
   -6.2070   17.9590  -33.8340 C   0  0  0  0  0  0  0  0  0  0  0  0
   -5.8750   16.6440  -34.1590 C   0  0  0  0  0  0  0  0  0  0  0  0
   -5.6030   15.7320  -33.1380 C   0  0  0  0  0  0  0  0  0  0  0  0
   -5.6640   16.1270  -31.8370 N   0  0  0  0  0  0  0  0  0  0  0  0
   -5.9840   17.4050  -31.4940 C   0  0  0  0  0  0  0  0  0  0  0  0
   -5.6250   20.6300  -31.6150 C   0  0  0  0  0  0  0  0  0  0  0  0
   -5.9960   21.9350  -31.2750 C   0  0  0  0  0  0  0  0  0  0  0  0
   -5.2100   22.9320  -30.8100 N   0  0  0  0  0  0  0  0  0  0  0  0
   -3.7890   22.8510  -30.5990 C   0  0  0  0  0  0  0  0  0  0  0  0
   -3.0650   23.8350  -30.9080 O   0  0  0  0  0  0  0  0  0  0  0  0
   -3.1930   21.6910  -29.9810 N   0  0  0  0  0  0  0  0  0  0  0  0
   -2.7140   20.6310  -30.7350 O   0  0  0  0  0  0  0  0  0  0  0  0
   -1.9360   20.7730  -31.8920 C   0  0  0  0  0  0  0  0  0  0  0  0
   -0.7070   21.0450  -31.8190 O   0  0  0  0  0  0  0  0  0  0  0  0
   -2.5770   20.6410  -33.2360 C   0  0  0  0  0  0  0  0  0  0  0  0
   -3.2550   19.4380  -33.3100 F   0  0  0  0  0  0  0  0  0  0  0  0
   -1.6160   20.6800  -34.2300 F   0  0  0  0  0  0  0  0  0  0  0  0
   -3.4680   21.6810  -33.4250 F   0  0  0  0  0  0  0  0  0  0  0  0
   -2.8560   21.7070  -28.5860 C   0  0  0  0  0  0  0  0  0  0  0  0
   -3.4530   20.9280  -27.7940 O   0  0  0  0  0  0  0  0  0  0  0  0
   -1.8540   22.5630  -28.1090 O   0  0  0  0  0  0  0  0  0  0  0  0
   -2.0800   23.9270  -27.7660 C   0  0  0  0  0  0  0  0  0  0  0  0
   -1.1360   24.8140  -28.5160 C   0  0  0  0  0  0  0  0  0  0  0  0
   -1.5780   25.6830  -29.3120 O   0  0  0  0  0  0  0  0  0  0  0  0
    0.2360   24.6570  -28.3600 O   0  0  0  0  0  0  0  0  0  0  0  0
   -3.5310   25.6850  -29.8690 H   0  0  0  0  0  0  0  0  0  0  0  0
   -8.1968   24.3699  -31.1083 H   0  0  0  0  0  0  0  0  0  0  0  0
   -9.3073   21.9268  -32.0930 H   0  0  0  0  0  0  0  0  0  0  0  0
   -8.7151   19.5561  -32.6874 H   0  0  0  0  0  0  0  0  0  0  0  0
   -6.4240   18.6835  -34.6328 H   0  0  0  0  0  0  0  0  0  0  0  0
   -5.8279   16.3281  -35.2116 H   0  0  0  0  0  0  0  0  0  0  0  0
   -5.3391   14.6931  -33.3851 H   0  0  0  0  0  0  0  0  0  0  0  0
   -5.4650   15.4320  -31.0840 H   0  0  0  0  0  0  0  0  0  0  0  0
   -6.0232   17.6924  -30.4329 H   0  0  0  0  0  0  0  0  0  0  0  0
   -4.5868   20.2896  -31.4872 H   0  0  0  0  0  0  0  0  0  0  0  0
   -3.1146   24.1990  -28.0221 H   0  0  0  0  0  0  0  0  0  0  0  0
   -1.9125   24.0572  -26.6867 H   0  0  0  0  0  0  0  0  0  0  0  0
  1  2  1  0
  2  3  2  0
  2  4  1  0
  4  5  2  0
  5  6  1  0
  6  7  2  0
  7  8  1  0
  8  9  2  0
  9 10  1  0
 10 11  2  0
 11 12  1  0
 12 13  2  0
 13 14  1  0
 14 15  2  0
  9 16  1  0
 16 17  2  0
 17 18  1  0
 18 19  1  0
 19 20  2  0
 19 21  1  0
 21 22  1  0
 22 23  1  0
 23 24  2  0
 23 25  1  0
 25 26  1  0
 25 27  1  0
 25 28  1  0
 21 29  1  0
 29 30  2  0
 29 31  1  0
 31 32  1  0
 32 33  1  0
 33 34  2  0
 33 35  1  0
 18  4  1  0
 17  6  1  0
 15 10  1  0
  1 36  1  0
  5 37  1  0
  7 38  1  0
  8 39  1  0
 11 40  1  0
 12 41  1  0
 13 42  1  0
 14 43  1  0
 15 44  1  0
 16 45  1  0
 32 46  1  0
 32 47  1  0
M  CHG  3   1  -1  14   1  35  -1
M  END
>  <UniqueID>  (70) 
69

>  <SMILES>  (70) 
[NH-]C(=O)c1cc2ccc(-c3ccc[nH+]c3)cc2n1C(=O)N(OC(=O)C(F)(F)F)C(=O)OCC(=O)[O-]

>  <Energy>  (70) 
94.15067022735307

>  <Genealogy>  (70) 
[NH-]C(=O)c1cc2ccc(-c3ccc[nH+]c3)cc2n1C(=O)N(OC(=O)C(F)(F)F)C(=O)OCC(=O)[O-] (protonated)
[NH-]C(=O)c1cc2ccc(-c3ccc[nH+]c3)cc2n1C(=O)N(OC(=O)C(F)(F)F)C(=O)OCC(=O)[O-] (3D coordinates assigned)
[NH-]C(=O)c1cc2ccc(-c3ccc[nH+]c3)cc2n1C(=O)N(OC(=O)C(F)(F)F)C(=O)OCC(=O)[O-] (optimized conformer: 94.15067022735307 kcal/mol)

>  <smiles>  (70) 
NC(=O)c1cc2ccc(-c3cccnc3)cc2n1C(=O)N(OC(=O)C(F)(F)F)C(=O)OCC(=O)O

>  <score_type>  (70) 
oracle

>  <origin>  (70) 
adg

>  <m_score__min__energy>  (70) 
-12.550000000000001

>  <m_primary>  (70) 
energy

$$$$
70:0
     RDKit          3D

 46 48  0  0  0  0  0  0  0  0999 V2000
   -3.1230   25.3000  -30.3390 H   0  0  0  0  0  0  0  0  0  0  0  0
   -3.9560   25.6750  -30.8430 N   0  0  0  0  0  0  0  0  0  0  0  0
   -5.2790   25.3250  -30.4320 C   0  0  0  0  0  0  0  0  0  0  0  0
   -5.9480   26.1400  -29.7410 O   0  0  0  0  0  0  0  0  0  0  0  0
   -5.8460   24.0150  -30.8110 C   0  0  0  0  0  0  0  0  0  0  0  0
   -7.1520   23.8300  -31.2660 C   0  0  0  0  0  0  0  0  0  0  0  0
   -7.9288   24.5980  -31.3952 H   0  0  0  0  0  0  0  0  0  0  0  0
   -7.2610   22.4800  -31.5190 C   0  0  0  0  0  0  0  0  0  0  0  0
   -8.3480   21.7290  -31.9660 C   0  0  0  0  0  0  0  0  0  0  0  0
   -9.3086   22.2086  -32.2054 H   0  0  0  0  0  0  0  0  0  0  0  0
   -8.1780   20.3410  -32.1010 C   0  0  0  0  0  0  0  0  0  0  0  0
   -9.0132   19.7219  -32.4604 H   0  0  0  0  0  0  0  0  0  0  0  0
   -6.9390   19.7310  -31.7780 C   0  0  0  0  0  0  0  0  0  0  0  0
   -6.7620   18.2450  -31.9240 C   0  0  0  0  0  0  0  0  0  0  0  0
   -6.1858   17.8624  -31.0686 H   0  0  0  0  0  0  0  0  0  0  0  0
   -7.7527   17.7679  -31.9546 H   0  0  0  0  0  0  0  0  0  0  0  0
   -6.0470   17.9380  -33.1640 N   0  0  0  0  0  0  0  0  0  0  0  0
   -5.2720   16.8660  -33.4420 C   0  0  0  0  0  0  0  0  0  0  0  0
   -4.9760   15.7610  -32.4780 C   0  0  0  0  0  0  0  0  0  0  0  0
   -5.0764   16.1357  -31.4487 H   0  0  0  0  0  0  0  0  0  0  0  0
   -5.6845   14.9350  -32.6382 H   0  0  0  0  0  0  0  0  0  0  0  0
   -3.9494   15.3998  -32.6382 H   0  0  0  0  0  0  0  0  0  0  0  0
   -4.8010   16.8780  -34.7050 N   0  0  0  0  0  0  0  0  0  0  0  0
   -5.3140   18.0060  -35.2390 C   0  0  0  0  0  0  0  0  0  0  0  0
   -5.1443   18.3539  -36.2686 H   0  0  0  0  0  0  0  0  0  0  0  0
   -6.0820   18.6550  -34.2990 C   0  0  0  0  0  0  0  0  0  0  0  0
   -6.6292   19.5970  -34.4510 H   0  0  0  0  0  0  0  0  0  0  0  0
   -5.8590   20.5230  -31.3350 C   0  0  0  0  0  0  0  0  0  0  0  0
   -4.8893   20.0677  -31.0854 H   0  0  0  0  0  0  0  0  0  0  0  0
   -6.0550   21.9020  -31.2220 C   0  0  0  0  0  0  0  0  0  0  0  0
   -5.1780   22.8310  -30.7930 N   0  0  0  0  0  0  0  0  0  0  0  0
   -3.8600   22.5710  -30.2980 C   0  0  0  0  0  0  0  0  0  0  0  0
   -3.0880   21.8130  -30.9430 O   0  0  0  0  0  0  0  0  0  0  0  0
   -3.4370   23.1140  -28.9650 C   0  0  0  0  0  0  0  0  0  0  0  0
   -3.8754   22.5000  -28.1645 H   0  0  0  0  0  0  0  0  0  0  0  0
   -3.7861   24.1526  -28.8680 H   0  0  0  0  0  0  0  0  0  0  0  0
   -1.9310   23.0810  -28.8550 C   0  0  0  0  0  0  0  0  0  0  0  0
   -1.2970   21.9530  -28.7360 N   0  0  0  0  0  0  0  0  0  0  0  0
   -1.9590   20.7450  -28.6510 O   0  0  0  0  0  0  0  0  0  0  0  0
   -2.0210   20.0450  -27.4190 C   0  0  0  0  0  0  0  0  0  0  0  0
   -1.9576   20.7614  -26.5867 H   0  0  0  0  0  0  0  0  0  0  0  0
   -2.9714   19.4946  -27.3574 H   0  0  0  0  0  0  0  0  0  0  0  0
   -1.1821   19.3361  -27.3574 H   0  0  0  0  0  0  0  0  0  0  0  0
   -1.1460   24.3200  -29.0010 C   0  0  0  0  0  0  0  0  0  0  0  0
   -1.7080   25.4030  -29.3130 O   0  0  0  0  0  0  0  0  0  0  0  0
    0.2280   24.3020  -28.7950 O   0  0  0  0  0  0  0  0  0  0  0  0
  1  2  1  0
  2  3  1  0
  3  4  2  0
  3  5  1  0
  5  6  2  0
  6  7  1  0
  6  8  1  0
  8  9  2  0
  9 10  1  0
  9 11  1  0
 11 12  1  0
 11 13  2  0
 13 14  1  0
 14 15  1  0
 14 16  1  0
 14 17  1  0
 17 18  1  0
 18 19  1  0
 19 20  1  0
 19 21  1  0
 19 22  1  0
 18 23  2  0
 23 24  1  0
 24 25  1  0
 24 26  2  0
 26 27  1  0
 13 28  1  0
 28 29  1  0
 28 30  2  0
 30 31  1  0
 31 32  1  0
 32 33  2  0
 32 34  1  0
 34 35  1  0
 34 36  1  0
 34 37  1  0
 37 38  2  0
 38 39  1  0
 39 40  1  0
 40 41  1  0
 40 42  1  0
 40 43  1  0
 37 44  1  0
 44 45  2  0
 44 46  1  0
 31  5  1  0
 30  8  1  0
 26 17  1  0
M  CHG  2   2  -1  46  -1
M  END
>  <UniqueID>  (71) 
70

>  <SMILES>  (71) 
CO/N=C(\CC(=O)n1c(C([NH-])=O)cc2ccc(Cn3ccnc3C)cc21)C(=O)[O-]

>  <Energy>  (71) 
105.77276235959766

>  <Genealogy>  (71) 
CO/N=C(\CC(=O)n1c(C([NH-])=O)cc2ccc(Cn3ccnc3C)cc21)C(=O)[O-] (protonated)
CO/N=C(\CC(=O)n1c(C([NH-])=O)cc2ccc(Cn3ccnc3C)cc21)C(=O)[O-] (cis-trans isomerization)
CO/N=C(\CC(=O)n1c(C([NH-])=O)cc2ccc(Cn3ccnc3C)cc21)C(=O)[O-] (3D coordinates assigned)
CO/N=C(\CC(=O)n1c(C([NH-])=O)cc2ccc(Cn3ccnc3C)cc21)C(=O)[O-] (optimized conformer: 105.77276235959766 kcal/mol)

>  <smiles>  (71) 
CO/N=C(\CC(=O)n1c(C(N)=O)cc2ccc(Cn3ccnc3C)cc21)C(=O)O

>  <score_type>  (71) 
oracle

>  <origin>  (71) 
adg

>  <m_score__min__energy>  (71) 
-12.92

>  <m_primary>  (71) 
energy

$$$$
71:0
     RDKit          3D

 63 64  0  0  0  0  0  0  0  0999 V2000
    0.2660   21.3770  -27.9480 C   0  0  0  0  0  0  0  0  0  0  0  0
   -0.9970   20.7620  -28.3690 N   0  0  0  0  0  0  0  0  0  0  0  0
   -1.1330   20.1970  -29.7190 C   0  0  0  0  0  0  0  0  0  0  0  0
   -0.8600   21.2590  -30.7940 C   0  0  0  0  0  0  0  0  0  0  0  0
   -0.9170   20.6750  -32.1430 N   0  0  0  0  0  0  0  0  0  0  0  0
    0.2330   20.7810  -33.0430 C   0  0  0  0  0  0  0  0  0  0  0  0
   -2.0860   19.9640  -32.5900 C   0  0  0  0  0  0  0  0  0  0  0  0
   -1.9930   18.7610  -32.9600 O   0  0  0  0  0  0  0  0  0  0  0  0
   -3.3270   20.6150  -32.6170 O   0  0  0  0  0  0  0  0  0  0  0  0
   -3.4740   22.0100  -32.8640 C   0  0  0  0  0  0  0  0  0  0  0  0
   -3.8820   22.7180  -31.6060 C   0  0  0  0  0  0  0  0  0  0  0  0
   -2.9950   23.1810  -30.8410 O   0  0  0  0  0  0  0  0  0  0  0  0
   -5.2690   22.8720  -31.2680 N   0  0  0  0  0  0  0  0  0  0  0  0
   -5.8790   23.9550  -30.7070 C   0  0  0  0  0  0  0  0  0  0  0  0
   -5.2410   25.2550  -30.3970 C   0  0  0  0  0  0  0  0  0  0  0  0
   -3.9280   25.5620  -30.8520 N   0  0  0  0  0  0  0  0  0  0  0  0
   -5.8780   26.1170  -29.7320 O   0  0  0  0  0  0  0  0  0  0  0  0
   -7.2340   23.6970  -30.5020 C   0  0  0  0  0  0  0  0  0  0  0  0
   -7.4340   22.4120  -30.9560 C   0  0  0  0  0  0  0  0  0  0  0  0
   -8.5920   21.6420  -30.9860 C   0  0  0  0  0  0  0  0  0  0  0  0
   -8.5000   20.3320  -31.4860 C   0  0  0  0  0  0  0  0  0  0  0  0
   -7.2540   19.8050  -31.9180 C   0  0  0  0  0  0  0  0  0  0  0  0
   -7.1750   18.4110  -32.4880 C   0  0  0  0  0  0  0  0  0  0  0  0
   -6.8630   18.4870  -33.8320 F   0  0  0  0  0  0  0  0  0  0  0  0
   -8.3860   17.7550  -32.3420 F   0  0  0  0  0  0  0  0  0  0  0  0
   -6.2020   17.6710  -31.8400 F   0  0  0  0  0  0  0  0  0  0  0  0
   -6.1050   20.6290  -31.8920 C   0  0  0  0  0  0  0  0  0  0  0  0
   -6.2330   21.9360  -31.4080 C   0  0  0  0  0  0  0  0  0  0  0  0
   -2.1030   20.7160  -27.4480 C   0  0  0  0  0  0  0  0  0  0  0  0
   -2.3760   19.6430  -26.8450 O   0  0  0  0  0  0  0  0  0  0  0  0
   -2.8770   21.8620  -27.2260 O   0  0  0  0  0  0  0  0  0  0  0  0
   -3.7100   22.4400  -28.2270 C   0  0  0  0  0  0  0  0  0  0  0  0
   -3.6850   23.8610  -28.1330 O   0  0  0  0  0  0  0  0  0  0  0  0
   -3.3690   24.5380  -26.9490 C   0  0  0  0  0  0  0  0  0  0  0  0
   -4.2130   25.2950  -26.3930 O   0  0  0  0  0  0  0  0  0  0  0  0
   -2.0040   24.3880  -26.3580 C   0  0  0  0  0  0  0  0  0  0  0  0
   -1.0660   25.4750  -26.8840 C   0  0  0  0  0  0  0  0  0  0  0  0
   -0.7150   25.2150  -28.3150 C   0  0  0  0  0  0  0  0  0  0  0  0
    0.3040   24.5340  -28.6030 O   0  0  0  0  0  0  0  0  0  0  0  0
   -1.5420   25.6800  -29.3310 O   0  0  0  0  0  0  0  0  0  0  0  0
    0.3141   21.4004  -26.8493 H   0  0  0  0  0  0  0  0  0  0  0  0
    1.1088   20.7884  -28.3395 H   0  0  0  0  0  0  0  0  0  0  0  0
    0.3224   22.4034  -28.3395 H   0  0  0  0  0  0  0  0  0  0  0  0
   -0.4140   19.3730  -29.8375 H   0  0  0  0  0  0  0  0  0  0  0  0
   -2.1634   19.8324  -29.8425 H   0  0  0  0  0  0  0  0  0  0  0  0
   -1.6167   22.0534  -30.7143 H   0  0  0  0  0  0  0  0  0  0  0  0
    0.1485   21.6676  -30.6329 H   0  0  0  0  0  0  0  0  0  0  0  0
    1.1558   20.8661  -32.4504 H   0  0  0  0  0  0  0  0  0  0  0  0
    0.2860   19.8839  -33.6774 H   0  0  0  0  0  0  0  0  0  0  0  0
    0.1212   21.6726  -33.6774 H   0  0  0  0  0  0  0  0  0  0  0  0
   -2.5161   22.4195  -33.2172 H   0  0  0  0  0  0  0  0  0  0  0  0
   -4.2507   22.1596  -33.6284 H   0  0  0  0  0  0  0  0  0  0  0  0
   -3.0870   25.2750  -30.3030 H   0  0  0  0  0  0  0  0  0  0  0  0
   -7.9840   24.3756  -30.0695 H   0  0  0  0  0  0  0  0  0  0  0  0
   -9.5507   22.0463  -30.6291 H   0  0  0  0  0  0  0  0  0  0  0  0
   -9.4036   19.7074  -31.5435 H   0  0  0  0  0  0  0  0  0  0  0  0
   -5.1335   20.2516  -32.2439 H   0  0  0  0  0  0  0  0  0  0  0  0
   -3.3478   22.1359  -29.2201 H   0  0  0  0  0  0  0  0  0  0  0  0
   -4.7423   22.0903  -28.0782 H   0  0  0  0  0  0  0  0  0  0  0  0
   -2.0734   24.4694  -25.2632 H   0  0  0  0  0  0  0  0  0  0  0  0
   -1.6011   23.4047  -26.6423 H   0  0  0  0  0  0  0  0  0  0  0  0
   -1.5641   26.4526  -26.8051 H   0  0  0  0  0  0  0  0  0  0  0  0
   -0.1438   25.4705  -26.2844 H   0  0  0  0  0  0  0  0  0  0  0  0
  1  2  1  0
  2  3  1  0
  3  4  1  0
  4  5  1  0
  5  6  1  0
  5  7  1  0
  7  8  2  0
  7  9  1  0
  9 10  1  0
 10 11  1  0
 11 12  2  0
 11 13  1  0
 13 14  1  0
 14 15  1  0
 15 16  1  0
 15 17  2  0
 14 18  2  0
 18 19  1  0
 19 20  2  0
 20 21  1  0
 21 22  2  0
 22 23  1  0
 23 24  1  0
 23 25  1  0
 23 26  1  0
 22 27  1  0
 27 28  2  0
  2 29  1  0
 29 30  2  0
 29 31  1  0
 31 32  1  0
 32 33  1  0
 33 34  1  0
 34 35  2  0
 34 36  1  0
 36 37  1  0
 37 38  1  0
 38 39  2  0
 38 40  1  0
 28 13  1  0
 28 19  1  0
  1 41  1  0
  1 42  1  0
  1 43  1  0
  3 44  1  0
  3 45  1  0
  4 46  1  0
  4 47  1  0
  6 48  1  0
  6 49  1  0
  6 50  1  0
 10 51  1  0
 10 52  1  0
 16 53  1  0
 18 54  1  0
 20 55  1  0
 21 56  1  0
 27 57  1  0
 32 58  1  0
 32 59  1  0
 36 60  1  0
 36 61  1  0
 37 62  1  0
 37 63  1  0
M  CHG  2  16  -1  40  -1
M  END
>  <UniqueID>  (72) 
71

>  <SMILES>  (72) 
CN(CCN(C)C(=O)OCC(=O)n1c(C([NH-])=O)cc2ccc(C(F)(F)F)cc21)C(=O)OCOC(=O)CCC(=O)[O-]

>  <Energy>  (72) 
82.53169872910024

>  <Genealogy>  (72) 
CN(CCN(C)C(=O)OCC(=O)n1c(C([NH-])=O)cc2ccc(C(F)(F)F)cc21)C(=O)OCOC(=O)CCC(=O)[O-] (protonated)
CN(CCN(C)C(=O)OCC(=O)n1c(C([NH-])=O)cc2ccc(C(F)(F)F)cc21)C(=O)OCOC(=O)CCC(=O)[O-] (3D coordinates assigned)
CN(CCN(C)C(=O)OCC(=O)n1c(C([NH-])=O)cc2ccc(C(F)(F)F)cc21)C(=O)OCOC(=O)CCC(=O)[O-] (optimized conformer: 82.53169872910024 kcal/mol)

>  <smiles>  (72) 
CN(CCN(C)C(=O)OCC(=O)n1c(C(N)=O)cc2ccc(C(F)(F)F)cc21)C(=O)OCOC(=O)CCC(=O)O

>  <score_type>  (72) 
oracle

>  <origin>  (72) 
adg

>  <m_score__min__energy>  (72) 
-11.869999999999999

>  <m_primary>  (72) 
energy

$$$$
72:0
     RDKit          3D

 45 46  0  0  0  0  0  0  0  0999 V2000
   -4.3330   17.8300  -33.1290 C   0  0  0  0  0  0  0  0  0  0  0  0
   -5.8180   17.4440  -32.9370 C   0  0  0  0  0  0  0  0  0  0  0  0
   -6.1100   17.2120  -31.4430 C   0  0  0  0  0  0  0  0  0  0  0  0
   -6.0900   16.1160  -33.6920 C   0  0  0  0  0  0  0  0  0  0  0  0
   -7.1680   16.2540  -34.5820 O   0  0  0  0  0  0  0  0  0  0  0  0
   -6.7270   18.4860  -33.4620 N   0  0  0  0  0  0  0  0  0  0  0  0
   -6.9930   19.7620  -32.8500 C   0  0  0  0  0  0  0  0  0  0  0  0
   -8.3170   20.2370  -32.6620 C   0  0  0  0  0  0  0  0  0  0  0  0
   -8.5510   21.5010  -32.0950 C   0  0  0  0  0  0  0  0  0  0  0  0
   -7.4510   22.2700  -31.7300 C   0  0  0  0  0  0  0  0  0  0  0  0
   -7.3970   23.5370  -31.2000 C   0  0  0  0  0  0  0  0  0  0  0  0
   -6.0400   23.8170  -31.0590 C   0  0  0  0  0  0  0  0  0  0  0  0
   -5.5270   25.0670  -30.4640 C   0  0  0  0  0  0  0  0  0  0  0  0
   -4.1990   25.5220  -30.7280 N   0  0  0  0  0  0  0  0  0  0  0  0
   -6.2540   25.7160  -29.6660 O   0  0  0  0  0  0  0  0  0  0  0  0
   -5.2830   22.7730  -31.4990 N   0  0  0  0  0  0  0  0  0  0  0  0
   -3.8530   22.7320  -31.6300 C   0  0  0  0  0  0  0  0  0  0  0  0
   -3.3250   22.1890  -32.6390 O   0  0  0  0  0  0  0  0  0  0  0  0
   -3.0490   23.2960  -30.6350 O   0  0  0  0  0  0  0  0  0  0  0  0
   -3.2780   23.0830  -29.2460 C   0  0  0  0  0  0  0  0  0  0  0  0
   -2.8000   24.2930  -28.4560 C   0  0  0  0  0  0  0  0  0  0  0  0
   -2.2530   25.2440  -29.3270 O   0  0  0  0  0  0  0  0  0  0  0  0
   -6.1650   21.8290  -31.9040 C   0  0  0  0  0  0  0  0  0  0  0  0
   -5.9030   20.5840  -32.4870 C   0  0  0  0  0  0  0  0  0  0  0  0
   -3.8562   17.9539  -32.1455 H   0  0  0  0  0  0  0  0  0  0  0  0
   -3.8172   17.0361  -33.6891 H   0  0  0  0  0  0  0  0  0  0  0  0
   -4.2691   18.7746  -33.6891 H   0  0  0  0  0  0  0  0  0  0  0  0
   -5.3917   17.7827  -30.8361 H   0  0  0  0  0  0  0  0  0  0  0  0
   -7.1322   17.5470  -31.2128 H   0  0  0  0  0  0  0  0  0  0  0  0
   -6.0147   16.1406  -31.2128 H   0  0  0  0  0  0  0  0  0  0  0  0
   -5.1902   15.8334  -34.2581 H   0  0  0  0  0  0  0  0  0  0  0  0
   -6.3417   15.3393  -32.9549 H   0  0  0  0  0  0  0  0  0  0  0  0
   -6.8430   16.7930  -35.3490 H   0  0  0  0  0  0  0  0  0  0  0  0
   -7.0560   18.3840  -34.4500 H   0  0  0  0  0  0  0  0  0  0  0  0
   -9.1686   19.6093  -32.9632 H   0  0  0  0  0  0  0  0  0  0  0  0
   -9.5755   21.8721  -31.9440 H   0  0  0  0  0  0  0  0  0  0  0  0
   -8.2440   24.1899  -30.9424 H   0  0  0  0  0  0  0  0  0  0  0  0
   -3.5200   24.9280  -31.2520 H   0  0  0  0  0  0  0  0  0  0  0  0
   -3.8670   26.4300  -30.3320 H   0  0  0  0  0  0  0  0  0  0  0  0
   -4.3538   22.9340  -29.0714 H   0  0  0  0  0  0  0  0  0  0  0  0
   -2.7236   22.1914  -28.9178 H   0  0  0  0  0  0  0  0  0  0  0  0
   -3.6507   24.7371  -27.9184 H   0  0  0  0  0  0  0  0  0  0  0  0
   -2.0309   23.9755  -27.7364 H   0  0  0  0  0  0  0  0  0  0  0  0
   -1.6260   24.7490  -29.9140 H   0  0  0  0  0  0  0  0  0  0  0  0
   -4.8685   20.2520  -32.6592 H   0  0  0  0  0  0  0  0  0  0  0  0
  1  2  1  0
  2  3  1  0
  2  4  1  0
  4  5  1  0
  2  6  1  0
  6  7  1  0
  7  8  2  0
  8  9  1  0
  9 10  2  0
 10 11  1  0
 11 12  2  0
 12 13  1  0
 13 14  1  0
 13 15  2  0
 12 16  1  0
 16 17  1  0
 17 18  2  0
 17 19  1  0
 19 20  1  0
 20 21  1  0
 21 22  1  0
 16 23  1  0
 23 24  2  0
 24  7  1  0
 23 10  1  0
  1 25  1  0
  1 26  1  0
  1 27  1  0
  3 28  1  0
  3 29  1  0
  3 30  1  0
  4 31  1  0
  4 32  1  0
  5 33  1  0
  6 34  1  0
  8 35  1  0
  9 36  1  0
 11 37  1  0
 14 38  1  0
 14 39  1  0
 20 40  1  0
 20 41  1  0
 21 42  1  0
 21 43  1  0
 22 44  1  0
 24 45  1  0
M  END
>  <UniqueID>  (73) 
72

>  <SMILES>  (73) 
CC(C)(CO)Nc1ccc2cc(C(N)=O)n(C(=O)OCCO)c2c1

>  <Energy>  (73) 
81.6392787079178

>  <Genealogy>  (73) 
CC(C)(CO)Nc1ccc2cc(C(N)=O)n(C(=O)OCCO)c2c1 (3D coordinates assigned)
CC(C)(CO)Nc1ccc2cc(C(N)=O)n(C(=O)OCCO)c2c1 (optimized conformer: 81.6392787079178 kcal/mol)

>  <smiles>  (73) 
CC(C)(CO)Nc1ccc2cc(C(N)=O)n(C(=O)OCCO)c2c1

>  <score_type>  (73) 
oracle

>  <origin>  (73) 
adg

>  <m_score__min__energy>  (73) 
-9.0500000000000007

>  <m_primary>  (73) 
energy

$$$$
73:0
     RDKit          3D

 49 51  0  0  0  0  0  0  0  0999 V2000
   -7.2580   17.3470  -32.7260 C   0  0  0  0  0  0  0  0  0  0  0  0
   -6.6090   18.5190  -33.3270 N   0  0  0  0  0  0  0  0  0  0  0  0
   -5.7720   18.3160  -34.5210 C   0  0  0  0  0  0  0  0  0  0  0  0
   -4.3170   18.3850  -34.1730 C   0  0  0  0  0  0  0  0  0  0  0  0
   -3.5210   17.3240  -33.7870 C   0  0  0  0  0  0  0  0  0  0  0  0
   -2.2720   17.8620  -33.5590 C   0  0  0  0  0  0  0  0  0  0  0  0
   -2.3850   19.2140  -33.8130 C   0  0  0  0  0  0  0  0  0  0  0  0
   -3.6150   19.4950  -34.1750 O   0  0  0  0  0  0  0  0  0  0  0  0
   -6.8060   19.8410  -32.7540 C   0  0  0  0  0  0  0  0  0  0  0  0
   -8.1150   20.3540  -32.5240 C   0  0  0  0  0  0  0  0  0  0  0  0
   -8.3100   21.6320  -31.9750 C   0  0  0  0  0  0  0  0  0  0  0  0
   -7.1870   22.3830  -31.6530 C   0  0  0  0  0  0  0  0  0  0  0  0
   -7.0900   23.6540  -31.1330 C   0  0  0  0  0  0  0  0  0  0  0  0
   -5.7230   23.9030  -31.0220 C   0  0  0  0  0  0  0  0  0  0  0  0
   -5.1670   25.1330  -30.4200 C   0  0  0  0  0  0  0  0  0  0  0  0
   -3.9090   25.6540  -30.8430 N   0  0  0  0  0  0  0  0  0  0  0  0
   -5.7890   25.7070  -29.4870 O   0  0  0  0  0  0  0  0  0  0  0  0
   -5.0060   22.8320  -31.4660 N   0  0  0  0  0  0  0  0  0  0  0  0
   -3.5820   22.7090  -31.5890 C   0  0  0  0  0  0  0  0  0  0  0  0
   -3.0860   22.1910  -32.6250 O   0  0  0  0  0  0  0  0  0  0  0  0
   -2.7630   23.1440  -30.5350 O   0  0  0  0  0  0  0  0  0  0  0  0
   -2.6270   22.5230  -29.2500 C   0  0  0  0  0  0  0  0  0  0  0  0
   -1.2760   22.9700  -28.6730 C   0  0  0  0  0  0  0  0  0  0  0  0
   -2.6300   20.9880  -29.3850 C   0  0  0  0  0  0  0  0  0  0  0  0
   -3.7500   22.9880  -28.3030 C   0  0  0  0  0  0  0  0  0  0  0  0
   -5.9180   21.9100  -31.8450 C   0  0  0  0  0  0  0  0  0  0  0  0
   -5.6920   20.6500  -32.4110 C   0  0  0  0  0  0  0  0  0  0  0  0
   -7.2144   17.4257  -31.6297 H   0  0  0  0  0  0  0  0  0  0  0  0
   -8.3086   17.3037  -33.0490 H   0  0  0  0  0  0  0  0  0  0  0  0
   -6.7372   16.4336  -33.0490 H   0  0  0  0  0  0  0  0  0  0  0  0
   -5.9927   17.3281  -34.9516 H   0  0  0  0  0  0  0  0  0  0  0  0
   -5.9974   19.1111  -35.2469 H   0  0  0  0  0  0  0  0  0  0  0  0
   -3.8207   16.2707  -33.6833 H   0  0  0  0  0  0  0  0  0  0  0  0
   -1.3682   17.3227  -33.2393 H   0  0  0  0  0  0  0  0  0  0  0  0
   -1.5680   19.9453  -33.7253 H   0  0  0  0  0  0  0  0  0  0  0  0
   -8.9892   19.7378  -32.7811 H   0  0  0  0  0  0  0  0  0  0  0  0
   -9.3226   22.0266  -31.8050 H   0  0  0  0  0  0  0  0  0  0  0  0
   -7.9153   24.3291  -30.8627 H   0  0  0  0  0  0  0  0  0  0  0  0
   -3.0150   25.2880  -30.4450 H   0  0  0  0  0  0  0  0  0  0  0  0
   -1.3234   22.9543  -27.5741 H   0  0  0  0  0  0  0  0  0  0  0  0
   -0.4863   22.2853  -29.0158 H   0  0  0  0  0  0  0  0  0  0  0  0
   -1.0505   23.9906  -29.0158 H   0  0  0  0  0  0  0  0  0  0  0  0
   -2.6309   20.5319  -28.3840 H   0  0  0  0  0  0  0  0  0  0  0  0
   -3.5288   20.6699  -29.9337 H   0  0  0  0  0  0  0  0  0  0  0  0
   -1.7325   20.6664  -29.9337 H   0  0  0  0  0  0  0  0  0  0  0  0
   -3.4283   22.8548  -27.2596 H   0  0  0  0  0  0  0  0  0  0  0  0
   -3.9681   24.0504  -28.4867 H   0  0  0  0  0  0  0  0  0  0  0  0
   -4.6553   22.3908  -28.4867 H   0  0  0  0  0  0  0  0  0  0  0  0
   -4.6667   20.2925  -32.5872 H   0  0  0  0  0  0  0  0  0  0  0  0
  1  2  1  0
  2  3  1  0
  3  4  1  0
  4  5  2  0
  5  6  1  0
  6  7  2  0
  7  8  1  0
  2  9  1  0
  9 10  2  0
 10 11  1  0
 11 12  2  0
 12 13  1  0
 13 14  2  0
 14 15  1  0
 15 16  1  0
 15 17  2  0
 14 18  1  0
 18 19  1  0
 19 20  2  0
 19 21  1  0
 21 22  1  0
 22 23  1  0
 22 24  1  0
 22 25  1  0
 18 26  1  0
 26 27  2  0
  8  4  1  0
 27  9  1  0
 26 12  1  0
  1 28  1  0
  1 29  1  0
  1 30  1  0
  3 31  1  0
  3 32  1  0
  5 33  1  0
  6 34  1  0
  7 35  1  0
 10 36  1  0
 11 37  1  0
 13 38  1  0
 16 39  1  0
 23 40  1  0
 23 41  1  0
 23 42  1  0
 24 43  1  0
 24 44  1  0
 24 45  1  0
 25 46  1  0
 25 47  1  0
 25 48  1  0
 27 49  1  0
M  CHG  1  16  -1
M  END
>  <UniqueID>  (74) 
73

>  <SMILES>  (74) 
CN(Cc1ccco1)c1ccc2cc(C([NH-])=O)n(C(=O)OC(C)(C)C)c2c1

>  <Energy>  (74) 
111.57823610744153

>  <Genealogy>  (74) 
CN(Cc1ccco1)c1ccc2cc(C([NH-])=O)n(C(=O)OC(C)(C)C)c2c1 (protonated)
CN(Cc1ccco1)c1ccc2cc(C([NH-])=O)n(C(=O)OC(C)(C)C)c2c1 (3D coordinates assigned)
CN(Cc1ccco1)c1ccc2cc(C([NH-])=O)n(C(=O)OC(C)(C)C)c2c1 (optimized conformer: 111.57823610744153 kcal/mol)

>  <smiles>  (74) 
CN(Cc1ccco1)c1ccc2cc(C(N)=O)n(C(=O)OC(C)(C)C)c2c1

>  <score_type>  (74) 
oracle

>  <origin>  (74) 
adg

>  <m_score__min__energy>  (74) 
-11.16

>  <m_primary>  (74) 
energy

$$$$
74:0
     RDKit          3D

 28 29  0  0  0  0  0  0  0  0999 V2000
   -0.3080   21.8410  -34.5720 N   0  0  0  0  0  0  0  0  0  0  0  0
   -0.8430   20.9230  -34.1140 C   0  0  0  0  0  0  0  0  0  0  0  0
   -1.5220   19.7600  -33.5330 C   0  0  0  0  0  0  0  0  0  0  0  0
   -2.9290   19.7420  -33.9300 N   0  0  0  0  0  0  0  0  0  0  0  0
   -3.9710   20.4950  -33.2790 C   0  0  0  0  0  0  0  0  0  0  0  0
   -5.3180   20.0880  -33.4480 C   0  0  0  0  0  0  0  0  0  0  0  0
   -6.3660   20.7830  -32.8230 C   0  0  0  0  0  0  0  0  0  0  0  0
   -6.0420   21.8860  -32.0420 C   0  0  0  0  0  0  0  0  0  0  0  0
   -6.8550   22.7140  -31.3030 C   0  0  0  0  0  0  0  0  0  0  0  0
   -5.9990   23.6380  -30.7120 C   0  0  0  0  0  0  0  0  0  0  0  0
   -6.4700   24.7600  -29.8750 C   0  0  0  0  0  0  0  0  0  0  0  0
   -5.6500   25.3040  -28.8400 N   0  0  0  0  0  0  0  0  0  0  0  0
   -7.5900   25.2830  -30.1150 O   0  0  0  0  0  0  0  0  0  0  0  0
   -4.7050   23.3880  -31.0580 N   0  0  0  0  0  0  0  0  0  0  0  0
   -3.5280   24.0450  -30.5570 C   0  0  0  0  0  0  0  0  0  0  0  0
   -3.4870   25.3000  -30.4660 O   0  0  0  0  0  0  0  0  0  0  0  0
   -2.4200   23.3000  -30.1720 O   0  0  0  0  0  0  0  0  0  0  0  0
   -4.7480   22.3100  -31.8770 C   0  0  0  0  0  0  0  0  0  0  0  0
   -3.6820   21.6230  -32.4710 C   0  0  0  0  0  0  0  0  0  0  0  0
   -1.0334   18.8404  -33.8873 H   0  0  0  0  0  0  0  0  0  0  0  0
   -1.4608   19.8214  -32.4364 H   0  0  0  0  0  0  0  0  0  0  0  0
   -3.1920   19.1110  -34.7220 H   0  0  0  0  0  0  0  0  0  0  0  0
   -5.5458   19.2153  -34.0777 H   0  0  0  0  0  0  0  0  0  0  0  0
   -7.4114   20.4642  -32.9478 H   0  0  0  0  0  0  0  0  0  0  0  0
   -7.9488   22.6575  -31.2011 H   0  0  0  0  0  0  0  0  0  0  0  0
   -6.0140   26.0730  -28.2340 H   0  0  0  0  0  0  0  0  0  0  0  0
   -4.6560   25.0050  -28.7250 H   0  0  0  0  0  0  0  0  0  0  0  0
   -2.6440   21.9514  -32.3140 H   0  0  0  0  0  0  0  0  0  0  0  0
  1  2  3  0
  2  3  1  0
  3  4  1  0
  4  5  1  0
  5  6  2  0
  6  7  1  0
  7  8  2  0
  8  9  1  0
  9 10  2  0
 10 11  1  0
 11 12  1  0
 11 13  2  0
 10 14  1  0
 14 15  1  0
 15 16  2  0
 15 17  1  0
 14 18  1  0
 18 19  2  0
 19  5  1  0
 18  8  1  0
  3 20  1  0
  3 21  1  0
  4 22  1  0
  6 23  1  0
  7 24  1  0
  9 25  1  0
 12 26  1  0
 12 27  1  0
 19 28  1  0
M  CHG  1  17  -1
M  END
>  <UniqueID>  (75) 
74

>  <SMILES>  (75) 
N#CCNc1ccc2cc(C(N)=O)n(C(=O)[O-])c2c1

>  <Energy>  (75) 
66.69216302100035

>  <Genealogy>  (75) 
N#CCNc1ccc2cc(C(N)=O)n(C(=O)[O-])c2c1 (protonated)
N#CCNc1ccc2cc(C(N)=O)n(C(=O)[O-])c2c1 (3D coordinates assigned)
N#CCNc1ccc2cc(C(N)=O)n(C(=O)[O-])c2c1 (optimized conformer: 66.69216302100035 kcal/mol)

>  <smiles>  (75) 
N#CCNc1ccc2cc(C(N)=O)n(C(=O)O)c2c1

>  <score_type>  (75) 
oracle

>  <origin>  (75) 
adg

>  <m_score__min__energy>  (75) 
-8.3800000000000008

>  <m_primary>  (75) 
energy

$$$$
75:0
     RDKit          3D

 51 53  0  0  0  0  0  0  0  0999 V2000
    2.2920   22.5810  -35.5180 C   0  0  0  0  0  0  0  0  0  0  0  0
    0.9660   22.5700  -34.9990 O   0  0  0  0  0  0  0  0  0  0  0  0
    0.3550   21.4560  -34.4050 C   0  0  0  0  0  0  0  0  0  0  0  0
   -0.5020   20.6770  -35.1850 C   0  0  0  0  0  0  0  0  0  0  0  0
   -1.1380   19.5590  -34.6430 C   0  0  0  0  0  0  0  0  0  0  0  0
   -0.9280   19.2010  -33.3020 C   0  0  0  0  0  0  0  0  0  0  0  0
   -1.6370   18.0000  -32.7250 C   0  0  0  0  0  0  0  0  0  0  0  0
   -3.0680   18.0540  -33.0260 N   0  0  0  0  0  0  0  0  0  0  0  0
   -3.8850   19.2260  -32.8580 C   0  0  0  0  0  0  0  0  0  0  0  0
   -5.1850   19.3160  -33.4270 C   0  0  0  0  0  0  0  0  0  0  0  0
   -5.9740   20.4640  -33.2400 C   0  0  0  0  0  0  0  0  0  0  0  0
   -5.4410   21.5060  -32.4880 C   0  0  0  0  0  0  0  0  0  0  0  0
   -5.9910   22.7170  -32.1300 C   0  0  0  0  0  0  0  0  0  0  0  0
   -5.0140   23.3540  -31.3650 C   0  0  0  0  0  0  0  0  0  0  0  0
   -5.1560   24.7200  -30.8210 C   0  0  0  0  0  0  0  0  0  0  0  0
   -4.0610   25.6320  -30.8370 N   0  0  0  0  0  0  0  0  0  0  0  0
   -6.2690   25.0990  -30.3670 O   0  0  0  0  0  0  0  0  0  0  0  0
   -3.9120   22.5630  -31.2510 N   0  0  0  0  0  0  0  0  0  0  0  0
   -2.7200   22.8100  -30.4920 C   0  0  0  0  0  0  0  0  0  0  0  0
   -1.5930   22.6590  -31.0350 O   0  0  0  0  0  0  0  0  0  0  0  0
   -2.8030   23.1220  -29.0290 C   0  0  0  0  0  0  0  0  0  0  0  0
   -1.4320   24.2180  -28.5590 P   0  0  2  0  0  0  0  0  0  0  0  0
   -1.4540   24.4340  -27.0630 O   0  0  0  0  0  0  0  0  0  0  0  0
   -1.6010   25.7080  -29.3430 O   0  0  0  0  0  0  0  0  0  0  0  0
    0.0360   23.5050  -29.0040 O   0  0  0  0  0  0  0  0  0  0  0  0
   -4.1880   21.4400  -31.9430 C   0  0  0  0  0  0  0  0  0  0  0  0
   -3.3860   20.3050  -32.0970 C   0  0  0  0  0  0  0  0  0  0  0  0
   -0.0580   19.9720  -32.5030 C   0  0  0  0  0  0  0  0  0  0  0  0
    0.1480   19.5920  -31.1670 O   0  0  0  0  0  0  0  0  0  0  0  0
   -0.6380   20.0390  -30.0670 C   0  0  0  0  0  0  0  0  0  0  0  0
    0.5780   21.1000  -33.0620 C   0  0  0  0  0  0  0  0  0  0  0  0
    3.0114   22.5870  -34.6859 H   0  0  0  0  0  0  0  0  0  0  0  0
    2.4519   21.6841  -36.1345 H   0  0  0  0  0  0  0  0  0  0  0  0
    2.4370   23.4804  -36.1345 H   0  0  0  0  0  0  0  0  0  0  0  0
   -0.6776   20.9470  -36.2368 H   0  0  0  0  0  0  0  0  0  0  0  0
   -1.8085   18.9542  -35.2711 H   0  0  0  0  0  0  0  0  0  0  0  0
   -1.2102   17.0844  -33.1603 H   0  0  0  0  0  0  0  0  0  0  0  0
   -1.5037   17.9997  -31.6331 H   0  0  0  0  0  0  0  0  0  0  0  0
   -3.5370   17.1540  -33.2820 H   0  0  0  0  0  0  0  0  0  0  0  0
   -5.5778   18.4773  -34.0205 H   0  0  0  0  0  0  0  0  0  0  0  0
   -6.9818   20.5363  -33.6748 H   0  0  0  0  0  0  0  0  0  0  0  0
   -6.9883   23.1002  -32.3917 H   0  0  0  0  0  0  0  0  0  0  0  0
   -3.0760   25.2890  -30.8320 H   0  0  0  0  0  0  0  0  0  0  0  0
   -3.7598   23.6206  -28.8150 H   0  0  0  0  0  0  0  0  0  0  0  0
   -2.7370   22.1875  -28.4525 H   0  0  0  0  0  0  0  0  0  0  0  0
   -0.1720   22.9860  -29.8210 H   0  0  0  0  0  0  0  0  0  0  0  0
   -2.3888   20.2541  -31.6355 H   0  0  0  0  0  0  0  0  0  0  0  0
   -0.1440   19.7580  -29.1252 H   0  0  0  0  0  0  0  0  0  0  0  0
   -0.7446   21.1329  -30.1130 H   0  0  0  0  0  0  0  0  0  0  0  0
   -1.6326   19.5714  -30.1130 H   0  0  0  0  0  0  0  0  0  0  0  0
    1.2545   21.7070  -32.4424 H   0  0  0  0  0  0  0  0  0  0  0  0
  1  2  1  0
  2  3  1  0
  3  4  2  0
  4  5  1  0
  5  6  2  0
  6  7  1  0
  7  8  1  0
  8  9  1  0
  9 10  2  0
 10 11  1  0
 11 12  2  0
 12 13  1  0
 13 14  2  0
 14 15  1  0
 15 16  1  0
 15 17  2  0
 14 18  1  0
 18 19  1  0
 19 20  2  0
 19 21  1  0
 21 22  1  0
 22 23  2  0
 22 24  1  6
 22 25  1  0
 18 26  1  0
 26 27  2  0
  6 28  1  0
 28 29  1  0
 29 30  1  0
 28 31  2  0
 31  3  1  0
 27  9  1  0
 26 12  1  0
  1 32  1  0
  1 33  1  0
  1 34  1  0
  4 35  1  0
  5 36  1  0
  7 37  1  0
  7 38  1  0
  8 39  1  0
 10 40  1  0
 11 41  1  0
 13 42  1  0
 16 43  1  0
 21 44  1  0
 21 45  1  0
 25 46  1  0
 27 47  1  0
 30 48  1  0
 30 49  1  0
 30 50  1  0
 31 51  1  0
M  CHG  2  16  -1  24  -1
M  END
>  <UniqueID>  (76) 
75

>  <SMILES>  (76) 
COc1ccc(CNc2ccc3cc(C([NH-])=O)n(C(=O)C[P@](=O)([O-])O)c3c2)c(OC)c1

>  <Energy>  (76) 
84.5520076389475

>  <Genealogy>  (76) 
COc1ccc(CNc2ccc3cc(C([NH-])=O)n(C(=O)CP(=O)([O-])O)c3c2)c(OC)c1 (protonated)
COc1ccc(CNc2ccc3cc(C([NH-])=O)n(C(=O)C[P@](=O)([O-])O)c3c2)c(OC)c1 (chirality)
COc1ccc(CNc2ccc3cc(C([NH-])=O)n(C(=O)C[P@](=O)([O-])O)c3c2)c(OC)c1 (3D coordinates assigned)
COc1ccc(CNc2ccc3cc(C([NH-])=O)n(C(=O)C[P@](=O)([O-])O)c3c2)c(OC)c1 (optimized conformer: 84.5520076389475 kcal/mol)

>  <smiles>  (76) 
COc1ccc(CNc2ccc3cc(C(N)=O)n(C(=O)CP(=O)(O)O)c3c2)c(OC)c1

>  <score_type>  (76) 
oracle

>  <origin>  (76) 
adg

>  <m_score__min__energy>  (76) 
-12.050000000000001

>  <m_primary>  (76) 
energy

$$$$
76:0
     RDKit          3D

 65 68  0  0  0  0  0  0  0  0999 V2000
    0.1970   18.4840  -31.3820 C   0  0  0  0  0  0  0  0  0  0  0  0
    1.5700   18.0790  -31.9370 C   0  0  0  0  0  0  0  0  0  0  0  0
    1.7890   18.7860  -33.2890 C   0  0  0  0  0  0  0  0  0  0  0  0
    2.6600   18.4950  -30.9280 C   0  0  0  0  0  0  0  0  0  0  0  0
    1.5570   16.6540  -32.1050 O   0  0  0  0  0  0  0  0  0  0  0  0
    0.4950   15.7870  -31.7990 C   0  0  0  0  0  0  0  0  0  0  0  0
    0.4360   15.2210  -30.6730 O   0  0  0  0  0  0  0  0  0  0  0  0
   -0.5450   15.5540  -32.7680 N   0  0  0  0  0  0  0  0  0  0  0  0
   -1.6800   14.6850  -32.4140 C   0  0  0  0  0  0  0  0  0  0  0  0
   -2.7490   14.6890  -33.5100 C   0  0  0  0  0  0  0  0  0  0  0  0
   -2.9570   16.0660  -33.9750 N   0  0  0  0  0  0  0  0  0  0  0  0
   -4.2120   16.7420  -33.7630 C   0  0  0  0  0  0  0  0  0  0  0  0
   -4.8770   17.3590  -34.8380 C   0  0  0  0  0  0  0  0  0  0  0  0
   -6.0490   18.0900  -34.6200 C   0  0  0  0  0  0  0  0  0  0  0  0
   -6.5610   18.2370  -33.3250 C   0  0  0  0  0  0  0  0  0  0  0  0
   -7.7290   19.0460  -33.1060 N   0  0  0  0  0  0  0  0  0  0  0  0
   -7.6890   20.3560  -32.5120 C   0  0  0  0  0  0  0  0  0  0  0  0
   -8.9000   20.9940  -32.1520 C   0  0  0  0  0  0  0  0  0  0  0  0
   -8.8910   22.2750  -31.5700 C   0  0  0  0  0  0  0  0  0  0  0  0
   -7.6590   22.8980  -31.3840 C   0  0  0  0  0  0  0  0  0  0  0  0
   -7.3600   24.1150  -30.8150 C   0  0  0  0  0  0  0  0  0  0  0  0
   -5.9720   24.2210  -30.8780 C   0  0  0  0  0  0  0  0  0  0  0  0
   -5.2260   25.4150  -30.4290 C   0  0  0  0  0  0  0  0  0  0  0  0
   -3.8840   25.6420  -30.8520 N   0  0  0  0  0  0  0  0  0  0  0  0
   -5.7980   26.2710  -29.7000 O   0  0  0  0  0  0  0  0  0  0  0  0
   -5.4320   23.1130  -31.4600 N   0  0  0  0  0  0  0  0  0  0  0  0
   -4.0400   22.7840  -31.6000 C   0  0  0  0  0  0  0  0  0  0  0  0
   -3.2130   23.1700  -30.7250 O   0  0  0  0  0  0  0  0  0  0  0  0
   -3.6010   22.1030  -32.7430 O   0  0  0  0  0  0  0  0  0  0  0  0
   -3.0980   20.7950  -32.7580 C   0  0  0  0  0  0  0  0  0  0  0  0
   -3.2330   20.0470  -33.7640 O   0  0  0  0  0  0  0  0  0  0  0  0
   -6.4800   22.3120  -31.7630 C   0  0  0  0  0  0  0  0  0  0  0  0
   -6.4600   21.0340  -32.3290 C   0  0  0  0  0  0  0  0  0  0  0  0
   -5.9230   17.5860  -32.2560 C   0  0  0  0  0  0  0  0  0  0  0  0
   -4.7550   16.8520  -32.4730 C   0  0  0  0  0  0  0  0  0  0  0  0
   -1.8010   16.8350  -34.4640 C   0  0  0  0  0  0  0  0  0  0  0  0
   -0.4730   16.1450  -34.1160 C   0  0  0  0  0  0  0  0  0  0  0  0
    0.2287   18.4747  -30.2825 H   0  0  0  0  0  0  0  0  0  0  0  0
   -0.0566   19.4952  -31.7329 H   0  0  0  0  0  0  0  0  0  0  0  0
   -0.5648   17.7723  -31.7329 H   0  0  0  0  0  0  0  0  0  0  0  0
    2.1103   19.8231  -33.1126 H   0  0  0  0  0  0  0  0  0  0  0  0
    2.5644   18.2540  -33.8596 H   0  0  0  0  0  0  0  0  0  0  0  0
    0.8486   18.7855  -33.8596 H   0  0  0  0  0  0  0  0  0  0  0  0
    2.2853   18.3520  -29.9037 H   0  0  0  0  0  0  0  0  0  0  0  0
    3.5563   17.8757  -31.0804 H   0  0  0  0  0  0  0  0  0  0  0  0
    2.9158   19.5539  -31.0804 H   0  0  0  0  0  0  0  0  0  0  0  0
   -1.3140   13.6571  -32.2747 H   0  0  0  0  0  0  0  0  0  0  0  0
   -2.1328   15.0669  -31.4871 H   0  0  0  0  0  0  0  0  0  0  0  0
   -2.4164   14.0628  -34.3509 H   0  0  0  0  0  0  0  0  0  0  0  0
   -3.6914   14.2875  -33.1092 H   0  0  0  0  0  0  0  0  0  0  0  0
   -4.4725   17.2659  -35.8567 H   0  0  0  0  0  0  0  0  0  0  0  0
   -6.5716   18.5521  -35.4705 H   0  0  0  0  0  0  0  0  0  0  0  0
   -8.6490   18.6880  -33.4490 H   0  0  0  0  0  0  0  0  0  0  0  0
   -9.8580   20.4832  -32.3290 H   0  0  0  0  0  0  0  0  0  0  0  0
   -9.8273   22.7690  -31.2713 H   0  0  0  0  0  0  0  0  0  0  0  0
   -8.0666   24.8482  -30.3989 H   0  0  0  0  0  0  0  0  0  0  0  0
   -3.0770   25.3000  -30.2850 H   0  0  0  0  0  0  0  0  0  0  0  0
   -2.5728   20.4117  -31.8707 H   0  0  0  0  0  0  0  0  0  0  0  0
   -5.5100   20.5655  -32.6257 H   0  0  0  0  0  0  0  0  0  0  0  0
   -6.3457   17.6548  -31.2428 H   0  0  0  0  0  0  0  0  0  0  0  0
   -4.2567   16.3563  -31.6269 H   0  0  0  0  0  0  0  0  0  0  0  0
   -1.8755   16.9349  -35.5569 H   0  0  0  0  0  0  0  0  0  0  0  0
   -1.8136   17.8212  -33.9770 H   0  0  0  0  0  0  0  0  0  0  0  0
   -0.2725   15.3512  -34.8506 H   0  0  0  0  0  0  0  0  0  0  0  0
    0.3357   16.8903  -34.1386 H   0  0  0  0  0  0  0  0  0  0  0  0
  1  2  1  0
  2  3  1  0
  2  4  1  0
  2  5  1  0
  5  6  1  0
  6  7  2  0
  6  8  1  0
  8  9  1  0
  9 10  1  0
 10 11  1  0
 11 12  1  0
 12 13  2  0
 13 14  1  0
 14 15  2  0
 15 16  1  0
 16 17  1  0
 17 18  2  0
 18 19  1  0
 19 20  2  0
 20 21  1  0
 21 22  2  0
 22 23  1  0
 23 24  1  0
 23 25  2  0
 22 26  1  0
 26 27  1  0
 27 28  2  0
 27 29  1  0
 29 30  1  0
 30 31  2  0
 26 32  1  0
 32 33  2  0
 15 34  1  0
 34 35  2  0
 11 36  1  0
 36 37  1  0
 37  8  1  0
 35 12  1  0
 33 17  1  0
 32 20  1  0
  1 38  1  0
  1 39  1  0
  1 40  1  0
  3 41  1  0
  3 42  1  0
  3 43  1  0
  4 44  1  0
  4 45  1  0
  4 46  1  0
  9 47  1  0
  9 48  1  0
 10 49  1  0
 10 50  1  0
 13 51  1  0
 14 52  1  0
 16 53  1  0
 18 54  1  0
 19 55  1  0
 21 56  1  0
 24 57  1  0
 30 58  1  0
 33 59  1  0
 34 60  1  0
 35 61  1  0
 36 62  1  0
 36 63  1  0
 37 64  1  0
 37 65  1  0
M  CHG  1  24  -1
M  END
>  <UniqueID>  (77) 
76

>  <SMILES>  (77) 
CC(C)(C)OC(=O)N1CCN(c2ccc(Nc3ccc4cc(C([NH-])=O)n(C(=O)OC=O)c4c3)cc2)CC1

>  <Energy>  (77) 
113.96180403287563

>  <Genealogy>  (77) 
CC(C)(C)OC(=O)N1CCN(c2ccc(Nc3ccc4cc(C([NH-])=O)n(C(=O)OC=O)c4c3)cc2)CC1 (protonated)
CC(C)(C)OC(=O)N1CCN(c2ccc(Nc3ccc4cc(C([NH-])=O)n(C(=O)OC=O)c4c3)cc2)CC1 (3D coordinates assigned)
CC(C)(C)OC(=O)N1CCN(c2ccc(Nc3ccc4cc(C([NH-])=O)n(C(=O)OC=O)c4c3)cc2)CC1 (nonaromatic ring conformer: 113.96180403287563 kcal/mol)

>  <smiles>  (77) 
CC(C)(C)OC(=O)N1CCN(c2ccc(Nc3ccc4cc(C(N)=O)n(C(=O)OC=O)c4c3)cc2)CC1

>  <score_type>  (77) 
oracle

>  <origin>  (77) 
adg

>  <m_score__min__energy>  (77) 
-11.43

>  <m_primary>  (77) 
energy

$$$$
77:0
     RDKit          3D

 46 47  0  0  0  0  0  0  0  0999 V2000
   -1.3250   20.2220  -27.4370 C   0  0  0  0  0  0  0  0  0  0  0  0
   -1.3770   21.4070  -28.2830 N   0  0  0  0  0  0  0  0  0  0  0  0
   -0.6520   22.6000  -27.9570 C   0  0  0  0  0  0  0  0  0  0  0  0
    0.0910   22.6300  -26.9370 O   0  0  0  0  0  0  0  0  0  0  0  0
   -0.7370   23.8070  -28.8560 C   0  0  2  0  0  0  0  0  0  0  0  0
   -1.3620   24.9850  -28.1000 C   0  0  0  0  0  0  0  0  0  0  0  0
   -1.6010   26.0630  -28.9650 O   0  0  0  0  0  0  0  0  0  0  0  0
   -1.5540   23.5060  -30.0300 N   0  0  0  0  0  0  0  0  0  0  0  0
   -2.9160   23.0480  -30.0580 C   0  0  0  0  0  0  0  0  0  0  0  0
   -3.5090   22.8940  -28.9580 O   0  0  0  0  0  0  0  0  0  0  0  0
   -3.6510   22.7410  -31.3080 C   0  0  0  0  0  0  0  0  0  0  0  0
   -3.0480   22.3160  -32.3270 O   0  0  0  0  0  0  0  0  0  0  0  0
   -5.0720   22.9250  -31.3700 N   0  0  0  0  0  0  0  0  0  0  0  0
   -5.7830   24.0140  -30.9650 C   0  0  0  0  0  0  0  0  0  0  0  0
   -5.2080   25.2770  -30.4590 C   0  0  0  0  0  0  0  0  0  0  0  0
   -3.8870   25.6580  -30.8340 N   0  0  0  0  0  0  0  0  0  0  0  0
   -5.8680   26.0200  -29.6850 O   0  0  0  0  0  0  0  0  0  0  0  0
   -7.1500   23.7910  -31.1330 C   0  0  0  0  0  0  0  0  0  0  0  0
   -7.2490   22.5190  -31.6510 C   0  0  0  0  0  0  0  0  0  0  0  0
   -8.3740   21.7770  -31.9930 C   0  0  0  0  0  0  0  0  0  0  0  0
   -8.1810   20.4730  -32.4790 C   0  0  0  0  0  0  0  0  0  0  0  0
   -6.8730   19.9210  -32.6110 C   0  0  0  0  0  0  0  0  0  0  0  0
   -6.6850   18.5700  -33.1080 N   0  0  0  0  0  0  0  0  0  0  0  0
   -5.9340   18.3260  -34.3480 C   0  0  0  0  0  0  0  0  0  0  0  0
   -7.2360   17.4210  -32.3780 C   0  0  0  0  0  0  0  0  0  0  0  0
   -5.7580   20.7180  -32.2430 C   0  0  0  0  0  0  0  0  0  0  0  0
   -5.9840   22.0180  -31.7800 C   0  0  0  0  0  0  0  0  0  0  0  0
   -1.3383   20.5254  -26.3798 H   0  0  0  0  0  0  0  0  0  0  0  0
   -2.1960   19.5836  -27.6463 H   0  0  0  0  0  0  0  0  0  0  0  0
   -0.4014   19.6623  -27.6463 H   0  0  0  0  0  0  0  0  0  0  0  0
   -1.9630   21.3820  -29.1480 H   0  0  0  0  0  0  0  0  0  0  0  0
    0.2811   24.0734  -29.1763 H   0  0  0  0  0  0  0  0  0  0  0  0
   -2.3145   24.6625  -27.6543 H   0  0  0  0  0  0  0  0  0  0  0  0
   -0.6626   25.3110  -27.3160 H   0  0  0  0  0  0  0  0  0  0  0  0
   -1.9920   25.6820  -29.7930 H   0  0  0  0  0  0  0  0  0  0  0  0
   -3.0540   25.2450  -30.3590 H   0  0  0  0  0  0  0  0  0  0  0  0
   -7.9728   24.4833  -30.9012 H   0  0  0  0  0  0  0  0  0  0  0  0
   -9.3846   22.1982  -31.8863 H   0  0  0  0  0  0  0  0  0  0  0  0
   -9.0543   19.8673  -32.7626 H   0  0  0  0  0  0  0  0  0  0  0  0
   -4.9147   17.9948  -34.1002 H   0  0  0  0  0  0  0  0  0  0  0  0
   -6.4402   17.5461  -34.9358 H   0  0  0  0  0  0  0  0  0  0  0  0
   -5.8851   19.2545  -34.9358 H   0  0  0  0  0  0  0  0  0  0  0  0
   -7.1507   17.5990  -31.2958 H   0  0  0  0  0  0  0  0  0  0  0  0
   -8.2949   17.2901  -32.6457 H   0  0  0  0  0  0  0  0  0  0  0  0
   -6.6752   16.5133  -32.6457 H   0  0  0  0  0  0  0  0  0  0  0  0
   -4.7352   20.3207  -32.3205 H   0  0  0  0  0  0  0  0  0  0  0  0
  1  2  1  0
  2  3  1  0
  3  4  2  0
  3  5  1  0
  5  6  1  0
  6  7  1  0
  5  8  1  0
  8  9  1  0
  9 10  2  0
  9 11  1  0
 11 12  2  0
 11 13  1  0
 13 14  1  0
 14 15  1  0
 15 16  1  0
 15 17  2  0
 14 18  2  0
 18 19  1  0
 19 20  2  0
 20 21  1  0
 21 22  2  0
 22 23  1  0
 23 24  1  0
 23 25  1  0
 22 26  1  0
 26 27  2  0
 27 13  1  0
 27 19  1  0
  1 28  1  0
  1 29  1  0
  1 30  1  0
  2 31  1  0
  5 32  1  6
  6 33  1  0
  6 34  1  0
  7 35  1  0
 16 36  1  0
 18 37  1  0
 20 38  1  0
 21 39  1  0
 24 40  1  0
 24 41  1  0
 24 42  1  0
 25 43  1  0
 25 44  1  0
 25 45  1  0
 26 46  1  0
M  CHG  2   8  -1  16  -1
M  END
>  <UniqueID>  (78) 
77

>  <SMILES>  (78) 
CNC(=O)[C@H](CO)[N-]C(=O)C(=O)n1c(C([NH-])=O)cc2ccc(N(C)C)cc21

>  <Energy>  (78) 
80.91079069062648

>  <Genealogy>  (78) 
CNC(=O)C(CO)[N-]C(=O)C(=O)n1c(C([NH-])=O)cc2ccc(N(C)C)cc21 (protonated)
CNC(=O)[C@H](CO)[N-]C(=O)C(=O)n1c(C([NH-])=O)cc2ccc(N(C)C)cc21 (chirality)
CNC(=O)[C@H](CO)[N-]C(=O)C(=O)n1c(C([NH-])=O)cc2ccc(N(C)C)cc21 (3D coordinates assigned)
CNC(=O)[C@H](CO)[N-]C(=O)C(=O)n1c(C([NH-])=O)cc2ccc(N(C)C)cc21 (optimized conformer: 80.91079069062648 kcal/mol)

>  <smiles>  (78) 
CNC(=O)C(CO)NC(=O)C(=O)n1c(C(N)=O)cc2ccc(N(C)C)cc21

>  <score_type>  (78) 
oracle

>  <origin>  (78) 
adg

>  <m_score__min__energy>  (78) 
-11.52

>  <m_primary>  (78) 
energy

$$$$
78:0
     RDKit          3D

 42 43  0  0  0  0  0  0  0  0999 V2000
   -0.6540   20.9760  -29.6510 C   0  0  0  0  0  0  0  0  0  0  0  0
   -1.7200   21.9780  -29.7460 N   0  0  0  0  0  0  0  0  0  0  0  0
   -1.9530   22.9220  -28.6440 C   0  0  0  0  0  0  0  0  0  0  0  0
   -1.3980   24.2670  -28.9880 C   0  0  0  0  0  0  0  0  0  0  0  0
   -0.1580   24.4790  -28.9210 O   0  0  0  0  0  0  0  0  0  0  0  0
   -2.2510   25.2910  -29.3760 O   0  0  0  0  0  0  0  0  0  0  0  0
   -2.5440   22.0320  -30.9250 C   0  0  0  0  0  0  0  0  0  0  0  0
   -2.9370   23.1460  -31.3670 O   0  0  0  0  0  0  0  0  0  0  0  0
   -2.9150   20.8400  -31.5630 O   0  0  0  0  0  0  0  0  0  0  0  0
   -3.5740   20.7540  -32.7960 C   0  0  0  0  0  0  0  0  0  0  0  0
   -2.9230   20.7430  -33.8760 O   0  0  0  0  0  0  0  0  0  0  0  0
   -5.0090   20.6660  -32.8280 N   0  0  0  0  0  0  0  0  0  0  0  0
   -5.7680   19.6330  -33.2930 C   0  0  0  0  0  0  0  0  0  0  0  0
   -5.2650   18.4450  -34.0110 C   0  0  0  0  0  0  0  0  0  0  0  0
   -3.8990   18.0410  -33.9050 N   0  0  0  0  0  0  0  0  0  0  0  0
   -6.0400   17.8100  -34.7750 O   0  0  0  0  0  0  0  0  0  0  0  0
   -7.1190   19.8670  -33.0530 C   0  0  0  0  0  0  0  0  0  0  0  0
   -7.1710   21.0960  -32.4370 C   0  0  0  0  0  0  0  0  0  0  0  0
   -8.2670   21.8140  -31.9660 C   0  0  0  0  0  0  0  0  0  0  0  0
   -8.0260   23.0470  -31.3390 C   0  0  0  0  0  0  0  0  0  0  0  0
   -6.7040   23.5360  -31.1940 C   0  0  0  0  0  0  0  0  0  0  0  0
   -6.4530   24.8390  -30.4820 C   0  0  0  0  0  0  0  0  0  0  0  0
   -5.0120   24.9130  -29.9830 C   0  0  0  0  0  0  0  0  0  0  0  0
   -4.2220   25.5700  -30.9330 O   0  0  0  0  0  0  0  0  0  0  0  0
   -5.6160   22.7720  -31.6670 C   0  0  0  0  0  0  0  0  0  0  0  0
   -5.8850   21.5570  -32.3100 C   0  0  0  0  0  0  0  0  0  0  0  0
   -0.4364   20.7714  -28.5923 H   0  0  0  0  0  0  0  0  0  0  0  0
   -0.9780   20.0480  -30.1447 H   0  0  0  0  0  0  0  0  0  0  0  0
    0.2522   21.3568  -30.1447 H   0  0  0  0  0  0  0  0  0  0  0  0
   -3.0346   23.0107  -28.4645 H   0  0  0  0  0  0  0  0  0  0  0  0
   -1.4508   22.5479  -27.7397 H   0  0  0  0  0  0  0  0  0  0  0  0
   -3.5710   17.1740  -34.3870 H   0  0  0  0  0  0  0  0  0  0  0  0
   -3.1960   18.6390  -33.4190 H   0  0  0  0  0  0  0  0  0  0  0  0
   -7.9647   19.2094  -33.3027 H   0  0  0  0  0  0  0  0  0  0  0  0
   -9.2902   21.4272  -32.0815 H   0  0  0  0  0  0  0  0  0  0  0  0
   -8.8710   23.6386  -30.9570 H   0  0  0  0  0  0  0  0  0  0  0  0
   -6.6376   25.6715  -31.1769 H   0  0  0  0  0  0  0  0  0  0  0  0
   -7.1302   24.9057  -29.6177 H   0  0  0  0  0  0  0  0  0  0  0  0
   -4.9809   25.4676  -29.0336 H   0  0  0  0  0  0  0  0  0  0  0  0
   -4.6258   23.8950  -29.8261 H   0  0  0  0  0  0  0  0  0  0  0  0
   -3.5090   24.9290  -31.1900 H   0  0  0  0  0  0  0  0  0  0  0  0
   -4.5817   23.1221  -31.5340 H   0  0  0  0  0  0  0  0  0  0  0  0
  1  2  1  0
  2  3  1  0
  3  4  1  0
  4  5  2  0
  4  6  1  0
  2  7  1  0
  7  8  2  0
  7  9  1  0
  9 10  1  0
 10 11  2  0
 10 12  1  0
 12 13  1  0
 13 14  1  0
 14 15  1  0
 14 16  2  0
 13 17  2  0
 17 18  1  0
 18 19  2  0
 19 20  1  0
 20 21  2  0
 21 22  1  0
 22 23  1  0
 23 24  1  0
 21 25  1  0
 25 26  2  0
 26 12  1  0
 26 18  1  0
  1 27  1  0
  1 28  1  0
  1 29  1  0
  3 30  1  0
  3 31  1  0
 15 32  1  0
 15 33  1  0
 17 34  1  0
 19 35  1  0
 20 36  1  0
 22 37  1  0
 22 38  1  0
 23 39  1  0
 23 40  1  0
 24 41  1  0
 25 42  1  0
M  CHG  1   6  -1
M  END
>  <UniqueID>  (79) 
78

>  <SMILES>  (79) 
CN(CC(=O)[O-])C(=O)OC(=O)n1c(C(N)=O)cc2ccc(CCO)cc21

>  <Energy>  (79) 
74.08437840351537

>  <Genealogy>  (79) 
CN(CC(=O)[O-])C(=O)OC(=O)n1c(C(N)=O)cc2ccc(CCO)cc21 (protonated)
CN(CC(=O)[O-])C(=O)OC(=O)n1c(C(N)=O)cc2ccc(CCO)cc21 (3D coordinates assigned)
CN(CC(=O)[O-])C(=O)OC(=O)n1c(C(N)=O)cc2ccc(CCO)cc21 (optimized conformer: 74.08437840351537 kcal/mol)

>  <smiles>  (79) 
CN(CC(=O)O)C(=O)OC(=O)n1c(C(N)=O)cc2ccc(CCO)cc21

>  <score_type>  (79) 
oracle

>  <origin>  (79) 
adg

>  <m_score__min__energy>  (79) 
-11.06

>  <m_primary>  (79) 
energy

$$$$
79:0
     RDKit          3D

 32 33  0  0  0  0  0  0  0  0999 V2000
   -1.7280   25.6580  -28.9650 N   0  0  0  0  0  0  0  0  0  0  0  0
   -0.9250   24.4870  -29.0940 C   0  0  0  0  0  0  0  0  0  0  0  0
    0.2010   24.4460  -28.5310 O   0  0  0  0  0  0  0  0  0  0  0  0
   -1.4300   23.3260  -29.8570 C   0  0  0  0  0  0  0  0  0  0  0  0
   -0.6070   22.3520  -30.4190 C   0  0  0  0  0  0  0  0  0  0  0  0
   -1.4530   21.5130  -31.1100 C   0  0  0  0  0  0  0  0  0  0  0  0
   -1.1750   20.3740  -31.8570 C   0  0  0  0  0  0  0  0  0  0  0  0
   -2.2530   19.6970  -32.4540 C   0  0  0  0  0  0  0  0  0  0  0  0
   -3.5870   20.1660  -32.2910 C   0  0  0  0  0  0  0  0  0  0  0  0
   -4.7040   19.4850  -32.8900 N   0  0  0  0  0  0  0  0  0  0  0  0
   -5.6420   18.6570  -32.1260 C   0  0  0  0  0  0  0  0  0  0  0  0
   -6.6150   17.9140  -33.0460 C   0  0  0  0  0  0  0  0  0  0  0  0
   -6.4250   18.3030  -34.3800 O   0  0  0  0  0  0  0  0  0  0  0  0
   -3.8230   21.3290  -31.5250 C   0  0  0  0  0  0  0  0  0  0  0  0
   -2.7290   21.9840  -30.9510 C   0  0  0  0  0  0  0  0  0  0  0  0
   -2.7330   23.0920  -30.1800 N   0  0  0  0  0  0  0  0  0  0  0  0
   -3.8940   23.8320  -29.7740 C   0  0  0  0  0  0  0  0  0  0  0  0
   -4.3730   23.6560  -28.6220 O   0  0  0  0  0  0  0  0  0  0  0  0
   -4.5040   24.8280  -30.6660 C   0  0  0  0  0  0  0  0  0  0  0  0
   -4.2410   26.0520  -30.5290 O   0  0  0  0  0  0  0  0  0  0  0  0
   -5.3890   24.4260  -31.6580 O   0  0  0  0  0  0  0  0  0  0  0  0
   -2.7060   25.6800  -29.3310 H   0  0  0  0  0  0  0  0  0  0  0  0
    0.4863   22.2705  -30.3297 H   0  0  0  0  0  0  0  0  0  0  0  0
   -0.1428   20.0133  -31.9774 H   0  0  0  0  0  0  0  0  0  0  0  0
   -2.0633   18.7947  -33.0538 H   0  0  0  0  0  0  0  0  0  0  0  0
   -4.8410   19.5820  -33.9230 H   0  0  0  0  0  0  0  0  0  0  0  0
   -5.0727   17.9211  -31.5393 H   0  0  0  0  0  0  0  0  0  0  0  0
   -6.2262   19.3166  -31.4674 H   0  0  0  0  0  0  0  0  0  0  0  0
   -6.4422   16.8313  -32.9567 H   0  0  0  0  0  0  0  0  0  0  0  0
   -7.6447   18.1600  -32.7473 H   0  0  0  0  0  0  0  0  0  0  0  0
   -7.1020   19.0010  -34.5780 H   0  0  0  0  0  0  0  0  0  0  0  0
   -4.8447   21.7110  -31.3831 H   0  0  0  0  0  0  0  0  0  0  0  0
  1  2  1  0
  2  3  2  0
  2  4  1  0
  4  5  2  0
  5  6  1  0
  6  7  2  0
  7  8  1  0
  8  9  2  0
  9 10  1  0
 10 11  1  0
 11 12  1  0
 12 13  1  0
  9 14  1  0
 14 15  2  0
 15 16  1  0
 16 17  1  0
 17 18  2  0
 17 19  1  0
 19 20  2  0
 19 21  1  0
 16  4  1  0
 15  6  1  0
  1 22  1  0
  5 23  1  0
  7 24  1  0
  8 25  1  0
 10 26  1  0
 11 27  1  0
 11 28  1  0
 12 29  1  0
 12 30  1  0
 13 31  1  0
 14 32  1  0
M  CHG  2   1  -1  21  -1
M  END
>  <UniqueID>  (80) 
79

>  <SMILES>  (80) 
[NH-]C(=O)c1cc2ccc(NCCO)cc2n1C(=O)C(=O)[O-]

>  <Energy>  (80) 
69.20938838178553

>  <Genealogy>  (80) 
[NH-]C(=O)c1cc2ccc(NCCO)cc2n1C(=O)C(=O)[O-] (protonated)
[NH-]C(=O)c1cc2ccc(NCCO)cc2n1C(=O)C(=O)[O-] (3D coordinates assigned)
[NH-]C(=O)c1cc2ccc(NCCO)cc2n1C(=O)C(=O)[O-] (optimized conformer: 69.20938838178553 kcal/mol)

>  <smiles>  (80) 
NC(=O)c1cc2ccc(NCCO)cc2n1C(=O)C(=O)O

>  <score_type>  (80) 
oracle

>  <origin>  (80) 
adg

>  <m_score__min__energy>  (80) 
-9.6300000000000008

>  <m_primary>  (80) 
energy

$$$$
80:0
     RDKit          3D

 36 37  0  0  0  0  0  0  0  0999 V2000
   -7.2230   17.0520  -32.7640 C   0  0  0  0  0  0  0  0  0  0  0  0
   -6.0500   18.0230  -32.9490 C   0  0  1  0  0  0  0  0  0  0  0  0
   -5.5310   18.0020  -34.3620 C   0  0  0  0  0  0  0  0  0  0  0  0
   -4.5550   17.2640  -34.6600 O   0  0  0  0  0  0  0  0  0  0  0  0
   -6.0800   18.8310  -35.3330 O   0  0  0  0  0  0  0  0  0  0  0  0
   -6.4350   19.4310  -32.5420 C   0  0  0  0  0  0  0  0  0  0  0  0
   -7.7920   19.8490  -32.5660 C   0  0  0  0  0  0  0  0  0  0  0  0
   -8.1510   21.1480  -32.1690 C   0  0  0  0  0  0  0  0  0  0  0  0
   -7.1370   22.0100  -31.7630 C   0  0  0  0  0  0  0  0  0  0  0  0
   -7.2110   23.3030  -31.2990 C   0  0  0  0  0  0  0  0  0  0  0  0
   -5.8970   23.6710  -31.0260 C   0  0  0  0  0  0  0  0  0  0  0  0
   -5.5110   25.0170  -30.5600 C   0  0  0  0  0  0  0  0  0  0  0  0
   -4.1650   25.4820  -30.6720 N   0  0  0  0  0  0  0  0  0  0  0  0
   -6.3950   25.7920  -30.1060 O   0  0  0  0  0  0  0  0  0  0  0  0
   -5.0430   22.6430  -31.2960 N   0  0  0  0  0  0  0  0  0  0  0  0
   -3.6290   22.5920  -31.0450 C   0  0  0  0  0  0  0  0  0  0  0  0
   -2.8270   22.3990  -31.9990 O   0  0  0  0  0  0  0  0  0  0  0  0
   -3.1460   22.7580  -29.7440 O   0  0  0  0  0  0  0  0  0  0  0  0
   -1.7590   22.8450  -29.4420 C   0  0  0  0  0  0  0  0  0  0  0  0
   -1.4030   24.2700  -29.1820 C   0  0  0  0  0  0  0  0  0  0  0  0
   -2.2540   25.1790  -29.3660 O   0  0  0  0  0  0  0  0  0  0  0  0
   -0.1130   24.6040  -28.7920 O   0  0  0  0  0  0  0  0  0  0  0  0
   -5.8190   21.6330  -31.7500 C   0  0  0  0  0  0  0  0  0  0  0  0
   -5.4350   20.3370  -32.1180 C   0  0  0  0  0  0  0  0  0  0  0  0
   -7.4070   16.8997  -31.6903 H   0  0  0  0  0  0  0  0  0  0  0  0
   -8.1243   17.4719  -33.2345 H   0  0  0  0  0  0  0  0  0  0  0  0
   -6.9789   16.0882  -33.2345 H   0  0  0  0  0  0  0  0  0  0  0  0
   -5.2390   17.6835  -32.2879 H   0  0  0  0  0  0  0  0  0  0  0  0
   -8.5711   19.1476  -32.8993 H   0  0  0  0  0  0  0  0  0  0  0  0
   -9.2016   21.4737  -32.1788 H   0  0  0  0  0  0  0  0  0  0  0  0
   -8.1158   23.9153  -31.1711 H   0  0  0  0  0  0  0  0  0  0  0  0
   -3.4490   24.9360  -31.1980 H   0  0  0  0  0  0  0  0  0  0  0  0
   -3.9030   26.4210  -30.3000 H   0  0  0  0  0  0  0  0  0  0  0  0
   -1.5382   22.2416  -28.5491 H   0  0  0  0  0  0  0  0  0  0  0  0
   -1.1711   22.4658  -30.2908 H   0  0  0  0  0  0  0  0  0  0  0  0
   -4.3792   20.0308  -32.0781 H   0  0  0  0  0  0  0  0  0  0  0  0
  1  2  1  0
  2  3  1  0
  3  4  2  0
  3  5  1  0
  2  6  1  0
  6  7  2  0
  7  8  1  0
  8  9  2  0
  9 10  1  0
 10 11  2  0
 11 12  1  0
 12 13  1  0
 12 14  2  0
 11 15  1  0
 15 16  1  0
 16 17  2  0
 16 18  1  0
 18 19  1  0
 19 20  1  0
 20 21  2  0
 20 22  1  0
 15 23  1  0
 23 24  2  0
 24  6  1  0
 23  9  1  0
  1 25  1  0
  1 26  1  0
  1 27  1  0
  2 28  1  1
  7 29  1  0
  8 30  1  0
 10 31  1  0
 13 32  1  0
 13 33  1  0
 19 34  1  0
 19 35  1  0
 24 36  1  0
M  CHG  2   5  -1  22  -1
M  END
>  <UniqueID>  (81) 
80

>  <SMILES>  (81) 
C[C@@H](C(=O)[O-])c1ccc2cc(C(N)=O)n(C(=O)OCC(=O)[O-])c2c1

>  <Energy>  (81) 
70.94298722348896

>  <Genealogy>  (81) 
CC(C(=O)[O-])c1ccc2cc(C(N)=O)n(C(=O)OCC(=O)[O-])c2c1 (protonated)
C[C@@H](C(=O)[O-])c1ccc2cc(C(N)=O)n(C(=O)OCC(=O)[O-])c2c1 (chirality)
C[C@@H](C(=O)[O-])c1ccc2cc(C(N)=O)n(C(=O)OCC(=O)[O-])c2c1 (3D coordinates assigned)
C[C@@H](C(=O)[O-])c1ccc2cc(C(N)=O)n(C(=O)OCC(=O)[O-])c2c1 (optimized conformer: 70.94298722348896 kcal/mol)

>  <smiles>  (81) 
CC(C(=O)O)c1ccc2cc(C(N)=O)n(C(=O)OCC(=O)O)c2c1

>  <score_type>  (81) 
oracle

>  <origin>  (81) 
adg

>  <m_score__min__energy>  (81) 
-10.74

>  <m_primary>  (81) 
energy

$$$$
81:0
     RDKit          3D

 51 54  0  0  0  0  0  0  0  0999 V2000
   -3.0510   19.0860  -34.2110 C   0  0  0  0  0  0  0  0  0  0  0  0
   -4.0230   17.9370  -34.0500 C   0  0  0  0  0  0  0  0  0  0  0  0
   -5.3320   18.1660  -33.5210 C   0  0  0  0  0  0  0  0  0  0  0  0
   -5.7640   19.4840  -33.0050 C   0  0  0  0  0  0  0  0  0  0  0  0
   -7.1000   19.9220  -33.1870 C   0  0  0  0  0  0  0  0  0  0  0  0
   -7.5110   21.1820  -32.7190 C   0  0  0  0  0  0  0  0  0  0  0  0
   -6.5630   21.9850  -32.0910 C   0  0  0  0  0  0  0  0  0  0  0  0
   -6.6870   23.2400  -31.5330 C   0  0  0  0  0  0  0  0  0  0  0  0
   -5.4180   23.5520  -31.0440 C   0  0  0  0  0  0  0  0  0  0  0  0
   -5.0800   24.8310  -30.3840 C   0  0  0  0  0  0  0  0  0  0  0  0
   -3.9680   25.5960  -30.8430 N   0  0  0  0  0  0  0  0  0  0  0  0
   -5.7580   25.2490  -29.4090 O   0  0  0  0  0  0  0  0  0  0  0  0
   -4.5470   22.5380  -31.3010 N   0  0  0  0  0  0  0  0  0  0  0  0
   -3.1680   22.4420  -30.9130 C   0  0  0  0  0  0  0  0  0  0  0  0
   -2.2810   22.4040  -31.8100 O   0  0  0  0  0  0  0  0  0  0  0  0
   -2.7880   22.4140  -29.5220 N   0  0  0  0  0  0  0  0  0  0  0  0
   -2.5870   21.1190  -28.8650 C   0  0  0  0  0  0  0  0  0  0  0  0
   -2.7270   23.6500  -28.7300 C   0  0  0  0  0  0  0  0  0  0  0  0
   -1.5050   24.4300  -29.0900 C   0  0  0  0  0  0  0  0  0  0  0  0
   -1.5880   25.6640  -29.3220 O   0  0  0  0  0  0  0  0  0  0  0  0
   -0.2790   23.7880  -29.2110 O   0  0  0  0  0  0  0  0  0  0  0  0
   -5.2640   21.5820  -31.9280 C   0  0  0  0  0  0  0  0  0  0  0  0
   -4.8300   20.3280  -32.3660 C   0  0  0  0  0  0  0  0  0  0  0  0
   -6.2490   17.1020  -33.4740 C   0  0  0  0  0  0  0  0  0  0  0  0
   -5.8530   15.8830  -33.9060 N   0  0  0  0  0  0  0  0  0  0  0  0
   -6.5490   14.7360  -33.9700 C   0  0  0  0  0  0  0  0  0  0  0  0
   -5.7040   13.7690  -34.4840 C   0  0  0  0  0  0  0  0  0  0  0  0
   -4.4970   14.3230  -34.7330 N   0  0  0  0  0  0  0  0  0  0  0  0
   -4.6220   15.6150  -34.3630 C   0  0  0  0  0  0  0  0  0  0  0  0
   -3.6370   16.6160  -34.4230 C   0  0  0  0  0  0  0  0  0  0  0  0
   -2.2480   16.2950  -34.9210 C   0  0  0  0  0  0  0  0  0  0  0  0
   -2.7443   19.4486  -33.2188 H   0  0  0  0  0  0  0  0  0  0  0  0
   -2.1655   18.7422  -34.7656 H   0  0  0  0  0  0  0  0  0  0  0  0
   -3.5369   19.9023  -34.7656 H   0  0  0  0  0  0  0  0  0  0  0  0
   -7.8221   19.2693  -33.6995 H   0  0  0  0  0  0  0  0  0  0  0  0
   -8.5492   21.5229  -32.8450 H   0  0  0  0  0  0  0  0  0  0  0  0
   -7.5928   23.8622  -31.4839 H   0  0  0  0  0  0  0  0  0  0  0  0
   -2.9890   25.3010  -30.6290 H   0  0  0  0  0  0  0  0  0  0  0  0
   -2.6080   21.2544  -27.7736 H   0  0  0  0  0  0  0  0  0  0  0  0
   -3.3886   20.4277  -29.1642 H   0  0  0  0  0  0  0  0  0  0  0  0
   -1.6136   20.7032  -29.1642 H   0  0  0  0  0  0  0  0  0  0  0  0
   -3.6204   24.2581  -28.9351 H   0  0  0  0  0  0  0  0  0  0  0  0
   -2.6876   23.3916  -27.6615 H   0  0  0  0  0  0  0  0  0  0  0  0
   -3.7885   20.0071  -32.2169 H   0  0  0  0  0  0  0  0  0  0  0  0
   -7.2692   17.2576  -33.0932 H   0  0  0  0  0  0  0  0  0  0  0  0
   -7.5973   14.5922  -33.6692 H   0  0  0  0  0  0  0  0  0  0  0  0
   -5.9718   12.7170  -34.6617 H   0  0  0  0  0  0  0  0  0  0  0  0
   -3.6660   13.8360  -35.1380 H   0  0  0  0  0  0  0  0  0  0  0  0
   -1.5775   16.1400  -34.0628 H   0  0  0  0  0  0  0  0  0  0  0  0
   -2.2796   15.3805  -35.5315 H   0  0  0  0  0  0  0  0  0  0  0  0
   -1.8751   17.1306  -35.5315 H   0  0  0  0  0  0  0  0  0  0  0  0
  1  2  1  0
  2  3  1  0
  3  4  1  0
  4  5  2  0
  5  6  1  0
  6  7  2  0
  7  8  1  0
  8  9  2  0
  9 10  1  0
 10 11  1  0
 10 12  2  0
  9 13  1  0
 13 14  1  0
 14 15  2  0
 14 16  1  0
 16 17  1  0
 16 18  1  0
 18 19  1  0
 19 20  2  0
 19 21  1  0
 13 22  1  0
 22 23  2  0
  3 24  2  0
 24 25  1  0
 25 26  1  0
 26 27  2  0
 27 28  1  0
 28 29  2  0
 29 30  1  0
 30 31  1  0
 30  2  2  0
 23  4  1  0
 29 25  1  0
 22  7  1  0
  1 32  1  0
  1 33  1  0
  1 34  1  0
  5 35  1  0
  6 36  1  0
  8 37  1  0
 11 38  1  0
 17 39  1  0
 17 40  1  0
 17 41  1  0
 18 42  1  0
 18 43  1  0
 23 44  1  0
 24 45  1  0
 26 46  1  0
 27 47  1  0
 28 48  1  0
 31 49  1  0
 31 50  1  0
 31 51  1  0
M  CHG  3  11  -1  21  -1  28   1
M  END
>  <UniqueID>  (82) 
81

>  <SMILES>  (82) 
Cc1c(-c2ccc3cc(C([NH-])=O)n(C(=O)N(C)CC(=O)[O-])c3c2)cn2cc[nH+]c2c1C

>  <Energy>  (82) 
136.10779684654483

>  <Genealogy>  (82) 
Cc1c(-c2ccc3cc(C([NH-])=O)n(C(=O)N(C)CC(=O)[O-])c3c2)cn2cc[nH+]c2c1C (protonated)
Cc1c(-c2ccc3cc(C([NH-])=O)n(C(=O)N(C)CC(=O)[O-])c3c2)cn2cc[nH+]c2c1C (3D coordinates assigned)
Cc1c(-c2ccc3cc(C([NH-])=O)n(C(=O)N(C)CC(=O)[O-])c3c2)cn2cc[nH+]c2c1C (optimized conformer: 136.10779684654483 kcal/mol)

>  <smiles>  (82) 
Cc1c(-c2ccc3cc(C(N)=O)n(C(=O)N(C)CC(=O)O)c3c2)cn2ccnc2c1C

>  <score_type>  (82) 
oracle

>  <origin>  (82) 
adg

>  <m_score__min__energy>  (82) 
-13.029999999999999

>  <m_primary>  (82) 
energy

$$$$
82:0
     RDKit          3D

 47 48  0  0  0  0  0  0  0  0999 V2000
   -3.8190   15.6810  -32.7680 C   0  0  0  0  0  0  0  0  0  0  0  0
   -5.0710   15.4140  -33.4850 N   0  0  0  0  0  0  0  0  0  0  0  0
   -5.2960   14.1040  -34.1050 C   0  0  0  0  0  0  0  0  0  0  0  0
   -6.0900   16.4320  -33.6060 C   0  0  0  0  0  0  0  0  0  0  0  0
   -7.1480   16.1850  -34.2470 O   0  0  0  0  0  0  0  0  0  0  0  0
   -5.9080   17.8120  -33.0340 C   0  0  0  0  0  0  0  0  0  0  0  0
   -7.1030   18.6280  -33.2580 N   0  0  0  0  0  0  0  0  0  0  0  0
   -7.3070   19.9160  -32.6480 C   0  0  0  0  0  0  0  0  0  0  0  0
   -8.6100   20.4030  -32.3540 C   0  0  0  0  0  0  0  0  0  0  0  0
   -8.7870   21.6660  -31.7650 C   0  0  0  0  0  0  0  0  0  0  0  0
   -7.6540   22.4170  -31.4740 C   0  0  0  0  0  0  0  0  0  0  0  0
   -7.5420   23.6760  -30.9300 C   0  0  0  0  0  0  0  0  0  0  0  0
   -6.1740   23.9380  -30.8830 C   0  0  0  0  0  0  0  0  0  0  0  0
   -5.5860   25.1600  -30.2910 C   0  0  0  0  0  0  0  0  0  0  0  0
   -4.2510   25.5570  -30.6100 N   0  0  0  0  0  0  0  0  0  0  0  0
   -6.2700   25.8800  -29.5160 O   0  0  0  0  0  0  0  0  0  0  0  0
   -5.4690   22.8810  -31.3770 N   0  0  0  0  0  0  0  0  0  0  0  0
   -4.0500   22.8000  -31.5810 C   0  0  0  0  0  0  0  0  0  0  0  0
   -3.5900   22.5340  -32.7250 O   0  0  0  0  0  0  0  0  0  0  0  0
   -3.1810   23.0330  -30.5090 O   0  0  0  0  0  0  0  0  0  0  0  0
   -1.8180   22.6070  -30.4900 C   0  0  0  0  0  0  0  0  0  0  0  0
   -1.1660   22.9030  -29.1370 C   0  0  0  0  0  0  0  0  0  0  0  0
   -1.0280   24.3770  -28.9130 C   0  0  0  0  0  0  0  0  0  0  0  0
   -2.0610   25.2620  -29.3410 N   0  0  0  0  0  0  0  0  0  0  0  0
   -0.0200   24.8330  -28.3100 O   0  0  0  0  0  0  0  0  0  0  0  0
   -6.3890   21.9580  -31.7340 C   0  0  0  0  0  0  0  0  0  0  0  0
   -6.1820   20.7110  -32.3360 C   0  0  0  0  0  0  0  0  0  0  0  0
   -4.0018   15.6420  -31.6840 H   0  0  0  0  0  0  0  0  0  0  0  0
   -3.0710   14.9222  -33.0412 H   0  0  0  0  0  0  0  0  0  0  0  0
   -3.4456   16.6790  -33.0412 H   0  0  0  0  0  0  0  0  0  0  0  0
   -5.4265   13.3444  -33.3201 H   0  0  0  0  0  0  0  0  0  0  0  0
   -6.2003   14.1446  -34.7299 H   0  0  0  0  0  0  0  0  0  0  0  0
   -4.4300   13.8405  -34.7299 H   0  0  0  0  0  0  0  0  0  0  0  0
   -5.7225   17.7329  -31.9526 H   0  0  0  0  0  0  0  0  0  0  0  0
   -5.0538   18.2918  -33.5342 H   0  0  0  0  0  0  0  0  0  0  0  0
   -7.8520   18.2580  -33.8880 H   0  0  0  0  0  0  0  0  0  0  0  0
   -9.4885   19.7845  -32.5902 H   0  0  0  0  0  0  0  0  0  0  0  0
   -9.7932   22.0497  -31.5405 H   0  0  0  0  0  0  0  0  0  0  0  0
   -8.3588   24.3356  -30.6019 H   0  0  0  0  0  0  0  0  0  0  0  0
   -3.8600   26.4420  -30.2180 H   0  0  0  0  0  0  0  0  0  0  0  0
   -3.6330   24.9580  -31.2010 H   0  0  0  0  0  0  0  0  0  0  0  0
   -1.7776   21.5241  -30.6789 H   0  0  0  0  0  0  0  0  0  0  0  0
   -1.2697   23.1566  -31.2693 H   0  0  0  0  0  0  0  0  0  0  0  0
   -1.7888   22.4754  -28.3374 H   0  0  0  0  0  0  0  0  0  0  0  0
   -0.1618   22.4541  -29.1288 H   0  0  0  0  0  0  0  0  0  0  0  0
   -2.4100   25.2430  -30.3240 H   0  0  0  0  0  0  0  0  0  0  0  0
   -5.1648   20.3579  -32.5612 H   0  0  0  0  0  0  0  0  0  0  0  0
  1  2  1  0
  2  3  1  0
  2  4  1  0
  4  5  2  0
  4  6  1  0
  6  7  1  0
  7  8  1  0
  8  9  2  0
  9 10  1  0
 10 11  2  0
 11 12  1  0
 12 13  2  0
 13 14  1  0
 14 15  1  0
 14 16  2  0
 13 17  1  0
 17 18  1  0
 18 19  2  0
 18 20  1  0
 20 21  1  0
 21 22  1  0
 22 23  1  0
 23 24  1  0
 23 25  2  0
 17 26  1  0
 26 27  2  0
 27  8  1  0
 26 11  1  0
  1 28  1  0
  1 29  1  0
  1 30  1  0
  3 31  1  0
  3 32  1  0
  3 33  1  0
  6 34  1  0
  6 35  1  0
  7 36  1  0
  9 37  1  0
 10 38  1  0
 12 39  1  0
 15 40  1  0
 15 41  1  0
 21 42  1  0
 21 43  1  0
 22 44  1  0
 22 45  1  0
 24 46  1  0
 27 47  1  0
M  CHG  1  24  -1
M  END
>  <UniqueID>  (83) 
82

>  <SMILES>  (83) 
CN(C)C(=O)CNc1ccc2cc(C(N)=O)n(C(=O)OCCC([NH-])=O)c2c1

>  <Energy>  (83) 
76.44461246059393

>  <Genealogy>  (83) 
CN(C)C(=O)CNc1ccc2cc(C(N)=O)n(C(=O)OCCC([NH-])=O)c2c1 (protonated)
CN(C)C(=O)CNc1ccc2cc(C(N)=O)n(C(=O)OCCC([NH-])=O)c2c1 (3D coordinates assigned)
CN(C)C(=O)CNc1ccc2cc(C(N)=O)n(C(=O)OCCC([NH-])=O)c2c1 (optimized conformer: 76.44461246059393 kcal/mol)

>  <smiles>  (83) 
CN(C)C(=O)CNc1ccc2cc(C(N)=O)n(C(=O)OCCC(N)=O)c2c1

>  <score_type>  (83) 
oracle

>  <origin>  (83) 
adg

>  <m_score__min__energy>  (83) 
-11.92

>  <m_primary>  (83) 
energy

$$$$
83:0
     RDKit          3D

 41 43  0  0  0  0  0  0  0  0999 V2000
   -5.7670   14.9330  -33.7810 C   0  0  0  0  0  0  0  0  0  0  0  0
   -5.9150   16.3710  -33.9410 N   0  0  0  0  0  0  0  0  0  0  0  0
   -5.8760   16.9990  -35.1030 N   0  0  0  0  0  0  0  0  0  0  0  0
   -6.1020   18.2870  -34.8990 N   0  0  0  0  0  0  0  0  0  0  0  0
   -6.2860   18.4040  -33.5660 C   0  0  0  0  0  0  0  0  0  0  0  0
   -6.5770   19.6750  -32.8710 C   0  0  0  0  0  0  0  0  0  0  0  0
   -7.9190   20.0670  -32.6320 C   0  0  0  0  0  0  0  0  0  0  0  0
   -8.2080   21.2840  -31.9930 C   0  0  0  0  0  0  0  0  0  0  0  0
   -7.1390   22.0810  -31.5940 C   0  0  0  0  0  0  0  0  0  0  0  0
   -7.1370   23.3240  -31.0000 C   0  0  0  0  0  0  0  0  0  0  0  0
   -5.7930   23.6580  -30.8560 C   0  0  0  0  0  0  0  0  0  0  0  0
   -5.3310   24.9060  -30.2140 C   0  0  0  0  0  0  0  0  0  0  0  0
   -5.7820   25.2790  -28.9110 N   0  0  0  0  0  0  0  0  0  0  0  0
   -4.5580   25.6770  -30.8420 O   0  0  0  0  0  0  0  0  0  0  0  0
   -4.9950   22.6700  -31.3500 N   0  0  0  0  0  0  0  0  0  0  0  0
   -3.5670   22.6920  -31.5040 C   0  0  0  0  0  0  0  0  0  0  0  0
   -2.8720   23.4750  -30.7990 O   0  0  0  0  0  0  0  0  0  0  0  0
   -2.9540   21.8460  -32.4340 O   0  0  0  0  0  0  0  0  0  0  0  0
   -2.2210   20.6730  -32.0830 C   0  0  0  0  0  0  0  0  0  0  0  0
   -2.0860   19.7190  -33.2760 C   0  0  0  0  0  0  0  0  0  0  0  0
   -2.7830   18.3680  -33.0640 C   0  0  0  0  0  0  0  0  0  0  0  0
   -3.3830   17.9160  -34.2480 O   0  0  0  0  0  0  0  0  0  0  0  0
   -5.8340   21.7090  -31.7960 C   0  0  0  0  0  0  0  0  0  0  0  0
   -5.5190   20.5110  -32.4480 C   0  0  0  0  0  0  0  0  0  0  0  0
   -6.1810   17.2080  -32.9530 N   0  0  0  0  0  0  0  0  0  0  0  0
   -5.7414   14.6840  -32.7099 H   0  0  0  0  0  0  0  0  0  0  0  0
   -6.6173   14.4218  -34.2561 H   0  0  0  0  0  0  0  0  0  0  0  0
   -4.8304   14.6057  -34.2561 H   0  0  0  0  0  0  0  0  0  0  0  0
   -8.7424   19.4108  -32.9505 H   0  0  0  0  0  0  0  0  0  0  0  0
   -9.2470   21.5975  -31.8135 H   0  0  0  0  0  0  0  0  0  0  0  0
   -8.0099   23.9239  -30.7032 H   0  0  0  0  0  0  0  0  0  0  0  0
   -6.5360   24.7430  -28.4280 H   0  0  0  0  0  0  0  0  0  0  0  0
   -5.4070   26.1390  -28.4530 H   0  0  0  0  0  0  0  0  0  0  0  0
   -1.2165   20.9668  -31.7443 H   0  0  0  0  0  0  0  0  0  0  0  0
   -2.7660   20.1511  -31.2826 H   0  0  0  0  0  0  0  0  0  0  0  0
   -2.5269   20.2029  -34.1600 H   0  0  0  0  0  0  0  0  0  0  0  0
   -1.0132   19.5121  -33.4040 H   0  0  0  0  0  0  0  0  0  0  0  0
   -2.0389   17.6282  -32.7337 H   0  0  0  0  0  0  0  0  0  0  0  0
   -3.5668   18.4959  -32.3029 H   0  0  0  0  0  0  0  0  0  0  0  0
   -4.2780   17.5670  -33.9980 H   0  0  0  0  0  0  0  0  0  0  0  0
   -4.4716   20.2267  -32.6271 H   0  0  0  0  0  0  0  0  0  0  0  0
  1  2  1  0
  2  3  1  0
  3  4  2  0
  4  5  1  0
  5  6  1  0
  6  7  2  0
  7  8  1  0
  8  9  2  0
  9 10  1  0
 10 11  2  0
 11 12  1  0
 12 13  1  0
 12 14  2  0
 11 15  1  0
 15 16  1  0
 16 17  2  0
 16 18  1  0
 18 19  1  0
 19 20  1  0
 20 21  1  0
 21 22  1  0
 15 23  1  0
 23 24  2  0
  5 25  2  0
 25  2  1  0
 24  6  1  0
 23  9  1  0
  1 26  1  0
  1 27  1  0
  1 28  1  0
  7 29  1  0
  8 30  1  0
 10 31  1  0
 13 32  1  0
 13 33  1  0
 19 34  1  0
 19 35  1  0
 20 36  1  0
 20 37  1  0
 21 38  1  0
 21 39  1  0
 22 40  1  0
 24 41  1  0
M  END
>  <UniqueID>  (84) 
83

>  <SMILES>  (84) 
Cn1nnc(-c2ccc3cc(C(N)=O)n(C(=O)OCCCO)c3c2)n1

>  <Energy>  (84) 
115.90986337262547

>  <Genealogy>  (84) 
Cn1nnc(-c2ccc3cc(C(N)=O)n(C(=O)OCCCO)c3c2)n1 (3D coordinates assigned)
Cn1nnc(-c2ccc3cc(C(N)=O)n(C(=O)OCCCO)c3c2)n1 (optimized conformer: 115.90986337262547 kcal/mol)

>  <smiles>  (84) 
Cn1nnc(-c2ccc3cc(C(N)=O)n(C(=O)OCCCO)c3c2)n1

>  <score_type>  (84) 
oracle

>  <origin>  (84) 
adg

>  <m_score__min__energy>  (84) 
-9.4299999999999997

>  <m_primary>  (84) 
energy

$$$$
84:0
     RDKit          3D

 43 44  0  0  0  0  0  0  0  0999 V2000
   -3.8520   23.2080  -28.2840 C   0  0  0  0  0  0  0  0  0  0  0  0
   -2.7950   22.6290  -29.2440 C   0  0  0  0  0  0  0  0  0  0  0  0
   -1.3730   22.9170  -28.7240 C   0  0  0  0  0  0  0  0  0  0  0  0
   -2.9870   21.1080  -29.3370 C   0  0  0  0  0  0  0  0  0  0  0  0
   -2.9690   23.1590  -30.5650 O   0  0  0  0  0  0  0  0  0  0  0  0
   -3.9030   22.7250  -31.5200 C   0  0  0  0  0  0  0  0  0  0  0  0
   -3.5280   22.1640  -32.5840 O   0  0  0  0  0  0  0  0  0  0  0  0
   -5.3030   22.9500  -31.2890 N   0  0  0  0  0  0  0  0  0  0  0  0
   -5.9070   24.1090  -30.9050 C   0  0  0  0  0  0  0  0  0  0  0  0
   -5.2200   25.3430  -30.4670 C   0  0  0  0  0  0  0  0  0  0  0  0
   -3.8710   25.6030  -30.8450 N   0  0  0  0  0  0  0  0  0  0  0  0
   -5.8160   26.1530  -29.7080 O   0  0  0  0  0  0  0  0  0  0  0  0
   -7.2920   23.9620  -30.9030 C   0  0  0  0  0  0  0  0  0  0  0  0
   -7.5210   22.6630  -31.2970 C   0  0  0  0  0  0  0  0  0  0  0  0
   -8.7210   21.9850  -31.4890 C   0  0  0  0  0  0  0  0  0  0  0  0
   -8.6610   20.6570  -31.9410 C   0  0  0  0  0  0  0  0  0  0  0  0
   -7.4120   20.0350  -32.1920 C   0  0  0  0  0  0  0  0  0  0  0  0
   -7.3660   18.6240  -32.7180 C   0  0  0  0  0  0  0  0  0  0  0  0
   -5.9260   18.1460  -32.9570 C   0  0  0  0  0  0  0  0  0  0  0  0
   -5.4130   18.5110  -34.3500 C   0  0  0  0  0  0  0  0  0  0  0  0
   -4.1870   19.1410  -34.2410 F   0  0  0  0  0  0  0  0  0  0  0  0
   -6.2150   20.7560  -31.9890 C   0  0  0  0  0  0  0  0  0  0  0  0
   -6.3050   22.0730  -31.5230 C   0  0  0  0  0  0  0  0  0  0  0  0
   -3.5368   23.0354  -27.2444 H   0  0  0  0  0  0  0  0  0  0  0  0
   -3.9554   24.2887  -28.4611 H   0  0  0  0  0  0  0  0  0  0  0  0
   -4.8184   22.7133  -28.4611 H   0  0  0  0  0  0  0  0  0  0  0  0
   -1.3776   22.9161  -27.6240 H   0  0  0  0  0  0  0  0  0  0  0  0
   -0.6849   22.1400  -29.0884 H   0  0  0  0  0  0  0  0  0  0  0  0
   -1.0415   23.9005  -29.0884 H   0  0  0  0  0  0  0  0  0  0  0  0
   -3.0407   20.6826  -28.3240 H   0  0  0  0  0  0  0  0  0  0  0  0
   -3.9200   20.8885  -29.8768 H   0  0  0  0  0  0  0  0  0  0  0  0
   -2.1378   20.6636  -29.8768 H   0  0  0  0  0  0  0  0  0  0  0  0
   -3.0750   25.2970  -30.2420 H   0  0  0  0  0  0  0  0  0  0  0  0
   -8.0431   24.7221  -30.6421 H   0  0  0  0  0  0  0  0  0  0  0  0
   -9.6865   22.4742  -31.2928 H   0  0  0  0  0  0  0  0  0  0  0  0
   -9.5921   20.0938  -32.1019 H   0  0  0  0  0  0  0  0  0  0  0  0
   -7.8450   17.9565  -31.9866 H   0  0  0  0  0  0  0  0  0  0  0  0
   -7.8955   18.6032  -33.6820 H   0  0  0  0  0  0  0  0  0  0  0  0
   -5.2704   18.6114  -32.2062 H   0  0  0  0  0  0  0  0  0  0  0  0
   -5.9193   17.0491  -32.8746 H   0  0  0  0  0  0  0  0  0  0  0  0
   -5.3027   17.5964  -34.9511 H   0  0  0  0  0  0  0  0  0  0  0  0
   -6.1299   19.1875  -34.8383 H   0  0  0  0  0  0  0  0  0  0  0  0
   -5.2372   20.2948  -32.1918 H   0  0  0  0  0  0  0  0  0  0  0  0
  1  2  1  0
  2  3  1  0
  2  4  1  0
  2  5  1  0
  5  6  1  0
  6  7  2  0
  6  8  1  0
  8  9  1  0
  9 10  1  0
 10 11  1  0
 10 12  2  0
  9 13  2  0
 13 14  1  0
 14 15  2  0
 15 16  1  0
 16 17  2  0
 17 18  1  0
 18 19  1  0
 19 20  1  0
 20 21  1  0
 17 22  1  0
 22 23  2  0
 23  8  1  0
 23 14  1  0
  1 24  1  0
  1 25  1  0
  1 26  1  0
  3 27  1  0
  3 28  1  0
  3 29  1  0
  4 30  1  0
  4 31  1  0
  4 32  1  0
 11 33  1  0
 13 34  1  0
 15 35  1  0
 16 36  1  0
 18 37  1  0
 18 38  1  0
 19 39  1  0
 19 40  1  0
 20 41  1  0
 20 42  1  0
 22 43  1  0
M  CHG  1  11  -1
M  END
>  <UniqueID>  (85) 
84

>  <SMILES>  (85) 
CC(C)(C)OC(=O)n1c(C([NH-])=O)cc2ccc(CCCF)cc21

>  <Energy>  (85) 
71.76258447694693

>  <Genealogy>  (85) 
CC(C)(C)OC(=O)n1c(C([NH-])=O)cc2ccc(CCCF)cc21 (protonated)
CC(C)(C)OC(=O)n1c(C([NH-])=O)cc2ccc(CCCF)cc21 (3D coordinates assigned)
CC(C)(C)OC(=O)n1c(C([NH-])=O)cc2ccc(CCCF)cc21 (optimized conformer: 71.76258447694693 kcal/mol)

>  <smiles>  (85) 
CC(C)(C)OC(=O)n1c(C(N)=O)cc2ccc(CCCF)cc21

>  <score_type>  (85) 
oracle

>  <origin>  (85) 
adg

>  <m_score__min__energy>  (85) 
-10.289999999999999

>  <m_primary>  (85) 
energy

$$$$
85:0
     RDKit          3D

 51 52  0  0  0  0  0  0  0  0999 V2000
   -2.5790   20.9790  -27.7090 C   0  0  0  0  0  0  0  0  0  0  0  0
   -1.6430   21.8770  -28.3960 N   0  0  0  0  0  0  0  0  0  0  0  0
   -0.6830   22.6460  -27.5890 C   0  0  0  0  0  0  0  0  0  0  0  0
   -0.8330   24.1580  -27.8470 C   0  0  1  0  0  0  0  0  0  0  0  0
   -0.0800   24.5420  -28.9690 O   0  0  0  0  0  0  0  0  0  0  0  0
   -2.3030   24.5410  -28.0710 C   0  0  0  0  0  0  0  0  0  0  0  0
   -2.4900   25.0960  -29.3470 O   0  0  0  0  0  0  0  0  0  0  0  0
   -1.6650   21.9220  -29.8440 C   0  0  0  0  0  0  0  0  0  0  0  0
   -0.8580   22.6790  -30.4500 O   0  0  0  0  0  0  0  0  0  0  0  0
   -2.6000   21.0790  -30.6750 C   0  0  0  0  0  0  0  0  0  0  0  0
   -3.2230   21.8760  -31.7440 N   0  0  0  0  0  0  0  0  0  0  0  0
   -3.0410   21.4900  -33.1480 C   0  0  0  0  0  0  0  0  0  0  0  0
   -4.1880   22.8980  -31.4170 C   0  0  0  0  0  0  0  0  0  0  0  0
   -3.8090   24.0840  -31.2140 O   0  0  0  0  0  0  0  0  0  0  0  0
   -5.5790   22.5770  -31.2690 N   0  0  0  0  0  0  0  0  0  0  0  0
   -6.5440   23.2960  -30.6310 C   0  0  0  0  0  0  0  0  0  0  0  0
   -6.3240   24.5150  -29.8270 C   0  0  0  0  0  0  0  0  0  0  0  0
   -5.0800   24.7600  -29.1710 N   0  0  0  0  0  0  0  0  0  0  0  0
   -7.2670   25.3380  -29.6810 O   0  0  0  0  0  0  0  0  0  0  0  0
   -7.7940   22.7100  -30.8200 C   0  0  0  0  0  0  0  0  0  0  0  0
   -7.5580   21.5900  -31.5870 C   0  0  0  0  0  0  0  0  0  0  0  0
   -8.4430   20.6340  -32.0780 C   0  0  0  0  0  0  0  0  0  0  0  0
   -7.9180   19.5940  -32.8650 C   0  0  0  0  0  0  0  0  0  0  0  0
   -6.5330   19.5410  -33.1600 C   0  0  0  0  0  0  0  0  0  0  0  0
   -5.9820   18.4110  -33.9780 C   0  0  0  0  0  0  0  0  0  0  0  0
   -6.0790   18.7220  -35.3210 F   0  0  0  0  0  0  0  0  0  0  0  0
   -5.6640   20.5210  -32.6340 C   0  0  0  0  0  0  0  0  0  0  0  0
   -6.2140   21.5340  -31.8430 C   0  0  0  0  0  0  0  0  0  0  0  0
   -2.4625   21.0907  -26.6209 H   0  0  0  0  0  0  0  0  0  0  0  0
   -3.6097   21.2348  -27.9956 H   0  0  0  0  0  0  0  0  0  0  0  0
   -2.3662   19.9385  -27.9956 H   0  0  0  0  0  0  0  0  0  0  0  0
   -0.8646   22.4429  -26.5233 H   0  0  0  0  0  0  0  0  0  0  0  0
    0.3357   22.3412  -27.8706 H   0  0  0  0  0  0  0  0  0  0  0  0
   -0.4613   24.6839  -26.9552 H   0  0  0  0  0  0  0  0  0  0  0  0
   -0.5670   24.2160  -29.7690 H   0  0  0  0  0  0  0  0  0  0  0  0
   -2.9278   23.6407  -27.9753 H   0  0  0  0  0  0  0  0  0  0  0  0
   -2.5884   25.2903  -27.3179 H   0  0  0  0  0  0  0  0  0  0  0  0
   -2.0270   24.5000  -29.9920 H   0  0  0  0  0  0  0  0  0  0  0  0
   -2.0324   20.2525  -31.1274 H   0  0  0  0  0  0  0  0  0  0  0  0
   -3.3943   20.6900  -30.0210 H   0  0  0  0  0  0  0  0  0  0  0  0
   -2.5723   20.4960  -33.1972 H   0  0  0  0  0  0  0  0  0  0  0  0
   -4.0195   21.4593  -33.6496 H   0  0  0  0  0  0  0  0  0  0  0  0
   -2.3947   22.2253  -33.6496 H   0  0  0  0  0  0  0  0  0  0  0  0
   -4.9340   25.6510  -28.6470 H   0  0  0  0  0  0  0  0  0  0  0  0
   -4.3450   24.0210  -29.1070 H   0  0  0  0  0  0  0  0  0  0  0  0
   -8.7624   23.0656  -30.4383 H   0  0  0  0  0  0  0  0  0  0  0  0
   -9.5191   20.6906  -31.8571 H   0  0  0  0  0  0  0  0  0  0  0  0
   -8.5885   18.8143  -33.2554 H   0  0  0  0  0  0  0  0  0  0  0  0
   -4.9263   18.2491  -33.7148 H   0  0  0  0  0  0  0  0  0  0  0  0
   -6.5568   17.4960  -33.7720 H   0  0  0  0  0  0  0  0  0  0  0  0
   -4.5841   20.4886  -32.8407 H   0  0  0  0  0  0  0  0  0  0  0  0
  1  2  1  0
  2  3  1  0
  3  4  1  0
  4  5  1  0
  4  6  1  0
  6  7  1  0
  2  8  1  0
  8  9  2  0
  8 10  1  0
 10 11  1  0
 11 12  1  0
 11 13  1  0
 13 14  2  0
 13 15  1  0
 15 16  1  0
 16 17  1  0
 17 18  1  0
 17 19  2  0
 16 20  2  0
 20 21  1  0
 21 22  2  0
 22 23  1  0
 23 24  2  0
 24 25  1  0
 25 26  1  0
 24 27  1  0
 27 28  2  0
 28 15  1  0
 28 21  1  0
  1 29  1  0
  1 30  1  0
  1 31  1  0
  3 32  1  0
  3 33  1  0
  4 34  1  1
  5 35  1  0
  6 36  1  0
  6 37  1  0
  7 38  1  0
 10 39  1  0
 10 40  1  0
 12 41  1  0
 12 42  1  0
 12 43  1  0
 18 44  1  0
 18 45  1  0
 20 46  1  0
 22 47  1  0
 23 48  1  0
 25 49  1  0
 25 50  1  0
 27 51  1  0
M  END
>  <UniqueID>  (86) 
85

>  <SMILES>  (86) 
CN(C[C@@H](O)CO)C(=O)CN(C)C(=O)n1c(C(N)=O)cc2ccc(CF)cc21

>  <Energy>  (86) 
82.05198938631263

>  <Genealogy>  (86) 
CN(C[C@@H](O)CO)C(=O)CN(C)C(=O)n1c(C(N)=O)cc2ccc(CF)cc21 (chirality)
CN(C[C@@H](O)CO)C(=O)CN(C)C(=O)n1c(C(N)=O)cc2ccc(CF)cc21 (3D coordinates assigned)
CN(C[C@@H](O)CO)C(=O)CN(C)C(=O)n1c(C(N)=O)cc2ccc(CF)cc21 (optimized conformer: 82.05198938631263 kcal/mol)

>  <smiles>  (86) 
CN(CC(O)CO)C(=O)CN(C)C(=O)n1c(C(N)=O)cc2ccc(CF)cc21

>  <score_type>  (86) 
oracle

>  <origin>  (86) 
adg

>  <m_score__min__energy>  (86) 
-9.1699999999999999

>  <m_primary>  (86) 
energy

$$$$
86:0
     RDKit          3D

 35 37  0  0  0  0  0  0  0  0999 V2000
   -2.6550   21.1690  -33.1210 C   0  0  0  0  0  0  0  0  0  0  0  0
   -3.6620   22.1550  -32.9300 O   0  0  0  0  0  0  0  0  0  0  0  0
   -4.0330   22.6190  -31.6660 C   0  0  0  0  0  0  0  0  0  0  0  0
   -3.1820   22.6840  -30.7370 O   0  0  0  0  0  0  0  0  0  0  0  0
   -5.3960   23.0020  -31.4180 N   0  0  0  0  0  0  0  0  0  0  0  0
   -5.8560   24.1680  -30.8830 C   0  0  0  0  0  0  0  0  0  0  0  0
   -5.0450   25.3670  -30.5820 C   0  0  0  0  0  0  0  0  0  0  0  0
   -3.6250   25.2890  -30.4880 N   0  0  0  0  0  0  0  0  0  0  0  0
   -5.6100   26.4870  -30.4550 O   0  0  0  0  0  0  0  0  0  0  0  0
   -7.2390   24.1220  -30.7270 C   0  0  0  0  0  0  0  0  0  0  0  0
   -7.6180   22.8850  -31.1950 C   0  0  0  0  0  0  0  0  0  0  0  0
   -8.8820   22.3080  -31.2760 C   0  0  0  0  0  0  0  0  0  0  0  0
   -8.9770   21.0020  -31.7860 C   0  0  0  0  0  0  0  0  0  0  0  0
   -7.8140   20.2960  -32.1830 C   0  0  0  0  0  0  0  0  0  0  0  0
   -7.9300   18.9120  -32.7570 C   0  0  0  0  0  0  0  0  0  0  0  0
   -6.6380   18.4860  -33.2840 N   0  0  0  0  0  0  0  0  0  0  0  0
   -5.7310   17.7120  -32.6600 C   0  0  0  0  0  0  0  0  0  0  0  0
   -4.6350   17.6400  -33.4950 C   0  0  0  0  0  0  0  0  0  0  0  0
   -4.9180   18.3780  -34.5840 N   0  0  0  0  0  0  0  0  0  0  0  0
   -6.1300   18.8900  -34.4370 N   0  0  0  0  0  0  0  0  0  0  0  0
   -6.5500   20.9190  -32.0970 C   0  0  0  0  0  0  0  0  0  0  0  0
   -6.4880   22.2280  -31.6050 C   0  0  0  0  0  0  0  0  0  0  0  0
   -2.2959   20.8174  -32.1425 H   0  0  0  0  0  0  0  0  0  0  0  0
   -3.0735   20.3218  -33.6841 H   0  0  0  0  0  0  0  0  0  0  0  0
   -1.8168   21.6053  -33.6841 H   0  0  0  0  0  0  0  0  0  0  0  0
   -3.0650   24.7990  -31.2200 H   0  0  0  0  0  0  0  0  0  0  0  0
   -7.8902   24.9079  -30.3167 H   0  0  0  0  0  0  0  0  0  0  0  0
   -9.7782   22.8569  -30.9511 H   0  0  0  0  0  0  0  0  0  0  0  0
   -9.9631   20.5233  -31.8779 H   0  0  0  0  0  0  0  0  0  0  0  0
   -8.2505   18.2152  -31.9685 H   0  0  0  0  0  0  0  0  0  0  0  0
   -8.6704   18.9169  -33.5705 H   0  0  0  0  0  0  0  0  0  0  0  0
   -5.8417   17.2310  -31.6769 H   0  0  0  0  0  0  0  0  0  0  0  0
   -3.7049   17.0839  -33.3060 H   0  0  0  0  0  0  0  0  0  0  0  0
   -4.2990   18.5420  -35.4080 H   0  0  0  0  0  0  0  0  0  0  0  0
   -5.6376   20.3895  -32.4085 H   0  0  0  0  0  0  0  0  0  0  0  0
  1  2  1  0
  2  3  1  0
  3  4  2  0
  3  5  1  0
  5  6  1  0
  6  7  1  0
  7  8  1  0
  7  9  2  0
  6 10  2  0
 10 11  1  0
 11 12  2  0
 12 13  1  0
 13 14  2  0
 14 15  1  0
 15 16  1  0
 16 17  1  0
 17 18  2  0
 18 19  1  0
 19 20  2  0
 14 21  1  0
 21 22  2  0
 22  5  1  0
 22 11  1  0
 20 16  1  0
  1 23  1  0
  1 24  1  0
  1 25  1  0
  8 26  1  0
 10 27  1  0
 12 28  1  0
 13 29  1  0
 15 30  1  0
 15 31  1  0
 17 32  1  0
 18 33  1  0
 19 34  1  0
 21 35  1  0
M  CHG  2   8  -1  19   1
M  END
>  <UniqueID>  (87) 
86

>  <SMILES>  (87) 
COC(=O)n1c(C([NH-])=O)cc2ccc(Cn3cc[nH+]n3)cc21

>  <Energy>  (87) 
107.80047847238771

>  <Genealogy>  (87) 
COC(=O)n1c(C([NH-])=O)cc2ccc(Cn3cc[nH+]n3)cc21 (protonated)
COC(=O)n1c(C([NH-])=O)cc2ccc(Cn3cc[nH+]n3)cc21 (3D coordinates assigned)
COC(=O)n1c(C([NH-])=O)cc2ccc(Cn3cc[nH+]n3)cc21 (optimized conformer: 107.80047847238771 kcal/mol)

>  <smiles>  (87) 
COC(=O)n1c(C(N)=O)cc2ccc(Cn3ccnn3)cc21

>  <score_type>  (87) 
oracle

>  <origin>  (87) 
adg

>  <m_score__min__energy>  (87) 
-10.65

>  <m_primary>  (87) 
energy

$$$$
87:0
     RDKit          3D

 57 58  0  0  0  0  0  0  0  0999 V2000
   -2.8060   18.0140  -34.0120 C   0  0  0  0  0  0  0  0  0  0  0  0
   -3.9820   18.8420  -33.7330 N   0  0  0  0  0  0  0  0  0  0  0  0
   -3.8000   20.2820  -33.4960 C   0  0  0  0  0  0  0  0  0  0  0  0
   -2.3130   20.6410  -33.4620 C   0  0  0  0  0  0  0  0  0  0  0  0
   -1.7920   20.4360  -32.1780 O   0  0  0  0  0  0  0  0  0  0  0  0
   -5.2830   18.2100  -33.6830 C   0  0  0  0  0  0  0  0  0  0  0  0
   -6.0790   18.3650  -34.6490 O   0  0  0  0  0  0  0  0  0  0  0  0
   -5.6800   17.2940  -32.5460 C   0  0  0  0  0  0  0  0  0  0  0  0
   -6.7250   17.9040  -31.5930 C   0  0  0  0  0  0  0  0  0  0  0  0
   -7.8300   18.6990  -32.3090 C   0  0  0  0  0  0  0  0  0  0  0  0
   -7.7540   20.1740  -32.0110 C   0  0  0  0  0  0  0  0  0  0  0  0
   -8.9400   20.9460  -31.9410 C   0  0  0  0  0  0  0  0  0  0  0  0
   -8.8900   22.3060  -31.5990 C   0  0  0  0  0  0  0  0  0  0  0  0
   -7.6440   22.8690  -31.3410 C   0  0  0  0  0  0  0  0  0  0  0  0
   -7.3120   24.1480  -30.9550 C   0  0  0  0  0  0  0  0  0  0  0  0
   -5.9250   24.1480  -30.8260 C   0  0  0  0  0  0  0  0  0  0  0  0
   -5.1400   25.3570  -30.5050 C   0  0  0  0  0  0  0  0  0  0  0  0
   -3.7230   25.2680  -30.3740 N   0  0  0  0  0  0  0  0  0  0  0  0
   -5.7090   26.4640  -30.3110 O   0  0  0  0  0  0  0  0  0  0  0  0
   -5.4190   22.9140  -31.1110 N   0  0  0  0  0  0  0  0  0  0  0  0
   -4.0490   22.4860  -31.0510 C   0  0  0  0  0  0  0  0  0  0  0  0
   -3.2120   22.9520  -31.8710 O   0  0  0  0  0  0  0  0  0  0  0  0
   -3.6560   21.5710  -30.0620 O   0  0  0  0  0  0  0  0  0  0  0  0
   -3.0610   21.8890  -28.7960 C   0  0  0  0  0  0  0  0  0  0  0  0
   -4.0370   22.6980  -27.9230 C   0  0  0  0  0  0  0  0  0  0  0  0
   -1.7440   22.6630  -28.9980 C   0  0  0  0  0  0  0  0  0  0  0  0
   -2.7550   20.5570  -28.0940 C   0  0  0  0  0  0  0  0  0  0  0  0
   -6.4830   22.1440  -31.4300 C   0  0  0  0  0  0  0  0  0  0  0  0
   -6.5050   20.7820  -31.7520 C   0  0  0  0  0  0  0  0  0  0  0  0
   -2.3502   17.6931  -33.0637 H   0  0  0  0  0  0  0  0  0  0  0  0
   -3.1095   17.1292  -34.5909 H   0  0  0  0  0  0  0  0  0  0  0  0
   -2.0754   18.5980  -34.5909 H   0  0  0  0  0  0  0  0  0  0  0  0
   -4.2891   20.8456  -34.3042 H   0  0  0  0  0  0  0  0  0  0  0  0
   -4.2483   20.5400  -32.5252 H   0  0  0  0  0  0  0  0  0  0  0  0
   -1.7704   20.0074  -34.1791 H   0  0  0  0  0  0  0  0  0  0  0  0
   -2.1949   21.7011  -33.7307 H   0  0  0  0  0  0  0  0  0  0  0  0
   -2.3060   21.0250  -31.5670 H   0  0  0  0  0  0  0  0  0  0  0  0
   -6.0978   16.3708  -32.9740 H   0  0  0  0  0  0  0  0  0  0  0  0
   -4.7731   17.1092  -31.9515 H   0  0  0  0  0  0  0  0  0  0  0  0
   -7.1968   17.0871  -31.0272 H   0  0  0  0  0  0  0  0  0  0  0  0
   -6.1905   18.6128  -30.9434 H   0  0  0  0  0  0  0  0  0  0  0  0
   -7.7265   18.5510  -33.3941 H   0  0  0  0  0  0  0  0  0  0  0  0
   -8.8007   18.3306  -31.9455 H   0  0  0  0  0  0  0  0  0  0  0  0
   -9.9100   20.4744  -32.1570 H   0  0  0  0  0  0  0  0  0  0  0  0
   -9.8080   22.9088  -31.5368 H   0  0  0  0  0  0  0  0  0  0  0  0
   -7.9971   24.9916  -30.7845 H   0  0  0  0  0  0  0  0  0  0  0  0
   -3.1240   25.0130  -31.1910 H   0  0  0  0  0  0  0  0  0  0  0  0
   -3.8166   22.5153  -26.8609 H   0  0  0  0  0  0  0  0  0  0  0  0
   -3.9228   23.7699  -28.1421 H   0  0  0  0  0  0  0  0  0  0  0  0
   -5.0691   22.3869  -28.1421 H   0  0  0  0  0  0  0  0  0  0  0  0
   -1.3134   22.9161  -28.0179 H   0  0  0  0  0  0  0  0  0  0  0  0
   -1.0341   22.0384  -29.5601 H   0  0  0  0  0  0  0  0  0  0  0  0
   -1.9443   23.5871  -29.5601 H   0  0  0  0  0  0  0  0  0  0  0  0
   -2.7881   20.7009  -27.0040 H   0  0  0  0  0  0  0  0  0  0  0  0
   -3.5043   19.8071  -28.3877 H   0  0  0  0  0  0  0  0  0  0  0  0
   -1.7536   20.2093  -28.3877 H   0  0  0  0  0  0  0  0  0  0  0  0
   -5.5733   20.1995  -31.8022 H   0  0  0  0  0  0  0  0  0  0  0  0
  1  2  1  0
  2  3  1  0
  3  4  1  0
  4  5  1  0
  2  6  1  0
  6  7  2  0
  6  8  1  0
  8  9  1  0
  9 10  1  0
 10 11  1  0
 11 12  2  0
 12 13  1  0
 13 14  2  0
 14 15  1  0
 15 16  2  0
 16 17  1  0
 17 18  1  0
 17 19  2  0
 16 20  1  0
 20 21  1  0
 21 22  2  0
 21 23  1  0
 23 24  1  0
 24 25  1  0
 24 26  1  0
 24 27  1  0
 20 28  1  0
 28 29  2  0
 29 11  1  0
 28 14  1  0
  1 30  1  0
  1 31  1  0
  1 32  1  0
  3 33  1  0
  3 34  1  0
  4 35  1  0
  4 36  1  0
  5 37  1  0
  8 38  1  0
  8 39  1  0
  9 40  1  0
  9 41  1  0
 10 42  1  0
 10 43  1  0
 12 44  1  0
 13 45  1  0
 15 46  1  0
 18 47  1  0
 25 48  1  0
 25 49  1  0
 25 50  1  0
 26 51  1  0
 26 52  1  0
 26 53  1  0
 27 54  1  0
 27 55  1  0
 27 56  1  0
 29 57  1  0
M  CHG  1  18  -1
M  END
>  <UniqueID>  (88) 
87

>  <SMILES>  (88) 
CN(CCO)C(=O)CCCc1ccc2cc(C([NH-])=O)n(C(=O)OC(C)(C)C)c2c1

>  <Energy>  (88) 
78.90957293067494

>  <Genealogy>  (88) 
CN(CCO)C(=O)CCCc1ccc2cc(C([NH-])=O)n(C(=O)OC(C)(C)C)c2c1 (protonated)
CN(CCO)C(=O)CCCc1ccc2cc(C([NH-])=O)n(C(=O)OC(C)(C)C)c2c1 (3D coordinates assigned)
CN(CCO)C(=O)CCCc1ccc2cc(C([NH-])=O)n(C(=O)OC(C)(C)C)c2c1 (optimized conformer: 78.90957293067494 kcal/mol)

>  <smiles>  (88) 
CN(CCO)C(=O)CCCc1ccc2cc(C(N)=O)n(C(=O)OC(C)(C)C)c2c1

>  <score_type>  (88) 
oracle

>  <origin>  (88) 
adg

>  <m_score__min__energy>  (88) 
-10.43

>  <m_primary>  (88) 
energy

$$$$
88:0
     RDKit          3D

 37 38  0  0  0  0  0  0  0  0999 V2000
   -3.1150   24.7410  -31.2070 H   0  0  0  0  0  0  0  0  0  0  0  0
   -3.6350   25.2400  -30.4520 N   0  0  0  0  0  0  0  0  0  0  0  0
   -5.0580   25.3240  -30.4760 C   0  0  0  0  0  0  0  0  0  0  0  0
   -5.6190   26.4030  -30.1510 O   0  0  0  0  0  0  0  0  0  0  0  0
   -5.8590   24.1380  -30.8460 C   0  0  0  0  0  0  0  0  0  0  0  0
   -7.2470   24.1560  -30.9800 C   0  0  0  0  0  0  0  0  0  0  0  0
   -7.9258   24.9977  -30.7780 H   0  0  0  0  0  0  0  0  0  0  0  0
   -7.5870   22.8960  -31.4190 C   0  0  0  0  0  0  0  0  0  0  0  0
   -8.8340   22.3550  -31.7130 C   0  0  0  0  0  0  0  0  0  0  0  0
   -9.7492   22.9583  -31.6210 H   0  0  0  0  0  0  0  0  0  0  0  0
   -8.8900   21.0150  -32.1310 C   0  0  0  0  0  0  0  0  0  0  0  0
   -9.8620   20.5616  -32.3752 H   0  0  0  0  0  0  0  0  0  0  0  0
   -7.7040   20.2380  -32.2420 C   0  0  0  0  0  0  0  0  0  0  0  0
   -7.7420   18.8620  -32.6600 N   0  0  0  0  0  0  0  0  0  0  0  0
   -8.3360   18.5990  -33.4810 H   0  0  0  0  0  0  0  0  0  0  0  0
   -6.9950   17.7970  -31.9990 C   0  0  0  0  0  0  0  0  0  0  0  0
   -7.0771   17.9140  -30.9083 H   0  0  0  0  0  0  0  0  0  0  0  0
   -7.4077   16.8213  -32.2952 H   0  0  0  0  0  0  0  0  0  0  0  0
   -5.9371   17.8528  -32.2952 H   0  0  0  0  0  0  0  0  0  0  0  0
   -6.4580   20.8270  -31.9340 C   0  0  0  0  0  0  0  0  0  0  0  0
   -5.5276   20.2449  -32.0078 H   0  0  0  0  0  0  0  0  0  0  0  0
   -6.4330   22.1670  -31.5330 C   0  0  0  0  0  0  0  0  0  0  0  0
   -5.3640   22.9130  -31.1800 N   0  0  0  0  0  0  0  0  0  0  0  0
   -4.0020   22.4610  -31.1200 C   0  0  0  0  0  0  0  0  0  0  0  0
   -3.2140   22.7410  -32.0640 O   0  0  0  0  0  0  0  0  0  0  0  0
   -3.5470   21.6350  -29.9840 C   0  0  0  0  0  0  0  0  0  0  0  0
   -3.5259   20.5411  -30.0975 H   0  0  0  0  0  0  0  0  0  0  0  0
   -3.1590   22.1720  -28.8200 C   0  0  0  0  0  0  0  0  0  0  0  0
   -3.1866   23.2666  -28.7146 H   0  0  0  0  0  0  0  0  0  0  0  0
   -2.6960   21.3680  -27.6710 C   0  0  0  0  0  0  0  0  0  0  0  0
   -1.9570   21.9220  -26.8130 O   0  0  0  0  0  0  0  0  0  0  0  0
   -3.0880   19.9980  -27.4930 N   0  0  0  0  0  0  0  0  0  0  0  0
   -3.8350   19.5780  -28.0890 H   0  0  0  0  0  0  0  0  0  0  0  0
   -2.5120   19.1730  -26.4390 C   0  0  0  0  0  0  0  0  0  0  0  0
   -2.7965   19.5805  -25.4577 H   0  0  0  0  0  0  0  0  0  0  0  0
   -2.8888   18.1437  -26.5318 H   0  0  0  0  0  0  0  0  0  0  0  0
   -1.4159   19.1720  -26.5318 H   0  0  0  0  0  0  0  0  0  0  0  0
  1  2  1  0
  2  3  1  0
  3  4  2  0
  3  5  1  0
  5  6  2  0
  6  7  1  0
  6  8  1  0
  8  9  2  0
  9 10  1  0
  9 11  1  0
 11 12  1  0
 11 13  2  0
 13 14  1  0
 14 15  1  0
 14 16  1  0
 16 17  1  0
 16 18  1  0
 16 19  1  0
 13 20  1  0
 20 21  1  0
 20 22  2  0
 22 23  1  0
 23 24  1  0
 24 25  2  0
 24 26  1  0
 26 27  1  0
 26 28  2  0
 28 29  1  0
 28 30  1  0
 30 31  2  0
 30 32  1  0
 32 33  1  0
 32 34  1  0
 34 35  1  0
 34 36  1  0
 34 37  1  0
 23  5  1  0
 22  8  1  0
M  CHG  1   2  -1
M  END
>  <UniqueID>  (89) 
88

>  <SMILES>  (89) 
CNC(=O)/C=C/C(=O)n1c(C([NH-])=O)cc2ccc(NC)cc21

>  <Energy>  (89) 
72.32478697006087

>  <Genealogy>  (89) 
CNC(=O)/C=C/C(=O)n1c(C([NH-])=O)cc2ccc(NC)cc21 (protonated)
CNC(=O)/C=C/C(=O)n1c(C([NH-])=O)cc2ccc(NC)cc21 (cis-trans isomerization)
CNC(=O)/C=C/C(=O)n1c(C([NH-])=O)cc2ccc(NC)cc21 (3D coordinates assigned)
CNC(=O)/C=C/C(=O)n1c(C([NH-])=O)cc2ccc(NC)cc21 (optimized conformer: 72.32478697006087 kcal/mol)

>  <smiles>  (89) 
CNC(=O)/C=C/C(=O)n1c(C(N)=O)cc2ccc(NC)cc21

>  <score_type>  (89) 
oracle

>  <origin>  (89) 
adg

>  <m_score__min__energy>  (89) 
-10.44

>  <m_primary>  (89) 
energy

$$$$
89:0
     RDKit          3D

 49 51  0  0  0  0  0  0  0  0999 V2000
   -5.9950   16.7780  -32.3610 C   0  0  0  0  0  0  0  0  0  0  0  0
   -6.0070   18.1720  -33.0120 C   0  0  2  0  0  0  0  0  0  0  0  0
   -7.3600   18.7730  -33.0370 N   0  0  0  0  0  0  0  0  0  0  0  0
   -7.4080   20.1140  -32.4970 C   0  0  0  0  0  0  0  0  0  0  0  0
   -8.6540   20.7750  -32.3240 C   0  0  0  0  0  0  0  0  0  0  0  0
   -8.7100   22.0790  -31.8030 C   0  0  0  0  0  0  0  0  0  0  0  0
   -7.5110   22.6980  -31.4620 C   0  0  0  0  0  0  0  0  0  0  0  0
   -7.2700   23.9530  -30.9450 C   0  0  0  0  0  0  0  0  0  0  0  0
   -5.8840   24.0370  -30.8140 C   0  0  0  0  0  0  0  0  0  0  0  0
   -5.1710   25.2340  -30.3170 C   0  0  0  0  0  0  0  0  0  0  0  0
   -3.7470   25.2960  -30.3240 N   0  0  0  0  0  0  0  0  0  0  0  0
   -5.8290   26.2200  -29.8890 O   0  0  0  0  0  0  0  0  0  0  0  0
   -5.3000   22.8780  -31.2240 N   0  0  0  0  0  0  0  0  0  0  0  0
   -3.9040   22.5570  -31.2560 C   0  0  0  0  0  0  0  0  0  0  0  0
   -3.1120   23.3410  -31.8460 O   0  0  0  0  0  0  0  0  0  0  0  0
   -3.4100   21.3570  -30.6250 N   0  0  0  0  0  0  0  0  0  0  0  0
   -3.3460   20.1040  -31.3800 C   0  0  0  0  0  0  0  0  0  0  0  0
   -3.1790   21.3240  -29.2060 C   0  0  0  0  0  0  0  0  0  0  0  0
   -3.0890   20.2100  -28.6220 O   0  0  0  0  0  0  0  0  0  0  0  0
   -3.0250   22.5730  -28.4220 C   0  0  0  0  0  0  0  0  0  0  0  0
   -4.1370   23.1700  -27.8020 C   0  0  0  0  0  0  0  0  0  0  0  0
   -3.9880   24.3470  -27.0630 C   0  0  0  0  0  0  0  0  0  0  0  0
   -2.7310   24.9450  -26.9440 C   0  0  0  0  0  0  0  0  0  0  0  0
   -1.6220   24.3690  -27.5690 C   0  0  0  0  0  0  0  0  0  0  0  0
   -1.7660   23.1910  -28.3090 C   0  0  0  0  0  0  0  0  0  0  0  0
   -6.3040   22.0730  -31.6210 C   0  0  0  0  0  0  0  0  0  0  0  0
   -6.2150   20.7760  -32.1280 C   0  0  0  0  0  0  0  0  0  0  0  0
   -5.3720   18.1540  -34.3820 C   0  0  0  0  0  0  0  0  0  0  0  0
   -6.0280   18.5510  -35.3810 O   0  0  0  0  0  0  0  0  0  0  0  0
   -4.0900   17.6490  -34.5670 O   0  0  0  0  0  0  0  0  0  0  0  0
   -5.9959   16.8846  -31.2662 H   0  0  0  0  0  0  0  0  0  0  0  0
   -6.8884   16.2187  -32.6757 H   0  0  0  0  0  0  0  0  0  0  0  0
   -5.0921   16.2341  -32.6757 H   0  0  0  0  0  0  0  0  0  0  0  0
   -5.3899   18.8229  -32.3752 H   0  0  0  0  0  0  0  0  0  0  0  0
   -7.7110   18.7790  -34.0230 H   0  0  0  0  0  0  0  0  0  0  0  0
   -8.0160   18.1600  -32.4980 H   0  0  0  0  0  0  0  0  0  0  0  0
   -9.5856   20.2599  -32.6011 H   0  0  0  0  0  0  0  0  0  0  0  0
   -9.6723   22.5948  -31.6688 H   0  0  0  0  0  0  0  0  0  0  0  0
   -8.0124   24.7237  -30.6902 H   0  0  0  0  0  0  0  0  0  0  0  0
   -3.2200   25.4370  -31.2150 H   0  0  0  0  0  0  0  0  0  0  0  0
   -3.3027   19.2562  -30.6804 H   0  0  0  0  0  0  0  0  0  0  0  0
   -4.2406   20.0114  -32.0134 H   0  0  0  0  0  0  0  0  0  0  0  0
   -2.4466   20.1031  -32.0134 H   0  0  0  0  0  0  0  0  0  0  0  0
   -5.1304   22.7078  -27.8992 H   0  0  0  0  0  0  0  0  0  0  0  0
   -4.8617   24.8031  -26.5744 H   0  0  0  0  0  0  0  0  0  0  0  0
   -2.6144   25.8689  -26.3585 H   0  0  0  0  0  0  0  0  0  0  0  0
   -0.6335   24.8431  -27.4788 H   0  0  0  0  0  0  0  0  0  0  0  0
   -0.8910   22.7456  -28.8049 H   0  0  0  0  0  0  0  0  0  0  0  0
   -5.2392   20.2804  -32.2379 H   0  0  0  0  0  0  0  0  0  0  0  0
  1  2  1  0
  2  3  1  0
  3  4  1  0
  4  5  2  0
  5  6  1  0
  6  7  2  0
  7  8  1  0
  8  9  2  0
  9 10  1  0
 10 11  1  0
 10 12  2  0
  9 13  1  0
 13 14  1  0
 14 15  2  0
 14 16  1  0
 16 17  1  0
 16 18  1  0
 18 19  2  0
 18 20  1  0
 20 21  2  0
 21 22  1  0
 22 23  2  0
 23 24  1  0
 24 25  2  0
 13 26  1  0
 26 27  2  0
  2 28  1  0
 28 29  2  0
 28 30  1  0
 27  4  1  0
 26  7  1  0
 25 20  1  0
  1 31  1  0
  1 32  1  0
  1 33  1  0
  2 34  1  1
  3 35  1  0
  3 36  1  0
  5 37  1  0
  6 38  1  0
  8 39  1  0
 11 40  1  0
 17 41  1  0
 17 42  1  0
 17 43  1  0
 21 44  1  0
 22 45  1  0
 23 46  1  0
 24 47  1  0
 25 48  1  0
 27 49  1  0
M  CHG  3   3   1  11  -1  30  -1
M  END
>  <UniqueID>  (90) 
89

>  <SMILES>  (90) 
C[C@H]([NH2+]c1ccc2cc(C([NH-])=O)n(C(=O)N(C)C(=O)c3ccccc3)c2c1)C(=O)[O-]

>  <Energy>  (90) 
97.92316342019708

>  <Genealogy>  (90) 
CC([NH2+]c1ccc2cc(C([NH-])=O)n(C(=O)N(C)C(=O)c3ccccc3)c2c1)C(=O)[O-] (protonated)
C[C@H]([NH2+]c1ccc2cc(C([NH-])=O)n(C(=O)N(C)C(=O)c3ccccc3)c2c1)C(=O)[O-] (chirality)
C[C@H]([NH2+]c1ccc2cc(C([NH-])=O)n(C(=O)N(C)C(=O)c3ccccc3)c2c1)C(=O)[O-] (3D coordinates assigned)
C[C@H]([NH2+]c1ccc2cc(C([NH-])=O)n(C(=O)N(C)C(=O)c3ccccc3)c2c1)C(=O)[O-] (optimized conformer: 97.92316342019708 kcal/mol)

>  <smiles>  (90) 
CC(Nc1ccc2cc(C(N)=O)n(C(=O)N(C)C(=O)c3ccccc3)c2c1)C(=O)O

>  <score_type>  (90) 
oracle

>  <origin>  (90) 
adg

>  <m_score__min__energy>  (90) 
-11.33

>  <m_primary>  (90) 
energy

$$$$
90:0
     RDKit          3D

 45 47  0  0  0  0  0  0  0  0999 V2000
   -4.2270   25.2290  -31.1800 N   0  0  0  0  0  0  0  0  0  0  0  0
   -5.5540   25.0370  -30.7010 C   0  0  0  0  0  0  0  0  0  0  0  0
   -6.1200   25.9630  -30.0620 O   0  0  0  0  0  0  0  0  0  0  0  0
   -6.2830   23.7810  -30.9710 C   0  0  0  0  0  0  0  0  0  0  0  0
   -7.6680   23.7030  -31.1250 C   0  0  0  0  0  0  0  0  0  0  0  0
   -7.9290   22.3790  -31.4060 C   0  0  0  0  0  0  0  0  0  0  0  0
   -9.1360   21.7320  -31.6530 C   0  0  0  0  0  0  0  0  0  0  0  0
   -9.1040   20.3470  -31.8990 C   0  0  0  0  0  0  0  0  0  0  0  0
   -7.8770   19.6330  -31.8710 C   0  0  0  0  0  0  0  0  0  0  0  0
   -7.8510   18.1580  -32.1790 C   0  0  0  0  0  0  0  0  0  0  0  0
   -7.4820   17.9390  -33.4950 F   0  0  0  0  0  0  0  0  0  0  0  0
   -6.9440   17.5040  -31.3620 F   0  0  0  0  0  0  0  0  0  0  0  0
   -9.1100   17.6270  -31.9700 F   0  0  0  0  0  0  0  0  0  0  0  0
   -6.6690   20.3330  -31.6420 C   0  0  0  0  0  0  0  0  0  0  0  0
   -6.7350   21.7090  -31.4100 C   0  0  0  0  0  0  0  0  0  0  0  0
   -5.7200   22.5540  -31.1410 N   0  0  0  0  0  0  0  0  0  0  0  0
   -4.3440   22.1840  -30.9750 C   0  0  0  0  0  0  0  0  0  0  0  0
   -3.6800   21.8520  -31.9950 O   0  0  0  0  0  0  0  0  0  0  0  0
   -3.6660   22.2470  -29.6150 C   0  0  2  0  0  0  0  0  0  0  0  0
   -4.5870   22.9440  -28.5760 C   0  0  0  0  0  0  0  0  0  0  0  0
   -3.7890   23.5200  -27.4020 C   0  0  0  0  0  0  0  0  0  0  0  0
   -2.7960   24.6190  -27.8650 C   0  0  1  0  0  0  0  0  0  0  0  0
   -1.6630   24.6250  -27.0140 O   0  0  0  0  0  0  0  0  0  0  0  0
   -0.4760   25.7000  -27.6130 P   0  0  1  0  0  0  0  0  0  0  0  0
    0.7020   24.9280  -28.1650 O   0  0  0  0  0  0  0  0  0  0  0  0
   -1.1560   26.6250  -28.8540 O   0  0  0  0  0  0  0  0  0  0  0  0
    0.0530   26.7350  -26.3820 O   0  0  0  0  0  0  0  0  0  0  0  0
   -2.3100   24.3960  -29.3170 C   0  0  0  0  0  0  0  0  0  0  0  0
   -2.2550   22.9040  -29.6690 C   0  0  0  0  0  0  0  0  0  0  0  0
   -3.4980   25.6750  -30.5800 H   0  0  0  0  0  0  0  0  0  0  0  0
   -8.3960   24.5232  -31.0402 H   0  0  0  0  0  0  0  0  0  0  0  0
  -10.0861   22.2864  -31.6558 H   0  0  0  0  0  0  0  0  0  0  0  0
  -10.0401   19.8113  -32.1154 H   0  0  0  0  0  0  0  0  0  0  0  0
   -5.7027   19.8073  -31.6465 H   0  0  0  0  0  0  0  0  0  0  0  0
   -3.5000   21.2094  -29.2895 H   0  0  0  0  0  0  0  0  0  0  0  0
   -5.1290   23.7620  -29.0732 H   0  0  0  0  0  0  0  0  0  0  0  0
   -5.2837   22.1913  -28.1784 H   0  0  0  0  0  0  0  0  0  0  0  0
   -4.4897   23.9565  -26.6751 H   0  0  0  0  0  0  0  0  0  0  0  0
   -3.2083   22.7028  -26.9493 H   0  0  0  0  0  0  0  0  0  0  0  0
   -3.3320   25.5785  -27.8203 H   0  0  0  0  0  0  0  0  0  0  0  0
   -0.0260   26.1990  -25.5530 H   0  0  0  0  0  0  0  0  0  0  0  0
   -3.0022   24.9007  -30.0070 H   0  0  0  0  0  0  0  0  0  0  0  0
   -1.2948   24.8096  -29.4083 H   0  0  0  0  0  0  0  0  0  0  0  0
   -1.8484   22.7922  -30.6849 H   0  0  0  0  0  0  0  0  0  0  0  0
   -1.6140   22.4008  -28.9302 H   0  0  0  0  0  0  0  0  0  0  0  0
  1  2  1  0
  2  3  2  0
  2  4  1  0
  4  5  2  0
  5  6  1  0
  6  7  2  0
  7  8  1  0
  8  9  2  0
  9 10  1  0
 10 11  1  0
 10 12  1  0
 10 13  1  0
  9 14  1  0
 14 15  2  0
 15 16  1  0
 16 17  1  0
 17 18  2  0
 17 19  1  0
 19 20  1  0
 20 21  1  0
 21 22  1  0
 22 23  1  0
 23 24  1  0
 24 25  2  0
 24 26  1  6
 24 27  1  0
 22 28  1  0
 28 29  1  0
 16  4  1  0
 29 19  1  0
 15  6  1  0
  1 30  1  0
  5 31  1  0
  7 32  1  0
  8 33  1  0
 14 34  1  0
 19 35  1  1
 20 36  1  0
 20 37  1  0
 21 38  1  0
 21 39  1  0
 22 40  1  6
 27 41  1  0
 28 42  1  0
 28 43  1  0
 29 44  1  0
 29 45  1  0
M  CHG  2   1  -1  26  -1
M  END
>  <UniqueID>  (91) 
90

>  <SMILES>  (91) 
[NH-]C(=O)c1cc2ccc(C(F)(F)F)cc2n1C(=O)C1CCC(O[P@@](=O)([O-])O)CC1

>  <Energy>  (91) 
91.49013454782441

>  <Genealogy>  (91) 
[NH-]C(=O)c1cc2ccc(C(F)(F)F)cc2n1C(=O)C1CCC(OP(=O)([O-])O)CC1 (protonated)
[NH-]C(=O)c1cc2ccc(C(F)(F)F)cc2n1C(=O)C1CCC(O[P@@](=O)([O-])O)CC1 (chirality)
[NH-]C(=O)c1cc2ccc(C(F)(F)F)cc2n1C(=O)C1CCC(O[P@@](=O)([O-])O)CC1 (3D coordinates assigned)
[NH-]C(=O)c1cc2ccc(C(F)(F)F)cc2n1C(=O)C1CCC(O[P@@](=O)([O-])O)CC1 (nonaromatic ring conformer: 91.49013454782441 kcal/mol)

>  <smiles>  (91) 
NC(=O)c1cc2ccc(C(F)(F)F)cc2n1C(=O)C1CCC(OP(=O)(O)O)CC1

>  <score_type>  (91) 
oracle

>  <origin>  (91) 
adg

>  <m_score__min__energy>  (91) 
-13.06

>  <m_primary>  (91) 
energy

$$$$
91:0
     RDKit          3D

 37 38  0  0  0  0  0  0  0  0999 V2000
   -2.6880   19.2720  -33.6280 C   0  0  0  0  0  0  0  0  0  0  0  0
   -1.4440   20.0340  -33.1700 C   0  0  1  0  0  0  0  0  0  0  0  0
   -0.6470   20.5180  -34.3920 C   0  0  0  0  0  0  0  0  0  0  0  0
   -0.6440   21.9170  -34.4530 O   0  0  0  0  0  0  0  0  0  0  0  0
   -1.8710   21.1710  -32.3530 N   0  0  0  0  0  0  0  0  0  0  0  0
   -3.0680   21.9600  -32.4620 C   0  0  0  0  0  0  0  0  0  0  0  0
   -3.6220   22.0350  -33.5910 O   0  0  0  0  0  0  0  0  0  0  0  0
   -3.6950   22.6700  -31.3230 C   0  0  0  0  0  0  0  0  0  0  0  0
   -3.0040   23.1110  -30.3680 O   0  0  0  0  0  0  0  0  0  0  0  0
   -5.1130   22.8890  -31.3090 N   0  0  0  0  0  0  0  0  0  0  0  0
   -5.7900   23.9930  -30.8850 C   0  0  0  0  0  0  0  0  0  0  0  0
   -5.1810   25.2650  -30.4390 C   0  0  0  0  0  0  0  0  0  0  0  0
   -3.8670   25.6330  -30.8490 N   0  0  0  0  0  0  0  0  0  0  0  0
   -5.8410   26.0490  -29.7060 O   0  0  0  0  0  0  0  0  0  0  0  0
   -7.1650   23.7870  -30.9880 C   0  0  0  0  0  0  0  0  0  0  0  0
   -7.3070   22.5170  -31.5030 C   0  0  0  0  0  0  0  0  0  0  0  0
   -8.4570   21.7940  -31.8090 C   0  0  0  0  0  0  0  0  0  0  0  0
   -8.2980   20.4950  -32.3220 C   0  0  0  0  0  0  0  0  0  0  0  0
   -7.0060   19.9450  -32.5170 C   0  0  0  0  0  0  0  0  0  0  0  0
   -6.8600   18.5510  -33.0560 C   0  0  0  0  0  0  0  0  0  0  0  0
   -6.2650   17.7420  -32.1050 F   0  0  0  0  0  0  0  0  0  0  0  0
   -6.0770   18.5710  -34.1940 F   0  0  0  0  0  0  0  0  0  0  0  0
   -5.8630   20.7090  -32.1920 C   0  0  0  0  0  0  0  0  0  0  0  0
   -6.0520   22.0010  -31.6900 C   0  0  0  0  0  0  0  0  0  0  0  0
   -3.2512   18.9270  -32.7484 H   0  0  0  0  0  0  0  0  0  0  0  0
   -3.3230   19.9363  -34.2326 H   0  0  0  0  0  0  0  0  0  0  0  0
   -2.3847   18.4045  -34.2326 H   0  0  0  0  0  0  0  0  0  0  0  0
   -0.7933   19.3761  -32.5752 H   0  0  0  0  0  0  0  0  0  0  0  0
    0.3891   20.1568  -34.3146 H   0  0  0  0  0  0  0  0  0  0  0  0
   -1.1191   20.1232  -35.3037 H   0  0  0  0  0  0  0  0  0  0  0  0
   -1.5690   22.2050  -34.2390 H   0  0  0  0  0  0  0  0  0  0  0  0
   -3.0260   25.2810  -30.3380 H   0  0  0  0  0  0  0  0  0  0  0  0
   -7.9665   24.4895  -30.7158 H   0  0  0  0  0  0  0  0  0  0  0  0
   -9.4571   22.2252  -31.6544 H   0  0  0  0  0  0  0  0  0  0  0  0
   -9.1866   19.8981  -32.5752 H   0  0  0  0  0  0  0  0  0  0  0  0
   -7.8561   18.1548  -33.3026 H   0  0  0  0  0  0  0  0  0  0  0  0
   -4.8516   20.2990  -32.3300 H   0  0  0  0  0  0  0  0  0  0  0  0
  1  2  1  0
  2  3  1  0
  3  4  1  0
  2  5  1  0
  5  6  1  0
  6  7  2  0
  6  8  1  0
  8  9  2  0
  8 10  1  0
 10 11  1  0
 11 12  1  0
 12 13  1  0
 12 14  2  0
 11 15  2  0
 15 16  1  0
 16 17  2  0
 17 18  1  0
 18 19  2  0
 19 20  1  0
 20 21  1  0
 20 22  1  0
 19 23  1  0
 23 24  2  0
 24 10  1  0
 24 16  1  0
  1 25  1  0
  1 26  1  0
  1 27  1  0
  2 28  1  1
  3 29  1  0
  3 30  1  0
  4 31  1  0
 13 32  1  0
 15 33  1  0
 17 34  1  0
 18 35  1  0
 20 36  1  0
 23 37  1  0
M  CHG  2   5  -1  13  -1
M  END
>  <UniqueID>  (92) 
91

>  <SMILES>  (92) 
C[C@@H](CO)[N-]C(=O)C(=O)n1c(C([NH-])=O)cc2ccc(C(F)F)cc21

>  <Energy>  (92) 
74.60194645007806

>  <Genealogy>  (92) 
C[C@@H](CO)[N-]C(=O)C(=O)n1c(C([NH-])=O)cc2ccc(C(F)F)cc21 (protonated)
C[C@@H](CO)[N-]C(=O)C(=O)n1c(C([NH-])=O)cc2ccc(C(F)F)cc21 (3D coordinates assigned)
C[C@@H](CO)[N-]C(=O)C(=O)n1c(C([NH-])=O)cc2ccc(C(F)F)cc21 (optimized conformer: 74.60194645007806 kcal/mol)

>  <smiles>  (92) 
C[C@@H](CO)NC(=O)C(=O)n1c(C(N)=O)cc2ccc(C(F)F)cc21

>  <score_type>  (92) 
oracle

>  <origin>  (92) 
adg

>  <m_score__min__energy>  (92) 
-10.970000000000001

>  <m_primary>  (92) 
energy

$$$$
92:0
     RDKit          3D

 37 38  0  0  0  0  0  0  0  0999 V2000
   -4.2430   25.6620  -30.8450 N   0  0  0  0  0  0  0  0  0  0  0  0
   -5.2800   24.9270  -30.2020 C   0  0  0  0  0  0  0  0  0  0  0  0
   -5.7420   25.3420  -29.1060 O   0  0  0  0  0  0  0  0  0  0  0  0
   -5.8580   23.7200  -30.8280 C   0  0  0  0  0  0  0  0  0  0  0  0
   -7.2260   23.4650  -30.8820 C   0  0  0  0  0  0  0  0  0  0  0  0
   -7.3530   22.3070  -31.6150 C   0  0  0  0  0  0  0  0  0  0  0  0
   -8.4940   21.5950  -31.9730 C   0  0  0  0  0  0  0  0  0  0  0  0
   -8.3260   20.4130  -32.7140 C   0  0  0  0  0  0  0  0  0  0  0  0
   -7.0310   19.9570  -33.0690 C   0  0  0  0  0  0  0  0  0  0  0  0
   -6.8740   18.7520  -33.8460 N   0  0  0  0  0  0  0  0  0  0  0  0
   -5.7460   17.9640  -33.3280 C   0  0  0  0  0  0  0  0  0  0  0  0
   -4.9210   17.3500  -34.4640 C   0  0  0  0  0  0  0  0  0  0  0  0
   -5.3640   17.8220  -35.7100 O   0  0  0  0  0  0  0  0  0  0  0  0
   -5.8970   20.7150  -32.6950 C   0  0  0  0  0  0  0  0  0  0  0  0
   -6.0940   21.8970  -31.9740 C   0  0  0  0  0  0  0  0  0  0  0  0
   -5.1650   22.7550  -31.4970 N   0  0  0  0  0  0  0  0  0  0  0  0
   -3.7400   22.6040  -31.5910 C   0  0  0  0  0  0  0  0  0  0  0  0
   -3.2510   21.6490  -32.2530 O   0  0  0  0  0  0  0  0  0  0  0  0
   -2.9010   23.5080  -30.9280 O   0  0  0  0  0  0  0  0  0  0  0  0
   -2.1780   23.1820  -29.7440 C   0  0  0  0  0  0  0  0  0  0  0  0
   -1.3190   24.3320  -29.3260 C   0  0  0  0  0  0  0  0  0  0  0  0
   -1.7820   25.5030  -29.3210 O   0  0  0  0  0  0  0  0  0  0  0  0
    0.0050   24.1130  -28.9680 O   0  0  0  0  0  0  0  0  0  0  0  0
   -3.2590   25.3110  -30.8520 H   0  0  0  0  0  0  0  0  0  0  0  0
   -8.0337   24.0623  -30.4339 H   0  0  0  0  0  0  0  0  0  0  0  0
   -9.4957   21.9465  -31.6849 H   0  0  0  0  0  0  0  0  0  0  0  0
   -9.2094   19.8346  -33.0223 H   0  0  0  0  0  0  0  0  0  0  0  0
   -6.7040   19.0000  -34.8490 H   0  0  0  0  0  0  0  0  0  0  0  0
   -7.7560   18.1890  -33.7960 H   0  0  0  0  0  0  0  0  0  0  0  0
   -5.0970   18.6199  -32.7291 H   0  0  0  0  0  0  0  0  0  0  0  0
   -6.1500   17.1458  -32.7137 H   0  0  0  0  0  0  0  0  0  0  0  0
   -3.8635   17.6218  -34.3301 H   0  0  0  0  0  0  0  0  0  0  0  0
   -5.0404   16.2568  -34.4370 H   0  0  0  0  0  0  0  0  0  0  0  0
   -4.7090   17.5090  -36.3860 H   0  0  0  0  0  0  0  0  0  0  0  0
   -4.8838   20.3826  -32.9649 H   0  0  0  0  0  0  0  0  0  0  0  0
   -2.8889   22.9485  -28.9377 H   0  0  0  0  0  0  0  0  0  0  0  0
   -1.5364   22.3115  -29.9454 H   0  0  0  0  0  0  0  0  0  0  0  0
  1  2  1  0
  2  3  2  0
  2  4  1  0
  4  5  2  0
  5  6  1  0
  6  7  2  0
  7  8  1  0
  8  9  2  0
  9 10  1  0
 10 11  1  0
 11 12  1  0
 12 13  1  0
  9 14  1  0
 14 15  2  0
 15 16  1  0
 16 17  1  0
 17 18  2  0
 17 19  1  0
 19 20  1  0
 20 21  1  0
 21 22  2  0
 21 23  1  0
 16  4  1  0
 15  6  1  0
  1 24  1  0
  5 25  1  0
  7 26  1  0
  8 27  1  0
 10 28  1  0
 10 29  1  0
 11 30  1  0
 11 31  1  0
 12 32  1  0
 12 33  1  0
 13 34  1  0
 14 35  1  0
 20 36  1  0
 20 37  1  0
M  CHG  3   1  -1  10   1  23  -1
M  END
>  <UniqueID>  (93) 
92

>  <SMILES>  (93) 
[NH-]C(=O)c1cc2ccc([NH2+]CCO)cc2n1C(=O)OCC(=O)[O-]

>  <Energy>  (93) 
72.71449028395888

>  <Genealogy>  (93) 
[NH-]C(=O)c1cc2ccc([NH2+]CCO)cc2n1C(=O)OCC(=O)[O-] (protonated)
[NH-]C(=O)c1cc2ccc([NH2+]CCO)cc2n1C(=O)OCC(=O)[O-] (3D coordinates assigned)
[NH-]C(=O)c1cc2ccc([NH2+]CCO)cc2n1C(=O)OCC(=O)[O-] (optimized conformer: 72.71449028395888 kcal/mol)

>  <smiles>  (93) 
NC(=O)c1cc2ccc(NCCO)cc2n1C(=O)OCC(=O)O

>  <score_type>  (93) 
oracle

>  <origin>  (93) 
adg

>  <m_score__min__energy>  (93) 
-10.869999999999999

>  <m_primary>  (93) 
energy

$$$$
93:0
     RDKit          3D

 39 40  0  0  0  0  0  0  0  0999 V2000
   -3.3710   24.4080  -27.1120 C   0  0  0  0  0  0  0  0  0  0  0  0
   -2.0110   23.7240  -27.1830 C   0  0  0  0  0  0  0  0  0  0  0  0
   -1.1960   24.0470  -28.7430 S   0  0  0  0  0  0  0  0  0  0  0  0
   -1.7380   25.3240  -29.3200 O   0  0  0  0  0  0  0  0  0  0  0  0
    0.2790   24.2090  -28.5020 O   0  0  0  0  0  0  0  0  0  0  0  0
   -1.4470   22.7200  -29.9150 C   0  0  0  0  0  0  0  0  0  0  0  0
   -2.8920   22.2240  -29.8860 C   0  0  0  0  0  0  0  0  0  0  0  0
   -3.5420   22.4590  -31.2170 C   0  0  0  0  0  0  0  0  0  0  0  0
   -2.8560   22.3820  -32.2720 O   0  0  0  0  0  0  0  0  0  0  0  0
   -4.9600   22.6490  -31.3030 N   0  0  0  0  0  0  0  0  0  0  0  0
   -5.6920   23.7130  -30.8700 C   0  0  0  0  0  0  0  0  0  0  0  0
   -5.1470   24.9750  -30.3260 C   0  0  0  0  0  0  0  0  0  0  0  0
   -3.9390   25.5330  -30.8400 N   0  0  0  0  0  0  0  0  0  0  0  0
   -5.7660   25.5810  -29.4120 O   0  0  0  0  0  0  0  0  0  0  0  0
   -7.0540   23.4690  -31.0490 C   0  0  0  0  0  0  0  0  0  0  0  0
   -7.1280   22.2140  -31.6130 C   0  0  0  0  0  0  0  0  0  0  0  0
   -8.2370   21.4570  -31.9780 C   0  0  0  0  0  0  0  0  0  0  0  0
   -8.0140   20.1710  -32.5020 C   0  0  0  0  0  0  0  0  0  0  0  0
   -6.6940   19.6720  -32.6650 C   0  0  0  0  0  0  0  0  0  0  0  0
   -6.4750   18.2690  -33.1720 C   0  0  0  0  0  0  0  0  0  0  0  0
   -7.6150   17.5030  -33.0030 F   0  0  0  0  0  0  0  0  0  0  0  0
   -5.4390   17.6600  -32.4850 F   0  0  0  0  0  0  0  0  0  0  0  0
   -6.1580   18.3150  -34.5170 F   0  0  0  0  0  0  0  0  0  0  0  0
   -5.5950   20.4650  -32.2620 C   0  0  0  0  0  0  0  0  0  0  0  0
   -5.8500   21.7430  -31.7550 C   0  0  0  0  0  0  0  0  0  0  0  0
   -3.6550   24.5509  -26.0590 H   0  0  0  0  0  0  0  0  0  0  0  0
   -3.3162   25.3858  -27.6129 H   0  0  0  0  0  0  0  0  0  0  0  0
   -4.1233   23.7810  -27.6129 H   0  0  0  0  0  0  0  0  0  0  0  0
   -1.3788   24.0994  -26.3648 H   0  0  0  0  0  0  0  0  0  0  0  0
   -2.1651   22.6387  -27.0920 H   0  0  0  0  0  0  0  0  0  0  0  0
   -1.2130   23.0850  -30.9260 H   0  0  0  0  0  0  0  0  0  0  0  0
   -0.7860   21.8842  -29.6421 H   0  0  0  0  0  0  0  0  0  0  0  0
   -2.9031   21.1475  -29.6602 H   0  0  0  0  0  0  0  0  0  0  0  0
   -3.4468   22.7735  -29.1113 H   0  0  0  0  0  0  0  0  0  0  0  0
   -3.0160   25.2960  -30.4130 H   0  0  0  0  0  0  0  0  0  0  0  0
   -7.8905   24.1363  -30.7942 H   0  0  0  0  0  0  0  0  0  0  0  0
   -9.2568   21.8522  -31.8603 H   0  0  0  0  0  0  0  0  0  0  0  0
   -8.8714   19.5445  -32.7889 H   0  0  0  0  0  0  0  0  0  0  0  0
   -4.5656   20.0863  -32.3452 H   0  0  0  0  0  0  0  0  0  0  0  0
  1  2  1  0
  2  3  1  0
  3  4  2  0
  3  5  2  0
  3  6  1  0
  6  7  1  0
  7  8  1  0
  8  9  2  0
  8 10  1  0
 10 11  1  0
 11 12  1  0
 12 13  1  0
 12 14  2  0
 11 15  2  0
 15 16  1  0
 16 17  2  0
 17 18  1  0
 18 19  2  0
 19 20  1  0
 20 21  1  0
 20 22  1  0
 20 23  1  0
 19 24  1  0
 24 25  2  0
 25 10  1  0
 25 16  1  0
  1 26  1  0
  1 27  1  0
  1 28  1  0
  2 29  1  0
  2 30  1  0
  6 31  1  0
  6 32  1  0
  7 33  1  0
  7 34  1  0
 13 35  1  0
 15 36  1  0
 17 37  1  0
 18 38  1  0
 24 39  1  0
M  CHG  1  13  -1
M  END
>  <UniqueID>  (94) 
93

>  <SMILES>  (94) 
CCS(=O)(=O)CCC(=O)n1c(C([NH-])=O)cc2ccc(C(F)(F)F)cc21

>  <Energy>  (94) 
65.6427872275176

>  <Genealogy>  (94) 
CCS(=O)(=O)CCC(=O)n1c(C([NH-])=O)cc2ccc(C(F)(F)F)cc21 (protonated)
CCS(=O)(=O)CCC(=O)n1c(C([NH-])=O)cc2ccc(C(F)(F)F)cc21 (3D coordinates assigned)
CCS(=O)(=O)CCC(=O)n1c(C([NH-])=O)cc2ccc(C(F)(F)F)cc21 (optimized conformer: 65.6427872275176 kcal/mol)

>  <smiles>  (94) 
CCS(=O)(=O)CCC(=O)n1c(C(N)=O)cc2ccc(C(F)(F)F)cc21

>  <score_type>  (94) 
oracle

>  <origin>  (94) 
adg

>  <m_score__min__energy>  (94) 
-11.1

>  <m_primary>  (94) 
energy

$$$$
94:0
     RDKit          3D

 37 38  0  0  0  0  0  0  0  0999 V2000
   -2.9990   20.9770  -30.5220 C   0  0  0  0  0  0  0  0  0  0  0  0
   -3.8630   21.7130  -31.4490 N   0  0  0  0  0  0  0  0  0  0  0  0
   -4.5560   22.8860  -30.9800 C   0  0  0  0  0  0  0  0  0  0  0  0
   -5.5240   23.3470  -31.6450 O   0  0  0  0  0  0  0  0  0  0  0  0
   -4.1480   23.5740  -29.7050 C   0  0  0  0  0  0  0  0  0  0  0  0
   -3.5110   24.8950  -30.0000 C   0  0  0  0  0  0  0  0  0  0  0  0
   -4.0260   25.6730  -30.8450 O   0  0  0  0  0  0  0  0  0  0  0  0
   -2.3720   25.2880  -29.3070 O   0  0  0  0  0  0  0  0  0  0  0  0
   -3.8980   21.3300  -32.8400 C   0  0  0  0  0  0  0  0  0  0  0  0
   -3.7740   22.2080  -33.7360 O   0  0  0  0  0  0  0  0  0  0  0  0
   -4.0690   19.9550  -33.2250 N   0  0  0  0  0  0  0  0  0  0  0  0
   -3.1610   19.1350  -33.8250 C   0  0  0  0  0  0  0  0  0  0  0  0
   -1.7480   19.4780  -34.0940 C   0  0  0  0  0  0  0  0  0  0  0  0
   -1.3810   20.7890  -34.5280 N   0  0  0  0  0  0  0  0  0  0  0  0
   -0.8500   18.6040  -33.9590 O   0  0  0  0  0  0  0  0  0  0  0  0
   -3.7320   17.8900  -34.0890 C   0  0  0  0  0  0  0  0  0  0  0  0
   -5.0240   17.9740  -33.6190 C   0  0  0  0  0  0  0  0  0  0  0  0
   -6.0480   17.0340  -33.6420 C   0  0  0  0  0  0  0  0  0  0  0  0
   -7.2960   17.4070  -33.1140 C   0  0  0  0  0  0  0  0  0  0  0  0
   -7.4940   18.6990  -32.5610 C   0  0  0  0  0  0  0  0  0  0  0  0
   -8.8540   19.1070  -32.0540 C   0  0  0  0  0  0  0  0  0  0  0  0
   -9.5940   19.7000  -33.0620 F   0  0  0  0  0  0  0  0  0  0  0  0
   -9.5250   17.9880  -31.6010 F   0  0  0  0  0  0  0  0  0  0  0  0
   -8.7350   20.0140  -31.0140 F   0  0  0  0  0  0  0  0  0  0  0  0
   -6.4320   19.6330  -32.5780 C   0  0  0  0  0  0  0  0  0  0  0  0
   -5.1990   19.2290  -33.0990 C   0  0  0  0  0  0  0  0  0  0  0  0
   -3.2822   21.2183  -29.4868 H   0  0  0  0  0  0  0  0  0  0  0  0
   -3.1155   19.8964  -30.6917 H   0  0  0  0  0  0  0  0  0  0  0  0
   -1.9507   21.2638  -30.6917 H   0  0  0  0  0  0  0  0  0  0  0  0
   -5.0386   23.7338  -29.0795 H   0  0  0  0  0  0  0  0  0  0  0  0
   -3.4208   22.9397  -29.1769 H   0  0  0  0  0  0  0  0  0  0  0  0
   -2.0830   21.5580  -34.5890 H   0  0  0  0  0  0  0  0  0  0  0  0
   -0.3840   21.0080  -34.7470 H   0  0  0  0  0  0  0  0  0  0  0  0
   -3.2524   17.0249  -34.5703 H   0  0  0  0  0  0  0  0  0  0  0  0
   -5.8865   16.0296  -34.0604 H   0  0  0  0  0  0  0  0  0  0  0  0
   -8.1292   16.6890  -33.1296 H   0  0  0  0  0  0  0  0  0  0  0  0
   -6.5727   20.6529  -32.1906 H   0  0  0  0  0  0  0  0  0  0  0  0
  1  2  1  0
  2  3  1  0
  3  4  2  0
  3  5  1  0
  5  6  1  0
  6  7  2  0
  6  8  1  0
  2  9  1  0
  9 10  2  0
  9 11  1  0
 11 12  1  0
 12 13  1  0
 13 14  1  0
 13 15  2  0
 12 16  2  0
 16 17  1  0
 17 18  2  0
 18 19  1  0
 19 20  2  0
 20 21  1  0
 21 22  1  0
 21 23  1  0
 21 24  1  0
 20 25  1  0
 25 26  2  0
 26 11  1  0
 26 17  1  0
  1 27  1  0
  1 28  1  0
  1 29  1  0
  5 30  1  0
  5 31  1  0
 14 32  1  0
 14 33  1  0
 16 34  1  0
 18 35  1  0
 19 36  1  0
 25 37  1  0
M  CHG  1   8  -1
M  END
>  <UniqueID>  (95) 
94

>  <SMILES>  (95) 
CN(C(=O)CC(=O)[O-])C(=O)n1c(C(N)=O)cc2ccc(C(F)(F)F)cc21

>  <Energy>  (95) 
77.58722980654811

>  <Genealogy>  (95) 
CN(C(=O)CC(=O)[O-])C(=O)n1c(C(N)=O)cc2ccc(C(F)(F)F)cc21 (protonated)
CN(C(=O)CC(=O)[O-])C(=O)n1c(C(N)=O)cc2ccc(C(F)(F)F)cc21 (3D coordinates assigned)
CN(C(=O)CC(=O)[O-])C(=O)n1c(C(N)=O)cc2ccc(C(F)(F)F)cc21 (optimized conformer: 77.58722980654811 kcal/mol)

>  <smiles>  (95) 
CN(C(=O)CC(=O)O)C(=O)n1c(C(N)=O)cc2ccc(C(F)(F)F)cc21

>  <score_type>  (95) 
oracle

>  <origin>  (95) 
adg

>  <m_score__min__energy>  (95) 
-11.24

>  <m_primary>  (95) 
energy

$$$$
95:0
     RDKit          3D

 44 45  0  0  0  0  0  0  0  0999 V2000
   -1.6740   20.5050  -30.5920 C   0  0  0  0  0  0  0  0  0  0  0  0
   -2.1150   20.8120  -32.0040 C   0  0  0  0  0  0  0  0  0  0  0  0
   -3.0170   21.7810  -32.2740 C   0  0  0  0  0  0  0  0  0  0  0  0
   -3.6610   22.6800  -31.2850 C   0  0  0  0  0  0  0  0  0  0  0  0
   -2.9790   23.3140  -30.4350 O   0  0  0  0  0  0  0  0  0  0  0  0
   -5.0850   22.8620  -31.3160 N   0  0  0  0  0  0  0  0  0  0  0  0
   -5.7980   23.9360  -30.8740 C   0  0  0  0  0  0  0  0  0  0  0  0
   -5.2280   25.2030  -30.3650 C   0  0  0  0  0  0  0  0  0  0  0  0
   -3.9620   25.6510  -30.8390 N   0  0  0  0  0  0  0  0  0  0  0  0
   -5.8370   25.8790  -29.4950 O   0  0  0  0  0  0  0  0  0  0  0  0
   -7.1650   23.7110  -31.0260 C   0  0  0  0  0  0  0  0  0  0  0  0
   -7.2670   22.4550  -31.5800 C   0  0  0  0  0  0  0  0  0  0  0  0
   -8.3950   21.7210  -31.9340 C   0  0  0  0  0  0  0  0  0  0  0  0
   -8.2050   20.4340  -32.4640 C   0  0  0  0  0  0  0  0  0  0  0  0
   -6.8990   19.8970  -32.6240 C   0  0  0  0  0  0  0  0  0  0  0  0
   -6.7090   18.5650  -33.1580 N   0  0  0  0  0  0  0  0  0  0  0  0
   -7.5460   17.4650  -32.6650 C   0  0  0  0  0  0  0  0  0  0  0  0
   -5.7150   18.3050  -34.2120 C   0  0  0  0  0  0  0  0  0  0  0  0
   -4.3750   17.8760  -33.5990 C   0  0  0  0  0  0  0  0  0  0  0  0
   -3.2670   18.1480  -34.5150 N   0  0  0  0  0  0  0  0  0  0  0  0
   -5.7800   20.6790  -32.2500 C   0  0  0  0  0  0  0  0  0  0  0  0
   -6.0000   21.9640  -31.7450 C   0  0  0  0  0  0  0  0  0  0  0  0
   -1.5320   20.0220  -33.1190 C   0  0  0  0  0  0  0  0  0  0  0  0
   -0.7180   19.0870  -32.8930 O   0  0  0  0  0  0  0  0  0  0  0  0
   -1.8790   20.2990  -34.4370 O   0  0  0  0  0  0  0  0  0  0  0  0
   -2.3625   20.9843  -29.8805 H   0  0  0  0  0  0  0  0  0  0  0  0
   -1.6824   19.4165  -30.4337 H   0  0  0  0  0  0  0  0  0  0  0  0
   -0.6561   20.8907  -30.4337 H   0  0  0  0  0  0  0  0  0  0  0  0
   -3.3011   21.9163  -33.3280 H   0  0  0  0  0  0  0  0  0  0  0  0
   -3.0740   25.3060  -30.4080 H   0  0  0  0  0  0  0  0  0  0  0  0
   -7.9870   24.3918  -30.7600 H   0  0  0  0  0  0  0  0  0  0  0  0
   -9.4052   22.1361  -31.8027 H   0  0  0  0  0  0  0  0  0  0  0  0
   -9.0785   19.8340  -32.7590 H   0  0  0  0  0  0  0  0  0  0  0  0
   -7.5442   17.4674  -31.5650 H   0  0  0  0  0  0  0  0  0  0  0  0
   -8.5754   17.5954  -33.0302 H   0  0  0  0  0  0  0  0  0  0  0  0
   -7.1459   16.5077  -33.0302 H   0  0  0  0  0  0  0  0  0  0  0  0
   -6.0853   17.5034  -34.8679 H   0  0  0  0  0  0  0  0  0  0  0  0
   -5.5608   19.2289  -34.7888 H   0  0  0  0  0  0  0  0  0  0  0  0
   -4.2131   18.4320  -32.6638 H   0  0  0  0  0  0  0  0  0  0  0  0
   -4.4100   16.7940  -33.4037 H   0  0  0  0  0  0  0  0  0  0  0  0
   -3.4540   19.0470  -35.0170 H   0  0  0  0  0  0  0  0  0  0  0  0
   -3.1860   17.3790  -35.2200 H   0  0  0  0  0  0  0  0  0  0  0  0
   -2.3740   18.2380  -33.9820 H   0  0  0  0  0  0  0  0  0  0  0  0
   -4.7587   20.2840  -32.3545 H   0  0  0  0  0  0  0  0  0  0  0  0
  1  2  1  0
  2  3  2  3
  3  4  1  0
  4  5  2  0
  4  6  1  0
  6  7  1  0
  7  8  1  0
  8  9  1  0
  8 10  2  0
  7 11  2  0
 11 12  1  0
 12 13  2  0
 13 14  1  0
 14 15  2  0
 15 16  1  0
 16 17  1  0
 16 18  1  0
 18 19  1  0
 19 20  1  0
 15 21  1  0
 21 22  2  0
  2 23  1  0
 23 24  2  0
 23 25  1  0
 22  6  1  0
 22 12  1  0
  1 26  1  0
  1 27  1  0
  1 28  1  0
  3 29  1  0
  9 30  1  0
 11 31  1  0
 13 32  1  0
 14 33  1  0
 17 34  1  0
 17 35  1  0
 17 36  1  0
 18 37  1  0
 18 38  1  0
 19 39  1  0
 19 40  1  0
 20 41  1  0
 20 42  1  0
 20 43  1  0
 21 44  1  0
M  CHG  3   9  -1  20   1  25  -1
M  END
>  <UniqueID>  (96) 
95

>  <SMILES>  (96) 
CC(=CC(=O)n1c(C([NH-])=O)cc2ccc(N(C)CC[NH3+])cc21)C(=O)[O-]

>  <Energy>  (96) 
85.11651236322287

>  <Genealogy>  (96) 
CC(=CC(=O)n1c(C([NH-])=O)cc2ccc(N(C)CC[NH3+])cc21)C(=O)[O-] (protonated)
CC(=CC(=O)n1c(C([NH-])=O)cc2ccc(N(C)CC[NH3+])cc21)C(=O)[O-] (3D coordinates assigned)
CC(=CC(=O)n1c(C([NH-])=O)cc2ccc(N(C)CC[NH3+])cc21)C(=O)[O-] (optimized conformer: 85.11651236322287 kcal/mol)

>  <smiles>  (96) 
CC(=CC(=O)n1c(C(N)=O)cc2ccc(N(C)CCN)cc21)C(=O)O

>  <score_type>  (96) 
oracle

>  <origin>  (96) 
adg

>  <m_score__min__energy>  (96) 
-9.6999999999999993

>  <m_primary>  (96) 
energy

$$$$
96:0
     RDKit          3D

 46 47  0  0  0  0  0  0  0  0999 V2000
   -1.0820   22.8840  -26.7830 C   0  0  0  0  0  0  0  0  0  0  0  0
   -1.8580   23.5960  -27.8050 N   0  0  0  0  0  0  0  0  0  0  0  0
   -2.3530   24.9480  -27.5120 C   0  0  0  0  0  0  0  0  0  0  0  0
   -1.3320   25.9940  -27.9590 C   0  0  0  0  0  0  0  0  0  0  0  0
   -1.1820   25.9630  -29.3530 O   0  0  0  0  0  0  0  0  0  0  0  0
   -2.0950   23.0100  -29.1060 C   0  0  0  0  0  0  0  0  0  0  0  0
   -1.6400   23.5750  -30.1380 O   0  0  0  0  0  0  0  0  0  0  0  0
   -2.8680   21.7280  -29.2810 C   0  0  0  0  0  0  0  0  0  0  0  0
   -2.9710   21.3660  -30.7020 N   0  0  0  0  0  0  0  0  0  0  0  0
   -2.3350   20.1430  -31.2030 C   0  0  0  0  0  0  0  0  0  0  0  0
   -3.8210   22.1240  -31.5860 C   0  0  0  0  0  0  0  0  0  0  0  0
   -3.3840   22.5320  -32.6970 O   0  0  0  0  0  0  0  0  0  0  0  0
   -5.1720   22.4230  -31.2140 N   0  0  0  0  0  0  0  0  0  0  0  0
   -5.6320   23.5010  -30.5220 C   0  0  0  0  0  0  0  0  0  0  0  0
   -4.8030   24.5960  -29.9750 C   0  0  0  0  0  0  0  0  0  0  0  0
   -3.8800   25.3030  -30.7990 N   0  0  0  0  0  0  0  0  0  0  0  0
   -4.9010   24.9040  -28.7580 O   0  0  0  0  0  0  0  0  0  0  0  0
   -7.0140   23.4140  -30.3530 C   0  0  0  0  0  0  0  0  0  0  0  0
   -7.3840   22.2380  -30.9690 C   0  0  0  0  0  0  0  0  0  0  0  0
   -8.6360   21.6450  -31.0980 C   0  0  0  0  0  0  0  0  0  0  0  0
   -8.7170   20.4220  -31.7850 C   0  0  0  0  0  0  0  0  0  0  0  0
   -7.5560   19.8240  -32.3400 C   0  0  0  0  0  0  0  0  0  0  0  0
   -7.6500   18.5200  -33.0760 C   0  0  0  0  0  0  0  0  0  0  0  0
   -6.5620   17.3180  -32.3390 Cl  0  0  0  0  0  0  0  0  0  0  0  0
   -6.3020   20.4570  -32.1880 C   0  0  0  0  0  0  0  0  0  0  0  0
   -6.2520   21.6630  -31.4830 C   0  0  0  0  0  0  0  0  0  0  0  0
   -1.4203   23.1944  -25.7834 H   0  0  0  0  0  0  0  0  0  0  0  0
   -1.2292   21.8002  -26.8998 H   0  0  0  0  0  0  0  0  0  0  0  0
   -0.0148   23.1237  -26.8998 H   0  0  0  0  0  0  0  0  0  0  0  0
   -3.2994   25.1122  -28.0480 H   0  0  0  0  0  0  0  0  0  0  0  0
   -2.5130   25.0439  -26.4279 H   0  0  0  0  0  0  0  0  0  0  0  0
   -1.6778   26.9925  -27.6533 H   0  0  0  0  0  0  0  0  0  0  0  0
   -0.3624   25.7711  -27.4897 H   0  0  0  0  0  0  0  0  0  0  0  0
   -2.0530   25.6640  -29.7250 H   0  0  0  0  0  0  0  0  0  0  0  0
   -2.3528   20.9204  -28.7403 H   0  0  0  0  0  0  0  0  0  0  0  0
   -3.8825   21.8726  -28.8813 H   0  0  0  0  0  0  0  0  0  0  0  0
   -2.0126   19.5230  -30.3535 H   0  0  0  0  0  0  0  0  0  0  0  0
   -3.0546   19.5800  -31.8156 H   0  0  0  0  0  0  0  0  0  0  0  0
   -1.4609   20.4088  -31.8156 H   0  0  0  0  0  0  0  0  0  0  0  0
   -2.8570   25.2990  -30.5900 H   0  0  0  0  0  0  0  0  0  0  0  0
   -7.6692   24.1316  -29.8376 H   0  0  0  0  0  0  0  0  0  0  0  0
   -9.5343   22.1188  -30.6754 H   0  0  0  0  0  0  0  0  0  0  0  0
   -9.6911   19.9227  -31.8938 H   0  0  0  0  0  0  0  0  0  0  0  0
   -8.6849   18.1502  -33.0293 H   0  0  0  0  0  0  0  0  0  0  0  0
   -7.3542   18.6771  -34.1238 H   0  0  0  0  0  0  0  0  0  0  0  0
   -5.3898   20.0128  -32.6129 H   0  0  0  0  0  0  0  0  0  0  0  0
  1  2  1  0
  2  3  1  0
  3  4  1  0
  4  5  1  0
  2  6  1  0
  6  7  2  0
  6  8  1  0
  8  9  1  0
  9 10  1  0
  9 11  1  0
 11 12  2  0
 11 13  1  0
 13 14  1  0
 14 15  1  0
 15 16  1  0
 15 17  2  0
 14 18  2  0
 18 19  1  0
 19 20  2  0
 20 21  1  0
 21 22  2  0
 22 23  1  0
 23 24  1  0
 22 25  1  0
 25 26  2  0
 26 13  1  0
 26 19  1  0
  1 27  1  0
  1 28  1  0
  1 29  1  0
  3 30  1  0
  3 31  1  0
  4 32  1  0
  4 33  1  0
  5 34  1  0
  8 35  1  0
  8 36  1  0
 10 37  1  0
 10 38  1  0
 10 39  1  0
 16 40  1  0
 18 41  1  0
 20 42  1  0
 21 43  1  0
 23 44  1  0
 23 45  1  0
 25 46  1  0
M  CHG  1  16  -1
M  END
>  <UniqueID>  (97) 
96

>  <SMILES>  (97) 
CN(CCO)C(=O)CN(C)C(=O)n1c(C([NH-])=O)cc2ccc(CCl)cc21

>  <Energy>  (97) 
74.81219585302358

>  <Genealogy>  (97) 
CN(CCO)C(=O)CN(C)C(=O)n1c(C([NH-])=O)cc2ccc(CCl)cc21 (protonated)
CN(CCO)C(=O)CN(C)C(=O)n1c(C([NH-])=O)cc2ccc(CCl)cc21 (3D coordinates assigned)
CN(CCO)C(=O)CN(C)C(=O)n1c(C([NH-])=O)cc2ccc(CCl)cc21 (optimized conformer: 74.81219585302358 kcal/mol)

>  <smiles>  (97) 
CN(CCO)C(=O)CN(C)C(=O)n1c(C(N)=O)cc2ccc(CCl)cc21

>  <score_type>  (97) 
oracle

>  <origin>  (97) 
adg

>  <m_score__min__energy>  (97) 
-10.57

>  <m_primary>  (97) 
energy

$$$$
97:0
     RDKit          3D

 37 38  0  0  0  0  0  0  0  0999 V2000
   -4.1050   25.5980  -30.8290 N   0  0  0  0  0  0  0  0  0  0  0  0
   -5.4470   25.3050  -30.4480 C   0  0  0  0  0  0  0  0  0  0  0  0
   -6.0760   26.1200  -29.7240 O   0  0  0  0  0  0  0  0  0  0  0  0
   -6.0950   24.0670  -30.9270 C   0  0  0  0  0  0  0  0  0  0  0  0
   -7.4540   23.9680  -31.2280 C   0  0  0  0  0  0  0  0  0  0  0  0
   -7.6590   22.6450  -31.5550 C   0  0  0  0  0  0  0  0  0  0  0  0
   -8.8190   21.9860  -31.9510 C   0  0  0  0  0  0  0  0  0  0  0  0
   -8.7270   20.6150  -32.2510 C   0  0  0  0  0  0  0  0  0  0  0  0
   -7.4910   19.9330  -32.1410 C   0  0  0  0  0  0  0  0  0  0  0  0
   -7.3960   18.4820  -32.5090 C   0  0  0  0  0  0  0  0  0  0  0  0
   -8.4890   17.8060  -31.9990 F   0  0  0  0  0  0  0  0  0  0  0  0
   -6.3330   20.6370  -31.7470 C   0  0  0  0  0  0  0  0  0  0  0  0
   -6.4560   21.9980  -31.4490 C   0  0  0  0  0  0  0  0  0  0  0  0
   -5.4870   22.8580  -31.0710 N   0  0  0  0  0  0  0  0  0  0  0  0
   -4.0960   22.5440  -30.9250 C   0  0  0  0  0  0  0  0  0  0  0  0
   -3.2420   23.1570  -31.6190 O   0  0  0  0  0  0  0  0  0  0  0  0
   -3.6410   21.5800  -29.8740 C   0  0  0  0  0  0  0  0  0  0  0  0
   -3.0120   22.4900  -28.4270 P   0  0  2  0  0  0  0  0  0  0  0  0
   -3.1500   21.6130  -27.2040 O   0  0  0  0  0  0  0  0  0  0  0  0
   -3.9160   23.9020  -28.1860 O   0  0  0  0  0  0  0  0  0  0  0  0
   -1.2470   22.9020  -28.6270 C   0  0  0  0  0  0  0  0  0  0  0  0
   -0.9050   24.6400  -28.2070 P   0  0  0  0  0  0  0  0  0  0  0  0
   -1.4840   24.9340  -26.8430 O   0  0  0  0  0  0  0  0  0  0  0  0
   -1.6190   25.6700  -29.3420 O   0  0  0  0  0  0  0  0  0  0  0  0
    0.7630   24.9150  -28.1640 O   0  0  0  0  0  0  0  0  0  0  0  0
   -3.3090   25.0200  -30.4790 H   0  0  0  0  0  0  0  0  0  0  0  0
   -8.2022   24.7741  -31.2084 H   0  0  0  0  0  0  0  0  0  0  0  0
   -9.7774   22.5204  -32.0270 H   0  0  0  0  0  0  0  0  0  0  0  0
   -9.6243   20.0670  -32.5744 H   0  0  0  0  0  0  0  0  0  0  0  0
   -7.3807   18.3815  -33.6043 H   0  0  0  0  0  0  0  0  0  0  0  0
   -6.4725   18.0564  -32.0895 H   0  0  0  0  0  0  0  0  0  0  0  0
   -5.3599   20.1290  -31.6762 H   0  0  0  0  0  0  0  0  0  0  0  0
   -4.4878   20.9483  -29.5675 H   0  0  0  0  0  0  0  0  0  0  0  0
   -2.8366   20.9513  -30.2836 H   0  0  0  0  0  0  0  0  0  0  0  0
   -3.2610   24.6420  -28.2360 H   0  0  0  0  0  0  0  0  0  0  0  0
   -0.6531   22.2529  -27.9668 H   0  0  0  0  0  0  0  0  0  0  0  0
   -0.9776   22.7464  -29.6821 H   0  0  0  0  0  0  0  0  0  0  0  0
  1  2  1  0
  2  3  2  0
  2  4  1  0
  4  5  2  0
  5  6  1  0
  6  7  2  0
  7  8  1  0
  8  9  2  0
  9 10  1  0
 10 11  1  0
  9 12  1  0
 12 13  2  0
 13 14  1  0
 14 15  1  0
 15 16  2  0
 15 17  1  0
 17 18  1  0
 18 19  2  0
 18 20  1  1
 18 21  1  0
 21 22  1  0
 22 23  2  0
 22 24  1  0
 22 25  1  0
 14  4  1  0
 13  6  1  0
  1 26  1  0
  5 27  1  0
  7 28  1  0
  8 29  1  0
 10 30  1  0
 10 31  1  0
 12 32  1  0
 17 33  1  0
 17 34  1  0
 20 35  1  0
 21 36  1  0
 21 37  1  0
M  CHG  3   1  -1  24  -1  25  -1
M  END
>  <UniqueID>  (98) 
97

>  <SMILES>  (98) 
[NH-]C(=O)c1cc2ccc(CF)cc2n1C(=O)C[P@](=O)(O)CP(=O)([O-])[O-]

>  <Energy>  (98) 
62.47362523759143

>  <Genealogy>  (98) 
[NH-]C(=O)c1cc2ccc(CF)cc2n1C(=O)CP(=O)(O)CP(=O)([O-])[O-] (protonated)
[NH-]C(=O)c1cc2ccc(CF)cc2n1C(=O)C[P@](=O)(O)CP(=O)([O-])[O-] (chirality)
[NH-]C(=O)c1cc2ccc(CF)cc2n1C(=O)C[P@](=O)(O)CP(=O)([O-])[O-] (3D coordinates assigned)
[NH-]C(=O)c1cc2ccc(CF)cc2n1C(=O)C[P@](=O)(O)CP(=O)([O-])[O-] (optimized conformer: 62.47362523759143 kcal/mol)

>  <smiles>  (98) 
NC(=O)c1cc2ccc(CF)cc2n1C(=O)CP(=O)(O)CP(=O)(O)O

>  <score_type>  (98) 
oracle

>  <origin>  (98) 
adg

>  <m_score__min__energy>  (98) 
-13.109999999999999

>  <m_primary>  (98) 
energy

$$$$
98:0
     RDKit          3D

 46 47  0  0  0  0  0  0  0  0999 V2000
   -9.0860   22.8110  -31.9720 C   0  0  0  0  0  0  0  0  0  0  0  0
   -9.5080   21.3440  -31.9500 C   0  0  0  0  0  0  0  0  0  0  0  0
   -8.3420   20.4520  -32.2770 C   0  0  0  0  0  0  0  0  0  0  0  0
   -8.4980   19.0430  -32.2660 C   0  0  0  0  0  0  0  0  0  0  0  0
   -7.4060   18.2000  -32.5330 C   0  0  0  0  0  0  0  0  0  0  0  0
   -6.1780   18.7930  -32.8070 C   0  0  0  0  0  0  0  0  0  0  0  0
   -4.9500   18.2180  -33.0550 C   0  0  0  0  0  0  0  0  0  0  0  0
   -4.0740   19.2880  -33.2180 C   0  0  0  0  0  0  0  0  0  0  0  0
   -2.6360   19.1410  -33.5170 C   0  0  0  0  0  0  0  0  0  0  0  0
   -1.9650   20.0660  -34.3660 N   0  0  0  0  0  0  0  0  0  0  0  0
   -1.9960   18.1610  -33.0540 O   0  0  0  0  0  0  0  0  0  0  0  0
   -4.7280   20.4740  -33.0740 N   0  0  0  0  0  0  0  0  0  0  0  0
   -4.1390   21.7740  -32.9470 C   0  0  0  0  0  0  0  0  0  0  0  0
   -3.2010   22.1000  -33.7140 O   0  0  0  0  0  0  0  0  0  0  0  0
   -4.5950   22.7090  -31.9070 C   0  0  0  0  0  0  0  0  0  0  0  0
   -5.4780   23.5700  -32.1780 O   0  0  0  0  0  0  0  0  0  0  0  0
   -4.1140   22.5860  -30.5580 N   0  0  0  0  0  0  0  0  0  0  0  0
   -3.5360   21.2850  -30.2050 C   0  0  0  0  0  0  0  0  0  0  0  0
   -4.2850   23.6610  -29.5400 C   0  0  0  0  0  0  0  0  0  0  0  0
   -3.7520   23.1560  -28.1840 C   0  0  0  0  0  0  0  0  0  0  0  0
   -5.7670   24.0570  -29.3540 C   0  0  0  0  0  0  0  0  0  0  0  0
   -3.5270   24.9060  -29.9580 C   0  0  0  0  0  0  0  0  0  0  0  0
   -3.9930   25.6720  -30.8450 O   0  0  0  0  0  0  0  0  0  0  0  0
   -2.3390   25.2630  -29.3030 O   0  0  0  0  0  0  0  0  0  0  0  0
   -6.0140   20.1540  -32.8190 C   0  0  0  0  0  0  0  0  0  0  0  0
   -7.0770   21.0160  -32.5340 C   0  0  0  0  0  0  0  0  0  0  0  0
   -8.9805   23.1777  -30.9403 H   0  0  0  0  0  0  0  0  0  0  0  0
   -8.1236   22.9079  -32.4958 H   0  0  0  0  0  0  0  0  0  0  0  0
   -9.8499   23.4045  -32.4958 H   0  0  0  0  0  0  0  0  0  0  0  0
   -9.8862   21.0918  -30.9483 H   0  0  0  0  0  0  0  0  0  0  0  0
  -10.2941   21.1901  -32.7039 H   0  0  0  0  0  0  0  0  0  0  0  0
   -9.4831   18.6056  -32.0464 H   0  0  0  0  0  0  0  0  0  0  0  0
   -7.5187   17.1058  -32.5256 H   0  0  0  0  0  0  0  0  0  0  0  0
   -4.7132   17.1453  -33.1119 H   0  0  0  0  0  0  0  0  0  0  0  0
   -0.9330   19.9950  -34.5100 H   0  0  0  0  0  0  0  0  0  0  0  0
   -2.5030   20.7530  -34.9410 H   0  0  0  0  0  0  0  0  0  0  0  0
   -3.4928   21.1879  -29.1101 H   0  0  0  0  0  0  0  0  0  0  0  0
   -4.1616   20.4811  -30.6201 H   0  0  0  0  0  0  0  0  0  0  0  0
   -2.5200   21.2104  -30.6201 H   0  0  0  0  0  0  0  0  0  0  0  0
   -4.2873   23.6632  -27.3678 H   0  0  0  0  0  0  0  0  0  0  0  0
   -3.9120   22.0703  -28.1085 H   0  0  0  0  0  0  0  0  0  0  0  0
   -2.6765   23.3743  -28.1085 H   0  0  0  0  0  0  0  0  0  0  0  0
   -5.9981   24.1187  -28.2803 H   0  0  0  0  0  0  0  0  0  0  0  0
   -5.9471   25.0348  -29.8246 H   0  0  0  0  0  0  0  0  0  0  0  0
   -6.4108   23.2994  -29.8246 H   0  0  0  0  0  0  0  0  0  0  0  0
   -6.9295   22.1058  -32.5110 H   0  0  0  0  0  0  0  0  0  0  0  0
  1  2  1  0
  2  3  1  0
  3  4  2  0
  4  5  1  0
  5  6  2  0
  6  7  1  0
  7  8  2  0
  8  9  1  0
  9 10  1  0
  9 11  2  0
  8 12  1  0
 12 13  1  0
 13 14  2  0
 13 15  1  0
 15 16  2  0
 15 17  1  0
 17 18  1  0
 17 19  1  0
 19 20  1  0
 19 21  1  0
 19 22  1  0
 22 23  2  0
 22 24  1  0
 12 25  1  0
 25 26  2  0
 26  3  1  0
 25  6  1  0
  1 27  1  0
  1 28  1  0
  1 29  1  0
  2 30  1  0
  2 31  1  0
  4 32  1  0
  5 33  1  0
  7 34  1  0
 10 35  1  0
 10 36  1  0
 18 37  1  0
 18 38  1  0
 18 39  1  0
 20 40  1  0
 20 41  1  0
 20 42  1  0
 21 43  1  0
 21 44  1  0
 21 45  1  0
 26 46  1  0
M  CHG  1  24  -1
M  END
>  <UniqueID>  (99) 
98

>  <SMILES>  (99) 
CCc1ccc2cc(C(N)=O)n(C(=O)C(=O)N(C)C(C)(C)C(=O)[O-])c2c1

>  <Energy>  (99) 
89.15880780982124

>  <Genealogy>  (99) 
CCc1ccc2cc(C(N)=O)n(C(=O)C(=O)N(C)C(C)(C)C(=O)[O-])c2c1 (protonated)
CCc1ccc2cc(C(N)=O)n(C(=O)C(=O)N(C)C(C)(C)C(=O)[O-])c2c1 (3D coordinates assigned)
CCc1ccc2cc(C(N)=O)n(C(=O)C(=O)N(C)C(C)(C)C(=O)[O-])c2c1 (optimized conformer: 89.15880780982124 kcal/mol)

>  <smiles>  (99) 
CCc1ccc2cc(C(N)=O)n(C(=O)C(=O)N(C)C(C)(C)C(=O)O)c2c1

>  <score_type>  (99) 
oracle

>  <origin>  (99) 
adg

>  <m_score__min__energy>  (99) 
-11.720000000000001

>  <m_primary>  (99) 
energy

$$$$
