0:0
     RDKit          3D

 32 33  0  0  0  0  0  0  0  0999 V2000
   -4.2790   25.5350  -30.6140 N   0  0  0  0  0  0  0  0  0  0  0  0
   -5.6530   25.2290  -30.3650 C   0  0  0  0  0  0  0  0  0  0  0  0
   -6.3580   26.0560  -29.7280 O   0  0  0  0  0  0  0  0  0  0  0  0
   -6.2410   23.9510  -30.8240 C   0  0  0  0  0  0  0  0  0  0  0  0
   -7.6030   23.7500  -31.0540 C   0  0  0  0  0  0  0  0  0  0  0  0
   -7.7030   22.4730  -31.5590 C   0  0  0  0  0  0  0  0  0  0  0  0
   -8.8240   21.7530  -31.9640 C   0  0  0  0  0  0  0  0  0  0  0  0
   -8.6300   20.4440  -32.4370 C   0  0  0  0  0  0  0  0  0  0  0  0
   -7.3300   19.8840  -32.4950 C   0  0  0  0  0  0  0  0  0  0  0  0
   -7.1470   18.5490  -32.9730 N   0  0  0  0  0  0  0  0  0  0  0  0
   -6.2170   20.6430  -32.0780 C   0  0  0  0  0  0  0  0  0  0  0  0
   -6.4400   21.9470  -31.6210 C   0  0  0  0  0  0  0  0  0  0  0  0
   -5.5340   22.8380  -31.1690 N   0  0  0  0  0  0  0  0  0  0  0  0
   -4.1180   22.6190  -31.0530 C   0  0  0  0  0  0  0  0  0  0  0  0
   -3.3650   22.8900  -32.0270 O   0  0  0  0  0  0  0  0  0  0  0  0
   -3.5390   22.0430  -29.8320 C   0  0  0  0  0  0  0  0  0  0  0  0
   -3.3760   20.7950  -29.7390 O   0  0  0  0  0  0  0  0  0  0  0  0
   -3.1600   22.8900  -28.7840 O   0  0  0  0  0  0  0  0  0  0  0  0
   -1.8010   23.1220  -28.4190 C   0  0  0  0  0  0  0  0  0  0  0  0
   -1.3850   24.5050  -28.8100 C   0  0  0  0  0  0  0  0  0  0  0  0
   -2.1990   25.2660  -29.3970 O   0  0  0  0  0  0  0  0  0  0  0  0
   -0.0930   24.9450  -28.5510 O   0  0  0  0  0  0  0  0  0  0  0  0
   -3.6770   24.9080  -31.1920 H   0  0  0  0  0  0  0  0  0  0  0  0
   -3.8680   26.4240  -30.2530 H   0  0  0  0  0  0  0  0  0  0  0  0
   -8.4223   24.4607  -30.8708 H   0  0  0  0  0  0  0  0  0  0  0  0
   -9.8301   22.1951  -31.9152 H   0  0  0  0  0  0  0  0  0  0  0  0
   -9.4951   19.8490  -32.7651 H   0  0  0  0  0  0  0  0  0  0  0  0
   -6.5200   17.8830  -32.4700 H   0  0  0  0  0  0  0  0  0  0  0  0
   -7.6370   18.2180  -33.8340 H   0  0  0  0  0  0  0  0  0  0  0  0
   -5.2014   20.2217  -32.1110 H   0  0  0  0  0  0  0  0  0  0  0  0
   -1.6930   23.0051  -27.3306 H   0  0  0  0  0  0  0  0  0  0  0  0
   -1.1619   22.3956  -28.9424 H   0  0  0  0  0  0  0  0  0  0  0  0
  1  2  1  0
  2  3  2  0
  2  4  1  0
  4  5  2  0
  5  6  1  0
  6  7  2  0
  7  8  1  0
  8  9  2  0
  9 10  1  0
  9 11  1  0
 11 12  2  0
 12 13  1  0
 13 14  1  0
 14 15  2  0
 14 16  1  0
 16 17  2  0
 16 18  1  0
 18 19  1  0
 19 20  1  0
 20 21  2  0
 20 22  1  0
 13  4  1  0
 12  6  1  0
  1 23  1  0
  1 24  1  0
  5 25  1  0
  7 26  1  0
  8 27  1  0
 10 28  1  0
 10 29  1  0
 11 30  1  0
 19 31  1  0
 19 32  1  0
M  CHG  1  22  -1
M  END
>  <UniqueID>  (1) 
1

>  <SMILES>  (1) 
NC(=O)c1cc2ccc(N)cc2n1C(=O)C(=O)OCC(=O)[O-]

>  <Energy>  (1) 
68.1914670428988

>  <Genealogy>  (1) 
NC(=O)c1cc2ccc(N)cc2n1C(=O)C(=O)OCC(=O)[O-] (protonated)
NC(=O)c1cc2ccc(N)cc2n1C(=O)C(=O)OCC(=O)[O-] (3D coordinates assigned)
NC(=O)c1cc2ccc(N)cc2n1C(=O)C(=O)OCC(=O)[O-] (optimized conformer: 68.1914670428988 kcal/mol)

>  <smiles>  (1) 
NC(=O)c1cc2ccc(N)cc2n1C(=O)C(=O)OCC(=O)O

>  <score_type>  (1) 
oracle

>  <origin>  (1) 
adg

>  <m_score__min__energy>  (1) 
-9.6300000000000008

>  <m_primary>  (1) 
energy

$$$$
1:0
     RDKit          3D

 64 66  0  0  0  0  0  0  0  0999 V2000
   -1.8840   18.7450  -34.1670 C   0  0  0  0  0  0  0  0  0  0  0  0
   -2.0310   19.7880  -33.2290 O   0  0  0  0  0  0  0  0  0  0  0  0
   -1.1850   20.8770  -33.5540 C   0  0  0  0  0  0  0  0  0  0  0  0
   -0.6020   21.4810  -32.2760 C   0  0  0  0  0  0  0  0  0  0  0  0
   -0.9830   20.7160  -31.1340 O   0  0  0  0  0  0  0  0  0  0  0  0
   -1.6460   21.2590  -30.0280 C   0  0  0  0  0  0  0  0  0  0  0  0
   -1.3350   20.9000  -28.8590 O   0  0  0  0  0  0  0  0  0  0  0  0
   -2.7030   22.2080  -30.2290 N   0  0  0  0  0  0  0  0  0  0  0  0
   -2.7940   23.4790  -29.7430 C   0  0  0  0  0  0  0  0  0  0  0  0
   -1.7410   24.2020  -28.9980 C   0  0  0  0  0  0  0  0  0  0  0  0
   -1.5990   25.6110  -29.1610 N   0  0  0  0  0  0  0  0  0  0  0  0
   -0.9410   23.5860  -28.2480 O   0  0  0  0  0  0  0  0  0  0  0  0
   -4.0030   24.0600  -30.1230 C   0  0  0  0  0  0  0  0  0  0  0  0
   -4.6500   23.1010  -30.8690 C   0  0  0  0  0  0  0  0  0  0  0  0
   -5.8910   23.1410  -31.4970 C   0  0  0  0  0  0  0  0  0  0  0  0
   -6.3170   21.9940  -32.1870 C   0  0  0  0  0  0  0  0  0  0  0  0
   -5.5080   20.8280  -32.2320 C   0  0  0  0  0  0  0  0  0  0  0  0
   -5.9590   19.6480  -32.9320 N   0  0  0  0  0  0  0  0  0  0  0  0
   -5.3080   19.2510  -34.1910 C   0  0  0  0  0  0  0  0  0  0  0  0
   -6.0990   18.1780  -34.9790 C   0  0  0  0  0  0  0  0  0  0  0  0
   -6.2100   16.8020  -34.2910 C   0  0  0  0  0  0  0  0  0  0  0  0
   -5.9650   16.8220  -32.8350 N   0  0  0  0  0  0  0  0  0  0  0  0
   -4.7390   16.2380  -32.3540 C   0  0  0  0  0  0  0  0  0  0  0  0
   -3.6280   16.7460  -32.6690 O   0  0  0  0  0  0  0  0  0  0  0  0
   -4.7930   15.0940  -31.5400 O   0  0  0  0  0  0  0  0  0  0  0  0
   -4.4830   13.7510  -31.9360 C   0  0  0  0  0  0  0  0  0  0  0  0
   -4.9880   12.7450  -30.8840 C   0  0  0  0  0  0  0  0  0  0  0  0
   -5.0840   13.4400  -33.3210 C   0  0  0  0  0  0  0  0  0  0  0  0
   -2.9520   13.6460  -32.0270 C   0  0  0  0  0  0  0  0  0  0  0  0
   -6.8420   17.5620  -31.9130 C   0  0  0  0  0  0  0  0  0  0  0  0
   -7.1710   18.9440  -32.4830 C   0  0  0  0  0  0  0  0  0  0  0  0
   -4.2510   20.8330  -31.5830 C   0  0  0  0  0  0  0  0  0  0  0  0
   -3.8440   21.9950  -30.9190 C   0  0  0  0  0  0  0  0  0  0  0  0
   -1.7495   17.7909  -33.6363 H   0  0  0  0  0  0  0  0  0  0  0  0
   -2.7833   18.6900  -34.7981 H   0  0  0  0  0  0  0  0  0  0  0  0
   -1.0046   18.9407  -34.7981 H   0  0  0  0  0  0  0  0  0  0  0  0
   -0.3657   20.5234  -34.1972 H   0  0  0  0  0  0  0  0  0  0  0  0
   -1.7687   21.6440  -34.0841 H   0  0  0  0  0  0  0  0  0  0  0  0
    0.4953   21.4941  -32.3514 H   0  0  0  0  0  0  0  0  0  0  0  0
   -0.9904   22.5037  -32.1606 H   0  0  0  0  0  0  0  0  0  0  0  0
   -1.2400   26.0140  -30.0550 H   0  0  0  0  0  0  0  0  0  0  0  0
   -4.3633   25.0702  -29.8786 H   0  0  0  0  0  0  0  0  0  0  0  0
   -6.5191   24.0430  -31.4545 H   0  0  0  0  0  0  0  0  0  0  0  0
   -7.2904   21.9992  -32.6993 H   0  0  0  0  0  0  0  0  0  0  0  0
   -5.2027   20.1431  -34.8258 H   0  0  0  0  0  0  0  0  0  0  0  0
   -4.3346   18.8106  -33.9292 H   0  0  0  0  0  0  0  0  0  0  0  0
   -7.1178   18.5591  -35.1427 H   0  0  0  0  0  0  0  0  0  0  0  0
   -5.5367   18.0081  -35.9090 H   0  0  0  0  0  0  0  0  0  0  0  0
   -7.2245   16.4131  -34.4631 H   0  0  0  0  0  0  0  0  0  0  0  0
   -5.4253   16.1690  -34.7308 H   0  0  0  0  0  0  0  0  0  0  0  0
   -4.7905   13.1385  -29.8759 H   0  0  0  0  0  0  0  0  0  0  0  0
   -6.0697   12.5921  -31.0125 H   0  0  0  0  0  0  0  0  0  0  0  0
   -4.4643   11.7862  -31.0125 H   0  0  0  0  0  0  0  0  0  0  0  0
   -6.0545   12.9378  -33.1952 H   0  0  0  0  0  0  0  0  0  0  0  0
   -5.2259   14.3778  -33.8781 H   0  0  0  0  0  0  0  0  0  0  0  0
   -4.4004   12.7825  -33.8781 H   0  0  0  0  0  0  0  0  0  0  0  0
   -2.5256   13.6168  -31.0134 H   0  0  0  0  0  0  0  0  0  0  0  0
   -2.6789   12.7270  -32.5663 H   0  0  0  0  0  0  0  0  0  0  0  0
   -2.5560   14.5191  -32.5663 H   0  0  0  0  0  0  0  0  0  0  0  0
   -7.7752   16.9977  -31.7692 H   0  0  0  0  0  0  0  0  0  0  0  0
   -6.3237   17.6871  -30.9508 H   0  0  0  0  0  0  0  0  0  0  0  0
   -7.8518   18.8243  -33.3387 H   0  0  0  0  0  0  0  0  0  0  0  0
   -7.6407   19.5411  -31.6875 H   0  0  0  0  0  0  0  0  0  0  0  0
   -3.6069   19.9415  -31.6001 H   0  0  0  0  0  0  0  0  0  0  0  0
  1  2  1  0
  2  3  1  0
  3  4  1  0
  4  5  1  0
  5  6  1  0
  6  7  2  0
  6  8  1  0
  8  9  1  0
  9 10  1  0
 10 11  1  0
 10 12  2  0
  9 13  2  0
 13 14  1  0
 14 15  2  0
 15 16  1  0
 16 17  2  0
 17 18  1  0
 18 19  1  0
 19 20  1  0
 20 21  1  0
 21 22  1  0
 22 23  1  0
 23 24  2  0
 23 25  1  0
 25 26  1  0
 26 27  1  0
 26 28  1  0
 26 29  1  0
 22 30  1  0
 30 31  1  0
 17 32  1  0
 32 33  2  0
 33  8  1  0
 33 14  1  0
 31 18  1  0
  1 34  1  0
  1 35  1  0
  1 36  1  0
  3 37  1  0
  3 38  1  0
  4 39  1  0
  4 40  1  0
 11 41  1  0
 13 42  1  0
 15 43  1  0
 16 44  1  0
 19 45  1  0
 19 46  1  0
 20 47  1  0
 20 48  1  0
 21 49  1  0
 21 50  1  0
 27 51  1  0
 27 52  1  0
 27 53  1  0
 28 54  1  0
 28 55  1  0
 28 56  1  0
 29 57  1  0
 29 58  1  0
 29 59  1  0
 30 60  1  0
 30 61  1  0
 31 62  1  0
 31 63  1  0
 32 64  1  0
M  CHG  1  11  -1
M  END
>  <UniqueID>  (2) 
2

>  <SMILES>  (2) 
COCCOC(=O)n1c(C([NH-])=O)cc2ccc(N3CCCN(C(=O)OC(C)(C)C)CC3)cc21

>  <Energy>  (2) 
105.01138454458382

>  <Genealogy>  (2) 
COCCOC(=O)n1c(C([NH-])=O)cc2ccc(N3CCCN(C(=O)OC(C)(C)C)CC3)cc21 (protonated)
COCCOC(=O)n1c(C([NH-])=O)cc2ccc(N3CCCN(C(=O)OC(C)(C)C)CC3)cc21 (3D coordinates assigned)
COCCOC(=O)n1c(C([NH-])=O)cc2ccc(N3CCCN(C(=O)OC(C)(C)C)CC3)cc21 (nonaromatic ring conformer: 105.01138454458382 kcal/mol)

>  <smiles>  (2) 
COCCOC(=O)n1c(C(N)=O)cc2ccc(N3CCCN(C(=O)OC(C)(C)C)CC3)cc21

>  <score_type>  (2) 
oracle

>  <origin>  (2) 
adg

>  <m_score__min__energy>  (2) 
-8.6899999999999995

>  <m_primary>  (2) 
energy

$$$$
2:0
     RDKit          3D

 37 39  0  0  0  0  0  0  0  0999 V2000
   -6.5550   16.9980  -33.3330 C   0  0  0  0  0  0  0  0  0  0  0  0
   -6.8070   18.1190  -32.9710 C   0  0  0  0  0  0  0  0  0  0  0  0
   -7.1070   19.4580  -32.5390 C   0  0  0  0  0  0  0  0  0  0  0  0
   -8.4320   19.9460  -32.6250 C   0  0  0  0  0  0  0  0  0  0  0  0
   -8.7350   21.2580  -32.2200 C   0  0  0  0  0  0  0  0  0  0  0  0
   -7.6960   22.0460  -31.7300 C   0  0  0  0  0  0  0  0  0  0  0  0
   -7.7050   23.3530  -31.3010 C   0  0  0  0  0  0  0  0  0  0  0  0
   -6.3870   23.6330  -30.9420 C   0  0  0  0  0  0  0  0  0  0  0  0
   -5.9470   24.9130  -30.3440 C   0  0  0  0  0  0  0  0  0  0  0  0
   -5.7130   25.0210  -28.9390 N   0  0  0  0  0  0  0  0  0  0  0  0
   -5.7490   25.9180  -31.0780 O   0  0  0  0  0  0  0  0  0  0  0  0
   -5.5970   22.5400  -31.1390 N   0  0  0  0  0  0  0  0  0  0  0  0
   -4.1740   22.4500  -30.9670 C   0  0  0  0  0  0  0  0  0  0  0  0
   -3.4450   23.4480  -31.2150 O   0  0  0  0  0  0  0  0  0  0  0  0
   -3.6070   21.2580  -30.5010 O   0  0  0  0  0  0  0  0  0  0  0  0
   -3.0520   21.1130  -29.1960 C   0  0  0  0  0  0  0  0  0  0  0  0
   -3.0600   22.4230  -28.4700 C   0  0  0  0  0  0  0  0  0  0  0  0
   -4.1230   22.9660  -27.9210 O   0  0  0  0  0  0  0  0  0  0  0  0
   -3.7160   24.0980  -27.3940 C   0  0  0  0  0  0  0  0  0  0  0  0
   -4.4730   24.8910  -26.7750 O   0  0  0  0  0  0  0  0  0  0  0  0
   -2.4340   24.3120  -27.5800 O   0  0  0  0  0  0  0  0  0  0  0  0
   -1.9930   23.2790  -28.2590 C   0  0  0  0  0  0  0  0  0  0  0  0
   -0.5740   23.0810  -28.6800 C   0  0  0  0  0  0  0  0  0  0  0  0
   -6.4120   21.5770  -31.6240 C   0  0  0  0  0  0  0  0  0  0  0  0
   -6.0780   20.2820  -32.0370 C   0  0  0  0  0  0  0  0  0  0  0  0
   -6.3249   15.9744  -33.6636 H   0  0  0  0  0  0  0  0  0  0  0  0
   -9.2302   19.2950  -33.0111 H   0  0  0  0  0  0  0  0  0  0  0  0
   -9.7606   21.6499  -32.2880 H   0  0  0  0  0  0  0  0  0  0  0  0
   -8.5684   24.0328  -31.2516 H   0  0  0  0  0  0  0  0  0  0  0  0
   -5.9190   24.2290  -28.2920 H   0  0  0  0  0  0  0  0  0  0  0  0
   -5.3670   25.9190  -28.5350 H   0  0  0  0  0  0  0  0  0  0  0  0
   -3.6476   20.3822  -28.6292 H   0  0  0  0  0  0  0  0  0  0  0  0
   -2.0122   20.7665  -29.2899 H   0  0  0  0  0  0  0  0  0  0  0  0
    0.0640   22.9920  -27.7883 H   0  0  0  0  0  0  0  0  0  0  0  0
   -0.4945   22.1631  -29.2809 H   0  0  0  0  0  0  0  0  0  0  0  0
   -0.2462   23.9421  -29.2809 H   0  0  0  0  0  0  0  0  0  0  0  0
   -5.0423   19.9171  -31.9719 H   0  0  0  0  0  0  0  0  0  0  0  0
  1  2  3  0
  2  3  1  0
  3  4  2  0
  4  5  1  0
  5  6  2  0
  6  7  1  0
  7  8  2  0
  8  9  1  0
  9 10  1  0
  9 11  2  0
  8 12  1  0
 12 13  1  0
 13 14  2  0
 13 15  1  0
 15 16  1  0
 16 17  1  0
 17 18  1  0
 18 19  1  0
 19 20  2  0
 19 21  1  0
 21 22  1  0
 22 23  1  0
 12 24  1  0
 24 25  2  0
 25  3  1  0
 24  6  1  0
 22 17  2  0
  1 26  1  0
  4 27  1  0
  5 28  1  0
  7 29  1  0
 10 30  1  0
 10 31  1  0
 16 32  1  0
 16 33  1  0
 23 34  1  0
 23 35  1  0
 23 36  1  0
 25 37  1  0
M  END
>  <UniqueID>  (3) 
3

>  <SMILES>  (3) 
C#Cc1ccc2cc(C(N)=O)n(C(=O)OCc3oc(=O)oc3C)c2c1

>  <Energy>  (3) 
105.18770637492871

>  <Genealogy>  (3) 
C#Cc1ccc2cc(C(N)=O)n(C(=O)OCc3oc(=O)oc3C)c2c1 (3D coordinates assigned)
C#Cc1ccc2cc(C(N)=O)n(C(=O)OCc3oc(=O)oc3C)c2c1 (optimized conformer: 105.18770637492871 kcal/mol)

>  <smiles>  (3) 
C#Cc1ccc2cc(C(N)=O)n(C(=O)OCc3oc(=O)oc3C)c2c1

>  <score_type>  (3) 
oracle

>  <origin>  (3) 
adg

>  <m_score__min__energy>  (3) 
-9.6600000000000001

>  <m_primary>  (3) 
energy

$$$$
3:0
     RDKit          3D

 34 35  0  0  0  0  0  0  0  0999 V2000
   -6.0880   16.6110  -32.3560 C   0  0  0  0  0  0  0  0  0  0  0  0
   -6.1000   17.0060  -33.7220 O   0  0  0  0  0  0  0  0  0  0  0  0
   -5.5080   18.1920  -34.1670 C   0  0  0  0  0  0  0  0  0  0  0  0
   -5.7080   18.6030  -35.3440 O   0  0  0  0  0  0  0  0  0  0  0  0
   -4.6770   19.0000  -33.2060 C   0  0  1  0  0  0  0  0  0  0  0  0
   -3.3630   19.4750  -33.8410 C   0  0  0  0  0  0  0  0  0  0  0  0
   -5.4760   20.1650  -32.6600 C   0  0  0  0  0  0  0  0  0  0  0  0
   -6.8930   20.1830  -32.7550 C   0  0  0  0  0  0  0  0  0  0  0  0
   -7.6340   21.2700  -32.2630 C   0  0  0  0  0  0  0  0  0  0  0  0
   -6.9370   22.3210  -31.6740 C   0  0  0  0  0  0  0  0  0  0  0  0
   -7.4040   23.5030  -31.1500 C   0  0  0  0  0  0  0  0  0  0  0  0
   -6.2710   24.1830  -30.7140 C   0  0  0  0  0  0  0  0  0  0  0  0
   -6.3240   25.4850  -30.0190 C   0  0  0  0  0  0  0  0  0  0  0  0
   -5.4940   26.5740  -30.4250 N   0  0  0  0  0  0  0  0  0  0  0  0
   -7.0740   25.6210  -29.0160 O   0  0  0  0  0  0  0  0  0  0  0  0
   -5.1450   23.4600  -30.9690 N   0  0  0  0  0  0  0  0  0  0  0  0
   -3.7820   23.8750  -30.7770 C   0  0  0  0  0  0  0  0  0  0  0  0
   -2.8420   23.0430  -30.8650 O   0  0  0  0  0  0  0  0  0  0  0  0
   -3.4870   25.2040  -30.4980 O   0  0  0  0  0  0  0  0  0  0  0  0
   -5.5710   22.3170  -31.5560 C   0  0  0  0  0  0  0  0  0  0  0  0
   -4.8060   21.2560  -32.0570 C   0  0  0  0  0  0  0  0  0  0  0  0
   -6.1152   17.5049  -31.7156 H   0  0  0  0  0  0  0  0  0  0  0  0
   -6.9675   15.9840  -32.1479 H   0  0  0  0  0  0  0  0  0  0  0  0
   -5.1720   16.0385  -32.1479 H   0  0  0  0  0  0  0  0  0  0  0  0
   -4.4060   18.3423  -32.3670 H   0  0  0  0  0  0  0  0  0  0  0  0
   -2.6455   19.7344  -33.0485 H   0  0  0  0  0  0  0  0  0  0  0  0
   -2.9455   18.6709  -34.4648 H   0  0  0  0  0  0  0  0  0  0  0  0
   -3.5562   20.3602  -34.4648 H   0  0  0  0  0  0  0  0  0  0  0  0
   -7.4168   19.3348  -33.2199 H   0  0  0  0  0  0  0  0  0  0  0  0
   -8.7311   21.2901  -32.3407 H   0  0  0  0  0  0  0  0  0  0  0  0
   -8.4495   23.8393  -31.0885 H   0  0  0  0  0  0  0  0  0  0  0  0
   -4.7470   26.4440  -31.1420 H   0  0  0  0  0  0  0  0  0  0  0  0
   -5.5710   27.4990  -29.9460 H   0  0  0  0  0  0  0  0  0  0  0  0
   -3.7086   21.2705  -31.9834 H   0  0  0  0  0  0  0  0  0  0  0  0
  1  2  1  0
  2  3  1  0
  3  4  2  0
  3  5  1  0
  5  6  1  0
  5  7  1  0
  7  8  2  0
  8  9  1  0
  9 10  2  0
 10 11  1  0
 11 12  2  0
 12 13  1  0
 13 14  1  0
 13 15  2  0
 12 16  1  0
 16 17  1  0
 17 18  2  0
 17 19  1  0
 16 20  1  0
 20 21  2  0
 21  7  1  0
 20 10  1  0
  1 22  1  0
  1 23  1  0
  1 24  1  0
  5 25  1  1
  6 26  1  0
  6 27  1  0
  6 28  1  0
  8 29  1  0
  9 30  1  0
 11 31  1  0
 14 32  1  0
 14 33  1  0
 21 34  1  0
M  CHG  1  19  -1
M  END
>  <UniqueID>  (4) 
4

>  <SMILES>  (4) 
COC(=O)[C@@H](C)c1ccc2cc(C(N)=O)n(C(=O)[O-])c2c1

>  <Energy>  (4) 
70.48353657713501

>  <Genealogy>  (4) 
COC(=O)C(C)c1ccc2cc(C(N)=O)n(C(=O)[O-])c2c1 (protonated)
COC(=O)[C@@H](C)c1ccc2cc(C(N)=O)n(C(=O)[O-])c2c1 (chirality)
COC(=O)[C@@H](C)c1ccc2cc(C(N)=O)n(C(=O)[O-])c2c1 (3D coordinates assigned)
COC(=O)[C@@H](C)c1ccc2cc(C(N)=O)n(C(=O)[O-])c2c1 (optimized conformer: 70.48353657713501 kcal/mol)

>  <smiles>  (4) 
COC(=O)C(C)c1ccc2cc(C(N)=O)n(C(=O)O)c2c1

>  <score_type>  (4) 
oracle

>  <origin>  (4) 
adg

>  <m_score__min__energy>  (4) 
-8.6600000000000001

>  <m_primary>  (4) 
energy

$$$$
4:0
     RDKit          3D

 33 34  0  0  0  0  0  0  0  0999 V2000
   -3.9200   25.6650  -30.8440 N   0  0  0  0  0  0  0  0  0  0  0  0
   -5.2610   25.3740  -30.4570 C   0  0  0  0  0  0  0  0  0  0  0  0
   -5.8690   26.1690  -29.6970 O   0  0  0  0  0  0  0  0  0  0  0  0
   -5.9030   24.1250  -30.9200 C   0  0  0  0  0  0  0  0  0  0  0  0
   -7.2770   23.9900  -31.1020 C   0  0  0  0  0  0  0  0  0  0  0  0
   -7.4550   22.7280  -31.6170 C   0  0  0  0  0  0  0  0  0  0  0  0
   -8.6240   22.0650  -31.9750 C   0  0  0  0  0  0  0  0  0  0  0  0
   -8.5170   20.7490  -32.4560 C   0  0  0  0  0  0  0  0  0  0  0  0
   -7.2480   20.1170  -32.5700 C   0  0  0  0  0  0  0  0  0  0  0  0
   -7.1090   18.7620  -33.0410 N   0  0  0  0  0  0  0  0  0  0  0  0
   -6.1480   17.7820  -32.5270 C   0  0  0  0  0  0  0  0  0  0  0  0
   -5.8220   16.7280  -33.5840 C   0  0  0  0  0  0  0  0  0  0  0  0
   -6.8110   16.7020  -34.5740 O   0  0  0  0  0  0  0  0  0  0  0  0
   -6.0880   20.8260  -32.1860 C   0  0  0  0  0  0  0  0  0  0  0  0
   -6.2230   22.1410  -31.7280 C   0  0  0  0  0  0  0  0  0  0  0  0
   -5.2570   22.9850  -31.3010 N   0  0  0  0  0  0  0  0  0  0  0  0
   -3.8520   22.6960  -31.2180 C   0  0  0  0  0  0  0  0  0  0  0  0
   -3.2460   22.2400  -32.2260 O   0  0  0  0  0  0  0  0  0  0  0  0
   -3.1670   22.9460  -30.0210 O   0  0  0  0  0  0  0  0  0  0  0  0
   -1.8490   23.4110  -29.9320 C   0  0  0  0  0  0  0  0  0  0  0  0
   -0.8810   22.7280  -30.3580 O   0  0  0  0  0  0  0  0  0  0  0  0
   -1.6060   24.6530  -29.3610 O   0  0  0  0  0  0  0  0  0  0  0  0
   -3.1200   25.1070  -30.4700 H   0  0  0  0  0  0  0  0  0  0  0  0
   -8.0551   24.7354  -30.8806 H   0  0  0  0  0  0  0  0  0  0  0  0
   -9.6039   22.5565  -31.8843 H   0  0  0  0  0  0  0  0  0  0  0  0
   -9.4252   20.2013  -32.7477 H   0  0  0  0  0  0  0  0  0  0  0  0
   -7.7540   18.4350  -33.7960 H   0  0  0  0  0  0  0  0  0  0  0  0
   -5.2222   18.3023  -32.2404 H   0  0  0  0  0  0  0  0  0  0  0  0
   -6.5929   17.2787  -31.6559 H   0  0  0  0  0  0  0  0  0  0  0  0
   -4.8532   16.9674  -34.0468 H   0  0  0  0  0  0  0  0  0  0  0  0
   -5.7784   15.7413  -33.0998 H   0  0  0  0  0  0  0  0  0  0  0  0
   -6.8480   17.6190  -34.9510 H   0  0  0  0  0  0  0  0  0  0  0  0
   -5.0968   20.3528  -32.2460 H   0  0  0  0  0  0  0  0  0  0  0  0
  1  2  1  0
  2  3  2  0
  2  4  1  0
  4  5  2  0
  5  6  1  0
  6  7  2  0
  7  8  1  0
  8  9  2  0
  9 10  1  0
 10 11  1  0
 11 12  1  0
 12 13  1  0
  9 14  1  0
 14 15  2  0
 15 16  1  0
 16 17  1  0
 17 18  2  0
 17 19  1  0
 19 20  1  0
 20 21  2  0
 20 22  1  0
 16  4  1  0
 15  6  1  0
  1 23  1  0
  5 24  1  0
  7 25  1  0
  8 26  1  0
 10 27  1  0
 11 28  1  0
 11 29  1  0
 12 30  1  0
 12 31  1  0
 13 32  1  0
 14 33  1  0
M  CHG  2   1  -1  22  -1
M  END
>  <UniqueID>  (5) 
5

>  <SMILES>  (5) 
[NH-]C(=O)c1cc2ccc(NCCO)cc2n1C(=O)OC(=O)[O-]

>  <Energy>  (5) 
71.54293119200655

>  <Genealogy>  (5) 
[NH-]C(=O)c1cc2ccc(NCCO)cc2n1C(=O)OC(=O)[O-] (protonated)
[NH-]C(=O)c1cc2ccc(NCCO)cc2n1C(=O)OC(=O)[O-] (3D coordinates assigned)
[NH-]C(=O)c1cc2ccc(NCCO)cc2n1C(=O)OC(=O)[O-] (optimized conformer: 71.54293119200655 kcal/mol)

>  <smiles>  (5) 
NC(=O)c1cc2ccc(NCCO)cc2n1C(=O)OC(=O)O

>  <score_type>  (5) 
oracle

>  <origin>  (5) 
adg

>  <m_score__min__energy>  (5) 
-9.6699999999999999

>  <m_primary>  (5) 
energy

$$$$
5:0
     RDKit          3D

 48 49  0  0  0  0  0  0  0  0999 V2000
   -3.4880   18.5930  -26.0120 C   0  0  0  0  0  0  0  0  0  0  0  0
   -2.3610   19.2850  -26.1980 C   0  0  0  0  0  0  0  0  0  0  0  0
   -2.1110   20.0760  -27.4500 C   0  0  0  0  0  0  0  0  0  0  0  0
   -2.2600   21.4690  -27.1890 O   0  0  0  0  0  0  0  0  0  0  0  0
   -2.7080   22.3850  -28.1470 C   0  0  0  0  0  0  0  0  0  0  0  0
   -3.6240   23.2090  -27.8720 O   0  0  0  0  0  0  0  0  0  0  0  0
   -2.0630   22.4080  -29.5050 C   0  0  2  0  0  0  0  0  0  0  0  0
   -0.9130   23.4240  -29.5420 C   0  0  0  0  0  0  0  0  0  0  0  0
   -1.3280   24.7500  -28.9840 C   0  0  0  0  0  0  0  0  0  0  0  0
   -0.5520   25.3920  -28.2260 O   0  0  0  0  0  0  0  0  0  0  0  0
   -2.5560   25.2990  -29.3340 O   0  0  0  0  0  0  0  0  0  0  0  0
   -3.0250   22.7640  -30.4960 O   0  0  0  0  0  0  0  0  0  0  0  0
   -3.9070   21.8470  -31.0800 C   0  0  0  0  0  0  0  0  0  0  0  0
   -3.4650   20.8010  -31.6300 O   0  0  0  0  0  0  0  0  0  0  0  0
   -5.3220   22.0960  -31.0460 N   0  0  0  0  0  0  0  0  0  0  0  0
   -5.9520   23.2780  -30.7960 C   0  0  0  0  0  0  0  0  0  0  0  0
   -5.3040   24.5250  -30.3420 C   0  0  0  0  0  0  0  0  0  0  0  0
   -5.1250   24.8020  -28.9530 N   0  0  0  0  0  0  0  0  0  0  0  0
   -4.9540   25.3840  -31.1930 O   0  0  0  0  0  0  0  0  0  0  0  0
   -7.3260   23.1520  -30.9830 C   0  0  0  0  0  0  0  0  0  0  0  0
   -7.5240   21.8400  -31.3460 C   0  0  0  0  0  0  0  0  0  0  0  0
   -8.6990   21.1710  -31.6780 C   0  0  0  0  0  0  0  0  0  0  0  0
   -8.6050   19.8240  -32.0620 C   0  0  0  0  0  0  0  0  0  0  0  0
   -7.3480   19.1730  -32.1100 C   0  0  0  0  0  0  0  0  0  0  0  0
   -7.2530   17.7440  -32.5720 C   0  0  0  0  0  0  0  0  0  0  0  0
   -6.0740   17.0380  -31.9060 C   0  0  0  0  0  0  0  0  0  0  0  0
   -6.1570   17.2010  -30.5190 O   0  0  0  0  0  0  0  0  0  0  0  0
   -6.1740   19.8860  -31.7790 C   0  0  0  0  0  0  0  0  0  0  0  0
   -6.2990   21.2220  -31.3780 C   0  0  0  0  0  0  0  0  0  0  0  0
   -3.6373   18.0247  -25.0821 H   0  0  0  0  0  0  0  0  0  0  0  0
   -4.2669   18.5914  -26.7887 H   0  0  0  0  0  0  0  0  0  0  0  0
   -1.5929   19.2753  -25.4107 H   0  0  0  0  0  0  0  0  0  0  0  0
   -1.0887   19.8801  -27.8057 H   0  0  0  0  0  0  0  0  0  0  0  0
   -2.8393   19.7742  -28.2171 H   0  0  0  0  0  0  0  0  0  0  0  0
   -1.6658   21.4032  -29.7116 H   0  0  0  0  0  0  0  0  0  0  0  0
   -0.0734   23.0341  -28.9478 H   0  0  0  0  0  0  0  0  0  0  0  0
   -0.6182   23.5705  -30.5916 H   0  0  0  0  0  0  0  0  0  0  0  0
   -5.5570   24.1960  -28.2210 H   0  0  0  0  0  0  0  0  0  0  0  0
   -4.6290   25.6710  -28.6520 H   0  0  0  0  0  0  0  0  0  0  0  0
   -8.0901   23.9346  -30.8655 H   0  0  0  0  0  0  0  0  0  0  0  0
   -9.6720   21.6827  -31.6405 H   0  0  0  0  0  0  0  0  0  0  0  0
   -9.5165   19.2687  -32.3282 H   0  0  0  0  0  0  0  0  0  0  0  0
   -8.1830   17.2177  -32.3112 H   0  0  0  0  0  0  0  0  0  0  0  0
   -7.1012   17.7342  -33.6614 H   0  0  0  0  0  0  0  0  0  0  0  0
   -6.1019   15.9662  -32.1517 H   0  0  0  0  0  0  0  0  0  0  0  0
   -5.1319   17.4730  -32.2710 H   0  0  0  0  0  0  0  0  0  0  0  0
   -5.9800   16.3070  -30.1260 H   0  0  0  0  0  0  0  0  0  0  0  0
   -5.1868   19.4040  -31.8348 H   0  0  0  0  0  0  0  0  0  0  0  0
  1  2  2  0
  2  3  1  0
  3  4  1  0
  4  5  1  0
  5  6  2  0
  5  7  1  0
  7  8  1  0
  8  9  1  0
  9 10  2  0
  9 11  1  0
  7 12  1  0
 12 13  1  0
 13 14  2  0
 13 15  1  0
 15 16  1  0
 16 17  1  0
 17 18  1  0
 17 19  2  0
 16 20  2  0
 20 21  1  0
 21 22  2  0
 22 23  1  0
 23 24  2  0
 24 25  1  0
 25 26  1  0
 26 27  1  0
 24 28  1  0
 28 29  2  0
 29 15  1  0
 29 21  1  0
  1 30  1  0
  1 31  1  0
  2 32  1  0
  3 33  1  0
  3 34  1  0
  7 35  1  6
  8 36  1  0
  8 37  1  0
 18 38  1  0
 18 39  1  0
 20 40  1  0
 22 41  1  0
 23 42  1  0
 25 43  1  0
 25 44  1  0
 26 45  1  0
 26 46  1  0
 27 47  1  0
 28 48  1  0
M  CHG  1  11  -1
M  END
>  <UniqueID>  (6) 
6

>  <SMILES>  (6) 
C=CCOC(=O)[C@H](CC(=O)[O-])OC(=O)n1c(C(N)=O)cc2ccc(CCO)cc21

>  <Energy>  (6) 
74.64131336754747

>  <Genealogy>  (6) 
C=CCOC(=O)C(CC(=O)[O-])OC(=O)n1c(C(N)=O)cc2ccc(CCO)cc21 (protonated)
C=CCOC(=O)[C@H](CC(=O)[O-])OC(=O)n1c(C(N)=O)cc2ccc(CCO)cc21 (chirality)
C=CCOC(=O)[C@H](CC(=O)[O-])OC(=O)n1c(C(N)=O)cc2ccc(CCO)cc21 (3D coordinates assigned)
C=CCOC(=O)[C@H](CC(=O)[O-])OC(=O)n1c(C(N)=O)cc2ccc(CCO)cc21 (optimized conformer: 74.64131336754747 kcal/mol)

>  <smiles>  (6) 
C=CCOC(=O)C(CC(=O)O)OC(=O)n1c(C(N)=O)cc2ccc(CCO)cc21

>  <score_type>  (6) 
oracle

>  <origin>  (6) 
adg

>  <m_score__min__energy>  (6) 
-11.539999999999999

>  <m_primary>  (6) 
energy

$$$$
6:0
     RDKit          3D

 40 42  0  0  0  0  0  0  0  0999 V2000
   -7.2260   17.4160  -32.3980 C   0  0  0  0  0  0  0  0  0  0  0  0
   -6.7230   18.5760  -33.1450 N   0  0  0  0  0  0  0  0  0  0  0  0
   -6.0360   18.3530  -34.4240 C   0  0  0  0  0  0  0  0  0  0  0  0
   -6.9030   19.9210  -32.6280 C   0  0  0  0  0  0  0  0  0  0  0  0
   -8.2070   20.4730  -32.4740 C   0  0  0  0  0  0  0  0  0  0  0  0
   -8.3910   21.7690  -31.9660 C   0  0  0  0  0  0  0  0  0  0  0  0
   -7.2630   22.5030  -31.6250 C   0  0  0  0  0  0  0  0  0  0  0  0
   -7.1570   23.7680  -31.0920 C   0  0  0  0  0  0  0  0  0  0  0  0
   -5.7910   23.9940  -30.9460 C   0  0  0  0  0  0  0  0  0  0  0  0
   -5.2230   25.2790  -30.4860 C   0  0  0  0  0  0  0  0  0  0  0  0
   -3.9000   25.6680  -30.8470 N   0  0  0  0  0  0  0  0  0  0  0  0
   -5.9330   26.0650  -29.8030 O   0  0  0  0  0  0  0  0  0  0  0  0
   -5.0800   22.9070  -31.3620 N   0  0  0  0  0  0  0  0  0  0  0  0
   -3.6600   22.7090  -31.3070 C   0  0  0  0  0  0  0  0  0  0  0  0
   -3.0400   22.3040  -32.3280 O   0  0  0  0  0  0  0  0  0  0  0  0
   -2.9670   22.9920  -30.1240 O   0  0  0  0  0  0  0  0  0  0  0  0
   -3.3650   22.5030  -28.8460 C   0  0  0  0  0  0  0  0  0  0  0  0
   -2.7150   23.3360  -27.7350 C   0  0  0  0  0  0  0  0  0  0  0  0
   -3.5560   24.4920  -27.2180 C   0  0  0  0  0  0  0  0  0  0  0  0
   -2.3560   24.7640  -28.1130 C   0  0  0  0  0  0  0  0  0  0  0  0
   -5.9970   22.0050  -31.7790 C   0  0  0  0  0  0  0  0  0  0  0  0
   -5.7820   20.7110  -32.2630 C   0  0  0  0  0  0  0  0  0  0  0  0
   -7.1417   17.6104  -31.3186 H   0  0  0  0  0  0  0  0  0  0  0  0
   -8.2805   17.2417  -32.6579 H   0  0  0  0  0  0  0  0  0  0  0  0
   -6.6325   16.5271  -32.6579 H   0  0  0  0  0  0  0  0  0  0  0  0
   -5.0056   18.0185  -34.2333 H   0  0  0  0  0  0  0  0  0  0  0  0
   -6.5713   17.5825  -34.9983 H   0  0  0  0  0  0  0  0  0  0  0  0
   -6.0167   19.2910  -34.9983 H   0  0  0  0  0  0  0  0  0  0  0  0
   -9.0848   19.8738  -32.7578 H   0  0  0  0  0  0  0  0  0  0  0  0
   -9.3995   22.1904  -31.8418 H   0  0  0  0  0  0  0  0  0  0  0  0
   -7.9775   24.4545  -30.8359 H   0  0  0  0  0  0  0  0  0  0  0  0
   -3.0700   25.1570  -30.4740 H   0  0  0  0  0  0  0  0  0  0  0  0
   -4.4594   22.5686  -28.7565 H   0  0  0  0  0  0  0  0  0  0  0  0
   -3.0423   21.4562  -28.7456 H   0  0  0  0  0  0  0  0  0  0  0  0
   -2.1761   22.4949  -27.2745 H   0  0  0  0  0  0  0  0  0  0  0  0
   -4.5751   24.6459  -27.6024 H   0  0  0  0  0  0  0  0  0  0  0  0
   -3.8791   24.8356  -26.2242 H   0  0  0  0  0  0  0  0  0  0  0  0
   -2.5074   25.1146  -29.1446 H   0  0  0  0  0  0  0  0  0  0  0  0
   -1.4519   25.3857  -28.0345 H   0  0  0  0  0  0  0  0  0  0  0  0
   -4.7614   20.3121  -32.3592 H   0  0  0  0  0  0  0  0  0  0  0  0
  1  2  1  0
  2  3  1  0
  2  4  1  0
  4  5  2  0
  5  6  1  0
  6  7  2  0
  7  8  1  0
  8  9  2  0
  9 10  1  0
 10 11  1  0
 10 12  2  0
  9 13  1  0
 13 14  1  0
 14 15  2  0
 14 16  1  0
 16 17  1  0
 17 18  1  0
 18 19  1  0
 19 20  1  0
 13 21  1  0
 21 22  2  0
 22  4  1  0
 21  7  1  0
 20 18  1  0
  1 23  1  0
  1 24  1  0
  1 25  1  0
  3 26  1  0
  3 27  1  0
  3 28  1  0
  5 29  1  0
  6 30  1  0
  8 31  1  0
 11 32  1  0
 17 33  1  0
 17 34  1  0
 18 35  1  0
 19 36  1  0
 19 37  1  0
 20 38  1  0
 20 39  1  0
 22 40  1  0
M  CHG  1  11  -1
M  END
>  <UniqueID>  (7) 
7

>  <SMILES>  (7) 
CN(C)c1ccc2cc(C([NH-])=O)n(C(=O)OCC3CC3)c2c1

>  <Energy>  (7) 
342.83843480200187

>  <Genealogy>  (7) 
CN(C)c1ccc2cc(C([NH-])=O)n(C(=O)OCC3CC3)c2c1 (protonated)
CN(C)c1ccc2cc(C([NH-])=O)n(C(=O)OCC3CC3)c2c1 (3D coordinates assigned)
CN(C)c1ccc2cc(C([NH-])=O)n(C(=O)OCC3CC3)c2c1 (nonaromatic ring conformer: 342.83843480200187 kcal/mol)

>  <smiles>  (7) 
CN(C)c1ccc2cc(C(N)=O)n(C(=O)OCC3CC3)c2c1

>  <score_type>  (7) 
oracle

>  <origin>  (7) 
adg

>  <m_score__min__energy>  (7) 
-10.119999999999999

>  <m_primary>  (7) 
energy

$$$$
7:0
     RDKit          3D

 35 37  0  0  0  0  0  0  0  0999 V2000
   -4.1760   25.5230  -30.6190 N   0  0  0  0  0  0  0  0  0  0  0  0
   -5.5370   25.1110  -30.4840 C   0  0  0  0  0  0  0  0  0  0  0  0
   -6.3760   25.9110  -29.9910 O   0  0  0  0  0  0  0  0  0  0  0  0
   -5.9920   23.7870  -30.9580 C   0  0  0  0  0  0  0  0  0  0  0  0
   -7.3280   23.4650  -31.1880 C   0  0  0  0  0  0  0  0  0  0  0  0
   -7.3180   22.1590  -31.6210 C   0  0  0  0  0  0  0  0  0  0  0  0
   -8.3740   21.3220  -31.9650 C   0  0  0  0  0  0  0  0  0  0  0  0
   -8.0740   19.9980  -32.3250 C   0  0  0  0  0  0  0  0  0  0  0  0
   -6.7360   19.5280  -32.3230 C   0  0  0  0  0  0  0  0  0  0  0  0
   -6.4570   18.1230  -32.6940 C   0  0  0  0  0  0  0  0  0  0  0  0
   -5.7320   17.1840  -31.9880 C   0  0  0  0  0  0  0  0  0  0  0  0
   -5.7210   16.0310  -32.6840 N   0  0  0  0  0  0  0  0  0  0  0  0
   -6.4420   16.3140  -33.7870 C   0  0  0  0  0  0  0  0  0  0  0  0
   -6.8790   17.5530  -33.7970 O   0  0  0  0  0  0  0  0  0  0  0  0
   -5.6900   20.4100  -31.9590 C   0  0  0  0  0  0  0  0  0  0  0  0
   -6.0160   21.7310  -31.6330 C   0  0  0  0  0  0  0  0  0  0  0  0
   -5.1900   22.7220  -31.2350 N   0  0  0  0  0  0  0  0  0  0  0  0
   -3.7770   22.6150  -30.9970 C   0  0  0  0  0  0  0  0  0  0  0  0
   -2.9700   22.9520  -31.9030 O   0  0  0  0  0  0  0  0  0  0  0  0
   -3.2680   22.0770  -29.7190 C   0  0  0  0  0  0  0  0  0  0  0  0
   -3.1360   20.8320  -29.5750 O   0  0  0  0  0  0  0  0  0  0  0  0
   -2.8370   22.9900  -28.6090 C   0  0  0  0  0  0  0  0  0  0  0  0
   -1.8330   23.9740  -29.1170 C   0  0  0  0  0  0  0  0  0  0  0  0
   -0.6630   23.6000  -29.3930 O   0  0  0  0  0  0  0  0  0  0  0  0
   -2.2020   25.2950  -29.3350 O   0  0  0  0  0  0  0  0  0  0  0  0
   -3.5000   24.9820  -31.2010 H   0  0  0  0  0  0  0  0  0  0  0  0
   -3.8660   26.4370  -30.2220 H   0  0  0  0  0  0  0  0  0  0  0  0
   -8.2041   24.1162  -31.0523 H   0  0  0  0  0  0  0  0  0  0  0  0
   -9.4121   21.6857  -31.9554 H   0  0  0  0  0  0  0  0  0  0  0  0
   -8.8880   19.3163  -32.6124 H   0  0  0  0  0  0  0  0  0  0  0  0
   -5.2435   17.3502  -31.0165 H   0  0  0  0  0  0  0  0  0  0  0  0
   -6.6422   15.5886  -34.5893 H   0  0  0  0  0  0  0  0  0  0  0  0
   -4.6459   20.0649  -31.9331 H   0  0  0  0  0  0  0  0  0  0  0  0
   -3.7130   23.5306  -28.2212 H   0  0  0  0  0  0  0  0  0  0  0  0
   -2.3819   22.3919  -27.8057 H   0  0  0  0  0  0  0  0  0  0  0  0
  1  2  1  0
  2  3  2  0
  2  4  1  0
  4  5  2  0
  5  6  1  0
  6  7  2  0
  7  8  1  0
  8  9  2  0
  9 10  1  0
 10 11  2  0
 11 12  1  0
 12 13  2  0
 13 14  1  0
  9 15  1  0
 15 16  2  0
 16 17  1  0
 17 18  1  0
 18 19  2  0
 18 20  1  0
 20 21  2  0
 20 22  1  0
 22 23  1  0
 23 24  2  0
 23 25  1  0
 17  4  1  0
 16  6  1  0
 14 10  1  0
  1 26  1  0
  1 27  1  0
  5 28  1  0
  7 29  1  0
  8 30  1  0
 11 31  1  0
 13 32  1  0
 15 33  1  0
 22 34  1  0
 22 35  1  0
M  CHG  1  25  -1
M  END
>  <UniqueID>  (8) 
8

>  <SMILES>  (8) 
NC(=O)c1cc2ccc(-c3cnco3)cc2n1C(=O)C(=O)CC(=O)[O-]

>  <Energy>  (8) 
105.87118857860045

>  <Genealogy>  (8) 
NC(=O)c1cc2ccc(-c3cnco3)cc2n1C(=O)C(=O)CC(=O)[O-] (protonated)
NC(=O)c1cc2ccc(-c3cnco3)cc2n1C(=O)C(=O)CC(=O)[O-] (3D coordinates assigned)
NC(=O)c1cc2ccc(-c3cnco3)cc2n1C(=O)C(=O)CC(=O)[O-] (optimized conformer: 105.87118857860045 kcal/mol)

>  <smiles>  (8) 
NC(=O)c1cc2ccc(-c3cnco3)cc2n1C(=O)C(=O)CC(=O)O

>  <score_type>  (8) 
oracle

>  <origin>  (8) 
adg

>  <m_score__min__energy>  (8) 
-11.27

>  <m_primary>  (8) 
energy

$$$$
8:0
     RDKit          3D

 36 37  0  0  0  0  0  0  0  0999 V2000
   -3.4680   21.8650  -33.3930 C   0  0  0  0  0  0  0  0  0  0  0  0
   -3.1660   21.7450  -32.0960 C   0  0  0  0  0  0  0  0  0  0  0  0
   -2.1870   20.6850  -31.6640 C   0  0  0  0  0  0  0  0  0  0  0  0
   -3.8260   22.6060  -31.0830 C   0  0  0  0  0  0  0  0  0  0  0  0
   -3.1520   23.1090  -30.1420 O   0  0  0  0  0  0  0  0  0  0  0  0
   -5.2330   22.8750  -31.1530 N   0  0  0  0  0  0  0  0  0  0  0  0
   -5.8670   24.0570  -30.9200 C   0  0  0  0  0  0  0  0  0  0  0  0
   -5.2220   25.3010  -30.4540 C   0  0  0  0  0  0  0  0  0  0  0  0
   -3.8840   25.6000  -30.8500 N   0  0  0  0  0  0  0  0  0  0  0  0
   -5.8430   26.1140  -29.7200 O   0  0  0  0  0  0  0  0  0  0  0  0
   -7.2380   23.9260  -31.1410 C   0  0  0  0  0  0  0  0  0  0  0  0
   -7.4220   22.6160  -31.5260 C   0  0  0  0  0  0  0  0  0  0  0  0
   -8.5840   21.9410  -31.8900 C   0  0  0  0  0  0  0  0  0  0  0  0
   -8.4690   20.5930  -32.2710 C   0  0  0  0  0  0  0  0  0  0  0  0
   -7.2060   19.9500  -32.2840 C   0  0  0  0  0  0  0  0  0  0  0  0
   -7.0870   18.5170  -32.7350 C   0  0  0  0  0  0  0  0  0  0  0  0
   -5.6230   18.0710  -32.8350 C   0  0  0  0  0  0  0  0  0  0  0  0
   -5.0250   18.4340  -34.1600 C   0  0  0  0  0  0  0  0  0  0  0  0
   -3.8650   18.9220  -34.2180 O   0  0  0  0  0  0  0  0  0  0  0  0
   -5.7650   18.2750  -35.3240 O   0  0  0  0  0  0  0  0  0  0  0  0
   -6.0480   20.6710  -31.9190 C   0  0  0  0  0  0  0  0  0  0  0  0
   -6.1960   22.0050  -31.5280 C   0  0  0  0  0  0  0  0  0  0  0  0
   -4.1813   22.6347  -33.7227 H   0  0  0  0  0  0  0  0  0  0  0  0
   -3.0031   21.1940  -34.1303 H   0  0  0  0  0  0  0  0  0  0  0  0
   -2.1505   20.6455  -30.5653 H   0  0  0  0  0  0  0  0  0  0  0  0
   -2.5076   19.7083  -32.0556 H   0  0  0  0  0  0  0  0  0  0  0  0
   -1.1880   20.9271  -32.0556 H   0  0  0  0  0  0  0  0  0  0  0  0
   -3.0720   25.2860  -30.2750 H   0  0  0  0  0  0  0  0  0  0  0  0
   -8.0085   24.7034  -31.0312 H   0  0  0  0  0  0  0  0  0  0  0  0
   -9.5609   22.4465  -31.8797 H   0  0  0  0  0  0  0  0  0  0  0  0
   -9.3687   20.0311  -32.5622 H   0  0  0  0  0  0  0  0  0  0  0  0
   -7.6072   17.8718  -32.0118 H   0  0  0  0  0  0  0  0  0  0  0  0
   -7.5385   18.4346  -33.7347 H   0  0  0  0  0  0  0  0  0  0  0  0
   -5.0455   18.5601  -32.0367 H   0  0  0  0  0  0  0  0  0  0  0  0
   -5.5889   16.9765  -32.7304 H   0  0  0  0  0  0  0  0  0  0  0  0
   -5.0562   20.1958  -31.9417 H   0  0  0  0  0  0  0  0  0  0  0  0
  1  2  2  0
  2  3  1  0
  2  4  1  0
  4  5  2  0
  4  6  1  0
  6  7  1  0
  7  8  1  0
  8  9  1  0
  8 10  2  0
  7 11  2  0
 11 12  1  0
 12 13  2  0
 13 14  1  0
 14 15  2  0
 15 16  1  0
 16 17  1  0
 17 18  1  0
 18 19  2  0
 18 20  1  0
 15 21  1  0
 21 22  2  0
 22  6  1  0
 22 12  1  0
  1 23  1  0
  1 24  1  0
  3 25  1  0
  3 26  1  0
  3 27  1  0
  9 28  1  0
 11 29  1  0
 13 30  1  0
 14 31  1  0
 16 32  1  0
 16 33  1  0
 17 34  1  0
 17 35  1  0
 21 36  1  0
M  CHG  2   9  -1  20  -1
M  END
>  <UniqueID>  (9) 
9

>  <SMILES>  (9) 
C=C(C)C(=O)n1c(C([NH-])=O)cc2ccc(CCC(=O)[O-])cc21

>  <Energy>  (9) 
70.64507552532294

>  <Genealogy>  (9) 
C=C(C)C(=O)n1c(C([NH-])=O)cc2ccc(CCC(=O)[O-])cc21 (protonated)
C=C(C)C(=O)n1c(C([NH-])=O)cc2ccc(CCC(=O)[O-])cc21 (3D coordinates assigned)
C=C(C)C(=O)n1c(C([NH-])=O)cc2ccc(CCC(=O)[O-])cc21 (optimized conformer: 70.64507552532294 kcal/mol)

>  <smiles>  (9) 
C=C(C)C(=O)n1c(C(N)=O)cc2ccc(CCC(=O)O)cc21

>  <score_type>  (9) 
oracle

>  <origin>  (9) 
adg

>  <m_score__min__energy>  (9) 
-10.48

>  <m_primary>  (9) 
energy

$$$$
9:0
     RDKit          3D

 33 34  0  0  0  0  0  0  0  0999 V2000
   -5.8010   25.1870  -28.9690 N   0  0  0  0  0  0  0  0  0  0  0  0
   -5.3080   24.7040  -30.2190 C   0  0  0  0  0  0  0  0  0  0  0  0
   -4.4470   25.3800  -30.8420 O   0  0  0  0  0  0  0  0  0  0  0  0
   -5.8260   23.4440  -30.8000 C   0  0  0  0  0  0  0  0  0  0  0  0
   -7.1700   23.2180  -31.0910 C   0  0  0  0  0  0  0  0  0  0  0  0
   -7.2100   21.9840  -31.6980 C   0  0  0  0  0  0  0  0  0  0  0  0
   -8.2960   21.2590  -32.1780 C   0  0  0  0  0  0  0  0  0  0  0  0
   -8.0500   19.9920  -32.7300 C   0  0  0  0  0  0  0  0  0  0  0  0
   -6.7300   19.4770  -32.8060 C   0  0  0  0  0  0  0  0  0  0  0  0
   -6.4860   18.0900  -33.3440 C   0  0  0  0  0  0  0  0  0  0  0  0
   -5.4040   17.5030  -32.7110 F   0  0  0  0  0  0  0  0  0  0  0  0
   -7.6100   17.3130  -33.1280 F   0  0  0  0  0  0  0  0  0  0  0  0
   -6.2210   18.1320  -34.7020 F   0  0  0  0  0  0  0  0  0  0  0  0
   -5.6550   20.2350  -32.2850 C   0  0  0  0  0  0  0  0  0  0  0  0
   -5.9280   21.5040  -31.7580 C   0  0  0  0  0  0  0  0  0  0  0  0
   -5.0650   22.3880  -31.2090 N   0  0  0  0  0  0  0  0  0  0  0  0
   -3.6490   22.2080  -31.0450 C   0  0  0  0  0  0  0  0  0  0  0  0
   -3.1160   21.1020  -31.3360 O   0  0  0  0  0  0  0  0  0  0  0  0
   -2.8640   23.2670  -30.5800 O   0  0  0  0  0  0  0  0  0  0  0  0
   -1.6070   23.0720  -29.9410 C   0  0  0  0  0  0  0  0  0  0  0  0
   -1.3200   24.2410  -29.0090 C   0  0  0  0  0  0  0  0  0  0  0  0
   -2.2050   25.2920  -29.2800 O   0  0  0  0  0  0  0  0  0  0  0  0
   -6.4740   24.6290  -28.3980 H   0  0  0  0  0  0  0  0  0  0  0  0
   -5.4590   26.0970  -28.5880 H   0  0  0  0  0  0  0  0  0  0  0  0
   -8.0190   23.8849  -30.8801 H   0  0  0  0  0  0  0  0  0  0  0  0
   -9.3165   21.6663  -32.1265 H   0  0  0  0  0  0  0  0  0  0  0  0
   -8.8904   19.3913  -33.1081 H   0  0  0  0  0  0  0  0  0  0  0  0
   -4.6294   19.8375  -32.2935 H   0  0  0  0  0  0  0  0  0  0  0  0
   -1.6329   22.1385  -29.3598 H   0  0  0  0  0  0  0  0  0  0  0  0
   -0.8160   23.0101  -30.7029 H   0  0  0  0  0  0  0  0  0  0  0  0
   -1.4473   23.9161  -27.9658 H   0  0  0  0  0  0  0  0  0  0  0  0
   -0.2874   24.5859  -29.1663 H   0  0  0  0  0  0  0  0  0  0  0  0
   -3.1170   24.9080  -29.2100 H   0  0  0  0  0  0  0  0  0  0  0  0
  1  2  1  0
  2  3  2  0
  2  4  1  0
  4  5  2  0
  5  6  1  0
  6  7  2  0
  7  8  1  0
  8  9  2  0
  9 10  1  0
 10 11  1  0
 10 12  1  0
 10 13  1  0
  9 14  1  0
 14 15  2  0
 15 16  1  0
 16 17  1  0
 17 18  2  0
 17 19  1  0
 19 20  1  0
 20 21  1  0
 21 22  1  0
 16  4  1  0
 15  6  1  0
  1 23  1  0
  1 24  1  0
  5 25  1  0
  7 26  1  0
  8 27  1  0
 14 28  1  0
 20 29  1  0
 20 30  1  0
 21 31  1  0
 21 32  1  0
 22 33  1  0
M  END
>  <UniqueID>  (10) 
10

>  <SMILES>  (10) 
NC(=O)c1cc2ccc(C(F)(F)F)cc2n1C(=O)OCCO

>  <Energy>  (10) 
67.15488617272719

>  <Genealogy>  (10) 
NC(=O)c1cc2ccc(C(F)(F)F)cc2n1C(=O)OCCO (3D coordinates assigned)
NC(=O)c1cc2ccc(C(F)(F)F)cc2n1C(=O)OCCO (optimized conformer: 67.15488617272719 kcal/mol)

>  <smiles>  (10) 
NC(=O)c1cc2ccc(C(F)(F)F)cc2n1C(=O)OCCO

>  <score_type>  (10) 
oracle

>  <origin>  (10) 
adg

>  <m_score__min__energy>  (10) 
-7.8700000000000001

>  <m_primary>  (10) 
energy

$$$$
10:0
     RDKit          3D

 35 36  0  0  0  0  0  0  0  0999 V2000
   -4.1580   23.1310  -27.9470 C   0  0  0  0  0  0  0  0  0  0  0  0
   -3.3880   22.3640  -28.8650 O   0  0  0  0  0  0  0  0  0  0  0  0
   -2.8920   22.8960  -30.0590 C   0  0  0  0  0  0  0  0  0  0  0  0
   -1.8080   23.5390  -30.0730 O   0  0  0  0  0  0  0  0  0  0  0  0
   -3.6530   22.7120  -31.3030 C   0  0  0  0  0  0  0  0  0  0  0  0
   -3.0560   22.3330  -32.3460 O   0  0  0  0  0  0  0  0  0  0  0  0
   -5.0750   22.9120  -31.3340 N   0  0  0  0  0  0  0  0  0  0  0  0
   -5.7780   24.0080  -30.9350 C   0  0  0  0  0  0  0  0  0  0  0  0
   -5.1970   25.2870  -30.4770 C   0  0  0  0  0  0  0  0  0  0  0  0
   -3.8690   25.6420  -30.8590 N   0  0  0  0  0  0  0  0  0  0  0  0
   -5.8510   26.0610  -29.7300 O   0  0  0  0  0  0  0  0  0  0  0  0
   -7.1470   23.7890  -31.0880 C   0  0  0  0  0  0  0  0  0  0  0  0
   -7.2560   22.5200  -31.6080 C   0  0  0  0  0  0  0  0  0  0  0  0
   -8.3850   21.7880  -31.9580 C   0  0  0  0  0  0  0  0  0  0  0  0
   -8.2010   20.4910  -32.4630 C   0  0  0  0  0  0  0  0  0  0  0  0
   -6.8970   19.9350  -32.6110 C   0  0  0  0  0  0  0  0  0  0  0  0
   -6.7170   18.5900  -33.1280 N   0  0  0  0  0  0  0  0  0  0  0  0
   -6.0240   18.3660  -34.4010 C   0  0  0  0  0  0  0  0  0  0  0  0
   -7.2280   17.4300  -32.3850 C   0  0  0  0  0  0  0  0  0  0  0  0
   -5.7750   20.7230  -32.2390 C   0  0  0  0  0  0  0  0  0  0  0  0
   -5.9930   22.0130  -31.7490 C   0  0  0  0  0  0  0  0  0  0  0  0
   -3.8823   22.8564  -26.9181 H   0  0  0  0  0  0  0  0  0  0  0  0
   -3.9597   24.2011  -28.1065 H   0  0  0  0  0  0  0  0  0  0  0  0
   -5.2274   22.9285  -28.1065 H   0  0  0  0  0  0  0  0  0  0  0  0
   -3.0450   25.2930  -30.3220 H   0  0  0  0  0  0  0  0  0  0  0  0
   -7.9651   24.4830  -30.8447 H   0  0  0  0  0  0  0  0  0  0  0  0
   -9.3931   22.2127  -31.8426 H   0  0  0  0  0  0  0  0  0  0  0  0
   -9.0788   19.8933  -32.7495 H   0  0  0  0  0  0  0  0  0  0  0  0
   -4.9942   18.0331  -34.2043 H   0  0  0  0  0  0  0  0  0  0  0  0
   -6.5553   17.5938  -34.9768 H   0  0  0  0  0  0  0  0  0  0  0  0
   -6.0028   19.3030  -34.9768 H   0  0  0  0  0  0  0  0  0  0  0  0
   -7.1441   17.6205  -31.3049 H   0  0  0  0  0  0  0  0  0  0  0  0
   -8.2832   17.2626  -32.6469 H   0  0  0  0  0  0  0  0  0  0  0  0
   -6.6393   16.5385  -32.6469 H   0  0  0  0  0  0  0  0  0  0  0  0
   -4.7540   20.3250  -32.3349 H   0  0  0  0  0  0  0  0  0  0  0  0
  1  2  1  0
  2  3  1  0
  3  4  2  0
  3  5  1  0
  5  6  2  0
  5  7  1  0
  7  8  1  0
  8  9  1  0
  9 10  1  0
  9 11  2  0
  8 12  2  0
 12 13  1  0
 13 14  2  0
 14 15  1  0
 15 16  2  0
 16 17  1  0
 17 18  1  0
 17 19  1  0
 16 20  1  0
 20 21  2  0
 21  7  1  0
 21 13  1  0
  1 22  1  0
  1 23  1  0
  1 24  1  0
 10 25  1  0
 12 26  1  0
 14 27  1  0
 15 28  1  0
 18 29  1  0
 18 30  1  0
 18 31  1  0
 19 32  1  0
 19 33  1  0
 19 34  1  0
 20 35  1  0
M  CHG  1  10  -1
M  END
>  <UniqueID>  (11) 
11

>  <SMILES>  (11) 
COC(=O)C(=O)n1c(C([NH-])=O)cc2ccc(N(C)C)cc21

>  <Energy>  (11) 
73.31815910193201

>  <Genealogy>  (11) 
COC(=O)C(=O)n1c(C([NH-])=O)cc2ccc(N(C)C)cc21 (protonated)
COC(=O)C(=O)n1c(C([NH-])=O)cc2ccc(N(C)C)cc21 (3D coordinates assigned)
COC(=O)C(=O)n1c(C([NH-])=O)cc2ccc(N(C)C)cc21 (optimized conformer: 73.31815910193201 kcal/mol)

>  <smiles>  (11) 
COC(=O)C(=O)n1c(C(N)=O)cc2ccc(N(C)C)cc21

>  <score_type>  (11) 
oracle

>  <origin>  (11) 
adg

>  <m_score__min__energy>  (11) 
-9.0899999999999999

>  <m_primary>  (11) 
energy

$$$$
11:0
     RDKit          3D

 30 31  0  0  0  0  0  0  0  0999 V2000
   -3.8570   25.3860  -30.8460 N   0  0  0  0  0  0  0  0  0  0  0  0
   -5.1970   25.1430  -30.4270 C   0  0  0  0  0  0  0  0  0  0  0  0
   -5.8110   26.0320  -29.7780 O   0  0  0  0  0  0  0  0  0  0  0  0
   -5.8930   23.8900  -30.7890 C   0  0  0  0  0  0  0  0  0  0  0  0
   -7.2500   23.8290  -31.0970 C   0  0  0  0  0  0  0  0  0  0  0  0
   -7.4840   22.5240  -31.4630 C   0  0  0  0  0  0  0  0  0  0  0  0
   -8.6620   21.9050  -31.8690 C   0  0  0  0  0  0  0  0  0  0  0  0
   -8.6160   20.5340  -32.1680 C   0  0  0  0  0  0  0  0  0  0  0  0
   -7.4100   19.8010  -32.0330 C   0  0  0  0  0  0  0  0  0  0  0  0
   -7.3660   18.3370  -32.3920 C   0  0  0  0  0  0  0  0  0  0  0  0
   -8.6230   17.7680  -32.2830 F   0  0  0  0  0  0  0  0  0  0  0  0
   -6.5000   17.6840  -31.5340 F   0  0  0  0  0  0  0  0  0  0  0  0
   -6.9250   18.1660  -33.6930 F   0  0  0  0  0  0  0  0  0  0  0  0
   -6.2280   20.4710  -31.6390 C   0  0  0  0  0  0  0  0  0  0  0  0
   -6.2980   21.8420  -31.3650 C   0  0  0  0  0  0  0  0  0  0  0  0
   -5.3110   22.6670  -30.9500 N   0  0  0  0  0  0  0  0  0  0  0  0
   -3.9560   22.2890  -30.6620 C   0  0  0  0  0  0  0  0  0  0  0  0
   -3.1680   22.0190  -31.6090 O   0  0  0  0  0  0  0  0  0  0  0  0
   -3.5200   22.2470  -29.3300 O   0  0  0  0  0  0  0  0  0  0  0  0
   -2.2870   22.7250  -28.8700 C   0  0  0  0  0  0  0  0  0  0  0  0
   -1.7350   22.2200  -27.8530 O   0  0  0  0  0  0  0  0  0  0  0  0
   -1.6800   23.7780  -29.5670 O   0  0  0  0  0  0  0  0  0  0  0  0
   -0.9350   24.8070  -28.9780 C   0  0  0  0  0  0  0  0  0  0  0  0
    0.2010   24.5920  -28.4750 O   0  0  0  0  0  0  0  0  0  0  0  0
   -1.4590   26.0920  -28.9470 O   0  0  0  0  0  0  0  0  0  0  0  0
   -3.0620   25.3100  -30.1740 H   0  0  0  0  0  0  0  0  0  0  0  0
   -7.9801   24.6507  -31.0562 H   0  0  0  0  0  0  0  0  0  0  0  0
   -9.6006   22.4724  -31.9532 H   0  0  0  0  0  0  0  0  0  0  0  0
   -9.5271   20.0221  -32.5113 H   0  0  0  0  0  0  0  0  0  0  0  0
   -5.2759   19.9272  -31.5500 H   0  0  0  0  0  0  0  0  0  0  0  0
  1  2  1  0
  2  3  2  0
  2  4  1  0
  4  5  2  0
  5  6  1  0
  6  7  2  0
  7  8  1  0
  8  9  2  0
  9 10  1  0
 10 11  1  0
 10 12  1  0
 10 13  1  0
  9 14  1  0
 14 15  2  0
 15 16  1  0
 16 17  1  0
 17 18  2  0
 17 19  1  0
 19 20  1  0
 20 21  2  0
 20 22  1  0
 22 23  1  0
 23 24  2  0
 23 25  1  0
 16  4  1  0
 15  6  1  0
  1 26  1  0
  5 27  1  0
  7 28  1  0
  8 29  1  0
 14 30  1  0
M  CHG  2   1  -1  25  -1
M  END
>  <UniqueID>  (12) 
12

>  <SMILES>  (12) 
[NH-]C(=O)c1cc2ccc(C(F)(F)F)cc2n1C(=O)OC(=O)OC(=O)[O-]

>  <Energy>  (12) 
72.75519785051168

>  <Genealogy>  (12) 
[NH-]C(=O)c1cc2ccc(C(F)(F)F)cc2n1C(=O)OC(=O)OC(=O)[O-] (protonated)
[NH-]C(=O)c1cc2ccc(C(F)(F)F)cc2n1C(=O)OC(=O)OC(=O)[O-] (3D coordinates assigned)
[NH-]C(=O)c1cc2ccc(C(F)(F)F)cc2n1C(=O)OC(=O)OC(=O)[O-] (optimized conformer: 72.75519785051168 kcal/mol)

>  <smiles>  (12) 
NC(=O)c1cc2ccc(C(F)(F)F)cc2n1C(=O)OC(=O)OC(=O)O

>  <score_type>  (12) 
oracle

>  <origin>  (12) 
adg

>  <m_score__min__energy>  (12) 
-11.220000000000001

>  <m_primary>  (12) 
energy

$$$$
12:0
     RDKit          3D

 35 36  0  0  0  0  0  0  0  0999 V2000
   -1.6590   22.3030  -30.8030 C   0  0  0  0  0  0  0  0  0  0  0  0
   -2.9000   23.0850  -30.6350 N   0  0  2  0  0  0  0  0  0  0  0  0
   -3.3820   23.0890  -29.2350 C   0  0  0  0  0  0  0  0  0  0  0  0
   -2.8850   24.2570  -28.4250 C   0  0  0  0  0  0  0  0  0  0  0  0
   -3.0840   24.2960  -27.1820 O   0  0  0  0  0  0  0  0  0  0  0  0
   -2.2070   25.2990  -29.0420 O   0  0  0  0  0  0  0  0  0  0  0  0
   -3.9410   22.6530  -31.5470 C   0  0  0  0  0  0  0  0  0  0  0  0
   -3.6570   21.9420  -32.5510 O   0  0  0  0  0  0  0  0  0  0  0  0
   -5.3220   22.9190  -31.2460 N   0  0  0  0  0  0  0  0  0  0  0  0
   -5.8700   24.0600  -30.7410 C   0  0  0  0  0  0  0  0  0  0  0  0
   -5.1840   25.3590  -30.5990 C   0  0  0  0  0  0  0  0  0  0  0  0
   -3.8660   25.5470  -31.1070 N   0  0  0  0  0  0  0  0  0  0  0  0
   -5.7870   26.3300  -30.0690 O   0  0  0  0  0  0  0  0  0  0  0  0
   -7.2210   23.8730  -30.4610 C   0  0  0  0  0  0  0  0  0  0  0  0
   -7.4920   22.5750  -30.8280 C   0  0  0  0  0  0  0  0  0  0  0  0
   -8.6850   21.8610  -30.7800 C   0  0  0  0  0  0  0  0  0  0  0  0
   -8.6730   20.5280  -31.2240 C   0  0  0  0  0  0  0  0  0  0  0  0
   -7.4740   19.9290  -31.6900 C   0  0  0  0  0  0  0  0  0  0  0  0
   -7.4830   18.5130  -32.2090 C   0  0  0  0  0  0  0  0  0  0  0  0
   -8.7670   18.0080  -32.1320 F   0  0  0  0  0  0  0  0  0  0  0  0
   -7.0610   18.4740  -33.5270 F   0  0  0  0  0  0  0  0  0  0  0  0
   -6.6370   17.7130  -31.4600 F   0  0  0  0  0  0  0  0  0  0  0  0
   -6.2890   20.6980  -31.7480 C   0  0  0  0  0  0  0  0  0  0  0  0
   -6.3320   22.0230  -31.3030 C   0  0  0  0  0  0  0  0  0  0  0  0
   -1.2510   22.0459  -29.8144 H   0  0  0  0  0  0  0  0  0  0  0  0
   -1.8795   21.3804  -31.3599 H   0  0  0  0  0  0  0  0  0  0  0  0
   -0.9219   22.9001  -31.3599 H   0  0  0  0  0  0  0  0  0  0  0  0
   -2.6600   24.0760  -30.8660 H   0  0  0  0  0  0  0  0  0  0  0  0
   -4.4816   23.1178  -29.2468 H   0  0  0  0  0  0  0  0  0  0  0  0
   -2.9900   22.1784  -28.7584 H   0  0  0  0  0  0  0  0  0  0  0  0
   -3.0290   25.2970  -30.5350 H   0  0  0  0  0  0  0  0  0  0  0  0
   -7.9222   24.6067  -30.0368 H   0  0  0  0  0  0  0  0  0  0  0  0
   -9.6092   22.3257  -30.4060 H   0  0  0  0  0  0  0  0  0  0  0  0
   -9.6038   19.9420  -31.2102 H   0  0  0  0  0  0  0  0  0  0  0  0
   -5.3549   20.2641  -32.1342 H   0  0  0  0  0  0  0  0  0  0  0  0
  1  2  1  0
  2  3  1  0
  3  4  1  0
  4  5  2  0
  4  6  1  0
  2  7  1  0
  7  8  2  0
  7  9  1  0
  9 10  1  0
 10 11  1  0
 11 12  1  0
 11 13  2  0
 10 14  2  0
 14 15  1  0
 15 16  2  0
 16 17  1  0
 17 18  2  0
 18 19  1  0
 19 20  1  0
 19 21  1  0
 19 22  1  0
 18 23  1  0
 23 24  2  0
 24  9  1  0
 24 15  1  0
  1 25  1  0
  1 26  1  0
  1 27  1  0
  2 28  1  6
  3 29  1  0
  3 30  1  0
 12 31  1  0
 14 32  1  0
 16 33  1  0
 17 34  1  0
 23 35  1  0
M  CHG  3   2   1   6  -1  12  -1
M  END
>  <UniqueID>  (13) 
13

>  <SMILES>  (13) 
C[N@H+](CC(=O)[O-])C(=O)n1c(C([NH-])=O)cc2ccc(C(F)(F)F)cc21

>  <Energy>  (13) 
79.68219832721597

>  <Genealogy>  (13) 
C[NH+](CC(=O)[O-])C(=O)n1c(C([NH-])=O)cc2ccc(C(F)(F)F)cc21 (protonated)
C[N@H+](CC(=O)[O-])C(=O)n1c(C([NH-])=O)cc2ccc(C(F)(F)F)cc21 (chirality)
C[N@H+](CC(=O)[O-])C(=O)n1c(C([NH-])=O)cc2ccc(C(F)(F)F)cc21 (3D coordinates assigned)
C[N@H+](CC(=O)[O-])C(=O)n1c(C([NH-])=O)cc2ccc(C(F)(F)F)cc21 (optimized conformer: 79.68219832721597 kcal/mol)

>  <smiles>  (13) 
CN(CC(=O)O)C(=O)n1c(C(N)=O)cc2ccc(C(F)(F)F)cc21

>  <score_type>  (13) 
oracle

>  <origin>  (13) 
adg

>  <m_score__min__energy>  (13) 
-10.1

>  <m_primary>  (13) 
energy

$$$$
13:0
     RDKit          3D

 48 49  0  0  0  0  0  0  0  0999 V2000
   -3.1720   18.9950  -26.4050 C   0  0  0  0  0  0  0  0  0  0  0  0
   -1.7980   19.4880  -26.8280 C   0  0  0  0  0  0  0  0  0  0  0  0
   -1.9190   20.7840  -27.3710 O   0  0  0  0  0  0  0  0  0  0  0  0
   -1.0790   21.6970  -26.6920 C   0  0  0  0  0  0  0  0  0  0  0  0
    0.2120   21.9310  -27.4880 C   0  0  0  0  0  0  0  0  0  0  0  0
    0.2410   23.2700  -28.1000 N   0  0  0  0  0  0  0  0  0  0  0  0
    1.2480   24.2350  -27.6470 C   0  0  0  0  0  0  0  0  0  0  0  0
   -0.8090   23.7370  -28.9780 C   0  0  0  0  0  0  0  0  0  0  0  0
   -1.0510   24.9740  -29.0390 O   0  0  0  0  0  0  0  0  0  0  0  0
   -1.5970   22.8260  -29.8390 C   0  0  0  0  0  0  0  0  0  0  0  0
   -1.0460   21.8280  -30.3740 O   0  0  0  0  0  0  0  0  0  0  0  0
   -2.9870   23.1010  -30.0960 N   0  0  0  0  0  0  0  0  0  0  0  0
   -3.8170   22.3010  -30.9550 C   0  0  0  0  0  0  0  0  0  0  0  0
   -3.3250   21.3510  -31.6200 O   0  0  0  0  0  0  0  0  0  0  0  0
   -5.2120   22.6130  -31.0960 N   0  0  0  0  0  0  0  0  0  0  0  0
   -5.8210   23.8230  -30.9540 C   0  0  0  0  0  0  0  0  0  0  0  0
   -5.1840   25.0630  -30.4640 C   0  0  0  0  0  0  0  0  0  0  0  0
   -3.8620   25.4150  -30.8620 N   0  0  0  0  0  0  0  0  0  0  0  0
   -5.8000   25.8020  -29.6490 O   0  0  0  0  0  0  0  0  0  0  0  0
   -7.1780   23.7250  -31.2550 C   0  0  0  0  0  0  0  0  0  0  0  0
   -7.3850   22.4020  -31.5760 C   0  0  0  0  0  0  0  0  0  0  0  0
   -8.5470   21.7440  -31.9660 C   0  0  0  0  0  0  0  0  0  0  0  0
   -8.4640   20.3720  -32.2570 C   0  0  0  0  0  0  0  0  0  0  0  0
   -7.2290   19.6800  -32.1460 C   0  0  0  0  0  0  0  0  0  0  0  0
   -7.1380   18.2200  -32.5140 C   0  0  0  0  0  0  0  0  0  0  0  0
   -6.1950   17.5740  -31.7330 F   0  0  0  0  0  0  0  0  0  0  0  0
   -8.3700   17.6240  -32.3170 F   0  0  0  0  0  0  0  0  0  0  0  0
   -6.7730   18.0760  -33.8410 F   0  0  0  0  0  0  0  0  0  0  0  0
   -6.0650   20.3920  -31.7720 C   0  0  0  0  0  0  0  0  0  0  0  0
   -6.1830   21.7530  -31.4710 C   0  0  0  0  0  0  0  0  0  0  0  0
   -3.2318   18.9735  -25.3068 H   0  0  0  0  0  0  0  0  0  0  0  0
   -3.9427   19.6727  -26.8010 H   0  0  0  0  0  0  0  0  0  0  0  0
   -3.3360   17.9819  -26.8010 H   0  0  0  0  0  0  0  0  0  0  0  0
   -1.1315   19.5160  -25.9534 H   0  0  0  0  0  0  0  0  0  0  0  0
   -1.3769   18.8080  -27.5831 H   0  0  0  0  0  0  0  0  0  0  0  0
   -1.6077   22.6538  -26.5698 H   0  0  0  0  0  0  0  0  0  0  0  0
   -0.8203   21.2793  -25.7078 H   0  0  0  0  0  0  0  0  0  0  0  0
    1.0720   21.8308  -26.8095 H   0  0  0  0  0  0  0  0  0  0  0  0
    0.2566   21.1848  -28.2950 H   0  0  0  0  0  0  0  0  0  0  0  0
    1.2685   24.2546  -26.5474 H   0  0  0  0  0  0  0  0  0  0  0  0
    2.2369   23.9387  -28.0269 H   0  0  0  0  0  0  0  0  0  0  0  0
    0.9940   25.2356  -28.0269 H   0  0  0  0  0  0  0  0  0  0  0  0
   -3.4280   23.9330  -29.6420 H   0  0  0  0  0  0  0  0  0  0  0  0
   -3.0560   25.2890  -30.2110 H   0  0  0  0  0  0  0  0  0  0  0  0
   -7.9248   24.5325  -31.2395 H   0  0  0  0  0  0  0  0  0  0  0  0
   -9.5031   22.2823  -32.0443 H   0  0  0  0  0  0  0  0  0  0  0  0
   -9.3657   19.8278  -32.5744 H   0  0  0  0  0  0  0  0  0  0  0  0
   -5.0893   19.8868  -31.7191 H   0  0  0  0  0  0  0  0  0  0  0  0
  1  2  1  0
  2  3  1  0
  3  4  1  0
  4  5  1  0
  5  6  1  0
  6  7  1  0
  6  8  1  0
  8  9  2  0
  8 10  1  0
 10 11  2  0
 10 12  1  0
 12 13  1  0
 13 14  2  0
 13 15  1  0
 15 16  1  0
 16 17  1  0
 17 18  1  0
 17 19  2  0
 16 20  2  0
 20 21  1  0
 21 22  2  0
 22 23  1  0
 23 24  2  0
 24 25  1  0
 25 26  1  0
 25 27  1  0
 25 28  1  0
 24 29  1  0
 29 30  2  0
 30 15  1  0
 30 21  1  0
  1 31  1  0
  1 32  1  0
  1 33  1  0
  2 34  1  0
  2 35  1  0
  4 36  1  0
  4 37  1  0
  5 38  1  0
  5 39  1  0
  7 40  1  0
  7 41  1  0
  7 42  1  0
 12 43  1  0
 18 44  1  0
 20 45  1  0
 22 46  1  0
 23 47  1  0
 29 48  1  0
M  CHG  1  18  -1
M  END
>  <UniqueID>  (14) 
14

>  <SMILES>  (14) 
CCOCCN(C)C(=O)C(=O)NC(=O)n1c(C([NH-])=O)cc2ccc(C(F)(F)F)cc21

>  <Energy>  (14) 
86.9430525011631

>  <Genealogy>  (14) 
CCOCCN(C)C(=O)C(=O)NC(=O)n1c(C([NH-])=O)cc2ccc(C(F)(F)F)cc21 (protonated)
CCOCCN(C)C(=O)C(=O)NC(=O)n1c(C([NH-])=O)cc2ccc(C(F)(F)F)cc21 (3D coordinates assigned)
CCOCCN(C)C(=O)C(=O)NC(=O)n1c(C([NH-])=O)cc2ccc(C(F)(F)F)cc21 (optimized conformer: 86.9430525011631 kcal/mol)

>  <smiles>  (14) 
CCOCCN(C)C(=O)C(=O)NC(=O)n1c(C(N)=O)cc2ccc(C(F)(F)F)cc21

>  <score_type>  (14) 
oracle

>  <origin>  (14) 
adg

>  <m_score__min__energy>  (14) 
-10.67

>  <m_primary>  (14) 
energy

$$$$
14:0
     RDKit          3D

 38 39  0  0  0  0  0  0  0  0999 V2000
   -3.4600   20.6430  -29.5150 C   0  0  0  0  0  0  0  0  0  0  0  0
   -3.0110   21.7620  -30.0970 C   0  0  0  0  0  0  0  0  0  0  0  0
   -1.7280   22.3910  -29.6010 C   0  0  0  0  0  0  0  0  0  0  0  0
   -1.7020   23.7920  -29.8710 O   0  0  0  0  0  0  0  0  0  0  0  0
   -0.9290   24.7020  -29.1390 C   0  0  0  0  0  0  0  0  0  0  0  0
    0.1760   24.3550  -28.6470 O   0  0  0  0  0  0  0  0  0  0  0  0
   -1.3920   26.0390  -28.9460 N   0  0  0  0  0  0  0  0  0  0  0  0
   -0.8840   26.8930  -27.8850 C   0  0  0  0  0  0  0  0  0  0  0  0
   -3.7810   22.3930  -31.2010 C   0  0  0  0  0  0  0  0  0  0  0  0
   -3.1900   22.7950  -32.2410 O   0  0  0  0  0  0  0  0  0  0  0  0
   -5.2010   22.5760  -31.0980 N   0  0  0  0  0  0  0  0  0  0  0  0
   -5.8620   23.6330  -30.5470 C   0  0  0  0  0  0  0  0  0  0  0  0
   -5.2150   24.7790  -29.8630 C   0  0  0  0  0  0  0  0  0  0  0  0
   -3.9060   25.2190  -30.2330 N   0  0  0  0  0  0  0  0  0  0  0  0
   -5.8240   25.3940  -28.9490 O   0  0  0  0  0  0  0  0  0  0  0  0
   -7.2410   23.4570  -30.6780 C   0  0  0  0  0  0  0  0  0  0  0  0
   -7.3980   22.2620  -31.3450 C   0  0  0  0  0  0  0  0  0  0  0  0
   -8.5550   21.6080  -31.7580 C   0  0  0  0  0  0  0  0  0  0  0  0
   -8.4120   20.3960  -32.4560 C   0  0  0  0  0  0  0  0  0  0  0  0
   -7.1260   19.8700  -32.7330 C   0  0  0  0  0  0  0  0  0  0  0  0
   -6.9940   18.6420  -33.4510 N   0  0  0  0  0  0  0  0  0  0  0  0
   -5.9750   20.5630  -32.3010 C   0  0  0  0  0  0  0  0  0  0  0  0
   -6.1490   21.7550  -31.5920 C   0  0  0  0  0  0  0  0  0  0  0  0
   -4.3918   20.1759  -29.8666 H   0  0  0  0  0  0  0  0  0  0  0  0
   -2.8971   20.1907  -28.6852 H   0  0  0  0  0  0  0  0  0  0  0  0
   -1.6474   22.2333  -28.5154 H   0  0  0  0  0  0  0  0  0  0  0  0
   -0.8836   21.9196  -30.1252 H   0  0  0  0  0  0  0  0  0  0  0  0
   -1.1428   26.4578  -26.9085 H   0  0  0  0  0  0  0  0  0  0  0  0
    0.2095   26.9745  -27.9718 H   0  0  0  0  0  0  0  0  0  0  0  0
   -1.3343   27.8929  -27.9718 H   0  0  0  0  0  0  0  0  0  0  0  0
   -3.4820   26.0480  -29.7620 H   0  0  0  0  0  0  0  0  0  0  0  0
   -3.3360   24.7160  -30.9480 H   0  0  0  0  0  0  0  0  0  0  0  0
   -8.0348   24.1308  -30.3233 H   0  0  0  0  0  0  0  0  0  0  0  0
   -9.5499   22.0261  -31.5450 H   0  0  0  0  0  0  0  0  0  0  0  0
   -9.3071   19.8509  -32.7902 H   0  0  0  0  0  0  0  0  0  0  0  0
   -7.1290   18.6110  -34.4870 H   0  0  0  0  0  0  0  0  0  0  0  0
   -6.7600   17.7540  -32.9540 H   0  0  0  0  0  0  0  0  0  0  0  0
   -4.9683   20.1756  -32.5164 H   0  0  0  0  0  0  0  0  0  0  0  0
  1  2  2  0
  2  3  1  0
  3  4  1  0
  4  5  1  0
  5  6  2  0
  5  7  1  0
  7  8  1  0
  2  9  1  0
  9 10  2  0
  9 11  1  0
 11 12  1  0
 12 13  1  0
 13 14  1  0
 13 15  2  0
 12 16  2  0
 16 17  1  0
 17 18  2  0
 18 19  1  0
 19 20  2  0
 20 21  1  0
 20 22  1  0
 22 23  2  0
 23 11  1  0
 23 17  1  0
  1 24  1  0
  1 25  1  0
  3 26  1  0
  3 27  1  0
  8 28  1  0
  8 29  1  0
  8 30  1  0
 14 31  1  0
 14 32  1  0
 16 33  1  0
 18 34  1  0
 19 35  1  0
 21 36  1  0
 21 37  1  0
 22 38  1  0
M  CHG  1   7  -1
M  END
>  <UniqueID>  (15) 
15

>  <SMILES>  (15) 
C=C(COC(=O)[N-]C)C(=O)n1c(C(N)=O)cc2ccc(N)cc21

>  <Energy>  (15) 
69.51203341059794

>  <Genealogy>  (15) 
C=C(COC(=O)[N-]C)C(=O)n1c(C(N)=O)cc2ccc(N)cc21 (protonated)
C=C(COC(=O)[N-]C)C(=O)n1c(C(N)=O)cc2ccc(N)cc21 (3D coordinates assigned)
C=C(COC(=O)[N-]C)C(=O)n1c(C(N)=O)cc2ccc(N)cc21 (optimized conformer: 69.51203341059794 kcal/mol)

>  <smiles>  (15) 
C=C(COC(=O)NC)C(=O)n1c(C(N)=O)cc2ccc(N)cc21

>  <score_type>  (15) 
oracle

>  <origin>  (15) 
adg

>  <m_score__min__energy>  (15) 
-9.2899999999999991

>  <m_primary>  (15) 
energy

$$$$
15:0
     RDKit          3D

 44 45  0  0  0  0  0  0  0  0999 V2000
   -3.9320   24.1040  -27.0390 C   0  0  0  0  0  0  0  0  0  0  0  0
   -2.9690   23.4370  -27.6860 C   0  0  0  0  0  0  0  0  0  0  0  0
   -1.9170   22.7000  -26.9030 C   0  0  0  0  0  0  0  0  0  0  0  0
   -2.8840   23.4860  -29.1630 C   0  0  0  0  0  0  0  0  0  0  0  0
   -2.2770   24.4410  -29.7200 O   0  0  0  0  0  0  0  0  0  0  0  0
   -3.4760   22.4710  -29.9290 O   0  0  0  0  0  0  0  0  0  0  0  0
   -4.1230   22.6560  -31.1590 C   0  0  0  0  0  0  0  0  0  0  0  0
   -3.4680   22.6600  -32.2360 O   0  0  0  0  0  0  0  0  0  0  0  0
   -5.5440   22.8630  -31.1860 N   0  0  0  0  0  0  0  0  0  0  0  0
   -6.2370   23.9510  -30.7430 C   0  0  0  0  0  0  0  0  0  0  0  0
   -5.6380   25.2170  -30.2640 C   0  0  0  0  0  0  0  0  0  0  0  0
   -4.2880   25.5540  -30.5890 N   0  0  0  0  0  0  0  0  0  0  0  0
   -6.3060   25.9970  -29.5360 O   0  0  0  0  0  0  0  0  0  0  0  0
   -7.6080   23.7500  -30.8930 C   0  0  0  0  0  0  0  0  0  0  0  0
   -7.7350   22.4980  -31.4490 C   0  0  0  0  0  0  0  0  0  0  0  0
   -8.8770   21.7900  -31.8060 C   0  0  0  0  0  0  0  0  0  0  0  0
   -8.7150   20.5020  -32.3410 C   0  0  0  0  0  0  0  0  0  0  0  0
   -7.4200   19.9400  -32.5050 C   0  0  0  0  0  0  0  0  0  0  0  0
   -7.2320   18.6170  -33.0420 N   0  0  0  0  0  0  0  0  0  0  0  0
   -6.6110   17.5260  -32.2880 C   0  0  0  0  0  0  0  0  0  0  0  0
   -5.9810   16.4930  -33.2220 C   0  0  0  0  0  0  0  0  0  0  0  0
   -6.1260   16.9190  -34.5610 O   0  0  0  0  0  0  0  0  0  0  0  0
   -5.0000   17.6810  -34.9330 C   0  0  0  0  0  0  0  0  0  0  0  0
   -6.2860   20.6940  -32.1280 C   0  0  0  0  0  0  0  0  0  0  0  0
   -6.4760   21.9830  -31.6160 C   0  0  0  0  0  0  0  0  0  0  0  0
   -4.7035   24.6445  -27.6070 H   0  0  0  0  0  0  0  0  0  0  0  0
   -3.9520   24.1118  -25.9392 H   0  0  0  0  0  0  0  0  0  0  0  0
   -2.1027   22.8301  -25.8266 H   0  0  0  0  0  0  0  0  0  0  0  0
   -1.9549   21.6299  -27.1549 H   0  0  0  0  0  0  0  0  0  0  0  0
   -0.9242   23.1011  -27.1549 H   0  0  0  0  0  0  0  0  0  0  0  0
   -3.7200   24.9610  -31.2330 H   0  0  0  0  0  0  0  0  0  0  0  0
   -3.8620   26.4310  -30.2130 H   0  0  0  0  0  0  0  0  0  0  0  0
   -8.4170   24.4451  -30.6239 H   0  0  0  0  0  0  0  0  0  0  0  0
   -9.8781   22.2261  -31.6732 H   0  0  0  0  0  0  0  0  0  0  0  0
   -9.6010   19.9210  -32.6367 H   0  0  0  0  0  0  0  0  0  0  0  0
   -7.5610   18.4330  -34.0180 H   0  0  0  0  0  0  0  0  0  0  0  0
   -5.8299   17.9415  -31.6344 H   0  0  0  0  0  0  0  0  0  0  0  0
   -7.3908   17.0268  -31.6941 H   0  0  0  0  0  0  0  0  0  0  0  0
   -4.9122   16.3874  -32.9844 H   0  0  0  0  0  0  0  0  0  0  0  0
   -6.4835   15.5236  -33.0890 H   0  0  0  0  0  0  0  0  0  0  0  0
   -4.4804   18.0326  -34.0294 H   0  0  0  0  0  0  0  0  0  0  0  0
   -4.3171   17.0587  -35.5299 H   0  0  0  0  0  0  0  0  0  0  0  0
   -5.3238   18.5463  -35.5299 H   0  0  0  0  0  0  0  0  0  0  0  0
   -5.2740   20.2764  -32.2347 H   0  0  0  0  0  0  0  0  0  0  0  0
  1  2  2  0
  2  3  1  0
  2  4  1  0
  4  5  2  0
  4  6  1  0
  6  7  1  0
  7  8  2  0
  7  9  1  0
  9 10  1  0
 10 11  1  0
 11 12  1  0
 11 13  2  0
 10 14  2  0
 14 15  1  0
 15 16  2  0
 16 17  1  0
 17 18  2  0
 18 19  1  0
 19 20  1  0
 20 21  1  0
 21 22  1  0
 22 23  1  0
 18 24  1  0
 24 25  2  0
 25  9  1  0
 25 15  1  0
  1 26  1  0
  1 27  1  0
  3 28  1  0
  3 29  1  0
  3 30  1  0
 12 31  1  0
 12 32  1  0
 14 33  1  0
 16 34  1  0
 17 35  1  0
 19 36  1  0
 20 37  1  0
 20 38  1  0
 21 39  1  0
 21 40  1  0
 23 41  1  0
 23 42  1  0
 23 43  1  0
 24 44  1  0
M  END
>  <UniqueID>  (16) 
16

>  <SMILES>  (16) 
C=C(C)C(=O)OC(=O)n1c(C(N)=O)cc2ccc(NCCOC)cc21

>  <Energy>  (16) 
79.1273793585005

>  <Genealogy>  (16) 
C=C(C)C(=O)OC(=O)n1c(C(N)=O)cc2ccc(NCCOC)cc21 (3D coordinates assigned)
C=C(C)C(=O)OC(=O)n1c(C(N)=O)cc2ccc(NCCOC)cc21 (optimized conformer: 79.1273793585005 kcal/mol)

>  <smiles>  (16) 
C=C(C)C(=O)OC(=O)n1c(C(N)=O)cc2ccc(NCCOC)cc21

>  <score_type>  (16) 
oracle

>  <origin>  (16) 
adg

>  <m_score__min__energy>  (16) 
-8.9600000000000009

>  <m_primary>  (16) 
energy

$$$$
16:0
     RDKit          3D

 35 36  0  0  0  0  0  0  0  0999 V2000
   -9.6720   21.9200  -31.2320 C   0  0  0  0  0  0  0  0  0  0  0  0
   -8.3000   21.4560  -31.6180 C   0  0  0  0  0  0  0  0  0  0  0  0
   -8.1360   20.2430  -32.3320 C   0  0  0  0  0  0  0  0  0  0  0  0
   -6.8590   19.8220  -32.7430 C   0  0  0  0  0  0  0  0  0  0  0  0
   -5.7730   20.6340  -32.4310 C   0  0  0  0  0  0  0  0  0  0  0  0
   -4.4380   20.4870  -32.7370 C   0  0  0  0  0  0  0  0  0  0  0  0
   -3.8090   21.6120  -32.2030 C   0  0  0  0  0  0  0  0  0  0  0  0
   -2.3490   21.8590  -32.2520 C   0  0  0  0  0  0  0  0  0  0  0  0
   -1.6200   22.1860  -31.0670 N   0  0  0  0  0  0  0  0  0  0  0  0
   -1.7350   21.7990  -33.3500 O   0  0  0  0  0  0  0  0  0  0  0  0
   -4.7200   22.4140  -31.5840 N   0  0  0  0  0  0  0  0  0  0  0  0
   -4.4810   23.6900  -30.9680 C   0  0  0  0  0  0  0  0  0  0  0  0
   -5.0300   24.7210  -31.4390 O   0  0  0  0  0  0  0  0  0  0  0  0
   -3.5900   23.8110  -29.8040 C   0  0  0  0  0  0  0  0  0  0  0  0
   -3.6190   22.9380  -28.8940 O   0  0  0  0  0  0  0  0  0  0  0  0
   -2.6820   24.9130  -29.7150 N   0  0  0  0  0  0  0  0  0  0  0  0
   -1.9930   25.2680  -28.4820 C   0  0  0  0  0  0  0  0  0  0  0  0
   -0.5830   24.6930  -28.4980 C   0  0  0  0  0  0  0  0  0  0  0  0
   -0.5620   23.5240  -29.2680 O   0  0  0  0  0  0  0  0  0  0  0  0
   -5.9160   21.8080  -31.7390 C   0  0  0  0  0  0  0  0  0  0  0  0
   -7.1760   22.2620  -31.3350 C   0  0  0  0  0  0  0  0  0  0  0  0
   -9.7546   21.9479  -30.1355 H   0  0  0  0  0  0  0  0  0  0  0  0
   -9.8464   22.9271  -31.6386 H   0  0  0  0  0  0  0  0  0  0  0  0
  -10.4219   21.2255  -31.6386 H   0  0  0  0  0  0  0  0  0  0  0  0
   -9.0154   19.6254  -32.5668 H   0  0  0  0  0  0  0  0  0  0  0  0
   -6.7227   18.8798  -33.2941 H   0  0  0  0  0  0  0  0  0  0  0  0
   -3.9675   19.6581  -33.2861 H   0  0  0  0  0  0  0  0  0  0  0  0
   -2.0720   22.1820  -30.1270 H   0  0  0  0  0  0  0  0  0  0  0  0
   -0.5980   22.3930  -31.1240 H   0  0  0  0  0  0  0  0  0  0  0  0
   -1.9402   26.3633  -28.3950 H   0  0  0  0  0  0  0  0  0  0  0  0
   -2.5449   24.8554  -27.6246 H   0  0  0  0  0  0  0  0  0  0  0  0
    0.1082   25.4302  -28.9325 H   0  0  0  0  0  0  0  0  0  0  0  0
   -0.2720   24.4588  -27.4692 H   0  0  0  0  0  0  0  0  0  0  0  0
   -1.4900   23.1710  -29.2590 H   0  0  0  0  0  0  0  0  0  0  0  0
   -7.2881   23.2223  -30.8103 H   0  0  0  0  0  0  0  0  0  0  0  0
  1  2  1  0
  2  3  2  0
  3  4  1  0
  4  5  2  0
  5  6  1  0
  6  7  2  0
  7  8  1  0
  8  9  1  0
  8 10  2  0
  7 11  1  0
 11 12  1  0
 12 13  2  0
 12 14  1  0
 14 15  2  0
 14 16  1  0
 16 17  1  0
 17 18  1  0
 18 19  1  0
 11 20  1  0
 20 21  2  0
 21  2  1  0
 20  5  1  0
  1 22  1  0
  1 23  1  0
  1 24  1  0
  3 25  1  0
  4 26  1  0
  6 27  1  0
  9 28  1  0
  9 29  1  0
 17 30  1  0
 17 31  1  0
 18 32  1  0
 18 33  1  0
 19 34  1  0
 21 35  1  0
M  CHG  1  16  -1
M  END
>  <UniqueID>  (17) 
17

>  <SMILES>  (17) 
Cc1ccc2cc(C(N)=O)n(C(=O)C(=O)[N-]CCO)c2c1

>  <Energy>  (17) 
67.79037262634893

>  <Genealogy>  (17) 
Cc1ccc2cc(C(N)=O)n(C(=O)C(=O)[N-]CCO)c2c1 (protonated)
Cc1ccc2cc(C(N)=O)n(C(=O)C(=O)[N-]CCO)c2c1 (3D coordinates assigned)
Cc1ccc2cc(C(N)=O)n(C(=O)C(=O)[N-]CCO)c2c1 (optimized conformer: 67.79037262634893 kcal/mol)

>  <smiles>  (17) 
Cc1ccc2cc(C(N)=O)n(C(=O)C(=O)NCCO)c2c1

>  <score_type>  (17) 
oracle

>  <origin>  (17) 
adg

>  <m_score__min__energy>  (17) 
-8.3000000000000007

>  <m_primary>  (17) 
energy

$$$$
17:0
     RDKit          3D

 43 44  0  0  0  0  0  0  0  0999 V2000
   -7.3900   18.5020  -32.7150 C   0  0  0  0  0  0  0  0  0  0  0  0
   -7.4410   19.9250  -32.2470 C   0  0  0  0  0  0  0  0  0  0  0  0
   -8.6850   20.6010  -32.1530 C   0  0  0  0  0  0  0  0  0  0  0  0
   -8.7420   21.9450  -31.7450 C   0  0  0  0  0  0  0  0  0  0  0  0
   -7.5410   22.5900  -31.4570 C   0  0  0  0  0  0  0  0  0  0  0  0
   -7.3070   23.8760  -31.0220 C   0  0  0  0  0  0  0  0  0  0  0  0
   -5.9220   23.9700  -30.8840 C   0  0  0  0  0  0  0  0  0  0  0  0
   -5.2190   25.2030  -30.4680 C   0  0  0  0  0  0  0  0  0  0  0  0
   -3.8570   25.4070  -30.8480 N   0  0  0  0  0  0  0  0  0  0  0  0
   -5.8030   26.0750  -29.7670 O   0  0  0  0  0  0  0  0  0  0  0  0
   -5.3250   22.7920  -31.2250 N   0  0  0  0  0  0  0  0  0  0  0  0
   -3.9280   22.4730  -31.1720 C   0  0  0  0  0  0  0  0  0  0  0  0
   -3.3160   22.1830  -32.2340 O   0  0  0  0  0  0  0  0  0  0  0  0
   -3.2030   22.4590  -29.8950 C   0  0  0  0  0  0  0  0  0  0  0  0
   -2.3790   21.5370  -29.6450 O   0  0  0  0  0  0  0  0  0  0  0  0
   -3.4200   23.4900  -28.9740 O   0  0  0  0  0  0  0  0  0  0  0  0
   -4.0600   23.2970  -27.7140 C   0  0  0  0  0  0  0  0  0  0  0  0
   -3.8130   24.4700  -26.7990 C   0  0  0  0  0  0  0  0  0  0  0  0
   -4.6630   24.7550  -25.9650 O   0  0  0  0  0  0  0  0  0  0  0  0
   -2.5890   25.2490  -26.8990 N   0  0  1  0  0  0  0  0  0  0  0  0
   -2.3520   26.0210  -25.6660 C   0  0  0  0  0  0  0  0  0  0  0  0
   -1.4290   24.4070  -27.2790 C   0  0  0  0  0  0  0  0  0  0  0  0
   -0.7560   24.8330  -28.5570 C   0  0  0  0  0  0  0  0  0  0  0  0
    0.2670   24.2230  -28.9690 O   0  0  0  0  0  0  0  0  0  0  0  0
   -1.2520   25.9090  -29.2830 O   0  0  0  0  0  0  0  0  0  0  0  0
   -6.3280   21.9560  -31.5710 C   0  0  0  0  0  0  0  0  0  0  0  0
   -6.2410   20.6150  -31.9600 C   0  0  0  0  0  0  0  0  0  0  0  0
   -7.3659   17.8303  -31.8442 H   0  0  0  0  0  0  0  0  0  0  0  0
   -8.2809   18.2835  -33.3221 H   0  0  0  0  0  0  0  0  0  0  0  0
   -6.4858   18.3479  -33.3221 H   0  0  0  0  0  0  0  0  0  0  0  0
   -9.6144   20.0678  -32.4020 H   0  0  0  0  0  0  0  0  0  0  0  0
   -9.7041   22.4707  -31.6559 H   0  0  0  0  0  0  0  0  0  0  0  0
   -8.0525   24.6606  -30.8256 H   0  0  0  0  0  0  0  0  0  0  0  0
   -3.0830   25.2710  -30.1600 H   0  0  0  0  0  0  0  0  0  0  0  0
   -5.1428   23.1864  -27.8734 H   0  0  0  0  0  0  0  0  0  0  0  0
   -3.6460   22.3923  -27.2448 H   0  0  0  0  0  0  0  0  0  0  0  0
   -2.7010   25.9510  -27.6690 H   0  0  0  0  0  0  0  0  0  0  0  0
   -2.5477   25.3837  -24.7910 H   0  0  0  0  0  0  0  0  0  0  0  0
   -1.3071   26.3642  -25.6434 H   0  0  0  0  0  0  0  0  0  0  0  0
   -3.0243   26.8913  -25.6434 H   0  0  0  0  0  0  0  0  0  0  0  0
   -0.6886   24.4511  -26.4667 H   0  0  0  0  0  0  0  0  0  0  0  0
   -1.8145   23.3903  -27.4457 H   0  0  0  0  0  0  0  0  0  0  0  0
   -5.2662   20.1116  -32.0403 H   0  0  0  0  0  0  0  0  0  0  0  0
  1  2  1  0
  2  3  2  0
  3  4  1  0
  4  5  2  0
  5  6  1  0
  6  7  2  0
  7  8  1  0
  8  9  1  0
  8 10  2  0
  7 11  1  0
 11 12  1  0
 12 13  2  0
 12 14  1  0
 14 15  2  0
 14 16  1  0
 16 17  1  0
 17 18  1  0
 18 19  2  0
 18 20  1  0
 20 21  1  0
 20 22  1  0
 22 23  1  0
 23 24  2  0
 23 25  1  0
 11 26  1  0
 26 27  2  0
 27  2  1  0
 26  5  1  0
  1 28  1  0
  1 29  1  0
  1 30  1  0
  3 31  1  0
  4 32  1  0
  6 33  1  0
  9 34  1  0
 17 35  1  0
 17 36  1  0
 20 37  1  6
 21 38  1  0
 21 39  1  0
 21 40  1  0
 22 41  1  0
 22 42  1  0
 27 43  1  0
M  CHG  3   9  -1  20   1  25  -1
M  END
>  <UniqueID>  (18) 
18

>  <SMILES>  (18) 
Cc1ccc2cc(C([NH-])=O)n(C(=O)C(=O)OCC(=O)[N@@H+](C)CC(=O)[O-])c2c1

>  <Energy>  (18) 
82.02428381323197

>  <Genealogy>  (18) 
Cc1ccc2cc(C([NH-])=O)n(C(=O)C(=O)OCC(=O)[NH+](C)CC(=O)[O-])c2c1 (protonated)
Cc1ccc2cc(C([NH-])=O)n(C(=O)C(=O)OCC(=O)[N@@H+](C)CC(=O)[O-])c2c1 (chirality)
Cc1ccc2cc(C([NH-])=O)n(C(=O)C(=O)OCC(=O)[N@@H+](C)CC(=O)[O-])c2c1 (3D coordinates assigned)
Cc1ccc2cc(C([NH-])=O)n(C(=O)C(=O)OCC(=O)[N@@H+](C)CC(=O)[O-])c2c1 (optimized conformer: 82.02428381323197 kcal/mol)

>  <smiles>  (18) 
Cc1ccc2cc(C(N)=O)n(C(=O)C(=O)OCC(=O)N(C)CC(=O)O)c2c1

>  <score_type>  (18) 
oracle

>  <origin>  (18) 
adg

>  <m_score__min__energy>  (18) 
-11.880000000000001

>  <m_primary>  (18) 
energy

$$$$
18:0
     RDKit          3D

 42 43  0  0  0  0  0  0  0  0999 V2000
   -1.1920   25.9000  -27.9280 C   0  0  0  0  0  0  0  0  0  0  0  0
   -1.6180   25.1680  -29.0690 O   0  0  0  0  0  0  0  0  0  0  0  0
   -1.4950   23.7770  -29.1650 C   0  0  0  0  0  0  0  0  0  0  0  0
   -0.4700   23.2550  -29.6820 O   0  0  0  0  0  0  0  0  0  0  0  0
   -2.6080   22.9110  -28.6790 C   0  0  0  0  0  0  0  0  0  0  0  0
   -2.9620   21.9940  -29.7070 O   0  0  0  0  0  0  0  0  0  0  0  0
   -3.4080   22.3910  -30.9700 C   0  0  0  0  0  0  0  0  0  0  0  0
   -2.5760   22.6480  -31.8840 O   0  0  0  0  0  0  0  0  0  0  0  0
   -4.8180   22.5270  -31.2190 N   0  0  0  0  0  0  0  0  0  0  0  0
   -5.6300   23.5610  -30.8600 C   0  0  0  0  0  0  0  0  0  0  0  0
   -5.1930   24.8410  -30.2690 C   0  0  0  0  0  0  0  0  0  0  0  0
   -3.8090   25.1770  -30.1740 N   0  0  0  0  0  0  0  0  0  0  0  0
   -6.0590   25.6760  -29.8930 O   0  0  0  0  0  0  0  0  0  0  0  0
   -6.9550   23.2780  -31.1770 C   0  0  0  0  0  0  0  0  0  0  0  0
   -6.9300   22.0320  -31.7630 C   0  0  0  0  0  0  0  0  0  0  0  0
   -7.9700   21.2670  -32.2750 C   0  0  0  0  0  0  0  0  0  0  0  0
   -7.6630   20.0030  -32.8070 C   0  0  0  0  0  0  0  0  0  0  0  0
   -6.3260   19.5050  -32.7980 C   0  0  0  0  0  0  0  0  0  0  0  0
   -5.9480   18.1440  -33.4060 C   0  0  0  0  0  0  0  0  0  0  0  0
   -6.8340   16.9800  -32.9110 C   0  0  0  0  0  0  0  0  0  0  0  0
   -6.0530   18.2300  -34.9390 C   0  0  0  0  0  0  0  0  0  0  0  0
   -4.5540   17.8140  -33.0430 C   0  0  0  0  0  0  0  0  0  0  0  0
   -3.4610   17.5570  -32.7600 N   0  0  0  0  0  0  0  0  0  0  0  0
   -5.3000   20.3340  -32.2710 C   0  0  0  0  0  0  0  0  0  0  0  0
   -5.6320   21.5980  -31.7730 C   0  0  0  0  0  0  0  0  0  0  0  0
   -1.5009   25.3691  -27.0155 H   0  0  0  0  0  0  0  0  0  0  0  0
   -0.0964   25.9970  -27.9426 H   0  0  0  0  0  0  0  0  0  0  0  0
   -1.6489   26.9005  -27.9426 H   0  0  0  0  0  0  0  0  0  0  0  0
   -2.2818   22.3570  -27.7865 H   0  0  0  0  0  0  0  0  0  0  0  0
   -3.4774   23.5329  -28.4192 H   0  0  0  0  0  0  0  0  0  0  0  0
   -3.5160   26.0690  -29.7170 H   0  0  0  0  0  0  0  0  0  0  0  0
   -3.0790   24.5910  -30.6360 H   0  0  0  0  0  0  0  0  0  0  0  0
   -7.8346   23.9138  -30.9978 H   0  0  0  0  0  0  0  0  0  0  0  0
   -9.0048   21.6400  -32.2644 H   0  0  0  0  0  0  0  0  0  0  0  0
   -8.4667   19.3875  -33.2374 H   0  0  0  0  0  0  0  0  0  0  0  0
   -6.8430   16.9681  -31.8111 H   0  0  0  0  0  0  0  0  0  0  0  0
   -7.8597   17.1154  -33.2847 H   0  0  0  0  0  0  0  0  0  0  0  0
   -6.4304   16.0274  -33.2847 H   0  0  0  0  0  0  0  0  0  0  0  0
   -6.8772   18.9051  -35.2128 H   0  0  0  0  0  0  0  0  0  0  0  0
   -5.1093   18.6180  -35.3500 H   0  0  0  0  0  0  0  0  0  0  0  0
   -6.2475   17.2284  -35.3500 H   0  0  0  0  0  0  0  0  0  0  0  0
   -4.2567   19.9859  -32.2548 H   0  0  0  0  0  0  0  0  0  0  0  0
  1  2  1  0
  2  3  1  0
  3  4  2  0
  3  5  1  0
  5  6  1  0
  6  7  1  0
  7  8  2  0
  7  9  1  0
  9 10  1  0
 10 11  1  0
 11 12  1  0
 11 13  2  0
 10 14  2  0
 14 15  1  0
 15 16  2  0
 16 17  1  0
 17 18  2  0
 18 19  1  0
 19 20  1  0
 19 21  1  0
 19 22  1  0
 22 23  3  0
 18 24  1  0
 24 25  2  0
 25  9  1  0
 25 15  1  0
  1 26  1  0
  1 27  1  0
  1 28  1  0
  5 29  1  0
  5 30  1  0
 12 31  1  0
 12 32  1  0
 14 33  1  0
 16 34  1  0
 17 35  1  0
 20 36  1  0
 20 37  1  0
 20 38  1  0
 21 39  1  0
 21 40  1  0
 21 41  1  0
 24 42  1  0
M  END
>  <UniqueID>  (19) 
19

>  <SMILES>  (19) 
COC(=O)COC(=O)n1c(C(N)=O)cc2ccc(C(C)(C)C#N)cc21

>  <Energy>  (19) 
75.69081606470996

>  <Genealogy>  (19) 
COC(=O)COC(=O)n1c(C(N)=O)cc2ccc(C(C)(C)C#N)cc21 (3D coordinates assigned)
COC(=O)COC(=O)n1c(C(N)=O)cc2ccc(C(C)(C)C#N)cc21 (optimized conformer: 75.69081606470996 kcal/mol)

>  <smiles>  (19) 
COC(=O)COC(=O)n1c(C(N)=O)cc2ccc(C(C)(C)C#N)cc21

>  <score_type>  (19) 
oracle

>  <origin>  (19) 
adg

>  <m_score__min__energy>  (19) 
-9.5399999999999991

>  <m_primary>  (19) 
energy

$$$$
19:0
     RDKit          3D

 41 43  0  0  0  0  0  0  0  0999 V2000
   -6.7990   23.8460  -31.2830 C   0  0  0  0  0  0  0  0  0  0  0  0
   -5.6700   24.5560  -31.7390 O   0  0  0  0  0  0  0  0  0  0  0  0
   -5.3940   25.6310  -30.8640 C   0  0  0  0  0  0  0  0  0  0  0  0
   -4.1810   25.4030  -30.1490 O   0  0  0  0  0  0  0  0  0  0  0  0
   -3.9260   24.2260  -29.4370 C   0  0  0  0  0  0  0  0  0  0  0  0
   -4.5640   23.9700  -28.3800 O   0  0  0  0  0  0  0  0  0  0  0  0
   -2.9150   23.3170  -29.9030 N   0  0  0  0  0  0  0  0  0  0  0  0
   -1.5600   23.4490  -29.8060 C   0  0  0  0  0  0  0  0  0  0  0  0
   -0.8410   24.5090  -29.0700 C   0  0  0  0  0  0  0  0  0  0  0  0
   -1.4150   25.8100  -28.9600 N   0  0  0  0  0  0  0  0  0  0  0  0
    0.2930   24.2910  -28.5680 O   0  0  0  0  0  0  0  0  0  0  0  0
   -0.9210   22.3830  -30.4360 C   0  0  0  0  0  0  0  0  0  0  0  0
   -1.9320   21.5830  -30.9160 C   0  0  0  0  0  0  0  0  0  0  0  0
   -1.8680   20.3910  -31.6340 C   0  0  0  0  0  0  0  0  0  0  0  0
   -3.0770   19.7920  -32.0250 C   0  0  0  0  0  0  0  0  0  0  0  0
   -4.3140   20.3950  -31.6990 C   0  0  0  0  0  0  0  0  0  0  0  0
   -5.5370   19.7820  -32.1120 N   0  0  0  0  0  0  0  0  0  0  0  0
   -6.6950   20.1220  -32.9610 C   0  0  0  0  0  0  0  0  0  0  0  0
   -7.4260   18.8300  -32.7540 C   0  0  0  0  0  0  0  0  0  0  0  0
   -8.7420   18.9690  -31.9830 C   0  0  0  0  0  0  0  0  0  0  0  0
   -6.2410   18.5040  -31.8960 C   0  0  0  0  0  0  0  0  0  0  0  0
   -4.3440   21.6020  -30.9730 C   0  0  0  0  0  0  0  0  0  0  0  0
   -3.1250   22.1680  -30.5810 C   0  0  0  0  0  0  0  0  0  0  0  0
   -6.8087   23.8399  -30.1831 H   0  0  0  0  0  0  0  0  0  0  0  0
   -7.7128   24.3323  -31.6550 H   0  0  0  0  0  0  0  0  0  0  0  0
   -6.7566   22.8117  -31.6550 H   0  0  0  0  0  0  0  0  0  0  0  0
   -5.2989   26.5574  -31.4495 H   0  0  0  0  0  0  0  0  0  0  0  0
   -6.2185   25.7181  -30.1411 H   0  0  0  0  0  0  0  0  0  0  0  0
   -2.4510   25.9410  -28.9640 H   0  0  0  0  0  0  0  0  0  0  0  0
    0.1623   22.2164  -30.5297 H   0  0  0  0  0  0  0  0  0  0  0  0
   -0.9005   19.9329  -31.8870 H   0  0  0  0  0  0  0  0  0  0  0  0
   -3.0615   18.8475  -32.5886 H   0  0  0  0  0  0  0  0  0  0  0  0
   -7.2552   20.9918  -32.5872 H   0  0  0  0  0  0  0  0  0  0  0  0
   -6.4859   20.4194  -33.9992 H   0  0  0  0  0  0  0  0  0  0  0  0
   -7.7909   18.1897  -33.5706 H   0  0  0  0  0  0  0  0  0  0  0  0
   -8.5379   18.9474  -30.9023 H   0  0  0  0  0  0  0  0  0  0  0  0
   -9.2223   19.9229  -32.2465 H   0  0  0  0  0  0  0  0  0  0  0  0
   -9.4110   18.1365  -32.2465 H   0  0  0  0  0  0  0  0  0  0  0  0
   -6.5115   18.3408  -30.8423 H   0  0  0  0  0  0  0  0  0  0  0  0
   -5.6898   17.5817  -32.1316 H   0  0  0  0  0  0  0  0  0  0  0  0
   -5.2989   22.0864  -30.7211 H   0  0  0  0  0  0  0  0  0  0  0  0
  1  2  1  0
  2  3  1  0
  3  4  1  0
  4  5  1  0
  5  6  2  0
  5  7  1  0
  7  8  1  0
  8  9  1  0
  9 10  1  0
  9 11  2  0
  8 12  2  0
 12 13  1  0
 13 14  2  0
 14 15  1  0
 15 16  2  0
 16 17  1  0
 17 18  1  0
 18 19  1  0
 19 20  1  0
 19 21  1  0
 16 22  1  0
 22 23  2  0
 23  7  1  0
 23 13  1  0
 21 17  1  0
  1 24  1  0
  1 25  1  0
  1 26  1  0
  3 27  1  0
  3 28  1  0
 10 29  1  0
 12 30  1  0
 14 31  1  0
 15 32  1  0
 18 33  1  0
 18 34  1  0
 19 35  1  0
 20 36  1  0
 20 37  1  0
 20 38  1  0
 21 39  1  0
 21 40  1  0
 22 41  1  0
M  CHG  1  10  -1
M  END
>  <UniqueID>  (20) 
20

>  <SMILES>  (20) 
COCOC(=O)n1c(C([NH-])=O)cc2ccc(N3CC(C)C3)cc21

>  <Energy>  (20) 
122.83587965056077

>  <Genealogy>  (20) 
COCOC(=O)n1c(C([NH-])=O)cc2ccc(N3CC(C)C3)cc21 (protonated)
COCOC(=O)n1c(C([NH-])=O)cc2ccc(N3CC(C)C3)cc21 (3D coordinates assigned)
COCOC(=O)n1c(C([NH-])=O)cc2ccc(N3CC(C)C3)cc21 (nonaromatic ring conformer: 122.83587965056077 kcal/mol)

>  <smiles>  (20) 
COCOC(=O)n1c(C(N)=O)cc2ccc(N3CC(C)C3)cc21

>  <score_type>  (20) 
oracle

>  <origin>  (20) 
adg

>  <m_score__min__energy>  (20) 
-10.18

>  <m_primary>  (20) 
energy

$$$$
20:0
     RDKit          3D

 41 42  0  0  0  0  0  0  0  0999 V2000
   -8.8510   19.2550  -32.6940 C   0  0  0  0  0  0  0  0  0  0  0  0
   -7.4480   18.9540  -33.0220 N   0  0  0  0  0  0  0  0  0  0  0  0
   -6.8690   18.0370  -32.0270 C   0  0  0  0  0  0  0  0  0  0  0  0
   -6.6510   20.1570  -33.0860 C   0  0  0  0  0  0  0  0  0  0  0  0
   -7.2020   21.2930  -33.0650 O   0  0  0  0  0  0  0  0  0  0  0  0
   -5.2190   20.0750  -33.0080 N   0  0  0  0  0  0  0  0  0  0  0  0
   -4.3910   19.1910  -33.6290 C   0  0  0  0  0  0  0  0  0  0  0  0
   -4.7970   18.1930  -34.6400 C   0  0  0  0  0  0  0  0  0  0  0  0
   -6.0990   18.2560  -35.2180 N   0  0  0  0  0  0  0  0  0  0  0  0
   -4.0130   17.2710  -34.9840 O   0  0  0  0  0  0  0  0  0  0  0  0
   -3.0720   19.3940  -33.2250 C   0  0  0  0  0  0  0  0  0  0  0  0
   -3.1240   20.4410  -32.3320 C   0  0  0  0  0  0  0  0  0  0  0  0
   -2.1100   21.0460  -31.6000 C   0  0  0  0  0  0  0  0  0  0  0  0
   -2.4570   22.0880  -30.7230 C   0  0  0  0  0  0  0  0  0  0  0  0
   -3.8110   22.5220  -30.5920 C   0  0  0  0  0  0  0  0  0  0  0  0
   -4.2350   23.6210  -29.6020 C   0  0  0  0  0  0  0  0  0  0  0  0
   -3.8790   23.2920  -28.1350 C   0  0  0  0  0  0  0  0  0  0  0  0
   -5.7660   23.7950  -29.7020 C   0  0  0  0  0  0  0  0  0  0  0  0
   -3.5270   24.9200  -29.9500 C   0  0  0  0  0  0  0  0  0  0  0  0
   -3.9940   25.6700  -30.8480 O   0  0  0  0  0  0  0  0  0  0  0  0
   -2.3360   25.2770  -29.3250 O   0  0  0  0  0  0  0  0  0  0  0  0
   -4.8100   21.8570  -31.3500 C   0  0  0  0  0  0  0  0  0  0  0  0
   -4.4280   20.8330  -32.2210 C   0  0  0  0  0  0  0  0  0  0  0  0
   -8.9745   19.2815  -31.6013 H   0  0  0  0  0  0  0  0  0  0  0  0
   -9.1251   20.2324  -33.1178 H   0  0  0  0  0  0  0  0  0  0  0  0
   -9.5019   18.4761  -33.1178 H   0  0  0  0  0  0  0  0  0  0  0  0
   -7.4260   18.4770  -33.9540 H   0  0  0  0  0  0  0  0  0  0  0  0
   -7.0991   18.4014  -31.0149 H   0  0  0  0  0  0  0  0  0  0  0  0
   -7.2970   17.0326  -32.1612 H   0  0  0  0  0  0  0  0  0  0  0  0
   -5.7782   17.9916  -32.1612 H   0  0  0  0  0  0  0  0  0  0  0  0
   -6.7040   19.0960  -35.0870 H   0  0  0  0  0  0  0  0  0  0  0  0
   -2.1808   18.8371  -33.5500 H   0  0  0  0  0  0  0  0  0  0  0  0
   -1.0650   20.7187  -31.7039 H   0  0  0  0  0  0  0  0  0  0  0  0
   -1.6723   22.5774  -30.1275 H   0  0  0  0  0  0  0  0  0  0  0  0
   -4.5177   23.8823  -27.4615 H   0  0  0  0  0  0  0  0  0  0  0  0
   -4.0425   22.2201  -27.9495 H   0  0  0  0  0  0  0  0  0  0  0  0
   -2.8233   23.5394  -27.9495 H   0  0  0  0  0  0  0  0  0  0  0  0
   -6.1963   23.8439  -28.6908 H   0  0  0  0  0  0  0  0  0  0  0  0
   -5.9948   24.7249  -30.2432 H   0  0  0  0  0  0  0  0  0  0  0  0
   -6.1976   22.9401  -30.2432 H   0  0  0  0  0  0  0  0  0  0  0  0
   -5.8678   22.1430  -31.2534 H   0  0  0  0  0  0  0  0  0  0  0  0
  1  2  1  0
  2  3  1  0
  2  4  1  0
  4  5  2  0
  4  6  1  0
  6  7  1  0
  7  8  1  0
  8  9  1  0
  8 10  2  0
  7 11  2  0
 11 12  1  0
 12 13  2  0
 13 14  1  0
 14 15  2  0
 15 16  1  0
 16 17  1  0
 16 18  1  0
 16 19  1  0
 19 20  2  0
 19 21  1  0
 15 22  1  0
 22 23  2  0
 23  6  1  0
 23 12  1  0
  1 24  1  0
  1 25  1  0
  1 26  1  0
  2 27  1  0
  3 28  1  0
  3 29  1  0
  3 30  1  0
  9 31  1  0
 11 32  1  0
 13 33  1  0
 14 34  1  0
 17 35  1  0
 17 36  1  0
 17 37  1  0
 18 38  1  0
 18 39  1  0
 18 40  1  0
 22 41  1  0
M  CHG  3   2   1   9  -1  21  -1
M  END
>  <UniqueID>  (21) 
21

>  <SMILES>  (21) 
C[NH+](C)C(=O)n1c(C([NH-])=O)cc2ccc(C(C)(C)C(=O)[O-])cc21

>  <Energy>  (21) 
84.2070754784487

>  <Genealogy>  (21) 
C[NH+](C)C(=O)n1c(C([NH-])=O)cc2ccc(C(C)(C)C(=O)[O-])cc21 (protonated)
C[NH+](C)C(=O)n1c(C([NH-])=O)cc2ccc(C(C)(C)C(=O)[O-])cc21 (3D coordinates assigned)
C[NH+](C)C(=O)n1c(C([NH-])=O)cc2ccc(C(C)(C)C(=O)[O-])cc21 (optimized conformer: 84.2070754784487 kcal/mol)

>  <smiles>  (21) 
CN(C)C(=O)n1c(C(N)=O)cc2ccc(C(C)(C)C(=O)O)cc21

>  <score_type>  (21) 
oracle

>  <origin>  (21) 
adg

>  <m_score__min__energy>  (21) 
-10.050000000000001

>  <m_primary>  (21) 
energy

$$$$
21:0
     RDKit          3D

 75 79  0  0  0  0  0  0  0  0999 V2000
   -3.7040   18.3620  -33.8680 C   0  0  0  0  0  0  0  0  0  0  0  0
   -4.4060   19.2200  -33.3950 C   0  0  0  0  0  0  0  0  0  0  0  0
   -5.2470   20.2440  -32.8320 C   0  0  0  0  0  0  0  0  0  0  0  0
   -6.6500   20.1680  -32.9870 C   0  0  0  0  0  0  0  0  0  0  0  0
   -7.4820   21.1660  -32.4510 C   0  0  0  0  0  0  0  0  0  0  0  0
   -6.8800   22.2220  -31.7730 C   0  0  0  0  0  0  0  0  0  0  0  0
   -7.4420   23.3150  -31.1520 C   0  0  0  0  0  0  0  0  0  0  0  0
   -6.3670   24.0370  -30.6320 C   0  0  0  0  0  0  0  0  0  0  0  0
   -6.4910   25.3350  -29.9310 C   0  0  0  0  0  0  0  0  0  0  0  0
   -5.6150   26.4220  -30.2360 N   0  0  0  0  0  0  0  0  0  0  0  0
   -7.3670   25.4890  -29.0400 O   0  0  0  0  0  0  0  0  0  0  0  0
   -5.1930   23.4080  -30.9150 N   0  0  0  0  0  0  0  0  0  0  0  0
   -3.8690   23.7880  -30.4990 C   0  0  0  0  0  0  0  0  0  0  0  0
   -3.4890   24.9790  -30.6680 O   0  0  0  0  0  0  0  0  0  0  0  0
   -2.9410   22.7950  -29.9070 C   0  0  0  0  0  0  0  0  0  0  0  0
   -1.8010   22.3770  -30.6120 C   0  0  0  0  0  0  0  0  0  0  0  0
   -0.9240   21.4430  -30.0520 C   0  0  0  0  0  0  0  0  0  0  0  0
   -1.1760   20.9020  -28.7820 C   0  0  0  0  0  0  0  0  0  0  0  0
   -0.2920   19.9090  -28.2260 N   0  0  0  0  0  0  0  0  0  0  0  0
   -0.7890   18.5490  -27.9430 C   0  0  0  0  0  0  0  0  0  0  0  0
    0.3220   17.4950  -28.0990 C   0  0  0  0  0  0  0  0  0  0  0  0
    1.4650   18.0170  -29.0060 C   0  0  0  0  0  0  0  0  0  0  0  0
    0.9470   18.4390  -30.3440 N   0  0  0  0  0  0  0  0  0  0  0  0
    2.0060   19.0150  -31.2140 C   0  0  0  0  0  0  0  0  0  0  0  0
    1.5420   19.1710  -32.6760 C   0  0  0  0  0  0  0  0  0  0  0  0
    0.0700   19.1860  -32.7240 N   0  0  0  0  0  0  0  0  0  0  0  0
   -0.4260   19.5460  -34.0660 C   0  0  0  0  0  0  0  0  0  0  0  0
   -0.8480   20.9820  -34.1030 C   0  0  0  0  0  0  0  0  0  0  0  0
   -2.0000   21.3060  -33.7010 O   0  0  0  0  0  0  0  0  0  0  0  0
    0.0430   21.9490  -34.5830 O   0  0  0  0  0  0  0  0  0  0  0  0
    0.7210   21.8410  -35.8320 C   0  0  0  0  0  0  0  0  0  0  0  0
    2.2320   21.9090  -35.6350 C   0  0  0  0  0  0  0  0  0  0  0  0
   -0.4510   17.8650  -32.3160 C   0  0  0  0  0  0  0  0  0  0  0  0
    0.2690   17.3330  -31.0580 C   0  0  0  0  0  0  0  0  0  0  0  0
    2.1050   19.1870  -28.2130 C   0  0  0  0  0  0  0  0  0  0  0  0
    1.0800   20.2850  -27.8460 C   0  0  0  0  0  0  0  0  0  0  0  0
   -2.3260   21.3020  -28.0870 C   0  0  0  0  0  0  0  0  0  0  0  0
   -3.1980   22.2410  -28.6410 C   0  0  0  0  0  0  0  0  0  0  0  0
   -5.5190   22.3060  -31.6190 C   0  0  0  0  0  0  0  0  0  0  0  0
   -4.6680   21.3230  -32.1320 C   0  0  0  0  0  0  0  0  0  0  0  0
   -3.0633   17.5789  -34.2997 H   0  0  0  0  0  0  0  0  0  0  0  0
   -7.0940   19.3214  -33.5312 H   0  0  0  0  0  0  0  0  0  0  0  0
   -8.5750   21.1141  -32.5638 H   0  0  0  0  0  0  0  0  0  0  0  0
   -8.5107   23.5656  -31.0810 H   0  0  0  0  0  0  0  0  0  0  0  0
   -5.7240   27.3350  -29.7400 H   0  0  0  0  0  0  0  0  0  0  0  0
   -4.8720   26.3400  -30.9650 H   0  0  0  0  0  0  0  0  0  0  0  0
   -1.5964   22.7872  -31.6119 H   0  0  0  0  0  0  0  0  0  0  0  0
   -0.0299   21.1300  -30.6111 H   0  0  0  0  0  0  0  0  0  0  0  0
   -1.1701   18.5158  -26.9117 H   0  0  0  0  0  0  0  0  0  0  0  0
   -1.5863   18.3173  -28.6645 H   0  0  0  0  0  0  0  0  0  0  0  0
    0.7319   17.2559  -27.1066 H   0  0  0  0  0  0  0  0  0  0  0  0
   -0.1113   16.5980  -28.5655 H   0  0  0  0  0  0  0  0  0  0  0  0
    2.2108   17.2401  -29.2301 H   0  0  0  0  0  0  0  0  0  0  0  0
    2.2846   20.0050  -30.8238 H   0  0  0  0  0  0  0  0  0  0  0  0
    2.8618   18.3239  -31.2046 H   0  0  0  0  0  0  0  0  0  0  0  0
    1.9320   20.1143  -33.0860 H   0  0  0  0  0  0  0  0  0  0  0  0
    1.9202   18.3281  -33.2731 H   0  0  0  0  0  0  0  0  0  0  0  0
    0.3749   19.3853  -34.8027 H   0  0  0  0  0  0  0  0  0  0  0  0
   -1.2944   18.9144  -34.3048 H   0  0  0  0  0  0  0  0  0  0  0  0
    0.4613   20.8808  -36.3016 H   0  0  0  0  0  0  0  0  0  0  0  0
    0.4110   22.6777  -36.4753 H   0  0  0  0  0  0  0  0  0  0  0  0
    2.4614   21.9193  -34.5592 H   0  0  0  0  0  0  0  0  0  0  0  0
    2.7025   21.0311  -36.1018 H   0  0  0  0  0  0  0  0  0  0  0  0
    2.6218   22.8256  -36.1018 H   0  0  0  0  0  0  0  0  0  0  0  0
   -1.5257   17.9564  -32.1002 H   0  0  0  0  0  0  0  0  0  0  0  0
   -0.2740   17.1566  -33.1387 H   0  0  0  0  0  0  0  0  0  0  0  0
   -0.4688   16.8675  -30.3879 H   0  0  0  0  0  0  0  0  0  0  0  0
    1.0220   16.5920  -31.3647 H   0  0  0  0  0  0  0  0  0  0  0  0
    2.5411   18.7875  -27.2855 H   0  0  0  0  0  0  0  0  0  0  0  0
    2.8708   19.6463  -28.8553 H   0  0  0  0  0  0  0  0  0  0  0  0
    1.1139   20.4534  -26.7595 H   0  0  0  0  0  0  0  0  0  0  0  0
    1.3474   21.1975  -28.3990 H   0  0  0  0  0  0  0  0  0  0  0  0
   -2.5429   20.8727  -27.0977 H   0  0  0  0  0  0  0  0  0  0  0  0
   -4.0937   22.5499  -28.0821 H   0  0  0  0  0  0  0  0  0  0  0  0
   -3.5787   21.3889  -31.9939 H   0  0  0  0  0  0  0  0  0  0  0  0
  1  2  3  0
  2  3  1  0
  3  4  2  0
  4  5  1  0
  5  6  2  0
  6  7  1  0
  7  8  2  0
  8  9  1  0
  9 10  1  0
  9 11  2  0
  8 12  1  0
 12 13  1  0
 13 14  2  0
 13 15  1  0
 15 16  2  0
 16 17  1  0
 17 18  2  0
 18 19  1  0
 19 20  1  0
 20 21  1  0
 21 22  1  0
 22 23  1  0
 23 24  1  0
 24 25  1  0
 25 26  1  0
 26 27  1  0
 27 28  1  0
 28 29  2  0
 28 30  1  0
 30 31  1  0
 31 32  1  0
 26 33  1  0
 33 34  1  0
 22 35  1  0
 35 36  1  0
 18 37  1  0
 37 38  2  0
 12 39  1  0
 39 40  2  0
 40  3  1  0
 39  6  1  0
 38 15  1  0
 36 19  1  0
 34 23  1  0
  1 41  1  0
  4 42  1  0
  5 43  1  0
  7 44  1  0
 10 45  1  0
 10 46  1  0
 16 47  1  0
 17 48  1  0
 20 49  1  0
 20 50  1  0
 21 51  1  0
 21 52  1  0
 22 53  1  0
 24 54  1  0
 24 55  1  0
 25 56  1  0
 25 57  1  0
 27 58  1  0
 27 59  1  0
 31 60  1  0
 31 61  1  0
 32 62  1  0
 32 63  1  0
 32 64  1  0
 33 65  1  0
 33 66  1  0
 34 67  1  0
 34 68  1  0
 35 69  1  0
 35 70  1  0
 36 71  1  0
 36 72  1  0
 37 73  1  0
 38 74  1  0
 40 75  1  0
M  END
>  <UniqueID>  (22) 
22

>  <SMILES>  (22) 
C#Cc1ccc2cc(C(N)=O)n(C(=O)c3ccc(N4CCC(N5CCN(CC(=O)OCC)CC5)CC4)cc3)c2c1

>  <Energy>  (22) 
131.72850391769038

>  <Genealogy>  (22) 
C#Cc1ccc2cc(C(N)=O)n(C(=O)c3ccc(N4CCC(N5CCN(CC(=O)OCC)CC5)CC4)cc3)c2c1 (3D coordinates assigned)
C#Cc1ccc2cc(C(N)=O)n(C(=O)c3ccc(N4CCC(N5CCN(CC(=O)OCC)CC5)CC4)cc3)c2c1 (nonaromatic ring conformer: 131.72850391769038 kcal/mol)

>  <smiles>  (22) 
C#Cc1ccc2cc(C(N)=O)n(C(=O)c3ccc(N4CCC(N5CCN(CC(=O)OCC)CC5)CC4)cc3)c2c1

>  <score_type>  (22) 
oracle

>  <origin>  (22) 
adg

>  <m_score__min__energy>  (22) 
-11.25

>  <m_primary>  (22) 
energy

$$$$
22:0
     RDKit          3D

 39 40  0  0  0  0  0  0  0  0999 V2000
   -6.0920   17.7390  -34.2290 C   0  0  0  0  0  0  0  0  0  0  0  0
   -5.4000   17.8400  -32.9390 N   0  0  0  0  0  0  0  0  0  0  0  0
   -5.4960   16.7510  -32.0020 C   0  0  0  0  0  0  0  0  0  0  0  0
   -4.9790   15.4630  -32.3540 N   0  0  0  0  0  0  0  0  0  0  0  0
   -6.0710   16.9230  -30.8500 N   0  0  0  0  0  0  0  0  0  0  0  0
   -4.8120   19.0940  -32.5230 C   0  0  0  0  0  0  0  0  0  0  0  0
   -3.4130   19.2980  -32.6500 C   0  0  0  0  0  0  0  0  0  0  0  0
   -2.8210   20.5110  -32.2620 C   0  0  0  0  0  0  0  0  0  0  0  0
   -3.6480   21.5030  -31.7460 C   0  0  0  0  0  0  0  0  0  0  0  0
   -3.3400   22.7740  -31.3150 C   0  0  0  0  0  0  0  0  0  0  0  0
   -4.5520   23.3300  -30.9080 C   0  0  0  0  0  0  0  0  0  0  0  0
   -4.6770   24.6650  -30.2820 C   0  0  0  0  0  0  0  0  0  0  0  0
   -5.4100   24.8350  -29.0680 N   0  0  0  0  0  0  0  0  0  0  0  0
   -4.1600   25.6720  -30.8340 O   0  0  0  0  0  0  0  0  0  0  0  0
   -5.5680   22.4370  -31.0850 N   0  0  0  0  0  0  0  0  0  0  0  0
   -6.9700   22.6440  -30.8410 C   0  0  0  0  0  0  0  0  0  0  0  0
   -7.3480   23.1490  -29.7500 O   0  0  0  0  0  0  0  0  0  0  0  0
   -7.9010   22.2940  -31.8280 O   0  0  0  0  0  0  0  0  0  0  0  0
   -8.9180   21.3410  -31.6780 C   0  0  0  0  0  0  0  0  0  0  0  0
   -9.9450   21.5860  -30.9900 O   0  0  0  0  0  0  0  0  0  0  0  0
   -8.8100   20.0380  -32.4020 C   0  0  0  0  0  0  0  0  0  0  0  0
   -8.3400   19.0700  -31.5340 F   0  0  0  0  0  0  0  0  0  0  0  0
   -7.9380   20.1590  -33.4680 F   0  0  0  0  0  0  0  0  0  0  0  0
  -10.0520   19.6590  -32.8770 F   0  0  0  0  0  0  0  0  0  0  0  0
   -4.9980   21.3250  -31.5990 C   0  0  0  0  0  0  0  0  0  0  0  0
   -5.6170   20.1330  -31.9950 C   0  0  0  0  0  0  0  0  0  0  0  0
   -7.1671   17.5821  -34.0571 H   0  0  0  0  0  0  0  0  0  0  0  0
   -5.9435   18.6683  -34.7985 H   0  0  0  0  0  0  0  0  0  0  0  0
   -5.6841   16.8909  -34.7985 H   0  0  0  0  0  0  0  0  0  0  0  0
   -4.4880   15.3210  -33.2640 H   0  0  0  0  0  0  0  0  0  0  0  0
   -5.0640   14.6540  -31.7000 H   0  0  0  0  0  0  0  0  0  0  0  0
   -6.1470   16.1360  -30.1670 H   0  0  0  0  0  0  0  0  0  0  0  0
   -6.5000   17.8390  -30.5900 H   0  0  0  0  0  0  0  0  0  0  0  0
   -2.7831   18.4940  -33.0584 H   0  0  0  0  0  0  0  0  0  0  0  0
   -1.7375   20.6714  -32.3630 H   0  0  0  0  0  0  0  0  0  0  0  0
   -2.3483   23.2496  -31.2959 H   0  0  0  0  0  0  0  0  0  0  0  0
   -5.5250   25.7880  -28.6560 H   0  0  0  0  0  0  0  0  0  0  0  0
   -5.8050   24.0190  -28.5530 H   0  0  0  0  0  0  0  0  0  0  0  0
   -6.7054   20.0062  -31.8981 H   0  0  0  0  0  0  0  0  0  0  0  0
  1  2  1  0
  2  3  1  0
  3  4  1  0
  3  5  2  0
  2  6  1  0
  6  7  2  0
  7  8  1  0
  8  9  2  0
  9 10  1  0
 10 11  2  0
 11 12  1  0
 12 13  1  0
 12 14  2  0
 11 15  1  0
 15 16  1  0
 16 17  2  0
 16 18  1  0
 18 19  1  0
 19 20  2  0
 19 21  1  0
 21 22  1  0
 21 23  1  0
 21 24  1  0
 15 25  1  0
 25 26  2  0
 26  6  1  0
 25  9  1  0
  1 27  1  0
  1 28  1  0
  1 29  1  0
  4 30  1  0
  4 31  1  0
  5 32  1  0
  5 33  1  0
  7 34  1  0
  8 35  1  0
 10 36  1  0
 13 37  1  0
 13 38  1  0
 26 39  1  0
M  CHG  1   5   1
M  END
>  <UniqueID>  (23) 
23

>  <SMILES>  (23) 
CN(C(N)=[NH2+])c1ccc2cc(C(N)=O)n(C(=O)OC(=O)C(F)(F)F)c2c1

>  <Energy>  (23) 
82.72680632529024

>  <Genealogy>  (23) 
CN(C(N)=[NH2+])c1ccc2cc(C(N)=O)n(C(=O)OC(=O)C(F)(F)F)c2c1 (protonated)
CN(C(N)=[NH2+])c1ccc2cc(C(N)=O)n(C(=O)OC(=O)C(F)(F)F)c2c1 (3D coordinates assigned)
CN(C(N)=[NH2+])c1ccc2cc(C(N)=O)n(C(=O)OC(=O)C(F)(F)F)c2c1 (optimized conformer: 82.72680632529024 kcal/mol)

>  <smiles>  (23) 
CN(C(=N)N)c1ccc2cc(C(N)=O)n(C(=O)OC(=O)C(F)(F)F)c2c1

>  <score_type>  (23) 
oracle

>  <origin>  (23) 
adg

>  <m_score__min__energy>  (23) 
-7.4299999999999997

>  <m_primary>  (23) 
energy

$$$$
23:0
     RDKit          3D

 41 42  0  0  0  0  0  0  0  0999 V2000
   -4.2140   24.3780  -27.2700 C   0  0  0  0  0  0  0  0  0  0  0  0
   -3.5620   24.2520  -28.5790 N   0  0  0  0  0  0  0  0  0  0  0  0
   -2.1810   23.7490  -28.6350 C   0  0  0  0  0  0  0  0  0  0  0  0
   -1.1850   24.8610  -28.2970 C   0  0  0  0  0  0  0  0  0  0  0  0
   -1.2840   25.9120  -29.2210 O   0  0  0  0  0  0  0  0  0  0  0  0
   -4.2760   24.5560  -29.8010 C   0  0  0  0  0  0  0  0  0  0  0  0
   -3.9350   25.5580  -30.4880 O   0  0  0  0  0  0  0  0  0  0  0  0
   -5.4680   23.7470  -30.2540 C   0  0  0  0  0  0  0  0  0  0  0  0
   -5.0540   22.6620  -31.2130 C   0  0  0  0  0  0  0  0  0  0  0  0
   -3.7410   22.6350  -31.7450 C   0  0  0  0  0  0  0  0  0  0  0  0
   -3.3500   21.6230  -32.6390 C   0  0  0  0  0  0  0  0  0  0  0  0
   -4.2850   20.6430  -32.9620 C   0  0  0  0  0  0  0  0  0  0  0  0
   -4.1890   19.5800  -33.8320 C   0  0  0  0  0  0  0  0  0  0  0  0
   -5.4290   18.9500  -33.7820 C   0  0  0  0  0  0  0  0  0  0  0  0
   -5.7670   17.7420  -34.5630 C   0  0  0  0  0  0  0  0  0  0  0  0
   -6.8150   16.8610  -34.1560 N   0  0  0  0  0  0  0  0  0  0  0  0
   -5.0890   17.4600  -35.5870 O   0  0  0  0  0  0  0  0  0  0  0  0
   -6.2610   19.5960  -32.9180 N   0  0  0  0  0  0  0  0  0  0  0  0
   -7.6540   19.3340  -32.6900 C   0  0  0  0  0  0  0  0  0  0  0  0
   -8.5220   19.9160  -33.3940 O   0  0  0  0  0  0  0  0  0  0  0  0
   -8.0880   18.3670  -31.6740 C   0  0  0  0  0  0  0  0  0  0  0  0
   -7.2970   17.4830  -31.2510 O   0  0  0  0  0  0  0  0  0  0  0  0
   -5.5480   20.6370  -32.4310 C   0  0  0  0  0  0  0  0  0  0  0  0
   -5.9740   21.6490  -31.5640 C   0  0  0  0  0  0  0  0  0  0  0  0
   -3.4688   24.2340  -26.4738 H   0  0  0  0  0  0  0  0  0  0  0  0
   -4.6605   25.3790  -27.1776 H   0  0  0  0  0  0  0  0  0  0  0  0
   -5.0013   23.6154  -27.1776 H   0  0  0  0  0  0  0  0  0  0  0  0
   -2.0659   22.9290  -27.9108 H   0  0  0  0  0  0  0  0  0  0  0  0
   -1.9769   23.3899  -29.6545 H   0  0  0  0  0  0  0  0  0  0  0  0
   -1.4004   25.2448  -27.2889 H   0  0  0  0  0  0  0  0  0  0  0  0
   -0.1662   24.4483  -28.3381 H   0  0  0  0  0  0  0  0  0  0  0  0
   -2.0060   25.6660  -29.8570 H   0  0  0  0  0  0  0  0  0  0  0  0
   -5.9450   23.2875  -29.3758 H   0  0  0  0  0  0  0  0  0  0  0  0
   -6.1709   24.4186  -30.7686 H   0  0  0  0  0  0  0  0  0  0  0  0
   -3.0202   23.4139  -31.4555 H   0  0  0  0  0  0  0  0  0  0  0  0
   -2.3379   21.6059  -33.0696 H   0  0  0  0  0  0  0  0  0  0  0  0
   -3.3176   19.2904  -34.4377 H   0  0  0  0  0  0  0  0  0  0  0  0
   -7.0750   16.0470  -34.7560 H   0  0  0  0  0  0  0  0  0  0  0  0
   -7.2640   16.9500  -33.2190 H   0  0  0  0  0  0  0  0  0  0  0  0
   -9.1134   18.4151  -31.2787 H   0  0  0  0  0  0  0  0  0  0  0  0
   -6.9993   21.6558  -31.1657 H   0  0  0  0  0  0  0  0  0  0  0  0
  1  2  1  0
  2  3  1  0
  3  4  1  0
  4  5  1  0
  2  6  1  0
  6  7  2  0
  6  8  1  0
  8  9  1  0
  9 10  2  0
 10 11  1  0
 11 12  2  0
 12 13  1  0
 13 14  2  0
 14 15  1  0
 15 16  1  0
 15 17  2  0
 14 18  1  0
 18 19  1  0
 19 20  2  0
 19 21  1  0
 21 22  2  0
 18 23  1  0
 23 24  2  0
 24  9  1  0
 23 12  1  0
  1 25  1  0
  1 26  1  0
  1 27  1  0
  3 28  1  0
  3 29  1  0
  4 30  1  0
  4 31  1  0
  5 32  1  0
  8 33  1  0
  8 34  1  0
 10 35  1  0
 11 36  1  0
 13 37  1  0
 16 38  1  0
 16 39  1  0
 21 40  1  0
 24 41  1  0
M  END
>  <UniqueID>  (24) 
24

>  <SMILES>  (24) 
CN(CCO)C(=O)Cc1ccc2cc(C(N)=O)n(C(=O)C=O)c2c1

>  <Energy>  (24) 
76.86721279948237

>  <Genealogy>  (24) 
CN(CCO)C(=O)Cc1ccc2cc(C(N)=O)n(C(=O)C=O)c2c1 (3D coordinates assigned)
CN(CCO)C(=O)Cc1ccc2cc(C(N)=O)n(C(=O)C=O)c2c1 (optimized conformer: 76.86721279948237 kcal/mol)

>  <smiles>  (24) 
CN(CCO)C(=O)Cc1ccc2cc(C(N)=O)n(C(=O)C=O)c2c1

>  <score_type>  (24) 
oracle

>  <origin>  (24) 
adg

>  <m_score__min__energy>  (24) 
-8.5

>  <m_primary>  (24) 
energy

$$$$
24:0
     RDKit          3D

 35 36  0  0  0  0  0  0  0  0999 V2000
   -2.6310   21.1420  -27.5260 C   0  0  0  0  0  0  0  0  0  0  0  0
   -3.3980   22.0340  -28.4050 N   0  0  0  0  0  0  0  0  0  0  0  0
   -3.9960   23.2530  -27.8480 C   0  0  0  0  0  0  0  0  0  0  0  0
   -3.5980   21.6400  -29.7830 C   0  0  0  0  0  0  0  0  0  0  0  0
   -3.3540   20.4490  -30.1190 O   0  0  0  0  0  0  0  0  0  0  0  0
   -4.0880   22.5690  -30.8310 C   0  0  0  0  0  0  0  0  0  0  0  0
   -3.2880   23.1760  -31.5920 O   0  0  0  0  0  0  0  0  0  0  0  0
   -5.4970   22.7870  -30.9970 N   0  0  0  0  0  0  0  0  0  0  0  0
   -6.1750   23.9640  -30.8790 C   0  0  0  0  0  0  0  0  0  0  0  0
   -5.5780   25.2450  -30.4290 C   0  0  0  0  0  0  0  0  0  0  0  0
   -4.2380   25.5980  -30.7780 N   0  0  0  0  0  0  0  0  0  0  0  0
   -6.2590   26.0540  -29.7450 O   0  0  0  0  0  0  0  0  0  0  0  0
   -7.5240   23.7730  -31.1800 C   0  0  0  0  0  0  0  0  0  0  0  0
   -7.6440   22.4390  -31.4980 C   0  0  0  0  0  0  0  0  0  0  0  0
   -8.7600   21.7090  -31.8980 C   0  0  0  0  0  0  0  0  0  0  0  0
   -8.5850   20.3450  -32.1890 C   0  0  0  0  0  0  0  0  0  0  0  0
   -7.3080   19.7320  -32.0650 C   0  0  0  0  0  0  0  0  0  0  0  0
   -7.1160   18.2700  -32.3920 C   0  0  0  0  0  0  0  0  0  0  0  0
   -6.6760   18.1000  -33.6950 F   0  0  0  0  0  0  0  0  0  0  0  0
   -6.1830   17.7270  -31.5280 F   0  0  0  0  0  0  0  0  0  0  0  0
   -8.3130   17.5930  -32.2480 F   0  0  0  0  0  0  0  0  0  0  0  0
   -6.1970   20.5130  -31.6740 C   0  0  0  0  0  0  0  0  0  0  0  0
   -6.4050   21.8650  -31.3820 C   0  0  0  0  0  0  0  0  0  0  0  0
   -2.8442   21.3900  -26.4757 H   0  0  0  0  0  0  0  0  0  0  0  0
   -2.9181   20.0984  -27.7219 H   0  0  0  0  0  0  0  0  0  0  0  0
   -1.5561   21.2695  -27.7219 H   0  0  0  0  0  0  0  0  0  0  0  0
   -3.9720   23.2042  -26.7493 H   0  0  0  0  0  0  0  0  0  0  0  0
   -3.4257   24.1298  -28.1886 H   0  0  0  0  0  0  0  0  0  0  0  0
   -5.0384   23.3387  -28.1886 H   0  0  0  0  0  0  0  0  0  0  0  0
   -3.5910   24.9210  -31.2400 H   0  0  0  0  0  0  0  0  0  0  0  0
   -3.8670   26.5370  -30.5130 H   0  0  0  0  0  0  0  0  0  0  0  0
   -8.3230   24.5289  -31.1661 H   0  0  0  0  0  0  0  0  0  0  0  0
   -9.7480   22.1849  -31.9837 H   0  0  0  0  0  0  0  0  0  0  0  0
   -9.4464   19.7445  -32.5166 H   0  0  0  0  0  0  0  0  0  0  0  0
   -5.1934   20.0686  -31.6011 H   0  0  0  0  0  0  0  0  0  0  0  0
  1  2  1  0
  2  3  1  0
  2  4  1  0
  4  5  2  0
  4  6  1  0
  6  7  2  0
  6  8  1  0
  8  9  1  0
  9 10  1  0
 10 11  1  0
 10 12  2  0
  9 13  2  0
 13 14  1  0
 14 15  2  0
 15 16  1  0
 16 17  2  0
 17 18  1  0
 18 19  1  0
 18 20  1  0
 18 21  1  0
 17 22  1  0
 22 23  2  0
 23  8  1  0
 23 14  1  0
  1 24  1  0
  1 25  1  0
  1 26  1  0
  3 27  1  0
  3 28  1  0
  3 29  1  0
 11 30  1  0
 11 31  1  0
 13 32  1  0
 15 33  1  0
 16 34  1  0
 22 35  1  0
M  END
>  <UniqueID>  (25) 
25

>  <SMILES>  (25) 
CN(C)C(=O)C(=O)n1c(C(N)=O)cc2ccc(C(F)(F)F)cc21

>  <Energy>  (25) 
75.92025306071673

>  <Genealogy>  (25) 
CN(C)C(=O)C(=O)n1c(C(N)=O)cc2ccc(C(F)(F)F)cc21 (3D coordinates assigned)
CN(C)C(=O)C(=O)n1c(C(N)=O)cc2ccc(C(F)(F)F)cc21 (optimized conformer: 75.92025306071673 kcal/mol)

>  <smiles>  (25) 
CN(C)C(=O)C(=O)n1c(C(N)=O)cc2ccc(C(F)(F)F)cc21

>  <score_type>  (25) 
oracle

>  <origin>  (25) 
adg

>  <m_score__min__energy>  (25) 
-7.8899999999999997

>  <m_primary>  (25) 
energy

$$$$
25:0
     RDKit          3D

 53 56  0  0  0  0  0  0  0  0999 V2000
   -1.8270   21.2700  -31.7420 C   0  0  0  0  0  0  0  0  0  0  0  0
   -2.9410   21.9420  -32.0540 C   0  0  0  0  0  0  0  0  0  0  0  0
   -3.4840   21.8620  -33.4540 C   0  0  0  0  0  0  0  0  0  0  0  0
   -3.6820   22.7010  -31.0150 C   0  0  0  0  0  0  0  0  0  0  0  0
   -3.0720   23.1800  -30.0190 O   0  0  0  0  0  0  0  0  0  0  0  0
   -5.0990   22.8940  -31.1220 N   0  0  0  0  0  0  0  0  0  0  0  0
   -5.8110   24.0170  -30.8250 C   0  0  0  0  0  0  0  0  0  0  0  0
   -5.2350   25.3230  -30.4440 C   0  0  0  0  0  0  0  0  0  0  0  0
   -3.9120   25.6620  -30.8520 N   0  0  0  0  0  0  0  0  0  0  0  0
   -5.8920   26.1370  -29.7430 O   0  0  0  0  0  0  0  0  0  0  0  0
   -7.1810   23.7800  -30.9740 C   0  0  0  0  0  0  0  0  0  0  0  0
   -7.2820   22.4620  -31.3640 C   0  0  0  0  0  0  0  0  0  0  0  0
   -8.4060   21.6870  -31.6360 C   0  0  0  0  0  0  0  0  0  0  0  0
   -8.2060   20.3420  -31.9960 C   0  0  0  0  0  0  0  0  0  0  0  0
   -6.9000   19.8040  -32.0740 C   0  0  0  0  0  0  0  0  0  0  0  0
   -6.7080   18.4410  -32.4560 N   0  0  0  0  0  0  0  0  0  0  0  0
   -5.8850   17.2950  -32.0190 C   0  0  0  0  0  0  0  0  0  0  0  0
   -6.3900   16.3300  -33.0670 C   0  0  0  0  0  0  0  0  0  0  0  0
   -5.4960   15.9100  -34.1860 N   0  0  0  0  0  0  0  0  0  0  0  0
   -4.4440   14.9800  -33.7180 C   0  0  0  0  0  0  0  0  0  0  0  0
   -3.3250   15.7130  -32.9480 C   0  0  0  0  0  0  0  0  0  0  0  0
   -2.7280   16.8670  -33.7700 C   0  0  0  0  0  0  0  0  0  0  0  0
   -1.9750   16.3600  -34.8410 O   0  0  0  0  0  0  0  0  0  0  0  0
   -3.8420   17.7800  -34.3040 C   0  0  0  0  0  0  0  0  0  0  0  0
   -4.9090   16.9620  -35.0480 C   0  0  0  0  0  0  0  0  0  0  0  0
   -7.2180   17.5120  -33.4810 C   0  0  0  0  0  0  0  0  0  0  0  0
   -5.7830   20.6140  -31.7830 C   0  0  0  0  0  0  0  0  0  0  0  0
   -6.0110   21.9510  -31.4420 C   0  0  0  0  0  0  0  0  0  0  0  0
   -1.4213   21.3217  -30.7209 H   0  0  0  0  0  0  0  0  0  0  0  0
   -1.3168   20.6658  -32.5066 H   0  0  0  0  0  0  0  0  0  0  0  0
   -4.5716   21.7018  -33.4168 H   0  0  0  0  0  0  0  0  0  0  0  0
   -3.2697   22.8014  -33.9846 H   0  0  0  0  0  0  0  0  0  0  0  0
   -3.0079   21.0243  -33.9846 H   0  0  0  0  0  0  0  0  0  0  0  0
   -3.0810   25.2990  -30.3380 H   0  0  0  0  0  0  0  0  0  0  0  0
   -8.0029   24.4934  -30.8140 H   0  0  0  0  0  0  0  0  0  0  0  0
   -9.4182   22.1128  -31.5715 H   0  0  0  0  0  0  0  0  0  0  0  0
   -9.0730   19.7027  -32.2189 H   0  0  0  0  0  0  0  0  0  0  0  0
   -4.8057   17.4894  -32.1050 H   0  0  0  0  0  0  0  0  0  0  0  0
   -5.9735   16.9854  -30.9672 H   0  0  0  0  0  0  0  0  0  0  0  0
   -6.7255   15.3239  -32.7750 H   0  0  0  0  0  0  0  0  0  0  0  0
   -4.9012   14.2321  -33.0535 H   0  0  0  0  0  0  0  0  0  0  0  0
   -3.9932   14.5046  -34.6016 H   0  0  0  0  0  0  0  0  0  0  0  0
   -3.7421   16.1192  -32.0147 H   0  0  0  0  0  0  0  0  0  0  0  0
   -2.5224   14.9899  -32.7405 H   0  0  0  0  0  0  0  0  0  0  0  0
   -2.0705   17.4564  -33.1140 H   0  0  0  0  0  0  0  0  0  0  0  0
   -2.6140   15.9370  -35.4720 H   0  0  0  0  0  0  0  0  0  0  0  0
   -4.3136   18.3048  -33.4601 H   0  0  0  0  0  0  0  0  0  0  0  0
   -3.3994   18.5026  -35.0055 H   0  0  0  0  0  0  0  0  0  0  0  0
   -5.7102   17.6392  -35.3789 H   0  0  0  0  0  0  0  0  0  0  0  0
   -4.4266   16.4711  -35.9061 H   0  0  0  0  0  0  0  0  0  0  0  0
   -6.9942   17.8473  -34.5045 H   0  0  0  0  0  0  0  0  0  0  0  0
   -8.3075   17.3658  -33.5211 H   0  0  0  0  0  0  0  0  0  0  0  0
   -4.7622   20.2062  -31.8230 H   0  0  0  0  0  0  0  0  0  0  0  0
  1  2  2  0
  2  3  1  0
  2  4  1  0
  4  5  2  0
  4  6  1  0
  6  7  1  0
  7  8  1  0
  8  9  1  0
  8 10  2  0
  7 11  2  0
 11 12  1  0
 12 13  2  0
 13 14  1  0
 14 15  2  0
 15 16  1  0
 16 17  1  0
 17 18  1  0
 18 19  1  0
 19 20  1  0
 20 21  1  0
 21 22  1  0
 22 23  1  0
 22 24  1  0
 24 25  1  0
 18 26  1  0
 15 27  1  0
 27 28  2  0
 28  6  1  0
 28 12  1  0
 26 16  1  0
 25 19  1  0
  1 29  1  0
  1 30  1  0
  3 31  1  0
  3 32  1  0
  3 33  1  0
  9 34  1  0
 11 35  1  0
 13 36  1  0
 14 37  1  0
 17 38  1  0
 17 39  1  0
 18 40  1  0
 20 41  1  0
 20 42  1  0
 21 43  1  0
 21 44  1  0
 22 45  1  0
 23 46  1  0
 24 47  1  0
 24 48  1  0
 25 49  1  0
 25 50  1  0
 26 51  1  0
 26 52  1  0
 27 53  1  0
M  CHG  1   9  -1
M  END
>  <UniqueID>  (26) 
26

>  <SMILES>  (26) 
C=C(C)C(=O)n1c(C([NH-])=O)cc2ccc(N3CC(N4CCC(O)CC4)C3)cc21

>  <Energy>  (26) 
148.19791984486622

>  <Genealogy>  (26) 
C=C(C)C(=O)n1c(C([NH-])=O)cc2ccc(N3CC(N4CCC(O)CC4)C3)cc21 (protonated)
C=C(C)C(=O)n1c(C([NH-])=O)cc2ccc(N3CC(N4CCC(O)CC4)C3)cc21 (3D coordinates assigned)
C=C(C)C(=O)n1c(C([NH-])=O)cc2ccc(N3CC(N4CCC(O)CC4)C3)cc21 (nonaromatic ring conformer: 148.19791984486622 kcal/mol)

>  <smiles>  (26) 
C=C(C)C(=O)n1c(C(N)=O)cc2ccc(N3CC(N4CCC(O)CC4)C3)cc21

>  <score_type>  (26) 
oracle

>  <origin>  (26) 
adg

>  <m_score__min__energy>  (26) 
-11.65

>  <m_primary>  (26) 
energy

$$$$
26:0
     RDKit          3D

 37 38  0  0  0  0  0  0  0  0999 V2000
   -3.6850   18.5220  -33.5450 C   0  0  0  0  0  0  0  0  0  0  0  0
   -5.4310   17.9280  -33.8450 Si  0  0  0  0  0  4  0  0  0  0  0  0
   -5.3930   16.1090  -34.2730 C   0  0  0  0  0  0  0  0  0  0  0  0
   -6.1040   18.8050  -35.1580 O   0  0  0  0  0  0  0  0  0  0  0  0
   -6.4790   18.2090  -32.3150 C   0  0  0  0  0  0  0  0  0  0  0  0
   -6.7060   19.6770  -32.0850 C   0  0  0  0  0  0  0  0  0  0  0  0
   -8.0020   20.2290  -32.2480 C   0  0  0  0  0  0  0  0  0  0  0  0
   -8.2370   21.5900  -31.9900 C   0  0  0  0  0  0  0  0  0  0  0  0
   -7.1630   22.3690  -31.5720 C   0  0  0  0  0  0  0  0  0  0  0  0
   -7.1180   23.6990  -31.2230 C   0  0  0  0  0  0  0  0  0  0  0  0
   -5.7930   23.9440  -30.8650 C   0  0  0  0  0  0  0  0  0  0  0  0
   -5.2830   25.2810  -30.4970 C   0  0  0  0  0  0  0  0  0  0  0  0
   -3.9640   25.6670  -30.8750 N   0  0  0  0  0  0  0  0  0  0  0  0
   -5.9870   26.0740  -29.8170 O   0  0  0  0  0  0  0  0  0  0  0  0
   -5.0490   22.8090  -30.9840 N   0  0  0  0  0  0  0  0  0  0  0  0
   -3.6670   22.6240  -30.6370 C   0  0  0  0  0  0  0  0  0  0  0  0
   -2.9360   21.8870  -31.3530 O   0  0  0  0  0  0  0  0  0  0  0  0
   -3.1540   23.2460  -29.4900 O   0  0  0  0  0  0  0  0  0  0  0  0
   -1.8960   23.8550  -29.4010 C   0  0  0  0  0  0  0  0  0  0  0  0
   -0.8350   23.1770  -29.4260 O   0  0  0  0  0  0  0  0  0  0  0  0
   -1.8190   25.2360  -29.2840 O   0  0  0  0  0  0  0  0  0  0  0  0
   -5.9010   21.8540  -31.4220 C   0  0  0  0  0  0  0  0  0  0  0  0
   -5.6400   20.4990  -31.6580 C   0  0  0  0  0  0  0  0  0  0  0  0
   -3.5000   18.5849  -32.4625 H   0  0  0  0  0  0  0  0  0  0  0  0
   -2.9743   17.8151  -33.9979 H   0  0  0  0  0  0  0  0  0  0  0  0
   -3.5528   19.5157  -33.9979 H   0  0  0  0  0  0  0  0  0  0  0  0
   -5.3806   15.5147  -33.3474 H   0  0  0  0  0  0  0  0  0  0  0  0
   -6.2860   15.8521  -34.8617 H   0  0  0  0  0  0  0  0  0  0  0  0
   -4.4901   15.8896  -34.8617 H   0  0  0  0  0  0  0  0  0  0  0  0
   -6.9250   19.2180  -34.7910 H   0  0  0  0  0  0  0  0  0  0  0  0
   -7.4505   17.7103  -32.4469 H   0  0  0  0  0  0  0  0  0  0  0  0
   -5.9501   17.7936  -31.4445 H   0  0  0  0  0  0  0  0  0  0  0  0
   -8.8307   19.5860  -32.5794 H   0  0  0  0  0  0  0  0  0  0  0  0
   -9.2392   22.0260  -32.1147 H   0  0  0  0  0  0  0  0  0  0  0  0
   -7.9512   24.4172  -31.2258 H   0  0  0  0  0  0  0  0  0  0  0  0
   -3.1280   25.2450  -30.4130 H   0  0  0  0  0  0  0  0  0  0  0  0
   -4.6309   20.0854  -31.5146 H   0  0  0  0  0  0  0  0  0  0  0  0
  1  2  1  0
  2  3  1  0
  2  4  1  0
  2  5  1  0
  5  6  1  0
  6  7  2  0
  7  8  1  0
  8  9  2  0
  9 10  1  0
 10 11  2  0
 11 12  1  0
 12 13  1  0
 12 14  2  0
 11 15  1  0
 15 16  1  0
 16 17  2  0
 16 18  1  0
 18 19  1  0
 19 20  2  0
 19 21  1  0
 15 22  1  0
 22 23  2  0
 23  6  1  0
 22  9  1  0
  1 24  1  0
  1 25  1  0
  1 26  1  0
  3 27  1  0
  3 28  1  0
  3 29  1  0
  4 30  1  0
  5 31  1  0
  5 32  1  0
  7 33  1  0
  8 34  1  0
 10 35  1  0
 13 36  1  0
 23 37  1  0
M  CHG  2  13  -1  21  -1
M  END
>  <UniqueID>  (27) 
27

>  <SMILES>  (27) 
C[Si](C)(O)Cc1ccc2cc(C([NH-])=O)n(C(=O)OC(=O)[O-])c2c1

>  <Energy>  (27) 
62.44695409454086

>  <Genealogy>  (27) 
C[Si](C)(O)Cc1ccc2cc(C([NH-])=O)n(C(=O)OC(=O)[O-])c2c1 (protonated)
C[Si](C)(O)Cc1ccc2cc(C([NH-])=O)n(C(=O)OC(=O)[O-])c2c1 (3D coordinates assigned)
C[Si](C)(O)Cc1ccc2cc(C([NH-])=O)n(C(=O)OC(=O)[O-])c2c1 (optimized conformer: 62.44695409454086 kcal/mol)

>  <smiles>  (27) 
C[Si](C)(O)Cc1ccc2cc(C(N)=O)n(C(=O)OC(=O)O)c2c1

>  <score_type>  (27) 
oracle

>  <origin>  (27) 
adg

>  <m_score__min__energy>  (27) 
-11.359999999999999

>  <m_primary>  (27) 
energy

$$$$
27:0
     RDKit          3D

 42 43  0  0  0  0  0  0  0  0999 V2000
   -6.8470   17.2450  -33.0710 C   0  0  0  0  0  0  0  0  0  0  0  0
   -7.0260   18.3880  -32.7300 C   0  0  0  0  0  0  0  0  0  0  0  0
   -7.2380   19.7520  -32.3230 C   0  0  0  0  0  0  0  0  0  0  0  0
   -8.5510   20.2760  -32.2710 C   0  0  0  0  0  0  0  0  0  0  0  0
   -8.7730   21.6040  -31.8640 C   0  0  0  0  0  0  0  0  0  0  0  0
   -7.6640   22.3720  -31.5180 C   0  0  0  0  0  0  0  0  0  0  0  0
   -7.5880   23.6750  -31.0740 C   0  0  0  0  0  0  0  0  0  0  0  0
   -6.2290   23.9130  -30.8590 C   0  0  0  0  0  0  0  0  0  0  0  0
   -5.6550   25.1960  -30.3880 C   0  0  0  0  0  0  0  0  0  0  0  0
   -4.2850   25.5280  -30.6310 N   0  0  0  0  0  0  0  0  0  0  0  0
   -6.3760   26.0150  -29.7600 O   0  0  0  0  0  0  0  0  0  0  0  0
   -5.5040   22.8020  -31.1610 N   0  0  0  0  0  0  0  0  0  0  0  0
   -4.0870   22.6170  -31.0420 C   0  0  0  0  0  0  0  0  0  0  0  0
   -3.3530   22.8510  -32.0410 O   0  0  0  0  0  0  0  0  0  0  0  0
   -3.5050   22.1470  -29.8090 N   0  0  0  0  0  0  0  0  0  0  0  0
   -2.9110   20.8070  -29.7640 C   0  0  0  0  0  0  0  0  0  0  0  0
   -3.5260   22.9880  -28.6020 C   0  0  0  0  0  0  0  0  0  0  0  0
   -2.3500   23.9320  -28.5910 C   0  0  0  0  0  0  0  0  0  0  0  0
   -2.3850   24.9350  -29.3570 O   0  0  0  0  0  0  0  0  0  0  0  0
   -1.2200   23.7490  -27.7090 N   0  0  0  0  0  0  0  0  0  0  0  0
   -1.2160   22.6990  -26.6860 C   0  0  0  0  0  0  0  0  0  0  0  0
   -0.0700   24.6520  -27.8330 C   0  0  0  0  0  0  0  0  0  0  0  0
   -6.3910   21.8730  -31.5670 C   0  0  0  0  0  0  0  0  0  0  0  0
   -6.1380   20.5570  -31.9660 C   0  0  0  0  0  0  0  0  0  0  0  0
   -6.6838   16.2026  -33.3820 H   0  0  0  0  0  0  0  0  0  0  0  0
   -9.4042   19.6406  -32.5508 H   0  0  0  0  0  0  0  0  0  0  0  0
   -9.7894   22.0223  -31.8204 H   0  0  0  0  0  0  0  0  0  0  0  0
   -8.4206   24.3775  -30.9216 H   0  0  0  0  0  0  0  0  0  0  0  0
   -3.8940   26.4260  -30.2650 H   0  0  0  0  0  0  0  0  0  0  0  0
   -3.6630   24.9150  -31.2000 H   0  0  0  0  0  0  0  0  0  0  0  0
   -2.7754   20.5010  -28.7161 H   0  0  0  0  0  0  0  0  0  0  0  0
   -3.5771   20.0934  -30.2710 H   0  0  0  0  0  0  0  0  0  0  0  0
   -1.9349   20.8214  -30.2710 H   0  0  0  0  0  0  0  0  0  0  0  0
   -4.4581   23.5718  -28.5846 H   0  0  0  0  0  0  0  0  0  0  0  0
   -3.4668   22.3381  -27.7165 H   0  0  0  0  0  0  0  0  0  0  0  0
   -1.2178   23.1601  -25.6873 H   0  0  0  0  0  0  0  0  0  0  0  0
   -2.1118   22.0711  -26.8015 H   0  0  0  0  0  0  0  0  0  0  0  0
   -0.3155   22.0779  -26.8015 H   0  0  0  0  0  0  0  0  0  0  0  0
    0.2863   24.9318  -26.8306 H   0  0  0  0  0  0  0  0  0  0  0  0
    0.7376   24.1442  -28.3807 H   0  0  0  0  0  0  0  0  0  0  0  0
   -0.3718   25.5570  -28.3807 H   0  0  0  0  0  0  0  0  0  0  0  0
   -5.1118   20.1623  -32.0001 H   0  0  0  0  0  0  0  0  0  0  0  0
  1  2  3  0
  2  3  1  0
  3  4  2  0
  4  5  1  0
  5  6  2  0
  6  7  1  0
  7  8  2  0
  8  9  1  0
  9 10  1  0
  9 11  2  0
  8 12  1  0
 12 13  1  0
 13 14  2  0
 13 15  1  0
 15 16  1  0
 15 17  1  0
 17 18  1  0
 18 19  2  0
 18 20  1  0
 20 21  1  0
 20 22  1  0
 12 23  1  0
 23 24  2  0
 24  3  1  0
 23  6  1  0
  1 25  1  0
  4 26  1  0
  5 27  1  0
  7 28  1  0
 10 29  1  0
 10 30  1  0
 16 31  1  0
 16 32  1  0
 16 33  1  0
 17 34  1  0
 17 35  1  0
 21 36  1  0
 21 37  1  0
 21 38  1  0
 22 39  1  0
 22 40  1  0
 22 41  1  0
 24 42  1  0
M  END
>  <UniqueID>  (28) 
28

>  <SMILES>  (28) 
C#Cc1ccc2cc(C(N)=O)n(C(=O)N(C)CC(=O)N(C)C)c2c1

>  <Energy>  (28) 
71.66733020351735

>  <Genealogy>  (28) 
C#Cc1ccc2cc(C(N)=O)n(C(=O)N(C)CC(=O)N(C)C)c2c1 (3D coordinates assigned)
C#Cc1ccc2cc(C(N)=O)n(C(=O)N(C)CC(=O)N(C)C)c2c1 (optimized conformer: 71.66733020351735 kcal/mol)

>  <smiles>  (28) 
C#Cc1ccc2cc(C(N)=O)n(C(=O)N(C)CC(=O)N(C)C)c2c1

>  <score_type>  (28) 
oracle

>  <origin>  (28) 
adg

>  <m_score__min__energy>  (28) 
-9.4000000000000004

>  <m_primary>  (28) 
energy

$$$$
28:0
     RDKit          3D

 35 36  0  0  0  0  0  0  0  0999 V2000
   -6.7130   18.2860  -32.8200 C   0  0  0  0  0  0  0  0  0  0  0  0
   -6.9780   19.6860  -32.3540 C   0  0  0  0  0  0  0  0  0  0  0  0
   -8.3040   20.1850  -32.3180 C   0  0  0  0  0  0  0  0  0  0  0  0
   -8.5620   21.5030  -31.9050 C   0  0  0  0  0  0  0  0  0  0  0  0
   -7.4760   22.3010  -31.5550 C   0  0  0  0  0  0  0  0  0  0  0  0
   -7.4380   23.5980  -31.0940 C   0  0  0  0  0  0  0  0  0  0  0  0
   -6.0870   23.8790  -30.8950 C   0  0  0  0  0  0  0  0  0  0  0  0
   -5.5850   25.1920  -30.4420 C   0  0  0  0  0  0  0  0  0  0  0  0
   -4.2160   25.5630  -30.6110 N   0  0  0  0  0  0  0  0  0  0  0  0
   -6.3880   26.0190  -29.9330 O   0  0  0  0  0  0  0  0  0  0  0  0
   -5.3240   22.7970  -31.2110 N   0  0  0  0  0  0  0  0  0  0  0  0
   -3.9100   22.6290  -31.0290 C   0  0  0  0  0  0  0  0  0  0  0  0
   -3.1190   22.9370  -31.9620 O   0  0  0  0  0  0  0  0  0  0  0  0
   -3.3720   21.9780  -29.7910 C   0  0  0  0  0  0  0  0  0  0  0  0
   -2.9280   23.0070  -28.8440 N   0  0  0  0  0  0  0  0  0  0  0  0
   -3.4390   23.0000  -27.4690 C   0  0  0  0  0  0  0  0  0  0  0  0
   -1.9080   23.9520  -29.2180 C   0  0  0  0  0  0  0  0  0  0  0  0
   -0.7260   23.5650  -29.4290 O   0  0  0  0  0  0  0  0  0  0  0  0
   -2.2100   25.3020  -29.3510 O   0  0  0  0  0  0  0  0  0  0  0  0
   -6.1860   21.8400  -31.6130 C   0  0  0  0  0  0  0  0  0  0  0  0
   -5.9010   20.5280  -32.0030 C   0  0  0  0  0  0  0  0  0  0  0  0
   -6.5882   17.6268  -31.9483 H   0  0  0  0  0  0  0  0  0  0  0  0
   -7.5606   17.9349  -33.4268 H   0  0  0  0  0  0  0  0  0  0  0  0
   -5.7957   18.2690  -33.4268 H   0  0  0  0  0  0  0  0  0  0  0  0
   -9.1392   19.5342  -32.6162 H   0  0  0  0  0  0  0  0  0  0  0  0
   -9.5898   21.8922  -31.8596 H   0  0  0  0  0  0  0  0  0  0  0  0
   -8.2918   24.2694  -30.9198 H   0  0  0  0  0  0  0  0  0  0  0  0
   -3.5650   24.9880  -31.1880 H   0  0  0  0  0  0  0  0  0  0  0  0
   -3.8710   26.4730  -30.2310 H   0  0  0  0  0  0  0  0  0  0  0  0
   -4.1611   21.3690  -29.3258 H   0  0  0  0  0  0  0  0  0  0  0  0
   -2.5193   21.3365  -30.0580 H   0  0  0  0  0  0  0  0  0  0  0  0
   -2.5947   23.0116  -26.7640 H   0  0  0  0  0  0  0  0  0  0  0  0
   -4.0650   23.8897  -27.3060 H   0  0  0  0  0  0  0  0  0  0  0  0
   -4.0404   22.0935  -27.3060 H   0  0  0  0  0  0  0  0  0  0  0  0
   -4.8644   20.1615  -32.0354 H   0  0  0  0  0  0  0  0  0  0  0  0
  1  2  1  0
  2  3  2  0
  3  4  1  0
  4  5  2  0
  5  6  1  0
  6  7  2  0
  7  8  1  0
  8  9  1  0
  8 10  2  0
  7 11  1  0
 11 12  1  0
 12 13  2  0
 12 14  1  0
 14 15  1  0
 15 16  1  0
 15 17  1  0
 17 18  2  0
 17 19  1  0
 11 20  1  0
 20 21  2  0
 21  2  1  0
 20  5  1  0
  1 22  1  0
  1 23  1  0
  1 24  1  0
  3 25  1  0
  4 26  1  0
  6 27  1  0
  9 28  1  0
  9 29  1  0
 14 30  1  0
 14 31  1  0
 16 32  1  0
 16 33  1  0
 16 34  1  0
 21 35  1  0
M  CHG  1  19  -1
M  END
>  <UniqueID>  (29) 
29

>  <SMILES>  (29) 
Cc1ccc2cc(C(N)=O)n(C(=O)CN(C)C(=O)[O-])c2c1

>  <Energy>  (29) 
70.66840549091566

>  <Genealogy>  (29) 
Cc1ccc2cc(C(N)=O)n(C(=O)CN(C)C(=O)[O-])c2c1 (protonated)
Cc1ccc2cc(C(N)=O)n(C(=O)CN(C)C(=O)[O-])c2c1 (3D coordinates assigned)
Cc1ccc2cc(C(N)=O)n(C(=O)CN(C)C(=O)[O-])c2c1 (optimized conformer: 70.66840549091566 kcal/mol)

>  <smiles>  (29) 
Cc1ccc2cc(C(N)=O)n(C(=O)CN(C)C(=O)O)c2c1

>  <score_type>  (29) 
oracle

>  <origin>  (29) 
adg

>  <m_score__min__energy>  (29) 
-10.140000000000001

>  <m_primary>  (29) 
energy

$$$$
29:0
     RDKit          3D

 37 39  0  0  0  0  0  0  0  0999 V2000
   -0.0440   17.4860  -31.7450 N   0  0  0  0  0  0  0  0  0  0  0  0
    0.2570   17.6170  -30.3590 C   0  0  0  0  0  0  0  0  0  0  0  0
    0.9210   16.7130  -29.7840 O   0  0  0  0  0  0  0  0  0  0  0  0
   -0.2300   18.7750  -29.5800 C   0  0  0  0  0  0  0  0  0  0  0  0
   -0.2180   18.8290  -28.1870 C   0  0  0  0  0  0  0  0  0  0  0  0
   -0.8040   20.0310  -27.8620 C   0  0  0  0  0  0  0  0  0  0  0  0
   -1.0390   20.6090  -26.6180 C   0  0  0  0  0  0  0  0  0  0  0  0
   -1.6390   21.8790  -26.5830 C   0  0  0  0  0  0  0  0  0  0  0  0
   -1.9910   22.5430  -27.7850 C   0  0  0  0  0  0  0  0  0  0  0  0
   -2.5960   23.9190  -27.7370 C   0  0  0  0  0  0  0  0  0  0  0  0
   -1.9960   24.9170  -29.1340 P   0  0  0  0  0  0  0  0  0  0  0  0
   -0.7630   24.2780  -29.7280 O   0  0  0  0  0  0  0  0  0  0  0  0
   -1.6130   26.4700  -28.5850 O   0  0  0  0  0  0  0  0  0  0  0  0
   -3.2000   25.0240  -30.3180 O   0  0  0  0  0  0  0  0  0  0  0  0
   -1.7270   21.9320  -29.0290 C   0  0  0  0  0  0  0  0  0  0  0  0
   -1.1430   20.6600  -29.0320 C   0  0  0  0  0  0  0  0  0  0  0  0
   -0.8000   19.9000  -30.0940 N   0  0  0  0  0  0  0  0  0  0  0  0
   -0.9240   20.2690  -31.4780 C   0  0  0  0  0  0  0  0  0  0  0  0
    0.1200   20.4500  -32.1600 O   0  0  0  0  0  0  0  0  0  0  0  0
   -2.2540   20.4800  -32.1040 C   0  0  0  0  0  0  0  0  0  0  0  0
   -2.8280   21.7600  -32.0780 C   0  0  0  0  0  0  0  0  0  0  0  0
   -4.0870   21.9670  -32.6360 C   0  0  0  0  0  0  0  0  0  0  0  0
   -4.7560   20.9350  -33.2100 N   0  0  0  0  0  0  0  0  0  0  0  0
   -4.2330   19.6820  -33.2700 C   0  0  0  0  0  0  0  0  0  0  0  0
   -5.4010   18.1850  -34.2020 I   0  0  0  0  0  0  0  0  0  0  0  0
   -2.9580   19.4260  -32.7250 C   0  0  0  0  0  0  0  0  0  0  0  0
   -2.3790   18.1580  -32.8090 O   0  0  0  0  0  0  0  0  0  0  0  0
   -0.2540   18.3250  -32.3310 H   0  0  0  0  0  0  0  0  0  0  0  0
    0.1765   18.0711  -27.4942 H   0  0  0  0  0  0  0  0  0  0  0  0
   -0.7632   20.0871  -25.6898 H   0  0  0  0  0  0  0  0  0  0  0  0
   -1.8373   22.3621  -25.6148 H   0  0  0  0  0  0  0  0  0  0  0  0
   -3.6915   23.8366  -27.7932 H   0  0  0  0  0  0  0  0  0  0  0  0
   -2.3043   24.4071  -26.7954 H   0  0  0  0  0  0  0  0  0  0  0  0
   -1.9737   22.4420  -29.9719 H   0  0  0  0  0  0  0  0  0  0  0  0
   -2.2846   22.5984  -31.6177 H   0  0  0  0  0  0  0  0  0  0  0  0
   -4.5402   22.9690  -32.6115 H   0  0  0  0  0  0  0  0  0  0  0  0
   -1.4850   17.9280  -32.3970 H   0  0  0  0  0  0  0  0  0  0  0  0
  1  2  1  0
  2  3  2  0
  2  4  1  0
  4  5  2  0
  5  6  1  0
  6  7  2  0
  7  8  1  0
  8  9  2  0
  9 10  1  0
 10 11  1  0
 11 12  2  0
 11 13  1  0
 11 14  1  0
  9 15  1  0
 15 16  2  0
 16 17  1  0
 17 18  1  0
 18 19  2  0
 18 20  1  0
 20 21  2  0
 21 22  1  0
 22 23  2  0
 23 24  1  0
 24 25  1  0
 24 26  2  0
 26 27  1  0
 17  4  1  0
 26 20  1  0
 16  6  1  0
  1 28  1  0
  5 29  1  0
  7 30  1  0
  8 31  1  0
 10 32  1  0
 10 33  1  0
 15 34  1  0
 21 35  1  0
 22 36  1  0
 27 37  1  0
M  CHG  3   1  -1  13  -1  14  -1
M  END
>  <UniqueID>  (30) 
30

>  <SMILES>  (30) 
[NH-]C(=O)c1cc2ccc(CP(=O)([O-])[O-])cc2n1C(=O)c1ccnc(I)c1O

>  <Energy>  (30) 
78.83500600767162

>  <Genealogy>  (30) 
[NH-]C(=O)c1cc2ccc(CP(=O)([O-])[O-])cc2n1C(=O)c1ccnc(I)c1O (protonated)
[NH-]C(=O)c1cc2ccc(CP(=O)([O-])[O-])cc2n1C(=O)c1ccnc(I)c1O (3D coordinates assigned)
[NH-]C(=O)c1cc2ccc(CP(=O)([O-])[O-])cc2n1C(=O)c1ccnc(I)c1O (optimized conformer: 78.83500600767162 kcal/mol)

>  <smiles>  (30) 
NC(=O)c1cc2ccc(CP(=O)(O)O)cc2n1C(=O)c1ccnc(I)c1O

>  <score_type>  (30) 
oracle

>  <origin>  (30) 
adg

>  <m_score__min__energy>  (30) 
-11.199999999999999

>  <m_primary>  (30) 
energy

$$$$
30:0
     RDKit          3D

 38 40  0  0  0  0  0  0  0  0999 V2000
   -3.8710   25.2280  -30.7690 N   0  0  0  0  0  0  0  0  0  0  0  0
   -5.2740   25.0710  -30.5760 C   0  0  0  0  0  0  0  0  0  0  0  0
   -5.9150   25.9570  -29.9480 O   0  0  0  0  0  0  0  0  0  0  0  0
   -5.9750   23.8580  -31.0480 C   0  0  0  0  0  0  0  0  0  0  0  0
   -7.3510   23.8030  -31.2610 C   0  0  0  0  0  0  0  0  0  0  0  0
   -7.6150   22.4970  -31.6020 C   0  0  0  0  0  0  0  0  0  0  0  0
   -8.8210   21.8820  -31.9240 C   0  0  0  0  0  0  0  0  0  0  0  0
   -8.7960   20.5180  -32.2610 C   0  0  0  0  0  0  0  0  0  0  0  0
   -7.5730   19.8060  -32.2920 C   0  0  0  0  0  0  0  0  0  0  0  0
   -7.5620   18.3390  -32.6220 C   0  0  0  0  0  0  0  0  0  0  0  0
   -6.3300   17.9980  -33.3260 N   0  0  0  0  0  0  0  0  0  0  0  0
   -5.3500   17.1830  -32.8920 C   0  0  0  0  0  0  0  0  0  0  0  0
   -4.4150   17.0630  -33.8980 C   0  0  0  0  0  0  0  0  0  0  0  0
   -4.8220   17.7940  -34.9530 N   0  0  0  0  0  0  0  0  0  0  0  0
   -5.9930   18.3470  -34.5840 C   0  0  0  0  0  0  0  0  0  0  0  0
   -6.3690   20.4590  -31.9470 C   0  0  0  0  0  0  0  0  0  0  0  0
   -6.4260   21.8130  -31.5960 C   0  0  0  0  0  0  0  0  0  0  0  0
   -5.4080   22.6370  -31.2580 N   0  0  0  0  0  0  0  0  0  0  0  0
   -4.0120   22.3030  -31.2350 C   0  0  0  0  0  0  0  0  0  0  0  0
   -3.4510   22.0320  -30.1370 O   0  0  0  0  0  0  0  0  0  0  0  0
   -3.2930   22.2590  -32.4370 O   0  0  0  0  0  0  0  0  0  0  0  0
   -3.0650   21.1040  -33.1970 C   0  0  0  0  0  0  0  0  0  0  0  0
   -4.0060   20.5270  -33.8070 O   0  0  0  0  0  0  0  0  0  0  0  0
   -1.6940   20.5090  -33.2280 C   0  0  0  0  0  0  0  0  0  0  0  0
   -0.9480   21.1310  -34.2120 F   0  0  0  0  0  0  0  0  0  0  0  0
   -1.0730   20.6840  -32.0050 F   0  0  0  0  0  0  0  0  0  0  0  0
   -1.7740   19.1570  -33.5050 F   0  0  0  0  0  0  0  0  0  0  0  0
   -3.4900   26.0450  -31.2970 H   0  0  0  0  0  0  0  0  0  0  0  0
   -8.0727   24.6287  -31.1747 H   0  0  0  0  0  0  0  0  0  0  0  0
   -9.7651   22.4464  -31.9150 H   0  0  0  0  0  0  0  0  0  0  0  0
   -9.7352   19.9990  -32.5029 H   0  0  0  0  0  0  0  0  0  0  0  0
   -7.6241   17.7553  -31.6917 H   0  0  0  0  0  0  0  0  0  0  0  0
   -8.4233   18.1058  -33.2652 H   0  0  0  0  0  0  0  0  0  0  0  0
   -5.3035   16.6973  -31.9061 H   0  0  0  0  0  0  0  0  0  0  0  0
   -3.4905   16.4690  -33.8473 H   0  0  0  0  0  0  0  0  0  0  0  0
   -4.3390   17.8980  -35.8720 H   0  0  0  0  0  0  0  0  0  0  0  0
   -6.5987   19.0014  -35.2281 H   0  0  0  0  0  0  0  0  0  0  0  0
   -5.4114   19.9177  -31.9539 H   0  0  0  0  0  0  0  0  0  0  0  0
  1  2  1  0
  2  3  2  0
  2  4  1  0
  4  5  2  0
  5  6  1  0
  6  7  2  0
  7  8  1  0
  8  9  2  0
  9 10  1  0
 10 11  1  0
 11 12  1  0
 12 13  2  0
 13 14  1  0
 14 15  2  0
  9 16  1  0
 16 17  2  0
 17 18  1  0
 18 19  1  0
 19 20  2  0
 19 21  1  0
 21 22  1  0
 22 23  2  0
 22 24  1  0
 24 25  1  0
 24 26  1  0
 24 27  1  0
 18  4  1  0
 17  6  1  0
 15 11  1  0
  1 28  1  0
  5 29  1  0
  7 30  1  0
  8 31  1  0
 10 32  1  0
 10 33  1  0
 12 34  1  0
 13 35  1  0
 14 36  1  0
 15 37  1  0
 16 38  1  0
M  CHG  2   1  -1  14   1
M  END
>  <UniqueID>  (31) 
31

>  <SMILES>  (31) 
[NH-]C(=O)c1cc2ccc(Cn3cc[nH+]c3)cc2n1C(=O)OC(=O)C(F)(F)F

>  <Energy>  (31) 
107.40608442404069

>  <Genealogy>  (31) 
[NH-]C(=O)c1cc2ccc(Cn3cc[nH+]c3)cc2n1C(=O)OC(=O)C(F)(F)F (protonated)
[NH-]C(=O)c1cc2ccc(Cn3cc[nH+]c3)cc2n1C(=O)OC(=O)C(F)(F)F (3D coordinates assigned)
[NH-]C(=O)c1cc2ccc(Cn3cc[nH+]c3)cc2n1C(=O)OC(=O)C(F)(F)F (optimized conformer: 107.40608442404069 kcal/mol)

>  <smiles>  (31) 
NC(=O)c1cc2ccc(Cn3ccnc3)cc2n1C(=O)OC(=O)C(F)(F)F

>  <score_type>  (31) 
oracle

>  <origin>  (31) 
adg

>  <m_score__min__energy>  (31) 
-9.7300000000000004

>  <m_primary>  (31) 
energy

$$$$
31:0
     RDKit          3D

 58 59  0  0  0  0  0  0  0  0999 V2000
    0.6740   26.6260  -27.0880 C   0  0  0  0  0  0  0  0  0  0  0  0
   -0.6520   26.0830  -26.7880 N   0  0  0  0  0  0  0  0  0  0  0  0
   -1.2500   26.3250  -25.4740 C   0  0  0  0  0  0  0  0  0  0  0  0
   -1.3880   25.4510  -27.8570 C   0  0  0  0  0  0  0  0  0  0  0  0
   -1.2750   25.9170  -29.0260 O   0  0  0  0  0  0  0  0  0  0  0  0
   -2.3080   24.2530  -27.6330 C   0  0  0  0  0  0  0  0  0  0  0  0
   -3.5020   24.6470  -26.7340 C   0  0  0  0  0  0  0  0  0  0  0  0
   -1.5160   23.1440  -26.9120 C   0  0  0  0  0  0  0  0  0  0  0  0
   -2.8260   23.7350  -28.9130 N   0  0  0  0  0  0  0  0  0  0  0  0
   -3.7680   22.6500  -29.0270 C   0  0  0  0  0  0  0  0  0  0  0  0
   -4.1680   22.0440  -27.9970 O   0  0  0  0  0  0  0  0  0  0  0  0
   -4.2710   22.2350  -30.3480 C   0  0  0  0  0  0  0  0  0  0  0  0
   -3.5910   21.4470  -31.0600 O   0  0  0  0  0  0  0  0  0  0  0  0
   -5.5420   22.6980  -30.8310 N   0  0  0  0  0  0  0  0  0  0  0  0
   -5.9920   23.9820  -30.8580 C   0  0  0  0  0  0  0  0  0  0  0  0
   -5.1980   25.1800  -30.5100 C   0  0  0  0  0  0  0  0  0  0  0  0
   -3.8290   25.2630  -30.8960 N   0  0  0  0  0  0  0  0  0  0  0  0
   -5.7110   26.1240  -29.8540 O   0  0  0  0  0  0  0  0  0  0  0  0
   -7.3120   24.0290  -31.3030 C   0  0  0  0  0  0  0  0  0  0  0  0
   -7.6600   22.7190  -31.5450 C   0  0  0  0  0  0  0  0  0  0  0  0
   -8.8650   22.1820  -31.9840 C   0  0  0  0  0  0  0  0  0  0  0  0
   -8.9550   20.7880  -32.1160 C   0  0  0  0  0  0  0  0  0  0  0  0
   -7.8500   19.9590  -31.7920 C   0  0  0  0  0  0  0  0  0  0  0  0
   -7.9600   18.4680  -31.9750 C   0  0  0  0  0  0  0  0  0  0  0  0
   -6.5760   17.8110  -31.8660 C   0  0  0  0  0  0  0  0  0  0  0  0
   -5.9030   17.5950  -33.2400 C   0  0  1  0  0  0  0  0  0  0  0  0
   -6.8290   17.0420  -34.1430 O   0  0  0  0  0  0  0  0  0  0  0  0
   -5.3090   18.8910  -33.8160 C   0  0  0  0  0  0  0  0  0  0  0  0
   -6.0220   19.2660  -34.9620 O   0  0  0  0  0  0  0  0  0  0  0  0
   -6.6400   20.5390  -31.3540 C   0  0  0  0  0  0  0  0  0  0  0  0
   -6.5760   21.9340  -31.2490 C   0  0  0  0  0  0  0  0  0  0  0  0
    1.2028   26.8425  -26.1481 H   0  0  0  0  0  0  0  0  0  0  0  0
    1.2481   25.8906  -27.6707 H   0  0  0  0  0  0  0  0  0  0  0  0
    0.5674   27.5529  -27.6707 H   0  0  0  0  0  0  0  0  0  0  0  0
   -0.5368   26.0364  -24.6878 H   0  0  0  0  0  0  0  0  0  0  0  0
   -1.4944   27.3928  -25.3734 H   0  0  0  0  0  0  0  0  0  0  0  0
   -2.1682   25.7277  -25.3734 H   0  0  0  0  0  0  0  0  0  0  0  0
   -3.2124   24.5514  -25.6771 H   0  0  0  0  0  0  0  0  0  0  0  0
   -3.7902   25.6879  -26.9425 H   0  0  0  0  0  0  0  0  0  0  0  0
   -4.3531   23.9821  -26.9425 H   0  0  0  0  0  0  0  0  0  0  0  0
   -1.6095   23.2749  -25.8238 H   0  0  0  0  0  0  0  0  0  0  0  0
   -1.9176   22.1609  -27.1989 H   0  0  0  0  0  0  0  0  0  0  0  0
   -0.4558   23.2049  -27.1989 H   0  0  0  0  0  0  0  0  0  0  0  0
   -2.4880   24.1750  -29.7980 H   0  0  0  0  0  0  0  0  0  0  0  0
   -3.0710   25.3110  -30.1790 H   0  0  0  0  0  0  0  0  0  0  0  0
   -7.9412   24.9218  -31.4331 H   0  0  0  0  0  0  0  0  0  0  0  0
   -9.7216   22.8302  -32.2206 H   0  0  0  0  0  0  0  0  0  0  0  0
   -9.8907   20.3337  -32.4739 H   0  0  0  0  0  0  0  0  0  0  0  0
   -8.6193   18.0552  -31.1973 H   0  0  0  0  0  0  0  0  0  0  0  0
   -8.3755   18.2609  -32.9722 H   0  0  0  0  0  0  0  0  0  0  0  0
   -5.9280   18.4569  -31.2554 H   0  0  0  0  0  0  0  0  0  0  0  0
   -6.7158   16.8209  -31.4076 H   0  0  0  0  0  0  0  0  0  0  0  0
   -5.0659   16.8975  -33.0894 H   0  0  0  0  0  0  0  0  0  0  0  0
   -6.7960   17.5830  -34.9750 H   0  0  0  0  0  0  0  0  0  0  0  0
   -5.3776   19.6909  -33.0641 H   0  0  0  0  0  0  0  0  0  0  0  0
   -4.2545   18.7236  -34.0804 H   0  0  0  0  0  0  0  0  0  0  0  0
   -6.9800   19.1120  -34.7520 H   0  0  0  0  0  0  0  0  0  0  0  0
   -5.7715   19.9127  -31.1022 H   0  0  0  0  0  0  0  0  0  0  0  0
  1  2  1  0
  2  3  1  0
  2  4  1  0
  4  5  2  0
  4  6  1  0
  6  7  1  0
  6  8  1  0
  6  9  1  0
  9 10  1  0
 10 11  2  0
 10 12  1  0
 12 13  2  0
 12 14  1  0
 14 15  1  0
 15 16  1  0
 16 17  1  0
 16 18  2  0
 15 19  2  0
 19 20  1  0
 20 21  2  0
 21 22  1  0
 22 23  2  0
 23 24  1  0
 24 25  1  0
 25 26  1  0
 26 27  1  0
 26 28  1  0
 28 29  1  0
 23 30  1  0
 30 31  2  0
 31 14  1  0
 31 20  1  0
  1 32  1  0
  1 33  1  0
  1 34  1  0
  3 35  1  0
  3 36  1  0
  3 37  1  0
  7 38  1  0
  7 39  1  0
  7 40  1  0
  8 41  1  0
  8 42  1  0
  8 43  1  0
  9 44  1  0
 17 45  1  0
 19 46  1  0
 21 47  1  0
 22 48  1  0
 24 49  1  0
 24 50  1  0
 25 51  1  0
 25 52  1  0
 26 53  1  1
 27 54  1  0
 28 55  1  0
 28 56  1  0
 29 57  1  0
 30 58  1  0
M  CHG  1  17  -1
M  END
>  <UniqueID>  (32) 
32

>  <SMILES>  (32) 
CN(C)C(=O)C(C)(C)NC(=O)C(=O)n1c(C([NH-])=O)cc2ccc(CC[C@@H](O)CO)cc21

>  <Energy>  (32) 
87.267121700613

>  <Genealogy>  (32) 
CN(C)C(=O)C(C)(C)NC(=O)C(=O)n1c(C([NH-])=O)cc2ccc(CCC(O)CO)cc21 (protonated)
CN(C)C(=O)C(C)(C)NC(=O)C(=O)n1c(C([NH-])=O)cc2ccc(CC[C@@H](O)CO)cc21 (chirality)
CN(C)C(=O)C(C)(C)NC(=O)C(=O)n1c(C([NH-])=O)cc2ccc(CC[C@@H](O)CO)cc21 (3D coordinates assigned)
CN(C)C(=O)C(C)(C)NC(=O)C(=O)n1c(C([NH-])=O)cc2ccc(CC[C@@H](O)CO)cc21 (optimized conformer: 87.267121700613 kcal/mol)

>  <smiles>  (32) 
CN(C)C(=O)C(C)(C)NC(=O)C(=O)n1c(C(N)=O)cc2ccc(CCC(O)CO)cc21

>  <score_type>  (32) 
oracle

>  <origin>  (32) 
adg

>  <m_score__min__energy>  (32) 
-11.74

>  <m_primary>  (32) 
energy

$$$$
32:0
     RDKit          3D

 39 40  0  0  0  0  0  0  0  0999 V2000
   -2.0360   25.3500  -26.0310 C   0  0  0  0  0  0  0  0  0  0  0  0
   -1.0540   25.0760  -26.8870 C   0  0  0  0  0  0  0  0  0  0  0  0
   -1.1170   25.4670  -28.3030 C   0  0  0  0  0  0  0  0  0  0  0  0
   -1.2550   26.6860  -28.5960 O   0  0  0  0  0  0  0  0  0  0  0  0
   -1.0260   24.5000  -29.3110 O   0  0  0  0  0  0  0  0  0  0  0  0
   -1.1220   23.1030  -29.0550 C   0  0  0  0  0  0  0  0  0  0  0  0
   -2.4550   22.7770  -28.6720 O   0  0  0  0  0  0  0  0  0  0  0  0
   -3.0030   21.5060  -28.8610 C   0  0  0  0  0  0  0  0  0  0  0  0
   -2.9140   20.6320  -27.9540 O   0  0  0  0  0  0  0  0  0  0  0  0
   -3.6480   21.2260  -30.0730 O   0  0  0  0  0  0  0  0  0  0  0  0
   -3.9620   22.1710  -31.0570 C   0  0  0  0  0  0  0  0  0  0  0  0
   -3.0860   22.5640  -31.8760 O   0  0  0  0  0  0  0  0  0  0  0  0
   -5.2960   22.7000  -31.1350 N   0  0  0  0  0  0  0  0  0  0  0  0
   -5.7180   23.9460  -30.7800 C   0  0  0  0  0  0  0  0  0  0  0  0
   -4.8490   25.0750  -30.3890 C   0  0  0  0  0  0  0  0  0  0  0  0
   -3.4760   24.8700  -30.0520 N   0  0  0  0  0  0  0  0  0  0  0  0
   -5.3120   26.2470  -30.4060 O   0  0  0  0  0  0  0  0  0  0  0  0
   -7.1020   24.0460  -30.8820 C   0  0  0  0  0  0  0  0  0  0  0  0
   -7.5230   22.8150  -31.3280 C   0  0  0  0  0  0  0  0  0  0  0  0
   -8.8090   22.3510  -31.5890 C   0  0  0  0  0  0  0  0  0  0  0  0
   -8.9570   21.0180  -32.0040 C   0  0  0  0  0  0  0  0  0  0  0  0
   -7.8260   20.1740  -32.1400 C   0  0  0  0  0  0  0  0  0  0  0  0
   -7.9910   18.7420  -32.5610 C   0  0  0  0  0  0  0  0  0  0  0  0
   -6.9590   18.3820  -33.4090 F   0  0  0  0  0  0  0  0  0  0  0  0
   -7.9710   17.9240  -31.4460 F   0  0  0  0  0  0  0  0  0  0  0  0
   -6.5360   20.6780  -31.8600 C   0  0  0  0  0  0  0  0  0  0  0  0
   -6.4160   22.0190  -31.4710 C   0  0  0  0  0  0  0  0  0  0  0  0
   -1.9509   25.0403  -24.9789 H   0  0  0  0  0  0  0  0  0  0  0  0
   -2.9325   25.8861  -26.3758 H   0  0  0  0  0  0  0  0  0  0  0  0
   -0.1657   24.5391  -26.5228 H   0  0  0  0  0  0  0  0  0  0  0  0
   -0.8559   22.5451  -29.9649 H   0  0  0  0  0  0  0  0  0  0  0  0
   -0.4322   22.8327  -28.2419 H   0  0  0  0  0  0  0  0  0  0  0  0
   -3.0200   23.9430  -30.1930 H   0  0  0  0  0  0  0  0  0  0  0  0
   -2.8890   25.6740  -29.7380 H   0  0  0  0  0  0  0  0  0  0  0  0
   -7.7263   24.9226  -30.6545 H   0  0  0  0  0  0  0  0  0  0  0  0
   -9.6830   23.0089  -31.4736 H   0  0  0  0  0  0  0  0  0  0  0  0
   -9.9601   20.6247  -32.2258 H   0  0  0  0  0  0  0  0  0  0  0  0
   -8.9522   18.6295  -33.0840 H   0  0  0  0  0  0  0  0  0  0  0  0
   -5.6483   20.0340  -31.9452 H   0  0  0  0  0  0  0  0  0  0  0  0
  1  2  2  0
  2  3  1  0
  3  4  2  0
  3  5  1  0
  5  6  1  0
  6  7  1  0
  7  8  1  0
  8  9  2  0
  8 10  1  0
 10 11  1  0
 11 12  2  0
 11 13  1  0
 13 14  1  0
 14 15  1  0
 15 16  1  0
 15 17  2  0
 14 18  2  0
 18 19  1  0
 19 20  2  0
 20 21  1  0
 21 22  2  0
 22 23  1  0
 23 24  1  0
 23 25  1  0
 22 26  1  0
 26 27  2  0
 27 13  1  0
 27 19  1  0
  1 28  1  0
  1 29  1  0
  2 30  1  0
  6 31  1  0
  6 32  1  0
 16 33  1  0
 16 34  1  0
 18 35  1  0
 20 36  1  0
 21 37  1  0
 23 38  1  0
 26 39  1  0
M  END
>  <UniqueID>  (33) 
33

>  <SMILES>  (33) 
C=CC(=O)OCOC(=O)OC(=O)n1c(C(N)=O)cc2ccc(C(F)F)cc21

>  <Energy>  (33) 
73.7002252549811

>  <Genealogy>  (33) 
C=CC(=O)OCOC(=O)OC(=O)n1c(C(N)=O)cc2ccc(C(F)F)cc21 (3D coordinates assigned)
C=CC(=O)OCOC(=O)OC(=O)n1c(C(N)=O)cc2ccc(C(F)F)cc21 (optimized conformer: 73.7002252549811 kcal/mol)

>  <smiles>  (33) 
C=CC(=O)OCOC(=O)OC(=O)n1c(C(N)=O)cc2ccc(C(F)F)cc21

>  <score_type>  (33) 
oracle

>  <origin>  (33) 
adg

>  <m_score__min__energy>  (33) 
-7.8300000000000001

>  <m_primary>  (33) 
energy

$$$$
33:0
     RDKit          3D

 41 42  0  0  0  0  0  0  0  0999 V2000
   -1.1630   22.9810  -26.7100 C   0  0  0  0  0  0  0  0  0  0  0  0
   -1.4140   24.2750  -27.3560 N   0  0  0  0  0  0  0  0  0  0  0  0
   -1.4800   25.4920  -26.5410 C   0  0  0  0  0  0  0  0  0  0  0  0
   -1.5020   24.3910  -28.7930 C   0  0  0  0  0  0  0  0  0  0  0  0
   -1.3810   25.5260  -29.3310 O   0  0  0  0  0  0  0  0  0  0  0  0
   -1.7450   23.2230  -29.6700 C   0  0  0  0  0  0  0  0  0  0  0  0
   -0.7780   22.6690  -30.2590 O   0  0  0  0  0  0  0  0  0  0  0  0
   -3.0640   22.6570  -29.7990 N   0  0  0  0  0  0  0  0  0  0  0  0
   -3.6800   22.0380  -28.6230 C   0  0  0  0  0  0  0  0  0  0  0  0
   -3.6860   22.5260  -31.0960 C   0  0  0  0  0  0  0  0  0  0  0  0
   -2.9930   22.2660  -32.1160 O   0  0  0  0  0  0  0  0  0  0  0  0
   -5.1070   22.6590  -31.2410 N   0  0  0  0  0  0  0  0  0  0  0  0
   -5.8670   23.7700  -31.0380 C   0  0  0  0  0  0  0  0  0  0  0  0
   -5.3730   25.0790  -30.5580 C   0  0  0  0  0  0  0  0  0  0  0  0
   -3.9810   25.3860  -30.5670 N   0  0  0  0  0  0  0  0  0  0  0  0
   -6.1890   25.9330  -30.1220 O   0  0  0  0  0  0  0  0  0  0  0  0
   -7.2040   23.5030  -31.3310 C   0  0  0  0  0  0  0  0  0  0  0  0
   -7.2340   22.1820  -31.7240 C   0  0  0  0  0  0  0  0  0  0  0  0
   -8.2990   21.3940  -32.1470 C   0  0  0  0  0  0  0  0  0  0  0  0
   -8.0290   20.0640  -32.5160 C   0  0  0  0  0  0  0  0  0  0  0  0
   -6.7090   19.5440  -32.4430 C   0  0  0  0  0  0  0  0  0  0  0  0
   -6.4240   18.1330  -32.8920 C   0  0  0  0  0  0  0  0  0  0  0  0
   -7.6010   17.4710  -33.1970 F   0  0  0  0  0  0  0  0  0  0  0  0
   -5.6230   18.1320  -34.0200 F   0  0  0  0  0  0  0  0  0  0  0  0
   -5.7760   17.4540  -31.8780 F   0  0  0  0  0  0  0  0  0  0  0  0
   -5.6510   20.3860  -32.0330 C   0  0  0  0  0  0  0  0  0  0  0  0
   -5.9530   21.6990  -31.6640 C   0  0  0  0  0  0  0  0  0  0  0  0
   -1.1872   23.1058  -25.6174 H   0  0  0  0  0  0  0  0  0  0  0  0
   -1.9386   22.2627  -27.0143 H   0  0  0  0  0  0  0  0  0  0  0  0
   -0.1751   22.6048  -27.0143 H   0  0  0  0  0  0  0  0  0  0  0  0
   -1.4653   25.2207  -25.4751 H   0  0  0  0  0  0  0  0  0  0  0  0
   -0.6153   26.1328  -26.7682 H   0  0  0  0  0  0  0  0  0  0  0  0
   -2.4089   26.0355  -26.7682 H   0  0  0  0  0  0  0  0  0  0  0  0
   -3.2469   22.4732  -27.7103 H   0  0  0  0  0  0  0  0  0  0  0  0
   -4.7645   22.2215  -28.6378 H   0  0  0  0  0  0  0  0  0  0  0  0
   -3.4912   20.9544  -28.6378 H   0  0  0  0  0  0  0  0  0  0  0  0
   -3.4910   25.6850  -29.6950 H   0  0  0  0  0  0  0  0  0  0  0  0
   -8.0537   24.1983  -31.2630 H   0  0  0  0  0  0  0  0  0  0  0  0
   -9.3210   21.7985  -32.1916 H   0  0  0  0  0  0  0  0  0  0  0  0
   -8.8490   19.4192  -32.8650 H   0  0  0  0  0  0  0  0  0  0  0  0
   -4.6152   20.0167  -32.0051 H   0  0  0  0  0  0  0  0  0  0  0  0
  1  2  1  0
  2  3  1  0
  2  4  1  0
  4  5  2  0
  4  6  1  0
  6  7  2  0
  6  8  1  0
  8  9  1  0
  8 10  1  0
 10 11  2  0
 10 12  1  0
 12 13  1  0
 13 14  1  0
 14 15  1  0
 14 16  2  0
 13 17  2  0
 17 18  1  0
 18 19  2  0
 19 20  1  0
 20 21  2  0
 21 22  1  0
 22 23  1  0
 22 24  1  0
 22 25  1  0
 21 26  1  0
 26 27  2  0
 27 12  1  0
 27 18  1  0
  1 28  1  0
  1 29  1  0
  1 30  1  0
  3 31  1  0
  3 32  1  0
  3 33  1  0
  9 34  1  0
  9 35  1  0
  9 36  1  0
 15 37  1  0
 17 38  1  0
 19 39  1  0
 20 40  1  0
 26 41  1  0
M  CHG  1  15  -1
M  END
>  <UniqueID>  (34) 
34

>  <SMILES>  (34) 
CN(C)C(=O)C(=O)N(C)C(=O)n1c(C([NH-])=O)cc2ccc(C(F)(F)F)cc21

>  <Energy>  (34) 
85.43736900077468

>  <Genealogy>  (34) 
CN(C)C(=O)C(=O)N(C)C(=O)n1c(C([NH-])=O)cc2ccc(C(F)(F)F)cc21 (protonated)
CN(C)C(=O)C(=O)N(C)C(=O)n1c(C([NH-])=O)cc2ccc(C(F)(F)F)cc21 (3D coordinates assigned)
CN(C)C(=O)C(=O)N(C)C(=O)n1c(C([NH-])=O)cc2ccc(C(F)(F)F)cc21 (optimized conformer: 85.43736900077468 kcal/mol)

>  <smiles>  (34) 
CN(C)C(=O)C(=O)N(C)C(=O)n1c(C(N)=O)cc2ccc(C(F)(F)F)cc21

>  <score_type>  (34) 
oracle

>  <origin>  (34) 
adg

>  <m_score__min__energy>  (34) 
-10.4

>  <m_primary>  (34) 
energy

$$$$
34:0
     RDKit          3D

 34 35  0  0  0  0  0  0  0  0999 V2000
   -7.1250   17.1810  -32.6850 C   0  0  0  0  0  0  0  0  0  0  0  0
   -6.0730   18.2000  -32.7900 N   0  0  0  0  0  0  0  0  0  0  0  0
   -4.7450   17.7910  -33.2700 C   0  0  0  0  0  0  0  0  0  0  0  0
   -4.7650   17.5400  -34.7470 C   0  0  0  0  0  0  0  0  0  0  0  0
   -5.5560   18.1810  -35.4890 O   0  0  0  0  0  0  0  0  0  0  0  0
   -3.9340   16.5740  -35.3000 O   0  0  0  0  0  0  0  0  0  0  0  0
   -6.3630   19.5830  -32.4560 C   0  0  0  0  0  0  0  0  0  0  0  0
   -7.6620   20.1230  -32.6760 C   0  0  0  0  0  0  0  0  0  0  0  0
   -7.9560   21.4560  -32.3490 C   0  0  0  0  0  0  0  0  0  0  0  0
   -6.9410   22.2390  -31.8120 C   0  0  0  0  0  0  0  0  0  0  0  0
   -6.9630   23.5460  -31.3860 C   0  0  0  0  0  0  0  0  0  0  0  0
   -5.6720   23.8070  -30.9320 C   0  0  0  0  0  0  0  0  0  0  0  0
   -5.2300   25.1350  -30.4600 C   0  0  0  0  0  0  0  0  0  0  0  0
   -3.9740   25.6760  -30.8630 N   0  0  0  0  0  0  0  0  0  0  0  0
   -5.9920   25.8240  -29.7300 O   0  0  0  0  0  0  0  0  0  0  0  0
   -4.8860   22.7020  -31.0660 N   0  0  0  0  0  0  0  0  0  0  0  0
   -3.5270   22.5350  -30.6280 C   0  0  0  0  0  0  0  0  0  0  0  0
   -2.7840   21.6970  -31.2080 O   0  0  0  0  0  0  0  0  0  0  0  0
   -3.0540   23.2900  -29.5460 O   0  0  0  0  0  0  0  0  0  0  0  0
   -1.7950   23.8980  -29.4820 C   0  0  0  0  0  0  0  0  0  0  0  0
   -0.7330   23.2250  -29.5690 O   0  0  0  0  0  0  0  0  0  0  0  0
   -1.7150   25.2740  -29.3170 O   0  0  0  0  0  0  0  0  0  0  0  0
   -5.6790   21.7510  -31.6080 C   0  0  0  0  0  0  0  0  0  0  0  0
   -5.3590   20.4210  -31.9050 C   0  0  0  0  0  0  0  0  0  0  0  0
   -7.3344   16.9781  -31.6243 H   0  0  0  0  0  0  0  0  0  0  0  0
   -8.0392   17.5459  -33.1760 H   0  0  0  0  0  0  0  0  0  0  0  0
   -6.7894   16.2556  -33.1760 H   0  0  0  0  0  0  0  0  0  0  0  0
   -4.0208   18.5892  -33.0500 H   0  0  0  0  0  0  0  0  0  0  0  0
   -4.4575   16.8603  -32.7589 H   0  0  0  0  0  0  0  0  0  0  0  0
   -8.4472   19.4858  -33.1089 H   0  0  0  0  0  0  0  0  0  0  0  0
   -8.9620   21.8695  -32.5132 H   0  0  0  0  0  0  0  0  0  0  0  0
   -7.8178   24.2382  -31.4005 H   0  0  0  0  0  0  0  0  0  0  0  0
   -3.0780   25.2880  -30.4920 H   0  0  0  0  0  0  0  0  0  0  0  0
   -4.3476   20.0325  -31.7147 H   0  0  0  0  0  0  0  0  0  0  0  0
  1  2  1  0
  2  3  1  0
  3  4  1  0
  4  5  2  0
  4  6  1  0
  2  7  1  0
  7  8  2  0
  8  9  1  0
  9 10  2  0
 10 11  1  0
 11 12  2  0
 12 13  1  0
 13 14  1  0
 13 15  2  0
 12 16  1  0
 16 17  1  0
 17 18  2  0
 17 19  1  0
 19 20  1  0
 20 21  2  0
 20 22  1  0
 16 23  1  0
 23 24  2  0
 24  7  1  0
 23 10  1  0
  1 25  1  0
  1 26  1  0
  1 27  1  0
  3 28  1  0
  3 29  1  0
  8 30  1  0
  9 31  1  0
 11 32  1  0
 14 33  1  0
 24 34  1  0
M  CHG  3   6  -1  14  -1  22  -1
M  END
>  <UniqueID>  (35) 
35

>  <SMILES>  (35) 
CN(CC(=O)[O-])c1ccc2cc(C([NH-])=O)n(C(=O)OC(=O)[O-])c2c1

>  <Energy>  (35) 
76.1691617095446

>  <Genealogy>  (35) 
CN(CC(=O)[O-])c1ccc2cc(C([NH-])=O)n(C(=O)OC(=O)[O-])c2c1 (protonated)
CN(CC(=O)[O-])c1ccc2cc(C([NH-])=O)n(C(=O)OC(=O)[O-])c2c1 (3D coordinates assigned)
CN(CC(=O)[O-])c1ccc2cc(C([NH-])=O)n(C(=O)OC(=O)[O-])c2c1 (optimized conformer: 76.1691617095446 kcal/mol)

>  <smiles>  (35) 
CN(CC(=O)O)c1ccc2cc(C(N)=O)n(C(=O)OC(=O)O)c2c1

>  <score_type>  (35) 
oracle

>  <origin>  (35) 
adg

>  <m_score__min__energy>  (35) 
-10.699999999999999

>  <m_primary>  (35) 
energy

$$$$
35:0
     RDKit          3D

 44 46  0  0  0  0  0  0  0  0999 V2000
   -3.3170   14.7580  -35.3930 C   0  0  0  0  0  0  0  0  0  0  0  0
   -4.6490   14.9650  -34.9410 O   0  0  0  0  0  0  0  0  0  0  0  0
   -5.0750   16.1610  -34.3530 C   0  0  0  0  0  0  0  0  0  0  0  0
   -5.3260   17.2550  -35.1240 N   0  0  0  0  0  0  0  0  0  0  0  0
   -5.7460   18.4340  -34.5930 C   0  0  0  0  0  0  0  0  0  0  0  0
   -5.9370   18.5590  -33.2080 C   0  0  0  0  0  0  0  0  0  0  0  0
   -6.3960   19.8420  -32.6180 C   0  0  0  0  0  0  0  0  0  0  0  0
   -7.7810   20.0810  -32.4140 C   0  0  0  0  0  0  0  0  0  0  0  0
   -8.2260   21.2850  -31.8440 C   0  0  0  0  0  0  0  0  0  0  0  0
   -7.2720   22.2370  -31.4990 C   0  0  0  0  0  0  0  0  0  0  0  0
   -7.4280   23.4680  -30.9060 C   0  0  0  0  0  0  0  0  0  0  0  0
   -6.1400   23.9820  -30.7820 C   0  0  0  0  0  0  0  0  0  0  0  0
   -5.8510   25.3270  -30.2470 C   0  0  0  0  0  0  0  0  0  0  0  0
   -6.4440   25.7830  -29.0310 N   0  0  0  0  0  0  0  0  0  0  0  0
   -5.0230   26.0650  -30.8440 O   0  0  0  0  0  0  0  0  0  0  0  0
   -5.2200   23.0990  -31.2660 N   0  0  0  0  0  0  0  0  0  0  0  0
   -3.7890   23.2090  -31.2050 C   0  0  0  0  0  0  0  0  0  0  0  0
   -3.0660   22.4580  -31.9150 O   0  0  0  0  0  0  0  0  0  0  0  0
   -3.1830   24.1670  -30.3320 N   0  0  0  0  0  0  0  0  0  0  0  0
   -2.3520   23.7890  -29.1990 C   0  0  0  0  0  0  0  0  0  0  0  0
   -1.3040   24.8280  -28.9880 C   0  0  0  0  0  0  0  0  0  0  0  0
   -1.6160   26.0470  -28.9660 O   0  0  0  0  0  0  0  0  0  0  0  0
    0.0140   24.4500  -28.7610 O   0  0  0  0  0  0  0  0  0  0  0  0
   -5.9320   22.0350  -31.7050 C   0  0  0  0  0  0  0  0  0  0  0  0
   -5.4580   20.8360  -32.2510 C   0  0  0  0  0  0  0  0  0  0  0  0
   -5.6830   17.4430  -32.3960 C   0  0  0  0  0  0  0  0  0  0  0  0
   -5.2440   16.2360  -32.9620 C   0  0  0  0  0  0  0  0  0  0  0  0
   -4.9890   15.0360  -32.0960 C   0  0  0  0  0  0  0  0  0  0  0  0
   -2.6477   14.6540  -34.5263 H   0  0  0  0  0  0  0  0  0  0  0  0
   -3.2743   13.8424  -36.0012 H   0  0  0  0  0  0  0  0  0  0  0  0
   -2.9985   15.6174  -36.0012 H   0  0  0  0  0  0  0  0  0  0  0  0
   -5.9370   19.2939  -35.2518 H   0  0  0  0  0  0  0  0  0  0  0  0
   -8.5137   19.3142  -32.7058 H   0  0  0  0  0  0  0  0  0  0  0  0
   -9.2972   21.4698  -31.6753 H   0  0  0  0  0  0  0  0  0  0  0  0
   -8.3695   23.9448  -30.5958 H   0  0  0  0  0  0  0  0  0  0  0  0
   -6.2630   26.7540  -28.6900 H   0  0  0  0  0  0  0  0  0  0  0  0
   -7.0030   25.1390  -28.4270 H   0  0  0  0  0  0  0  0  0  0  0  0
   -2.9759   23.7079  -28.2967 H   0  0  0  0  0  0  0  0  0  0  0  0
   -1.8738   22.8190  -29.4002 H   0  0  0  0  0  0  0  0  0  0  0  0
   -4.3797   20.6702  -32.3917 H   0  0  0  0  0  0  0  0  0  0  0  0
   -5.8290   17.5147  -31.3081 H   0  0  0  0  0  0  0  0  0  0  0  0
   -5.0511   15.3280  -31.0373 H   0  0  0  0  0  0  0  0  0  0  0  0
   -5.7431   14.2638  -32.3082 H   0  0  0  0  0  0  0  0  0  0  0  0
   -3.9860   14.6372  -32.3082 H   0  0  0  0  0  0  0  0  0  0  0  0
  1  2  1  0
  2  3  1  0
  3  4  2  0
  4  5  1  0
  5  6  2  0
  6  7  1  0
  7  8  2  0
  8  9  1  0
  9 10  2  0
 10 11  1  0
 11 12  2  0
 12 13  1  0
 13 14  1  0
 13 15  2  0
 12 16  1  0
 16 17  1  0
 17 18  2  0
 17 19  1  0
 19 20  1  0
 20 21  1  0
 21 22  2  0
 21 23  1  0
 16 24  1  0
 24 25  2  0
  6 26  1  0
 26 27  2  0
 27 28  1  0
 27  3  1  0
 25  7  1  0
 24 10  1  0
  1 29  1  0
  1 30  1  0
  1 31  1  0
  5 32  1  0
  8 33  1  0
  9 34  1  0
 11 35  1  0
 14 36  1  0
 14 37  1  0
 20 38  1  0
 20 39  1  0
 25 40  1  0
 26 41  1  0
 28 42  1  0
 28 43  1  0
 28 44  1  0
M  CHG  2  19  -1  23  -1
M  END
>  <UniqueID>  (36) 
36

>  <SMILES>  (36) 
COc1ncc(-c2ccc3cc(C(N)=O)n(C(=O)[N-]CC(=O)[O-])c3c2)cc1C

>  <Energy>  (36) 
85.76440190785225

>  <Genealogy>  (36) 
COc1ncc(-c2ccc3cc(C(N)=O)n(C(=O)[N-]CC(=O)[O-])c3c2)cc1C (protonated)
COc1ncc(-c2ccc3cc(C(N)=O)n(C(=O)[N-]CC(=O)[O-])c3c2)cc1C (3D coordinates assigned)
COc1ncc(-c2ccc3cc(C(N)=O)n(C(=O)[N-]CC(=O)[O-])c3c2)cc1C (optimized conformer: 85.76440190785225 kcal/mol)

>  <smiles>  (36) 
COc1ncc(-c2ccc3cc(C(N)=O)n(C(=O)NCC(=O)O)c3c2)cc1C

>  <score_type>  (36) 
oracle

>  <origin>  (36) 
adg

>  <m_score__min__energy>  (36) 
-12.66

>  <m_primary>  (36) 
energy

$$$$
36:0
     RDKit          3D

 31 32  0  0  0  0  0  0  0  0999 V2000
   -5.5040   18.2620  -34.9980 N   0  0  0  0  0  0  0  0  0  0  0  0
   -6.1030   18.3480  -34.0120 C   0  0  0  0  0  0  0  0  0  0  0  0
   -6.8620   18.4560  -32.7620 C   0  0  0  0  0  0  0  0  0  0  0  0
   -7.0150   19.9010  -32.3790 C   0  0  0  0  0  0  0  0  0  0  0  0
   -8.3020   20.4920  -32.3340 C   0  0  0  0  0  0  0  0  0  0  0  0
   -8.4620   21.8300  -31.9380 C   0  0  0  0  0  0  0  0  0  0  0  0
   -7.3220   22.5500  -31.5940 C   0  0  0  0  0  0  0  0  0  0  0  0
   -7.1940   23.8450  -31.1460 C   0  0  0  0  0  0  0  0  0  0  0  0
   -5.8300   24.0310  -30.9360 C   0  0  0  0  0  0  0  0  0  0  0  0
   -5.2390   25.3220  -30.5280 C   0  0  0  0  0  0  0  0  0  0  0  0
   -3.8860   25.6410  -30.8410 N   0  0  0  0  0  0  0  0  0  0  0  0
   -5.9530   26.1760  -29.9390 O   0  0  0  0  0  0  0  0  0  0  0  0
   -5.1400   22.8920  -31.2340 N   0  0  0  0  0  0  0  0  0  0  0  0
   -3.7360   22.6470  -31.0570 C   0  0  0  0  0  0  0  0  0  0  0  0
   -3.0830   22.0630  -31.9630 O   0  0  0  0  0  0  0  0  0  0  0  0
   -3.1140   23.0390  -29.8630 O   0  0  0  0  0  0  0  0  0  0  0  0
   -1.7380   23.2530  -29.7040 C   0  0  0  0  0  0  0  0  0  0  0  0
   -1.2830   24.4000  -29.4380 O   0  0  0  0  0  0  0  0  0  0  0  0
   -0.8040   22.0910  -29.7890 C   0  0  0  0  0  0  0  0  0  0  0  0
   -0.3170   21.9660  -31.0780 F   0  0  0  0  0  0  0  0  0  0  0  0
    0.2520   22.2890  -28.9190 F   0  0  0  0  0  0  0  0  0  0  0  0
   -1.4650   20.9280  -29.4420 F   0  0  0  0  0  0  0  0  0  0  0  0
   -6.0680   21.9960  -31.6380 C   0  0  0  0  0  0  0  0  0  0  0  0
   -5.8810   20.6590  -32.0110 C   0  0  0  0  0  0  0  0  0  0  0  0
   -7.8571   18.0080  -32.8998 H   0  0  0  0  0  0  0  0  0  0  0  0
   -6.3222   17.9253  -31.9639 H   0  0  0  0  0  0  0  0  0  0  0  0
   -9.1845   19.8971  -32.6119 H   0  0  0  0  0  0  0  0  0  0  0  0
   -9.4583   22.2947  -31.9009 H   0  0  0  0  0  0  0  0  0  0  0  0
   -7.9988   24.5779  -30.9874 H   0  0  0  0  0  0  0  0  0  0  0  0
   -3.0950   25.1750  -30.3430 H   0  0  0  0  0  0  0  0  0  0  0  0
   -4.8766   20.2105  -32.0173 H   0  0  0  0  0  0  0  0  0  0  0  0
  1  2  3  0
  2  3  1  0
  3  4  1  0
  4  5  2  0
  5  6  1  0
  6  7  2  0
  7  8  1  0
  8  9  2  0
  9 10  1  0
 10 11  1  0
 10 12  2  0
  9 13  1  0
 13 14  1  0
 14 15  2  0
 14 16  1  0
 16 17  1  0
 17 18  2  0
 17 19  1  0
 19 20  1  0
 19 21  1  0
 19 22  1  0
 13 23  1  0
 23 24  2  0
 24  4  1  0
 23  7  1  0
  3 25  1  0
  3 26  1  0
  5 27  1  0
  6 28  1  0
  8 29  1  0
 11 30  1  0
 24 31  1  0
M  CHG  1  11  -1
M  END
>  <UniqueID>  (37) 
37

>  <SMILES>  (37) 
N#CCc1ccc2cc(C([NH-])=O)n(C(=O)OC(=O)C(F)(F)F)c2c1

>  <Energy>  (37) 
68.37766137570678

>  <Genealogy>  (37) 
N#CCc1ccc2cc(C([NH-])=O)n(C(=O)OC(=O)C(F)(F)F)c2c1 (protonated)
N#CCc1ccc2cc(C([NH-])=O)n(C(=O)OC(=O)C(F)(F)F)c2c1 (3D coordinates assigned)
N#CCc1ccc2cc(C([NH-])=O)n(C(=O)OC(=O)C(F)(F)F)c2c1 (optimized conformer: 68.37766137570678 kcal/mol)

>  <smiles>  (37) 
N#CCc1ccc2cc(C(N)=O)n(C(=O)OC(=O)C(F)(F)F)c2c1

>  <score_type>  (37) 
oracle

>  <origin>  (37) 
adg

>  <m_score__min__energy>  (37) 
-9.4100000000000001

>  <m_primary>  (37) 
energy

$$$$
37:0
     RDKit          3D

 36 37  0  0  0  0  0  0  0  0999 V2000
   -7.5820   18.5150  -32.7040 C   0  0  0  0  0  0  0  0  0  0  0  0
   -7.5800   19.9200  -32.1830 C   0  0  0  0  0  0  0  0  0  0  0  0
   -8.8060   20.5720  -31.9000 C   0  0  0  0  0  0  0  0  0  0  0  0
   -8.8220   21.9050  -31.4570 C   0  0  0  0  0  0  0  0  0  0  0  0
   -7.6020   22.5580  -31.3120 C   0  0  0  0  0  0  0  0  0  0  0  0
   -7.3310   23.8530  -30.9360 C   0  0  0  0  0  0  0  0  0  0  0  0
   -5.9420   23.9710  -30.9890 C   0  0  0  0  0  0  0  0  0  0  0  0
   -5.2130   25.1900  -30.5840 C   0  0  0  0  0  0  0  0  0  0  0  0
   -3.8020   25.2910  -30.7530 N   0  0  0  0  0  0  0  0  0  0  0  0
   -5.8370   26.1370  -30.0360 O   0  0  0  0  0  0  0  0  0  0  0  0
   -5.3780   22.7970  -31.3890 N   0  0  0  0  0  0  0  0  0  0  0  0
   -3.9970   22.5420  -31.6810 C   0  0  0  0  0  0  0  0  0  0  0  0
   -3.6360   22.3050  -32.8660 O   0  0  0  0  0  0  0  0  0  0  0  0
   -3.0520   22.5900  -30.6500 O   0  0  0  0  0  0  0  0  0  0  0  0
   -1.6690   22.3150  -30.8540 C   0  0  0  0  0  0  0  0  0  0  0  0
   -0.8670   23.2060  -30.0830 O   0  0  0  0  0  0  0  0  0  0  0  0
   -1.4080   24.1030  -29.1560 C   0  0  0  0  0  0  0  0  0  0  0  0
   -1.2590   25.3470  -29.3000 O   0  0  0  0  0  0  0  0  0  0  0  0
   -2.2070   23.5810  -28.0040 C   0  0  0  0  0  0  0  0  0  0  0  0
   -3.5570   24.1300  -28.0330 N   0  0  0  0  0  0  0  0  0  0  0  0
   -4.0820   24.5770  -27.0120 N   0  0  0  0  0  0  0  0  0  0  0  0
   -4.6080   25.0240  -25.9940 N   0  0  0  0  0  0  0  0  0  0  0  0
   -6.4060   21.9410  -31.5810 C   0  0  0  0  0  0  0  0  0  0  0  0
   -6.3620   20.6210  -32.0430 C   0  0  0  0  0  0  0  0  0  0  0  0
   -7.5830   17.8106  -31.8591 H   0  0  0  0  0  0  0  0  0  0  0  0
   -8.4804   18.3528  -33.3177 H   0  0  0  0  0  0  0  0  0  0  0  0
   -6.6841   18.3502  -33.3177 H   0  0  0  0  0  0  0  0  0  0  0  0
   -9.7541   20.0292  -32.0284 H   0  0  0  0  0  0  0  0  0  0  0  0
   -9.7694   22.4165  -31.2318 H   0  0  0  0  0  0  0  0  0  0  0  0
   -8.0558   24.6307  -30.6534 H   0  0  0  0  0  0  0  0  0  0  0  0
   -3.1490   24.7270  -30.1670 H   0  0  0  0  0  0  0  0  0  0  0  0
   -1.4563   21.2797  -30.5491 H   0  0  0  0  0  0  0  0  0  0  0  0
   -1.4311   22.4513  -31.9193 H   0  0  0  0  0  0  0  0  0  0  0  0
   -2.2602   22.4841  -28.0670 H   0  0  0  0  0  0  0  0  0  0  0  0
   -1.7190   23.8820  -27.0652 H   0  0  0  0  0  0  0  0  0  0  0  0
   -5.4035   20.1416  -32.2908 H   0  0  0  0  0  0  0  0  0  0  0  0
  1  2  1  0
  2  3  2  0
  3  4  1  0
  4  5  2  0
  5  6  1  0
  6  7  2  0
  7  8  1  0
  8  9  1  0
  8 10  2  0
  7 11  1  0
 11 12  1  0
 12 13  2  0
 12 14  1  0
 14 15  1  0
 15 16  1  0
 16 17  1  0
 17 18  2  0
 17 19  1  0
 19 20  1  0
 20 21  2  0
 21 22  2  0
 11 23  1  0
 23 24  2  0
 24  2  1  0
 23  5  1  0
  1 25  1  0
  1 26  1  0
  1 27  1  0
  3 28  1  0
  4 29  1  0
  6 30  1  0
  9 31  1  0
 15 32  1  0
 15 33  1  0
 19 34  1  0
 19 35  1  0
 24 36  1  0
M  CHG  3   9  -1  21   1  22  -1
M  END
>  <UniqueID>  (38) 
38

>  <SMILES>  (38) 
Cc1ccc2cc(C([NH-])=O)n(C(=O)OCOC(=O)CN=[N+]=[N-])c2c1

>  <Energy>  (38) 
68.33158126357164

>  <Genealogy>  (38) 
Cc1ccc2cc(C([NH-])=O)n(C(=O)OCOC(=O)CN=[N+]=[N-])c2c1 (protonated)
Cc1ccc2cc(C([NH-])=O)n(C(=O)OCOC(=O)CN=[N+]=[N-])c2c1 (3D coordinates assigned)
Cc1ccc2cc(C([NH-])=O)n(C(=O)OCOC(=O)CN=[N+]=[N-])c2c1 (optimized conformer: 68.33158126357164 kcal/mol)

>  <smiles>  (38) 
Cc1ccc2cc(C(N)=O)n(C(=O)OCOC(=O)CN=[N+]=[N-])c2c1

>  <score_type>  (38) 
oracle

>  <origin>  (38) 
adg

>  <m_score__min__energy>  (38) 
-10.109999999999999

>  <m_primary>  (38) 
energy

$$$$
38:0
     RDKit          3D

 52 55  0  0  0  0  0  0  0  0999 V2000
   -3.9280   25.6660  -30.8130 N   0  0  0  0  0  0  0  0  0  0  0  0
   -5.2610   25.2700  -30.4950 C   0  0  0  0  0  0  0  0  0  0  0  0
   -5.9620   26.0050  -29.7460 O   0  0  0  0  0  0  0  0  0  0  0  0
   -5.8210   24.0050  -31.0150 C   0  0  0  0  0  0  0  0  0  0  0  0
   -7.1700   23.8210  -31.3230 C   0  0  0  0  0  0  0  0  0  0  0  0
   -7.2790   22.5010  -31.7070 C   0  0  0  0  0  0  0  0  0  0  0  0
   -8.3890   21.7750  -32.1310 C   0  0  0  0  0  0  0  0  0  0  0  0
   -8.1980   20.4240  -32.4820 C   0  0  0  0  0  0  0  0  0  0  0  0
   -6.9110   19.8280  -32.4090 C   0  0  0  0  0  0  0  0  0  0  0  0
   -6.7230   18.4520  -32.7960 N   0  0  0  0  0  0  0  0  0  0  0  0
   -6.1700   18.1430  -34.1250 C   0  0  0  0  0  0  0  0  0  0  0  0
   -5.7550   16.6710  -34.2200 C   0  0  0  0  0  0  0  0  0  0  0  0
   -5.0540   16.2760  -32.9900 N   0  0  0  0  0  0  0  0  0  0  0  0
   -3.7050   15.7670  -33.0320 C   0  0  0  0  0  0  0  0  0  0  0  0
   -3.4340   14.4230  -32.7160 C   0  0  0  0  0  0  0  0  0  0  0  0
   -2.1170   13.9550  -32.7630 C   0  0  0  0  0  0  0  0  0  0  0  0
   -1.1040   14.7950  -33.1120 N   0  0  0  0  0  0  0  0  0  0  0  0
   -1.3320   16.1000  -33.4130 C   0  0  0  0  0  0  0  0  0  0  0  0
   -2.6320   16.6120  -33.3730 C   0  0  0  0  0  0  0  0  0  0  0  0
   -5.7000   16.5100  -31.6880 C   0  0  0  0  0  0  0  0  0  0  0  0
   -6.9680   17.3590  -31.8410 C   0  0  0  0  0  0  0  0  0  0  0  0
   -5.8090   20.6050  -31.9810 C   0  0  0  0  0  0  0  0  0  0  0  0
   -6.0320   21.9380  -31.6250 C   0  0  0  0  0  0  0  0  0  0  0  0
   -5.1300   22.8470  -31.2030 N   0  0  0  0  0  0  0  0  0  0  0  0
   -3.7240   22.6200  -31.0390 C   0  0  0  0  0  0  0  0  0  0  0  0
   -2.9210   23.0370  -31.9180 O   0  0  0  0  0  0  0  0  0  0  0  0
   -3.2210   21.8730  -29.8760 C   0  0  0  0  0  0  0  0  0  0  0  0
   -2.8130   20.6860  -30.0180 O   0  0  0  0  0  0  0  0  0  0  0  0
   -3.1920   22.5000  -28.5900 N   0  0  0  0  0  0  0  0  0  0  0  0
   -3.0380   23.9360  -28.3900 C   0  0  0  0  0  0  0  0  0  0  0  0
   -1.7430   24.4210  -28.9630 C   0  0  0  0  0  0  0  0  0  0  0  0
   -1.6130   25.6210  -29.3260 O   0  0  0  0  0  0  0  0  0  0  0  0
   -0.6560   23.5580  -29.0390 O   0  0  0  0  0  0  0  0  0  0  0  0
   -3.1400   24.9810  -30.7900 H   0  0  0  0  0  0  0  0  0  0  0  0
   -7.9745   24.5693  -31.2706 H   0  0  0  0  0  0  0  0  0  0  0  0
   -9.3834   22.2415  -32.1900 H   0  0  0  0  0  0  0  0  0  0  0  0
   -9.0565   19.8233  -32.8168 H   0  0  0  0  0  0  0  0  0  0  0  0
   -6.9333   18.3513  -34.8892 H   0  0  0  0  0  0  0  0  0  0  0  0
   -5.2800   18.7686  -34.2876 H   0  0  0  0  0  0  0  0  0  0  0  0
   -6.6508   16.0456  -34.3477 H   0  0  0  0  0  0  0  0  0  0  0  0
   -5.0852   16.5352  -35.0819 H   0  0  0  0  0  0  0  0  0  0  0  0
   -4.2527   13.7448  -32.4338 H   0  0  0  0  0  0  0  0  0  0  0  0
   -1.8989   12.9052  -32.5173 H   0  0  0  0  0  0  0  0  0  0  0  0
   -0.4922   16.7548  -33.6886 H   0  0  0  0  0  0  0  0  0  0  0  0
   -2.8159   17.6710  -33.6070 H   0  0  0  0  0  0  0  0  0  0  0  0
   -5.9689   15.5411  -31.2419 H   0  0  0  0  0  0  0  0  0  0  0  0
   -4.9941   17.0527  -31.0421 H   0  0  0  0  0  0  0  0  0  0  0  0
   -7.7884   16.7269  -32.2118 H   0  0  0  0  0  0  0  0  0  0  0  0
   -7.2409   17.7843  -30.8639 H   0  0  0  0  0  0  0  0  0  0  0  0
   -4.7999   20.1701  -31.9296 H   0  0  0  0  0  0  0  0  0  0  0  0
   -3.8691   24.4594  -28.8853 H   0  0  0  0  0  0  0  0  0  0  0  0
   -3.0424   24.1421  -27.3095 H   0  0  0  0  0  0  0  0  0  0  0  0
  1  2  1  0
  2  3  2  0
  2  4  1  0
  4  5  2  0
  5  6  1  0
  6  7  2  0
  7  8  1  0
  8  9  2  0
  9 10  1  0
 10 11  1  0
 11 12  1  0
 12 13  1  0
 13 14  1  0
 14 15  2  0
 15 16  1  0
 16 17  2  0
 17 18  1  0
 18 19  2  0
 13 20  1  0
 20 21  1  0
  9 22  1  0
 22 23  2  0
 23 24  1  0
 24 25  1  0
 25 26  2  0
 25 27  1  0
 27 28  2  0
 27 29  1  0
 29 30  1  0
 30 31  1  0
 31 32  2  0
 31 33  1  0
 24  4  1  0
 23  6  1  0
 21 10  1  0
 19 14  1  0
  1 34  1  0
  5 35  1  0
  7 36  1  0
  8 37  1  0
 11 38  1  0
 11 39  1  0
 12 40  1  0
 12 41  1  0
 15 42  1  0
 16 43  1  0
 18 44  1  0
 19 45  1  0
 20 46  1  0
 20 47  1  0
 21 48  1  0
 21 49  1  0
 22 50  1  0
 30 51  1  0
 30 52  1  0
M  CHG  3   1  -1  29  -1  33  -1
M  END
>  <UniqueID>  (39) 
39

>  <SMILES>  (39) 
[NH-]C(=O)c1cc2ccc(N3CCN(c4ccncc4)CC3)cc2n1C(=O)C(=O)[N-]CC(=O)[O-]

>  <Energy>  (39) 
101.78245725050111

>  <Genealogy>  (39) 
[NH-]C(=O)c1cc2ccc(N3CCN(c4ccncc4)CC3)cc2n1C(=O)C(=O)[N-]CC(=O)[O-] (protonated)
[NH-]C(=O)c1cc2ccc(N3CCN(c4ccncc4)CC3)cc2n1C(=O)C(=O)[N-]CC(=O)[O-] (3D coordinates assigned)
[NH-]C(=O)c1cc2ccc(N3CCN(c4ccncc4)CC3)cc2n1C(=O)C(=O)[N-]CC(=O)[O-] (nonaromatic ring conformer: 101.78245725050111 kcal/mol)

>  <smiles>  (39) 
NC(=O)c1cc2ccc(N3CCN(c4ccncc4)CC3)cc2n1C(=O)C(=O)NCC(=O)O

>  <score_type>  (39) 
oracle

>  <origin>  (39) 
adg

>  <m_score__min__energy>  (39) 
-14.06

>  <m_primary>  (39) 
energy

$$$$
39:0
     RDKit          3D

 34 35  0  0  0  0  0  0  0  0999 V2000
   -1.1430   24.9550  -28.8130 C   0  0  0  0  0  0  0  0  0  0  0  0
   -2.3930   24.5680  -29.3700 O   0  0  0  0  0  0  0  0  0  0  0  0
   -3.1600   23.5260  -28.8430 C   0  0  0  0  0  0  0  0  0  0  0  0
   -3.7240   23.6440  -27.7200 O   0  0  0  0  0  0  0  0  0  0  0  0
   -3.3590   22.2810  -29.6440 C   0  0  0  0  0  0  0  0  0  0  0  0
   -3.9510   22.6290  -30.9760 C   0  0  0  0  0  0  0  0  0  0  0  0
   -3.1910   22.8660  -31.9530 O   0  0  0  0  0  0  0  0  0  0  0  0
   -5.3700   22.7780  -31.1270 N   0  0  0  0  0  0  0  0  0  0  0  0
   -6.1050   23.9150  -30.9730 C   0  0  0  0  0  0  0  0  0  0  0  0
   -5.5680   25.2210  -30.5240 C   0  0  0  0  0  0  0  0  0  0  0  0
   -4.2140   25.5920  -30.7920 N   0  0  0  0  0  0  0  0  0  0  0  0
   -6.3100   26.0310  -29.9070 O   0  0  0  0  0  0  0  0  0  0  0  0
   -7.4490   23.6610  -31.2490 C   0  0  0  0  0  0  0  0  0  0  0  0
   -7.5090   22.3280  -31.5860 C   0  0  0  0  0  0  0  0  0  0  0  0
   -8.5930   21.5510  -31.9790 C   0  0  0  0  0  0  0  0  0  0  0  0
   -8.3560   20.2050  -32.3070 C   0  0  0  0  0  0  0  0  0  0  0  0
   -7.0480   19.6580  -32.2280 C   0  0  0  0  0  0  0  0  0  0  0  0
   -6.7960   18.2320  -32.6440 C   0  0  0  0  0  0  0  0  0  0  0  0
   -6.4660   18.2010  -33.9860 F   0  0  0  0  0  0  0  0  0  0  0  0
   -7.9230   17.4560  -32.4380 F   0  0  0  0  0  0  0  0  0  0  0  0
   -5.7540   17.6860  -31.9120 F   0  0  0  0  0  0  0  0  0  0  0  0
   -5.9680   20.4890  -31.8480 C   0  0  0  0  0  0  0  0  0  0  0  0
   -6.2400   21.8190  -31.5070 C   0  0  0  0  0  0  0  0  0  0  0  0
   -1.2087   24.9346  -27.7152 H   0  0  0  0  0  0  0  0  0  0  0  0
   -0.3611   24.2569  -29.1465 H   0  0  0  0  0  0  0  0  0  0  0  0
   -0.8923   25.9728  -29.1465 H   0  0  0  0  0  0  0  0  0  0  0  0
   -2.3897   21.7829  -29.7932 H   0  0  0  0  0  0  0  0  0  0  0  0
   -4.0412   21.6060  -29.1063 H   0  0  0  0  0  0  0  0  0  0  0  0
   -3.5430   24.9300  -31.2390 H   0  0  0  0  0  0  0  0  0  0  0  0
   -3.8630   26.5310  -30.4990 H   0  0  0  0  0  0  0  0  0  0  0  0
   -8.2843   24.3754  -31.2062 H   0  0  0  0  0  0  0  0  0  0  0  0
   -9.6058   21.9770  -32.0316 H   0  0  0  0  0  0  0  0  0  0  0  0
   -9.1932   19.5681  -32.6285 H   0  0  0  0  0  0  0  0  0  0  0  0
   -4.9396   20.0995  -31.8212 H   0  0  0  0  0  0  0  0  0  0  0  0
  1  2  1  0
  2  3  1  0
  3  4  2  0
  3  5  1  0
  5  6  1  0
  6  7  2  0
  6  8  1  0
  8  9  1  0
  9 10  1  0
 10 11  1  0
 10 12  2  0
  9 13  2  0
 13 14  1  0
 14 15  2  0
 15 16  1  0
 16 17  2  0
 17 18  1  0
 18 19  1  0
 18 20  1  0
 18 21  1  0
 17 22  1  0
 22 23  2  0
 23  8  1  0
 23 14  1  0
  1 24  1  0
  1 25  1  0
  1 26  1  0
  5 27  1  0
  5 28  1  0
 11 29  1  0
 11 30  1  0
 13 31  1  0
 15 32  1  0
 16 33  1  0
 22 34  1  0
M  END
>  <UniqueID>  (40) 
40

>  <SMILES>  (40) 
COC(=O)CC(=O)n1c(C(N)=O)cc2ccc(C(F)(F)F)cc21

>  <Energy>  (40) 
69.61829448059939

>  <Genealogy>  (40) 
COC(=O)CC(=O)n1c(C(N)=O)cc2ccc(C(F)(F)F)cc21 (3D coordinates assigned)
COC(=O)CC(=O)n1c(C(N)=O)cc2ccc(C(F)(F)F)cc21 (optimized conformer: 69.61829448059939 kcal/mol)

>  <smiles>  (40) 
COC(=O)CC(=O)n1c(C(N)=O)cc2ccc(C(F)(F)F)cc21

>  <score_type>  (40) 
oracle

>  <origin>  (40) 
adg

>  <m_score__min__energy>  (40) 
-8.0500000000000007

>  <m_primary>  (40) 
energy

$$$$
40:0
     RDKit          3D

 50 52  0  0  0  0  0  0  0  0999 V2000
   -3.5480   24.1730  -27.4770 C   0  0  0  0  0  0  0  0  0  0  0  0
   -2.0340   24.2210  -27.1850 C   0  0  0  0  0  0  0  0  0  0  0  0
   -1.7760   25.2450  -26.0620 C   0  0  0  0  0  0  0  0  0  0  0  0
   -1.5570   22.8300  -26.7310 C   0  0  0  0  0  0  0  0  0  0  0  0
   -1.2540   24.6190  -28.4220 C   0  0  0  0  0  0  0  0  0  0  0  0
   -0.2180   25.3350  -28.3250 O   0  0  0  0  0  0  0  0  0  0  0  0
   -1.7310   24.2490  -29.6860 O   0  0  0  0  0  0  0  0  0  0  0  0
   -1.8690   22.8920  -30.0960 C   0  0  0  0  0  0  0  0  0  0  0  0
   -3.2420   22.5160  -30.1030 O   0  0  0  0  0  0  0  0  0  0  0  0
   -4.0100   22.4550  -31.2710 C   0  0  0  0  0  0  0  0  0  0  0  0
   -3.4770   22.1270  -32.3660 O   0  0  0  0  0  0  0  0  0  0  0  0
   -5.4040   22.7950  -31.2240 N   0  0  0  0  0  0  0  0  0  0  0  0
   -5.9710   23.9760  -30.8430 C   0  0  0  0  0  0  0  0  0  0  0  0
   -5.2460   25.2200  -30.5050 C   0  0  0  0  0  0  0  0  0  0  0  0
   -3.8680   25.3520  -30.8460 N   0  0  0  0  0  0  0  0  0  0  0  0
   -5.8190   26.1530  -29.8870 O   0  0  0  0  0  0  0  0  0  0  0  0
   -7.3610   23.8910  -30.9010 C   0  0  0  0  0  0  0  0  0  0  0  0
   -7.6320   22.6160  -31.3420 C   0  0  0  0  0  0  0  0  0  0  0  0
   -8.8520   21.9950  -31.5890 C   0  0  0  0  0  0  0  0  0  0  0  0
   -8.8350   20.6610  -32.0300 C   0  0  0  0  0  0  0  0  0  0  0  0
   -7.6080   19.9730  -32.1960 C   0  0  0  0  0  0  0  0  0  0  0  0
   -7.5940   18.5570  -32.6990 C   0  0  0  0  0  0  0  0  0  0  0  0
   -6.3160   18.2740  -33.3440 N   0  0  0  0  0  0  0  0  0  0  0  0
   -5.3050   17.5610  -32.8160 C   0  0  0  0  0  0  0  0  0  0  0  0
   -4.3110   17.4540  -33.7650 C   0  0  0  0  0  0  0  0  0  0  0  0
   -4.8030   18.1270  -34.8670 C   0  0  0  0  0  0  0  0  0  0  0  0
   -6.0290   18.6130  -34.5900 N   0  0  0  0  0  0  0  0  0  0  0  0
   -6.3890   20.6390  -31.9450 C   0  0  0  0  0  0  0  0  0  0  0  0
   -6.4340   21.9750  -31.5290 C   0  0  0  0  0  0  0  0  0  0  0  0
   -4.1041   24.1554  -26.5281 H   0  0  0  0  0  0  0  0  0  0  0  0
   -3.8382   25.0624  -28.0556 H   0  0  0  0  0  0  0  0  0  0  0  0
   -3.7813   23.2670  -28.0556 H   0  0  0  0  0  0  0  0  0  0  0  0
   -1.8992   24.7559  -25.0844 H   0  0  0  0  0  0  0  0  0  0  0  0
   -0.7514   25.6355  -26.1501 H   0  0  0  0  0  0  0  0  0  0  0  0
   -2.4933   26.0743  -26.1501 H   0  0  0  0  0  0  0  0  0  0  0  0
   -1.5426   22.7880  -25.6319 H   0  0  0  0  0  0  0  0  0  0  0  0
   -2.2433   22.0626  -27.1183 H   0  0  0  0  0  0  0  0  0  0  0  0
   -0.5442   22.6452  -27.1183 H   0  0  0  0  0  0  0  0  0  0  0  0
   -1.4554   22.7748  -31.1085 H   0  0  0  0  0  0  0  0  0  0  0  0
   -1.3247   22.2474  -29.3901 H   0  0  0  0  0  0  0  0  0  0  0  0
   -3.2750   24.5100  -31.0180 H   0  0  0  0  0  0  0  0  0  0  0  0
   -8.0877   24.6770  -30.6478 H   0  0  0  0  0  0  0  0  0  0  0  0
   -9.8010   22.5319  -31.4435 H   0  0  0  0  0  0  0  0  0  0  0  0
   -9.7825   20.1466  -32.2482 H   0  0  0  0  0  0  0  0  0  0  0  0
   -7.7369   17.8678  -31.8537 H   0  0  0  0  0  0  0  0  0  0  0  0
   -8.4064   18.4227  -33.4283 H   0  0  0  0  0  0  0  0  0  0  0  0
   -5.2764   17.1364  -31.8016 H   0  0  0  0  0  0  0  0  0  0  0  0
   -3.3406   16.9453  -33.6668 H   0  0  0  0  0  0  0  0  0  0  0  0
   -4.2746   18.2476  -35.8242 H   0  0  0  0  0  0  0  0  0  0  0  0
   -5.4271   20.1209  -32.0731 H   0  0  0  0  0  0  0  0  0  0  0  0
  1  2  1  0
  2  3  1  0
  2  4  1  0
  2  5  1  0
  5  6  2  0
  5  7  1  0
  7  8  1  0
  8  9  1  0
  9 10  1  0
 10 11  2  0
 10 12  1  0
 12 13  1  0
 13 14  1  0
 14 15  1  0
 14 16  2  0
 13 17  2  0
 17 18  1  0
 18 19  2  0
 19 20  1  0
 20 21  2  0
 21 22  1  0
 22 23  1  0
 23 24  1  0
 24 25  2  0
 25 26  1  0
 26 27  2  0
 21 28  1  0
 28 29  2  0
 29 12  1  0
 29 18  1  0
 27 23  1  0
  1 30  1  0
  1 31  1  0
  1 32  1  0
  3 33  1  0
  3 34  1  0
  3 35  1  0
  4 36  1  0
  4 37  1  0
  4 38  1  0
  8 39  1  0
  8 40  1  0
 15 41  1  0
 17 42  1  0
 19 43  1  0
 20 44  1  0
 22 45  1  0
 22 46  1  0
 24 47  1  0
 25 48  1  0
 26 49  1  0
 28 50  1  0
M  CHG  1  15  -1
M  END
>  <UniqueID>  (41) 
41

>  <SMILES>  (41) 
CC(C)(C)C(=O)OCOC(=O)n1c(C([NH-])=O)cc2ccc(Cn3cccn3)cc21

>  <Energy>  (41) 
109.52025429759124

>  <Genealogy>  (41) 
CC(C)(C)C(=O)OCOC(=O)n1c(C([NH-])=O)cc2ccc(Cn3cccn3)cc21 (protonated)
CC(C)(C)C(=O)OCOC(=O)n1c(C([NH-])=O)cc2ccc(Cn3cccn3)cc21 (3D coordinates assigned)
CC(C)(C)C(=O)OCOC(=O)n1c(C([NH-])=O)cc2ccc(Cn3cccn3)cc21 (optimized conformer: 109.52025429759124 kcal/mol)

>  <smiles>  (41) 
CC(C)(C)C(=O)OCOC(=O)n1c(C(N)=O)cc2ccc(Cn3cccn3)cc21

>  <score_type>  (41) 
oracle

>  <origin>  (41) 
adg

>  <m_score__min__energy>  (41) 
-11.41

>  <m_primary>  (41) 
energy

$$$$
41:0
     RDKit          3D

 40 41  0  0  0  0  0  0  0  0999 V2000
   -7.7720   22.3200  -30.2390 C   0  0  0  0  0  0  0  0  0  0  0  0
   -8.2500   22.4660  -31.6250 N   0  0  0  0  0  0  0  0  0  0  0  0
   -7.3990   23.4290  -32.3420 C   0  0  0  0  0  0  0  0  0  0  0  0
   -8.2560   21.1630  -32.3250 C   0  0  0  0  0  0  0  0  0  0  0  0
   -7.2480   20.1930  -31.6920 C   0  0  0  0  0  0  0  0  0  0  0  0
   -6.0250   20.0890  -32.5050 N   0  0  0  0  0  0  0  0  0  0  0  0
   -6.1360   19.6680  -33.9030 C   0  0  0  0  0  0  0  0  0  0  0  0
   -4.7670   20.5770  -31.9950 C   0  0  0  0  0  0  0  0  0  0  0  0
   -3.6110   19.7580  -32.0420 C   0  0  0  0  0  0  0  0  0  0  0  0
   -2.3850   20.2180  -31.5330 C   0  0  0  0  0  0  0  0  0  0  0  0
   -2.3480   21.4920  -30.9740 C   0  0  0  0  0  0  0  0  0  0  0  0
   -1.2930   22.1860  -30.4270 C   0  0  0  0  0  0  0  0  0  0  0  0
   -1.8260   23.4090  -30.0250 C   0  0  0  0  0  0  0  0  0  0  0  0
   -1.0460   24.4360  -29.3020 C   0  0  0  0  0  0  0  0  0  0  0  0
   -1.6160   25.7010  -28.9820 N   0  0  0  0  0  0  0  0  0  0  0  0
    0.1250   24.1720  -28.9180 O   0  0  0  0  0  0  0  0  0  0  0  0
   -3.1560   23.4730  -30.3210 N   0  0  0  0  0  0  0  0  0  0  0  0
   -4.0480   24.5850  -30.1440 C   0  0  0  0  0  0  0  0  0  0  0  0
   -3.8770   25.6470  -30.7970 O   0  0  0  0  0  0  0  0  0  0  0  0
   -5.1230   24.4890  -29.2690 O   0  0  0  0  0  0  0  0  0  0  0  0
   -3.4590   22.2890  -30.9000 C   0  0  0  0  0  0  0  0  0  0  0  0
   -4.6870   21.8660  -31.4210 C   0  0  0  0  0  0  0  0  0  0  0  0
   -8.5861   22.5687  -29.5423 H   0  0  0  0  0  0  0  0  0  0  0  0
   -7.4489   21.2822  -30.0700 H   0  0  0  0  0  0  0  0  0  0  0  0
   -6.9242   23.0001  -30.0700 H   0  0  0  0  0  0  0  0  0  0  0  0
   -6.8524   24.0476  -31.6150 H   0  0  0  0  0  0  0  0  0  0  0  0
   -6.6812   22.8849  -32.9735 H   0  0  0  0  0  0  0  0  0  0  0  0
   -8.0273   24.0744  -32.9735 H   0  0  0  0  0  0  0  0  0  0  0  0
   -9.2635   20.7259  -32.2627 H   0  0  0  0  0  0  0  0  0  0  0  0
   -7.9715   21.3280  -33.3747 H   0  0  0  0  0  0  0  0  0  0  0  0
   -6.9818   20.5568  -30.6886 H   0  0  0  0  0  0  0  0  0  0  0  0
   -7.7126   19.1976  -31.6336 H   0  0  0  0  0  0  0  0  0  0  0  0
   -6.4162   18.6051  -33.9447 H   0  0  0  0  0  0  0  0  0  0  0  0
   -6.9060   20.2703  -34.4073 H   0  0  0  0  0  0  0  0  0  0  0  0
   -5.1691   19.8123  -34.4073 H   0  0  0  0  0  0  0  0  0  0  0  0
   -3.6745   18.7517  -32.4816 H   0  0  0  0  0  0  0  0  0  0  0  0
   -1.4824   19.5907  -31.5750 H   0  0  0  0  0  0  0  0  0  0  0  0
   -0.2511   21.8474  -30.3282 H   0  0  0  0  0  0  0  0  0  0  0  0
   -2.6500   25.8450  -29.0070 H   0  0  0  0  0  0  0  0  0  0  0  0
   -5.5696   22.5216  -31.3846 H   0  0  0  0  0  0  0  0  0  0  0  0
  1  2  1  0
  2  3  1  0
  2  4  1  0
  4  5  1  0
  5  6  1  0
  6  7  1  0
  6  8  1  0
  8  9  2  0
  9 10  1  0
 10 11  2  0
 11 12  1  0
 12 13  2  0
 13 14  1  0
 14 15  1  0
 14 16  2  0
 13 17  1  0
 17 18  1  0
 18 19  2  0
 18 20  1  0
 17 21  1  0
 21 22  2  0
 22  8  1  0
 21 11  1  0
  1 23  1  0
  1 24  1  0
  1 25  1  0
  3 26  1  0
  3 27  1  0
  3 28  1  0
  4 29  1  0
  4 30  1  0
  5 31  1  0
  5 32  1  0
  7 33  1  0
  7 34  1  0
  7 35  1  0
  9 36  1  0
 10 37  1  0
 12 38  1  0
 15 39  1  0
 22 40  1  0
M  CHG  2  15  -1  20  -1
M  END
>  <UniqueID>  (42) 
42

>  <SMILES>  (42) 
CN(C)CCN(C)c1ccc2cc(C([NH-])=O)n(C(=O)[O-])c2c1

>  <Energy>  (42) 
79.76677479206879

>  <Genealogy>  (42) 
CN(C)CCN(C)c1ccc2cc(C([NH-])=O)n(C(=O)[O-])c2c1 (protonated)
CN(C)CCN(C)c1ccc2cc(C([NH-])=O)n(C(=O)[O-])c2c1 (3D coordinates assigned)
CN(C)CCN(C)c1ccc2cc(C([NH-])=O)n(C(=O)[O-])c2c1 (optimized conformer: 79.76677479206879 kcal/mol)

>  <smiles>  (42) 
CN(C)CCN(C)c1ccc2cc(C(N)=O)n(C(=O)O)c2c1

>  <score_type>  (42) 
oracle

>  <origin>  (42) 
adg

>  <m_score__min__energy>  (42) 
-10.82

>  <m_primary>  (42) 
energy

$$$$
42:0
     RDKit          3D

 38 39  0  0  0  0  0  0  0  0999 V2000
   -0.0850   21.1530  -28.3890 C   0  0  0  0  0  0  0  0  0  0  0  0
   -0.0560   22.6480  -28.0920 C   0  0  0  0  0  0  0  0  0  0  0  0
   -0.6910   23.3800  -29.1370 O   0  0  0  0  0  0  0  0  0  0  0  0
   -2.0100   23.8450  -29.0630 C   0  0  0  0  0  0  0  0  0  0  0  0
   -2.2880   25.0440  -29.3400 O   0  0  0  0  0  0  0  0  0  0  0  0
   -3.0950   22.9130  -28.6270 C   0  0  0  0  0  0  0  0  0  0  0  0
   -3.4920   22.0690  -29.7050 O   0  0  0  0  0  0  0  0  0  0  0  0
   -3.9560   22.5590  -30.9320 C   0  0  0  0  0  0  0  0  0  0  0  0
   -3.1410   22.8380  -31.8540 O   0  0  0  0  0  0  0  0  0  0  0  0
   -5.3640   22.7360  -31.1440 N   0  0  0  0  0  0  0  0  0  0  0  0
   -6.1130   23.8380  -30.8570 C   0  0  0  0  0  0  0  0  0  0  0  0
   -5.5900   25.1450  -30.4120 C   0  0  0  0  0  0  0  0  0  0  0  0
   -4.2250   25.5080  -30.6260 N   0  0  0  0  0  0  0  0  0  0  0  0
   -6.3740   25.9770  -29.8830 O   0  0  0  0  0  0  0  0  0  0  0  0
   -7.4620   23.5910  -31.0940 C   0  0  0  0  0  0  0  0  0  0  0  0
   -7.5190   22.2960  -31.5550 C   0  0  0  0  0  0  0  0  0  0  0  0
   -8.6160   21.5310  -31.9410 C   0  0  0  0  0  0  0  0  0  0  0  0
   -8.3850   20.2070  -32.3490 C   0  0  0  0  0  0  0  0  0  0  0  0
   -7.0740   19.6680  -32.3420 C   0  0  0  0  0  0  0  0  0  0  0  0
   -6.8380   18.2600  -32.8000 C   0  0  0  0  0  0  0  0  0  0  0  0
   -6.6310   17.4460  -31.7010 F   0  0  0  0  0  0  0  0  0  0  0  0
   -5.9830   20.4780  -31.9560 C   0  0  0  0  0  0  0  0  0  0  0  0
   -6.2400   21.8010  -31.5760 C   0  0  0  0  0  0  0  0  0  0  0  0
   -0.0959   20.5914  -27.4432 H   0  0  0  0  0  0  0  0  0  0  0  0
   -0.9880   20.9118  -28.9690 H   0  0  0  0  0  0  0  0  0  0  0  0
    0.8080   20.8770  -28.9690 H   0  0  0  0  0  0  0  0  0  0  0  0
   -0.5829   22.8387  -27.1454 H   0  0  0  0  0  0  0  0  0  0  0  0
    0.9919   22.9741  -28.0170 H   0  0  0  0  0  0  0  0  0  0  0  0
   -2.7266   22.2915  -27.7976 H   0  0  0  0  0  0  0  0  0  0  0  0
   -3.9627   23.5053  -28.3011 H   0  0  0  0  0  0  0  0  0  0  0  0
   -3.8620   26.4190  -30.2650 H   0  0  0  0  0  0  0  0  0  0  0  0
   -3.5960   24.9200  -31.2140 H   0  0  0  0  0  0  0  0  0  0  0  0
   -8.3034   24.2836  -30.9446 H   0  0  0  0  0  0  0  0  0  0  0  0
   -9.6327   21.9506  -31.9269 H   0  0  0  0  0  0  0  0  0  0  0  0
   -9.2292   19.5827  -32.6770 H   0  0  0  0  0  0  0  0  0  0  0  0
   -7.7158   17.9044  -33.3594 H   0  0  0  0  0  0  0  0  0  0  0  0
   -5.9516   18.2299  -33.4506 H   0  0  0  0  0  0  0  0  0  0  0  0
   -4.9577   20.0796  -31.9540 H   0  0  0  0  0  0  0  0  0  0  0  0
  1  2  1  0
  2  3  1  0
  3  4  1  0
  4  5  2  0
  4  6  1  0
  6  7  1  0
  7  8  1  0
  8  9  2  0
  8 10  1  0
 10 11  1  0
 11 12  1  0
 12 13  1  0
 12 14  2  0
 11 15  2  0
 15 16  1  0
 16 17  2  0
 17 18  1  0
 18 19  2  0
 19 20  1  0
 20 21  1  0
 19 22  1  0
 22 23  2  0
 23 10  1  0
 23 16  1  0
  1 24  1  0
  1 25  1  0
  1 26  1  0
  2 27  1  0
  2 28  1  0
  6 29  1  0
  6 30  1  0
 13 31  1  0
 13 32  1  0
 15 33  1  0
 17 34  1  0
 18 35  1  0
 20 36  1  0
 20 37  1  0
 22 38  1  0
M  END
>  <UniqueID>  (43) 
43

>  <SMILES>  (43) 
CCOC(=O)COC(=O)n1c(C(N)=O)cc2ccc(CF)cc21

>  <Energy>  (43) 
69.77240199629307

>  <Genealogy>  (43) 
CCOC(=O)COC(=O)n1c(C(N)=O)cc2ccc(CF)cc21 (3D coordinates assigned)
CCOC(=O)COC(=O)n1c(C(N)=O)cc2ccc(CF)cc21 (optimized conformer: 69.77240199629307 kcal/mol)

>  <smiles>  (43) 
CCOC(=O)COC(=O)n1c(C(N)=O)cc2ccc(CF)cc21

>  <score_type>  (43) 
oracle

>  <origin>  (43) 
adg

>  <m_score__min__energy>  (43) 
-8.3000000000000007

>  <m_primary>  (43) 
energy

$$$$
43:0
     RDKit          3D

 36 37  0  0  0  0  0  0  0  0999 V2000
   -2.7160   20.9720  -27.7710 C   0  0  0  0  0  0  0  0  0  0  0  0
   -2.4030   21.5660  -28.9250 C   0  0  0  0  0  0  0  0  0  0  0  0
   -2.8780   22.9560  -29.2580 C   0  0  1  0  0  0  0  0  0  0  0  0
   -2.0530   24.0120  -28.5080 C   0  0  0  0  0  0  0  0  0  0  0  0
   -2.4280   25.3000  -28.9170 O   0  0  0  0  0  0  0  0  0  0  0  0
   -2.7790   23.1490  -30.6710 O   0  0  0  0  0  0  0  0  0  0  0  0
   -3.6680   22.5840  -31.5960 C   0  0  0  0  0  0  0  0  0  0  0  0
   -3.2310   22.0260  -32.6410 O   0  0  0  0  0  0  0  0  0  0  0  0
   -5.0840   22.6840  -31.3750 N   0  0  0  0  0  0  0  0  0  0  0  0
   -5.7750   23.7510  -30.8810 C   0  0  0  0  0  0  0  0  0  0  0  0
   -5.1870   24.9520  -30.2570 C   0  0  0  0  0  0  0  0  0  0  0  0
   -4.0660   25.6050  -30.8470 N   0  0  0  0  0  0  0  0  0  0  0  0
   -5.6300   25.3640  -29.1510 O   0  0  0  0  0  0  0  0  0  0  0  0
   -7.1480   23.5190  -30.9420 C   0  0  0  0  0  0  0  0  0  0  0  0
   -7.2800   22.2620  -31.4840 C   0  0  0  0  0  0  0  0  0  0  0  0
   -8.4280   21.5300  -31.7720 C   0  0  0  0  0  0  0  0  0  0  0  0
   -8.2720   20.2620  -32.3540 C   0  0  0  0  0  0  0  0  0  0  0  0
   -6.9830   19.7580  -32.6510 C   0  0  0  0  0  0  0  0  0  0  0  0
   -6.8400   18.3930  -33.2550 C   0  0  0  0  0  0  0  0  0  0  0  0
   -5.8380   20.5260  -32.3390 C   0  0  0  0  0  0  0  0  0  0  0  0
   -6.0220   21.7790  -31.7400 C   0  0  0  0  0  0  0  0  0  0  0  0
   -2.3525   19.9556  -27.5592 H   0  0  0  0  0  0  0  0  0  0  0  0
   -3.3374   21.4990  -27.0320 H   0  0  0  0  0  0  0  0  0  0  0  0
   -1.7807   21.0250  -29.6531 H   0  0  0  0  0  0  0  0  0  0  0  0
   -3.9252   23.0698  -28.9411 H   0  0  0  0  0  0  0  0  0  0  0  0
   -2.2276   23.9089  -27.4268 H   0  0  0  0  0  0  0  0  0  0  0  0
   -0.9869   23.8604  -28.7325 H   0  0  0  0  0  0  0  0  0  0  0  0
   -3.4230   25.3180  -28.9640 H   0  0  0  0  0  0  0  0  0  0  0  0
   -3.0930   25.2920  -30.6360 H   0  0  0  0  0  0  0  0  0  0  0  0
   -7.9541   24.1968  -30.6244 H   0  0  0  0  0  0  0  0  0  0  0  0
   -9.4273   21.9327  -31.5503 H   0  0  0  0  0  0  0  0  0  0  0  0
   -9.1601   19.6542  -32.5815 H   0  0  0  0  0  0  0  0  0  0  0  0
   -6.7615   17.6438  -32.4535 H   0  0  0  0  0  0  0  0  0  0  0  0
   -7.7201   18.1734  -33.8773 H   0  0  0  0  0  0  0  0  0  0  0  0
   -5.9335   18.3605  -33.8773 H   0  0  0  0  0  0  0  0  0  0  0  0
   -4.8285   20.1495  -32.5608 H   0  0  0  0  0  0  0  0  0  0  0  0
  1  2  2  0
  2  3  1  0
  3  4  1  0
  4  5  1  0
  3  6  1  0
  6  7  1  0
  7  8  2  0
  7  9  1  0
  9 10  1  0
 10 11  1  0
 11 12  1  0
 11 13  2  0
 10 14  2  0
 14 15  1  0
 15 16  2  0
 16 17  1  0
 17 18  2  0
 18 19  1  0
 18 20  1  0
 20 21  2  0
 21  9  1  0
 21 15  1  0
  1 22  1  0
  1 23  1  0
  2 24  1  0
  3 25  1  1
  4 26  1  0
  4 27  1  0
  5 28  1  0
 12 29  1  0
 14 30  1  0
 16 31  1  0
 17 32  1  0
 19 33  1  0
 19 34  1  0
 19 35  1  0
 20 36  1  0
M  CHG  1  12  -1
M  END
>  <UniqueID>  (44) 
44

>  <SMILES>  (44) 
C=C[C@@H](CO)OC(=O)n1c(C([NH-])=O)cc2ccc(C)cc21

>  <Energy>  (44) 
70.1491695287182

>  <Genealogy>  (44) 
C=CC(CO)OC(=O)n1c(C([NH-])=O)cc2ccc(C)cc21 (protonated)
C=C[C@@H](CO)OC(=O)n1c(C([NH-])=O)cc2ccc(C)cc21 (chirality)
C=C[C@@H](CO)OC(=O)n1c(C([NH-])=O)cc2ccc(C)cc21 (3D coordinates assigned)
C=C[C@@H](CO)OC(=O)n1c(C([NH-])=O)cc2ccc(C)cc21 (optimized conformer: 70.1491695287182 kcal/mol)

>  <smiles>  (44) 
C=CC(CO)OC(=O)n1c(C(N)=O)cc2ccc(C)cc21

>  <score_type>  (44) 
oracle

>  <origin>  (44) 
adg

>  <m_score__min__energy>  (44) 
-10.119999999999999

>  <m_primary>  (44) 
energy

$$$$
44:0
     RDKit          3D

 49 50  0  0  0  0  0  0  0  0999 V2000
   -1.8080   20.4310  -30.3930 C   0  0  0  0  0  0  0  0  0  0  0  0
   -1.3790   20.8930  -31.7820 C   0  0  2  0  0  0  0  0  0  0  0  0
   -2.0900   22.0830  -32.1240 O   0  0  0  0  0  0  0  0  0  0  0  0
   -2.9600   22.7390  -31.2450 C   0  0  0  0  0  0  0  0  0  0  0  0
   -2.5040   23.3780  -30.2570 O   0  0  0  0  0  0  0  0  0  0  0  0
   -4.3800   22.6620  -31.4550 N   0  0  0  0  0  0  0  0  0  0  0  0
   -5.3100   23.6320  -31.2230 C   0  0  0  0  0  0  0  0  0  0  0  0
   -5.0670   24.9240  -30.5510 C   0  0  0  0  0  0  0  0  0  0  0  0
   -3.8740   25.6540  -30.8290 N   0  0  0  0  0  0  0  0  0  0  0  0
   -5.9200   25.4120  -29.7650 O   0  0  0  0  0  0  0  0  0  0  0  0
   -6.5710   23.2060  -31.6360 C   0  0  0  0  0  0  0  0  0  0  0  0
   -6.3860   21.9340  -32.1260 C   0  0  0  0  0  0  0  0  0  0  0  0
   -7.3030   21.0460  -32.6760 C   0  0  0  0  0  0  0  0  0  0  0  0
   -6.8290   19.8040  -33.1280 C   0  0  0  0  0  0  0  0  0  0  0  0
   -5.4490   19.4740  -33.0350 C   0  0  0  0  0  0  0  0  0  0  0  0
   -4.9360   18.2090  -33.4970 N   0  0  0  0  0  0  0  0  0  0  0  0
   -5.1280   17.6710  -34.8440 C   0  0  0  0  0  0  0  0  0  0  0  0
   -3.8250   17.0850  -35.3840 C   0  0  0  0  0  0  0  0  0  0  0  0
   -2.8300   17.1810  -34.4030 O   0  0  0  0  0  0  0  0  0  0  0  0
   -4.5530   20.4050  -32.4650 C   0  0  0  0  0  0  0  0  0  0  0  0
   -5.0560   21.6280  -32.0060 C   0  0  0  0  0  0  0  0  0  0  0  0
   -1.6450   19.8170  -32.7960 C   0  0  0  0  0  0  0  0  0  0  0  0
   -2.1790   18.7310  -32.4370 O   0  0  0  0  0  0  0  0  0  0  0  0
   -1.2900   20.0320  -34.1650 N   0  0  0  0  0  0  0  0  0  0  0  0
    0.0860   20.0460  -34.6540 C   0  0  1  0  0  0  0  0  0  0  0  0
    0.4120   18.7160  -35.3510 C   0  0  0  0  0  0  0  0  0  0  0  0
   -0.3800   17.6780  -34.8370 O   0  0  0  0  0  0  0  0  0  0  0  0
    0.2520   21.1910  -35.6080 C   0  0  0  0  0  0  0  0  0  0  0  0
    0.0130   21.0320  -36.8340 O   0  0  0  0  0  0  0  0  0  0  0  0
    0.6410   22.4420  -35.1410 O   0  0  0  0  0  0  0  0  0  0  0  0
   -1.2685   21.0120  -29.6305 H   0  0  0  0  0  0  0  0  0  0  0  0
   -2.8906   20.5851  -30.2734 H   0  0  0  0  0  0  0  0  0  0  0  0
   -1.5743   19.3628  -30.2734 H   0  0  0  0  0  0  0  0  0  0  0  0
   -0.2992   21.1027  -31.7776 H   0  0  0  0  0  0  0  0  0  0  0  0
   -2.9420   25.2990  -30.5160 H   0  0  0  0  0  0  0  0  0  0  0  0
   -7.5149   23.7682  -31.5816 H   0  0  0  0  0  0  0  0  0  0  0  0
   -8.3683   21.3084  -32.7548 H   0  0  0  0  0  0  0  0  0  0  0  0
   -7.5336   19.0776  -33.5592 H   0  0  0  0  0  0  0  0  0  0  0  0
   -4.3920   17.6200  -32.8260 H   0  0  0  0  0  0  0  0  0  0  0  0
   -5.8927   16.8809  -34.8113 H   0  0  0  0  0  0  0  0  0  0  0  0
   -5.4495   18.4873  -35.5075 H   0  0  0  0  0  0  0  0  0  0  0  0
   -3.9794   16.0284  -35.6479 H   0  0  0  0  0  0  0  0  0  0  0  0
   -3.5138   17.6439  -36.2789 H   0  0  0  0  0  0  0  0  0  0  0  0
   -2.4560   18.0980  -34.4800 H   0  0  0  0  0  0  0  0  0  0  0  0
   -3.4807   20.1736  -32.3833 H   0  0  0  0  0  0  0  0  0  0  0  0
    0.7792   20.1709  -33.8091 H   0  0  0  0  0  0  0  0  0  0  0  0
    0.2192   18.8169  -36.4293 H   0  0  0  0  0  0  0  0  0  0  0  0
    1.4702   18.4741  -35.1728 H   0  0  0  0  0  0  0  0  0  0  0  0
   -0.9380   18.0760  -34.1180 H   0  0  0  0  0  0  0  0  0  0  0  0
  1  2  1  0
  2  3  1  0
  3  4  1  0
  4  5  2  0
  4  6  1  0
  6  7  1  0
  7  8  1  0
  8  9  1  0
  8 10  2  0
  7 11  2  0
 11 12  1  0
 12 13  2  0
 13 14  1  0
 14 15  2  0
 15 16  1  0
 16 17  1  0
 17 18  1  0
 18 19  1  0
 15 20  1  0
 20 21  2  0
  2 22  1  0
 22 23  2  0
 22 24  1  0
 24 25  1  0
 25 26  1  0
 26 27  1  0
 25 28  1  0
 28 29  2  0
 28 30  1  0
 21  6  1  0
 21 12  1  0
  1 31  1  0
  1 32  1  0
  1 33  1  0
  2 34  1  1
  9 35  1  0
 11 36  1  0
 13 37  1  0
 14 38  1  0
 16 39  1  0
 17 40  1  0
 17 41  1  0
 18 42  1  0
 18 43  1  0
 19 44  1  0
 20 45  1  0
 25 46  1  1
 26 47  1  0
 26 48  1  0
 27 49  1  0
M  CHG  3   9  -1  24  -1  30  -1
M  END
>  <UniqueID>  (45) 
45

>  <SMILES>  (45) 
C[C@H](OC(=O)n1c(C([NH-])=O)cc2ccc(NCCO)cc21)C(=O)[N-][C@@H](CO)C(=O)[O-]

>  <Energy>  (45) 
75.4504047414188

>  <Genealogy>  (45) 
CC(OC(=O)n1c(C([NH-])=O)cc2ccc(NCCO)cc21)C(=O)[N-][C@@H](CO)C(=O)[O-] (protonated)
C[C@H](OC(=O)n1c(C([NH-])=O)cc2ccc(NCCO)cc21)C(=O)[N-][C@@H](CO)C(=O)[O-] (chirality)
C[C@H](OC(=O)n1c(C([NH-])=O)cc2ccc(NCCO)cc21)C(=O)[N-][C@@H](CO)C(=O)[O-] (3D coordinates assigned)
C[C@H](OC(=O)n1c(C([NH-])=O)cc2ccc(NCCO)cc21)C(=O)[N-][C@@H](CO)C(=O)[O-] (optimized conformer: 75.4504047414188 kcal/mol)

>  <smiles>  (45) 
CC(OC(=O)n1c(C(N)=O)cc2ccc(NCCO)cc21)C(=O)N[C@@H](CO)C(=O)O

>  <score_type>  (45) 
oracle

>  <origin>  (45) 
adg

>  <m_score__min__energy>  (45) 
-12.779999999999999

>  <m_primary>  (45) 
energy

$$$$
45:0
     RDKit          3D

 32 33  0  0  0  0  0  0  0  0999 V2000
   -3.8700   25.6110  -30.8330 N   0  0  0  0  0  0  0  0  0  0  0  0
   -5.2310   25.3490  -30.5040 C   0  0  0  0  0  0  0  0  0  0  0  0
   -5.9290   26.2630  -29.9890 O   0  0  0  0  0  0  0  0  0  0  0  0
   -5.8490   24.0440  -30.8140 C   0  0  0  0  0  0  0  0  0  0  0  0
   -7.2210   23.8660  -30.9820 C   0  0  0  0  0  0  0  0  0  0  0  0
   -7.3760   22.5480  -31.3440 C   0  0  0  0  0  0  0  0  0  0  0  0
   -8.5320   21.8270  -31.6240 C   0  0  0  0  0  0  0  0  0  0  0  0
   -8.4010   20.4640  -31.9400 C   0  0  0  0  0  0  0  0  0  0  0  0
   -7.1230   19.8500  -31.9640 C   0  0  0  0  0  0  0  0  0  0  0  0
   -6.9880   18.3890  -32.2860 C   0  0  0  0  0  0  0  0  0  0  0  0
   -8.2420   17.8090  -32.3500 F   0  0  0  0  0  0  0  0  0  0  0  0
   -6.2440   17.7620  -31.3030 F   0  0  0  0  0  0  0  0  0  0  0  0
   -5.9710   20.6140  -31.6730 C   0  0  0  0  0  0  0  0  0  0  0  0
   -6.1300   21.9740  -31.3790 C   0  0  0  0  0  0  0  0  0  0  0  0
   -5.1820   22.8790  -31.0530 N   0  0  0  0  0  0  0  0  0  0  0  0
   -3.7790   22.6230  -30.8870 C   0  0  0  0  0  0  0  0  0  0  0  0
   -2.9870   22.8140  -31.8510 O   0  0  0  0  0  0  0  0  0  0  0  0
   -3.3010   22.1290  -29.6670 O   0  0  0  0  0  0  0  0  0  0  0  0
   -3.6000   22.7230  -28.4050 C   0  0  2  0  0  0  0  0  0  0  0  0
   -4.9700   22.8890  -28.3080 F   0  0  0  0  0  0  0  0  0  0  0  0
   -2.9180   24.0870  -28.2800 C   0  0  0  0  0  0  0  0  0  0  0  0
   -1.9810   24.2590  -29.3080 O   0  0  0  0  0  0  0  0  0  0  0  0
   -3.1950   24.8290  -30.9910 H   0  0  0  0  0  0  0  0  0  0  0  0
   -8.0119   24.6194  -30.8526 H   0  0  0  0  0  0  0  0  0  0  0  0
   -9.5201   22.3097  -31.5988 H   0  0  0  0  0  0  0  0  0  0  0  0
   -9.2968   19.8687  -32.1705 H   0  0  0  0  0  0  0  0  0  0  0  0
   -6.4817   18.2787  -33.2563 H   0  0  0  0  0  0  0  0  0  0  0  0
   -4.9729   20.1517  -31.6772 H   0  0  0  0  0  0  0  0  0  0  0  0
   -3.2321   22.0696  -27.6002 H   0  0  0  0  0  0  0  0  0  0  0  0
   -3.6777   24.8798  -28.3453 H   0  0  0  0  0  0  0  0  0  0  0  0
   -2.3997   24.1402  -27.3112 H   0  0  0  0  0  0  0  0  0  0  0  0
   -2.4570   24.0780  -30.1590 H   0  0  0  0  0  0  0  0  0  0  0  0
  1  2  1  0
  2  3  2  0
  2  4  1  0
  4  5  2  0
  5  6  1  0
  6  7  2  0
  7  8  1  0
  8  9  2  0
  9 10  1  0
 10 11  1  0
 10 12  1  0
  9 13  1  0
 13 14  2  0
 14 15  1  0
 15 16  1  0
 16 17  2  0
 16 18  1  0
 18 19  1  0
 19 20  1  0
 19 21  1  0
 21 22  1  0
 15  4  1  0
 14  6  1  0
  1 23  1  0
  5 24  1  0
  7 25  1  0
  8 26  1  0
 10 27  1  0
 13 28  1  0
 19 29  1  1
 21 30  1  0
 21 31  1  0
 22 32  1  0
M  CHG  1   1  -1
M  END
>  <UniqueID>  (46) 
46

>  <SMILES>  (46) 
[NH-]C(=O)c1cc2ccc(C(F)F)cc2n1C(=O)O[C@H](F)CO

>  <Energy>  (46) 
67.49693895967076

>  <Genealogy>  (46) 
[NH-]C(=O)c1cc2ccc(C(F)F)cc2n1C(=O)OC(F)CO (protonated)
[NH-]C(=O)c1cc2ccc(C(F)F)cc2n1C(=O)O[C@H](F)CO (chirality)
[NH-]C(=O)c1cc2ccc(C(F)F)cc2n1C(=O)O[C@H](F)CO (3D coordinates assigned)
[NH-]C(=O)c1cc2ccc(C(F)F)cc2n1C(=O)O[C@H](F)CO (optimized conformer: 67.49693895967076 kcal/mol)

>  <smiles>  (46) 
NC(=O)c1cc2ccc(C(F)F)cc2n1C(=O)OC(F)CO

>  <score_type>  (46) 
oracle

>  <origin>  (46) 
adg

>  <m_score__min__energy>  (46) 
-9.4900000000000002

>  <m_primary>  (46) 
energy

$$$$
46:0
     RDKit          3D

 33 35  0  0  0  0  0  0  0  0999 V2000
   -1.5750   25.6670  -28.9690 N   0  0  0  0  0  0  0  0  0  0  0  0
   -0.9410   24.3970  -29.0940 C   0  0  0  0  0  0  0  0  0  0  0  0
    0.2260   24.2430  -28.6470 O   0  0  0  0  0  0  0  0  0  0  0  0
   -1.6120   23.2780  -29.7900 C   0  0  0  0  0  0  0  0  0  0  0  0
   -0.9580   22.4270  -30.6780 C   0  0  0  0  0  0  0  0  0  0  0  0
   -1.9370   21.5930  -31.1710 C   0  0  0  0  0  0  0  0  0  0  0  0
   -1.8420   20.5410  -32.0740 C   0  0  0  0  0  0  0  0  0  0  0  0
   -3.0110   19.8250  -32.3760 C   0  0  0  0  0  0  0  0  0  0  0  0
   -4.2510   20.1650  -31.7740 C   0  0  0  0  0  0  0  0  0  0  0  0
   -5.4660   19.3750  -32.1000 C   0  0  0  0  0  0  0  0  0  0  0  0
   -5.3970   18.0030  -32.4090 C   0  0  0  0  0  0  0  0  0  0  0  0
   -6.5680   17.3040  -32.7060 C   0  0  0  0  0  0  0  0  0  0  0  0
   -7.7970   17.9630  -32.6890 C   0  0  0  0  0  0  0  0  0  0  0  0
   -7.8360   19.3220  -32.3670 C   0  0  0  0  0  0  0  0  0  0  0  0
   -9.3640   20.1780  -32.3290 Cl  0  0  0  0  0  0  0  0  0  0  0  0
   -6.6850   19.9870  -32.0830 N   0  0  0  0  0  0  0  0  0  0  0  0
   -4.3000   21.2370  -30.8490 C   0  0  0  0  0  0  0  0  0  0  0  0
   -3.1230   21.9460  -30.5830 C   0  0  0  0  0  0  0  0  0  0  0  0
   -2.9400   22.9780  -29.7290 N   0  0  0  0  0  0  0  0  0  0  0  0
   -3.9310   23.5570  -28.8660 C   0  0  0  0  0  0  0  0  0  0  0  0
   -3.7560   23.5480  -27.6180 O   0  0  0  0  0  0  0  0  0  0  0  0
   -5.0740   24.1470  -29.4260 O   0  0  0  0  0  0  0  0  0  0  0  0
   -5.0670   25.2360  -30.3050 C   0  0  0  0  0  0  0  0  0  0  0  0
   -6.1310   25.8320  -30.6220 O   0  0  0  0  0  0  0  0  0  0  0  0
   -3.8610   25.6660  -30.8410 O   0  0  0  0  0  0  0  0  0  0  0  0
   -2.6060   25.7670  -29.0900 H   0  0  0  0  0  0  0  0  0  0  0  0
    0.1124   22.4221  -30.9315 H   0  0  0  0  0  0  0  0  0  0  0  0
   -0.8801   20.2774  -32.5380 H   0  0  0  0  0  0  0  0  0  0  0  0
   -2.9657   18.9887  -33.0891 H   0  0  0  0  0  0  0  0  0  0  0  0
   -4.4264   17.4854  -32.4163 H   0  0  0  0  0  0  0  0  0  0  0  0
   -6.5215   16.2332  -32.9535 H   0  0  0  0  0  0  0  0  0  0  0  0
   -8.7237   17.4198  -32.9260 H   0  0  0  0  0  0  0  0  0  0  0  0
   -5.2429   21.5063  -30.3506 H   0  0  0  0  0  0  0  0  0  0  0  0
  1  2  1  0
  2  3  2  0
  2  4  1  0
  4  5  2  0
  5  6  1  0
  6  7  2  0
  7  8  1  0
  8  9  2  0
  9 10  1  0
 10 11  2  0
 11 12  1  0
 12 13  2  0
 13 14  1  0
 14 15  1  0
 14 16  2  0
  9 17  1  0
 17 18  2  0
 18 19  1  0
 19 20  1  0
 20 21  2  0
 20 22  1  0
 22 23  1  0
 23 24  2  0
 23 25  1  0
 19  4  1  0
 18  6  1  0
 16 10  1  0
  1 26  1  0
  5 27  1  0
  7 28  1  0
  8 29  1  0
 11 30  1  0
 12 31  1  0
 13 32  1  0
 17 33  1  0
M  CHG  2   1  -1  25  -1
M  END
>  <UniqueID>  (47) 
47

>  <SMILES>  (47) 
[NH-]C(=O)c1cc2ccc(-c3cccc(Cl)n3)cc2n1C(=O)OC(=O)[O-]

>  <Energy>  (47) 
80.8014383758146

>  <Genealogy>  (47) 
[NH-]C(=O)c1cc2ccc(-c3cccc(Cl)n3)cc2n1C(=O)OC(=O)[O-] (protonated)
[NH-]C(=O)c1cc2ccc(-c3cccc(Cl)n3)cc2n1C(=O)OC(=O)[O-] (3D coordinates assigned)
[NH-]C(=O)c1cc2ccc(-c3cccc(Cl)n3)cc2n1C(=O)OC(=O)[O-] (optimized conformer: 80.8014383758146 kcal/mol)

>  <smiles>  (47) 
NC(=O)c1cc2ccc(-c3cccc(Cl)n3)cc2n1C(=O)OC(=O)O

>  <score_type>  (47) 
oracle

>  <origin>  (47) 
adg

>  <m_score__min__energy>  (47) 
-11.68

>  <m_primary>  (47) 
energy

$$$$
47:0
     RDKit          3D

 40 41  0  0  0  0  0  0  0  0999 V2000
   -3.4050   21.8240  -32.5500 C   0  0  0  0  0  0  0  0  0  0  0  0
   -3.9090   20.9800  -33.4480 C   0  0  0  0  0  0  0  0  0  0  0  0
   -4.3150   19.6020  -33.1100 C   0  0  0  0  0  0  0  0  0  0  0  0
   -3.4220   18.7490  -32.8580 O   0  0  0  0  0  0  0  0  0  0  0  0
   -5.6970   19.2080  -33.0730 N   0  0  0  0  0  0  0  0  0  0  0  0
   -6.2100   17.9730  -33.3290 C   0  0  0  0  0  0  0  0  0  0  0  0
   -5.4520   16.8100  -33.8340 C   0  0  0  0  0  0  0  0  0  0  0  0
   -4.2060   16.9720  -34.5140 N   0  0  0  0  0  0  0  0  0  0  0  0
   -5.9340   15.6530  -33.7010 O   0  0  0  0  0  0  0  0  0  0  0  0
   -7.5760   17.9440  -33.0560 C   0  0  0  0  0  0  0  0  0  0  0  0
   -7.8860   19.2140  -32.6210 C   0  0  0  0  0  0  0  0  0  0  0  0
   -9.1000   19.7470  -32.2020 C   0  0  0  0  0  0  0  0  0  0  0  0
   -9.1190   21.0860  -31.7780 C   0  0  0  0  0  0  0  0  0  0  0  0
   -7.9340   21.8640  -31.7660 C   0  0  0  0  0  0  0  0  0  0  0  0
   -8.0070   23.2390  -31.3430 N   0  0  0  0  0  0  0  0  0  0  0  0
   -7.0010   23.9140  -30.5180 C   0  0  0  0  0  0  0  0  0  0  0  0
   -5.7150   24.1910  -31.3080 C   0  0  0  0  0  0  0  0  0  0  0  0
   -4.9400   25.3430  -30.7220 C   0  0  0  0  0  0  0  0  0  0  0  0
   -5.5500   26.4100  -30.4500 O   0  0  0  0  0  0  0  0  0  0  0  0
   -3.5310   25.2720  -30.4670 N   0  0  0  0  0  0  0  0  0  0  0  0
   -2.9130   24.5290  -29.3770 C   0  0  0  0  0  0  0  0  0  0  0  0
   -6.7130   21.2740  -32.1740 C   0  0  0  0  0  0  0  0  0  0  0  0
   -6.7330   19.9520  -32.6280 C   0  0  0  0  0  0  0  0  0  0  0  0
   -3.1174   22.8417  -32.8525 H   0  0  0  0  0  0  0  0  0  0  0  0
   -3.2763   21.5036  -31.5056 H   0  0  0  0  0  0  0  0  0  0  0  0
   -4.0278   21.3244  -34.4859 H   0  0  0  0  0  0  0  0  0  0  0  0
   -3.6590   16.1320  -34.8080 H   0  0  0  0  0  0  0  0  0  0  0  0
   -3.8740   17.9130  -34.8190 H   0  0  0  0  0  0  0  0  0  0  0  0
   -8.2605   17.0898  -33.1646 H   0  0  0  0  0  0  0  0  0  0  0  0
  -10.0168   19.1391  -32.2026 H   0  0  0  0  0  0  0  0  0  0  0  0
  -10.0671   21.5374  -31.4505 H   0  0  0  0  0  0  0  0  0  0  0  0
   -8.8280   23.8090  -31.6490 H   0  0  0  0  0  0  0  0  0  0  0  0
   -7.4140   24.8694  -30.1621 H   0  0  0  0  0  0  0  0  0  0  0  0
   -6.7505   23.2550  -29.6736 H   0  0  0  0  0  0  0  0  0  0  0  0
   -5.0839   23.2903  -31.2895 H   0  0  0  0  0  0  0  0  0  0  0  0
   -5.9949   24.4541  -32.3388 H   0  0  0  0  0  0  0  0  0  0  0  0
   -3.2537   24.9386  -28.4146 H   0  0  0  0  0  0  0  0  0  0  0  0
   -3.1998   23.4693  -29.4467 H   0  0  0  0  0  0  0  0  0  0  0  0
   -1.8188   24.6180  -29.4467 H   0  0  0  0  0  0  0  0  0  0  0  0
   -5.7719   21.8421  -32.1346 H   0  0  0  0  0  0  0  0  0  0  0  0
  1  2  2  0
  2  3  1  0
  3  4  2  0
  3  5  1  0
  5  6  1  0
  6  7  1  0
  7  8  1  0
  7  9  2  0
  6 10  2  0
 10 11  1  0
 11 12  2  0
 12 13  1  0
 13 14  2  0
 14 15  1  0
 15 16  1  0
 16 17  1  0
 17 18  1  0
 18 19  2  0
 18 20  1  0
 20 21  1  0
 14 22  1  0
 22 23  2  0
 23  5  1  0
 23 11  1  0
  1 24  1  0
  1 25  1  0
  2 26  1  0
  8 27  1  0
  8 28  1  0
 10 29  1  0
 12 30  1  0
 13 31  1  0
 15 32  1  0
 16 33  1  0
 16 34  1  0
 17 35  1  0
 17 36  1  0
 21 37  1  0
 21 38  1  0
 21 39  1  0
 22 40  1  0
M  CHG  1  20  -1
M  END
>  <UniqueID>  (48) 
48

>  <SMILES>  (48) 
C=CC(=O)n1c(C(N)=O)cc2ccc(NCCC(=O)[N-]C)cc21

>  <Energy>  (48) 
72.4864790149919

>  <Genealogy>  (48) 
C=CC(=O)n1c(C(N)=O)cc2ccc(NCCC(=O)[N-]C)cc21 (protonated)
C=CC(=O)n1c(C(N)=O)cc2ccc(NCCC(=O)[N-]C)cc21 (3D coordinates assigned)
C=CC(=O)n1c(C(N)=O)cc2ccc(NCCC(=O)[N-]C)cc21 (optimized conformer: 72.4864790149919 kcal/mol)

>  <smiles>  (48) 
C=CC(=O)n1c(C(N)=O)cc2ccc(NCCC(=O)NC)cc21

>  <score_type>  (48) 
oracle

>  <origin>  (48) 
adg

>  <m_score__min__energy>  (48) 
-9.4700000000000006

>  <m_primary>  (48) 
energy

$$$$
48:0
     RDKit          3D

 35 36  0  0  0  0  0  0  0  0999 V2000
   -6.2220   17.6910  -33.8490 C   0  0  0  0  0  0  0  0  0  0  0  0
   -6.3090   18.1720  -32.4640 N   0  0  0  0  0  0  0  0  0  0  0  0
   -6.1310   17.2140  -31.3670 C   0  0  0  0  0  0  0  0  0  0  0  0
   -6.5660   19.5720  -32.1840 C   0  0  0  0  0  0  0  0  0  0  0  0
   -7.8750   20.1120  -32.3300 C   0  0  0  0  0  0  0  0  0  0  0  0
   -8.1330   21.4680  -32.0710 C   0  0  0  0  0  0  0  0  0  0  0  0
   -7.0740   22.2680  -31.6590 C   0  0  0  0  0  0  0  0  0  0  0  0
   -7.0420   23.6140  -31.3720 C   0  0  0  0  0  0  0  0  0  0  0  0
   -5.7210   23.8850  -31.0280 C   0  0  0  0  0  0  0  0  0  0  0  0
   -5.2570   25.2100  -30.5650 C   0  0  0  0  0  0  0  0  0  0  0  0
   -3.9310   25.6570  -30.8340 N   0  0  0  0  0  0  0  0  0  0  0  0
   -6.0250   25.9360  -29.8780 O   0  0  0  0  0  0  0  0  0  0  0  0
   -4.9640   22.7540  -31.1050 N   0  0  0  0  0  0  0  0  0  0  0  0
   -3.5440   22.6370  -30.9260 C   0  0  0  0  0  0  0  0  0  0  0  0
   -2.7750   22.7210  -31.9220 O   0  0  0  0  0  0  0  0  0  0  0  0
   -3.0180   22.4510  -29.6440 O   0  0  0  0  0  0  0  0  0  0  0  0
   -2.8190   23.5250  -28.7310 C   0  0  0  0  0  0  0  0  0  0  0  0
   -1.5680   24.2510  -29.0900 C   0  0  0  0  0  0  0  0  0  0  0  0
   -0.4700   23.6360  -29.1400 O   0  0  0  0  0  0  0  0  0  0  0  0
   -1.6020   25.6200  -29.3260 O   0  0  0  0  0  0  0  0  0  0  0  0
   -5.8090   21.7720  -31.4940 C   0  0  0  0  0  0  0  0  0  0  0  0
   -5.5170   20.4300  -31.7630 C   0  0  0  0  0  0  0  0  0  0  0  0
   -6.0262   16.6086  -33.8496 H   0  0  0  0  0  0  0  0  0  0  0  0
   -7.1711   17.8922  -34.3673 H   0  0  0  0  0  0  0  0  0  0  0  0
   -5.4035   18.2120  -34.3673 H   0  0  0  0  0  0  0  0  0  0  0  0
   -6.2282   17.7369  -30.4041 H   0  0  0  0  0  0  0  0  0  0  0  0
   -6.8987   16.4294  -31.4372 H   0  0  0  0  0  0  0  0  0  0  0  0
   -5.1327   16.7575  -31.4372 H   0  0  0  0  0  0  0  0  0  0  0  0
   -8.6979   19.4564  -32.6510 H   0  0  0  0  0  0  0  0  0  0  0  0
   -9.1439   21.8847  -32.1908 H   0  0  0  0  0  0  0  0  0  0  0  0
   -7.8815   24.3239  -31.4071 H   0  0  0  0  0  0  0  0  0  0  0  0
   -3.1190   25.0040  -30.7600 H   0  0  0  0  0  0  0  0  0  0  0  0
   -3.6732   24.2160  -28.7847 H   0  0  0  0  0  0  0  0  0  0  0  0
   -2.7346   23.1286  -27.7084 H   0  0  0  0  0  0  0  0  0  0  0  0
   -4.4921   20.0469  -31.6501 H   0  0  0  0  0  0  0  0  0  0  0  0
  1  2  1  0
  2  3  1  0
  2  4  1  0
  4  5  2  0
  5  6  1  0
  6  7  2  0
  7  8  1  0
  8  9  2  0
  9 10  1  0
 10 11  1  0
 10 12  2  0
  9 13  1  0
 13 14  1  0
 14 15  2  0
 14 16  1  0
 16 17  1  0
 17 18  1  0
 18 19  2  0
 18 20  1  0
 13 21  1  0
 21 22  2  0
 22  4  1  0
 21  7  1  0
  1 23  1  0
  1 24  1  0
  1 25  1  0
  3 26  1  0
  3 27  1  0
  3 28  1  0
  5 29  1  0
  6 30  1  0
  8 31  1  0
 11 32  1  0
 17 33  1  0
 17 34  1  0
 22 35  1  0
M  CHG  2  11  -1  20  -1
M  END
>  <UniqueID>  (49) 
49

>  <SMILES>  (49) 
CN(C)c1ccc2cc(C([NH-])=O)n(C(=O)OCC(=O)[O-])c2c1

>  <Energy>  (49) 
72.57568675176611

>  <Genealogy>  (49) 
CN(C)c1ccc2cc(C([NH-])=O)n(C(=O)OCC(=O)[O-])c2c1 (protonated)
CN(C)c1ccc2cc(C([NH-])=O)n(C(=O)OCC(=O)[O-])c2c1 (3D coordinates assigned)
CN(C)c1ccc2cc(C([NH-])=O)n(C(=O)OCC(=O)[O-])c2c1 (optimized conformer: 72.57568675176611 kcal/mol)

>  <smiles>  (49) 
CN(C)c1ccc2cc(C(N)=O)n(C(=O)OCC(=O)O)c2c1

>  <score_type>  (49) 
oracle

>  <origin>  (49) 
adg

>  <m_score__min__energy>  (49) 
-12

>  <m_primary>  (49) 
energy

$$$$
49:0
     RDKit          3D

 55 57  0  0  0  0  0  0  0  0999 V2000
   -8.7510   20.6370  -32.2720 C   0  0  0  0  0  0  0  0  0  0  0  0
   -8.2580   21.6890  -31.2900 C   0  0  0  0  0  0  0  0  0  0  0  0
   -6.9280   22.0680  -31.6230 O   0  0  0  0  0  0  0  0  0  0  0  0
   -6.3880   23.3130  -31.2750 C   0  0  0  0  0  0  0  0  0  0  0  0
   -5.9560   24.0950  -32.1630 O   0  0  0  0  0  0  0  0  0  0  0  0
   -6.2890   23.7120  -29.8340 C   0  0  0  0  0  0  0  0  0  0  0  0
   -4.9380   23.6550  -29.3820 O   0  0  0  0  0  0  0  0  0  0  0  0
   -3.8460   23.9880  -30.1910 C   0  0  0  0  0  0  0  0  0  0  0  0
   -3.8350   25.0710  -30.8390 O   0  0  0  0  0  0  0  0  0  0  0  0
   -2.7050   23.1230  -30.2310 N   0  0  0  0  0  0  0  0  0  0  0  0
   -1.4460   23.3790  -29.7800 C   0  0  0  0  0  0  0  0  0  0  0  0
   -1.0360   24.5620  -28.9960 C   0  0  0  0  0  0  0  0  0  0  0  0
   -1.9020   25.6900  -28.9070 N   0  0  0  0  0  0  0  0  0  0  0  0
    0.0870   24.6010  -28.4280 O   0  0  0  0  0  0  0  0  0  0  0  0
   -0.5870   22.3340  -30.1190 C   0  0  0  0  0  0  0  0  0  0  0  0
   -1.3670   21.4290  -30.8060 C   0  0  0  0  0  0  0  0  0  0  0  0
   -1.0230   20.2270  -31.4150 C   0  0  0  0  0  0  0  0  0  0  0  0
   -2.0260   19.5310  -32.1130 C   0  0  0  0  0  0  0  0  0  0  0  0
   -3.3430   20.0480  -32.1960 C   0  0  0  0  0  0  0  0  0  0  0  0
   -4.3600   19.3330  -32.9240 N   0  0  0  0  0  0  0  0  0  0  0  0
   -5.6700   19.0840  -32.3080 C   0  0  0  0  0  0  0  0  0  0  0  0
   -6.3910   17.9250  -33.0170 C   0  0  0  0  0  0  0  0  0  0  0  0
   -5.4090   16.9150  -33.4620 N   0  0  0  0  0  0  0  0  0  0  0  0
   -6.0850   15.7170  -33.9230 C   0  0  0  0  0  0  0  0  0  0  0  0
   -7.2780   15.7490  -34.1950 O   0  0  0  0  0  0  0  0  0  0  0  0
   -5.3260   14.4190  -34.0380 C   0  0  0  0  0  0  0  0  0  0  0  0
   -6.1270   13.4050  -34.5820 O   0  0  0  0  0  0  0  0  0  0  0  0
   -4.5210   17.4440  -34.5280 C   0  0  0  0  0  0  0  0  0  0  0  0
   -4.1440   18.9270  -34.3180 C   0  0  0  0  0  0  0  0  0  0  0  0
   -3.6560   21.2640  -31.5500 C   0  0  0  0  0  0  0  0  0  0  0  0
   -2.6410   21.9300  -30.8560 C   0  0  0  0  0  0  0  0  0  0  0  0
   -9.1539   19.7772  -31.7166 H   0  0  0  0  0  0  0  0  0  0  0  0
   -9.5411   21.0677  -32.9047 H   0  0  0  0  0  0  0  0  0  0  0  0
   -7.9145   20.3054  -32.9047 H   0  0  0  0  0  0  0  0  0  0  0  0
   -8.9131   22.5713  -31.3394 H   0  0  0  0  0  0  0  0  0  0  0  0
   -8.2749   21.2738  -30.2715 H   0  0  0  0  0  0  0  0  0  0  0  0
   -6.6645   24.7394  -29.7182 H   0  0  0  0  0  0  0  0  0  0  0  0
   -6.8902   23.0133  -29.2337 H   0  0  0  0  0  0  0  0  0  0  0  0
   -2.8640   25.6610  -29.3140 H   0  0  0  0  0  0  0  0  0  0  0  0
    0.4850   22.2499  -29.8873 H   0  0  0  0  0  0  0  0  0  0  0  0
    0.0021   19.8328  -31.3526 H   0  0  0  0  0  0  0  0  0  0  0  0
   -1.7856   18.5745  -32.6001 H   0  0  0  0  0  0  0  0  0  0  0  0
   -5.5278   18.8267  -31.2480 H   0  0  0  0  0  0  0  0  0  0  0  0
   -6.2834   19.9924  -32.4005 H   0  0  0  0  0  0  0  0  0  0  0  0
   -7.1030   17.4584  -32.3203 H   0  0  0  0  0  0  0  0  0  0  0  0
   -6.9283   18.3165  -33.8934 H   0  0  0  0  0  0  0  0  0  0  0  0
   -4.8120   16.6590  -32.6380 H   0  0  0  0  0  0  0  0  0  0  0  0
   -4.4517   14.5719  -34.6878 H   0  0  0  0  0  0  0  0  0  0  0  0
   -5.0134   14.1100  -33.0296 H   0  0  0  0  0  0  0  0  0  0  0  0
   -7.0370   13.7850  -34.6760 H   0  0  0  0  0  0  0  0  0  0  0  0
   -3.5977   16.8464  -34.5438 H   0  0  0  0  0  0  0  0  0  0  0  0
   -5.0706   17.3754  -35.4784 H   0  0  0  0  0  0  0  0  0  0  0  0
   -3.0834   19.0681  -34.5734 H   0  0  0  0  0  0  0  0  0  0  0  0
   -4.7823   19.5457  -34.9659 H   0  0  0  0  0  0  0  0  0  0  0  0
   -4.6744   21.6777  -31.5917 H   0  0  0  0  0  0  0  0  0  0  0  0
  1  2  1  0
  2  3  1  0
  3  4  1  0
  4  5  2  0
  4  6  1  0
  6  7  1  0
  7  8  1  0
  8  9  2  0
  8 10  1  0
 10 11  1  0
 11 12  1  0
 12 13  1  0
 12 14  2  0
 11 15  2  0
 15 16  1  0
 16 17  2  0
 17 18  1  0
 18 19  2  0
 19 20  1  0
 20 21  1  0
 21 22  1  0
 22 23  1  0
 23 24  1  0
 24 25  2  0
 24 26  1  0
 26 27  1  0
 23 28  1  0
 28 29  1  0
 19 30  1  0
 30 31  2  0
 31 10  1  0
 31 16  1  0
 29 20  1  0
  1 32  1  0
  1 33  1  0
  1 34  1  0
  2 35  1  0
  2 36  1  0
  6 37  1  0
  6 38  1  0
 13 39  1  0
 15 40  1  0
 17 41  1  0
 18 42  1  0
 21 43  1  0
 21 44  1  0
 22 45  1  0
 22 46  1  0
 23 47  1  0
 26 48  1  0
 26 49  1  0
 27 50  1  0
 28 51  1  0
 28 52  1  0
 29 53  1  0
 29 54  1  0
 30 55  1  0
M  CHG  2  13  -1  23   1
M  END
>  <UniqueID>  (50) 
50

>  <SMILES>  (50) 
CCOC(=O)COC(=O)n1c(C([NH-])=O)cc2ccc(N3CC[NH+](C(=O)CO)CC3)cc21

>  <Energy>  (50) 
96.09099187551911

>  <Genealogy>  (50) 
CCOC(=O)COC(=O)n1c(C([NH-])=O)cc2ccc(N3CC[NH+](C(=O)CO)CC3)cc21 (protonated)
CCOC(=O)COC(=O)n1c(C([NH-])=O)cc2ccc(N3CC[NH+](C(=O)CO)CC3)cc21 (3D coordinates assigned)
CCOC(=O)COC(=O)n1c(C([NH-])=O)cc2ccc(N3CC[NH+](C(=O)CO)CC3)cc21 (nonaromatic ring conformer: 96.09099187551911 kcal/mol)

>  <smiles>  (50) 
CCOC(=O)COC(=O)n1c(C(N)=O)cc2ccc(N3CCN(C(=O)CO)CC3)cc21

>  <score_type>  (50) 
oracle

>  <origin>  (50) 
adg

>  <m_score__min__energy>  (50) 
-10.289999999999999

>  <m_primary>  (50) 
energy

$$$$
50:0
     RDKit          3D

 46 49  0  0  0  0  0  0  0  0999 V2000
   -3.0990   24.6950  -31.1250 H   0  0  0  0  0  0  0  0  0  0  0  0
   -3.6620   25.2930  -30.4800 N   0  0  0  0  0  0  0  0  0  0  0  0
   -5.0850   25.3250  -30.5620 C   0  0  0  0  0  0  0  0  0  0  0  0
   -5.6960   26.3790  -30.2410 O   0  0  0  0  0  0  0  0  0  0  0  0
   -5.8520   24.1310  -30.9740 C   0  0  0  0  0  0  0  0  0  0  0  0
   -7.2440   24.1010  -31.0560 C   0  0  0  0  0  0  0  0  0  0  0  0
   -7.9396   24.9363  -30.8877 H   0  0  0  0  0  0  0  0  0  0  0  0
   -7.5630   22.8050  -31.3920 C   0  0  0  0  0  0  0  0  0  0  0  0
   -8.8050   22.2080  -31.5940 C   0  0  0  0  0  0  0  0  0  0  0  0
   -9.7354   22.7851  -31.4875 H   0  0  0  0  0  0  0  0  0  0  0  0
   -8.8330   20.8460  -31.9380 C   0  0  0  0  0  0  0  0  0  0  0  0
   -9.7991   20.3410  -32.0852 H   0  0  0  0  0  0  0  0  0  0  0  0
   -7.6290   20.1170  -32.0970 C   0  0  0  0  0  0  0  0  0  0  0  0
   -7.6650   18.6500  -32.4160 C   0  0  0  0  0  0  0  0  0  0  0  0
   -7.7637   18.0756  -31.4831 H   0  0  0  0  0  0  0  0  0  0  0  0
   -8.5232   18.4416  -33.0718 H   0  0  0  0  0  0  0  0  0  0  0  0
   -6.4330   18.2620  -33.0960 N   0  0  0  0  0  0  0  0  0  0  0  0
   -5.4500   17.5930  -32.5150 N   0  0  0  0  0  0  0  0  0  0  0  0
   -4.4520   17.4850  -33.4130 C   0  0  0  0  0  0  0  0  0  0  0  0
   -3.4950   16.9718  -33.2379 H   0  0  0  0  0  0  0  0  0  0  0  0
   -4.8130   18.1170  -34.5880 C   0  0  0  0  0  0  0  0  0  0  0  0
   -4.2210   18.2091  -35.5106 H   0  0  0  0  0  0  0  0  0  0  0  0
   -6.0780   18.6060  -34.3480 C   0  0  0  0  0  0  0  0  0  0  0  0
   -6.6927   19.1792  -35.0576 H   0  0  0  0  0  0  0  0  0  0  0  0
   -6.3890   20.7560  -31.8830 C   0  0  0  0  0  0  0  0  0  0  0  0
   -5.4438   20.2068  -32.0051 H   0  0  0  0  0  0  0  0  0  0  0  0
   -6.3910   22.1040  -31.5120 C   0  0  0  0  0  0  0  0  0  0  0  0
   -5.3320   22.9020  -31.2530 N   0  0  0  0  0  0  0  0  0  0  0  0
   -3.9480   22.5250  -31.3130 C   0  0  0  0  0  0  0  0  0  0  0  0
   -3.2150   22.6870  -30.3000 O   0  0  0  0  0  0  0  0  0  0  0  0
   -3.3930   21.9550  -32.5560 C   0  0  0  0  0  0  0  0  0  0  0  0
   -3.3603   22.5840  -33.4578 H   0  0  0  0  0  0  0  0  0  0  0  0
   -2.9290   20.7050  -32.6280 C   0  0  0  0  0  0  0  0  0  0  0  0
   -2.9678   20.0618  -31.7365 H   0  0  0  0  0  0  0  0  0  0  0  0
   -2.3560   20.1630  -33.9030 C   0  0  0  0  0  0  0  0  0  0  0  0
   -3.0157   20.4330  -34.7408 H   0  0  0  0  0  0  0  0  0  0  0  0
   -2.2769   19.0688  -33.8227 H   0  0  0  0  0  0  0  0  0  0  0  0
   -1.0290   20.7180  -34.1380 N   0  0  0  0  0  0  0  0  0  0  0  0
   -0.1950   21.0900  -33.1820 N   0  0  0  0  0  0  0  0  0  0  0  0
    0.8960   21.5900  -33.7370 N   0  0  0  0  0  0  0  0  0  0  0  0
    0.6720   21.5180  -35.0640 C   0  0  0  0  0  0  0  0  0  0  0  0
    1.6610   21.9220  -36.1030 C   0  0  0  0  0  0  0  0  0  0  0  0
    2.5737   22.2948  -35.6152 H   0  0  0  0  0  0  0  0  0  0  0  0
    1.9093   21.0532  -36.7304 H   0  0  0  0  0  0  0  0  0  0  0  0
    1.2300   22.7161  -36.7304 H   0  0  0  0  0  0  0  0  0  0  0  0
   -0.5260   20.9670  -35.3360 N   0  0  0  0  0  0  0  0  0  0  0  0
  1  2  1  0
  2  3  1  0
  3  4  2  0
  3  5  1  0
  5  6  2  0
  6  7  1  0
  6  8  1  0
  8  9  2  0
  9 10  1  0
  9 11  1  0
 11 12  1  0
 11 13  2  0
 13 14  1  0
 14 15  1  0
 14 16  1  0
 14 17  1  0
 17 18  1  0
 18 19  2  0
 19 20  1  0
 19 21  1  0
 21 22  1  0
 21 23  2  0
 23 24  1  0
 13 25  1  0
 25 26  1  0
 25 27  2  0
 27 28  1  0
 28 29  1  0
 29 30  2  0
 29 31  1  0
 31 32  1  0
 31 33  2  0
 33 34  1  0
 33 35  1  0
 35 36  1  0
 35 37  1  0
 35 38  1  0
 38 39  1  0
 39 40  2  0
 40 41  1  0
 41 42  1  0
 42 43  1  0
 42 44  1  0
 42 45  1  0
 41 46  2  0
 28  5  1  0
 46 38  1  0
 27  8  1  0
 23 17  1  0
M  CHG  1   2  -1
M  END
>  <UniqueID>  (51) 
51

>  <SMILES>  (51) 
Cc1nnn(C/C=C/C(=O)n2c(C([NH-])=O)cc3ccc(Cn4cccn4)cc32)n1

>  <Energy>  (51) 
149.72728832214392

>  <Genealogy>  (51) 
Cc1nnn(C/C=C/C(=O)n2c(C([NH-])=O)cc3ccc(Cn4cccn4)cc32)n1 (protonated)
Cc1nnn(C/C=C/C(=O)n2c(C([NH-])=O)cc3ccc(Cn4cccn4)cc32)n1 (cis-trans isomerization)
Cc1nnn(C/C=C/C(=O)n2c(C([NH-])=O)cc3ccc(Cn4cccn4)cc32)n1 (3D coordinates assigned)
Cc1nnn(C/C=C/C(=O)n2c(C([NH-])=O)cc3ccc(Cn4cccn4)cc32)n1 (optimized conformer: 149.72728832214392 kcal/mol)

>  <smiles>  (51) 
Cc1nnn(C/C=C/C(=O)n2c(C(N)=O)cc3ccc(Cn4cccn4)cc32)n1

>  <score_type>  (51) 
oracle

>  <origin>  (51) 
adg

>  <m_score__min__energy>  (51) 
-12.32

>  <m_primary>  (51) 
energy

$$$$
51:0
     RDKit          3D

 31 32  0  0  0  0  0  0  0  0999 V2000
   -3.8730   25.6090  -30.9130 N   0  0  0  0  0  0  0  0  0  0  0  0
   -5.1750   25.2560  -30.4570 C   0  0  0  0  0  0  0  0  0  0  0  0
   -5.7990   26.0470  -29.6980 O   0  0  0  0  0  0  0  0  0  0  0  0
   -5.8250   24.0080  -30.9050 C   0  0  0  0  0  0  0  0  0  0  0  0
   -7.2030   23.8010  -30.8550 C   0  0  0  0  0  0  0  0  0  0  0  0
   -7.4090   22.5720  -31.4400 C   0  0  0  0  0  0  0  0  0  0  0  0
   -8.5900   21.8650  -31.6450 C   0  0  0  0  0  0  0  0  0  0  0  0
   -8.5030   20.5990  -32.2470 C   0  0  0  0  0  0  0  0  0  0  0  0
   -7.2470   20.0660  -32.6240 C   0  0  0  0  0  0  0  0  0  0  0  0
   -7.1720   18.7710  -33.2250 N   0  0  0  0  0  0  0  0  0  0  0  0
   -6.0690   20.8100  -32.4000 C   0  0  0  0  0  0  0  0  0  0  0  0
   -6.1870   22.0760  -31.8140 C   0  0  0  0  0  0  0  0  0  0  0  0
   -5.2030   22.9450  -31.4910 N   0  0  0  0  0  0  0  0  0  0  0  0
   -3.7900   22.7310  -31.6400 C   0  0  0  0  0  0  0  0  0  0  0  0
   -3.3540   22.1450  -32.6670 O   0  0  0  0  0  0  0  0  0  0  0  0
   -2.9170   23.1560  -30.6290 O   0  0  0  0  0  0  0  0  0  0  0  0
   -2.5490   22.3990  -29.5100 C   0  0  0  0  0  0  0  0  0  0  0  0
   -2.1110   21.2230  -29.6420 O   0  0  0  0  0  0  0  0  0  0  0  0
   -2.6770   22.9810  -28.2430 O   0  0  0  0  0  0  0  0  0  0  0  0
   -2.1880   24.2460  -27.8860 C   0  0  0  0  0  0  0  0  0  0  0  0
   -2.6940   24.8970  -26.9320 O   0  0  0  0  0  0  0  0  0  0  0  0
   -1.0680   24.8200  -28.6360 C   0  0  0  0  0  0  0  0  0  0  0  0
    0.0470   24.2350  -28.6550 O   0  0  0  0  0  0  0  0  0  0  0  0
   -1.2290   26.0130  -29.3300 O   0  0  0  0  0  0  0  0  0  0  0  0
   -3.0200   25.3030  -30.3960 H   0  0  0  0  0  0  0  0  0  0  0  0
   -7.9640   24.4764  -30.4369 H   0  0  0  0  0  0  0  0  0  0  0  0
   -9.5615   22.2846  -31.3449 H   0  0  0  0  0  0  0  0  0  0  0  0
   -9.4187   20.0167  -32.4271 H   0  0  0  0  0  0  0  0  0  0  0  0
   -6.7350   17.9690  -32.7150 H   0  0  0  0  0  0  0  0  0  0  0  0
   -7.5510   18.6040  -34.1830 H   0  0  0  0  0  0  0  0  0  0  0  0
   -5.0844   20.4061  -32.6784 H   0  0  0  0  0  0  0  0  0  0  0  0
  1  2  1  0
  2  3  2  0
  2  4  1  0
  4  5  2  0
  5  6  1  0
  6  7  2  0
  7  8  1  0
  8  9  2  0
  9 10  1  0
  9 11  1  0
 11 12  2  0
 12 13  1  0
 13 14  1  0
 14 15  2  0
 14 16  1  0
 16 17  1  0
 17 18  2  0
 17 19  1  0
 19 20  1  0
 20 21  2  0
 20 22  1  0
 22 23  2  0
 22 24  1  0
 13  4  1  0
 12  6  1  0
  1 25  1  0
  5 26  1  0
  7 27  1  0
  8 28  1  0
 10 29  1  0
 10 30  1  0
 11 31  1  0
M  CHG  2   1  -1  24  -1
M  END
>  <UniqueID>  (52) 
52

>  <SMILES>  (52) 
[NH-]C(=O)c1cc2ccc(N)cc2n1C(=O)OC(=O)OC(=O)C(=O)[O-]

>  <Energy>  (52) 
70.83431887473985

>  <Genealogy>  (52) 
[NH-]C(=O)c1cc2ccc(N)cc2n1C(=O)OC(=O)OC(=O)C(=O)[O-] (protonated)
[NH-]C(=O)c1cc2ccc(N)cc2n1C(=O)OC(=O)OC(=O)C(=O)[O-] (3D coordinates assigned)
[NH-]C(=O)c1cc2ccc(N)cc2n1C(=O)OC(=O)OC(=O)C(=O)[O-] (optimized conformer: 70.83431887473985 kcal/mol)

>  <smiles>  (52) 
NC(=O)c1cc2ccc(N)cc2n1C(=O)OC(=O)OC(=O)C(=O)O

>  <score_type>  (52) 
oracle

>  <origin>  (52) 
adg

>  <m_score__min__energy>  (52) 
-11.34

>  <m_primary>  (52) 
energy

$$$$
52:0
     RDKit          3D

 44 45  0  0  0  0  0  0  0  0999 V2000
   -2.4900   25.4640  -25.8950 C   0  0  0  0  0  0  0  0  0  0  0  0
   -1.6100   25.6780  -27.0470 N   0  0  0  0  0  0  0  0  0  0  0  0
   -0.4240   26.5330  -26.9370 C   0  0  0  0  0  0  0  0  0  0  0  0
   -1.9100   25.0270  -28.2930 C   0  0  0  0  0  0  0  0  0  0  0  0
   -1.1430   25.1730  -29.2850 O   0  0  0  0  0  0  0  0  0  0  0  0
   -3.0530   24.2250  -28.4020 O   0  0  0  0  0  0  0  0  0  0  0  0
   -3.0720   22.9950  -29.1160 C   0  0  0  0  0  0  0  0  0  0  0  0
   -2.7930   23.2410  -30.4890 O   0  0  0  0  0  0  0  0  0  0  0  0
   -3.5690   22.7210  -31.5290 C   0  0  0  0  0  0  0  0  0  0  0  0
   -3.0180   22.1590  -32.5140 O   0  0  0  0  0  0  0  0  0  0  0  0
   -4.9990   22.8630  -31.4880 N   0  0  0  0  0  0  0  0  0  0  0  0
   -5.7240   23.9000  -30.9780 C   0  0  0  0  0  0  0  0  0  0  0  0
   -5.1840   25.1870  -30.4950 C   0  0  0  0  0  0  0  0  0  0  0  0
   -3.8720   25.6140  -30.8550 N   0  0  0  0  0  0  0  0  0  0  0  0
   -5.9100   25.9480  -29.8010 O   0  0  0  0  0  0  0  0  0  0  0  0
   -7.0880   23.6250  -31.0530 C   0  0  0  0  0  0  0  0  0  0  0  0
   -7.1780   22.3850  -31.6430 C   0  0  0  0  0  0  0  0  0  0  0  0
   -8.2990   21.6270  -31.9620 C   0  0  0  0  0  0  0  0  0  0  0  0
   -8.0990   20.3700  -32.5540 C   0  0  0  0  0  0  0  0  0  0  0  0
   -6.7880   19.8790  -32.8130 C   0  0  0  0  0  0  0  0  0  0  0  0
   -6.5900   18.5780  -33.4240 N   0  0  0  0  0  0  0  0  0  0  0  0
   -5.7630   18.4380  -34.6300 C   0  0  0  0  0  0  0  0  0  0  0  0
   -7.2190   17.3810  -32.8520 C   0  0  0  0  0  0  0  0  0  0  0  0
   -5.6760   20.6870  -32.4620 C   0  0  0  0  0  0  0  0  0  0  0  0
   -5.9060   21.9460  -31.8950 C   0  0  0  0  0  0  0  0  0  0  0  0
   -1.9180   25.6031  -24.9658 H   0  0  0  0  0  0  0  0  0  0  0  0
   -3.3185   26.1868  -25.9272 H   0  0  0  0  0  0  0  0  0  0  0  0
   -2.8941   24.4414  -25.9272 H   0  0  0  0  0  0  0  0  0  0  0  0
   -0.1905   26.7013  -25.8753 H   0  0  0  0  0  0  0  0  0  0  0  0
    0.4294   26.0410  -27.4266 H   0  0  0  0  0  0  0  0  0  0  0  0
   -0.6211   27.4981  -27.4266 H   0  0  0  0  0  0  0  0  0  0  0  0
   -2.3096   22.3186  -28.7021 H   0  0  0  0  0  0  0  0  0  0  0  0
   -4.0643   22.5301  -29.0204 H   0  0  0  0  0  0  0  0  0  0  0  0
   -3.0360   25.2890  -30.3200 H   0  0  0  0  0  0  0  0  0  0  0  0
   -7.9167   24.2634  -30.7129 H   0  0  0  0  0  0  0  0  0  0  0  0
   -9.3128   22.0013  -31.7565 H   0  0  0  0  0  0  0  0  0  0  0  0
   -8.9699   19.7540  -32.8223 H   0  0  0  0  0  0  0  0  0  0  0  0
   -4.7171   18.2609  -34.3389 H   0  0  0  0  0  0  0  0  0  0  0  0
   -6.1262   17.5886  -35.2271 H   0  0  0  0  0  0  0  0  0  0  0  0
   -5.8264   19.3597  -35.2271 H   0  0  0  0  0  0  0  0  0  0  0  0
   -7.1881   17.4397  -31.7540 H   0  0  0  0  0  0  0  0  0  0  0  0
   -8.2651   17.3210  -33.1867 H   0  0  0  0  0  0  0  0  0  0  0  0
   -6.6750   16.4854  -33.1867 H   0  0  0  0  0  0  0  0  0  0  0  0
   -4.6497   20.3299  -32.6326 H   0  0  0  0  0  0  0  0  0  0  0  0
  1  2  1  0
  2  3  1  0
  2  4  1  0
  4  5  2  0
  4  6  1  0
  6  7  1  0
  7  8  1  0
  8  9  1  0
  9 10  2  0
  9 11  1  0
 11 12  1  0
 12 13  1  0
 13 14  1  0
 13 15  2  0
 12 16  2  0
 16 17  1  0
 17 18  2  0
 18 19  1  0
 19 20  2  0
 20 21  1  0
 21 22  1  0
 21 23  1  0
 20 24  1  0
 24 25  2  0
 25 11  1  0
 25 17  1  0
  1 26  1  0
  1 27  1  0
  1 28  1  0
  3 29  1  0
  3 30  1  0
  3 31  1  0
  7 32  1  0
  7 33  1  0
 14 34  1  0
 16 35  1  0
 18 36  1  0
 19 37  1  0
 22 38  1  0
 22 39  1  0
 22 40  1  0
 23 41  1  0
 23 42  1  0
 23 43  1  0
 24 44  1  0
M  CHG  1  14  -1
M  END
>  <UniqueID>  (53) 
53

>  <SMILES>  (53) 
CN(C)C(=O)OCOC(=O)n1c(C([NH-])=O)cc2ccc(N(C)C)cc21

>  <Energy>  (53) 
76.83633865009314

>  <Genealogy>  (53) 
CN(C)C(=O)OCOC(=O)n1c(C([NH-])=O)cc2ccc(N(C)C)cc21 (protonated)
CN(C)C(=O)OCOC(=O)n1c(C([NH-])=O)cc2ccc(N(C)C)cc21 (3D coordinates assigned)
CN(C)C(=O)OCOC(=O)n1c(C([NH-])=O)cc2ccc(N(C)C)cc21 (optimized conformer: 76.83633865009314 kcal/mol)

>  <smiles>  (53) 
CN(C)C(=O)OCOC(=O)n1c(C(N)=O)cc2ccc(N(C)C)cc21

>  <score_type>  (53) 
oracle

>  <origin>  (53) 
adg

>  <m_score__min__energy>  (53) 
-10.25

>  <m_primary>  (53) 
energy

$$$$
53:0
     RDKit          3D

 35 36  0  0  0  0  0  0  0  0999 V2000
   -0.9320   20.7000  -34.1860 C   0  0  0  0  0  0  0  0  0  0  0  0
   -0.7910   21.5530  -33.0760 O   0  0  0  0  0  0  0  0  0  0  0  0
   -1.7920   21.2390  -32.2050 N   0  0  0  0  0  0  0  0  0  0  0  0
   -1.5830   20.1180  -31.2880 C   0  0  0  0  0  0  0  0  0  0  0  0
   -3.0540   21.9330  -32.3250 C   0  0  0  0  0  0  0  0  0  0  0  0
   -3.6380   21.9310  -33.4420 O   0  0  0  0  0  0  0  0  0  0  0  0
   -3.6920   22.6710  -31.2070 C   0  0  0  0  0  0  0  0  0  0  0  0
   -3.0070   23.1360  -30.2590 O   0  0  0  0  0  0  0  0  0  0  0  0
   -5.1150   22.8610  -31.1950 N   0  0  0  0  0  0  0  0  0  0  0  0
   -5.8000   24.0080  -30.9300 C   0  0  0  0  0  0  0  0  0  0  0  0
   -5.2100   25.2830  -30.4710 C   0  0  0  0  0  0  0  0  0  0  0  0
   -3.8890   25.6580  -30.8480 N   0  0  0  0  0  0  0  0  0  0  0  0
   -5.8730   26.0410  -29.7140 O   0  0  0  0  0  0  0  0  0  0  0  0
   -7.1700   23.8080  -31.1070 C   0  0  0  0  0  0  0  0  0  0  0  0
   -7.3000   22.4930  -31.4940 C   0  0  0  0  0  0  0  0  0  0  0  0
   -8.4370   21.7680  -31.8310 C   0  0  0  0  0  0  0  0  0  0  0  0
   -8.2710   20.4310  -32.2330 C   0  0  0  0  0  0  0  0  0  0  0  0
   -6.9790   19.8430  -32.2840 C   0  0  0  0  0  0  0  0  0  0  0  0
   -6.8100   18.4280  -32.7760 C   0  0  0  0  0  0  0  0  0  0  0  0
   -6.4750   18.4490  -34.1160 F   0  0  0  0  0  0  0  0  0  0  0  0
   -5.8080   17.7820  -32.0710 F   0  0  0  0  0  0  0  0  0  0  0  0
   -7.9840   17.7130  -32.6140 F   0  0  0  0  0  0  0  0  0  0  0  0
   -5.8470   20.6240  -31.9580 C   0  0  0  0  0  0  0  0  0  0  0  0
   -6.0460   21.9450  -31.5420 C   0  0  0  0  0  0  0  0  0  0  0  0
   -1.1022   19.6705  -33.8380 H   0  0  0  0  0  0  0  0  0  0  0  0
   -1.7881   21.0278  -34.7939 H   0  0  0  0  0  0  0  0  0  0  0  0
   -0.0159   20.7348  -34.7939 H   0  0  0  0  0  0  0  0  0  0  0  0
   -1.6497   20.4760  -30.2500 H   0  0  0  0  0  0  0  0  0  0  0  0
   -2.3540   19.3530  -31.4623 H   0  0  0  0  0  0  0  0  0  0  0  0
   -0.5881   19.6823  -31.4623 H   0  0  0  0  0  0  0  0  0  0  0  0
   -3.0580   25.2910  -30.3320 H   0  0  0  0  0  0  0  0  0  0  0  0
   -7.9749   24.5445  -30.9670 H   0  0  0  0  0  0  0  0  0  0  0  0
   -9.4360   22.2262  -31.7846 H   0  0  0  0  0  0  0  0  0  0  0  0
   -9.1517   19.8335  -32.5112 H   0  0  0  0  0  0  0  0  0  0  0  0
   -4.8332   20.2031  -32.0297 H   0  0  0  0  0  0  0  0  0  0  0  0
  1  2  1  0
  2  3  1  0
  3  4  1  0
  3  5  1  0
  5  6  2  0
  5  7  1  0
  7  8  2  0
  7  9  1  0
  9 10  1  0
 10 11  1  0
 11 12  1  0
 11 13  2  0
 10 14  2  0
 14 15  1  0
 15 16  2  0
 16 17  1  0
 17 18  2  0
 18 19  1  0
 19 20  1  0
 19 21  1  0
 19 22  1  0
 18 23  1  0
 23 24  2  0
 24  9  1  0
 24 15  1  0
  1 25  1  0
  1 26  1  0
  1 27  1  0
  4 28  1  0
  4 29  1  0
  4 30  1  0
 12 31  1  0
 14 32  1  0
 16 33  1  0
 17 34  1  0
 23 35  1  0
M  CHG  1  12  -1
M  END
>  <UniqueID>  (54) 
54

>  <SMILES>  (54) 
CON(C)C(=O)C(=O)n1c(C([NH-])=O)cc2ccc(C(F)(F)F)cc21

>  <Energy>  (54) 
74.40826536972904

>  <Genealogy>  (54) 
CON(C)C(=O)C(=O)n1c(C([NH-])=O)cc2ccc(C(F)(F)F)cc21 (protonated)
CON(C)C(=O)C(=O)n1c(C([NH-])=O)cc2ccc(C(F)(F)F)cc21 (3D coordinates assigned)
CON(C)C(=O)C(=O)n1c(C([NH-])=O)cc2ccc(C(F)(F)F)cc21 (optimized conformer: 74.40826536972904 kcal/mol)

>  <smiles>  (54) 
CON(C)C(=O)C(=O)n1c(C(N)=O)cc2ccc(C(F)(F)F)cc21

>  <score_type>  (54) 
oracle

>  <origin>  (54) 
adg

>  <m_score__min__energy>  (54) 
-9.6400000000000006

>  <m_primary>  (54) 
energy

$$$$
54:0
     RDKit          3D

 37 38  0  0  0  0  0  0  0  0999 V2000
   -8.4740   21.8930  -30.8540 C   0  0  0  0  0  0  0  0  0  0  0  0
   -7.8810   21.5330  -32.0830 O   0  0  0  0  0  0  0  0  0  0  0  0
   -6.7110   22.2950  -32.3090 C   0  0  0  0  0  0  0  0  0  0  0  0
   -6.6750   23.5000  -31.3700 C   0  0  0  0  0  0  0  0  0  0  0  0
   -5.4500   24.2570  -31.5930 N   0  0  0  0  0  0  0  0  0  0  0  0
   -4.5180   24.6730  -30.5840 C   0  0  0  0  0  0  0  0  0  0  0  0
   -4.2770   25.9040  -30.4680 O   0  0  0  0  0  0  0  0  0  0  0  0
   -3.8320   23.7260  -29.6750 C   0  0  0  0  0  0  0  0  0  0  0  0
   -4.2570   23.5310  -28.5060 O   0  0  0  0  0  0  0  0  0  0  0  0
   -2.6560   23.0290  -30.1150 N   0  0  0  0  0  0  0  0  0  0  0  0
   -1.3600   23.2930  -29.7890 C   0  0  0  0  0  0  0  0  0  0  0  0
   -0.8830   24.4490  -29.0010 C   0  0  0  0  0  0  0  0  0  0  0  0
   -1.6190   25.6700  -28.9670 N   0  0  0  0  0  0  0  0  0  0  0  0
    0.2050   24.3690  -28.3700 O   0  0  0  0  0  0  0  0  0  0  0  0
   -0.5130   22.3380  -30.3500 C   0  0  0  0  0  0  0  0  0  0  0  0
   -1.3390   21.4730  -31.0320 C   0  0  0  0  0  0  0  0  0  0  0  0
   -1.0330   20.3310  -31.7670 C   0  0  0  0  0  0  0  0  0  0  0  0
   -2.0960   19.6130  -32.3420 C   0  0  0  0  0  0  0  0  0  0  0  0
   -3.4350   20.0360  -32.1560 C   0  0  0  0  0  0  0  0  0  0  0  0
   -4.5580   19.2770  -32.7980 C   0  0  0  0  0  0  0  0  0  0  0  0
   -3.7070   21.2070  -31.4170 C   0  0  0  0  0  0  0  0  0  0  0  0
   -2.6280   21.9100  -30.8710 C   0  0  0  0  0  0  0  0  0  0  0  0
   -7.8560   21.5179  -30.0249 H   0  0  0  0  0  0  0  0  0  0  0  0
   -8.5480   22.9886  -30.7896 H   0  0  0  0  0  0  0  0  0  0  0  0
   -9.4802   21.4531  -30.7896 H   0  0  0  0  0  0  0  0  0  0  0  0
   -5.8272   21.6660  -32.1267 H   0  0  0  0  0  0  0  0  0  0  0  0
   -6.7108   22.6514  -33.3497 H   0  0  0  0  0  0  0  0  0  0  0  0
   -7.5445   24.1442  -31.5675 H   0  0  0  0  0  0  0  0  0  0  0  0
   -6.7043   23.1515  -30.3271 H   0  0  0  0  0  0  0  0  0  0  0  0
   -2.6320   25.6930  -29.2190 H   0  0  0  0  0  0  0  0  0  0  0  0
    0.5826   22.2866  -30.2656 H   0  0  0  0  0  0  0  0  0  0  0  0
    0.0085   20.0007  -31.8939 H   0  0  0  0  0  0  0  0  0  0  0  0
   -1.8862   18.7149  -32.9415 H   0  0  0  0  0  0  0  0  0  0  0  0
   -5.2004   18.8429  -32.0177 H   0  0  0  0  0  0  0  0  0  0  0  0
   -5.1516   19.9599  -33.4236 H   0  0  0  0  0  0  0  0  0  0  0  0
   -4.1457   18.4716  -33.4236 H   0  0  0  0  0  0  0  0  0  0  0  0
   -4.7398   21.5575  -31.2742 H   0  0  0  0  0  0  0  0  0  0  0  0
  1  2  1  0
  2  3  1  0
  3  4  1  0
  4  5  1  0
  5  6  1  0
  6  7  2  0
  6  8  1  0
  8  9  2  0
  8 10  1  0
 10 11  1  0
 11 12  1  0
 12 13  1  0
 12 14  2  0
 11 15  2  0
 15 16  1  0
 16 17  2  0
 17 18  1  0
 18 19  2  0
 19 20  1  0
 19 21  1  0
 21 22  2  0
 22 10  1  0
 22 16  1  0
  1 23  1  0
  1 24  1  0
  1 25  1  0
  3 26  1  0
  3 27  1  0
  4 28  1  0
  4 29  1  0
 13 30  1  0
 15 31  1  0
 17 32  1  0
 18 33  1  0
 20 34  1  0
 20 35  1  0
 20 36  1  0
 21 37  1  0
M  CHG  2   5  -1  13  -1
M  END
>  <UniqueID>  (55) 
55

>  <SMILES>  (55) 
COCC[N-]C(=O)C(=O)n1c(C([NH-])=O)cc2ccc(C)cc21

>  <Energy>  (55) 
75.75126942382722

>  <Genealogy>  (55) 
COCC[N-]C(=O)C(=O)n1c(C([NH-])=O)cc2ccc(C)cc21 (protonated)
COCC[N-]C(=O)C(=O)n1c(C([NH-])=O)cc2ccc(C)cc21 (3D coordinates assigned)
COCC[N-]C(=O)C(=O)n1c(C([NH-])=O)cc2ccc(C)cc21 (optimized conformer: 75.75126942382722 kcal/mol)

>  <smiles>  (55) 
COCCNC(=O)C(=O)n1c(C(N)=O)cc2ccc(C)cc21

>  <score_type>  (55) 
oracle

>  <origin>  (55) 
adg

>  <m_score__min__energy>  (55) 
-10.42

>  <m_primary>  (55) 
energy

$$$$
55:0
     RDKit          3D

 33 34  0  0  0  0  0  0  0  0999 V2000
   -6.3060   17.7800  -32.7940 C   0  0  0  0  0  0  0  0  0  0  0  0
   -7.2360   18.7000  -33.4530 N   0  0  0  0  0  0  0  0  0  0  0  0
   -7.3080   19.9410  -32.7230 C   0  0  0  0  0  0  0  0  0  0  0  0
   -8.5650   20.4590  -32.3200 C   0  0  0  0  0  0  0  0  0  0  0  0
   -8.6510   21.6880  -31.6440 C   0  0  0  0  0  0  0  0  0  0  0  0
   -7.4690   22.3750  -31.3850 C   0  0  0  0  0  0  0  0  0  0  0  0
   -7.2680   23.5920  -30.7760 C   0  0  0  0  0  0  0  0  0  0  0  0
   -5.8900   23.7960  -30.8040 C   0  0  0  0  0  0  0  0  0  0  0  0
   -5.2270   24.9550  -30.1700 C   0  0  0  0  0  0  0  0  0  0  0  0
   -4.1890   25.6640  -30.8410 N   0  0  0  0  0  0  0  0  0  0  0  0
   -5.5500   25.2950  -29.0000 O   0  0  0  0  0  0  0  0  0  0  0  0
   -5.2650   22.7500  -31.4150 N   0  0  0  0  0  0  0  0  0  0  0  0
   -3.8670   22.6120  -31.7150 C   0  0  0  0  0  0  0  0  0  0  0  0
   -3.4870   21.7510  -32.5550 O   0  0  0  0  0  0  0  0  0  0  0  0
   -2.9320   23.4150  -31.0520 O   0  0  0  0  0  0  0  0  0  0  0  0
   -2.2600   23.0140  -29.8600 C   0  0  0  0  0  0  0  0  0  0  0  0
   -1.3640   24.1070  -29.3730 C   0  0  0  0  0  0  0  0  0  0  0  0
   -0.2000   23.8400  -28.9760 O   0  0  0  0  0  0  0  0  0  0  0  0
   -1.8240   25.4170  -29.3280 O   0  0  0  0  0  0  0  0  0  0  0  0
   -6.2450   21.8860  -31.7600 C   0  0  0  0  0  0  0  0  0  0  0  0
   -6.1290   20.6750  -32.4510 C   0  0  0  0  0  0  0  0  0  0  0  0
   -6.4049   17.8778  -31.7028 H   0  0  0  0  0  0  0  0  0  0  0  0
   -6.5390   16.7471  -33.0921 H   0  0  0  0  0  0  0  0  0  0  0  0
   -5.2757   18.0241  -33.0921 H   0  0  0  0  0  0  0  0  0  0  0  0
   -6.9110   18.8750  -34.4320 H   0  0  0  0  0  0  0  0  0  0  0  0
   -8.1830   18.2560  -33.5010 H   0  0  0  0  0  0  0  0  0  0  0  0
   -9.4824   19.8929  -32.5388 H   0  0  0  0  0  0  0  0  0  0  0  0
   -9.6234   22.0946  -31.3291 H   0  0  0  0  0  0  0  0  0  0  0  0
   -8.0328   24.2619  -30.3561 H   0  0  0  0  0  0  0  0  0  0  0  0
   -3.2110   25.2980  -30.8550 H   0  0  0  0  0  0  0  0  0  0  0  0
   -3.0050   22.7835  -29.0842 H   0  0  0  0  0  0  0  0  0  0  0  0
   -1.6511   22.1238  -30.0764 H   0  0  0  0  0  0  0  0  0  0  0  0
   -5.1459   20.3027  -32.7748 H   0  0  0  0  0  0  0  0  0  0  0  0
  1  2  1  0
  2  3  1  0
  3  4  2  0
  4  5  1  0
  5  6  2  0
  6  7  1  0
  7  8  2  0
  8  9  1  0
  9 10  1  0
  9 11  2  0
  8 12  1  0
 12 13  1  0
 13 14  2  0
 13 15  1  0
 15 16  1  0
 16 17  1  0
 17 18  2  0
 17 19  1  0
 12 20  1  0
 20 21  2  0
 21  3  1  0
 20  6  1  0
  1 22  1  0
  1 23  1  0
  1 24  1  0
  2 25  1  0
  2 26  1  0
  4 27  1  0
  5 28  1  0
  7 29  1  0
 10 30  1  0
 16 31  1  0
 16 32  1  0
 21 33  1  0
M  CHG  3   2   1  10  -1  19  -1
M  END
>  <UniqueID>  (56) 
56

>  <SMILES>  (56) 
C[NH2+]c1ccc2cc(C([NH-])=O)n(C(=O)OCC(=O)[O-])c2c1

>  <Energy>  (56) 
69.95270649427195

>  <Genealogy>  (56) 
C[NH2+]c1ccc2cc(C([NH-])=O)n(C(=O)OCC(=O)[O-])c2c1 (protonated)
C[NH2+]c1ccc2cc(C([NH-])=O)n(C(=O)OCC(=O)[O-])c2c1 (3D coordinates assigned)
C[NH2+]c1ccc2cc(C([NH-])=O)n(C(=O)OCC(=O)[O-])c2c1 (optimized conformer: 69.95270649427195 kcal/mol)

>  <smiles>  (56) 
CNc1ccc2cc(C(N)=O)n(C(=O)OCC(=O)O)c2c1

>  <score_type>  (56) 
oracle

>  <origin>  (56) 
adg

>  <m_score__min__energy>  (56) 
-11.029999999999999

>  <m_primary>  (56) 
energy

$$$$
56:0
     RDKit          3D

 38 39  0  0  0  0  0  0  0  0999 V2000
   -4.1030   23.5450  -27.6210 C   0  0  0  0  0  0  0  0  0  0  0  0
   -3.0880   22.8800  -28.4410 N   0  0  0  0  0  0  0  0  0  0  0  0
   -1.6670   23.0910  -28.1370 C   0  0  0  0  0  0  0  0  0  0  0  0
   -1.2430   24.4610  -28.5650 C   0  0  0  0  0  0  0  0  0  0  0  0
   -2.1140   25.2660  -29.3580 N   0  0  0  0  0  0  0  0  0  0  0  0
   -0.1010   24.8920  -28.2540 O   0  0  0  0  0  0  0  0  0  0  0  0
   -3.4600   22.0270  -29.5420 C   0  0  0  0  0  0  0  0  0  0  0  0
   -3.3870   20.7760  -29.4020 O   0  0  0  0  0  0  0  0  0  0  0  0
   -3.9450   22.5780  -30.8280 C   0  0  0  0  0  0  0  0  0  0  0  0
   -3.1280   22.9200  -31.7240 O   0  0  0  0  0  0  0  0  0  0  0  0
   -5.3520   22.7350  -31.0670 N   0  0  0  0  0  0  0  0  0  0  0  0
   -6.1070   23.8460  -30.8400 C   0  0  0  0  0  0  0  0  0  0  0  0
   -5.5820   25.1530  -30.3820 C   0  0  0  0  0  0  0  0  0  0  0  0
   -4.2230   25.5250  -30.6170 N   0  0  0  0  0  0  0  0  0  0  0  0
   -6.3350   25.9530  -29.7670 O   0  0  0  0  0  0  0  0  0  0  0  0
   -7.4450   23.5930  -31.1440 C   0  0  0  0  0  0  0  0  0  0  0  0
   -7.4840   22.2780  -31.5550 C   0  0  0  0  0  0  0  0  0  0  0  0
   -8.5620   21.4940  -31.9510 C   0  0  0  0  0  0  0  0  0  0  0  0
   -8.3140   20.1530  -32.2860 C   0  0  0  0  0  0  0  0  0  0  0  0
   -6.9990   19.6200  -32.2250 C   0  0  0  0  0  0  0  0  0  0  0  0
   -6.7510   18.1630  -32.5250 C   0  0  0  0  0  0  0  0  0  0  0  0
   -6.3220   17.9940  -33.8300 F   0  0  0  0  0  0  0  0  0  0  0  0
   -5.7790   17.6530  -31.6800 F   0  0  0  0  0  0  0  0  0  0  0  0
   -7.9240   17.4560  -32.3410 F   0  0  0  0  0  0  0  0  0  0  0  0
   -5.9350   20.4440  -31.7950 C   0  0  0  0  0  0  0  0  0  0  0  0
   -6.2090   21.7820  -31.4930 C   0  0  0  0  0  0  0  0  0  0  0  0
   -3.8714   23.3933  -26.5564 H   0  0  0  0  0  0  0  0  0  0  0  0
   -4.1078   24.6219  -27.8453 H   0  0  0  0  0  0  0  0  0  0  0  0
   -5.0922   23.1193  -27.8453 H   0  0  0  0  0  0  0  0  0  0  0  0
   -1.5076   22.9834  -27.0539 H   0  0  0  0  0  0  0  0  0  0  0  0
   -1.0696   22.3448  -28.6813 H   0  0  0  0  0  0  0  0  0  0  0  0
   -2.6840   26.0220  -28.9190 H   0  0  0  0  0  0  0  0  0  0  0  0
   -3.8620   26.4360  -30.2560 H   0  0  0  0  0  0  0  0  0  0  0  0
   -3.5870   24.9320  -31.1930 H   0  0  0  0  0  0  0  0  0  0  0  0
   -8.2894   24.2941  -31.0711 H   0  0  0  0  0  0  0  0  0  0  0  0
   -9.5784   21.9117  -32.0004 H   0  0  0  0  0  0  0  0  0  0  0  0
   -9.1480   19.5078  -32.5993 H   0  0  0  0  0  0  0  0  0  0  0  0
   -4.9152   20.0428  -31.6999 H   0  0  0  0  0  0  0  0  0  0  0  0
  1  2  1  0
  2  3  1  0
  3  4  1  0
  4  5  1  0
  4  6  2  0
  2  7  1  0
  7  8  2  0
  7  9  1  0
  9 10  2  0
  9 11  1  0
 11 12  1  0
 12 13  1  0
 13 14  1  0
 13 15  2  0
 12 16  2  0
 16 17  1  0
 17 18  2  0
 18 19  1  0
 19 20  2  0
 20 21  1  0
 21 22  1  0
 21 23  1  0
 21 24  1  0
 20 25  1  0
 25 26  2  0
 26 11  1  0
 26 17  1  0
  1 27  1  0
  1 28  1  0
  1 29  1  0
  3 30  1  0
  3 31  1  0
  5 32  1  0
 14 33  1  0
 14 34  1  0
 16 35  1  0
 18 36  1  0
 19 37  1  0
 25 38  1  0
M  CHG  1   5  -1
M  END
>  <UniqueID>  (57) 
57

>  <SMILES>  (57) 
CN(CC([NH-])=O)C(=O)C(=O)n1c(C(N)=O)cc2ccc(C(F)(F)F)cc21

>  <Energy>  (57) 
77.57008687807546

>  <Genealogy>  (57) 
CN(CC([NH-])=O)C(=O)C(=O)n1c(C(N)=O)cc2ccc(C(F)(F)F)cc21 (protonated)
CN(CC([NH-])=O)C(=O)C(=O)n1c(C(N)=O)cc2ccc(C(F)(F)F)cc21 (3D coordinates assigned)
CN(CC([NH-])=O)C(=O)C(=O)n1c(C(N)=O)cc2ccc(C(F)(F)F)cc21 (optimized conformer: 77.57008687807546 kcal/mol)

>  <smiles>  (57) 
CN(CC(N)=O)C(=O)C(=O)n1c(C(N)=O)cc2ccc(C(F)(F)F)cc21

>  <score_type>  (57) 
oracle

>  <origin>  (57) 
adg

>  <m_score__min__energy>  (57) 
-11.16

>  <m_primary>  (57) 
energy

$$$$
57:0
     RDKit          3D

 30 31  0  0  0  0  0  0  0  0999 V2000
   -3.9150   25.6690  -30.8430 N   0  0  0  0  0  0  0  0  0  0  0  0
   -5.1660   25.0850  -30.4870 C   0  0  0  0  0  0  0  0  0  0  0  0
   -5.9450   25.7130  -29.7220 O   0  0  0  0  0  0  0  0  0  0  0  0
   -5.5520   23.7750  -31.0510 C   0  0  0  0  0  0  0  0  0  0  0  0
   -6.8580   23.4460  -31.4070 C   0  0  0  0  0  0  0  0  0  0  0  0
   -6.8090   22.1280  -31.8000 C   0  0  0  0  0  0  0  0  0  0  0  0
   -7.8220   21.2950  -32.2650 C   0  0  0  0  0  0  0  0  0  0  0  0
   -7.4790   19.9820  -32.6290 C   0  0  0  0  0  0  0  0  0  0  0  0
   -6.1390   19.5300  -32.5260 C   0  0  0  0  0  0  0  0  0  0  0  0
   -5.7740   18.1300  -32.9320 C   0  0  0  0  0  0  0  0  0  0  0  0
   -6.9140   17.3510  -32.9930 F   0  0  0  0  0  0  0  0  0  0  0  0
   -5.1670   18.1490  -34.1740 F   0  0  0  0  0  0  0  0  0  0  0  0
   -5.1380   20.4060  -32.0510 C   0  0  0  0  0  0  0  0  0  0  0  0
   -5.5110   21.7030  -31.6790 C   0  0  0  0  0  0  0  0  0  0  0  0
   -4.7250   22.7030  -31.2230 N   0  0  0  0  0  0  0  0  0  0  0  0
   -3.3010   22.6550  -31.0420 C   0  0  0  0  0  0  0  0  0  0  0  0
   -2.5740   22.1250  -31.9260 O   0  0  0  0  0  0  0  0  0  0  0  0
   -2.7250   23.2170  -29.8960 O   0  0  0  0  0  0  0  0  0  0  0  0
   -1.3290   23.1670  -29.6150 C   0  0  0  0  0  0  0  0  0  0  0  0
   -0.8560   24.4830  -29.0880 C   0  0  0  0  0  0  0  0  0  0  0  0
    0.2130   24.5520  -28.4290 O   0  0  0  0  0  0  0  0  0  0  0  0
   -1.6100   25.6310  -29.2990 O   0  0  0  0  0  0  0  0  0  0  0  0
   -3.0170   25.2760  -30.4830 H   0  0  0  0  0  0  0  0  0  0  0  0
   -7.7413   24.1010  -31.3798 H   0  0  0  0  0  0  0  0  0  0  0  0
   -8.8589   21.6533  -32.3451 H   0  0  0  0  0  0  0  0  0  0  0  0
   -8.2577   19.2980  -32.9975 H   0  0  0  0  0  0  0  0  0  0  0  0
   -5.0800   17.7086  -32.1899 H   0  0  0  0  0  0  0  0  0  0  0  0
   -4.0910   20.0772  -31.9752 H   0  0  0  0  0  0  0  0  0  0  0  0
   -1.1382   22.3862  -28.8641 H   0  0  0  0  0  0  0  0  0  0  0  0
   -0.7861   22.9388  -30.5441 H   0  0  0  0  0  0  0  0  0  0  0  0
  1  2  1  0
  2  3  2  0
  2  4  1  0
  4  5  2  0
  5  6  1  0
  6  7  2  0
  7  8  1  0
  8  9  2  0
  9 10  1  0
 10 11  1  0
 10 12  1  0
  9 13  1  0
 13 14  2  0
 14 15  1  0
 15 16  1  0
 16 17  2  0
 16 18  1  0
 18 19  1  0
 19 20  1  0
 20 21  2  0
 20 22  1  0
 15  4  1  0
 14  6  1  0
  1 23  1  0
  5 24  1  0
  7 25  1  0
  8 26  1  0
 10 27  1  0
 13 28  1  0
 19 29  1  0
 19 30  1  0
M  CHG  2   1  -1  22  -1
M  END
>  <UniqueID>  (58) 
58

>  <SMILES>  (58) 
[NH-]C(=O)c1cc2ccc(C(F)F)cc2n1C(=O)OCC(=O)[O-]

>  <Energy>  (58) 
66.58846594400333

>  <Genealogy>  (58) 
[NH-]C(=O)c1cc2ccc(C(F)F)cc2n1C(=O)OCC(=O)[O-] (protonated)
[NH-]C(=O)c1cc2ccc(C(F)F)cc2n1C(=O)OCC(=O)[O-] (3D coordinates assigned)
[NH-]C(=O)c1cc2ccc(C(F)F)cc2n1C(=O)OCC(=O)[O-] (optimized conformer: 66.58846594400333 kcal/mol)

>  <smiles>  (58) 
NC(=O)c1cc2ccc(C(F)F)cc2n1C(=O)OCC(=O)O

>  <score_type>  (58) 
oracle

>  <origin>  (58) 
adg

>  <m_score__min__energy>  (58) 
-11.52

>  <m_primary>  (58) 
energy

$$$$
58:0
     RDKit          3D

 40 41  0  0  0  0  0  0  0  0999 V2000
   -3.2100   21.2020  -33.2050 N   0  0  0  0  0  0  0  0  0  0  0  0
   -3.6160   20.1510  -33.4650 C   0  0  0  0  0  0  0  0  0  0  0  0
   -4.1300   18.8140  -33.7920 C   0  0  0  0  0  0  0  0  0  0  0  0
   -5.5910   18.8750  -34.2520 C   0  0  0  0  0  0  0  0  0  0  0  0
   -6.4590   17.8070  -33.5700 C   0  0  0  0  0  0  0  0  0  0  0  0
   -7.0770   18.3450  -32.3560 N   0  0  0  0  0  0  0  0  0  0  0  0
   -7.2060   19.7490  -32.0570 C   0  0  0  0  0  0  0  0  0  0  0  0
   -8.4410   20.3940  -32.3200 C   0  0  0  0  0  0  0  0  0  0  0  0
   -8.6120   21.7630  -32.0550 C   0  0  0  0  0  0  0  0  0  0  0  0
   -7.5370   22.4620  -31.5180 C   0  0  0  0  0  0  0  0  0  0  0  0
   -7.4220   23.7940  -31.1890 C   0  0  0  0  0  0  0  0  0  0  0  0
   -6.1260   23.9440  -30.7010 C   0  0  0  0  0  0  0  0  0  0  0  0
   -5.6030   25.2130  -30.1530 C   0  0  0  0  0  0  0  0  0  0  0  0
   -4.3290   25.6940  -30.5750 N   0  0  0  0  0  0  0  0  0  0  0  0
   -6.2840   25.8960  -29.3440 O   0  0  0  0  0  0  0  0  0  0  0  0
   -5.4630   22.7520  -30.7330 N   0  0  0  0  0  0  0  0  0  0  0  0
   -4.0990   22.4910  -30.3710 C   0  0  0  0  0  0  0  0  0  0  0  0
   -3.7260   21.3080  -30.1400 O   0  0  0  0  0  0  0  0  0  0  0  0
   -3.2010   23.5580  -30.2440 O   0  0  0  0  0  0  0  0  0  0  0  0
   -2.6590   24.0210  -29.0060 C   0  0  0  0  0  0  0  0  0  0  0  0
   -3.7300   24.4100  -28.1870 O   0  0  0  0  0  0  0  0  0  0  0  0
   -1.8260   25.1330  -29.2390 O   0  0  0  0  0  0  0  0  0  0  0  0
   -1.9480   22.9770  -28.3830 O   0  0  0  0  0  0  0  0  0  0  0  0
   -6.3430   21.8560  -31.2330 C   0  0  0  0  0  0  0  0  0  0  0  0
   -6.1370   20.4970  -31.5030 C   0  0  0  0  0  0  0  0  0  0  0  0
   -3.5184   18.3825  -34.5981 H   0  0  0  0  0  0  0  0  0  0  0  0
   -4.0772   18.1912  -32.8868 H   0  0  0  0  0  0  0  0  0  0  0  0
   -5.9971   19.8685  -34.0110 H   0  0  0  0  0  0  0  0  0  0  0  0
   -5.6121   18.6860  -35.3354 H   0  0  0  0  0  0  0  0  0  0  0  0
   -7.2481   17.4842  -34.2651 H   0  0  0  0  0  0  0  0  0  0  0  0
   -5.8218   16.9533  -33.2958 H   0  0  0  0  0  0  0  0  0  0  0  0
   -7.4360   17.6540  -31.6600 H   0  0  0  0  0  0  0  0  0  0  0  0
   -9.2773   19.8141  -32.7376 H   0  0  0  0  0  0  0  0  0  0  0  0
   -9.5671   22.2663  -32.2659 H   0  0  0  0  0  0  0  0  0  0  0  0
   -8.1907   24.5743  -31.2901 H   0  0  0  0  0  0  0  0  0  0  0  0
   -3.5080   25.6770  -29.9280 H   0  0  0  0  0  0  0  0  0  0  0  0
   -4.1720   25.1820  -28.6290 H   0  0  0  0  0  0  0  0  0  0  0  0
   -2.2360   25.6660  -29.9660 H   0  0  0  0  0  0  0  0  0  0  0  0
   -2.3180   22.1230  -28.7290 H   0  0  0  0  0  0  0  0  0  0  0  0
   -5.1683   20.0214  -31.2901 H   0  0  0  0  0  0  0  0  0  0  0  0
  1  2  3  0
  2  3  1  0
  3  4  1  0
  4  5  1  0
  5  6  1  0
  6  7  1  0
  7  8  2  0
  8  9  1  0
  9 10  2  0
 10 11  1  0
 11 12  2  0
 12 13  1  0
 13 14  1  0
 13 15  2  0
 12 16  1  0
 16 17  1  0
 17 18  2  0
 17 19  1  0
 19 20  1  0
 20 21  1  0
 20 22  1  0
 20 23  1  0
 16 24  1  0
 24 25  2  0
 25  7  1  0
 24 10  1  0
  3 26  1  0
  3 27  1  0
  4 28  1  0
  4 29  1  0
  5 30  1  0
  5 31  1  0
  6 32  1  0
  8 33  1  0
  9 34  1  0
 11 35  1  0
 14 36  1  0
 21 37  1  0
 22 38  1  0
 23 39  1  0
 25 40  1  0
M  CHG  1  14  -1
M  END
>  <UniqueID>  (59) 
59

>  <SMILES>  (59) 
N#CCCCNc1ccc2cc(C([NH-])=O)n(C(=O)OC(O)(O)O)c2c1

>  <Energy>  (59) 
73.38935850192956

>  <Genealogy>  (59) 
N#CCCCNc1ccc2cc(C([NH-])=O)n(C(=O)OC(O)(O)O)c2c1 (protonated)
N#CCCCNc1ccc2cc(C([NH-])=O)n(C(=O)OC(O)(O)O)c2c1 (3D coordinates assigned)
N#CCCCNc1ccc2cc(C([NH-])=O)n(C(=O)OC(O)(O)O)c2c1 (optimized conformer: 73.38935850192956 kcal/mol)

>  <smiles>  (59) 
N#CCCCNc1ccc2cc(C(N)=O)n(C(=O)OC(O)(O)O)c2c1

>  <score_type>  (59) 
oracle

>  <origin>  (59) 
adg

>  <m_score__min__energy>  (59) 
-9.6500000000000004

>  <m_primary>  (59) 
energy

$$$$
59:0
     RDKit          3D

 49 51  0  0  0  0  0  0  0  0999 V2000
   -3.6070   18.7070  -34.2220 C   0  0  0  0  0  0  0  0  0  0  0  0
   -4.8370   17.9020  -33.9430 C   0  0  0  0  0  0  0  0  0  0  0  0
   -4.9850   16.6170  -34.3150 N   0  0  0  0  0  0  0  0  0  0  0  0
   -6.1910   16.2090  -33.9540 N   0  0  0  0  0  0  0  0  0  0  0  0
   -6.7450   14.8980  -34.2680 C   0  0  0  0  0  0  0  0  0  0  0  0
   -6.8480   17.2230  -33.3610 C   0  0  0  0  0  0  0  0  0  0  0  0
   -6.0050   18.3240  -33.3120 C   0  0  0  0  0  0  0  0  0  0  0  0
   -6.3320   19.6520  -32.7470 C   0  0  0  0  0  0  0  0  0  0  0  0
   -7.6770   20.0990  -32.6730 C   0  0  0  0  0  0  0  0  0  0  0  0
   -7.9850   21.3690  -32.1590 C   0  0  0  0  0  0  0  0  0  0  0  0
   -6.9330   22.1700  -31.7260 C   0  0  0  0  0  0  0  0  0  0  0  0
   -6.9460   23.4490  -31.2170 C   0  0  0  0  0  0  0  0  0  0  0  0
   -5.6100   23.7640  -30.9770 C   0  0  0  0  0  0  0  0  0  0  0  0
   -5.1690   25.0270  -30.3500 C   0  0  0  0  0  0  0  0  0  0  0  0
   -3.9880   25.6750  -30.8170 N   0  0  0  0  0  0  0  0  0  0  0  0
   -5.8420   25.5600  -29.4290 O   0  0  0  0  0  0  0  0  0  0  0  0
   -4.8030   22.7230  -31.3290 N   0  0  0  0  0  0  0  0  0  0  0  0
   -3.3690   22.6800  -31.3110 C   0  0  0  0  0  0  0  0  0  0  0  0
   -2.7600   21.9040  -32.0960 O   0  0  0  0  0  0  0  0  0  0  0  0
   -2.6670   23.5140  -30.4260 O   0  0  0  0  0  0  0  0  0  0  0  0
   -2.3830   23.2710  -29.0390 C   0  0  0  0  0  0  0  0  0  0  0  0
   -3.7130   22.8560  -28.3890 C   0  0  0  0  0  0  0  0  0  0  0  0
   -1.3780   22.1120  -28.8640 C   0  0  0  0  0  0  0  0  0  0  0  0
   -1.8870   24.5630  -28.3460 C   0  0  0  0  0  0  0  0  0  0  0  0
   -1.6130   25.5720  -29.2770 O   0  0  0  0  0  0  0  0  0  0  0  0
   -5.6290   21.7550  -31.7840 C   0  0  0  0  0  0  0  0  0  0  0  0
   -5.2920   20.5020  -32.3100 C   0  0  0  0  0  0  0  0  0  0  0  0
   -3.1438   19.0102  -33.2715 H   0  0  0  0  0  0  0  0  0  0  0  0
   -2.8946   18.0998  -34.7998 H   0  0  0  0  0  0  0  0  0  0  0  0
   -3.8783   19.6028  -34.7998 H   0  0  0  0  0  0  0  0  0  0  0  0
   -4.2850   16.0330  -34.8250 H   0  0  0  0  0  0  0  0  0  0  0  0
   -6.9713   14.3624  -33.3343 H   0  0  0  0  0  0  0  0  0  0  0  0
   -7.6682   15.0207  -34.8534 H   0  0  0  0  0  0  0  0  0  0  0  0
   -6.0136   14.3215  -34.8534 H   0  0  0  0  0  0  0  0  0  0  0  0
   -7.8791   17.1853  -32.9796 H   0  0  0  0  0  0  0  0  0  0  0  0
   -8.4878   19.4428  -33.0224 H   0  0  0  0  0  0  0  0  0  0  0  0
   -9.0259   21.7197  -32.1005 H   0  0  0  0  0  0  0  0  0  0  0  0
   -7.8242   24.0867  -31.0378 H   0  0  0  0  0  0  0  0  0  0  0  0
   -3.0660   25.1830  -30.8070 H   0  0  0  0  0  0  0  0  0  0  0  0
   -3.6116   22.8876  -27.2941 H   0  0  0  0  0  0  0  0  0  0  0  0
   -4.5070   23.5491  -28.7039 H   0  0  0  0  0  0  0  0  0  0  0  0
   -3.9720   21.8343  -28.7039 H   0  0  0  0  0  0  0  0  0  0  0  0
   -1.2163   21.9256  -27.7920 H   0  0  0  0  0  0  0  0  0  0  0  0
   -1.7794   21.2040  -29.3376 H   0  0  0  0  0  0  0  0  0  0  0  0
   -0.4223   22.3808  -29.3376 H   0  0  0  0  0  0  0  0  0  0  0  0
   -2.6640   24.9177  -27.6529 H   0  0  0  0  0  0  0  0  0  0  0  0
   -0.9574   24.3299  -27.8062 H   0  0  0  0  0  0  0  0  0  0  0  0
   -2.4200   25.6490  -29.8480 H   0  0  0  0  0  0  0  0  0  0  0  0
   -4.2406   20.1865  -32.3814 H   0  0  0  0  0  0  0  0  0  0  0  0
  1  2  1  0
  2  3  2  0
  3  4  1  0
  4  5  1  0
  4  6  1  0
  6  7  2  0
  7  8  1  0
  8  9  2  0
  9 10  1  0
 10 11  2  0
 11 12  1  0
 12 13  2  0
 13 14  1  0
 14 15  1  0
 14 16  2  0
 13 17  1  0
 17 18  1  0
 18 19  2  0
 18 20  1  0
 20 21  1  0
 21 22  1  0
 21 23  1  0
 21 24  1  0
 24 25  1  0
 17 26  1  0
 26 27  2  0
  7  2  1  0
 27  8  1  0
 26 11  1  0
  1 28  1  0
  1 29  1  0
  1 30  1  0
  3 31  1  0
  5 32  1  0
  5 33  1  0
  5 34  1  0
  6 35  1  0
  9 36  1  0
 10 37  1  0
 12 38  1  0
 15 39  1  0
 22 40  1  0
 22 41  1  0
 22 42  1  0
 23 43  1  0
 23 44  1  0
 23 45  1  0
 24 46  1  0
 24 47  1  0
 25 48  1  0
 27 49  1  0
M  CHG  2   3   1  15  -1
M  END
>  <UniqueID>  (60) 
60

>  <SMILES>  (60) 
Cc1[nH+]n(C)cc1-c1ccc2cc(C([NH-])=O)n(C(=O)OC(C)(C)CO)c2c1

>  <Energy>  (60) 
119.54834715663559

>  <Genealogy>  (60) 
Cc1[nH+]n(C)cc1-c1ccc2cc(C([NH-])=O)n(C(=O)OC(C)(C)CO)c2c1 (protonated)
Cc1[nH+]n(C)cc1-c1ccc2cc(C([NH-])=O)n(C(=O)OC(C)(C)CO)c2c1 (3D coordinates assigned)
Cc1[nH+]n(C)cc1-c1ccc2cc(C([NH-])=O)n(C(=O)OC(C)(C)CO)c2c1 (optimized conformer: 119.54834715663559 kcal/mol)

>  <smiles>  (60) 
Cc1nn(C)cc1-c1ccc2cc(C(N)=O)n(C(=O)OC(C)(C)CO)c2c1

>  <score_type>  (60) 
oracle

>  <origin>  (60) 
adg

>  <m_score__min__energy>  (60) 
-11.85

>  <m_primary>  (60) 
energy

$$$$
60:0
     RDKit          3D

 50 51  0  0  0  0  0  0  0  0999 V2000
   -2.5090   22.3030  -27.4360 C   0  0  0  0  0  0  0  0  0  0  0  0
   -2.9280   23.0950  -28.6810 C   0  0  1  0  0  0  0  0  0  0  0  0
   -1.8800   24.0910  -29.1110 C   0  0  0  0  0  0  0  0  0  0  0  0
   -2.1800   25.2930  -29.3460 O   0  0  0  0  0  0  0  0  0  0  0  0
   -0.5610   23.6810  -29.2520 O   0  0  0  0  0  0  0  0  0  0  0  0
   -3.3020   22.1680  -29.7720 N   0  0  0  0  0  0  0  0  0  0  0  0
   -2.8310   20.8040  -29.7450 C   0  0  0  0  0  0  0  0  0  0  0  0
   -3.0840   20.0660  -28.7540 O   0  0  0  0  0  0  0  0  0  0  0  0
   -2.1040   20.3070  -30.8380 O   0  0  0  0  0  0  0  0  0  0  0  0
   -0.6760   20.2290  -30.9500 C   0  0  0  0  0  0  0  0  0  0  0  0
   -0.2330   18.7800  -31.2270 C   0  0  0  0  0  0  0  0  0  0  0  0
   -0.1650   21.1750  -32.0550 C   0  0  0  0  0  0  0  0  0  0  0  0
   -0.0910   20.6780  -29.6030 C   0  0  0  0  0  0  0  0  0  0  0  0
   -3.8720   22.6550  -31.0030 C   0  0  0  0  0  0  0  0  0  0  0  0
   -3.1120   22.9840  -31.9540 O   0  0  0  0  0  0  0  0  0  0  0  0
   -5.2910   22.7780  -31.1700 N   0  0  0  0  0  0  0  0  0  0  0  0
   -6.0650   23.8720  -30.9150 C   0  0  0  0  0  0  0  0  0  0  0  0
   -5.5750   25.1830  -30.4470 C   0  0  0  0  0  0  0  0  0  0  0  0
   -4.2030   25.5510  -30.5650 N   0  0  0  0  0  0  0  0  0  0  0  0
   -6.3960   26.0130  -29.9740 O   0  0  0  0  0  0  0  0  0  0  0  0
   -7.4160   23.5360  -30.9660 C   0  0  0  0  0  0  0  0  0  0  0  0
   -7.4470   22.1910  -31.2540 C   0  0  0  0  0  0  0  0  0  0  0  0
   -8.5280   21.3230  -31.3710 C   0  0  0  0  0  0  0  0  0  0  0  0
   -8.2600   19.9640  -31.6100 C   0  0  0  0  0  0  0  0  0  0  0  0
   -6.9250   19.4970  -31.7300 C   0  0  0  0  0  0  0  0  0  0  0  0
   -6.6460   18.0300  -31.9270 C   0  0  0  0  0  0  0  0  0  0  0  0
   -7.7560   17.3890  -32.4500 F   0  0  0  0  0  0  0  0  0  0  0  0
   -6.3270   17.4590  -30.7090 F   0  0  0  0  0  0  0  0  0  0  0  0
   -5.5890   17.8470  -32.8010 F   0  0  0  0  0  0  0  0  0  0  0  0
   -5.8540   20.4070  -31.5670 C   0  0  0  0  0  0  0  0  0  0  0  0
   -6.1530   21.7550  -31.3510 C   0  0  0  0  0  0  0  0  0  0  0  0
   -2.8025   22.8577  -26.5326 H   0  0  0  0  0  0  0  0  0  0  0  0
   -3.0059   21.3216  -27.4413 H   0  0  0  0  0  0  0  0  0  0  0  0
   -1.4181   22.1617  -27.4413 H   0  0  0  0  0  0  0  0  0  0  0  0
   -3.8138   23.6926  -28.4200 H   0  0  0  0  0  0  0  0  0  0  0  0
   -0.0730   18.2567  -30.2728 H   0  0  0  0  0  0  0  0  0  0  0  0
   -1.0137   18.2617  -31.8030 H   0  0  0  0  0  0  0  0  0  0  0  0
    0.7041   18.7868  -31.8030 H   0  0  0  0  0  0  0  0  0  0  0  0
    0.3098   22.0540  -31.5946 H   0  0  0  0  0  0  0  0  0  0  0  0
    0.5701   20.6461  -32.6794 H   0  0  0  0  0  0  0  0  0  0  0  0
   -1.0103   21.4998  -32.6794 H   0  0  0  0  0  0  0  0  0  0  0  0
   -0.6730   20.2313  -28.7834 H   0  0  0  0  0  0  0  0  0  0  0  0
    0.9563   20.3497  -29.5304 H   0  0  0  0  0  0  0  0  0  0  0  0
   -0.1373   21.7746  -29.5304 H   0  0  0  0  0  0  0  0  0  0  0  0
   -3.5510   25.0090  -31.1700 H   0  0  0  0  0  0  0  0  0  0  0  0
   -3.8650   26.4480  -30.1500 H   0  0  0  0  0  0  0  0  0  0  0  0
   -8.2756   24.2042  -30.8093 H   0  0  0  0  0  0  0  0  0  0  0  0
   -9.5612   21.6892  -31.2792 H   0  0  0  0  0  0  0  0  0  0  0  0
   -9.0948   19.2540  -31.7052 H   0  0  0  0  0  0  0  0  0  0  0  0
   -4.8105   20.0616  -31.6093 H   0  0  0  0  0  0  0  0  0  0  0  0
  1  2  1  0
  2  3  1  0
  3  4  2  0
  3  5  1  0
  2  6  1  0
  6  7  1  0
  7  8  2  0
  7  9  1  0
  9 10  1  0
 10 11  1  0
 10 12  1  0
 10 13  1  0
  6 14  1  0
 14 15  2  0
 14 16  1  0
 16 17  1  0
 17 18  1  0
 18 19  1  0
 18 20  2  0
 17 21  2  0
 21 22  1  0
 22 23  2  0
 23 24  1  0
 24 25  2  0
 25 26  1  0
 26 27  1  0
 26 28  1  0
 26 29  1  0
 25 30  1  0
 30 31  2  0
 31 16  1  0
 31 22  1  0
  1 32  1  0
  1 33  1  0
  1 34  1  0
  2 35  1  1
 11 36  1  0
 11 37  1  0
 11 38  1  0
 12 39  1  0
 12 40  1  0
 12 41  1  0
 13 42  1  0
 13 43  1  0
 13 44  1  0
 19 45  1  0
 19 46  1  0
 21 47  1  0
 23 48  1  0
 24 49  1  0
 30 50  1  0
M  CHG  1   5  -1
M  END
>  <UniqueID>  (61) 
61

>  <SMILES>  (61) 
C[C@@H](C(=O)[O-])N(C(=O)OC(C)(C)C)C(=O)n1c(C(N)=O)cc2ccc(C(F)(F)F)cc21

>  <Energy>  (61) 
92.07734049977088

>  <Genealogy>  (61) 
CC(C(=O)[O-])N(C(=O)OC(C)(C)C)C(=O)n1c(C(N)=O)cc2ccc(C(F)(F)F)cc21 (protonated)
C[C@@H](C(=O)[O-])N(C(=O)OC(C)(C)C)C(=O)n1c(C(N)=O)cc2ccc(C(F)(F)F)cc21 (chirality)
C[C@@H](C(=O)[O-])N(C(=O)OC(C)(C)C)C(=O)n1c(C(N)=O)cc2ccc(C(F)(F)F)cc21 (3D coordinates assigned)
C[C@@H](C(=O)[O-])N(C(=O)OC(C)(C)C)C(=O)n1c(C(N)=O)cc2ccc(C(F)(F)F)cc21 (optimized conformer: 92.07734049977088 kcal/mol)

>  <smiles>  (61) 
CC(C(=O)O)N(C(=O)OC(C)(C)C)C(=O)n1c(C(N)=O)cc2ccc(C(F)(F)F)cc21

>  <score_type>  (61) 
oracle

>  <origin>  (61) 
adg

>  <m_score__min__energy>  (61) 
-11.69

>  <m_primary>  (61) 
energy

$$$$
61:0
     RDKit          3D

 58 59  0  0  0  0  0  0  0  0999 V2000
   -3.2160   20.5690  -33.4710 C   0  0  0  0  0  0  0  0  0  0  0  0
   -3.2490   19.0580  -33.2930 C   0  0  0  0  0  0  0  0  0  0  0  0
   -3.9760   18.4700  -34.3670 O   0  0  0  0  0  0  0  0  0  0  0  0
   -5.1890   17.7940  -34.1830 C   0  0  0  0  0  0  0  0  0  0  0  0
   -6.1250   17.9040  -35.0240 O   0  0  0  0  0  0  0  0  0  0  0  0
   -5.3840   16.9800  -32.9400 C   0  0  0  0  0  0  0  0  0  0  0  0
   -6.5710   17.4600  -32.0930 C   0  0  0  0  0  0  0  0  0  0  0  0
   -7.3480   18.4940  -32.7830 N   0  0  0  0  0  0  0  0  0  0  0  0
   -7.4220   19.8790  -32.3880 C   0  0  0  0  0  0  0  0  0  0  0  0
   -8.6740   20.5400  -32.4580 C   0  0  0  0  0  0  0  0  0  0  0  0
   -8.8030   21.8830  -32.0730 C   0  0  0  0  0  0  0  0  0  0  0  0
   -7.6670   22.5460  -31.6240 C   0  0  0  0  0  0  0  0  0  0  0  0
   -7.5270   23.8300  -31.1560 C   0  0  0  0  0  0  0  0  0  0  0  0
   -6.1900   23.9410  -30.7930 C   0  0  0  0  0  0  0  0  0  0  0  0
   -5.6120   25.1710  -30.2310 C   0  0  0  0  0  0  0  0  0  0  0  0
   -4.2910   25.5820  -30.5850 N   0  0  0  0  0  0  0  0  0  0  0  0
   -6.2590   25.8210  -29.3670 O   0  0  0  0  0  0  0  0  0  0  0  0
   -5.5140   22.7850  -31.0540 N   0  0  0  0  0  0  0  0  0  0  0  0
   -4.1040   22.5400  -30.8820 C   0  0  0  0  0  0  0  0  0  0  0  0
   -3.2660   23.1100  -31.6340 O   0  0  0  0  0  0  0  0  0  0  0  0
   -3.6580   21.6710  -29.8840 O   0  0  0  0  0  0  0  0  0  0  0  0
   -2.7260   22.0610  -28.8780 C   0  0  0  0  0  0  0  0  0  0  0  0
   -3.1340   23.2950  -28.2920 O   0  0  0  0  0  0  0  0  0  0  0  0
   -2.3420   24.4490  -28.3290 C   0  0  0  0  0  0  0  0  0  0  0  0
   -2.2750   25.1350  -29.3870 O   0  0  0  0  0  0  0  0  0  0  0  0
   -1.6400   24.9080  -27.0660 C   0  0  0  0  0  0  0  0  0  0  0  0
   -0.6750   26.0490  -27.4300 C   0  0  0  0  0  0  0  0  0  0  0  0
   -0.8430   23.7540  -26.4210 C   0  0  0  0  0  0  0  0  0  0  0  0
   -2.6850   25.4190  -26.0560 C   0  0  0  0  0  0  0  0  0  0  0  0
   -6.4410   21.9340  -31.5580 C   0  0  0  0  0  0  0  0  0  0  0  0
   -6.2840   20.5920  -31.9350 C   0  0  0  0  0  0  0  0  0  0  0  0
   -3.2054   21.0543  -32.4839 H   0  0  0  0  0  0  0  0  0  0  0  0
   -2.3114   20.8528  -34.0289 H   0  0  0  0  0  0  0  0  0  0  0  0
   -4.1073   20.8920  -34.0289 H   0  0  0  0  0  0  0  0  0  0  0  0
   -2.2210   18.6667  -33.2883 H   0  0  0  0  0  0  0  0  0  0  0  0
   -3.7392   18.8114  -32.3396 H   0  0  0  0  0  0  0  0  0  0  0  0
   -5.5596   15.9334  -33.2295 H   0  0  0  0  0  0  0  0  0  0  0  0
   -4.4762   17.0881  -32.3282 H   0  0  0  0  0  0  0  0  0  0  0  0
   -7.2273   16.6030  -31.8814 H   0  0  0  0  0  0  0  0  0  0  0  0
   -6.1748   17.8931  -31.1627 H   0  0  0  0  0  0  0  0  0  0  0  0
   -7.8380   18.2050  -33.6600 H   0  0  0  0  0  0  0  0  0  0  0  0
   -9.5569   19.9923  -32.8193 H   0  0  0  0  0  0  0  0  0  0  0  0
   -9.7746   22.3961  -32.1250 H   0  0  0  0  0  0  0  0  0  0  0  0
   -8.3055   24.6038  -31.0841 H   0  0  0  0  0  0  0  0  0  0  0  0
   -3.8820   26.4500  -30.1730 H   0  0  0  0  0  0  0  0  0  0  0  0
   -3.6990   24.9910  -31.2100 H   0  0  0  0  0  0  0  0  0  0  0  0
   -2.6824   21.2844  -28.1002 H   0  0  0  0  0  0  0  0  0  0  0  0
   -1.7326   22.1868  -29.3333 H   0  0  0  0  0  0  0  0  0  0  0  0
   -0.2865   26.5084  -26.5091 H   0  0  0  0  0  0  0  0  0  0  0  0
    0.1616   25.6473  -28.0206 H   0  0  0  0  0  0  0  0  0  0  0  0
   -1.2100   26.8073  -28.0206 H   0  0  0  0  0  0  0  0  0  0  0  0
   -0.8999   23.8365  -25.3256 H   0  0  0  0  0  0  0  0  0  0  0  0
   -1.2696   22.7912  -26.7389 H   0  0  0  0  0  0  0  0  0  0  0  0
    0.2085   23.8120  -26.7389 H   0  0  0  0  0  0  0  0  0  0  0  0
   -2.3229   25.2419  -25.0325 H   0  0  0  0  0  0  0  0  0  0  0  0
   -2.8446   26.4968  -26.2072 H   0  0  0  0  0  0  0  0  0  0  0  0
   -3.6337   24.8831  -26.2072 H   0  0  0  0  0  0  0  0  0  0  0  0
   -5.2997   20.1040  -31.8803 H   0  0  0  0  0  0  0  0  0  0  0  0
  1  2  1  0
  2  3  1  0
  3  4  1  0
  4  5  2  0
  4  6  1  0
  6  7  1  0
  7  8  1  0
  8  9  1  0
  9 10  2  0
 10 11  1  0
 11 12  2  0
 12 13  1  0
 13 14  2  0
 14 15  1  0
 15 16  1  0
 15 17  2  0
 14 18  1  0
 18 19  1  0
 19 20  2  0
 19 21  1  0
 21 22  1  0
 22 23  1  0
 23 24  1  0
 24 25  2  0
 24 26  1  0
 26 27  1  0
 26 28  1  0
 26 29  1  0
 18 30  1  0
 30 31  2  0
 31  9  1  0
 30 12  1  0
  1 32  1  0
  1 33  1  0
  1 34  1  0
  2 35  1  0
  2 36  1  0
  6 37  1  0
  6 38  1  0
  7 39  1  0
  7 40  1  0
  8 41  1  0
 10 42  1  0
 11 43  1  0
 13 44  1  0
 16 45  1  0
 16 46  1  0
 22 47  1  0
 22 48  1  0
 27 49  1  0
 27 50  1  0
 27 51  1  0
 28 52  1  0
 28 53  1  0
 28 54  1  0
 29 55  1  0
 29 56  1  0
 29 57  1  0
 31 58  1  0
M  END
>  <UniqueID>  (62) 
62

>  <SMILES>  (62) 
CCOC(=O)CCNc1ccc2cc(C(N)=O)n(C(=O)OCOC(=O)C(C)(C)C)c2c1

>  <Energy>  (62) 
81.90772181989134

>  <Genealogy>  (62) 
CCOC(=O)CCNc1ccc2cc(C(N)=O)n(C(=O)OCOC(=O)C(C)(C)C)c2c1 (3D coordinates assigned)
CCOC(=O)CCNc1ccc2cc(C(N)=O)n(C(=O)OCOC(=O)C(C)(C)C)c2c1 (optimized conformer: 81.90772181989134 kcal/mol)

>  <smiles>  (62) 
CCOC(=O)CCNc1ccc2cc(C(N)=O)n(C(=O)OCOC(=O)C(C)(C)C)c2c1

>  <score_type>  (62) 
oracle

>  <origin>  (62) 
adg

>  <m_score__min__energy>  (62) 
-9.1899999999999995

>  <m_primary>  (62) 
energy

$$$$
62:0
     RDKit          3D

 40 41  0  0  0  0  0  0  0  0999 V2000
   -5.3690   17.5190  -34.8860 C   0  0  0  0  0  0  0  0  0  0  0  0
   -6.2070   16.6480  -34.1590 O   0  0  0  0  0  0  0  0  0  0  0  0
   -5.6730   16.4010  -32.8710 C   0  0  0  0  0  0  0  0  0  0  0  0
   -6.1600   17.4740  -31.8950 C   0  0  0  0  0  0  0  0  0  0  0  0
   -7.0900   18.3970  -32.5480 N   0  0  0  0  0  0  0  0  0  0  0  0
   -7.2350   19.7910  -32.2110 C   0  0  0  0  0  0  0  0  0  0  0  0
   -8.5120   20.3960  -32.3330 C   0  0  0  0  0  0  0  0  0  0  0  0
   -8.7020   21.7530  -32.0200 C   0  0  0  0  0  0  0  0  0  0  0  0
   -7.6010   22.4800  -31.5810 C   0  0  0  0  0  0  0  0  0  0  0  0
   -7.4940   23.8100  -31.2380 C   0  0  0  0  0  0  0  0  0  0  0  0
   -6.1560   23.9960  -30.8940 C   0  0  0  0  0  0  0  0  0  0  0  0
   -5.6010   25.2770  -30.4090 C   0  0  0  0  0  0  0  0  0  0  0  0
   -4.2960   25.6840  -30.8110 N   0  0  0  0  0  0  0  0  0  0  0  0
   -6.2790   26.0290  -29.6590 O   0  0  0  0  0  0  0  0  0  0  0  0
   -5.4670   22.8260  -31.0160 N   0  0  0  0  0  0  0  0  0  0  0  0
   -4.0610   22.6070  -30.8200 C   0  0  0  0  0  0  0  0  0  0  0  0
   -3.4000   22.0050  -31.7090 O   0  0  0  0  0  0  0  0  0  0  0  0
   -3.4070   23.0680  -29.6210 N   0  0  0  0  0  0  0  0  0  0  0  0
   -3.9710   22.7320  -28.3100 C   0  0  0  0  0  0  0  0  0  0  0  0
   -2.1580   23.7810  -29.6950 C   0  0  0  0  0  0  0  0  0  0  0  0
   -1.1120   23.1960  -30.0850 O   0  0  0  0  0  0  0  0  0  0  0  0
   -2.0880   25.1300  -29.3620 O   0  0  0  0  0  0  0  0  0  0  0  0
   -6.3640   21.9110  -31.4410 C   0  0  0  0  0  0  0  0  0  0  0  0
   -6.1400   20.5680  -31.7590 C   0  0  0  0  0  0  0  0  0  0  0  0
   -4.7805   18.1306  -34.1863 H   0  0  0  0  0  0  0  0  0  0  0  0
   -4.6892   16.9301  -35.5194 H   0  0  0  0  0  0  0  0  0  0  0  0
   -5.9837   18.1755  -35.5194 H   0  0  0  0  0  0  0  0  0  0  0  0
   -6.0041   15.4119  -32.5217 H   0  0  0  0  0  0  0  0  0  0  0  0
   -4.5745   16.4269  -32.9216 H   0  0  0  0  0  0  0  0  0  0  0  0
   -6.6703   16.9870  -31.0510 H   0  0  0  0  0  0  0  0  0  0  0  0
   -5.2895   18.0464  -31.5421 H   0  0  0  0  0  0  0  0  0  0  0  0
   -7.6920   18.0050  -33.3070 H   0  0  0  0  0  0  0  0  0  0  0  0
   -9.3661   19.7945  -32.6776 H   0  0  0  0  0  0  0  0  0  0  0  0
   -9.6906   22.2251  -32.1192 H   0  0  0  0  0  0  0  0  0  0  0  0
   -8.2943   24.5647  -31.2360 H   0  0  0  0  0  0  0  0  0  0  0  0
   -3.5000   25.6750  -30.1360 H   0  0  0  0  0  0  0  0  0  0  0  0
   -3.3154   23.1226  -27.5178 H   0  0  0  0  0  0  0  0  0  0  0  0
   -4.9701   23.1823  -28.2143 H   0  0  0  0  0  0  0  0  0  0  0  0
   -4.0507   21.6391  -28.2143 H   0  0  0  0  0  0  0  0  0  0  0  0
   -5.1378   20.1254  -31.6606 H   0  0  0  0  0  0  0  0  0  0  0  0
  1  2  1  0
  2  3  1  0
  3  4  1  0
  4  5  1  0
  5  6  1  0
  6  7  2  0
  7  8  1  0
  8  9  2  0
  9 10  1  0
 10 11  2  0
 11 12  1  0
 12 13  1  0
 12 14  2  0
 11 15  1  0
 15 16  1  0
 16 17  2  0
 16 18  1  0
 18 19  1  0
 18 20  1  0
 20 21  2  0
 20 22  1  0
 15 23  1  0
 23 24  2  0
 24  6  1  0
 23  9  1  0
  1 25  1  0
  1 26  1  0
  1 27  1  0
  3 28  1  0
  3 29  1  0
  4 30  1  0
  4 31  1  0
  5 32  1  0
  7 33  1  0
  8 34  1  0
 10 35  1  0
 13 36  1  0
 19 37  1  0
 19 38  1  0
 19 39  1  0
 24 40  1  0
M  CHG  2  13  -1  22  -1
M  END
>  <UniqueID>  (63) 
63

>  <SMILES>  (63) 
COCCNc1ccc2cc(C([NH-])=O)n(C(=O)N(C)C(=O)[O-])c2c1

>  <Energy>  (63) 
79.68864023650323

>  <Genealogy>  (63) 
COCCNc1ccc2cc(C([NH-])=O)n(C(=O)N(C)C(=O)[O-])c2c1 (protonated)
COCCNc1ccc2cc(C([NH-])=O)n(C(=O)N(C)C(=O)[O-])c2c1 (3D coordinates assigned)
COCCNc1ccc2cc(C([NH-])=O)n(C(=O)N(C)C(=O)[O-])c2c1 (optimized conformer: 79.68864023650323 kcal/mol)

>  <smiles>  (63) 
COCCNc1ccc2cc(C(N)=O)n(C(=O)N(C)C(=O)O)c2c1

>  <score_type>  (63) 
oracle

>  <origin>  (63) 
adg

>  <m_score__min__energy>  (63) 
-10.880000000000001

>  <m_primary>  (63) 
energy

$$$$
63:0
     RDKit          3D

 31 32  0  0  0  0  0  0  0  0999 V2000
   -4.2490   25.5830  -30.7160 N   0  0  0  0  0  0  0  0  0  0  0  0
   -5.5900   25.2110  -30.3930 C   0  0  0  0  0  0  0  0  0  0  0  0
   -6.2630   25.9430  -29.6210 O   0  0  0  0  0  0  0  0  0  0  0  0
   -6.1800   23.9570  -30.9010 C   0  0  0  0  0  0  0  0  0  0  0  0
   -7.5330   23.8090  -31.1950 C   0  0  0  0  0  0  0  0  0  0  0  0
   -7.6840   22.4920  -31.5670 C   0  0  0  0  0  0  0  0  0  0  0  0
   -8.8200   21.7990  -31.9730 C   0  0  0  0  0  0  0  0  0  0  0  0
   -8.6750   20.4480  -32.3310 C   0  0  0  0  0  0  0  0  0  0  0  0
   -7.4060   19.8200  -32.2810 C   0  0  0  0  0  0  0  0  0  0  0  0
   -7.2520   18.3790  -32.6770 C   0  0  0  0  0  0  0  0  0  0  0  0
   -6.7870   17.6450  -31.6010 F   0  0  0  0  0  0  0  0  0  0  0  0
   -6.3520   18.2780  -33.7230 F   0  0  0  0  0  0  0  0  0  0  0  0
   -6.2730   20.5570  -31.8650 C   0  0  0  0  0  0  0  0  0  0  0  0
   -6.4510   21.8950  -31.5000 C   0  0  0  0  0  0  0  0  0  0  0  0
   -5.5160   22.7830  -31.1000 N   0  0  0  0  0  0  0  0  0  0  0  0
   -4.1010   22.5400  -31.0210 C   0  0  0  0  0  0  0  0  0  0  0  0
   -3.3630   22.8180  -32.0030 O   0  0  0  0  0  0  0  0  0  0  0  0
   -3.4810   22.0000  -29.7690 C   0  0  0  0  0  0  0  0  0  0  0  0
   -2.4840   22.9030  -29.3080 O   0  0  0  0  0  0  0  0  0  0  0  0
   -2.8110   24.1350  -28.7800 N   0  0  0  0  0  0  0  0  0  0  0  0
   -2.3510   25.1690  -29.3020 O   0  0  0  0  0  0  0  0  0  0  0  0
   -3.6380   24.2370  -27.6850 O   0  0  0  0  0  0  0  0  0  0  0  0
   -3.8660   26.4970  -30.3880 H   0  0  0  0  0  0  0  0  0  0  0  0
   -3.6060   24.9200  -31.2030 H   0  0  0  0  0  0  0  0  0  0  0  0
   -8.3152   24.5806  -31.1414 H   0  0  0  0  0  0  0  0  0  0  0  0
   -9.8017   22.2936  -32.0125 H   0  0  0  0  0  0  0  0  0  0  0  0
   -9.5553   19.8724  -32.6532 H   0  0  0  0  0  0  0  0  0  0  0  0
   -8.2297   17.9860  -32.9928 H   0  0  0  0  0  0  0  0  0  0  0  0
   -5.2777   20.0899  -31.8295 H   0  0  0  0  0  0  0  0  0  0  0  0
   -4.2556   21.8832  -28.9968 H   0  0  0  0  0  0  0  0  0  0  0  0
   -3.0226   21.0222  -29.9783 H   0  0  0  0  0  0  0  0  0  0  0  0
  1  2  1  0
  2  3  2  0
  2  4  1  0
  4  5  2  0
  5  6  1  0
  6  7  2  0
  7  8  1  0
  8  9  2  0
  9 10  1  0
 10 11  1  0
 10 12  1  0
  9 13  1  0
 13 14  2  0
 14 15  1  0
 15 16  1  0
 16 17  2  0
 16 18  1  0
 18 19  1  0
 19 20  1  0
 20 21  2  0
 20 22  1  0
 15  4  1  0
 14  6  1  0
  1 23  1  0
  1 24  1  0
  5 25  1  0
  7 26  1  0
  8 27  1  0
 10 28  1  0
 13 29  1  0
 18 30  1  0
 18 31  1  0
M  CHG  2  20   1  22  -1
M  END
>  <UniqueID>  (64) 
64

>  <SMILES>  (64) 
NC(=O)c1cc2ccc(C(F)F)cc2n1C(=O)CO[N+](=O)[O-]

>  <Energy>  (64) 
68.28062333725369

>  <Genealogy>  (64) 
NC(=O)c1cc2ccc(C(F)F)cc2n1C(=O)CO[N+](=O)[O-] (3D coordinates assigned)
NC(=O)c1cc2ccc(C(F)F)cc2n1C(=O)CO[N+](=O)[O-] (optimized conformer: 68.28062333725369 kcal/mol)

>  <smiles>  (64) 
NC(=O)c1cc2ccc(C(F)F)cc2n1C(=O)CO[N+](=O)[O-]

>  <score_type>  (64) 
oracle

>  <origin>  (64) 
adg

>  <m_score__min__energy>  (64) 
-7.79

>  <m_primary>  (64) 
energy

$$$$
64:0
     RDKit          3D

 31 32  0  0  0  0  0  0  0  0999 V2000
   -6.7130   18.2030  -32.9400 C   0  0  0  0  0  0  0  0  0  0  0  0
   -6.9390   19.6380  -32.5660 C   0  0  0  0  0  0  0  0  0  0  0  0
   -8.2310   20.2060  -32.6800 C   0  0  0  0  0  0  0  0  0  0  0  0
   -8.4610   21.5410  -32.3120 C   0  0  0  0  0  0  0  0  0  0  0  0
   -7.3880   22.2740  -31.8140 C   0  0  0  0  0  0  0  0  0  0  0  0
   -7.3260   23.5890  -31.4140 C   0  0  0  0  0  0  0  0  0  0  0  0
   -6.0070   23.7900  -31.0180 C   0  0  0  0  0  0  0  0  0  0  0  0
   -5.5140   25.0630  -30.4560 C   0  0  0  0  0  0  0  0  0  0  0  0
   -4.1810   25.5140  -30.7010 N   0  0  0  0  0  0  0  0  0  0  0  0
   -6.2630   25.7380  -29.7000 O   0  0  0  0  0  0  0  0  0  0  0  0
   -5.2750   22.6520  -31.1770 N   0  0  0  0  0  0  0  0  0  0  0  0
   -3.8580   22.4970  -30.9960 C   0  0  0  0  0  0  0  0  0  0  0  0
   -3.1940   21.7800  -31.7930 O   0  0  0  0  0  0  0  0  0  0  0  0
   -3.2200   23.1440  -29.9310 O   0  0  0  0  0  0  0  0  0  0  0  0
   -1.8260   23.0220  -29.6620 C   0  0  0  0  0  0  0  0  0  0  0  0
   -1.2440   24.3550  -29.3160 C   0  0  0  0  0  0  0  0  0  0  0  0
   -1.9690   25.3850  -29.3240 O   0  0  0  0  0  0  0  0  0  0  0  0
    0.0940   24.4570  -28.9580 O   0  0  0  0  0  0  0  0  0  0  0  0
   -6.1370   21.7300  -31.6640 C   0  0  0  0  0  0  0  0  0  0  0  0
   -5.8760   20.4070  -32.0440 C   0  0  0  0  0  0  0  0  0  0  0  0
   -6.6175   17.5968  -32.0271 H   0  0  0  0  0  0  0  0  0  0  0  0
   -7.5651   17.8402  -33.5336 H   0  0  0  0  0  0  0  0  0  0  0  0
   -5.7907   18.1197  -33.5336 H   0  0  0  0  0  0  0  0  0  0  0  0
   -9.0628   19.5951  -33.0607 H   0  0  0  0  0  0  0  0  0  0  0  0
   -9.4583   21.9936  -32.4141 H   0  0  0  0  0  0  0  0  0  0  0  0
   -8.1441   24.3243  -31.4084 H   0  0  0  0  0  0  0  0  0  0  0  0
   -3.4850   24.9030  -31.1810 H   0  0  0  0  0  0  0  0  0  0  0  0
   -3.8630   26.4360  -30.3280 H   0  0  0  0  0  0  0  0  0  0  0  0
   -1.6786   22.3320  -28.8181 H   0  0  0  0  0  0  0  0  0  0  0  0
   -1.3217   22.6343  -30.5594 H   0  0  0  0  0  0  0  0  0  0  0  0
   -4.8685   19.9782  -31.9384 H   0  0  0  0  0  0  0  0  0  0  0  0
  1  2  1  0
  2  3  2  0
  3  4  1  0
  4  5  2  0
  5  6  1  0
  6  7  2  0
  7  8  1  0
  8  9  1  0
  8 10  2  0
  7 11  1  0
 11 12  1  0
 12 13  2  0
 12 14  1  0
 14 15  1  0
 15 16  1  0
 16 17  2  0
 16 18  1  0
 11 19  1  0
 19 20  2  0
 20  2  1  0
 19  5  1  0
  1 21  1  0
  1 22  1  0
  1 23  1  0
  3 24  1  0
  4 25  1  0
  6 26  1  0
  9 27  1  0
  9 28  1  0
 15 29  1  0
 15 30  1  0
 20 31  1  0
M  CHG  1  18  -1
M  END
>  <UniqueID>  (65) 
65

>  <SMILES>  (65) 
Cc1ccc2cc(C(N)=O)n(C(=O)OCC(=O)[O-])c2c1

>  <Energy>  (65) 
67.67152715626601

>  <Genealogy>  (65) 
Cc1ccc2cc(C(N)=O)n(C(=O)OCC(=O)[O-])c2c1 (protonated)
Cc1ccc2cc(C(N)=O)n(C(=O)OCC(=O)[O-])c2c1 (3D coordinates assigned)
Cc1ccc2cc(C(N)=O)n(C(=O)OCC(=O)[O-])c2c1 (optimized conformer: 67.67152715626601 kcal/mol)

>  <smiles>  (65) 
Cc1ccc2cc(C(N)=O)n(C(=O)OCC(=O)O)c2c1

>  <score_type>  (65) 
oracle

>  <origin>  (65) 
adg

>  <m_score__min__energy>  (65) 
-9.7799999999999994

>  <m_primary>  (65) 
energy

$$$$
66:0
     RDKit          3D

 44 45  0  0  0  0  0  0  0  0999 V2000
   -3.4500   21.7510  -28.7830 C   0  0  0  0  0  0  0  0  0  0  0  0
   -2.9140   22.5170  -29.9130 N   0  0  0  0  0  0  0  0  0  0  0  0
   -1.7780   23.3800  -29.7080 C   0  0  0  0  0  0  0  0  0  0  0  0
   -0.6540   23.0590  -30.1780 O   0  0  0  0  0  0  0  0  0  0  0  0
   -1.9380   24.5780  -28.9910 O   0  0  0  0  0  0  0  0  0  0  0  0
   -1.8280   24.7440  -27.5710 C   0  0  0  0  0  0  0  0  0  0  0  0
   -3.2550   24.7230  -27.0020 C   0  0  0  0  0  0  0  0  0  0  0  0
   -1.1750   26.0960  -27.2310 C   0  0  0  0  0  0  0  0  0  0  0  0
   -1.0290   23.5810  -26.9500 C   0  0  0  0  0  0  0  0  0  0  0  0
   -3.6060   22.5020  -31.1800 C   0  0  0  0  0  0  0  0  0  0  0  0
   -2.9720   22.2570  -32.2420 O   0  0  0  0  0  0  0  0  0  0  0  0
   -5.0230   22.7310  -31.2490 N   0  0  0  0  0  0  0  0  0  0  0  0
   -5.7000   23.8750  -30.9540 C   0  0  0  0  0  0  0  0  0  0  0  0
   -5.1140   25.1080  -30.3880 C   0  0  0  0  0  0  0  0  0  0  0  0
   -3.8690   25.6140  -30.8610 N   0  0  0  0  0  0  0  0  0  0  0  0
   -5.7050   25.7060  -29.4500 O   0  0  0  0  0  0  0  0  0  0  0  0
   -7.0650   23.7050  -31.1820 C   0  0  0  0  0  0  0  0  0  0  0  0
   -7.2020   22.4070  -31.6230 C   0  0  0  0  0  0  0  0  0  0  0  0
   -8.3460   21.6930  -31.9680 C   0  0  0  0  0  0  0  0  0  0  0  0
   -8.1900   20.3580  -32.3750 C   0  0  0  0  0  0  0  0  0  0  0  0
   -6.9010   19.7680  -32.4560 C   0  0  0  0  0  0  0  0  0  0  0  0
   -6.7530   18.3190  -32.8410 C   0  0  0  0  0  0  0  0  0  0  0  0
   -7.9340   17.6320  -32.6170 F   0  0  0  0  0  0  0  0  0  0  0  0
   -6.4300   18.1990  -34.1810 F   0  0  0  0  0  0  0  0  0  0  0  0
   -5.7480   17.7480  -32.0820 F   0  0  0  0  0  0  0  0  0  0  0  0
   -5.7660   20.5230  -32.0790 C   0  0  0  0  0  0  0  0  0  0  0  0
   -5.9550   21.8440  -31.6610 C   0  0  0  0  0  0  0  0  0  0  0  0
   -3.1259   22.2142  -27.8394 H   0  0  0  0  0  0  0  0  0  0  0  0
   -4.5489   21.7471  -28.8310 H   0  0  0  0  0  0  0  0  0  0  0  0
   -3.0772   20.7172  -28.8310 H   0  0  0  0  0  0  0  0  0  0  0  0
   -3.2115   24.7236  -25.9029 H   0  0  0  0  0  0  0  0  0  0  0  0
   -3.8008   25.6132  -27.3479 H   0  0  0  0  0  0  0  0  0  0  0  0
   -3.7744   23.8171  -27.3479 H   0  0  0  0  0  0  0  0  0  0  0  0
   -1.1191   26.2118  -26.1385 H   0  0  0  0  0  0  0  0  0  0  0  0
   -0.1609   26.1305  -27.6558 H   0  0  0  0  0  0  0  0  0  0  0  0
   -1.7784   26.9118  -27.6558 H   0  0  0  0  0  0  0  0  0  0  0  0
   -1.0755   23.6487  -25.8531 H   0  0  0  0  0  0  0  0  0  0  0  0
   -1.4610   22.6236  -27.2769 H   0  0  0  0  0  0  0  0  0  0  0  0
    0.0196   23.6408  -27.2769 H   0  0  0  0  0  0  0  0  0  0  0  0
   -2.9660   25.2860  -30.4520 H   0  0  0  0  0  0  0  0  0  0  0  0
   -7.8627   24.4489  -31.0400 H   0  0  0  0  0  0  0  0  0  0  0  0
   -9.3410   22.1598  -31.9232 H   0  0  0  0  0  0  0  0  0  0  0  0
   -9.0774   19.7620  -32.6343 H   0  0  0  0  0  0  0  0  0  0  0  0
   -4.7590   20.0818  -32.1138 H   0  0  0  0  0  0  0  0  0  0  0  0
  1  2  1  0
  2  3  1  0
  3  4  2  0
  3  5  1  0
  5  6  1  0
  6  7  1  0
  6  8  1  0
  6  9  1  0
  2 10  1  0
 10 11  2  0
 10 12  1  0
 12 13  1  0
 13 14  1  0
 14 15  1  0
 14 16  2  0
 13 17  2  0
 17 18  1  0
 18 19  2  0
 19 20  1  0
 20 21  2  0
 21 22  1  0
 22 23  1  0
 22 24  1  0
 22 25  1  0
 21 26  1  0
 26 27  2  0
 27 12  1  0
 27 18  1  0
  1 28  1  0
  1 29  1  0
  1 30  1  0
  7 31  1  0
  7 32  1  0
  7 33  1  0
  8 34  1  0
  8 35  1  0
  8 36  1  0
  9 37  1  0
  9 38  1  0
  9 39  1  0
 15 40  1  0
 17 41  1  0
 19 42  1  0
 20 43  1  0
 26 44  1  0
M  CHG  1  15  -1
M  END
>  <UniqueID>  (66) 
66

>  <SMILES>  (66) 
CN(C(=O)OC(C)(C)C)C(=O)n1c(C([NH-])=O)cc2ccc(C(F)(F)F)cc21

>  <Energy>  (66) 
77.05437267446864

>  <Genealogy>  (66) 
CN(C(=O)OC(C)(C)C)C(=O)n1c(C([NH-])=O)cc2ccc(C(F)(F)F)cc21 (protonated)
CN(C(=O)OC(C)(C)C)C(=O)n1c(C([NH-])=O)cc2ccc(C(F)(F)F)cc21 (3D coordinates assigned)
CN(C(=O)OC(C)(C)C)C(=O)n1c(C([NH-])=O)cc2ccc(C(F)(F)F)cc21 (optimized conformer: 77.05437267446864 kcal/mol)

>  <smiles>  (66) 
CN(C(=O)OC(C)(C)C)C(=O)n1c(C(N)=O)cc2ccc(C(F)(F)F)cc21

>  <score_type>  (66) 
oracle

>  <origin>  (66) 
adg

>  <m_score__min__energy>  (66) 
-10.51

>  <m_primary>  (66) 
energy

$$$$
67:0
     RDKit          3D

 40 41  0  0  0  0  0  0  0  0999 V2000
   -6.8340   18.3970  -33.3790 C   0  0  0  0  0  0  0  0  0  0  0  0
   -6.9420   19.7650  -32.7750 C   0  0  0  0  0  0  0  0  0  0  0  0
   -8.2100   20.3790  -32.6290 C   0  0  0  0  0  0  0  0  0  0  0  0
   -8.3290   21.6410  -32.0230 C   0  0  0  0  0  0  0  0  0  0  0  0
   -7.1660   22.2580  -31.5700 C   0  0  0  0  0  0  0  0  0  0  0  0
   -6.9980   23.4650  -30.9300 C   0  0  0  0  0  0  0  0  0  0  0  0
   -5.6290   23.5750  -30.7020 C   0  0  0  0  0  0  0  0  0  0  0  0
   -4.9990   24.7760  -30.1130 C   0  0  0  0  0  0  0  0  0  0  0  0
   -3.8580   25.3570  -30.7400 N   0  0  0  0  0  0  0  0  0  0  0  0
   -5.4320   25.2710  -29.0390 O   0  0  0  0  0  0  0  0  0  0  0  0
   -4.9750   22.4730  -31.1710 N   0  0  0  0  0  0  0  0  0  0  0  0
   -3.5720   22.1720  -31.0830 C   0  0  0  0  0  0  0  0  0  0  0  0
   -3.1660   20.9930  -31.2670 O   0  0  0  0  0  0  0  0  0  0  0  0
   -2.6600   23.1970  -30.8220 O   0  0  0  0  0  0  0  0  0  0  0  0
   -1.7530   23.1640  -29.7240 C   0  0  0  0  0  0  0  0  0  0  0  0
   -2.2750   23.9410  -28.6520 O   0  0  0  0  0  0  0  0  0  0  0  0
   -1.6560   25.1050  -28.1870 C   0  0  0  0  0  0  0  0  0  0  0  0
   -1.3170   26.0180  -28.9910 O   0  0  0  0  0  0  0  0  0  0  0  0
   -1.3710   25.2500  -26.7170 C   0  0  0  0  0  0  0  0  0  0  0  0
   -0.7520   23.9670  -26.1550 C   0  0  0  0  0  0  0  0  0  0  0  0
   -2.6500   25.6220  -25.9620 C   0  0  0  0  0  0  0  0  0  0  0  0
   -5.9300   21.6790  -31.7050 C   0  0  0  0  0  0  0  0  0  0  0  0
   -5.7860   20.4140  -32.2870 C   0  0  0  0  0  0  0  0  0  0  0  0
   -6.7747   17.6459  -32.5775 H   0  0  0  0  0  0  0  0  0  0  0  0
   -7.7194   18.2000  -34.0013 H   0  0  0  0  0  0  0  0  0  0  0  0
   -5.9287   18.3414  -34.0013 H   0  0  0  0  0  0  0  0  0  0  0  0
   -9.1103   19.8628  -32.9936 H   0  0  0  0  0  0  0  0  0  0  0  0
   -9.3098   22.1261  -31.9100 H   0  0  0  0  0  0  0  0  0  0  0  0
   -7.7796   24.1891  -30.6567 H   0  0  0  0  0  0  0  0  0  0  0  0
   -2.9130   25.2890  -30.3030 H   0  0  0  0  0  0  0  0  0  0  0  0
   -1.6183   22.1242  -29.3912 H   0  0  0  0  0  0  0  0  0  0  0  0
   -0.7833   23.5779  -30.0377 H   0  0  0  0  0  0  0  0  0  0  0  0
   -0.6419   26.0621  -26.5795 H   0  0  0  0  0  0  0  0  0  0  0  0
   -0.7692   24.0026  -25.0557 H   0  0  0  0  0  0  0  0  0  0  0  0
   -1.3300   23.0981  -26.5028 H   0  0  0  0  0  0  0  0  0  0  0  0
    0.2878   23.8787  -26.5028 H   0  0  0  0  0  0  0  0  0  0  0  0
   -2.4652   25.5683  -24.8790 H   0  0  0  0  0  0  0  0  0  0  0  0
   -2.9510   26.6449  -26.2323 H   0  0  0  0  0  0  0  0  0  0  0  0
   -3.4527   24.9201  -26.2323 H   0  0  0  0  0  0  0  0  0  0  0  0
   -4.7975   19.9373  -32.3624 H   0  0  0  0  0  0  0  0  0  0  0  0
  1  2  1  0
  2  3  2  0
  3  4  1  0
  4  5  2  0
  5  6  1  0
  6  7  2  0
  7  8  1  0
  8  9  1  0
  8 10  2  0
  7 11  1  0
 11 12  1  0
 12 13  2  0
 12 14  1  0
 14 15  1  0
 15 16  1  0
 16 17  1  0
 17 18  2  0
 17 19  1  0
 19 20  1  0
 19 21  1  0
 11 22  1  0
 22 23  2  0
 23  2  1  0
 22  5  1  0
  1 24  1  0
  1 25  1  0
  1 26  1  0
  3 27  1  0
  4 28  1  0
  6 29  1  0
  9 30  1  0
 15 31  1  0
 15 32  1  0
 19 33  1  0
 20 34  1  0
 20 35  1  0
 20 36  1  0
 21 37  1  0
 21 38  1  0
 21 39  1  0
 23 40  1  0
M  CHG  1   9  -1
M  END
>  <UniqueID>  (67) 
67

>  <SMILES>  (67) 
Cc1ccc2cc(C([NH-])=O)n(C(=O)OCOC(=O)C(C)C)c2c1

>  <Energy>  (67) 
69.07712431547907

>  <Genealogy>  (67) 
Cc1ccc2cc(C([NH-])=O)n(C(=O)OCOC(=O)C(C)C)c2c1 (protonated)
Cc1ccc2cc(C([NH-])=O)n(C(=O)OCOC(=O)C(C)C)c2c1 (3D coordinates assigned)
Cc1ccc2cc(C([NH-])=O)n(C(=O)OCOC(=O)C(C)C)c2c1 (optimized conformer: 69.07712431547907 kcal/mol)

>  <smiles>  (67) 
Cc1ccc2cc(C(N)=O)n(C(=O)OCOC(=O)C(C)C)c2c1

>  <score_type>  (67) 
oracle

>  <origin>  (67) 
adg

>  <m_score__min__energy>  (67) 
-10.470000000000001

>  <m_primary>  (67) 
energy

$$$$
68:0
     RDKit          3D

 33 34  0  0  0  0  0  0  0  0999 V2000
   -3.8880   23.2820  -27.8570 C   0  0  0  0  0  0  0  0  0  0  0  0
   -4.4930   23.9680  -29.0880 C   0  0  1  0  0  0  0  0  0  0  0  0
   -3.5250   24.9270  -29.7280 C   0  0  0  0  0  0  0  0  0  0  0  0
   -2.3520   25.0550  -29.2860 O   0  0  0  0  0  0  0  0  0  0  0  0
   -3.9120   25.6450  -30.8530 O   0  0  0  0  0  0  0  0  0  0  0  0
   -4.9830   22.9510  -30.1000 C   0  0  0  0  0  0  0  0  0  0  0  0
   -6.3730   22.7570  -30.3210 C   0  0  0  0  0  0  0  0  0  0  0  0
   -6.8270   21.8070  -31.2510 C   0  0  0  0  0  0  0  0  0  0  0  0
   -5.8760   21.0740  -31.9530 C   0  0  0  0  0  0  0  0  0  0  0  0
   -6.0420   20.0720  -32.8810 C   0  0  0  0  0  0  0  0  0  0  0  0
   -4.7540   19.6880  -33.2410 C   0  0  0  0  0  0  0  0  0  0  0  0
   -4.4690   18.6670  -34.2680 C   0  0  0  0  0  0  0  0  0  0  0  0
   -3.1310   18.2470  -34.5440 N   0  0  0  0  0  0  0  0  0  0  0  0
   -5.4160   18.1980  -34.9540 O   0  0  0  0  0  0  0  0  0  0  0  0
   -3.8250   20.4130  -32.5550 N   0  0  0  0  0  0  0  0  0  0  0  0
   -2.3990   20.2380  -32.5650 C   0  0  0  0  0  0  0  0  0  0  0  0
   -1.8920   19.2050  -32.0470 O   0  0  0  0  0  0  0  0  0  0  0  0
   -1.5850   21.2190  -33.1500 O   0  0  0  0  0  0  0  0  0  0  0  0
   -0.7310   21.0100  -34.2390 C   0  0  0  0  0  0  0  0  0  0  0  0
   -0.7800   19.9510  -34.9190 O   0  0  0  0  0  0  0  0  0  0  0  0
    0.1880   21.9930  -34.5780 O   0  0  0  0  0  0  0  0  0  0  0  0
   -4.5300   21.2610  -31.7710 C   0  0  0  0  0  0  0  0  0  0  0  0
   -4.0490   22.1840  -30.8350 C   0  0  0  0  0  0  0  0  0  0  0  0
   -4.2940   23.7423  -26.9442 H   0  0  0  0  0  0  0  0  0  0  0  0
   -4.1417   22.2117  -27.8720 H   0  0  0  0  0  0  0  0  0  0  0  0
   -2.7944   23.3999  -27.8720 H   0  0  0  0  0  0  0  0  0  0  0  0
   -5.3577   24.5504  -28.7370 H   0  0  0  0  0  0  0  0  0  0  0  0
   -7.1021   23.3576  -29.7574 H   0  0  0  0  0  0  0  0  0  0  0  0
   -7.9024   21.6476  -31.4190 H   0  0  0  0  0  0  0  0  0  0  0  0
   -6.9906   19.6619  -33.2579 H   0  0  0  0  0  0  0  0  0  0  0  0
   -2.9520   17.4940  -35.2450 H   0  0  0  0  0  0  0  0  0  0  0  0
   -2.3140   18.7360  -34.1170 H   0  0  0  0  0  0  0  0  0  0  0  0
   -2.9681   22.3101  -30.6745 H   0  0  0  0  0  0  0  0  0  0  0  0
  1  2  1  0
  2  3  1  0
  3  4  2  0
  3  5  1  0
  2  6  1  0
  6  7  2  0
  7  8  1  0
  8  9  2  0
  9 10  1  0
 10 11  2  0
 11 12  1  0
 12 13  1  0
 12 14  2  0
 11 15  1  0
 15 16  1  0
 16 17  2  0
 16 18  1  0
 18 19  1  0
 19 20  2  0
 19 21  1  0
 15 22  1  0
 22 23  2  0
 23  6  1  0
 22  9  1  0
  1 24  1  0
  1 25  1  0
  1 26  1  0
  2 27  1  1
  7 28  1  0
  8 29  1  0
 10 30  1  0
 13 31  1  0
 13 32  1  0
 23 33  1  0
M  CHG  2   5  -1  21  -1
M  END
>  <UniqueID>  (68) 
68

>  <SMILES>  (68) 
C[C@@H](C(=O)[O-])c1ccc2cc(C(N)=O)n(C(=O)OC(=O)[O-])c2c1

>  <Energy>  (68) 
72.76108089083749

>  <Genealogy>  (68) 
CC(C(=O)[O-])c1ccc2cc(C(N)=O)n(C(=O)OC(=O)[O-])c2c1 (protonated)
C[C@@H](C(=O)[O-])c1ccc2cc(C(N)=O)n(C(=O)OC(=O)[O-])c2c1 (chirality)
C[C@@H](C(=O)[O-])c1ccc2cc(C(N)=O)n(C(=O)OC(=O)[O-])c2c1 (3D coordinates assigned)
C[C@@H](C(=O)[O-])c1ccc2cc(C(N)=O)n(C(=O)OC(=O)[O-])c2c1 (optimized conformer: 72.76108089083749 kcal/mol)

>  <smiles>  (68) 
CC(C(=O)O)c1ccc2cc(C(N)=O)n(C(=O)OC(=O)O)c2c1

>  <score_type>  (68) 
oracle

>  <origin>  (68) 
adg

>  <m_score__min__energy>  (68) 
-9.9900000000000002

>  <m_primary>  (68) 
energy

$$$$
70:0
     RDKit          3D

 42 44  0  0  0  0  0  0  0  0999 V2000
    0.6150   22.7110  -27.7360 C   0  0  0  0  0  0  0  0  0  0  0  0
   -0.0920   23.9610  -28.1440 C   0  0  0  0  0  0  0  0  0  0  0  0
    0.0500   25.1240  -27.5530 O   0  0  0  0  0  0  0  0  0  0  0  0
   -0.7530   25.9490  -28.1840 C   0  0  0  0  0  0  0  0  0  0  0  0
   -0.8760   27.1660  -27.8880 O   0  0  0  0  0  0  0  0  0  0  0  0
   -1.4140   25.3660  -29.1580 O   0  0  0  0  0  0  0  0  0  0  0  0
   -1.0270   24.1120  -29.1550 C   0  0  0  0  0  0  0  0  0  0  0  0
   -1.5260   23.0690  -30.1100 C   0  0  0  0  0  0  0  0  0  0  0  0
   -2.9510   23.0780  -30.1730 O   0  0  0  0  0  0  0  0  0  0  0  0
   -3.6700   22.6530  -31.2960 C   0  0  0  0  0  0  0  0  0  0  0  0
   -3.0700   22.1820  -32.3010 O   0  0  0  0  0  0  0  0  0  0  0  0
   -5.0940   22.8110  -31.3230 N   0  0  0  0  0  0  0  0  0  0  0  0
   -5.8160   23.9260  -31.0260 C   0  0  0  0  0  0  0  0  0  0  0  0
   -5.2810   25.1760  -30.4490 C   0  0  0  0  0  0  0  0  0  0  0  0
   -4.0050   25.6760  -30.8370 N   0  0  0  0  0  0  0  0  0  0  0  0
   -5.9450   25.7950  -29.5740 O   0  0  0  0  0  0  0  0  0  0  0  0
   -7.1670   23.7150  -31.2950 C   0  0  0  0  0  0  0  0  0  0  0  0
   -7.2470   22.4250  -31.7730 C   0  0  0  0  0  0  0  0  0  0  0  0
   -8.3450   21.7040  -32.2260 C   0  0  0  0  0  0  0  0  0  0  0  0
   -8.1250   20.4060  -32.7170 C   0  0  0  0  0  0  0  0  0  0  0  0
   -6.8150   19.8470  -32.7610 C   0  0  0  0  0  0  0  0  0  0  0  0
   -6.5950   18.5160  -33.2920 N   0  0  0  0  0  0  0  0  0  0  0  0
   -5.7680   18.3180  -34.4900 C   0  0  0  0  0  0  0  0  0  0  0  0
   -7.1960   17.3440  -32.6430 C   0  0  0  0  0  0  0  0  0  0  0  0
   -5.7270   20.6240  -32.2830 C   0  0  0  0  0  0  0  0  0  0  0  0
   -5.9820   21.9050  -31.7830 C   0  0  0  0  0  0  0  0  0  0  0  0
    0.6491   22.6507  -26.6382 H   0  0  0  0  0  0  0  0  0  0  0  0
    0.0766   21.8385  -28.1346 H   0  0  0  0  0  0  0  0  0  0  0  0
    1.6402   22.7228  -28.1346 H   0  0  0  0  0  0  0  0  0  0  0  0
   -1.1197   23.2736  -31.1115 H   0  0  0  0  0  0  0  0  0  0  0  0
   -1.1956   22.0812  -29.7564 H   0  0  0  0  0  0  0  0  0  0  0  0
   -3.1260   25.2460  -30.4740 H   0  0  0  0  0  0  0  0  0  0  0  0
   -7.9939   24.4269  -31.1554 H   0  0  0  0  0  0  0  0  0  0  0  0
   -9.3561   22.1364  -32.2010 H   0  0  0  0  0  0  0  0  0  0  0  0
   -8.9788   19.8111  -33.0736 H   0  0  0  0  0  0  0  0  0  0  0  0
   -4.7391   18.0717  -34.1887 H   0  0  0  0  0  0  0  0  0  0  0  0
   -6.1819   17.4936  -35.0892 H   0  0  0  0  0  0  0  0  0  0  0  0
   -5.7637   19.2405  -35.0892 H   0  0  0  0  0  0  0  0  0  0  0  0
   -7.1369   17.4592  -31.5506 H   0  0  0  0  0  0  0  0  0  0  0  0
   -8.2499   17.2572  -32.9461 H   0  0  0  0  0  0  0  0  0  0  0  0
   -6.6515   16.4376  -32.9461 H   0  0  0  0  0  0  0  0  0  0  0  0
   -4.7019   20.2256  -32.3055 H   0  0  0  0  0  0  0  0  0  0  0  0
  1  2  1  0
  2  3  1  0
  3  4  1  0
  4  5  2  0
  4  6  1  0
  6  7  1  0
  7  8  1  0
  8  9  1  0
  9 10  1  0
 10 11  2  0
 10 12  1  0
 12 13  1  0
 13 14  1  0
 14 15  1  0
 14 16  2  0
 13 17  2  0
 17 18  1  0
 18 19  2  0
 19 20  1  0
 20 21  2  0
 21 22  1  0
 22 23  1  0
 22 24  1  0
 21 25  1  0
 25 26  2  0
  7  2  2  0
 26 12  1  0
 26 18  1  0
  1 27  1  0
  1 28  1  0
  1 29  1  0
  8 30  1  0
  8 31  1  0
 15 32  1  0
 17 33  1  0
 19 34  1  0
 20 35  1  0
 23 36  1  0
 23 37  1  0
 23 38  1  0
 24 39  1  0
 24 40  1  0
 24 41  1  0
 25 42  1  0
M  CHG  1  15  -1
M  END
>  <UniqueID>  (69) 
69

>  <SMILES>  (69) 
Cc1oc(=O)oc1COC(=O)n1c(C([NH-])=O)cc2ccc(N(C)C)cc21

>  <Energy>  (69) 
113.4228439750934

>  <Genealogy>  (69) 
Cc1oc(=O)oc1COC(=O)n1c(C([NH-])=O)cc2ccc(N(C)C)cc21 (protonated)
Cc1oc(=O)oc1COC(=O)n1c(C([NH-])=O)cc2ccc(N(C)C)cc21 (3D coordinates assigned)
Cc1oc(=O)oc1COC(=O)n1c(C([NH-])=O)cc2ccc(N(C)C)cc21 (optimized conformer: 113.4228439750934 kcal/mol)

>  <smiles>  (69) 
Cc1oc(=O)oc1COC(=O)n1c(C(N)=O)cc2ccc(N(C)C)cc21

>  <score_type>  (69) 
oracle

>  <origin>  (69) 
adg

>  <m_score__min__energy>  (69) 
-10.699999999999999

>  <m_primary>  (69) 
energy

$$$$
71:0
     RDKit          3D

 38 39  0  0  0  0  0  0  0  0999 V2000
   -1.7430   21.4760  -30.5430 C   0  0  0  0  0  0  0  0  0  0  0  0
   -2.7840   22.5430  -30.7120 N   0  0  0  0  0  0  0  0  0  0  0  0
   -2.5730   23.6820  -29.9260 C   0  0  0  0  0  0  0  0  0  0  0  0
   -1.9180   23.7560  -28.8570 O   0  0  0  0  0  0  0  0  0  0  0  0
   -3.1340   24.9100  -30.3320 O   0  0  0  0  0  0  0  0  0  0  0  0
   -3.8270   22.1490  -31.5470 C   0  0  0  0  0  0  0  0  0  0  0  0
   -3.3560   21.5060  -32.5990 O   0  0  0  0  0  0  0  0  0  0  0  0
   -5.2140   22.2630  -31.5340 N   0  0  0  0  0  0  0  0  0  0  0  0
   -6.0790   23.1100  -30.9770 C   0  0  0  0  0  0  0  0  0  0  0  0
   -5.8030   24.4780  -30.4830 C   0  0  0  0  0  0  0  0  0  0  0  0
   -5.5300   24.7020  -29.0960 N   0  0  0  0  0  0  0  0  0  0  0  0
   -5.7910   25.4820  -31.2190 O   0  0  0  0  0  0  0  0  0  0  0  0
   -7.3840   22.6690  -31.0570 C   0  0  0  0  0  0  0  0  0  0  0  0
   -7.3290   21.4750  -31.7120 C   0  0  0  0  0  0  0  0  0  0  0  0
   -8.3570   20.6200  -32.0520 C   0  0  0  0  0  0  0  0  0  0  0  0
   -8.0860   19.4540  -32.7150 C   0  0  0  0  0  0  0  0  0  0  0  0
   -6.7730   19.1780  -33.0210 C   0  0  0  0  0  0  0  0  0  0  0  0
   -6.4850   17.9700  -33.7090 N   0  0  0  0  0  0  0  0  0  0  0  0
   -5.7550   18.0370  -34.9610 C   0  0  0  0  0  0  0  0  0  0  0  0
   -6.9320   16.6960  -33.1390 C   0  0  0  0  0  0  0  0  0  0  0  0
   -5.7410   20.0540  -32.6710 C   0  0  0  0  0  0  0  0  0  0  0  0
   -6.0140   21.2370  -31.9980 C   0  0  0  0  0  0  0  0  0  0  0  0
   -1.5702   21.2988  -29.4712 H   0  0  0  0  0  0  0  0  0  0  0  0
   -2.0906   20.5462  -31.0169 H   0  0  0  0  0  0  0  0  0  0  0  0
   -0.8049   21.8006  -31.0169 H   0  0  0  0  0  0  0  0  0  0  0  0
   -3.6310   24.9170  -31.2190 H   0  0  0  0  0  0  0  0  0  0  0  0
   -4.5600   24.6280  -28.6990 H   0  0  0  0  0  0  0  0  0  0  0  0
   -6.3710   24.9420  -28.5140 H   0  0  0  0  0  0  0  0  0  0  0  0
   -8.2815   23.1754  -30.6724 H   0  0  0  0  0  0  0  0  0  0  0  0
   -9.3944   20.8756  -31.7902 H   0  0  0  0  0  0  0  0  0  0  0  0
   -8.8920   18.7595  -32.9944 H   0  0  0  0  0  0  0  0  0  0  0  0
   -4.6793   18.1357  -34.7534 H   0  0  0  0  0  0  0  0  0  0  0  0
   -5.9340   17.1186  -35.5394 H   0  0  0  0  0  0  0  0  0  0  0  0
   -6.0982   18.9074  -35.5394 H   0  0  0  0  0  0  0  0  0  0  0  0
   -6.9103   16.7579  -32.0410 H   0  0  0  0  0  0  0  0  0  0  0  0
   -7.9581   16.4843  -33.4741 H   0  0  0  0  0  0  0  0  0  0  0  0
   -6.2631   15.8896  -33.4741 H   0  0  0  0  0  0  0  0  0  0  0  0
   -4.7022   19.8032  -32.9316 H   0  0  0  0  0  0  0  0  0  0  0  0
  1  2  1  0
  2  3  1  0
  3  4  2  0
  3  5  1  0
  2  6  1  0
  6  7  2  0
  6  8  1  0
  8  9  1  0
  9 10  1  0
 10 11  1  0
 10 12  2  0
  9 13  2  0
 13 14  1  0
 14 15  2  0
 15 16  1  0
 16 17  2  0
 17 18  1  0
 18 19  1  0
 18 20  1  0
 17 21  1  0
 21 22  2  0
 22  8  1  0
 22 14  1  0
  1 23  1  0
  1 24  1  0
  1 25  1  0
  5 26  1  0
 11 27  1  0
 11 28  1  0
 13 29  1  0
 15 30  1  0
 16 31  1  0
 19 32  1  0
 19 33  1  0
 19 34  1  0
 20 35  1  0
 20 36  1  0
 20 37  1  0
 21 38  1  0
M  END
>  <smiles>  (70) 
CN(C(=O)O)C(=O)n1c(C(N)=O)cc2ccc(N(C)C)cc21

>  <score_type>  (70) 
oracle

>  <origin>  (70) 
adg

>  <m_score__min__energy>  (70) 
-8.4900000000000002

>  <m_primary>  (70) 
energy

$$$$
72:0
     RDKit          3D

 43 44  0  0  0  0  0  0  0  0999 V2000
   -6.6200   17.4330  -32.4350 C   0  0  0  0  0  0  0  0  0  0  0  0
   -6.8580   18.5540  -33.4520 C   0  0  2  0  0  0  0  0  0  0  0  0
   -5.7080   18.6610  -34.4190 C   0  0  0  0  0  0  0  0  0  0  0  0
   -5.6050   17.8660  -35.3390 O   0  0  0  0  0  0  0  0  0  0  0  0
   -7.0920   19.8720  -32.7440 C   0  0  0  0  0  0  0  0  0  0  0  0
   -8.4040   20.2770  -32.3810 C   0  0  0  0  0  0  0  0  0  0  0  0
   -8.6230   21.5010  -31.7270 C   0  0  0  0  0  0  0  0  0  0  0  0
   -7.5200   22.3050  -31.4620 C   0  0  0  0  0  0  0  0  0  0  0  0
   -7.4450   23.5190  -30.8170 C   0  0  0  0  0  0  0  0  0  0  0  0
   -6.0960   23.8590  -30.8290 C   0  0  0  0  0  0  0  0  0  0  0  0
   -5.5710   25.1300  -30.2880 C   0  0  0  0  0  0  0  0  0  0  0  0
   -6.1190   25.7140  -29.1060 N   0  0  0  0  0  0  0  0  0  0  0  0
   -4.5880   25.6810  -30.8500 O   0  0  0  0  0  0  0  0  0  0  0  0
   -5.3600   22.8900  -31.4420 N   0  0  0  0  0  0  0  0  0  0  0  0
   -3.9310   22.8180  -31.5610 C   0  0  0  0  0  0  0  0  0  0  0  0
   -3.4120   21.9980  -32.3650 O   0  0  0  0  0  0  0  0  0  0  0  0
   -3.1310   23.6640  -30.7780 O   0  0  0  0  0  0  0  0  0  0  0  0
   -2.5830   23.3620  -29.4870 C   0  0  0  0  0  0  0  0  0  0  0  0
   -1.4430   22.3550  -29.7030 C   0  0  0  0  0  0  0  0  0  0  0  0
   -2.0090   24.6330  -28.8300 C   0  0  0  0  0  0  0  0  0  0  0  0
   -3.6510   22.7170  -28.5830 C   0  0  0  0  0  0  0  0  0  0  0  0
   -6.2490   21.9460  -31.8290 C   0  0  0  0  0  0  0  0  0  0  0  0
   -5.9970   20.7220  -32.4610 C   0  0  0  0  0  0  0  0  0  0  0  0
   -6.7060   17.8381  -31.4159 H   0  0  0  0  0  0  0  0  0  0  0  0
   -7.3701   16.6415  -32.5795 H   0  0  0  0  0  0  0  0  0  0  0  0
   -5.6130   17.0146  -32.5795 H   0  0  0  0  0  0  0  0  0  0  0  0
   -7.7606   18.3063  -34.0299 H   0  0  0  0  0  0  0  0  0  0  0  0
   -4.9594   19.4575  -34.2956 H   0  0  0  0  0  0  0  0  0  0  0  0
   -9.2585   19.6249  -32.6146 H   0  0  0  0  0  0  0  0  0  0  0  0
   -9.6360   21.8137  -31.4336 H   0  0  0  0  0  0  0  0  0  0  0  0
   -8.2749   24.0970  -30.3843 H   0  0  0  0  0  0  0  0  0  0  0  0
   -6.8140   25.1990  -28.5210 H   0  0  0  0  0  0  0  0  0  0  0  0
   -5.7640   26.6350  -28.7640 H   0  0  0  0  0  0  0  0  0  0  0  0
   -1.0616   22.0181  -28.7278 H   0  0  0  0  0  0  0  0  0  0  0  0
   -1.8202   21.4898  -30.2679 H   0  0  0  0  0  0  0  0  0  0  0  0
   -0.6310   22.8361  -30.2679 H   0  0  0  0  0  0  0  0  0  0  0  0
   -2.0544   24.5325  -27.7355 H   0  0  0  0  0  0  0  0  0  0  0  0
   -0.9630   24.7670  -29.1428 H   0  0  0  0  0  0  0  0  0  0  0  0
   -2.6001   25.5064  -29.1428 H   0  0  0  0  0  0  0  0  0  0  0  0
   -3.3843   22.8781  -27.5281 H   0  0  0  0  0  0  0  0  0  0  0  0
   -4.6299   23.1750  -28.7878 H   0  0  0  0  0  0  0  0  0  0  0  0
   -3.7013   21.6374  -28.7878 H   0  0  0  0  0  0  0  0  0  0  0  0
   -4.9719   20.4284  -32.7310 H   0  0  0  0  0  0  0  0  0  0  0  0
  1  2  1  0
  2  3  1  0
  3  4  2  0
  2  5  1  0
  5  6  2  0
  6  7  1  0
  7  8  2  0
  8  9  1  0
  9 10  2  0
 10 11  1  0
 11 12  1  0
 11 13  2  0
 10 14  1  0
 14 15  1  0
 15 16  2  0
 15 17  1  0
 17 18  1  0
 18 19  1  0
 18 20  1  0
 18 21  1  0
 14 22  1  0
 22 23  2  0
 23  5  1  0
 22  8  1  0
  1 24  1  0
  1 25  1  0
  1 26  1  0
  2 27  1  6
  3 28  1  0
  6 29  1  0
  7 30  1  0
  9 31  1  0
 12 32  1  0
 12 33  1  0
 19 34  1  0
 19 35  1  0
 19 36  1  0
 20 37  1  0
 20 38  1  0
 20 39  1  0
 21 40  1  0
 21 41  1  0
 21 42  1  0
 23 43  1  0
M  END
>  <UniqueID>  (71) 
70

>  <SMILES>  (71) 
C[C@H](C=O)c1ccc2cc(C(N)=O)n(C(=O)OC(C)(C)C)c2c1

>  <Energy>  (71) 
74.5192305970655

>  <Genealogy>  (71) 
C[C@H](C=O)c1ccc2cc(C(N)=O)n(C(=O)OC(C)(C)C)c2c1 (3D coordinates assigned)
C[C@H](C=O)c1ccc2cc(C(N)=O)n(C(=O)OC(C)(C)C)c2c1 (optimized conformer: 74.5192305970655 kcal/mol)

>  <smiles>  (71) 
C[C@H](C=O)c1ccc2cc(C(N)=O)n(C(=O)OC(C)(C)C)c2c1

>  <score_type>  (71) 
oracle

>  <origin>  (71) 
adg

>  <m_score__min__energy>  (71) 
-9.4299999999999997

>  <m_primary>  (71) 
energy

$$$$
73:0
     RDKit          3D

 41 42  0  0  0  0  0  0  0  0999 V2000
   -4.2570   23.7130  -27.8460 C   0  0  0  0  0  0  0  0  0  0  0  0
   -4.2530   23.7430  -29.3800 C   0  0  2  0  0  0  0  0  0  0  0  0
   -3.4690   24.9230  -29.9050 C   0  0  0  0  0  0  0  0  0  0  0  0
   -3.9390   25.6280  -30.8430 O   0  0  0  0  0  0  0  0  0  0  0  0
   -2.2570   25.2830  -29.3180 O   0  0  0  0  0  0  0  0  0  0  0  0
   -5.6330   23.7480  -29.8960 N   0  0  0  0  0  0  0  0  0  0  0  0
   -6.4750   24.9360  -29.7600 C   0  0  0  0  0  0  0  0  0  0  0  0
   -6.1690   22.6170  -30.5990 C   0  0  0  0  0  0  0  0  0  0  0  0
   -7.5520   22.3220  -30.5240 C   0  0  0  0  0  0  0  0  0  0  0  0
   -8.0850   21.2170  -31.2100 C   0  0  0  0  0  0  0  0  0  0  0  0
   -7.2100   20.4390  -31.9690 C   0  0  0  0  0  0  0  0  0  0  0  0
   -7.4570   19.3210  -32.7320 C   0  0  0  0  0  0  0  0  0  0  0  0
   -6.2240   18.9700  -33.2850 C   0  0  0  0  0  0  0  0  0  0  0  0
   -6.0430   17.8820  -34.2720 C   0  0  0  0  0  0  0  0  0  0  0  0
   -4.9100   17.8710  -35.1440 N   0  0  0  0  0  0  0  0  0  0  0  0
   -6.8690   16.9280  -34.3260 O   0  0  0  0  0  0  0  0  0  0  0  0
   -5.2520   19.8340  -32.8700 N   0  0  0  0  0  0  0  0  0  0  0  0
   -3.8490   19.8070  -33.1920 C   0  0  0  0  0  0  0  0  0  0  0  0
   -3.2360   18.7070  -33.2240 O   0  0  0  0  0  0  0  0  0  0  0  0
   -3.1730   21.0100  -33.4360 O   0  0  0  0  0  0  0  0  0  0  0  0
   -1.8800   21.3190  -32.9940 C   0  0  0  0  0  0  0  0  0  0  0  0
   -0.9290   21.4750  -33.8110 O   0  0  0  0  0  0  0  0  0  0  0  0
   -1.6170   21.3980  -31.5230 C   0  0  0  0  0  0  0  0  0  0  0  0
   -1.9990   22.6430  -31.0580 F   0  0  0  0  0  0  0  0  0  0  0  0
   -0.2670   21.2150  -31.2860 F   0  0  0  0  0  0  0  0  0  0  0  0
   -2.3270   20.4210  -30.8490 F   0  0  0  0  0  0  0  0  0  0  0  0
   -5.8720   20.7250  -32.0650 C   0  0  0  0  0  0  0  0  0  0  0  0
   -5.3130   21.7990  -31.3630 C   0  0  0  0  0  0  0  0  0  0  0  0
   -4.1209   24.7336  -27.4590 H   0  0  0  0  0  0  0  0  0  0  0  0
   -5.2167   23.3106  -27.4896 H   0  0  0  0  0  0  0  0  0  0  0  0
   -3.4362   23.0732  -27.4896 H   0  0  0  0  0  0  0  0  0  0  0  0
   -3.7523   22.8320  -29.7398 H   0  0  0  0  0  0  0  0  0  0  0  0
   -6.6303   25.1552  -28.6933 H   0  0  0  0  0  0  0  0  0  0  0  0
   -5.9812   25.7925  -30.2422 H   0  0  0  0  0  0  0  0  0  0  0  0
   -7.4468   24.7538  -30.2422 H   0  0  0  0  0  0  0  0  0  0  0  0
   -8.2147   22.9629  -29.9239 H   0  0  0  0  0  0  0  0  0  0  0  0
   -9.1561   20.9737  -31.1505 H   0  0  0  0  0  0  0  0  0  0  0  0
   -8.4214   18.8117  -32.8758 H   0  0  0  0  0  0  0  0  0  0  0  0
   -4.2310   18.6650  -35.1640 H   0  0  0  0  0  0  0  0  0  0  0  0
   -4.7560   17.0620  -35.7850 H   0  0  0  0  0  0  0  0  0  0  0  0
   -4.2323   21.9996  -31.4066 H   0  0  0  0  0  0  0  0  0  0  0  0
  1  2  1  0
  2  3  1  0
  3  4  2  0
  3  5  1  0
  2  6  1  0
  6  7  1  0
  6  8  1  0
  8  9  2  0
  9 10  1  0
 10 11  2  0
 11 12  1  0
 12 13  2  0
 13 14  1  0
 14 15  1  0
 14 16  2  0
 13 17  1  0
 17 18  1  0
 18 19  2  0
 18 20  1  0
 20 21  1  0
 21 22  2  0
 21 23  1  0
 23 24  1  0
 23 25  1  0
 23 26  1  0
 17 27  1  0
 27 28  2  0
 28  8  1  0
 27 11  1  0
  1 29  1  0
  1 30  1  0
  1 31  1  0
  2 32  1  6
  7 33  1  0
  7 34  1  0
  7 35  1  0
  9 36  1  0
 10 37  1  0
 12 38  1  0
 15 39  1  0
 15 40  1  0
 28 41  1  0
M  CHG  1   5  -1
M  END
>  <UniqueID>  (72) 
71

>  <SMILES>  (72) 
C[C@H](C(=O)[O-])N(C)c1ccc2cc(C(N)=O)n(C(=O)OC(=O)C(F)(F)F)c2c1

>  <Energy>  (72) 
82.13326230398235

>  <Genealogy>  (72) 
CC(C(=O)[O-])N(C)c1ccc2cc(C(N)=O)n(C(=O)OC(=O)C(F)(F)F)c2c1 (protonated)
C[C@H](C(=O)[O-])N(C)c1ccc2cc(C(N)=O)n(C(=O)OC(=O)C(F)(F)F)c2c1 (chirality)
C[C@H](C(=O)[O-])N(C)c1ccc2cc(C(N)=O)n(C(=O)OC(=O)C(F)(F)F)c2c1 (3D coordinates assigned)
C[C@H](C(=O)[O-])N(C)c1ccc2cc(C(N)=O)n(C(=O)OC(=O)C(F)(F)F)c2c1 (optimized conformer: 82.13326230398235 kcal/mol)

>  <smiles>  (72) 
CC(C(=O)O)N(C)c1ccc2cc(C(N)=O)n(C(=O)OC(=O)C(F)(F)F)c2c1

>  <score_type>  (72) 
oracle

>  <origin>  (72) 
adg

>  <m_score__min__energy>  (72) 
-10.06

>  <m_primary>  (72) 
energy

$$$$
74:0
     RDKit          3D

 45 46  0  0  0  0  0  0  0  0999 V2000
   -6.2750   15.7990  -33.8500 C   0  0  0  0  0  0  0  0  0  0  0  0
   -5.8100   17.0380  -34.3720 O   0  0  0  0  0  0  0  0  0  0  0  0
   -6.2780   18.2740  -33.9150 C   0  0  0  0  0  0  0  0  0  0  0  0
   -6.0910   19.3240  -34.5900 O   0  0  0  0  0  0  0  0  0  0  0  0
   -6.9770   18.3540  -32.5960 C   0  0  0  0  0  0  0  0  0  0  0  0
   -7.1380   19.7900  -32.1810 C   0  0  0  0  0  0  0  0  0  0  0  0
   -8.4040   20.4230  -32.2620 C   0  0  0  0  0  0  0  0  0  0  0  0
   -8.5500   21.7780  -31.9180 C   0  0  0  0  0  0  0  0  0  0  0  0
   -7.4170   22.4720  -31.5030 C   0  0  0  0  0  0  0  0  0  0  0  0
   -7.2620   23.7970  -31.1650 C   0  0  0  0  0  0  0  0  0  0  0  0
   -5.9050   23.9510  -30.8850 C   0  0  0  0  0  0  0  0  0  0  0  0
   -5.3050   25.2180  -30.4180 C   0  0  0  0  0  0  0  0  0  0  0  0
   -3.9820   25.5870  -30.7970 N   0  0  0  0  0  0  0  0  0  0  0  0
   -5.9520   25.9650  -29.6370 O   0  0  0  0  0  0  0  0  0  0  0  0
   -5.2500   22.7680  -31.0400 N   0  0  0  0  0  0  0  0  0  0  0  0
   -3.8350   22.5310  -30.9900 C   0  0  0  0  0  0  0  0  0  0  0  0
   -3.0930   22.9620  -31.9130 O   0  0  0  0  0  0  0  0  0  0  0  0
   -3.2860   21.8660  -29.8900 O   0  0  0  0  0  0  0  0  0  0  0  0
   -2.2460   22.4170  -29.0860 C   0  0  0  0  0  0  0  0  0  0  0  0
   -2.5030   23.8830  -28.8440 C   0  0  0  0  0  0  0  0  0  0  0  0
   -1.7180   24.6990  -29.3100 O   0  0  0  0  0  0  0  0  0  0  0  0
   -3.6630   24.3280  -28.0990 N   0  0  0  0  0  0  0  0  0  0  0  0
   -4.5850   23.2030  -27.8650 C   0  0  0  0  0  0  0  0  0  0  0  0
   -3.2420   24.9260  -26.8220 C   0  0  0  0  0  0  0  0  0  0  0  0
   -6.1870   21.8730  -31.4170 C   0  0  0  0  0  0  0  0  0  0  0  0
   -6.0100   20.5290  -31.7620 C   0  0  0  0  0  0  0  0  0  0  0  0
   -6.2611   15.8359  -32.7507 H   0  0  0  0  0  0  0  0  0  0  0  0
   -7.3026   15.6171  -34.1978 H   0  0  0  0  0  0  0  0  0  0  0  0
   -5.6208   14.9859  -34.1978 H   0  0  0  0  0  0  0  0  0  0  0  0
   -7.9692   17.8869  -32.6815 H   0  0  0  0  0  0  0  0  0  0  0  0
   -6.3779   17.8263  -31.8393 H   0  0  0  0  0  0  0  0  0  0  0  0
   -9.2801   19.8484  -32.5972 H   0  0  0  0  0  0  0  0  0  0  0  0
   -9.5298   22.2748  -31.9750 H   0  0  0  0  0  0  0  0  0  0  0  0
   -8.0431   24.5705  -31.1244 H   0  0  0  0  0  0  0  0  0  0  0  0
   -3.2180   24.8790  -30.8440 H   0  0  0  0  0  0  0  0  0  0  0  0
   -2.2126   21.8890  -28.1216 H   0  0  0  0  0  0  0  0  0  0  0  0
   -1.2852   22.3003  -29.6087 H   0  0  0  0  0  0  0  0  0  0  0  0
   -4.1790   25.0600  -28.6440 H   0  0  0  0  0  0  0  0  0  0  0  0
   -4.7101   23.0504  -26.7828 H   0  0  0  0  0  0  0  0  0  0  0  0
   -5.5613   23.4286  -28.3187 H   0  0  0  0  0  0  0  0  0  0  0  0
   -4.1720   22.2900  -28.3187 H   0  0  0  0  0  0  0  0  0  0  0  0
   -3.6552   24.3391  -25.9884 H   0  0  0  0  0  0  0  0  0  0  0  0
   -2.1437   24.9259  -26.7615 H   0  0  0  0  0  0  0  0  0  0  0  0
   -3.6125   25.9600  -26.7615 H   0  0  0  0  0  0  0  0  0  0  0  0
   -5.0167   20.0594  -31.7082 H   0  0  0  0  0  0  0  0  0  0  0  0
  1  2  1  0
  2  3  1  0
  3  4  2  0
  3  5  1  0
  5  6  1  0
  6  7  2  0
  7  8  1  0
  8  9  2  0
  9 10  1  0
 10 11  2  0
 11 12  1  0
 12 13  1  0
 12 14  2  0
 11 15  1  0
 15 16  1  0
 16 17  2  0
 16 18  1  0
 18 19  1  0
 19 20  1  0
 20 21  2  0
 20 22  1  0
 22 23  1  0
 22 24  1  0
 15 25  1  0
 25 26  2  0
 26  6  1  0
 25  9  1  0
  1 27  1  0
  1 28  1  0
  1 29  1  0
  5 30  1  0
  5 31  1  0
  7 32  1  0
  8 33  1  0
 10 34  1  0
 13 35  1  0
 19 36  1  0
 19 37  1  0
 22 38  1  0
 23 39  1  0
 23 40  1  0
 23 41  1  0
 24 42  1  0
 24 43  1  0
 24 44  1  0
 26 45  1  0
M  CHG  2  13  -1  22   1
M  END
>  <UniqueID>  (73) 
72

>  <SMILES>  (73) 
COC(=O)Cc1ccc2cc(C([NH-])=O)n(C(=O)OCC(=O)[NH+](C)C)c2c1

>  <Energy>  (73) 
75.70460549277975

>  <Genealogy>  (73) 
COC(=O)Cc1ccc2cc(C([NH-])=O)n(C(=O)OCC(=O)[NH+](C)C)c2c1 (protonated)
COC(=O)Cc1ccc2cc(C([NH-])=O)n(C(=O)OCC(=O)[NH+](C)C)c2c1 (3D coordinates assigned)
COC(=O)Cc1ccc2cc(C([NH-])=O)n(C(=O)OCC(=O)[NH+](C)C)c2c1 (optimized conformer: 75.70460549277975 kcal/mol)

>  <smiles>  (73) 
COC(=O)Cc1ccc2cc(C(N)=O)n(C(=O)OCC(=O)N(C)C)c2c1

>  <score_type>  (73) 
oracle

>  <origin>  (73) 
adg

>  <m_score__min__energy>  (73) 
-9.5500000000000007

>  <m_primary>  (73) 
energy

$$$$
75:0
     RDKit          3D

 48 50  0  0  0  0  0  0  0  0999 V2000
   -7.4630   13.3990  -34.7940 C   0  0  0  0  0  0  0  0  0  0  0  0
   -6.0600   13.6080  -34.9010 O   0  0  0  0  0  0  0  0  0  0  0  0
   -5.3120   14.2340  -33.8970 C   0  0  0  0  0  0  0  0  0  0  0  0
   -4.3720   13.6160  -33.3260 O   0  0  0  0  0  0  0  0  0  0  0  0
   -5.6190   15.6190  -33.5030 C   0  0  0  0  0  0  0  0  0  0  0  0
   -5.3570   16.0830  -32.2080 C   0  0  0  0  0  0  0  0  0  0  0  0
   -5.6550   17.3670  -31.8840 N   0  0  0  0  0  0  0  0  0  0  0  0
   -6.2090   18.2270  -32.7840 C   0  0  0  0  0  0  0  0  0  0  0  0
   -6.5090   19.6220  -32.3740 C   0  0  0  0  0  0  0  0  0  0  0  0
   -7.8440   20.1070  -32.3270 C   0  0  0  0  0  0  0  0  0  0  0  0
   -8.1170   21.4310  -31.9440 C   0  0  0  0  0  0  0  0  0  0  0  0
   -7.0440   22.2440  -31.5960 C   0  0  0  0  0  0  0  0  0  0  0  0
   -7.0240   23.5660  -31.2150 C   0  0  0  0  0  0  0  0  0  0  0  0
   -5.6820   23.8680  -30.9990 C   0  0  0  0  0  0  0  0  0  0  0  0
   -5.2120   25.1750  -30.4950 C   0  0  0  0  0  0  0  0  0  0  0  0
   -3.9160   25.6650  -30.8250 N   0  0  0  0  0  0  0  0  0  0  0  0
   -5.9470   25.8450  -29.7210 O   0  0  0  0  0  0  0  0  0  0  0  0
   -4.9010   22.7760  -31.2420 N   0  0  0  0  0  0  0  0  0  0  0  0
   -3.4680   22.7040  -31.2310 C   0  0  0  0  0  0  0  0  0  0  0  0
   -2.8600   22.1990  -32.2130 O   0  0  0  0  0  0  0  0  0  0  0  0
   -2.7600   23.2200  -30.1340 O   0  0  0  0  0  0  0  0  0  0  0  0
   -2.7970   22.7240  -28.7880 C   0  0  0  0  0  0  0  0  0  0  0  0
   -3.0130   21.1990  -28.7780 C   0  0  0  0  0  0  0  0  0  0  0  0
   -3.8970   23.4330  -27.9740 C   0  0  0  0  0  0  0  0  0  0  0  0
   -1.4330   23.0350  -28.1530 C   0  0  0  0  0  0  0  0  0  0  0  0
   -5.7510   21.7900  -31.6050 C   0  0  0  0  0  0  0  0  0  0  0  0
   -5.4480   20.4830  -32.0020 C   0  0  0  0  0  0  0  0  0  0  0  0
   -6.4610   17.7620  -34.0860 C   0  0  0  0  0  0  0  0  0  0  0  0
   -6.1610   16.4770  -34.4090 N   0  0  0  0  0  0  0  0  0  0  0  0
   -7.7475   13.3566  -33.7323 H   0  0  0  0  0  0  0  0  0  0  0  0
   -7.9956   14.2277  -35.2835 H   0  0  0  0  0  0  0  0  0  0  0  0
   -7.7309   12.4510  -35.2835 H   0  0  0  0  0  0  0  0  0  0  0  0
   -4.9127   15.4116  -31.4585 H   0  0  0  0  0  0  0  0  0  0  0  0
   -8.6746   19.4370  -32.5940 H   0  0  0  0  0  0  0  0  0  0  0  0
   -9.1483   21.8128  -31.9202 H   0  0  0  0  0  0  0  0  0  0  0  0
   -7.8854   24.2411  -31.1045 H   0  0  0  0  0  0  0  0  0  0  0  0
   -3.0620   25.2920  -30.3510 H   0  0  0  0  0  0  0  0  0  0  0  0
   -3.0635   20.8426  -27.7385 H   0  0  0  0  0  0  0  0  0  0  0  0
   -3.9542   20.9586  -29.2942 H   0  0  0  0  0  0  0  0  0  0  0  0
   -2.1756   20.7067  -29.2942 H   0  0  0  0  0  0  0  0  0  0  0  0
   -3.6983   23.3049  -26.8997 H   0  0  0  0  0  0  0  0  0  0  0  0
   -3.9023   24.5050  -28.2207 H   0  0  0  0  0  0  0  0  0  0  0  0
   -4.8755   22.9951  -28.2207 H   0  0  0  0  0  0  0  0  0  0  0  0
   -1.5254   23.0139  -27.0571 H   0  0  0  0  0  0  0  0  0  0  0  0
   -0.6989   22.2812  -28.4736 H   0  0  0  0  0  0  0  0  0  0  0  0
   -1.0982   24.0325  -28.4736 H   0  0  0  0  0  0  0  0  0  0  0  0
   -4.4060   20.1311  -32.0247 H   0  0  0  0  0  0  0  0  0  0  0  0
   -6.8984   18.4343  -34.8388 H   0  0  0  0  0  0  0  0  0  0  0  0
  1  2  1  0
  2  3  1  0
  3  4  2  0
  3  5  1  0
  5  6  2  0
  6  7  1  0
  7  8  2  0
  8  9  1  0
  9 10  2  0
 10 11  1  0
 11 12  2  0
 12 13  1  0
 13 14  2  0
 14 15  1  0
 15 16  1  0
 15 17  2  0
 14 18  1  0
 18 19  1  0
 19 20  2  0
 19 21  1  0
 21 22  1  0
 22 23  1  0
 22 24  1  0
 22 25  1  0
 18 26  1  0
 26 27  2  0
  8 28  1  0
 28 29  2  0
 29  5  1  0
 27  9  1  0
 26 12  1  0
  1 30  1  0
  1 31  1  0
  1 32  1  0
  6 33  1  0
 10 34  1  0
 11 35  1  0
 13 36  1  0
 16 37  1  0
 23 38  1  0
 23 39  1  0
 23 40  1  0
 24 41  1  0
 24 42  1  0
 24 43  1  0
 25 44  1  0
 25 45  1  0
 25 46  1  0
 27 47  1  0
 28 48  1  0
M  CHG  1  16  -1
M  END
>  <UniqueID>  (74) 
73

>  <SMILES>  (74) 
COC(=O)c1cnc(-c2ccc3cc(C([NH-])=O)n(C(=O)OC(C)(C)C)c3c2)cn1

>  <Energy>  (74) 
87.51910144294524

>  <Genealogy>  (74) 
COC(=O)c1cnc(-c2ccc3cc(C([NH-])=O)n(C(=O)OC(C)(C)C)c3c2)cn1 (protonated)
COC(=O)c1cnc(-c2ccc3cc(C([NH-])=O)n(C(=O)OC(C)(C)C)c3c2)cn1 (3D coordinates assigned)
COC(=O)c1cnc(-c2ccc3cc(C([NH-])=O)n(C(=O)OC(C)(C)C)c3c2)cn1 (optimized conformer: 87.51910144294524 kcal/mol)

>  <smiles>  (74) 
COC(=O)c1cnc(-c2ccc3cc(C(N)=O)n(C(=O)OC(C)(C)C)c3c2)cn1

>  <score_type>  (74) 
oracle

>  <origin>  (74) 
adg

>  <m_score__min__energy>  (74) 
-10.529999999999999

>  <m_primary>  (74) 
energy

$$$$
76:0
     RDKit          3D

 36 38  0  0  0  0  0  0  0  0999 V2000
   -4.7430   14.8110  -32.3550 C   0  0  0  0  0  0  0  0  0  0  0  0
   -5.4230   16.0280  -32.7760 N   0  0  0  0  0  0  0  0  0  0  0  0
   -5.9110   16.2980  -34.0000 C   0  0  0  0  0  0  0  0  0  0  0  0
   -6.3980   17.5520  -34.0950 N   0  0  0  0  0  0  0  0  0  0  0  0
   -6.1910   18.0880  -32.8720 C   0  0  0  0  0  0  0  0  0  0  0  0
   -6.5630   19.4790  -32.5120 C   0  0  0  0  0  0  0  0  0  0  0  0
   -7.9080   19.9080  -32.6620 C   0  0  0  0  0  0  0  0  0  0  0  0
   -8.2900   21.2160  -32.3200 C   0  0  0  0  0  0  0  0  0  0  0  0
   -7.3110   22.0780  -31.8370 C   0  0  0  0  0  0  0  0  0  0  0  0
   -7.4090   23.3810  -31.4050 C   0  0  0  0  0  0  0  0  0  0  0  0
   -6.1210   23.7390  -31.0120 C   0  0  0  0  0  0  0  0  0  0  0  0
   -5.7600   25.0840  -30.5140 C   0  0  0  0  0  0  0  0  0  0  0  0
   -4.5070   25.6780  -30.8380 N   0  0  0  0  0  0  0  0  0  0  0  0
   -6.5830   25.7290  -29.8110 O   0  0  0  0  0  0  0  0  0  0  0  0
   -5.2610   22.6980  -31.1990 N   0  0  0  0  0  0  0  0  0  0  0  0
   -3.8660   22.6400  -30.8700 C   0  0  0  0  0  0  0  0  0  0  0  0
   -3.0380   22.2250  -31.7250 O   0  0  0  0  0  0  0  0  0  0  0  0
   -3.3880   23.0290  -29.5040 C   0  0  0  0  0  0  0  0  0  0  0  0
   -2.1730   23.8910  -29.6160 C   0  0  0  0  0  0  0  0  0  0  0  0
   -1.0590   23.3820  -29.9100 O   0  0  0  0  0  0  0  0  0  0  0  0
   -2.2600   25.2520  -29.3480 O   0  0  0  0  0  0  0  0  0  0  0  0
   -6.0060   21.6880  -31.7000 C   0  0  0  0  0  0  0  0  0  0  0  0
   -5.5980   20.3880  -32.0130 C   0  0  0  0  0  0  0  0  0  0  0  0
   -5.5780   17.1520  -32.0580 C   0  0  0  0  0  0  0  0  0  0  0  0
   -4.7180   14.7663  -31.2562 H   0  0  0  0  0  0  0  0  0  0  0  0
   -5.2827   13.9356  -32.7454 H   0  0  0  0  0  0  0  0  0  0  0  0
   -3.7146   14.8118  -32.7454 H   0  0  0  0  0  0  0  0  0  0  0  0
   -5.9127   15.5767  -34.8305 H   0  0  0  0  0  0  0  0  0  0  0  0
   -8.6610   19.2069  -33.0512 H   0  0  0  0  0  0  0  0  0  0  0  0
   -9.3326   21.5486  -32.4309 H   0  0  0  0  0  0  0  0  0  0  0  0
   -8.3128   24.0073  -31.3761 H   0  0  0  0  0  0  0  0  0  0  0  0
   -3.8760   26.0470  -30.0910 H   0  0  0  0  0  0  0  0  0  0  0  0
   -4.1825   23.5845  -28.9842 H   0  0  0  0  0  0  0  0  0  0  0  0
   -3.1363   22.1209  -28.9365 H   0  0  0  0  0  0  0  0  0  0  0  0
   -4.5516   20.0781  -31.8749 H   0  0  0  0  0  0  0  0  0  0  0  0
   -5.2728   17.3016  -31.0118 H   0  0  0  0  0  0  0  0  0  0  0  0
  1  2  1  0
  2  3  1  0
  3  4  2  0
  4  5  1  0
  5  6  1  0
  6  7  2  0
  7  8  1  0
  8  9  2  0
  9 10  1  0
 10 11  2  0
 11 12  1  0
 12 13  1  0
 12 14  2  0
 11 15  1  0
 15 16  1  0
 16 17  2  0
 16 18  1  0
 18 19  1  0
 19 20  2  0
 19 21  1  0
 15 22  1  0
 22 23  2  0
  5 24  2  0
 24  2  1  0
 23  6  1  0
 22  9  1  0
  1 25  1  0
  1 26  1  0
  1 27  1  0
  3 28  1  0
  7 29  1  0
  8 30  1  0
 10 31  1  0
 13 32  1  0
 18 33  1  0
 18 34  1  0
 23 35  1  0
 24 36  1  0
M  CHG  2  13  -1  21  -1
M  END
>  <UniqueID>  (75) 
74

>  <SMILES>  (75) 
Cn1cnc(-c2ccc3cc(C([NH-])=O)n(C(=O)CC(=O)[O-])c3c2)c1

>  <Energy>  (75) 
105.82423211865189

>  <Genealogy>  (75) 
Cn1cnc(-c2ccc3cc(C([NH-])=O)n(C(=O)CC(=O)[O-])c3c2)c1 (protonated)
Cn1cnc(-c2ccc3cc(C([NH-])=O)n(C(=O)CC(=O)[O-])c3c2)c1 (3D coordinates assigned)
Cn1cnc(-c2ccc3cc(C([NH-])=O)n(C(=O)CC(=O)[O-])c3c2)c1 (optimized conformer: 105.82423211865189 kcal/mol)

>  <smiles>  (75) 
Cn1cnc(-c2ccc3cc(C(N)=O)n(C(=O)CC(=O)O)c3c2)c1

>  <score_type>  (75) 
oracle

>  <origin>  (75) 
adg

>  <m_score__min__energy>  (75) 
-12.08

>  <m_primary>  (75) 
energy

$$$$
77:0
     RDKit          3D

 37 38  0  0  0  0  0  0  0  0999 V2000
   -4.6960   18.7920  -34.4860 C   0  0  0  0  0  0  0  0  0  0  0  0
   -5.1350   20.0800  -33.7780 C   0  0  1  0  0  0  0  0  0  0  0  0
   -6.4520   19.9020  -33.0760 C   0  0  0  0  0  0  0  0  0  0  0  0
   -7.1130   20.9200  -32.7320 O   0  0  0  0  0  0  0  0  0  0  0  0
   -6.9080   18.6170  -32.7560 O   0  0  0  0  0  0  0  0  0  0  0  0
   -7.6690   18.3140  -31.5870 C   0  0  0  0  0  0  0  0  0  0  0  0
   -9.0890   18.8710  -31.7050 C   0  0  0  0  0  0  0  0  0  0  0  0
   -9.3740   19.2470  -33.0240 O   0  0  0  0  0  0  0  0  0  0  0  0
   -4.0740   20.5620  -32.8100 C   0  0  0  0  0  0  0  0  0  0  0  0
   -2.8830   19.8150  -32.6030 C   0  0  0  0  0  0  0  0  0  0  0  0
   -1.8930   20.2710  -31.7160 C   0  0  0  0  0  0  0  0  0  0  0  0
   -2.1200   21.4660  -31.0450 C   0  0  0  0  0  0  0  0  0  0  0  0
   -1.3200   22.1460  -30.1550 C   0  0  0  0  0  0  0  0  0  0  0  0
   -2.0390   23.2870  -29.8080 C   0  0  0  0  0  0  0  0  0  0  0  0
   -1.5740   24.2620  -28.7990 C   0  0  0  0  0  0  0  0  0  0  0  0
   -1.8120   25.6570  -28.9630 N   0  0  0  0  0  0  0  0  0  0  0  0
   -1.0000   23.8530  -27.7550 O   0  0  0  0  0  0  0  0  0  0  0  0
   -3.2340   23.3180  -30.4650 N   0  0  0  0  0  0  0  0  0  0  0  0
   -4.2230   24.3600  -30.4490 C   0  0  0  0  0  0  0  0  0  0  0  0
   -5.4020   24.1130  -30.0810 O   0  0  0  0  0  0  0  0  0  0  0  0
   -3.8820   25.6550  -30.8160 O   0  0  0  0  0  0  0  0  0  0  0  0
   -3.2680   22.1940  -31.2150 C   0  0  0  0  0  0  0  0  0  0  0  0
   -4.2630   21.7750  -32.1070 C   0  0  0  0  0  0  0  0  0  0  0  0
   -4.4366   18.0310  -33.7352 H   0  0  0  0  0  0  0  0  0  0  0  0
   -5.5184   18.4209  -35.1152 H   0  0  0  0  0  0  0  0  0  0  0  0
   -3.8182   19.0004  -35.1152 H   0  0  0  0  0  0  0  0  0  0  0  0
   -5.2676   20.8494  -34.5529 H   0  0  0  0  0  0  0  0  0  0  0  0
   -7.7189   17.2223  -31.4618 H   0  0  0  0  0  0  0  0  0  0  0  0
   -7.1794   18.7766  -30.7173 H   0  0  0  0  0  0  0  0  0  0  0  0
   -9.8055   18.0987  -31.3885 H   0  0  0  0  0  0  0  0  0  0  0  0
   -9.1707   19.7600  -31.0623 H   0  0  0  0  0  0  0  0  0  0  0  0
   -8.5010   19.3950  -33.4720 H   0  0  0  0  0  0  0  0  0  0  0  0
   -2.7342   18.8686  -33.1435 H   0  0  0  0  0  0  0  0  0  0  0  0
   -0.9667   19.6992  -31.5579 H   0  0  0  0  0  0  0  0  0  0  0  0
   -0.3237   21.8507  -29.7942 H   0  0  0  0  0  0  0  0  0  0  0  0
   -2.7840   26.0400  -28.9620 H   0  0  0  0  0  0  0  0  0  0  0  0
   -5.1718   22.3761  -32.2577 H   0  0  0  0  0  0  0  0  0  0  0  0
  1  2  1  0
  2  3  1  0
  3  4  2  0
  3  5  1  0
  5  6  1  0
  6  7  1  0
  7  8  1  0
  2  9  1  0
  9 10  2  0
 10 11  1  0
 11 12  2  0
 12 13  1  0
 13 14  2  0
 14 15  1  0
 15 16  1  0
 15 17  2  0
 14 18  1  0
 18 19  1  0
 19 20  2  0
 19 21  1  0
 18 22  1  0
 22 23  2  0
 23  9  1  0
 22 12  1  0
  1 24  1  0
  1 25  1  0
  1 26  1  0
  2 27  1  6
  6 28  1  0
  6 29  1  0
  7 30  1  0
  7 31  1  0
  8 32  1  0
 10 33  1  0
 11 34  1  0
 13 35  1  0
 16 36  1  0
 23 37  1  0
M  CHG  2  16  -1  21  -1
M  END
>  <UniqueID>  (76) 
75

>  <SMILES>  (76) 
C[C@@H](C(=O)OCCO)c1ccc2cc(C([NH-])=O)n(C(=O)[O-])c2c1

>  <Energy>  (76) 
71.91910124052768

>  <Genealogy>  (76) 
CC(C(=O)OCCO)c1ccc2cc(C([NH-])=O)n(C(=O)[O-])c2c1 (protonated)
C[C@@H](C(=O)OCCO)c1ccc2cc(C([NH-])=O)n(C(=O)[O-])c2c1 (chirality)
C[C@@H](C(=O)OCCO)c1ccc2cc(C([NH-])=O)n(C(=O)[O-])c2c1 (3D coordinates assigned)
C[C@@H](C(=O)OCCO)c1ccc2cc(C([NH-])=O)n(C(=O)[O-])c2c1 (optimized conformer: 71.91910124052768 kcal/mol)

>  <smiles>  (76) 
CC(C(=O)OCCO)c1ccc2cc(C(N)=O)n(C(=O)O)c2c1

>  <score_type>  (76) 
oracle

>  <origin>  (76) 
adg

>  <m_score__min__energy>  (76) 
-10.460000000000001

>  <m_primary>  (76) 
energy

$$$$
78:0
     RDKit          3D

 33 34  0  0  0  0  0  0  0  0999 V2000
   -6.0830   18.4080  -34.1270 C   0  0  0  0  0  0  0  0  0  0  0  0
   -6.8590   18.4770  -32.8160 C   0  0  0  0  0  0  0  0  0  0  0  0
   -7.0160   19.9030  -32.3650 C   0  0  0  0  0  0  0  0  0  0  0  0
   -8.2960   20.5120  -32.3690 C   0  0  0  0  0  0  0  0  0  0  0  0
   -8.4540   21.8500  -31.9690 C   0  0  0  0  0  0  0  0  0  0  0  0
   -7.3150   22.5540  -31.5880 C   0  0  0  0  0  0  0  0  0  0  0  0
   -7.1860   23.8480  -31.1380 C   0  0  0  0  0  0  0  0  0  0  0  0
   -5.8240   24.0230  -30.9000 C   0  0  0  0  0  0  0  0  0  0  0  0
   -5.2310   25.3090  -30.4810 C   0  0  0  0  0  0  0  0  0  0  0  0
   -3.8950   25.6520  -30.8390 N   0  0  0  0  0  0  0  0  0  0  0  0
   -5.9300   26.1380  -29.8390 O   0  0  0  0  0  0  0  0  0  0  0  0
   -5.1390   22.8790  -31.1850 N   0  0  0  0  0  0  0  0  0  0  0  0
   -3.7410   22.6220  -30.9800 C   0  0  0  0  0  0  0  0  0  0  0  0
   -3.0950   21.9570  -31.8360 O   0  0  0  0  0  0  0  0  0  0  0  0
   -3.1150   23.0960  -29.8190 O   0  0  0  0  0  0  0  0  0  0  0  0
   -1.7370   23.3120  -29.6760 C   0  0  0  0  0  0  0  0  0  0  0  0
   -1.2800   24.4600  -29.4220 O   0  0  0  0  0  0  0  0  0  0  0  0
   -0.8040   22.1490  -29.7580 C   0  0  0  0  0  0  0  0  0  0  0  0
    0.2590   22.3530  -28.8990 F   0  0  0  0  0  0  0  0  0  0  0  0
   -0.3280   22.0140  -31.0500 F   0  0  0  0  0  0  0  0  0  0  0  0
   -1.4640   20.9880  -29.3980 F   0  0  0  0  0  0  0  0  0  0  0  0
   -6.0660   21.9900  -31.6070 C   0  0  0  0  0  0  0  0  0  0  0  0
   -5.8820   20.6540  -31.9820 C   0  0  0  0  0  0  0  0  0  0  0  0
   -5.0084   18.3125  -33.9124 H   0  0  0  0  0  0  0  0  0  0  0  0
   -6.4200   17.5363  -34.7071 H   0  0  0  0  0  0  0  0  0  0  0  0
   -6.2609   19.3255  -34.7071 H   0  0  0  0  0  0  0  0  0  0  0  0
   -7.8547   18.0329  -32.9621 H   0  0  0  0  0  0  0  0  0  0  0  0
   -6.3025   17.9221  -32.0463 H   0  0  0  0  0  0  0  0  0  0  0  0
   -9.1742   19.9317  -32.6883 H   0  0  0  0  0  0  0  0  0  0  0  0
   -9.4458   22.3257  -31.9573 H   0  0  0  0  0  0  0  0  0  0  0  0
   -7.9879   24.5875  -30.9962 H   0  0  0  0  0  0  0  0  0  0  0  0
   -3.0800   25.2230  -30.3470 H   0  0  0  0  0  0  0  0  0  0  0  0
   -4.8800   20.2002  -31.9786 H   0  0  0  0  0  0  0  0  0  0  0  0
  1  2  1  0
  2  3  1  0
  3  4  2  0
  4  5  1  0
  5  6  2  0
  6  7  1  0
  7  8  2  0
  8  9  1  0
  9 10  1  0
  9 11  2  0
  8 12  1  0
 12 13  1  0
 13 14  2  0
 13 15  1  0
 15 16  1  0
 16 17  2  0
 16 18  1  0
 18 19  1  0
 18 20  1  0
 18 21  1  0
 12 22  1  0
 22 23  2  0
 23  3  1  0
 22  6  1  0
  1 24  1  0
  1 25  1  0
  1 26  1  0
  2 27  1  0
  2 28  1  0
  4 29  1  0
  5 30  1  0
  7 31  1  0
 10 32  1  0
 23 33  1  0
M  CHG  1  10  -1
M  END
>  <UniqueID>  (77) 
76

>  <SMILES>  (77) 
CCc1ccc2cc(C([NH-])=O)n(C(=O)OC(=O)C(F)(F)F)c2c1

>  <Energy>  (77) 
68.76720848659009

>  <Genealogy>  (77) 
CCc1ccc2cc(C([NH-])=O)n(C(=O)OC(=O)C(F)(F)F)c2c1 (protonated)
CCc1ccc2cc(C([NH-])=O)n(C(=O)OC(=O)C(F)(F)F)c2c1 (3D coordinates assigned)
CCc1ccc2cc(C([NH-])=O)n(C(=O)OC(=O)C(F)(F)F)c2c1 (optimized conformer: 68.76720848659009 kcal/mol)

>  <smiles>  (77) 
CCc1ccc2cc(C(N)=O)n(C(=O)OC(=O)C(F)(F)F)c2c1

>  <score_type>  (77) 
oracle

>  <origin>  (77) 
adg

>  <m_score__min__energy>  (77) 
-9.2799999999999994

>  <m_primary>  (77) 
energy

$$$$
79:0
     RDKit          3D

 41 42  0  0  0  0  0  0  0  0999 V2000
   -7.9720   18.0570  -32.6540 C   0  0  0  0  0  0  0  0  0  0  0  0
   -7.9030   19.4980  -32.2480 C   0  0  0  0  0  0  0  0  0  0  0  0
   -9.0490   20.3280  -32.3280 C   0  0  0  0  0  0  0  0  0  0  0  0
   -8.9800   21.6820  -31.9580 C   0  0  0  0  0  0  0  0  0  0  0  0
   -7.7610   22.1710  -31.4970 C   0  0  0  0  0  0  0  0  0  0  0  0
   -7.4000   23.4470  -31.1240 C   0  0  0  0  0  0  0  0  0  0  0  0
   -6.0520   23.3650  -30.7880 C   0  0  0  0  0  0  0  0  0  0  0  0
   -5.2540   24.5190  -30.3200 C   0  0  0  0  0  0  0  0  0  0  0  0
   -5.2140   24.8850  -28.9400 N   0  0  0  0  0  0  0  0  0  0  0  0
   -4.6330   25.2210  -31.1610 O   0  0  0  0  0  0  0  0  0  0  0  0
   -5.5940   22.0920  -30.9460 N   0  0  0  0  0  0  0  0  0  0  0  0
   -4.2380   21.6330  -30.8400 C   0  0  0  0  0  0  0  0  0  0  0  0
   -3.9700   20.6360  -30.1180 O   0  0  0  0  0  0  0  0  0  0  0  0
   -3.1560   22.3160  -31.5580 C   0  0  0  0  0  0  0  0  0  0  0  0
   -2.9800   22.0960  -32.7880 O   0  0  0  0  0  0  0  0  0  0  0  0
   -2.3370   23.2210  -30.8730 O   0  0  0  0  0  0  0  0  0  0  0  0
   -1.8620   22.9940  -29.5470 C   0  0  0  0  0  0  0  0  0  0  0  0
   -2.1110   24.2000  -28.6800 C   0  0  0  0  0  0  0  0  0  0  0  0
   -2.5330   25.2550  -29.2280 O   0  0  0  0  0  0  0  0  0  0  0  0
   -1.9100   24.1670  -27.2500 N   0  0  0  0  0  0  0  0  0  0  0  0
   -1.2720   23.0130  -26.6050 C   0  0  0  0  0  0  0  0  0  0  0  0
   -2.3560   25.3060  -26.4430 C   0  0  0  0  0  0  0  0  0  0  0  0
   -6.6500   21.3740  -31.3890 C   0  0  0  0  0  0  0  0  0  0  0  0
   -6.6830   20.0290  -31.7780 C   0  0  0  0  0  0  0  0  0  0  0  0
   -8.0023   17.4238  -31.7550 H   0  0  0  0  0  0  0  0  0  0  0  0
   -8.8793   17.8877  -33.2525 H   0  0  0  0  0  0  0  0  0  0  0  0
   -7.0850   17.8018  -33.2525 H   0  0  0  0  0  0  0  0  0  0  0  0
  -10.0017   19.9083  -32.6832 H   0  0  0  0  0  0  0  0  0  0  0  0
   -9.8621   22.3352  -32.0305 H   0  0  0  0  0  0  0  0  0  0  0  0
   -8.0409   24.3406  -31.0974 H   0  0  0  0  0  0  0  0  0  0  0  0
   -5.8640   24.4570  -28.2460 H   0  0  0  0  0  0  0  0  0  0  0  0
   -4.6030   25.6710  -28.6270 H   0  0  0  0  0  0  0  0  0  0  0  0
   -2.3862   22.1268  -29.1189 H   0  0  0  0  0  0  0  0  0  0  0  0
   -0.7793   22.8035  -29.5863 H   0  0  0  0  0  0  0  0  0  0  0  0
   -1.3331   23.1236  -25.5123 H   0  0  0  0  0  0  0  0  0  0  0  0
   -1.7884   22.0908  -26.9097 H   0  0  0  0  0  0  0  0  0  0  0  0
   -0.2164   22.9599  -26.9097 H   0  0  0  0  0  0  0  0  0  0  0  0
   -2.2594   25.0592  -25.3754 H   0  0  0  0  0  0  0  0  0  0  0  0
   -1.7354   26.1844  -26.6739 H   0  0  0  0  0  0  0  0  0  0  0  0
   -3.4080   25.5294  -26.6739 H   0  0  0  0  0  0  0  0  0  0  0  0
   -5.7808   19.4024  -31.7187 H   0  0  0  0  0  0  0  0  0  0  0  0
  1  2  1  0
  2  3  2  0
  3  4  1  0
  4  5  2  0
  5  6  1  0
  6  7  2  0
  7  8  1  0
  8  9  1  0
  8 10  2  0
  7 11  1  0
 11 12  1  0
 12 13  2  0
 12 14  1  0
 14 15  2  0
 14 16  1  0
 16 17  1  0
 17 18  1  0
 18 19  2  0
 18 20  1  0
 20 21  1  0
 20 22  1  0
 11 23  1  0
 23 24  2  0
 24  2  1  0
 23  5  1  0
  1 25  1  0
  1 26  1  0
  1 27  1  0
  3 28  1  0
  4 29  1  0
  6 30  1  0
  9 31  1  0
  9 32  1  0
 17 33  1  0
 17 34  1  0
 21 35  1  0
 21 36  1  0
 21 37  1  0
 22 38  1  0
 22 39  1  0
 22 40  1  0
 24 41  1  0
M  END
>  <UniqueID>  (78) 
77

>  <SMILES>  (78) 
Cc1ccc2cc(C(N)=O)n(C(=O)C(=O)OCC(=O)N(C)C)c2c1

>  <Energy>  (78) 
74.32863167140418

>  <Genealogy>  (78) 
Cc1ccc2cc(C(N)=O)n(C(=O)C(=O)OCC(=O)N(C)C)c2c1 (3D coordinates assigned)
Cc1ccc2cc(C(N)=O)n(C(=O)C(=O)OCC(=O)N(C)C)c2c1 (optimized conformer: 74.32863167140418 kcal/mol)

>  <smiles>  (78) 
Cc1ccc2cc(C(N)=O)n(C(=O)C(=O)OCC(=O)N(C)C)c2c1

>  <score_type>  (78) 
oracle

>  <origin>  (78) 
adg

>  <m_score__min__energy>  (78) 
-8.5700000000000003

>  <m_primary>  (78) 
energy

$$$$
80:0
     RDKit          3D

 43 45  0  0  0  0  0  0  0  0999 V2000
   -6.1050   17.8530  -34.2860 C   0  0  0  0  0  0  0  0  0  0  0  0
   -6.3670   18.1710  -32.8740 N   0  0  0  0  0  0  0  0  0  0  0  0
   -6.3180   17.0820  -31.8880 C   0  0  0  0  0  0  0  0  0  0  0  0
   -6.6230   19.5420  -32.4580 C   0  0  0  0  0  0  0  0  0  0  0  0
   -7.9520   20.0560  -32.3990 C   0  0  0  0  0  0  0  0  0  0  0  0
   -8.2060   21.3740  -31.9770 C   0  0  0  0  0  0  0  0  0  0  0  0
   -7.1250   22.1570  -31.5940 C   0  0  0  0  0  0  0  0  0  0  0  0
   -7.0870   23.4590  -31.1520 C   0  0  0  0  0  0  0  0  0  0  0  0
   -5.7380   23.7340  -30.9220 C   0  0  0  0  0  0  0  0  0  0  0  0
   -5.2440   25.0360  -30.4320 C   0  0  0  0  0  0  0  0  0  0  0  0
   -3.8630   25.3750  -30.4970 N   0  0  0  0  0  0  0  0  0  0  0  0
   -6.0590   25.8740  -29.9560 O   0  0  0  0  0  0  0  0  0  0  0  0
   -4.9770   22.6380  -31.2060 N   0  0  0  0  0  0  0  0  0  0  0  0
   -3.5490   22.5050  -31.0900 C   0  0  0  0  0  0  0  0  0  0  0  0
   -2.8680   22.3370  -32.1380 O   0  0  0  0  0  0  0  0  0  0  0  0
   -2.8320   22.5670  -29.7450 C   0  0  2  0  0  0  0  0  0  0  0  0
   -2.0710   21.2510  -29.4870 C   0  0  0  0  0  0  0  0  0  0  0  0
   -3.7710   22.8980  -28.5430 C   0  0  0  0  0  0  0  0  0  0  0  0
   -3.0020   23.8750  -27.6410 C   0  0  0  0  0  0  0  0  0  0  0  0
   -1.9160   24.3450  -28.5230 C   0  0  0  0  0  0  0  0  0  0  0  0
   -1.0810   25.2290  -28.2000 O   0  0  0  0  0  0  0  0  0  0  0  0
   -1.8610   23.6550  -29.7520 N   0  0  0  0  0  0  0  0  0  0  0  0
   -5.8400   21.6880  -31.6300 C   0  0  0  0  0  0  0  0  0  0  0  0
   -5.5510   20.4010  -32.0920 C   0  0  0  0  0  0  0  0  0  0  0  0
   -5.4066   17.0054  -34.3475 H   0  0  0  0  0  0  0  0  0  0  0  0
   -7.0494   17.5868  -34.7832 H   0  0  0  0  0  0  0  0  0  0  0  0
   -5.6630   18.7290  -34.7832 H   0  0  0  0  0  0  0  0  0  0  0  0
   -6.3370   17.5053  -30.8729 H   0  0  0  0  0  0  0  0  0  0  0  0
   -7.1874   16.4225  -32.0266 H   0  0  0  0  0  0  0  0  0  0  0  0
   -5.3929   16.5032  -32.0266 H   0  0  0  0  0  0  0  0  0  0  0  0
   -8.7940   19.4102  -32.6887 H   0  0  0  0  0  0  0  0  0  0  0  0
   -9.2309   21.7725  -31.9512 H   0  0  0  0  0  0  0  0  0  0  0  0
   -7.9394   24.1396  -31.0098 H   0  0  0  0  0  0  0  0  0  0  0  0
   -3.5070   26.0390  -31.2200 H   0  0  0  0  0  0  0  0  0  0  0  0
   -1.9769   21.0883  -28.4032 H   0  0  0  0  0  0  0  0  0  0  0  0
   -2.6241   20.4133  -29.9369 H   0  0  0  0  0  0  0  0  0  0  0  0
   -1.0691   21.3126  -29.9369 H   0  0  0  0  0  0  0  0  0  0  0  0
   -4.6991   23.3652  -28.9040 H   0  0  0  0  0  0  0  0  0  0  0  0
   -4.0487   21.9862  -27.9939 H   0  0  0  0  0  0  0  0  0  0  0  0
   -3.6437   24.7098  -27.3227 H   0  0  0  0  0  0  0  0  0  0  0  0
   -2.6397   23.4159  -26.7094 H   0  0  0  0  0  0  0  0  0  0  0  0
   -1.0990   23.7760  -30.4600 H   0  0  0  0  0  0  0  0  0  0  0  0
   -4.5090   20.0576  -32.1713 H   0  0  0  0  0  0  0  0  0  0  0  0
  1  2  1  0
  2  3  1  0
  2  4  1  0
  4  5  2  0
  5  6  1  0
  6  7  2  0
  7  8  1  0
  8  9  2  0
  9 10  1  0
 10 11  1  0
 10 12  2  0
  9 13  1  0
 13 14  1  0
 14 15  2  0
 14 16  1  0
 16 17  1  1
 16 18  1  0
 18 19  1  0
 19 20  1  0
 20 21  2  0
 20 22  1  0
 13 23  1  0
 23 24  2  0
 24  4  1  0
 23  7  1  0
 22 16  1  0
  1 25  1  0
  1 26  1  0
  1 27  1  0
  3 28  1  0
  3 29  1  0
  3 30  1  0
  5 31  1  0
  6 32  1  0
  8 33  1  0
 11 34  1  0
 17 35  1  0
 17 36  1  0
 17 37  1  0
 18 38  1  0
 18 39  1  0
 19 40  1  0
 19 41  1  0
 22 42  1  0
 24 43  1  0
M  CHG  1  11  -1
M  END
>  <UniqueID>  (79) 
78

>  <SMILES>  (79) 
CN(C)c1ccc2cc(C([NH-])=O)n(C(=O)[C@]3(C)CCC(=O)N3)c2c1

>  <Energy>  (79) 
93.35820931242976

>  <Genealogy>  (79) 
CN(C)c1ccc2cc(C([NH-])=O)n(C(=O)C3(C)CCC(=O)N3)c2c1 (protonated)
CN(C)c1ccc2cc(C([NH-])=O)n(C(=O)[C@]3(C)CCC(=O)N3)c2c1 (chirality)
CN(C)c1ccc2cc(C([NH-])=O)n(C(=O)[C@]3(C)CCC(=O)N3)c2c1 (3D coordinates assigned)
CN(C)c1ccc2cc(C([NH-])=O)n(C(=O)[C@]3(C)CCC(=O)N3)c2c1 (nonaromatic ring conformer: 93.35820931242976 kcal/mol)

>  <smiles>  (79) 
CN(C)c1ccc2cc(C(N)=O)n(C(=O)C3(C)CCC(=O)N3)c2c1

>  <score_type>  (79) 
oracle

>  <origin>  (79) 
adg

>  <m_score__min__energy>  (79) 
-11.5

>  <m_primary>  (79) 
energy

$$$$
81:0
     RDKit          3D

 36 37  0  0  0  0  0  0  0  0999 V2000
   -1.1270   22.1020  -30.9750 C   0  0  0  0  0  0  0  0  0  0  0  0
   -2.0320   23.0350  -30.2800 N   0  0  2  0  0  0  0  0  0  0  0  0
   -1.5800   23.3060  -28.8960 C   0  0  0  0  0  0  0  0  0  0  0  0
   -1.0170   24.6910  -28.7560 C   0  0  0  0  0  0  0  0  0  0  0  0
   -1.5730   25.6630  -29.3290 O   0  0  0  0  0  0  0  0  0  0  0  0
    0.1060   24.9080  -27.9670 O   0  0  0  0  0  0  0  0  0  0  0  0
   -3.3680   22.4760  -30.2650 C   0  0  0  0  0  0  0  0  0  0  0  0
   -3.8070   21.9230  -29.2180 O   0  0  0  0  0  0  0  0  0  0  0  0
   -4.2220   22.4940  -31.4720 C   0  0  0  0  0  0  0  0  0  0  0  0
   -3.7510   22.1330  -32.5850 O   0  0  0  0  0  0  0  0  0  0  0  0
   -5.5930   22.9100  -31.3880 N   0  0  0  0  0  0  0  0  0  0  0  0
   -6.0740   24.1100  -30.9600 C   0  0  0  0  0  0  0  0  0  0  0  0
   -5.2550   25.2830  -30.5880 C   0  0  0  0  0  0  0  0  0  0  0  0
   -3.8520   25.2800  -30.8470 N   0  0  0  0  0  0  0  0  0  0  0  0
   -5.7750   26.2820  -30.0260 O   0  0  0  0  0  0  0  0  0  0  0  0
   -7.4670   24.1080  -30.9690 C   0  0  0  0  0  0  0  0  0  0  0  0
   -7.8280   22.8560  -31.4160 C   0  0  0  0  0  0  0  0  0  0  0  0
   -9.0890   22.2980  -31.6020 C   0  0  0  0  0  0  0  0  0  0  0  0
   -9.1610   20.9660  -32.0460 C   0  0  0  0  0  0  0  0  0  0  0  0
   -7.9800   20.2230  -32.2850 C   0  0  0  0  0  0  0  0  0  0  0  0
   -8.0660   18.8650  -32.7270 N   0  0  0  0  0  0  0  0  0  0  0  0
   -6.7180   20.8190  -32.0830 C   0  0  0  0  0  0  0  0  0  0  0  0
   -6.6770   22.1520  -31.6580 C   0  0  0  0  0  0  0  0  0  0  0  0
   -0.5614   21.5189  -30.2333 H   0  0  0  0  0  0  0  0  0  0  0  0
   -1.7168   21.4201  -31.6052 H   0  0  0  0  0  0  0  0  0  0  0  0
   -0.4274   22.6707  -31.6052 H   0  0  0  0  0  0  0  0  0  0  0  0
   -2.0370   23.9400  -30.8080 H   0  0  0  0  0  0  0  0  0  0  0  0
   -2.4364   23.1988  -28.2140 H   0  0  0  0  0  0  0  0  0  0  0  0
   -0.7857   22.5866  -28.6480 H   0  0  0  0  0  0  0  0  0  0  0  0
   -3.1620   25.2740  -30.0630 H   0  0  0  0  0  0  0  0  0  0  0  0
   -8.1367   24.9315  -30.6804 H   0  0  0  0  0  0  0  0  0  0  0  0
  -10.0013   22.8810  -31.4077 H   0  0  0  0  0  0  0  0  0  0  0  0
  -10.1428   20.4975  -32.2090 H   0  0  0  0  0  0  0  0  0  0  0  0
   -8.6520   18.6080  -33.5520 H   0  0  0  0  0  0  0  0  0  0  0  0
   -7.5450   18.1080  -32.2310 H   0  0  0  0  0  0  0  0  0  0  0  0
   -5.7912   20.2519  -32.2547 H   0  0  0  0  0  0  0  0  0  0  0  0
  1  2  1  0
  2  3  1  0
  3  4  1  0
  4  5  2  0
  4  6  1  0
  2  7  1  0
  7  8  2  0
  7  9  1  0
  9 10  2  0
  9 11  1  0
 11 12  1  0
 12 13  1  0
 13 14  1  0
 13 15  2  0
 12 16  2  0
 16 17  1  0
 17 18  2  0
 18 19  1  0
 19 20  2  0
 20 21  1  0
 20 22  1  0
 22 23  2  0
 23 11  1  0
 23 17  1  0
  1 24  1  0
  1 25  1  0
  1 26  1  0
  2 27  1  6
  3 28  1  0
  3 29  1  0
 14 30  1  0
 16 31  1  0
 18 32  1  0
 19 33  1  0
 21 34  1  0
 21 35  1  0
 22 36  1  0
M  CHG  3   2   1   6  -1  14  -1
M  END
>  <UniqueID>  (80) 
79

>  <SMILES>  (80) 
C[N@H+](CC(=O)[O-])C(=O)C(=O)n1c(C([NH-])=O)cc2ccc(N)cc21

>  <Energy>  (80) 
76.5201387925416

>  <Genealogy>  (80) 
C[NH+](CC(=O)[O-])C(=O)C(=O)n1c(C([NH-])=O)cc2ccc(N)cc21 (protonated)
C[N@H+](CC(=O)[O-])C(=O)C(=O)n1c(C([NH-])=O)cc2ccc(N)cc21 (chirality)
C[N@H+](CC(=O)[O-])C(=O)C(=O)n1c(C([NH-])=O)cc2ccc(N)cc21 (3D coordinates assigned)
C[N@H+](CC(=O)[O-])C(=O)C(=O)n1c(C([NH-])=O)cc2ccc(N)cc21 (optimized conformer: 76.5201387925416 kcal/mol)

>  <smiles>  (80) 
CN(CC(=O)O)C(=O)C(=O)n1c(C(N)=O)cc2ccc(N)cc21

>  <score_type>  (80) 
oracle

>  <origin>  (80) 
adg

>  <m_score__min__energy>  (80) 
-10.98

>  <m_primary>  (80) 
energy

$$$$
82:0
     RDKit          3D

 51 52  0  0  0  0  0  0  0  0999 V2000
   -1.1070   20.5830  -28.5500 C   0  0  0  0  0  0  0  0  0  0  0  0
   -0.2590   21.4760  -27.6390 C   0  0  0  0  0  0  0  0  0  0  0  0
   -1.0550   21.8850  -26.4010 C   0  0  0  0  0  0  0  0  0  0  0  0
    0.1430   22.6540  -28.3410 O   0  0  0  0  0  0  0  0  0  0  0  0
    0.9820   23.6300  -27.7950 C   0  0  0  0  0  0  0  0  0  0  0  0
    2.0830   23.3090  -27.2660 O   0  0  0  0  0  0  0  0  0  0  0  0
    0.5830   24.9670  -27.8410 O   0  0  0  0  0  0  0  0  0  0  0  0
   -0.1170   25.5980  -26.7730 C   0  0  0  0  0  0  0  0  0  0  0  0
   -1.5020   25.6830  -27.0930 O   0  0  0  0  0  0  0  0  0  0  0  0
   -2.0650   25.0590  -28.2120 C   0  0  0  0  0  0  0  0  0  0  0  0
   -1.5400   25.2210  -29.3470 O   0  0  0  0  0  0  0  0  0  0  0  0
   -3.2350   24.2260  -28.0560 N   0  0  0  0  0  0  0  0  0  0  0  0
   -4.1880   24.5350  -26.9850 C   0  0  0  0  0  0  0  0  0  0  0  0
   -3.4280   23.0410  -28.8600 C   0  0  0  0  0  0  0  0  0  0  0  0
   -4.0300   22.0430  -28.3740 O   0  0  0  0  0  0  0  0  0  0  0  0
   -2.9490   23.0000  -30.1770 O   0  0  0  0  0  0  0  0  0  0  0  0
   -3.7230   22.7320  -31.3130 C   0  0  0  0  0  0  0  0  0  0  0  0
   -3.1860   22.3070  -32.3720 O   0  0  0  0  0  0  0  0  0  0  0  0
   -5.1500   22.9020  -31.2530 N   0  0  0  0  0  0  0  0  0  0  0  0
   -5.8470   24.0330  -30.9430 C   0  0  0  0  0  0  0  0  0  0  0  0
   -5.2710   25.3060  -30.4620 C   0  0  0  0  0  0  0  0  0  0  0  0
   -3.9480   25.6740  -30.8440 N   0  0  0  0  0  0  0  0  0  0  0  0
   -5.9490   26.0920  -29.7510 O   0  0  0  0  0  0  0  0  0  0  0  0
   -7.2170   23.8070  -31.0480 C   0  0  0  0  0  0  0  0  0  0  0  0
   -7.3420   22.4890  -31.4210 C   0  0  0  0  0  0  0  0  0  0  0  0
   -8.4870   21.7310  -31.6500 C   0  0  0  0  0  0  0  0  0  0  0  0
   -8.3220   20.3880  -32.0260 C   0  0  0  0  0  0  0  0  0  0  0  0
   -7.0270   19.8340  -32.1920 C   0  0  0  0  0  0  0  0  0  0  0  0
   -6.8760   18.3750  -32.5390 C   0  0  0  0  0  0  0  0  0  0  0  0
   -6.4920   18.2130  -33.8600 F   0  0  0  0  0  0  0  0  0  0  0  0
   -5.9140   17.8130  -31.7200 F   0  0  0  0  0  0  0  0  0  0  0  0
   -8.0750   17.7100  -32.3520 F   0  0  0  0  0  0  0  0  0  0  0  0
   -5.8890   20.6360  -31.9390 C   0  0  0  0  0  0  0  0  0  0  0  0
   -6.0820   21.9640  -31.5410 C   0  0  0  0  0  0  0  0  0  0  0  0
   -1.7347   19.9220  -27.9343 H   0  0  0  0  0  0  0  0  0  0  0  0
   -1.7489   21.2113  -29.1849 H   0  0  0  0  0  0  0  0  0  0  0  0
   -0.4463   19.9744  -29.1849 H   0  0  0  0  0  0  0  0  0  0  0  0
    0.6296   20.9058  -27.3304 H   0  0  0  0  0  0  0  0  0  0  0  0
   -0.4985   21.5991  -25.4963 H   0  0  0  0  0  0  0  0  0  0  0  0
   -1.2094   22.9741  -26.4076 H   0  0  0  0  0  0  0  0  0  0  0  0
   -2.0303   21.3764  -26.4076 H   0  0  0  0  0  0  0  0  0  0  0  0
    0.0105   25.0085  -25.8531 H   0  0  0  0  0  0  0  0  0  0  0  0
    0.2852   26.6104  -26.6207 H   0  0  0  0  0  0  0  0  0  0  0  0
   -3.7058   24.3787  -26.0088 H   0  0  0  0  0  0  0  0  0  0  0  0
   -4.5095   25.5834  -27.0715 H   0  0  0  0  0  0  0  0  0  0  0  0
   -5.0635   23.8747  -27.0715 H   0  0  0  0  0  0  0  0  0  0  0  0
   -3.1180   25.1640  -30.4670 H   0  0  0  0  0  0  0  0  0  0  0  0
   -8.0274   24.5293  -30.8703 H   0  0  0  0  0  0  0  0  0  0  0  0
   -9.4895   22.1702  -31.5399 H   0  0  0  0  0  0  0  0  0  0  0  0
   -9.2080   19.7580  -32.1938 H   0  0  0  0  0  0  0  0  0  0  0  0
   -4.8751   20.2249  -32.0526 H   0  0  0  0  0  0  0  0  0  0  0  0
  1  2  1  0
  2  3  1  0
  2  4  1  0
  4  5  1  0
  5  6  2  0
  5  7  1  0
  7  8  1  0
  8  9  1  0
  9 10  1  0
 10 11  2  0
 10 12  1  0
 12 13  1  0
 12 14  1  0
 14 15  2  0
 14 16  1  0
 16 17  1  0
 17 18  2  0
 17 19  1  0
 19 20  1  0
 20 21  1  0
 21 22  1  0
 21 23  2  0
 20 24  2  0
 24 25  1  0
 25 26  2  0
 26 27  1  0
 27 28  2  0
 28 29  1  0
 29 30  1  0
 29 31  1  0
 29 32  1  0
 28 33  1  0
 33 34  2  0
 34 19  1  0
 34 25  1  0
  1 35  1  0
  1 36  1  0
  1 37  1  0
  2 38  1  0
  3 39  1  0
  3 40  1  0
  3 41  1  0
  8 42  1  0
  8 43  1  0
 13 44  1  0
 13 45  1  0
 13 46  1  0
 22 47  1  0
 24 48  1  0
 26 49  1  0
 27 50  1  0
 33 51  1  0
M  CHG  1  22  -1
M  END
>  <UniqueID>  (81) 
80

>  <SMILES>  (81) 
CC(C)OC(=O)OCOC(=O)N(C)C(=O)OC(=O)n1c(C([NH-])=O)cc2ccc(C(F)(F)F)cc21

>  <Energy>  (81) 
80.89908543430838

>  <Genealogy>  (81) 
CC(C)OC(=O)OCOC(=O)N(C)C(=O)OC(=O)n1c(C([NH-])=O)cc2ccc(C(F)(F)F)cc21 (protonated)
CC(C)OC(=O)OCOC(=O)N(C)C(=O)OC(=O)n1c(C([NH-])=O)cc2ccc(C(F)(F)F)cc21 (3D coordinates assigned)
CC(C)OC(=O)OCOC(=O)N(C)C(=O)OC(=O)n1c(C([NH-])=O)cc2ccc(C(F)(F)F)cc21 (optimized conformer: 80.89908543430838 kcal/mol)

>  <smiles>  (81) 
CC(C)OC(=O)OCOC(=O)N(C)C(=O)OC(=O)n1c(C(N)=O)cc2ccc(C(F)(F)F)cc21

>  <score_type>  (81) 
oracle

>  <origin>  (81) 
adg

>  <m_score__min__energy>  (81) 
-10.84

>  <m_primary>  (81) 
energy

$$$$
83:0
     RDKit          3D

 40 42  0  0  0  0  0  0  0  0999 V2000
   -1.6100   21.0260  -34.2020 N   0  0  0  0  0  0  0  0  0  0  0  0
   -1.8980   19.7910  -33.5430 C   0  0  0  0  0  0  0  0  0  0  0  0
   -0.9480   19.0900  -33.1050 O   0  0  0  0  0  0  0  0  0  0  0  0
   -3.2890   19.3520  -33.3130 C   0  0  0  0  0  0  0  0  0  0  0  0
   -3.7040   18.0280  -33.4250 C   0  0  0  0  0  0  0  0  0  0  0  0
   -5.0380   18.0360  -33.0860 C   0  0  0  0  0  0  0  0  0  0  0  0
   -5.9540   16.9910  -33.0390 C   0  0  0  0  0  0  0  0  0  0  0  0
   -7.2830   17.2940  -32.6990 C   0  0  0  0  0  0  0  0  0  0  0  0
   -7.6790   18.6330  -32.4410 C   0  0  0  0  0  0  0  0  0  0  0  0
   -9.1020   18.9460  -32.0570 C   0  0  0  0  0  0  0  0  0  0  0  0
   -9.7030   17.8030  -31.5650 F   0  0  0  0  0  0  0  0  0  0  0  0
   -9.8210   19.3950  -33.1520 F   0  0  0  0  0  0  0  0  0  0  0  0
   -9.1350   19.9320  -31.0860 F   0  0  0  0  0  0  0  0  0  0  0  0
   -6.7110   19.6640  -32.4730 C   0  0  0  0  0  0  0  0  0  0  0  0
   -5.3900   19.3290  -32.7940 C   0  0  0  0  0  0  0  0  0  0  0  0
   -4.3250   20.1490  -32.9300 N   0  0  0  0  0  0  0  0  0  0  0  0
   -4.3310   21.5800  -32.8150 C   0  0  0  0  0  0  0  0  0  0  0  0
   -3.8640   22.2880  -33.7490 O   0  0  0  0  0  0  0  0  0  0  0  0
   -4.8490   22.1810  -31.6640 O   0  0  0  0  0  0  0  0  0  0  0  0
   -6.0010   23.0190  -31.6870 C   0  0  0  0  0  0  0  0  0  0  0  0
   -5.7500   24.2780  -30.8620 C   0  0  0  0  0  0  0  0  0  0  0  0
   -4.5980   24.0930  -29.9250 C   0  0  0  0  0  0  0  0  0  0  0  0
   -3.4880   24.8610  -29.9440 N   0  0  0  0  0  0  0  0  0  0  0  0
   -2.6050   24.5010  -28.9730 C   0  0  0  0  0  0  0  0  0  0  0  0
   -1.3260   25.2030  -28.8000 C   0  0  0  0  0  0  0  0  0  0  0  0
   -1.2540   26.4500  -28.9620 O   0  0  0  0  0  0  0  0  0  0  0  0
   -0.1840   24.4910  -28.4580 O   0  0  0  0  0  0  0  0  0  0  0  0
   -3.0120   23.4360  -28.1710 C   0  0  0  0  0  0  0  0  0  0  0  0
   -4.5320   22.9470  -28.6970 S   0  0  0  0  0  0  0  0  0  0  0  0
   -2.3660   21.7120  -34.4170 H   0  0  0  0  0  0  0  0  0  0  0  0
   -0.6200   21.2980  -34.3940 H   0  0  0  0  0  0  0  0  0  0  0  0
   -3.0958   17.1606  -33.7212 H   0  0  0  0  0  0  0  0  0  0  0  0
   -5.6473   15.9583  -33.2613 H   0  0  0  0  0  0  0  0  0  0  0  0
   -8.0252   16.4849  -32.6319 H   0  0  0  0  0  0  0  0  0  0  0  0
   -6.9896   20.7047  -32.2509 H   0  0  0  0  0  0  0  0  0  0  0  0
   -6.2235   23.3032  -32.7261 H   0  0  0  0  0  0  0  0  0  0  0  0
   -6.8532   22.4714  -31.2582 H   0  0  0  0  0  0  0  0  0  0  0  0
   -5.5282   25.1137  -31.5420 H   0  0  0  0  0  0  0  0  0  0  0  0
   -6.6510   24.4889  -30.2673 H   0  0  0  0  0  0  0  0  0  0  0  0
   -2.4403   22.9942  -27.3415 H   0  0  0  0  0  0  0  0  0  0  0  0
  1  2  1  0
  2  3  2  0
  2  4  1  0
  4  5  2  0
  5  6  1  0
  6  7  2  0
  7  8  1  0
  8  9  2  0
  9 10  1  0
 10 11  1  0
 10 12  1  0
 10 13  1  0
  9 14  1  0
 14 15  2  0
 15 16  1  0
 16 17  1  0
 17 18  2  0
 17 19  1  0
 19 20  1  0
 20 21  1  0
 21 22  1  0
 22 23  2  0
 23 24  1  0
 24 25  1  0
 25 26  2  0
 25 27  1  0
 24 28  2  0
 28 29  1  0
 16  4  1  0
 29 22  1  0
 15  6  1  0
  1 30  1  0
  1 31  1  0
  5 32  1  0
  7 33  1  0
  8 34  1  0
 14 35  1  0
 20 36  1  0
 20 37  1  0
 21 38  1  0
 21 39  1  0
 28 40  1  0
M  CHG  1  27  -1
M  END
>  <UniqueID>  (82) 
81

>  <SMILES>  (82) 
NC(=O)c1cc2ccc(C(F)(F)F)cc2n1C(=O)OCCc1nc(C(=O)[O-])cs1

>  <Energy>  (82) 
103.06605853889914

>  <Genealogy>  (82) 
NC(=O)c1cc2ccc(C(F)(F)F)cc2n1C(=O)OCCc1nc(C(=O)[O-])cs1 (protonated)
NC(=O)c1cc2ccc(C(F)(F)F)cc2n1C(=O)OCCc1nc(C(=O)[O-])cs1 (3D coordinates assigned)
NC(=O)c1cc2ccc(C(F)(F)F)cc2n1C(=O)OCCc1nc(C(=O)[O-])cs1 (optimized conformer: 103.06605853889914 kcal/mol)

>  <smiles>  (82) 
NC(=O)c1cc2ccc(C(F)(F)F)cc2n1C(=O)OCCc1nc(C(=O)O)cs1

>  <score_type>  (82) 
oracle

>  <origin>  (82) 
adg

>  <m_score__min__energy>  (82) 
-10.16

>  <m_primary>  (82) 
energy

$$$$
84:0
     RDKit          3D

 49 51  0  0  0  0  0  0  0  0999 V2000
   -5.6200   16.7130  -33.5300 C   0  0  0  0  0  0  0  0  0  0  0  0
   -6.2820   17.8980  -32.8940 C   0  0  0  0  0  0  0  0  0  0  0  0
   -7.6330   17.8180  -32.4710 C   0  0  0  0  0  0  0  0  0  0  0  0
   -8.2720   18.9320  -31.9010 C   0  0  0  0  0  0  0  0  0  0  0  0
   -7.5420   20.1100  -31.7770 C   0  0  0  0  0  0  0  0  0  0  0  0
   -7.9110   21.3390  -31.2740 C   0  0  0  0  0  0  0  0  0  0  0  0
   -6.7850   22.1530  -31.4180 C   0  0  0  0  0  0  0  0  0  0  0  0
   -6.7340   23.5950  -31.0770 C   0  0  0  0  0  0  0  0  0  0  0  0
   -6.1160   24.5390  -31.9540 N   0  0  0  0  0  0  0  0  0  0  0  0
   -7.2400   24.0060  -30.0000 O   0  0  0  0  0  0  0  0  0  0  0  0
   -5.7620   21.4430  -31.9720 N   0  0  0  0  0  0  0  0  0  0  0  0
   -4.4560   21.9140  -32.3370 C   0  0  0  0  0  0  0  0  0  0  0  0
   -4.3530   22.6660  -33.3430 O   0  0  0  0  0  0  0  0  0  0  0  0
   -3.2790   21.5280  -31.5810 N   0  0  0  0  0  0  0  0  0  0  0  0
   -2.7380   22.4340  -30.5490 C   0  0  0  0  0  0  0  0  0  0  0  0
   -3.8150   23.3660  -29.9780 C   0  0  0  0  0  0  0  0  0  0  0  0
   -3.4290   24.8080  -30.0840 C   0  0  0  0  0  0  0  0  0  0  0  0
   -4.0680   25.5830  -30.8430 O   0  0  0  0  0  0  0  0  0  0  0  0
   -2.3710   25.3000  -29.3300 O   0  0  0  0  0  0  0  0  0  0  0  0
   -2.5610   20.2610  -31.8600 C   0  0  0  0  0  0  0  0  0  0  0  0
   -2.4270   19.9900  -33.3730 C   0  0  0  0  0  0  0  0  0  0  0  0
   -2.0590   18.5230  -33.6600 C   0  0  0  0  0  0  0  0  0  0  0  0
   -0.9770   17.7410  -32.3930 S   0  0  0  0  0  0  0  0  0  0  0  0
   -0.1800   19.2750  -31.8040 C   0  0  0  0  0  0  0  0  0  0  0  0
   -1.1920   20.2220  -31.1410 C   0  0  0  0  0  0  0  0  0  0  0  0
   -6.2440   20.2060  -32.2000 C   0  0  0  0  0  0  0  0  0  0  0  0
   -5.5800   19.1160  -32.7710 C   0  0  0  0  0  0  0  0  0  0  0  0
   -5.2435   16.0390  -32.7465 H   0  0  0  0  0  0  0  0  0  0  0  0
   -6.3495   16.1772  -34.1551 H   0  0  0  0  0  0  0  0  0  0  0  0
   -4.7813   17.0532  -34.1551 H   0  0  0  0  0  0  0  0  0  0  0  0
   -8.1862   16.8747  -32.5902 H   0  0  0  0  0  0  0  0  0  0  0  0
   -9.3173   18.8746  -31.5632 H   0  0  0  0  0  0  0  0  0  0  0  0
   -8.8860   21.6195  -30.8490 H   0  0  0  0  0  0  0  0  0  0  0  0
   -6.0660   25.5460  -31.6830 H   0  0  0  0  0  0  0  0  0  0  0  0
   -5.7440   24.2610  -32.8870 H   0  0  0  0  0  0  0  0  0  0  0  0
   -2.3209   21.8299  -29.7298 H   0  0  0  0  0  0  0  0  0  0  0  0
   -1.9635   23.0584  -31.0183 H   0  0  0  0  0  0  0  0  0  0  0  0
   -4.7510   23.2081  -30.5338 H   0  0  0  0  0  0  0  0  0  0  0  0
   -3.9375   23.1268  -28.9113 H   0  0  0  0  0  0  0  0  0  0  0  0
   -3.1714   19.4429  -31.4499 H   0  0  0  0  0  0  0  0  0  0  0  0
   -3.3853   20.2191  -33.8621 H   0  0  0  0  0  0  0  0  0  0  0  0
   -1.6211   20.6279  -33.7648 H   0  0  0  0  0  0  0  0  0  0  0  0
   -2.9907   17.9415  -33.7213 H   0  0  0  0  0  0  0  0  0  0  0  0
   -1.4874   18.5237  -34.5998 H   0  0  0  0  0  0  0  0  0  0  0  0
    0.5975   19.0141  -31.0709 H   0  0  0  0  0  0  0  0  0  0  0  0
    0.2549   19.7911  -32.6726 H   0  0  0  0  0  0  0  0  0  0  0  0
   -1.3521   19.8905  -30.1044 H   0  0  0  0  0  0  0  0  0  0  0  0
   -0.7694   21.2362  -31.1932 H   0  0  0  0  0  0  0  0  0  0  0  0
   -4.5390   19.2054  -33.1149 H   0  0  0  0  0  0  0  0  0  0  0  0
  1  2  1  0
  2  3  2  0
  3  4  1  0
  4  5  2  0
  5  6  1  0
  6  7  2  0
  7  8  1  0
  8  9  1  0
  8 10  2  0
  7 11  1  0
 11 12  1  0
 12 13  2  0
 12 14  1  0
 14 15  1  0
 15 16  1  0
 16 17  1  0
 17 18  2  0
 17 19  1  0
 14 20  1  0
 20 21  1  0
 21 22  1  0
 22 23  1  0
 23 24  1  0
 24 25  1  0
 11 26  1  0
 26 27  2  0
 27  2  1  0
 26  5  1  0
 25 20  1  0
  1 28  1  0
  1 29  1  0
  1 30  1  0
  3 31  1  0
  4 32  1  0
  6 33  1  0
  9 34  1  0
  9 35  1  0
 15 36  1  0
 15 37  1  0
 16 38  1  0
 16 39  1  0
 20 40  1  0
 21 41  1  0
 21 42  1  0
 22 43  1  0
 22 44  1  0
 24 45  1  0
 24 46  1  0
 25 47  1  0
 25 48  1  0
 27 49  1  0
M  CHG  1  19  -1
M  END
>  <UniqueID>  (83) 
82

>  <SMILES>  (83) 
Cc1ccc2cc(C(N)=O)n(C(=O)N(CCC(=O)[O-])C3CCSCC3)c2c1

>  <Energy>  (83) 
87.41781038069418

>  <Genealogy>  (83) 
Cc1ccc2cc(C(N)=O)n(C(=O)N(CCC(=O)[O-])C3CCSCC3)c2c1 (protonated)
Cc1ccc2cc(C(N)=O)n(C(=O)N(CCC(=O)[O-])C3CCSCC3)c2c1 (3D coordinates assigned)
Cc1ccc2cc(C(N)=O)n(C(=O)N(CCC(=O)[O-])C3CCSCC3)c2c1 (nonaromatic ring conformer: 87.41781038069418 kcal/mol)

>  <smiles>  (83) 
Cc1ccc2cc(C(N)=O)n(C(=O)N(CCC(=O)O)C3CCSCC3)c2c1

>  <score_type>  (83) 
oracle

>  <origin>  (83) 
adg

>  <m_score__min__energy>  (83) 
-11.699999999999999

>  <m_primary>  (83) 
energy

$$$$
85:0
     RDKit          3D

 65 70  0  0  0  0  0  0  0  0999 V2000
   -0.1620   20.8990  -35.0090 C   0  0  0  0  0  0  0  0  0  0  0  0
   -0.3540   19.6210  -34.7010 C   0  0  0  0  0  0  0  0  0  0  0  0
   -1.1500   19.2000  -33.5330 C   0  0  0  0  0  0  0  0  0  0  0  0
   -1.7930   20.0400  -32.8480 O   0  0  0  0  0  0  0  0  0  0  0  0
   -1.1950   17.8130  -33.1760 N   0  0  0  0  0  0  0  0  0  0  0  0
   -0.1780   17.0390  -32.7070 C   0  0  0  0  0  0  0  0  0  0  0  0
    1.2280   17.4750  -32.5210 C   0  0  0  0  0  0  0  0  0  0  0  0
    1.5940   18.3430  -31.4480 N   0  0  0  0  0  0  0  0  0  0  0  0
    2.1130   17.0900  -33.3300 O   0  0  0  0  0  0  0  0  0  0  0  0
   -0.6270   15.7420  -32.4680 C   0  0  0  0  0  0  0  0  0  0  0  0
   -1.9630   15.7490  -32.8070 C   0  0  0  0  0  0  0  0  0  0  0  0
   -2.9170   14.7370  -32.7370 C   0  0  0  0  0  0  0  0  0  0  0  0
   -4.2350   15.0470  -33.1130 C   0  0  0  0  0  0  0  0  0  0  0  0
   -4.5700   16.3500  -33.5640 C   0  0  0  0  0  0  0  0  0  0  0  0
   -5.9960   16.6920  -33.8880 C   0  0  0  0  0  0  0  0  0  0  0  0
   -6.4240   17.8250  -33.0750 N   0  0  0  0  0  0  0  0  0  0  0  0
   -6.1260   19.1160  -33.2850 C   0  0  0  0  0  0  0  0  0  0  0  0
   -6.6340   19.8150  -32.2040 C   0  0  0  0  0  0  0  0  0  0  0  0
   -6.5870   21.2750  -31.9140 C   0  0  0  0  0  0  0  0  0  0  0  0
   -7.7500   22.0490  -32.1390 C   0  0  0  0  0  0  0  0  0  0  0  0
   -7.7590   23.4380  -31.9110 C   0  0  0  0  0  0  0  0  0  0  0  0
   -6.6070   24.0890  -31.4570 C   0  0  0  0  0  0  0  0  0  0  0  0
   -5.4690   23.3240  -31.2340 C   0  0  0  0  0  0  0  0  0  0  0  0
   -5.4410   21.9570  -31.4390 C   0  0  0  0  0  0  0  0  0  0  0  0
   -4.0760   21.4180  -31.0750 C   0  0  0  0  0  0  0  0  0  0  0  0
   -3.3080   22.6070  -30.6840 N   0  0  0  0  0  0  0  0  0  0  0  0
   -2.0380   22.5840  -29.9510 C   0  0  1  0  0  0  0  0  0  0  0  0
   -2.3150   22.4010  -28.4500 C   0  0  0  0  0  0  0  0  0  0  0  0
   -2.9380   21.0330  -28.1340 C   0  0  0  0  0  0  0  0  0  0  0  0
   -1.8750   19.9840  -27.8050 C   0  0  0  0  0  0  0  0  0  0  0  0
   -1.0540   19.5770  -28.9850 C   0  0  0  0  0  0  0  0  0  0  0  0
   -0.2320   18.6290  -28.8640 O   0  0  0  0  0  0  0  0  0  0  0  0
   -1.2750   20.1420  -30.2840 N   0  0  0  0  0  0  0  0  0  0  0  0
   -1.1220   21.5420  -30.5410 C   0  0  0  0  0  0  0  0  0  0  0  0
   -0.2440   21.9170  -31.3620 O   0  0  0  0  0  0  0  0  0  0  0  0
   -4.1720   23.7350  -30.7700 C   0  0  0  0  0  0  0  0  0  0  0  0
   -3.8420   24.9100  -30.4550 O   0  0  0  0  0  0  0  0  0  0  0  0
   -7.2120   18.9160  -31.3760 N   0  0  0  0  0  0  0  0  0  0  0  0
   -7.0650   17.7210  -31.9230 N   0  0  0  0  0  0  0  0  0  0  0  0
   -3.5760   17.3510  -33.6210 C   0  0  0  0  0  0  0  0  0  0  0  0
   -2.2760   17.0120  -33.2360 C   0  0  0  0  0  0  0  0  0  0  0  0
    0.4392   21.1681  -35.8900 H   0  0  0  0  0  0  0  0  0  0  0  0
   -0.6042   21.6880  -34.3830 H   0  0  0  0  0  0  0  0  0  0  0  0
    0.0974   18.8483  -35.3407 H   0  0  0  0  0  0  0  0  0  0  0  0
    0.9380   18.5170  -30.6550 H   0  0  0  0  0  0  0  0  0  0  0  0
   -0.0398   14.8925  -32.0891 H   0  0  0  0  0  0  0  0  0  0  0  0
   -2.6471   13.7260  -32.3978 H   0  0  0  0  0  0  0  0  0  0  0  0
   -5.0141   14.2725  -33.0572 H   0  0  0  0  0  0  0  0  0  0  0  0
   -6.0766   16.9545  -34.9532 H   0  0  0  0  0  0  0  0  0  0  0  0
   -6.6377   15.8248  -33.6730 H   0  0  0  0  0  0  0  0  0  0  0  0
   -5.5850   19.5358  -34.1459 H   0  0  0  0  0  0  0  0  0  0  0  0
   -8.6648   21.5556  -32.4991 H   0  0  0  0  0  0  0  0  0  0  0  0
   -8.6779   24.0153  -32.0910 H   0  0  0  0  0  0  0  0  0  0  0  0
   -6.6024   25.1749  -31.2817 H   0  0  0  0  0  0  0  0  0  0  0  0
   -4.1481   20.7081  -30.2378 H   0  0  0  0  0  0  0  0  0  0  0  0
   -3.6065   20.8688  -31.9044 H   0  0  0  0  0  0  0  0  0  0  0  0
   -1.5087   23.5428  -30.0539 H   0  0  0  0  0  0  0  0  0  0  0  0
   -1.3659   22.4925  -27.9015 H   0  0  0  0  0  0  0  0  0  0  0  0
   -3.0328   23.1762  -28.1436 H   0  0  0  0  0  0  0  0  0  0  0  0
   -3.6112   21.1398  -27.2707 H   0  0  0  0  0  0  0  0  0  0  0  0
   -3.4864   20.6943  -29.0254 H   0  0  0  0  0  0  0  0  0  0  0  0
   -1.2026   20.3980  -27.0392 H   0  0  0  0  0  0  0  0  0  0  0  0
   -2.4044   19.0859  -27.4540 H   0  0  0  0  0  0  0  0  0  0  0  0
   -1.0740   19.5110  -31.0910 H   0  0  0  0  0  0  0  0  0  0  0  0
   -3.8180   18.3694  -33.9590 H   0  0  0  0  0  0  0  0  0  0  0  0
  1  2  2  0
  2  3  1  0
  3  4  2  0
  3  5  1  0
  5  6  1  0
  6  7  1  0
  7  8  1  0
  7  9  2  0
  6 10  2  0
 10 11  1  0
 11 12  2  0
 12 13  1  0
 13 14  2  0
 14 15  1  0
 15 16  1  0
 16 17  1  0
 17 18  2  0
 18 19  1  0
 19 20  2  0
 20 21  1  0
 21 22  2  0
 22 23  1  0
 23 24  2  0
 24 25  1  0
 25 26  1  0
 26 27  1  0
 27 28  1  0
 28 29  1  0
 29 30  1  0
 30 31  1  0
 31 32  2  0
 31 33  1  0
 33 34  1  0
 34 35  2  0
 26 36  1  0
 36 37  2  0
 18 38  1  0
 38 39  2  0
 14 40  1  0
 40 41  2  0
 41  5  1  0
 41 11  1  0
 39 16  1  0
 24 19  1  0
 34 27  1  0
 36 23  1  0
  1 42  1  0
  1 43  1  0
  2 44  1  0
  8 45  1  0
 10 46  1  0
 12 47  1  0
 13 48  1  0
 15 49  1  0
 15 50  1  0
 17 51  1  0
 20 52  1  0
 21 53  1  0
 22 54  1  0
 25 55  1  0
 25 56  1  0
 27 57  1  1
 28 58  1  0
 28 59  1  0
 29 60  1  0
 29 61  1  0
 30 62  1  0
 30 63  1  0
 33 64  1  0
 40 65  1  0
M  CHG  1   8  -1
M  END
>  <UniqueID>  (84) 
83

>  <SMILES>  (84) 
C=CC(=O)n1c(C([NH-])=O)cc2ccc(Cn3cc(-c4cccc5c4CN([C@H]4CCCC(=O)NC4=O)C5=O)nn3)cc21

>  <Energy>  (84) 
176.1589383303312

>  <Genealogy>  (84) 
C=CC(=O)n1c(C([NH-])=O)cc2ccc(Cn3cc(-c4cccc5c4CN(C4CCCC(=O)NC4=O)C5=O)nn3)cc21 (protonated)
C=CC(=O)n1c(C([NH-])=O)cc2ccc(Cn3cc(-c4cccc5c4CN([C@H]4CCCC(=O)NC4=O)C5=O)nn3)cc21 (chirality)
C=CC(=O)n1c(C([NH-])=O)cc2ccc(Cn3cc(-c4cccc5c4CN([C@H]4CCCC(=O)NC4=O)C5=O)nn3)cc21 (3D coordinates assigned)
C=CC(=O)n1c(C([NH-])=O)cc2ccc(Cn3cc(-c4cccc5c4CN([C@H]4CCCC(=O)NC4=O)C5=O)nn3)cc21 (nonaromatic ring conformer: 176.1589383303312 kcal/mol)

>  <smiles>  (84) 
C=CC(=O)n1c(C(N)=O)cc2ccc(Cn3cc(-c4cccc5c4CN(C4CCCC(=O)NC4=O)C5=O)nn3)cc21

>  <score_type>  (84) 
oracle

>  <origin>  (84) 
adg

>  <m_score__min__energy>  (84) 
-12.68

>  <m_primary>  (84) 
energy

$$$$
86:0
     RDKit          3D

 39 40  0  0  0  0  0  0  0  0999 V2000
   -3.8630   25.4920  -30.8050 N   0  0  0  0  0  0  0  0  0  0  0  0
   -4.9180   24.5910  -30.4780 C   0  0  0  0  0  0  0  0  0  0  0  0
   -5.6780   24.8580  -29.5100 O   0  0  0  0  0  0  0  0  0  0  0  0
   -5.0950   23.3260  -31.2210 C   0  0  0  0  0  0  0  0  0  0  0  0
   -6.3270   22.8800  -31.6950 C   0  0  0  0  0  0  0  0  0  0  0  0
   -6.0800   21.6440  -32.2470 C   0  0  0  0  0  0  0  0  0  0  0  0
   -6.9450   20.7580  -32.8790 C   0  0  0  0  0  0  0  0  0  0  0  0
   -6.4090   19.5630  -33.3890 C   0  0  0  0  0  0  0  0  0  0  0  0
   -5.0220   19.2750  -33.2620 C   0  0  0  0  0  0  0  0  0  0  0  0
   -4.4440   18.0650  -33.7920 N   0  0  0  0  0  0  0  0  0  0  0  0
   -4.3230   16.8070  -33.0550 C   0  0  0  0  0  0  0  0  0  0  0  0
   -5.7070   16.2270  -32.7470 C   0  0  0  0  0  0  0  0  0  0  0  0
   -6.4940   16.0540  -34.0050 C   0  0  0  0  0  0  0  0  0  0  0  0
   -6.4610   16.9380  -34.9010 O   0  0  0  0  0  0  0  0  0  0  0  0
   -7.2280   14.8920  -34.2130 O   0  0  0  0  0  0  0  0  0  0  0  0
   -4.1790   20.2080  -32.6180 C   0  0  0  0  0  0  0  0  0  0  0  0
   -4.7440   21.3800  -32.1030 C   0  0  0  0  0  0  0  0  0  0  0  0
   -4.1240   22.4040  -31.4760 N   0  0  0  0  0  0  0  0  0  0  0  0
   -2.7140   22.5270  -31.2390 C   0  0  0  0  0  0  0  0  0  0  0  0
   -1.9050   21.7990  -31.8760 O   0  0  0  0  0  0  0  0  0  0  0  0
   -2.2450   23.4690  -30.3160 O   0  0  0  0  0  0  0  0  0  0  0  0
   -1.7670   23.1250  -29.0170 C   0  0  0  0  0  0  0  0  0  0  0  0
   -0.9840   24.5660  -28.2310 P   0  0  1  0  0  0  0  0  0  0  0  0
   -1.3610   24.6060  -26.7670 O   0  0  0  0  0  0  0  0  0  0  0  0
    0.6960   24.4320  -28.3730 O   0  0  0  0  0  0  0  0  0  0  0  0
   -1.4990   25.9900  -28.9850 O   0  0  0  0  0  0  0  0  0  0  0  0
   -2.8770   25.2860  -30.5320 H   0  0  0  0  0  0  0  0  0  0  0  0
   -7.2922   23.4046  -31.6397 H   0  0  0  0  0  0  0  0  0  0  0  0
   -8.0168   20.9854  -32.9770 H   0  0  0  0  0  0  0  0  0  0  0  0
   -7.0700   18.8420  -33.8923 H   0  0  0  0  0  0  0  0  0  0  0  0
   -4.0920   18.0740  -34.7750 H   0  0  0  0  0  0  0  0  0  0  0  0
   -3.7557   16.0858  -33.6616 H   0  0  0  0  0  0  0  0  0  0  0  0
   -3.8007   17.0006  -32.1065 H   0  0  0  0  0  0  0  0  0  0  0  0
   -5.5888   15.2494  -32.2567 H   0  0  0  0  0  0  0  0  0  0  0  0
   -6.2441   16.9214  -32.0842 H   0  0  0  0  0  0  0  0  0  0  0  0
   -3.0999   20.0169  -32.5233 H   0  0  0  0  0  0  0  0  0  0  0  0
   -2.6109   22.7875  -28.3974 H   0  0  0  0  0  0  0  0  0  0  0  0
   -1.0231   22.3202  -29.1108 H   0  0  0  0  0  0  0  0  0  0  0  0
   -1.9760   25.6870  -29.7980 H   0  0  0  0  0  0  0  0  0  0  0  0
  1  2  1  0
  2  3  2  0
  2  4  1  0
  4  5  2  0
  5  6  1  0
  6  7  2  0
  7  8  1  0
  8  9  2  0
  9 10  1  0
 10 11  1  0
 11 12  1  0
 12 13  1  0
 13 14  2  0
 13 15  1  0
  9 16  1  0
 16 17  2  0
 17 18  1  0
 18 19  1  0
 19 20  2  0
 19 21  1  0
 21 22  1  0
 22 23  1  0
 23 24  2  0
 23 25  1  1
 23 26  1  0
 18  4  1  0
 17  6  1  0
  1 27  1  0
  5 28  1  0
  7 29  1  0
  8 30  1  0
 10 31  1  0
 11 32  1  0
 11 33  1  0
 12 34  1  0
 12 35  1  0
 16 36  1  0
 22 37  1  0
 22 38  1  0
 26 39  1  0
M  CHG  3   1  -1  15  -1  25  -1
M  END
>  <UniqueID>  (85) 
84

>  <SMILES>  (85) 
[NH-]C(=O)c1cc2ccc(NCCC(=O)[O-])cc2n1C(=O)OC[P@@](=O)([O-])O

>  <Energy>  (85) 
68.9343806531161

>  <Genealogy>  (85) 
[NH-]C(=O)c1cc2ccc(NCCC(=O)[O-])cc2n1C(=O)OCP(=O)([O-])O (protonated)
[NH-]C(=O)c1cc2ccc(NCCC(=O)[O-])cc2n1C(=O)OC[P@@](=O)([O-])O (chirality)
[NH-]C(=O)c1cc2ccc(NCCC(=O)[O-])cc2n1C(=O)OC[P@@](=O)([O-])O (3D coordinates assigned)
[NH-]C(=O)c1cc2ccc(NCCC(=O)[O-])cc2n1C(=O)OC[P@@](=O)([O-])O (optimized conformer: 68.9343806531161 kcal/mol)

>  <smiles>  (85) 
NC(=O)c1cc2ccc(NCCC(=O)O)cc2n1C(=O)OCP(=O)(O)O

>  <score_type>  (85) 
oracle

>  <origin>  (85) 
adg

>  <m_score__min__energy>  (85) 
-12.1

>  <m_primary>  (85) 
energy

$$$$
87:0
     RDKit          3D

 37 38  0  0  0  0  0  0  0  0999 V2000
   -5.7650   18.4570  -34.3030 C   0  0  0  0  0  0  0  0  0  0  0  0
   -6.6200   18.4940  -33.0410 C   0  0  0  0  0  0  0  0  0  0  0  0
   -6.8250   19.9100  -32.5780 C   0  0  0  0  0  0  0  0  0  0  0  0
   -8.1350   20.4360  -32.4610 C   0  0  0  0  0  0  0  0  0  0  0  0
   -8.3420   21.7420  -31.9870 C   0  0  0  0  0  0  0  0  0  0  0  0
   -7.2250   22.4940  -31.6370 C   0  0  0  0  0  0  0  0  0  0  0  0
   -7.1400   23.7700  -31.1260 C   0  0  0  0  0  0  0  0  0  0  0  0
   -5.7790   24.0060  -30.9470 C   0  0  0  0  0  0  0  0  0  0  0  0
   -5.2290   25.2990  -30.4850 C   0  0  0  0  0  0  0  0  0  0  0  0
   -3.9000   25.6710  -30.8420 N   0  0  0  0  0  0  0  0  0  0  0  0
   -5.9080   26.0640  -29.7520 O   0  0  0  0  0  0  0  0  0  0  0  0
   -5.0500   22.9180  -31.3270 N   0  0  0  0  0  0  0  0  0  0  0  0
   -3.6280   22.7410  -31.2480 C   0  0  0  0  0  0  0  0  0  0  0  0
   -2.9840   22.3600  -32.2630 O   0  0  0  0  0  0  0  0  0  0  0  0
   -2.9410   23.0100  -30.0210 N   0  0  0  0  0  0  0  0  0  0  0  0
   -1.4910   22.9510  -29.8800 C   0  0  0  0  0  0  0  0  0  0  0  0
   -0.9990   24.1450  -29.1280 C   0  0  0  0  0  0  0  0  0  0  0  0
    0.2380   24.2910  -28.9270 O   0  0  0  0  0  0  0  0  0  0  0  0
   -1.9120   25.1100  -28.6920 O   0  0  0  0  0  0  0  0  0  0  0  0
   -2.7200   24.9330  -27.5360 C   0  0  0  0  0  0  0  0  0  0  0  0
   -5.9500   22.0030  -31.7500 C   0  0  0  0  0  0  0  0  0  0  0  0
   -5.7150   20.6990  -32.2020 C   0  0  0  0  0  0  0  0  0  0  0  0
   -4.7019   18.4110  -34.0244 H   0  0  0  0  0  0  0  0  0  0  0  0
   -6.0270   17.5694  -34.8975 H   0  0  0  0  0  0  0  0  0  0  0  0
   -5.9493   19.3640  -34.8975 H   0  0  0  0  0  0  0  0  0  0  0  0
   -7.5984   18.0389  -33.2545 H   0  0  0  0  0  0  0  0  0  0  0  0
   -6.1031   17.9343  -32.2476 H   0  0  0  0  0  0  0  0  0  0  0  0
   -8.9984   19.8159  -32.7440 H   0  0  0  0  0  0  0  0  0  0  0  0
   -9.3564   22.1575  -31.8953 H   0  0  0  0  0  0  0  0  0  0  0  0
   -7.9705   24.4569  -30.9059 H   0  0  0  0  0  0  0  0  0  0  0  0
   -3.0760   25.1670  -30.4430 H   0  0  0  0  0  0  0  0  0  0  0  0
   -1.2156   22.0375  -29.3326 H   0  0  0  0  0  0  0  0  0  0  0  0
   -1.0322   22.9411  -30.8797 H   0  0  0  0  0  0  0  0  0  0  0  0
   -2.1045   25.0678  -26.6343 H   0  0  0  0  0  0  0  0  0  0  0  0
   -3.5326   25.6744  -27.5396 H   0  0  0  0  0  0  0  0  0  0  0  0
   -3.1482   23.9198  -27.5396 H   0  0  0  0  0  0  0  0  0  0  0  0
   -4.6921   20.2989  -32.2628 H   0  0  0  0  0  0  0  0  0  0  0  0
  1  2  1  0
  2  3  1  0
  3  4  2  0
  4  5  1  0
  5  6  2  0
  6  7  1  0
  7  8  2  0
  8  9  1  0
  9 10  1  0
  9 11  2  0
  8 12  1  0
 12 13  1  0
 13 14  2  0
 13 15  1  0
 15 16  1  0
 16 17  1  0
 17 18  2  0
 17 19  1  0
 19 20  1  0
 12 21  1  0
 21 22  2  0
 22  3  1  0
 21  6  1  0
  1 23  1  0
  1 24  1  0
  1 25  1  0
  2 26  1  0
  2 27  1  0
  4 28  1  0
  5 29  1  0
  7 30  1  0
 10 31  1  0
 16 32  1  0
 16 33  1  0
 20 34  1  0
 20 35  1  0
 20 36  1  0
 22 37  1  0
M  CHG  2  10  -1  15  -1
M  END
>  <UniqueID>  (86) 
85

>  <SMILES>  (86) 
CCc1ccc2cc(C([NH-])=O)n(C(=O)[N-]CC(=O)OC)c2c1

>  <Energy>  (86) 
67.1871320736416

>  <Genealogy>  (86) 
CCc1ccc2cc(C([NH-])=O)n(C(=O)[N-]CC(=O)OC)c2c1 (protonated)
CCc1ccc2cc(C([NH-])=O)n(C(=O)[N-]CC(=O)OC)c2c1 (3D coordinates assigned)
CCc1ccc2cc(C([NH-])=O)n(C(=O)[N-]CC(=O)OC)c2c1 (optimized conformer: 67.1871320736416 kcal/mol)

>  <smiles>  (86) 
CCc1ccc2cc(C(N)=O)n(C(=O)NCC(=O)OC)c2c1

>  <score_type>  (86) 
oracle

>  <origin>  (86) 
adg

>  <m_score__min__energy>  (86) 
-10.789999999999999

>  <m_primary>  (86) 
energy

$$$$
88:0
     RDKit          3D

 49 51  0  0  0  0  0  0  0  0999 V2000
   -6.0610   17.8730  -34.1700 C   0  0  0  0  0  0  0  0  0  0  0  0
   -7.1850   17.8840  -33.1400 C   0  0  0  0  0  0  0  0  0  0  0  0
   -7.3710   19.2660  -32.5770 C   0  0  0  0  0  0  0  0  0  0  0  0
   -8.6250   19.6550  -32.0440 C   0  0  0  0  0  0  0  0  0  0  0  0
   -8.7860   20.9110  -31.4340 C   0  0  0  0  0  0  0  0  0  0  0  0
   -7.6770   21.7500  -31.3680 C   0  0  0  0  0  0  0  0  0  0  0  0
   -7.5250   22.9710  -30.7510 C   0  0  0  0  0  0  0  0  0  0  0  0
   -6.1840   23.3060  -30.9260 C   0  0  0  0  0  0  0  0  0  0  0  0
   -5.5820   24.5590  -30.4290 C   0  0  0  0  0  0  0  0  0  0  0  0
   -5.7050   24.9430  -29.0590 N   0  0  0  0  0  0  0  0  0  0  0  0
   -4.9070   25.2760  -31.2130 O   0  0  0  0  0  0  0  0  0  0  0  0
   -5.5330   22.3310  -31.6190 N   0  0  0  0  0  0  0  0  0  0  0  0
   -4.1190   22.1850  -31.8160 C   0  0  0  0  0  0  0  0  0  0  0  0
   -3.6410   22.2380  -32.9800 O   0  0  0  0  0  0  0  0  0  0  0  0
   -3.2090   21.9300  -30.6500 C   0  0  0  0  0  0  0  0  0  0  0  0
   -3.1220   23.0900  -29.8270 O   0  0  0  0  0  0  0  0  0  0  0  0
   -3.3760   23.0780  -28.4490 C   0  0  0  0  0  0  0  0  0  0  0  0
   -4.5370   22.8460  -28.0160 O   0  0  0  0  0  0  0  0  0  0  0  0
   -2.2730   23.4040  -27.4750 C   0  0  0  0  0  0  0  0  0  0  0  0
   -2.1450   24.9330  -27.2870 C   0  0  0  0  0  0  0  0  0  0  0  0
   -1.0790   25.5180  -28.2240 C   0  0  0  0  0  0  0  0  0  0  0  0
    0.2620   24.9460  -27.9830 N   0  0  0  0  0  0  0  0  0  0  0  0
    0.2590   23.5840  -27.4110 C   0  0  0  0  0  0  0  0  0  0  0  0
   -0.9340   22.7560  -27.9050 C   0  0  0  0  0  0  0  0  0  0  0  0
   -6.4590   21.3880  -31.8850 C   0  0  0  0  0  0  0  0  0  0  0  0
   -6.2680   20.1430  -32.4910 C   0  0  0  0  0  0  0  0  0  0  0  0
   -5.0901   17.8635  -33.6531 H   0  0  0  0  0  0  0  0  0  0  0  0
   -6.1498   16.9757  -34.8000 H   0  0  0  0  0  0  0  0  0  0  0  0
   -6.1322   18.7719  -34.8000 H   0  0  0  0  0  0  0  0  0  0  0  0
   -8.1198   17.5604  -33.6211 H   0  0  0  0  0  0  0  0  0  0  0  0
   -6.9228   17.1987  -32.3205 H   0  0  0  0  0  0  0  0  0  0  0  0
   -9.4810   18.9671  -32.1083 H   0  0  0  0  0  0  0  0  0  0  0  0
   -9.7575   21.2212  -31.0218 H   0  0  0  0  0  0  0  0  0  0  0  0
   -8.2971   23.5570  -30.2310 H   0  0  0  0  0  0  0  0  0  0  0  0
   -6.1260   24.3010  -28.3530 H   0  0  0  0  0  0  0  0  0  0  0  0
   -5.3040   25.8500  -28.7320 H   0  0  0  0  0  0  0  0  0  0  0  0
   -3.6056   21.0930  -30.0565 H   0  0  0  0  0  0  0  0  0  0  0  0
   -2.2056   21.6829  -31.0269 H   0  0  0  0  0  0  0  0  0  0  0  0
   -2.5357   22.9725  -26.4979 H   0  0  0  0  0  0  0  0  0  0  0  0
   -3.1143   25.4043  -27.5069 H   0  0  0  0  0  0  0  0  0  0  0  0
   -1.8445   25.1332  -26.2480 H   0  0  0  0  0  0  0  0  0  0  0  0
   -1.3701   25.3085  -29.2639 H   0  0  0  0  0  0  0  0  0  0  0  0
   -1.0208   26.5992  -28.0302 H   0  0  0  0  0  0  0  0  0  0  0  0
    0.7770   25.5720  -27.3190 H   0  0  0  0  0  0  0  0  0  0  0  0
    1.1896   23.0746  -27.7018 H   0  0  0  0  0  0  0  0  0  0  0  0
    0.1801   23.6748  -26.3176 H   0  0  0  0  0  0  0  0  0  0  0  0
   -0.8998   22.6947  -29.0028 H   0  0  0  0  0  0  0  0  0  0  0  0
   -0.8718   21.7512  -27.4617 H   0  0  0  0  0  0  0  0  0  0  0  0
   -5.2845   19.8542  -32.8902 H   0  0  0  0  0  0  0  0  0  0  0  0
  1  2  1  0
  2  3  1  0
  3  4  2  0
  4  5  1  0
  5  6  2  0
  6  7  1  0
  7  8  2  0
  8  9  1  0
  9 10  1  0
  9 11  2  0
  8 12  1  0
 12 13  1  0
 13 14  2  0
 13 15  1  0
 15 16  1  0
 16 17  1  0
 17 18  2  0
 17 19  1  0
 19 20  1  0
 20 21  1  0
 21 22  1  0
 22 23  1  0
 23 24  1  0
 12 25  1  0
 25 26  2  0
 26  3  1  0
 25  6  1  0
 24 19  1  0
  1 27  1  0
  1 28  1  0
  1 29  1  0
  2 30  1  0
  2 31  1  0
  4 32  1  0
  5 33  1  0
  7 34  1  0
 10 35  1  0
 10 36  1  0
 15 37  1  0
 15 38  1  0
 19 39  1  0
 20 40  1  0
 20 41  1  0
 21 42  1  0
 21 43  1  0
 22 44  1  0
 23 45  1  0
 23 46  1  0
 24 47  1  0
 24 48  1  0
 26 49  1  0
M  END
>  <UniqueID>  (87) 
86

>  <SMILES>  (87) 
CCc1ccc2cc(C(N)=O)n(C(=O)COC(=O)C3CCNCC3)c2c1

>  <Energy>  (87) 
85.42674910380313

>  <Genealogy>  (87) 
CCc1ccc2cc(C(N)=O)n(C(=O)COC(=O)C3CCNCC3)c2c1 (3D coordinates assigned)
CCc1ccc2cc(C(N)=O)n(C(=O)COC(=O)C3CCNCC3)c2c1 (nonaromatic ring conformer: 85.42674910380313 kcal/mol)

>  <smiles>  (87) 
CCc1ccc2cc(C(N)=O)n(C(=O)COC(=O)C3CCNCC3)c2c1

>  <score_type>  (87) 
oracle

>  <origin>  (87) 
adg

>  <m_score__min__energy>  (87) 
-9.8100000000000005

>  <m_primary>  (87) 
energy

$$$$
89:0
     RDKit          3D

 42 43  0  0  0  0  0  0  0  0999 V2000
    0.6430   25.5150  -26.6330 C   0  0  0  0  0  0  0  0  0  0  0  0
    0.4550   24.9330  -27.9170 O   0  0  0  0  0  0  0  0  0  0  0  0
   -0.8050   24.8050  -28.5140 C   0  0  0  0  0  0  0  0  0  0  0  0
   -1.2430   25.7210  -29.2640 O   0  0  0  0  0  0  0  0  0  0  0  0
   -1.5970   23.6280  -28.2740 N   0  0  0  0  0  0  0  0  0  0  0  0
   -2.7710   23.7090  -27.4020 C   0  0  0  0  0  0  0  0  0  0  0  0
   -1.2310   22.3550  -28.9070 C   0  0  0  0  0  0  0  0  0  0  0  0
   -1.6430   22.3550  -30.3810 C   0  0  0  0  0  0  0  0  0  0  0  0
   -2.8830   23.0370  -30.5540 O   0  0  0  0  0  0  0  0  0  0  0  0
   -3.7960   22.7260  -31.5680 C   0  0  0  0  0  0  0  0  0  0  0  0
   -3.3930   22.2670  -32.6720 O   0  0  0  0  0  0  0  0  0  0  0  0
   -5.2020   22.9050  -31.3400 N   0  0  0  0  0  0  0  0  0  0  0  0
   -5.8470   24.0330  -30.9270 C   0  0  0  0  0  0  0  0  0  0  0  0
   -5.2040   25.2790  -30.4610 C   0  0  0  0  0  0  0  0  0  0  0  0
   -3.8710   25.6070  -30.8480 N   0  0  0  0  0  0  0  0  0  0  0  0
   -5.8210   26.0410  -29.6690 O   0  0  0  0  0  0  0  0  0  0  0  0
   -7.2250   23.8300  -30.9140 C   0  0  0  0  0  0  0  0  0  0  0  0
   -7.4060   22.5290  -31.3280 C   0  0  0  0  0  0  0  0  0  0  0  0
   -8.5790   21.8000  -31.4960 C   0  0  0  0  0  0  0  0  0  0  0  0
   -8.4710   20.4770  -31.9550 C   0  0  0  0  0  0  0  0  0  0  0  0
   -7.2030   19.9160  -32.2600 C   0  0  0  0  0  0  0  0  0  0  0  0
   -7.0990   18.4820  -32.7150 C   0  0  0  0  0  0  0  0  0  0  0  0
   -6.5800   18.4120  -33.9970 F   0  0  0  0  0  0  0  0  0  0  0  0
   -6.2690   17.7600  -31.8730 F   0  0  0  0  0  0  0  0  0  0  0  0
   -8.3570   17.9100  -32.7060 F   0  0  0  0  0  0  0  0  0  0  0  0
   -6.0340   20.6830  -32.0530 C   0  0  0  0  0  0  0  0  0  0  0  0
   -6.1710   21.9930  -31.5780 C   0  0  0  0  0  0  0  0  0  0  0  0
    0.4037   24.7741  -25.8560 H   0  0  0  0  0  0  0  0  0  0  0  0
    1.6900   25.8345  -26.5250 H   0  0  0  0  0  0  0  0  0  0  0  0
   -0.0193   26.3866  -26.5250 H   0  0  0  0  0  0  0  0  0  0  0  0
   -2.4489   23.6868  -26.3504 H   0  0  0  0  0  0  0  0  0  0  0  0
   -3.3111   24.6465  -27.6003 H   0  0  0  0  0  0  0  0  0  0  0  0
   -3.4347   22.8545  -27.6003 H   0  0  0  0  0  0  0  0  0  0  0  0
   -0.1425   22.2139  -28.8348 H   0  0  0  0  0  0  0  0  0  0  0  0
   -1.7530   21.5362  -28.3903 H   0  0  0  0  0  0  0  0  0  0  0  0
   -0.8663   22.8604  -30.9737 H   0  0  0  0  0  0  0  0  0  0  0  0
   -1.7601   21.3142  -30.7172 H   0  0  0  0  0  0  0  0  0  0  0  0
   -3.0510   25.2180  -30.3350 H   0  0  0  0  0  0  0  0  0  0  0  0
   -8.0032   24.5548  -30.6328 H   0  0  0  0  0  0  0  0  0  0  0  0
   -9.5603   22.2458  -31.2762 H   0  0  0  0  0  0  0  0  0  0  0  0
   -9.3790   19.8687  -32.0796 H   0  0  0  0  0  0  0  0  0  0  0  0
   -5.0397   20.2606  -32.2603 H   0  0  0  0  0  0  0  0  0  0  0  0
  1  2  1  0
  2  3  1  0
  3  4  2  0
  3  5  1  0
  5  6  1  0
  5  7  1  0
  7  8  1  0
  8  9  1  0
  9 10  1  0
 10 11  2  0
 10 12  1  0
 12 13  1  0
 13 14  1  0
 14 15  1  0
 14 16  2  0
 13 17  2  0
 17 18  1  0
 18 19  2  0
 19 20  1  0
 20 21  2  0
 21 22  1  0
 22 23  1  0
 22 24  1  0
 22 25  1  0
 21 26  1  0
 26 27  2  0
 27 12  1  0
 27 18  1  0
  1 28  1  0
  1 29  1  0
  1 30  1  0
  6 31  1  0
  6 32  1  0
  6 33  1  0
  7 34  1  0
  7 35  1  0
  8 36  1  0
  8 37  1  0
 15 38  1  0
 17 39  1  0
 19 40  1  0
 20 41  1  0
 26 42  1  0
M  CHG  1  15  -1
M  END
>  <UniqueID>  (88) 
87

>  <SMILES>  (88) 
COC(=O)N(C)CCOC(=O)n1c(C([NH-])=O)cc2ccc(C(F)(F)F)cc21

>  <Energy>  (88) 
73.06119464009

>  <Genealogy>  (88) 
COC(=O)N(C)CCOC(=O)n1c(C([NH-])=O)cc2ccc(C(F)(F)F)cc21 (protonated)
COC(=O)N(C)CCOC(=O)n1c(C([NH-])=O)cc2ccc(C(F)(F)F)cc21 (3D coordinates assigned)
COC(=O)N(C)CCOC(=O)n1c(C([NH-])=O)cc2ccc(C(F)(F)F)cc21 (optimized conformer: 73.06119464009 kcal/mol)

>  <smiles>  (88) 
COC(=O)N(C)CCOC(=O)n1c(C(N)=O)cc2ccc(C(F)(F)F)cc21

>  <score_type>  (88) 
oracle

>  <origin>  (88) 
adg

>  <m_score__min__energy>  (88) 
-10.109999999999999

>  <m_primary>  (88) 
energy

$$$$
90:0
     RDKit          3D

 46 47  0  0  0  0  0  0  0  0999 V2000
   -5.7540   17.4350  -33.7590 C   0  0  0  0  0  0  0  0  0  0  0  0
   -6.4750   18.6340  -34.1810 N   0  0  0  0  0  0  0  0  0  0  0  0
   -6.8970   19.6660  -33.2710 C   0  0  0  0  0  0  0  0  0  0  0  0
   -8.2400   19.6800  -32.8190 C   0  0  0  0  0  0  0  0  0  0  0  0
   -8.6980   20.6890  -31.9530 C   0  0  0  0  0  0  0  0  0  0  0  0
   -7.7880   21.6580  -31.5380 C   0  0  0  0  0  0  0  0  0  0  0  0
   -7.9660   22.7480  -30.7160 C   0  0  0  0  0  0  0  0  0  0  0  0
   -6.7180   23.3660  -30.6430 C   0  0  0  0  0  0  0  0  0  0  0  0
   -6.4250   24.5450  -29.7960 C   0  0  0  0  0  0  0  0  0  0  0  0
   -5.2730   24.5710  -28.9490 N   0  0  0  0  0  0  0  0  0  0  0  0
   -7.1820   25.5510  -29.8290 O   0  0  0  0  0  0  0  0  0  0  0  0
   -5.8060   22.6800  -31.3870 N   0  0  0  0  0  0  0  0  0  0  0  0
   -4.4240   23.0030  -31.6000 C   0  0  0  0  0  0  0  0  0  0  0  0
   -3.7600   22.3670  -32.4630 O   0  0  0  0  0  0  0  0  0  0  0  0
   -3.8260   24.0270  -30.8570 O   0  0  0  0  0  0  0  0  0  0  0  0
   -2.7820   23.8030  -29.9140 C   0  0  0  0  0  0  0  0  0  0  0  0
   -2.7330   24.8860  -28.9870 O   0  0  0  0  0  0  0  0  0  0  0  0
   -2.7090   24.7190  -27.5960 C   0  0  0  0  0  0  0  0  0  0  0  0
   -3.7520   24.3500  -26.9840 O   0  0  0  0  0  0  0  0  0  0  0  0
   -1.4280   25.0190  -26.8400 C   0  0  0  0  0  0  0  0  0  0  0  0
   -0.5240   25.9000  -27.7190 C   0  0  0  0  0  0  0  0  0  0  0  0
   -0.7110   23.6910  -26.5290 C   0  0  0  0  0  0  0  0  0  0  0  0
   -1.7190   25.7530  -25.5130 C   0  0  0  0  0  0  0  0  0  0  0  0
   -6.4780   21.6420  -31.9340 C   0  0  0  0  0  0  0  0  0  0  0  0
   -6.0010   20.6700  -32.8220 C   0  0  0  0  0  0  0  0  0  0  0  0
   -5.7274   17.3908  -32.6602 H   0  0  0  0  0  0  0  0  0  0  0  0
   -6.2656   16.5430  -34.1496 H   0  0  0  0  0  0  0  0  0  0  0  0
   -4.7262   17.4687  -34.1496 H   0  0  0  0  0  0  0  0  0  0  0  0
   -6.6490   18.7600  -35.2030 H   0  0  0  0  0  0  0  0  0  0  0  0
   -8.9327   18.8920  -33.1495 H   0  0  0  0  0  0  0  0  0  0  0  0
   -9.7440   20.7121  -31.6135 H   0  0  0  0  0  0  0  0  0  0  0  0
   -8.8961   23.0645  -30.2213 H   0  0  0  0  0  0  0  0  0  0  0  0
   -4.6470   23.7390  -28.8550 H   0  0  0  0  0  0  0  0  0  0  0  0
   -5.0560   25.4230  -28.3820 H   0  0  0  0  0  0  0  0  0  0  0  0
   -2.9738   22.8654  -29.3716 H   0  0  0  0  0  0  0  0  0  0  0  0
   -1.8206   23.7323  -30.4438 H   0  0  0  0  0  0  0  0  0  0  0  0
    0.1159   26.5236  -27.0775 H   0  0  0  0  0  0  0  0  0  0  0  0
    0.1061   25.2600  -28.3541 H   0  0  0  0  0  0  0  0  0  0  0  0
   -1.1476   26.5464  -28.3541 H   0  0  0  0  0  0  0  0  0  0  0  0
   -0.6398   23.5592  -25.4392 H   0  0  0  0  0  0  0  0  0  0  0  0
   -1.2810   22.8562  -26.9629 H   0  0  0  0  0  0  0  0  0  0  0  0
    0.2996   23.7096  -26.9629 H   0  0  0  0  0  0  0  0  0  0  0  0
   -1.4596   25.0988  -24.6676 H   0  0  0  0  0  0  0  0  0  0  0  0
   -1.1174   26.6726  -25.4630 H   0  0  0  0  0  0  0  0  0  0  0  0
   -2.7873   26.0105  -25.4630 H   0  0  0  0  0  0  0  0  0  0  0  0
   -4.9555   20.6846  -33.1636 H   0  0  0  0  0  0  0  0  0  0  0  0
  1  2  1  0
  2  3  1  0
  3  4  2  0
  4  5  1  0
  5  6  2  0
  6  7  1  0
  7  8  2  0
  8  9  1  0
  9 10  1  0
  9 11  2  0
  8 12  1  0
 12 13  1  0
 13 14  2  0
 13 15  1  0
 15 16  1  0
 16 17  1  0
 17 18  1  0
 18 19  2  0
 18 20  1  0
 20 21  1  0
 20 22  1  0
 20 23  1  0
 12 24  1  0
 24 25  2  0
 25  3  1  0
 24  6  1  0
  1 26  1  0
  1 27  1  0
  1 28  1  0
  2 29  1  0
  4 30  1  0
  5 31  1  0
  7 32  1  0
 10 33  1  0
 10 34  1  0
 16 35  1  0
 16 36  1  0
 21 37  1  0
 21 38  1  0
 21 39  1  0
 22 40  1  0
 22 41  1  0
 22 42  1  0
 23 43  1  0
 23 44  1  0
 23 45  1  0
 25 46  1  0
M  END
>  <UniqueID>  (89) 
88

>  <SMILES>  (89) 
CNc1ccc2cc(C(N)=O)n(C(=O)OCOC(=O)C(C)(C)C)c2c1

>  <Energy>  (89) 
76.18313100977527

>  <Genealogy>  (89) 
CNc1ccc2cc(C(N)=O)n(C(=O)OCOC(=O)C(C)(C)C)c2c1 (3D coordinates assigned)
CNc1ccc2cc(C(N)=O)n(C(=O)OCOC(=O)C(C)(C)C)c2c1 (optimized conformer: 76.18313100977527 kcal/mol)

>  <smiles>  (89) 
CNc1ccc2cc(C(N)=O)n(C(=O)OCOC(=O)C(C)(C)C)c2c1

>  <score_type>  (89) 
oracle

>  <origin>  (89) 
adg

>  <m_score__min__energy>  (89) 
-8.9800000000000004

>  <m_primary>  (89) 
energy

$$$$
91:0
     RDKit          3D

 37 38  0  0  0  0  0  0  0  0999 V2000
   -8.5390   23.4350  -32.3180 C   0  0  0  0  0  0  0  0  0  0  0  0
   -8.2540   22.4690  -31.4410 C   0  0  0  0  0  0  0  0  0  0  0  0
   -9.1200   21.2410  -31.3980 C   0  0  0  0  0  0  0  0  0  0  0  0
   -7.0710   22.5800  -30.5530 C   0  0  0  0  0  0  0  0  0  0  0  0
   -7.2180   22.8820  -29.3390 O   0  0  0  0  0  0  0  0  0  0  0  0
   -5.7510   22.3130  -31.0540 N   0  0  0  0  0  0  0  0  0  0  0  0
   -4.6720   23.1400  -31.0300 C   0  0  0  0  0  0  0  0  0  0  0  0
   -4.6040   24.4520  -30.3500 C   0  0  0  0  0  0  0  0  0  0  0  0
   -5.3100   24.7000  -29.1320 N   0  0  0  0  0  0  0  0  0  0  0  0
   -3.8780   25.3610  -30.8340 O   0  0  0  0  0  0  0  0  0  0  0  0
   -3.6170   22.5910  -31.7570 C   0  0  0  0  0  0  0  0  0  0  0  0
   -4.0930   21.3900  -32.2340 C   0  0  0  0  0  0  0  0  0  0  0  0
   -3.4820   20.4450  -33.0520 C   0  0  0  0  0  0  0  0  0  0  0  0
   -4.2330   19.3240  -33.4380 C   0  0  0  0  0  0  0  0  0  0  0  0
   -5.5810   19.1660  -33.0140 C   0  0  0  0  0  0  0  0  0  0  0  0
   -6.3430   18.0050  -33.4140 N   0  0  0  0  0  0  0  0  0  0  0  0
   -7.5830   17.6550  -32.7160 C   0  0  0  0  0  0  0  0  0  0  0  0
   -5.9500   17.2400  -34.6020 C   0  0  0  0  0  0  0  0  0  0  0  0
   -6.1620   20.1550  -32.1860 C   0  0  0  0  0  0  0  0  0  0  0  0
   -5.3830   21.2490  -31.8010 C   0  0  0  0  0  0  0  0  0  0  0  0
   -7.9149   24.3397  -32.3618 H   0  0  0  0  0  0  0  0  0  0  0  0
   -9.3979   23.3259  -32.9966 H   0  0  0  0  0  0  0  0  0  0  0  0
   -9.3141   20.9657  -30.3508 H   0  0  0  0  0  0  0  0  0  0  0  0
  -10.0738   21.4470  -31.9058 H   0  0  0  0  0  0  0  0  0  0  0  0
   -8.6058   20.4117  -31.9058 H   0  0  0  0  0  0  0  0  0  0  0  0
   -5.3220   25.6620  -28.7240 H   0  0  0  0  0  0  0  0  0  0  0  0
   -5.7390   23.9250  -28.5850 H   0  0  0  0  0  0  0  0  0  0  0  0
   -2.6184   23.0242  -31.9157 H   0  0  0  0  0  0  0  0  0  0  0  0
   -2.4418   20.5726  -33.3861 H   0  0  0  0  0  0  0  0  0  0  0  0
   -3.7723   18.5568  -34.0776 H   0  0  0  0  0  0  0  0  0  0  0  0
   -7.4178   17.7016  -31.6295 H   0  0  0  0  0  0  0  0  0  0  0  0
   -8.3750   18.3647  -32.9973 H   0  0  0  0  0  0  0  0  0  0  0  0
   -7.8870   16.6360  -32.9973 H   0  0  0  0  0  0  0  0  0  0  0  0
   -5.4679   16.3015  -34.2908 H   0  0  0  0  0  0  0  0  0  0  0  0
   -6.8426   17.0119  -35.2031 H   0  0  0  0  0  0  0  0  0  0  0  0
   -5.2448   17.8328  -35.2031 H   0  0  0  0  0  0  0  0  0  0  0  0
   -7.2062   20.0645  -31.8520 H   0  0  0  0  0  0  0  0  0  0  0  0
  1  2  2  0
  2  3  1  0
  2  4  1  0
  4  5  2  0
  4  6  1  0
  6  7  1  0
  7  8  1  0
  8  9  1  0
  8 10  2  0
  7 11  2  0
 11 12  1  0
 12 13  2  0
 13 14  1  0
 14 15  2  0
 15 16  1  0
 16 17  1  0
 16 18  1  0
 15 19  1  0
 19 20  2  0
 20  6  1  0
 20 12  1  0
  1 21  1  0
  1 22  1  0
  3 23  1  0
  3 24  1  0
  3 25  1  0
  9 26  1  0
  9 27  1  0
 11 28  1  0
 13 29  1  0
 14 30  1  0
 17 31  1  0
 17 32  1  0
 17 33  1  0
 18 34  1  0
 18 35  1  0
 18 36  1  0
 19 37  1  0
M  END
>  <UniqueID>  (90) 
89

>  <SMILES>  (90) 
C=C(C)C(=O)n1c(C(N)=O)cc2ccc(N(C)C)cc21

>  <Energy>  (90) 
77.6170878798859

>  <Genealogy>  (90) 
C=C(C)C(=O)n1c(C(N)=O)cc2ccc(N(C)C)cc21 (3D coordinates assigned)
C=C(C)C(=O)n1c(C(N)=O)cc2ccc(N(C)C)cc21 (optimized conformer: 77.6170878798859 kcal/mol)

>  <smiles>  (90) 
C=C(C)C(=O)n1c(C(N)=O)cc2ccc(N(C)C)cc21

>  <score_type>  (90) 
oracle

>  <origin>  (90) 
adg

>  <m_score__min__energy>  (90) 
-8.4000000000000004

>  <m_primary>  (90) 
energy

$$$$
92:0
     RDKit          3D

 34 35  0  0  0  0  0  0  0  0999 V2000
   -4.7140   15.4840  -32.6320 C   0  0  0  0  0  0  0  0  0  0  0  0
   -5.2100   15.7680  -33.9880 N   0  0  0  0  0  0  0  0  0  0  0  0
   -4.4000   16.8420  -34.5930 C   0  0  0  0  0  0  0  0  0  0  0  0
   -6.6350   16.1520  -33.9340 C   0  0  0  0  0  0  0  0  0  0  0  0
   -6.7750   17.5200  -33.4180 C   0  0  0  0  0  0  0  0  0  0  0  0
   -6.8870   18.6420  -32.9920 C   0  0  0  0  0  0  0  0  0  0  0  0
   -7.0220   19.9800  -32.4830 C   0  0  0  0  0  0  0  0  0  0  0  0
   -8.3110   20.5310  -32.2900 C   0  0  0  0  0  0  0  0  0  0  0  0
   -8.4580   21.8340  -31.7820 C   0  0  0  0  0  0  0  0  0  0  0  0
   -7.3030   22.5530  -31.4860 C   0  0  0  0  0  0  0  0  0  0  0  0
   -7.1590   23.8160  -30.9610 C   0  0  0  0  0  0  0  0  0  0  0  0
   -5.7840   24.0210  -30.8650 C   0  0  0  0  0  0  0  0  0  0  0  0
   -5.1830   25.2990  -30.4270 C   0  0  0  0  0  0  0  0  0  0  0  0
   -3.8720   25.6730  -30.8420 N   0  0  0  0  0  0  0  0  0  0  0  0
   -5.8550   26.0940  -29.7180 O   0  0  0  0  0  0  0  0  0  0  0  0
   -5.1030   22.9250  -31.3050 N   0  0  0  0  0  0  0  0  0  0  0  0
   -3.6840   22.7020  -31.2780 C   0  0  0  0  0  0  0  0  0  0  0  0
   -3.1180   22.0870  -32.2200 O   0  0  0  0  0  0  0  0  0  0  0  0
   -2.9260   23.1400  -30.1990 O   0  0  0  0  0  0  0  0  0  0  0  0
   -6.0480   22.0350  -31.6850 C   0  0  0  0  0  0  0  0  0  0  0  0
   -5.8730   20.7340  -32.1730 C   0  0  0  0  0  0  0  0  0  0  0  0
   -5.4198   15.8881  -31.8913 H   0  0  0  0  0  0  0  0  0  0  0  0
   -4.6220   14.3964  -32.4955 H   0  0  0  0  0  0  0  0  0  0  0  0
   -3.7295   15.9552  -32.4955 H   0  0  0  0  0  0  0  0  0  0  0  0
   -3.9425   17.4486  -33.7976 H   0  0  0  0  0  0  0  0  0  0  0  0
   -3.6096   16.3984  -35.2163 H   0  0  0  0  0  0  0  0  0  0  0  0
   -5.0438   17.4800  -35.2163 H   0  0  0  0  0  0  0  0  0  0  0  0
   -7.0634   16.1002  -34.9458 H   0  0  0  0  0  0  0  0  0  0  0  0
   -7.1668   15.4606  -33.2638 H   0  0  0  0  0  0  0  0  0  0  0  0
   -9.2028   19.9369  -32.5387 H   0  0  0  0  0  0  0  0  0  0  0  0
   -9.4546   22.2717  -31.6234 H   0  0  0  0  0  0  0  0  0  0  0  0
   -7.9591   24.5156  -30.6772 H   0  0  0  0  0  0  0  0  0  0  0  0
   -3.0280   25.2970  -30.3580 H   0  0  0  0  0  0  0  0  0  0  0  0
   -4.8663   20.3125  -32.3104 H   0  0  0  0  0  0  0  0  0  0  0  0
  1  2  1  0
  2  3  1  0
  2  4  1  0
  4  5  1  0
  5  6  3  0
  6  7  1  0
  7  8  2  0
  8  9  1  0
  9 10  2  0
 10 11  1  0
 11 12  2  0
 12 13  1  0
 13 14  1  0
 13 15  2  0
 12 16  1  0
 16 17  1  0
 17 18  2  0
 17 19  1  0
 16 20  1  0
 20 21  2  0
 21  7  1  0
 20 10  1  0
  1 22  1  0
  1 23  1  0
  1 24  1  0
  3 25  1  0
  3 26  1  0
  3 27  1  0
  4 28  1  0
  4 29  1  0
  8 30  1  0
  9 31  1  0
 11 32  1  0
 14 33  1  0
 21 34  1  0
M  CHG  2  14  -1  19  -1
M  END
>  <UniqueID>  (91) 
90

>  <SMILES>  (91) 
CN(C)CC#Cc1ccc2cc(C([NH-])=O)n(C(=O)[O-])c2c1

>  <Energy>  (91) 
69.8273344878312

>  <Genealogy>  (91) 
CN(C)CC#Cc1ccc2cc(C([NH-])=O)n(C(=O)[O-])c2c1 (protonated)
CN(C)CC#Cc1ccc2cc(C([NH-])=O)n(C(=O)[O-])c2c1 (3D coordinates assigned)
CN(C)CC#Cc1ccc2cc(C([NH-])=O)n(C(=O)[O-])c2c1 (optimized conformer: 69.8273344878312 kcal/mol)

>  <smiles>  (91) 
CN(C)CC#Cc1ccc2cc(C(N)=O)n(C(=O)O)c2c1

>  <score_type>  (91) 
oracle

>  <origin>  (91) 
adg

>  <m_score__min__energy>  (91) 
-10.93

>  <m_primary>  (91) 
energy

$$$$
93:0
     RDKit          3D

 37 38  0  0  0  0  0  0  0  0999 V2000
   -7.0400   18.5140  -33.0650 C   0  0  0  0  0  0  0  0  0  0  0  0
   -7.1650   19.8710  -32.4380 C   0  0  0  0  0  0  0  0  0  0  0  0
   -8.4450   20.3990  -32.1390 C   0  0  0  0  0  0  0  0  0  0  0  0
   -8.5770   21.6880  -31.5970 C   0  0  0  0  0  0  0  0  0  0  0  0
   -7.4170   22.4230  -31.3710 C   0  0  0  0  0  0  0  0  0  0  0  0
   -7.2590   23.7010  -30.8860 C   0  0  0  0  0  0  0  0  0  0  0  0
   -5.8850   23.9310  -30.8870 C   0  0  0  0  0  0  0  0  0  0  0  0
   -5.2680   25.1630  -30.3540 C   0  0  0  0  0  0  0  0  0  0  0  0
   -4.0200   25.6370  -30.8550 N   0  0  0  0  0  0  0  0  0  0  0  0
   -5.8260   25.7810  -29.4090 O   0  0  0  0  0  0  0  0  0  0  0  0
   -5.2190   22.8410  -31.3660 N   0  0  0  0  0  0  0  0  0  0  0  0
   -3.8090   22.7020  -31.6040 C   0  0  0  0  0  0  0  0  0  0  0  0
   -3.4050   22.0610  -32.6120 O   0  0  0  0  0  0  0  0  0  0  0  0
   -2.8990   23.2610  -30.6960 O   0  0  0  0  0  0  0  0  0  0  0  0
   -2.9910   23.1700  -29.3000 C   0  0  0  0  0  0  0  0  0  0  0  0
   -3.7200   22.2950  -28.7600 O   0  0  0  0  0  0  0  0  0  0  0  0
   -2.2440   24.1440  -28.4790 C   0  0  0  0  0  0  0  0  0  0  0  0
   -2.0570   25.2950  -28.9600 O   0  0  0  0  0  0  0  0  0  0  0  0
   -1.7310   23.8390  -27.1610 N   0  0  0  0  0  0  0  0  0  0  0  0
   -1.5390   22.4570  -26.7090 C   0  0  0  0  0  0  0  0  0  0  0  0
   -1.3090   24.9460  -26.2960 C   0  0  0  0  0  0  0  0  0  0  0  0
   -6.1700   21.9250  -31.6530 C   0  0  0  0  0  0  0  0  0  0  0  0
   -6.0110   20.6510  -32.2120 C   0  0  0  0  0  0  0  0  0  0  0  0
   -6.9697   17.7507  -32.2761 H   0  0  0  0  0  0  0  0  0  0  0  0
   -7.9237   18.3157  -33.6893 H   0  0  0  0  0  0  0  0  0  0  0  0
   -6.1350   18.4805  -33.6893 H   0  0  0  0  0  0  0  0  0  0  0  0
   -9.3432   19.7944  -32.3329 H   0  0  0  0  0  0  0  0  0  0  0  0
   -9.5670   22.1039  -31.3584 H   0  0  0  0  0  0  0  0  0  0  0  0
   -8.0504   24.3945  -30.5653 H   0  0  0  0  0  0  0  0  0  0  0  0
   -3.1180   25.2950  -30.4580 H   0  0  0  0  0  0  0  0  0  0  0  0
   -1.5350   22.4281  -25.6094 H   0  0  0  0  0  0  0  0  0  0  0  0
   -2.3586   21.8296  -27.0893 H   0  0  0  0  0  0  0  0  0  0  0  0
   -0.5794   22.0768  -27.0893 H   0  0  0  0  0  0  0  0  0  0  0  0
   -1.4214   24.6513  -25.2422 H   0  0  0  0  0  0  0  0  0  0  0  0
   -0.2554   25.1885  -26.4986 H   0  0  0  0  0  0  0  0  0  0  0  0
   -1.9338   25.8284  -26.4986 H   0  0  0  0  0  0  0  0  0  0  0  0
   -5.0122   20.2681  -32.4684 H   0  0  0  0  0  0  0  0  0  0  0  0
  1  2  1  0
  2  3  2  0
  3  4  1  0
  4  5  2  0
  5  6  1  0
  6  7  2  0
  7  8  1  0
  8  9  1  0
  8 10  2  0
  7 11  1  0
 11 12  1  0
 12 13  2  0
 12 14  1  0
 14 15  1  0
 15 16  2  0
 15 17  1  0
 17 18  2  0
 17 19  1  0
 19 20  1  0
 19 21  1  0
 11 22  1  0
 22 23  2  0
 23  2  1  0
 22  5  1  0
  1 24  1  0
  1 25  1  0
  1 26  1  0
  3 27  1  0
  4 28  1  0
  6 29  1  0
  9 30  1  0
 20 31  1  0
 20 32  1  0
 20 33  1  0
 21 34  1  0
 21 35  1  0
 21 36  1  0
 23 37  1  0
M  CHG  1   9  -1
M  END
>  <UniqueID>  (92) 
91

>  <SMILES>  (92) 
Cc1ccc2cc(C([NH-])=O)n(C(=O)OC(=O)C(=O)N(C)C)c2c1

>  <Energy>  (92) 
76.20538232689168

>  <Genealogy>  (92) 
Cc1ccc2cc(C([NH-])=O)n(C(=O)OC(=O)C(=O)N(C)C)c2c1 (protonated)
Cc1ccc2cc(C([NH-])=O)n(C(=O)OC(=O)C(=O)N(C)C)c2c1 (3D coordinates assigned)
Cc1ccc2cc(C([NH-])=O)n(C(=O)OC(=O)C(=O)N(C)C)c2c1 (optimized conformer: 76.20538232689168 kcal/mol)

>  <smiles>  (92) 
Cc1ccc2cc(C(N)=O)n(C(=O)OC(=O)C(=O)N(C)C)c2c1

>  <score_type>  (92) 
oracle

>  <origin>  (92) 
adg

>  <m_score__min__energy>  (92) 
-10.09

>  <m_primary>  (92) 
energy

$$$$
94:0
     RDKit          3D

 40 41  0  0  0  0  0  0  0  0999 V2000
   -4.2620   19.6860  -33.4710 C   0  0  0  0  0  0  0  0  0  0  0  0
   -3.4200   20.5430  -32.6310 N   0  0  0  0  0  0  0  0  0  0  0  0
   -2.1870   21.0680  -33.1610 C   0  0  0  0  0  0  0  0  0  0  0  0
   -1.5230   21.9110  -32.4960 O   0  0  0  0  0  0  0  0  0  0  0  0
   -1.7130   20.6290  -34.4040 O   0  0  0  0  0  0  0  0  0  0  0  0
   -0.4050   20.0970  -34.6040 C   0  0  0  0  0  0  0  0  0  0  0  0
    0.5720   21.1990  -35.0070 C   0  0  0  0  0  0  0  0  0  0  0  0
   -0.0750   22.4400  -34.9680 O   0  0  0  0  0  0  0  0  0  0  0  0
   -3.9130   20.9840  -31.3520 C   0  0  0  0  0  0  0  0  0  0  0  0
   -3.3590   20.5800  -30.2930 O   0  0  0  0  0  0  0  0  0  0  0  0
   -5.0260   21.8920  -31.2600 N   0  0  0  0  0  0  0  0  0  0  0  0
   -4.9800   23.2340  -31.0350 C   0  0  0  0  0  0  0  0  0  0  0  0
   -3.7730   24.0090  -30.6800 C   0  0  0  0  0  0  0  0  0  0  0  0
   -2.5010   23.3750  -30.5330 N   0  0  0  0  0  0  0  0  0  0  0  0
   -3.8760   25.2440  -30.4570 O   0  0  0  0  0  0  0  0  0  0  0  0
   -6.2490   23.7950  -31.1450 C   0  0  0  0  0  0  0  0  0  0  0  0
   -7.0860   22.7420  -31.4410 C   0  0  0  0  0  0  0  0  0  0  0  0
   -8.4610   22.7230  -31.6500 C   0  0  0  0  0  0  0  0  0  0  0  0
   -9.0630   21.4900  -31.9530 C   0  0  0  0  0  0  0  0  0  0  0  0
   -8.2840   20.3100  -32.0720 C   0  0  0  0  0  0  0  0  0  0  0  0
   -8.9490   18.9850  -32.3430 C   0  0  0  0  0  0  0  0  0  0  0  0
   -8.0550   18.1520  -32.9880 F   0  0  0  0  0  0  0  0  0  0  0  0
   -9.3490   18.3870  -31.1600 F   0  0  0  0  0  0  0  0  0  0  0  0
  -10.0660   19.1540  -33.1420 F   0  0  0  0  0  0  0  0  0  0  0  0
   -6.8910   20.3700  -31.8390 C   0  0  0  0  0  0  0  0  0  0  0  0
   -6.3220   21.6060  -31.5130 C   0  0  0  0  0  0  0  0  0  0  0  0
   -4.8891   19.0478  -32.8312 H   0  0  0  0  0  0  0  0  0  0  0  0
   -4.9050   20.3130  -34.1061 H   0  0  0  0  0  0  0  0  0  0  0  0
   -3.6237   19.0541  -34.1061 H   0  0  0  0  0  0  0  0  0  0  0  0
   -0.0582   19.6313  -33.6697 H   0  0  0  0  0  0  0  0  0  0  0  0
   -0.4472   19.3505  -35.4108 H   0  0  0  0  0  0  0  0  0  0  0  0
    1.4220   21.2076  -34.3088 H   0  0  0  0  0  0  0  0  0  0  0  0
    0.9348   21.0090  -36.0279 H   0  0  0  0  0  0  0  0  0  0  0  0
   -0.9820   22.2670  -34.6070 H   0  0  0  0  0  0  0  0  0  0  0  0
   -2.4130   22.3350  -30.5240 H   0  0  0  0  0  0  0  0  0  0  0  0
   -1.6520   23.9480  -30.3340 H   0  0  0  0  0  0  0  0  0  0  0  0
   -6.5245   24.8528  -31.0219 H   0  0  0  0  0  0  0  0  0  0  0  0
   -9.0583   23.6441  -31.5803 H   0  0  0  0  0  0  0  0  0  0  0  0
  -10.1520   21.4389  -32.0998 H   0  0  0  0  0  0  0  0  0  0  0  0
   -6.2688   19.4659  -31.9123 H   0  0  0  0  0  0  0  0  0  0  0  0
  1  2  1  0
  2  3  1  0
  3  4  2  0
  3  5  1  0
  5  6  1  0
  6  7  1  0
  7  8  1  0
  2  9  1  0
  9 10  2  0
  9 11  1  0
 11 12  1  0
 12 13  1  0
 13 14  1  0
 13 15  2  0
 12 16  2  0
 16 17  1  0
 17 18  2  0
 18 19  1  0
 19 20  2  0
 20 21  1  0
 21 22  1  0
 21 23  1  0
 21 24  1  0
 20 25  1  0
 25 26  2  0
 26 11  1  0
 26 17  1  0
  1 27  1  0
  1 28  1  0
  1 29  1  0
  6 30  1  0
  6 31  1  0
  7 32  1  0
  7 33  1  0
  8 34  1  0
 14 35  1  0
 14 36  1  0
 16 37  1  0
 18 38  1  0
 19 39  1  0
 25 40  1  0
M  END
>  <UniqueID>  (93) 
92

>  <SMILES>  (93) 
CN(C(=O)OCCO)C(=O)n1c(C(N)=O)cc2ccc(C(F)(F)F)cc21

>  <Energy>  (93) 
74.75501658500389

>  <Genealogy>  (93) 
CN(C(=O)OCCO)C(=O)n1c(C(N)=O)cc2ccc(C(F)(F)F)cc21 (3D coordinates assigned)
CN(C(=O)OCCO)C(=O)n1c(C(N)=O)cc2ccc(C(F)(F)F)cc21 (optimized conformer: 74.75501658500389 kcal/mol)

>  <smiles>  (93) 
CN(C(=O)OCCO)C(=O)n1c(C(N)=O)cc2ccc(C(F)(F)F)cc21

>  <score_type>  (93) 
oracle

>  <origin>  (93) 
adg

>  <m_score__min__energy>  (93) 
-8.3599999999999994

>  <m_primary>  (93) 
energy

$$$$
95:0
     RDKit          3D

 36 37  0  0  0  0  0  0  0  0999 V2000
   -1.2160   25.7270  -28.1540 C   0  0  0  0  0  0  0  0  0  0  0  0
   -1.9110   25.2090  -29.3220 N   0  0  0  0  0  0  0  0  0  0  0  0
   -1.9460   23.8160  -29.6310 C   0  0  0  0  0  0  0  0  0  0  0  0
   -0.8590   23.1870  -29.7440 O   0  0  0  0  0  0  0  0  0  0  0  0
   -3.1780   23.1710  -29.8010 O   0  0  0  0  0  0  0  0  0  0  0  0
   -3.6630   22.6650  -31.0140 C   0  0  0  0  0  0  0  0  0  0  0  0
   -2.8820   22.1370  -31.8520 O   0  0  0  0  0  0  0  0  0  0  0  0
   -5.0700   22.7370  -31.2970 N   0  0  0  0  0  0  0  0  0  0  0  0
   -5.9200   23.7660  -31.0180 C   0  0  0  0  0  0  0  0  0  0  0  0
   -5.5340   25.1020  -30.5220 C   0  0  0  0  0  0  0  0  0  0  0  0
   -4.2640   25.6640  -30.8420 N   0  0  0  0  0  0  0  0  0  0  0  0
   -6.3550   25.7790  -29.8470 O   0  0  0  0  0  0  0  0  0  0  0  0
   -7.2300   23.4160  -31.3390 C   0  0  0  0  0  0  0  0  0  0  0  0
   -7.1540   22.1360  -31.8370 C   0  0  0  0  0  0  0  0  0  0  0  0
   -8.1610   21.2970  -32.2970 C   0  0  0  0  0  0  0  0  0  0  0  0
   -7.8030   20.0090  -32.7240 C   0  0  0  0  0  0  0  0  0  0  0  0
   -6.4500   19.5680  -32.6790 C   0  0  0  0  0  0  0  0  0  0  0  0
   -6.0920   18.2290  -33.1120 N   0  0  0  0  0  0  0  0  0  0  0  0
   -6.0900   17.1110  -32.1590 C   0  0  0  0  0  0  0  0  0  0  0  0
   -5.7270   17.9690  -34.5100 C   0  0  0  0  0  0  0  0  0  0  0  0
   -5.4570   20.4630  -32.2000 C   0  0  0  0  0  0  0  0  0  0  0  0
   -5.8420   21.7470  -31.8000 C   0  0  0  0  0  0  0  0  0  0  0  0
   -1.7085   25.3599  -27.2415 H   0  0  0  0  0  0  0  0  0  0  0  0
   -0.1702   25.3863  -28.1686 H   0  0  0  0  0  0  0  0  0  0  0  0
   -1.2437   26.8266  -28.1686 H   0  0  0  0  0  0  0  0  0  0  0  0
   -3.4020   25.0750  -30.8500 H   0  0  0  0  0  0  0  0  0  0  0  0
   -8.1332   24.0324  -31.2195 H   0  0  0  0  0  0  0  0  0  0  0  0
   -9.2083   21.6323  -32.3257 H   0  0  0  0  0  0  0  0  0  0  0  0
   -8.5811   19.3284  -33.0999 H   0  0  0  0  0  0  0  0  0  0  0  0
   -6.0907   17.5047  -31.1319 H   0  0  0  0  0  0  0  0  0  0  0  0
   -6.9870   16.4940  -32.3158 H   0  0  0  0  0  0  0  0  0  0  0  0
   -5.1908   16.4972  -32.3158 H   0  0  0  0  0  0  0  0  0  0  0  0
   -4.8315   17.3311  -34.5426 H   0  0  0  0  0  0  0  0  0  0  0  0
   -6.5591   17.4590  -35.0175 H   0  0  0  0  0  0  0  0  0  0  0  0
   -5.5169   18.9221  -35.0175 H   0  0  0  0  0  0  0  0  0  0  0  0
   -4.4033   20.1520  -32.1445 H   0  0  0  0  0  0  0  0  0  0  0  0
  1  2  1  0
  2  3  1  0
  3  4  2  0
  3  5  1  0
  5  6  1  0
  6  7  2  0
  6  8  1  0
  8  9  1  0
  9 10  1  0
 10 11  1  0
 10 12  2  0
  9 13  2  0
 13 14  1  0
 14 15  2  0
 15 16  1  0
 16 17  2  0
 17 18  1  0
 18 19  1  0
 18 20  1  0
 17 21  1  0
 21 22  2  0
 22  8  1  0
 22 14  1  0
  1 23  1  0
  1 24  1  0
  1 25  1  0
 11 26  1  0
 13 27  1  0
 15 28  1  0
 16 29  1  0
 19 30  1  0
 19 31  1  0
 19 32  1  0
 20 33  1  0
 20 34  1  0
 20 35  1  0
 21 36  1  0
M  CHG  2   2  -1  11  -1
M  END
>  <UniqueID>  (94) 
93

>  <SMILES>  (94) 
C[N-]C(=O)OC(=O)n1c(C([NH-])=O)cc2ccc(N(C)C)cc21

>  <Energy>  (94) 
74.21243548363725

>  <Genealogy>  (94) 
C[N-]C(=O)OC(=O)n1c(C([NH-])=O)cc2ccc(N(C)C)cc21 (protonated)
C[N-]C(=O)OC(=O)n1c(C([NH-])=O)cc2ccc(N(C)C)cc21 (3D coordinates assigned)
C[N-]C(=O)OC(=O)n1c(C([NH-])=O)cc2ccc(N(C)C)cc21 (optimized conformer: 74.21243548363725 kcal/mol)

>  <smiles>  (94) 
CNC(=O)OC(=O)n1c(C(N)=O)cc2ccc(N(C)C)cc21

>  <score_type>  (94) 
oracle

>  <origin>  (94) 
adg

>  <m_score__min__energy>  (94) 
-10.93

>  <m_primary>  (94) 
energy

$$$$
96:0
     RDKit          3D

 43 45  0  0  0  0  0  0  0  0999 V2000
   -3.6610   25.2980  -30.4700 N   0  0  0  0  0  0  0  0  0  0  0  0
   -5.0830   25.3110  -30.5800 C   0  0  0  0  0  0  0  0  0  0  0  0
   -5.6980   26.4060  -30.4970 O   0  0  0  0  0  0  0  0  0  0  0  0
   -5.8180   24.0390  -30.7450 C   0  0  0  0  0  0  0  0  0  0  0  0
   -7.1840   23.9070  -30.5070 C   0  0  0  0  0  0  0  0  0  0  0  0
   -7.4940   22.6150  -30.8670 C   0  0  0  0  0  0  0  0  0  0  0  0
   -8.7150   21.9490  -30.8430 C   0  0  0  0  0  0  0  0  0  0  0  0
   -8.7420   20.6080  -31.2620 C   0  0  0  0  0  0  0  0  0  0  0  0
   -7.5530   19.9510  -31.6690 C   0  0  0  0  0  0  0  0  0  0  0  0
   -7.6000   18.5240  -32.1530 C   0  0  0  0  0  0  0  0  0  0  0  0
   -6.7600   17.7210  -31.4000 F   0  0  0  0  0  0  0  0  0  0  0  0
   -8.8930   18.0480  -32.0450 F   0  0  0  0  0  0  0  0  0  0  0  0
   -7.1990   18.4460  -33.4760 F   0  0  0  0  0  0  0  0  0  0  0  0
   -6.3360   20.6710  -31.7010 C   0  0  0  0  0  0  0  0  0  0  0  0
   -6.3420   22.0110  -31.2970 C   0  0  0  0  0  0  0  0  0  0  0  0
   -5.3010   22.8710  -31.2240 N   0  0  0  0  0  0  0  0  0  0  0  0
   -3.9330   22.5770  -31.5480 C   0  0  0  0  0  0  0  0  0  0  0  0
   -3.6060   22.3580  -32.7470 O   0  0  0  0  0  0  0  0  0  0  0  0
   -2.9720   22.5640  -30.5290 O   0  0  0  0  0  0  0  0  0  0  0  0
   -3.0630   21.8200  -29.3460 C   0  0  0  0  0  0  0  0  0  0  0  0
   -3.0440   20.5590  -29.3610 O   0  0  0  0  0  0  0  0  0  0  0  0
   -3.2200   22.5410  -28.0390 C   0  0  0  0  0  0  0  0  0  0  0  0
   -3.3580   24.0040  -28.2350 N   0  0  0  0  0  0  0  0  0  0  0  0
   -2.2580   24.7570  -27.6070 C   0  0  0  0  0  0  0  0  0  0  0  0
   -2.7000   25.1320  -26.1970 C   0  0  0  0  0  0  0  0  0  0  0  0
   -4.2060   24.9370  -26.1760 C   0  0  0  0  0  0  0  0  0  0  0  0
   -4.5790   24.5120  -27.5900 C   0  0  0  0  0  0  0  0  0  0  0  0
   -3.0830   24.6610  -31.0610 H   0  0  0  0  0  0  0  0  0  0  0  0
   -7.8695   24.6726  -30.1147 H   0  0  0  0  0  0  0  0  0  0  0  0
   -9.6311   22.4564  -30.5064 H   0  0  0  0  0  0  0  0  0  0  0  0
   -9.6966   20.0615  -31.2744 H   0  0  0  0  0  0  0  0  0  0  0  0
   -5.4058   20.1887  -32.0358 H   0  0  0  0  0  0  0  0  0  0  0  0
   -4.1182   22.1631  -27.5286 H   0  0  0  0  0  0  0  0  0  0  0  0
   -2.3187   22.3586  -27.4354 H   0  0  0  0  0  0  0  0  0  0  0  0
   -3.3980   24.2150  -29.2620 H   0  0  0  0  0  0  0  0  0  0  0  0
   -1.3537   24.1323  -27.5626 H   0  0  0  0  0  0  0  0  0  0  0  0
   -2.0258   25.6596  -28.1912 H   0  0  0  0  0  0  0  0  0  0  0  0
   -2.2176   24.4772  -25.4564 H   0  0  0  0  0  0  0  0  0  0  0  0
   -2.4196   26.1651  -25.9437 H   0  0  0  0  0  0  0  0  0  0  0  0
   -4.4827   24.1550  -25.4536 H   0  0  0  0  0  0  0  0  0  0  0  0
   -4.7328   25.8536  -25.8722 H   0  0  0  0  0  0  0  0  0  0  0  0
   -5.3426   23.7210  -27.5554 H   0  0  0  0  0  0  0  0  0  0  0  0
   -4.9908   25.3617  -28.1543 H   0  0  0  0  0  0  0  0  0  0  0  0
  1  2  1  0
  2  3  2  0
  2  4  1  0
  4  5  2  0
  5  6  1  0
  6  7  2  0
  7  8  1  0
  8  9  2  0
  9 10  1  0
 10 11  1  0
 10 12  1  0
 10 13  1  0
  9 14  1  0
 14 15  2  0
 15 16  1  0
 16 17  1  0
 17 18  2  0
 17 19  1  0
 19 20  1  0
 20 21  2  0
 20 22  1  0
 22 23  1  0
 23 24  1  0
 24 25  1  0
 25 26  1  0
 26 27  1  0
 16  4  1  0
 27 23  1  0
 15  6  1  0
  1 28  1  0
  5 29  1  0
  7 30  1  0
  8 31  1  0
 14 32  1  0
 22 33  1  0
 22 34  1  0
 23 35  1  0
 24 36  1  0
 24 37  1  0
 25 38  1  0
 25 39  1  0
 26 40  1  0
 26 41  1  0
 27 42  1  0
 27 43  1  0
M  CHG  2   1  -1  23   1
M  END
>  <UniqueID>  (95) 
94

>  <SMILES>  (95) 
[NH-]C(=O)c1cc2ccc(C(F)(F)F)cc2n1C(=O)OC(=O)C[NH+]1CCCC1

>  <Energy>  (95) 
87.45075499848804

>  <Genealogy>  (95) 
[NH-]C(=O)c1cc2ccc(C(F)(F)F)cc2n1C(=O)OC(=O)C[NH+]1CCCC1 (protonated)
[NH-]C(=O)c1cc2ccc(C(F)(F)F)cc2n1C(=O)OC(=O)C[NH+]1CCCC1 (3D coordinates assigned)
[NH-]C(=O)c1cc2ccc(C(F)(F)F)cc2n1C(=O)OC(=O)C[NH+]1CCCC1 (nonaromatic ring conformer: 87.45075499848804 kcal/mol)

>  <smiles>  (95) 
NC(=O)c1cc2ccc(C(F)(F)F)cc2n1C(=O)OC(=O)CN1CCCC1

>  <score_type>  (95) 
oracle

>  <origin>  (95) 
adg

>  <m_score__min__energy>  (95) 
-8.7799999999999994

>  <m_primary>  (95) 
energy

$$$$
