0:0
     RDKit          3D

 50 51  0  0  0  0  0  0  0  0999 V2000
   -0.4250   21.2420  -34.3600 C   0  0  0  0  0  0  0  0  0  0  0  0
   -0.4350   20.9690  -32.9120 N   0  0  0  0  0  0  0  0  0  0  0  0
    0.4200   19.8070  -32.6270 C   0  0  0  0  0  0  0  0  0  0  0  0
   -1.8110   20.7150  -32.4370 C   0  0  0  0  0  0  0  0  0  0  0  0
   -2.8180   21.1490  -33.4690 C   0  0  0  0  0  0  0  0  0  0  0  0
   -3.8400   21.9850  -33.2330 C   0  0  0  0  0  0  0  0  0  0  0  0
   -4.1220   22.6580  -31.9480 C   0  0  0  0  0  0  0  0  0  0  0  0
   -3.1560   22.9250  -31.1840 O   0  0  0  0  0  0  0  0  0  0  0  0
   -5.4590   22.9480  -31.5120 N   0  0  0  0  0  0  0  0  0  0  0  0
   -5.9050   24.0720  -30.8840 C   0  0  0  0  0  0  0  0  0  0  0  0
   -5.1210   25.3050  -30.6580 C   0  0  0  0  0  0  0  0  0  0  0  0
   -3.7140   25.2520  -30.4440 N   0  0  0  0  0  0  0  0  0  0  0  0
   -5.6980   26.4250  -30.6810 O   0  0  0  0  0  0  0  0  0  0  0  0
   -7.2460   23.9320  -30.5290 C   0  0  0  0  0  0  0  0  0  0  0  0
   -7.6070   22.6730  -30.9560 C   0  0  0  0  0  0  0  0  0  0  0  0
   -8.8290   22.0120  -30.8700 C   0  0  0  0  0  0  0  0  0  0  0  0
   -8.9130   20.7130  -31.3980 C   0  0  0  0  0  0  0  0  0  0  0  0
   -7.7760   20.0960  -31.9810 C   0  0  0  0  0  0  0  0  0  0  0  0
   -7.8890   18.7210  -32.5840 C   0  0  0  0  0  0  0  0  0  0  0  0
   -6.6190   17.9040  -32.2800 C   0  0  0  0  0  0  0  0  0  0  0  0
   -5.8760   17.4580  -33.4800 N   0  0  0  0  0  0  0  0  0  0  0  0
   -4.5880   16.8180  -33.1680 C   0  0  0  0  0  0  0  0  0  0  0  0
   -5.7510   18.4910  -34.5230 C   0  0  0  0  0  0  0  0  0  0  0  0
   -5.3430   17.9530  -35.7340 F   0  0  0  0  0  0  0  0  0  0  0  0
   -6.5550   20.8000  -32.0530 C   0  0  0  0  0  0  0  0  0  0  0  0
   -6.5070   22.0970  -31.5350 C   0  0  0  0  0  0  0  0  0  0  0  0
   -0.3852   22.3284  -34.5280 H   0  0  0  0  0  0  0  0  0  0  0  0
    0.4564   20.7678  -34.8164 H   0  0  0  0  0  0  0  0  0  0  0  0
   -1.3387   20.8336  -34.8164 H   0  0  0  0  0  0  0  0  0  0  0  0
    0.5141   19.6792  -31.5385 H   0  0  0  0  0  0  0  0  0  0  0  0
   -0.0307   18.9040  -33.0647 H   0  0  0  0  0  0  0  0  0  0  0  0
    1.4162   19.9686  -33.0647 H   0  0  0  0  0  0  0  0  0  0  0  0
   -1.9334   19.6392  -32.2429 H   0  0  0  0  0  0  0  0  0  0  0  0
   -1.9790   21.2903  -31.5146 H   0  0  0  0  0  0  0  0  0  0  0  0
   -2.7076   20.7522  -34.4890 H   0  0  0  0  0  0  0  0  0  0  0  0
   -4.5273   22.1870  -34.0677 H   0  0  0  0  0  0  0  0  0  0  0  0
   -3.0570   25.0490  -31.2300 H   0  0  0  0  0  0  0  0  0  0  0  0
   -7.8808   24.6700  -30.0168 H   0  0  0  0  0  0  0  0  0  0  0  0
   -9.7017   22.4919  -30.4031 H   0  0  0  0  0  0  0  0  0  0  0  0
   -9.8685   20.1694  -31.3592 H   0  0  0  0  0  0  0  0  0  0  0  0
   -8.7630   18.2072  -32.1572 H   0  0  0  0  0  0  0  0  0  0  0  0
   -8.0050   18.8141  -33.6739 H   0  0  0  0  0  0  0  0  0  0  0  0
   -5.9470   18.5268  -31.6712 H   0  0  0  0  0  0  0  0  0  0  0  0
   -6.9493   16.9931  -31.7592 H   0  0  0  0  0  0  0  0  0  0  0  0
   -4.4640   16.7564  -32.0767 H   0  0  0  0  0  0  0  0  0  0  0  0
   -4.5683   15.8053  -33.5970 H   0  0  0  0  0  0  0  0  0  0  0  0
   -3.7690   17.4140  -33.5970 H   0  0  0  0  0  0  0  0  0  0  0  0
   -6.7277   18.9780  -34.6607 H   0  0  0  0  0  0  0  0  0  0  0  0
   -4.9904   19.2157  -34.1971 H   0  0  0  0  0  0  0  0  0  0  0  0
   -5.6641   20.3397  -32.5052 H   0  0  0  0  0  0  0  0  0  0  0  0
  1  2  1  0
  2  3  1  0
  2  4  1  0
  4  5  1  0
  5  6  2  3
  6  7  1  0
  7  8  2  0
  7  9  1  0
  9 10  1  0
 10 11  1  0
 11 12  1  0
 11 13  2  0
 10 14  2  0
 14 15  1  0
 15 16  2  0
 16 17  1  0
 17 18  2  0
 18 19  1  0
 19 20  1  0
 20 21  1  0
 21 22  1  0
 21 23  1  0
 23 24  1  0
 18 25  1  0
 25 26  2  0
 26  9  1  0
 26 15  1  0
  1 27  1  0
  1 28  1  0
  1 29  1  0
  3 30  1  0
  3 31  1  0
  3 32  1  0
  4 33  1  0
  4 34  1  0
  5 35  1  0
  6 36  1  0
 12 37  1  0
 14 38  1  0
 16 39  1  0
 17 40  1  0
 19 41  1  0
 19 42  1  0
 20 43  1  0
 20 44  1  0
 22 45  1  0
 22 46  1  0
 22 47  1  0
 23 48  1  0
 23 49  1  0
 25 50  1  0
M  CHG  1  12  -1
M  END
>  <UniqueID>  (1) 
1

>  <SMILES>  (1) 
CN(C)CC=CC(=O)n1c(C([NH-])=O)cc2ccc(CCN(C)CF)cc21

>  <Energy>  (1) 
91.49447350983934

>  <Genealogy>  (1) 
CN(C)CC=CC(=O)n1c(C([NH-])=O)cc2ccc(CCN(C)CF)cc21 (protonated)
CN(C)CC=CC(=O)n1c(C([NH-])=O)cc2ccc(CCN(C)CF)cc21 (3D coordinates assigned)
CN(C)CC=CC(=O)n1c(C([NH-])=O)cc2ccc(CCN(C)CF)cc21 (optimized conformer: 91.49447350983934 kcal/mol)

>  <smiles>  (1) 
CN(C)CC=CC(=O)n1c(C(N)=O)cc2ccc(CCN(C)CF)cc21

>  <score_type>  (1) 
oracle

>  <origin>  (1) 
adg

>  <m_score__min__energy>  (1) 
-10.6

>  <m_primary>  (1) 
energy

$$$$
1:0
     RDKit          3D

 51 53  0  0  0  0  0  0  0  0999 V2000
   -3.1690   24.1580  -29.8590 C   0  0  0  0  0  0  0  0  0  0  0  0
   -3.8660   25.2370  -30.4730 O   0  0  0  0  0  0  0  0  0  0  0  0
   -5.2570   25.2440  -30.6340 C   0  0  0  0  0  0  0  0  0  0  0  0
   -5.9780   26.0520  -29.9810 O   0  0  0  0  0  0  0  0  0  0  0  0
   -5.8950   24.2660  -31.5780 C   0  0  0  0  0  0  0  0  0  0  0  0
   -7.2680   23.8090  -31.0770 C   0  0  0  0  0  0  0  0  0  0  0  0
   -7.5400   22.3660  -31.4160 C   0  0  0  0  0  0  0  0  0  0  0  0
   -8.7940   21.7900  -31.0910 C   0  0  0  0  0  0  0  0  0  0  0  0
   -9.0580   20.4400  -31.3800 C   0  0  0  0  0  0  0  0  0  0  0  0
   -8.0580   19.6990  -32.0040 C   0  0  0  0  0  0  0  0  0  0  0  0
   -8.0420   18.3730  -32.3660 C   0  0  0  0  0  0  0  0  0  0  0  0
   -6.7820   18.1610  -32.9150 C   0  0  0  0  0  0  0  0  0  0  0  0
   -6.3550   16.8720  -33.4770 C   0  0  0  0  0  0  0  0  0  0  0  0
   -4.9670   16.5550  -33.6010 N   0  0  0  0  0  0  0  0  0  0  0  0
   -7.2240   16.0080  -33.7750 O   0  0  0  0  0  0  0  0  0  0  0  0
   -6.0470   19.3130  -32.9190 N   0  0  0  0  0  0  0  0  0  0  0  0
   -4.7670   19.5290  -33.5440 C   0  0  0  0  0  0  0  0  0  0  0  0
   -4.4680   18.9100  -34.6030 O   0  0  0  0  0  0  0  0  0  0  0  0
   -3.8680   20.4510  -32.9910 O   0  0  0  0  0  0  0  0  0  0  0  0
   -2.5490   20.6940  -33.4960 C   0  0  0  0  0  0  0  0  0  0  0  0
   -1.4520   20.1950  -32.5160 C   0  0  2  0  0  0  0  0  0  0  0  0
   -1.1010   18.7180  -32.8270 C   0  0  0  0  0  0  0  0  0  0  0  0
   -2.2460   17.9030  -32.7470 O   0  0  0  0  0  0  0  0  0  0  0  0
   -1.9310   20.3250  -31.0990 C   0  0  0  0  0  0  0  0  0  0  0  0
   -1.1920   21.1950  -30.4410 C   0  0  0  0  0  0  0  0  0  0  0  0
   -0.1810   21.7040  -31.2320 O   0  0  0  0  0  0  0  0  0  0  0  0
   -0.1950   21.1100  -32.5220 C   0  0  0  0  0  0  0  0  0  0  0  0
   -6.8460   20.2480  -32.3540 C   0  0  0  0  0  0  0  0  0  0  0  0
   -6.5540   21.5890  -32.0670 C   0  0  0  0  0  0  0  0  0  0  0  0
   -3.2322   24.2558  -28.7652 H   0  0  0  0  0  0  0  0  0  0  0  0
   -3.6226   23.2049  -30.1687 H   0  0  0  0  0  0  0  0  0  0  0  0
   -2.1137   24.1796  -30.1687 H   0  0  0  0  0  0  0  0  0  0  0  0
   -6.0155   24.7456  -32.5606 H   0  0  0  0  0  0  0  0  0  0  0  0
   -5.2438   23.3822  -31.6481 H   0  0  0  0  0  0  0  0  0  0  0  0
   -7.3061   23.9306  -29.9844 H   0  0  0  0  0  0  0  0  0  0  0  0
   -8.0331   24.4249  -31.5723 H   0  0  0  0  0  0  0  0  0  0  0  0
   -9.5675   22.4053  -30.6082 H   0  0  0  0  0  0  0  0  0  0  0  0
  -10.0246   19.9832  -31.1212 H   0  0  0  0  0  0  0  0  0  0  0  0
   -8.8516   17.6378  -32.2470 H   0  0  0  0  0  0  0  0  0  0  0  0
   -4.2360   17.2190  -33.2570 H   0  0  0  0  0  0  0  0  0  0  0  0
   -4.6670   15.6440  -34.0150 H   0  0  0  0  0  0  0  0  0  0  0  0
   -2.4336   20.1693  -34.4559 H   0  0  0  0  0  0  0  0  0  0  0  0
   -2.4265   21.7801  -33.6202 H   0  0  0  0  0  0  0  0  0  0  0  0
   -0.6828   18.6531  -33.8423 H   0  0  0  0  0  0  0  0  0  0  0  0
   -0.3670   18.3673  -32.0865 H   0  0  0  0  0  0  0  0  0  0  0  0
   -3.0130   18.4510  -33.0690 H   0  0  0  0  0  0  0  0  0  0  0  0
   -2.7796   19.7717  -30.6704 H   0  0  0  0  0  0  0  0  0  0  0  0
   -1.3595   21.4804  -29.3920 H   0  0  0  0  0  0  0  0  0  0  0  0
   -0.2781   21.8796  -33.3035 H   0  0  0  0  0  0  0  0  0  0  0  0
    0.7281   20.5510  -32.7350 H   0  0  0  0  0  0  0  0  0  0  0  0
   -5.5824   22.0257  -32.3413 H   0  0  0  0  0  0  0  0  0  0  0  0
  1  2  1  0
  2  3  1  0
  3  4  2  0
  3  5  1  0
  5  6  1  0
  6  7  1  0
  7  8  2  0
  8  9  1  0
  9 10  2  0
 10 11  1  0
 11 12  2  0
 12 13  1  0
 13 14  1  0
 13 15  2  0
 12 16  1  0
 16 17  1  0
 17 18  2  0
 17 19  1  0
 19 20  1  0
 21 20  1  6
 21 22  1  0
 22 23  1  0
 21 24  1  0
 24 25  2  0
 25 26  1  0
 26 27  1  0
 16 28  1  0
 28 29  2  0
 29  7  1  0
 28 10  1  0
 27 21  1  0
  1 30  1  0
  1 31  1  0
  1 32  1  0
  5 33  1  0
  5 34  1  0
  6 35  1  0
  6 36  1  0
  8 37  1  0
  9 38  1  0
 11 39  1  0
 14 40  1  0
 14 41  1  0
 20 42  1  0
 20 43  1  0
 22 44  1  0
 22 45  1  0
 23 46  1  0
 24 47  1  0
 25 48  1  0
 27 49  1  0
 27 50  1  0
 29 51  1  0
M  END
>  <UniqueID>  (2) 
2

>  <SMILES>  (2) 
COC(=O)CCc1ccc2cc(C(N)=O)n(C(=O)OC[C@]3(CO)C=COC3)c2c1

>  <Energy>  (2) 
98.70216771772803

>  <Genealogy>  (2) 
COC(=O)CCc1ccc2cc(C(N)=O)n(C(=O)OC[C@]3(CO)C=COC3)c2c1 (chirality)
COC(=O)CCc1ccc2cc(C(N)=O)n(C(=O)OC[C@]3(CO)C=COC3)c2c1 (3D coordinates assigned)
COC(=O)CCc1ccc2cc(C(N)=O)n(C(=O)OC[C@]3(CO)C=COC3)c2c1 (nonaromatic ring conformer: 98.70216771772803 kcal/mol)

>  <smiles>  (2) 
COC(=O)CCc1ccc2cc(C(N)=O)n(C(=O)OCC3(CO)C=COC3)c2c1

>  <score_type>  (2) 
oracle

>  <origin>  (2) 
adg

>  <m_score__min__energy>  (2) 
-9.0199999999999996

>  <m_primary>  (2) 
energy

$$$$
2:0
     RDKit          3D

 46 48  0  0  0  0  0  0  0  0999 V2000
   -0.9520   26.1060  -27.9370 C   0  0  0  0  0  0  0  0  0  0  0  0
   -1.8540   25.6670  -28.9450 O   0  0  0  0  0  0  0  0  0  0  0  0
   -2.6670   24.5410  -28.7910 C   0  0  0  0  0  0  0  0  0  0  0  0
   -2.8770   24.0620  -27.6440 O   0  0  0  0  0  0  0  0  0  0  0  0
   -3.2750   23.9290  -29.9860 C   0  0  0  0  0  0  0  0  0  0  0  0
   -2.8580   22.7640  -30.5910 C   0  0  0  0  0  0  0  0  0  0  0  0
   -3.6740   22.5280  -31.6370 N   0  0  0  0  0  0  0  0  0  0  0  0
   -4.5620   23.5120  -31.6710 N   0  0  0  0  0  0  0  0  0  0  0  0
   -4.3490   24.3670  -30.6810 N   0  0  0  0  0  0  0  0  0  0  0  0
   -5.1580   25.5670  -30.4720 C   0  0  0  0  0  0  0  0  0  0  0  0
   -6.4700   25.2680  -29.7270 C   0  0  0  0  0  0  0  0  0  0  0  0
   -7.0460   23.8610  -29.9930 C   0  0  0  0  0  0  0  0  0  0  0  0
   -7.6810   23.6660  -31.3840 C   0  0  0  0  0  0  0  0  0  0  0  0
   -7.8400   22.2170  -31.7880 C   0  0  0  0  0  0  0  0  0  0  0  0
   -9.1020   21.5750  -31.7020 C   0  0  0  0  0  0  0  0  0  0  0  0
   -9.2340   20.2100  -32.0030 C   0  0  0  0  0  0  0  0  0  0  0  0
   -8.0990   19.5200  -32.4170 C   0  0  0  0  0  0  0  0  0  0  0  0
   -7.9330   18.1890  -32.7150 C   0  0  0  0  0  0  0  0  0  0  0  0
   -6.5900   18.0520  -33.0540 C   0  0  0  0  0  0  0  0  0  0  0  0
   -5.9880   16.7760  -33.4850 C   0  0  0  0  0  0  0  0  0  0  0  0
   -4.6710   16.4050  -33.0750 N   0  0  0  0  0  0  0  0  0  0  0  0
   -6.6260   16.0220  -34.2670 O   0  0  0  0  0  0  0  0  0  0  0  0
   -5.9440   19.2490  -32.9630 N   0  0  0  0  0  0  0  0  0  0  0  0
   -4.5380   19.4990  -33.1270 C   0  0  0  0  0  0  0  0  0  0  0  0
   -4.1420   20.4720  -33.8200 O   0  0  0  0  0  0  0  0  0  0  0  0
   -3.5990   18.6680  -32.5280 O   0  0  0  0  0  0  0  0  0  0  0  0
   -6.8830   20.1390  -32.5680 C   0  0  0  0  0  0  0  0  0  0  0  0
   -6.7210   21.4920  -32.2540 C   0  0  0  0  0  0  0  0  0  0  0  0
   -1.3804   25.8975  -26.9455 H   0  0  0  0  0  0  0  0  0  0  0  0
    0.0041   25.5725  -28.0429 H   0  0  0  0  0  0  0  0  0  0  0  0
   -0.7820   27.1876  -28.0429 H   0  0  0  0  0  0  0  0  0  0  0  0
   -2.0100   22.1379  -30.2764 H   0  0  0  0  0  0  0  0  0  0  0  0
   -4.5736   26.2886  -29.8823 H   0  0  0  0  0  0  0  0  0  0  0  0
   -5.4190   25.9717  -31.4610 H   0  0  0  0  0  0  0  0  0  0  0  0
   -6.2827   25.3650  -28.6474 H   0  0  0  0  0  0  0  0  0  0  0  0
   -7.2140   25.9880  -30.0987 H   0  0  0  0  0  0  0  0  0  0  0  0
   -6.2287   23.1326  -29.8865 H   0  0  0  0  0  0  0  0  0  0  0  0
   -7.8572   23.7194  -29.2637 H   0  0  0  0  0  0  0  0  0  0  0  0
   -8.6758   24.1353  -31.3794 H   0  0  0  0  0  0  0  0  0  0  0  0
   -6.9994   24.1277  -32.1135 H   0  0  0  0  0  0  0  0  0  0  0  0
   -9.9867   22.1528  -31.3962 H   0  0  0  0  0  0  0  0  0  0  0  0
  -10.2054   19.7015  -31.9142 H   0  0  0  0  0  0  0  0  0  0  0  0
   -8.6987   17.3996  -32.6908 H   0  0  0  0  0  0  0  0  0  0  0  0
   -4.2740   15.4820  -33.3570 H   0  0  0  0  0  0  0  0  0  0  0  0
   -4.0570   17.0760  -32.5650 H   0  0  0  0  0  0  0  0  0  0  0  0
   -5.7425   21.9815  -32.3676 H   0  0  0  0  0  0  0  0  0  0  0  0
  1  2  1  0
  2  3  1  0
  3  4  2  0
  3  5  1  0
  5  6  2  0
  6  7  1  0
  7  8  2  0
  8  9  1  0
  9 10  1  0
 10 11  1  0
 11 12  1  0
 12 13  1  0
 13 14  1  0
 14 15  2  0
 15 16  1  0
 16 17  2  0
 17 18  1  0
 18 19  2  0
 19 20  1  0
 20 21  1  0
 20 22  2  0
 19 23  1  0
 23 24  1  0
 24 25  2  0
 24 26  1  0
 23 27  1  0
 27 28  2  0
  9  5  1  0
 28 14  1  0
 27 17  1  0
  1 29  1  0
  1 30  1  0
  1 31  1  0
  6 32  1  0
 10 33  1  0
 10 34  1  0
 11 35  1  0
 11 36  1  0
 12 37  1  0
 12 38  1  0
 13 39  1  0
 13 40  1  0
 15 41  1  0
 16 42  1  0
 18 43  1  0
 21 44  1  0
 21 45  1  0
 28 46  1  0
M  CHG  1  26  -1
M  END
>  <UniqueID>  (3) 
3

>  <SMILES>  (3) 
COC(=O)c1cnnn1CCCCc1ccc2cc(C(N)=O)n(C(=O)[O-])c2c1

>  <Energy>  (3) 
113.89195407815774

>  <Genealogy>  (3) 
COC(=O)c1cnnn1CCCCc1ccc2cc(C(N)=O)n(C(=O)[O-])c2c1 (protonated)
COC(=O)c1cnnn1CCCCc1ccc2cc(C(N)=O)n(C(=O)[O-])c2c1 (3D coordinates assigned)
COC(=O)c1cnnn1CCCCc1ccc2cc(C(N)=O)n(C(=O)[O-])c2c1 (optimized conformer: 113.89195407815774 kcal/mol)

>  <smiles>  (3) 
COC(=O)c1cnnn1CCCCc1ccc2cc(C(N)=O)n(C(=O)O)c2c1

>  <score_type>  (3) 
oracle

>  <origin>  (3) 
adg

>  <m_score__min__energy>  (3) 
-9.4900000000000002

>  <m_primary>  (3) 
energy

$$$$
3:0
     RDKit          3D

 44 45  0  0  0  0  0  0  0  0999 V2000
   -6.3860   25.5550  -29.3770 C   0  0  0  0  0  0  0  0  0  0  0  0
   -6.7120   24.4830  -30.2360 O   0  0  0  0  0  0  0  0  0  0  0  0
   -5.7750   23.4340  -30.0910 C   0  0  0  0  0  0  0  0  0  0  0  0
   -4.4240   23.8310  -30.6220 C   0  0  0  0  0  0  0  0  0  0  0  0
   -4.2380   25.0200  -30.9950 O   0  0  0  0  0  0  0  0  0  0  0  0
   -3.3570   22.8750  -30.7390 N   0  0  0  0  0  0  0  0  0  0  0  0
   -2.1390   22.9100  -30.1280 C   0  0  0  0  0  0  0  0  0  0  0  0
   -1.6900   23.9140  -29.1410 C   0  0  0  0  0  0  0  0  0  0  0  0
   -1.9830   25.2980  -29.3100 N   0  0  0  0  0  0  0  0  0  0  0  0
   -1.0560   23.5420  -28.1170 O   0  0  0  0  0  0  0  0  0  0  0  0
   -1.3750   21.8070  -30.5050 C   0  0  0  0  0  0  0  0  0  0  0  0
   -2.1690   21.0910  -31.3720 C   0  0  0  0  0  0  0  0  0  0  0  0
   -1.9160   19.8950  -32.0370 C   0  0  0  0  0  0  0  0  0  0  0  0
   -2.9250   19.3780  -32.8680 C   0  0  0  0  0  0  0  0  0  0  0  0
   -4.1510   20.0710  -33.0310 C   0  0  0  0  0  0  0  0  0  0  0  0
   -5.2430   19.4940  -33.8890 C   0  0  0  0  0  0  0  0  0  0  0  0
   -6.5420   19.5220  -33.1490 C   0  0  0  0  0  0  0  0  0  0  0  0
   -6.9520   18.4800  -32.5720 O   0  0  0  0  0  0  0  0  0  0  0  0
   -7.2800   20.7490  -33.0700 N   0  0  0  0  0  0  0  0  0  0  0  0
   -8.1720   21.1760  -31.9890 C   0  0  1  0  0  0  0  0  0  0  0  0
   -8.3690   22.6990  -31.9680 C   0  0  0  0  0  0  0  0  0  0  0  0
   -9.5000   20.3990  -32.0180 C   0  0  0  0  0  0  0  0  0  0  0  0
   -9.5600   19.4920  -33.0850 O   0  0  0  0  0  0  0  0  0  0  0  0
   -4.3670   21.2850  -32.3430 C   0  0  0  0  0  0  0  0  0  0  0  0
   -3.3560   21.7600  -31.5000 C   0  0  0  0  0  0  0  0  0  0  0  0
   -6.4849   25.2297  -28.3309 H   0  0  0  0  0  0  0  0  0  0  0  0
   -5.3503   25.8739  -29.5654 H   0  0  0  0  0  0  0  0  0  0  0  0
   -7.0688   26.3966  -29.5654 H   0  0  0  0  0  0  0  0  0  0  0  0
   -5.6810   23.1823  -29.0243 H   0  0  0  0  0  0  0  0  0  0  0  0
   -6.1328   22.5667  -30.6652 H   0  0  0  0  0  0  0  0  0  0  0  0
   -2.9720   25.6360  -29.3530 H   0  0  0  0  0  0  0  0  0  0  0  0
   -0.3538   21.5608  -30.1788 H   0  0  0  0  0  0  0  0  0  0  0  0
   -0.9566   19.3707  -31.9161 H   0  0  0  0  0  0  0  0  0  0  0  0
   -2.7619   18.4272  -33.3966 H   0  0  0  0  0  0  0  0  0  0  0  0
   -5.3353   20.0883  -34.8100 H   0  0  0  0  0  0  0  0  0  0  0  0
   -4.9928   18.4529  -34.1410 H   0  0  0  0  0  0  0  0  0  0  0  0
   -7.6818   20.9257  -31.0366 H   0  0  0  0  0  0  0  0  0  0  0  0
   -8.4142   23.0485  -30.9260 H   0  0  0  0  0  0  0  0  0  0  0  0
   -7.5262   23.1849  -32.4815 H   0  0  0  0  0  0  0  0  0  0  0  0
   -9.3077   22.9544  -32.4815 H   0  0  0  0  0  0  0  0  0  0  0  0
   -9.6060   19.8434  -31.0745 H   0  0  0  0  0  0  0  0  0  0  0  0
  -10.3143   21.1271  -32.1477 H   0  0  0  0  0  0  0  0  0  0  0  0
   -8.6600   19.4760  -33.4990 H   0  0  0  0  0  0  0  0  0  0  0  0
   -5.3066   21.8435  -32.4666 H   0  0  0  0  0  0  0  0  0  0  0  0
  1  2  1  0
  2  3  1  0
  3  4  1  0
  4  5  2  0
  4  6  1  0
  6  7  1  0
  7  8  1  0
  8  9  1  0
  8 10  2  0
  7 11  2  0
 11 12  1  0
 12 13  2  0
 13 14  1  0
 14 15  2  0
 15 16  1  0
 16 17  1  0
 17 18  2  0
 17 19  1  0
 19 20  1  0
 20 21  1  0
 20 22  1  0
 22 23  1  0
 15 24  1  0
 24 25  2  0
 25  6  1  0
 25 12  1  0
  1 26  1  0
  1 27  1  0
  1 28  1  0
  3 29  1  0
  3 30  1  0
  9 31  1  0
 11 32  1  0
 13 33  1  0
 14 34  1  0
 16 35  1  0
 16 36  1  0
 20 37  1  1
 21 38  1  0
 21 39  1  0
 21 40  1  0
 22 41  1  0
 22 42  1  0
 23 43  1  0
 24 44  1  0
M  CHG  2   9  -1  19  -1
M  END
>  <UniqueID>  (4) 
4

>  <SMILES>  (4) 
COCC(=O)n1c(C([NH-])=O)cc2ccc(CC(=O)[N-][C@@H](C)CO)cc21

>  <Energy>  (4) 
79.08993046925198

>  <Genealogy>  (4) 
COCC(=O)n1c(C([NH-])=O)cc2ccc(CC(=O)[N-]C(C)CO)cc21 (protonated)
COCC(=O)n1c(C([NH-])=O)cc2ccc(CC(=O)[N-][C@@H](C)CO)cc21 (chirality)
COCC(=O)n1c(C([NH-])=O)cc2ccc(CC(=O)[N-][C@@H](C)CO)cc21 (3D coordinates assigned)
COCC(=O)n1c(C([NH-])=O)cc2ccc(CC(=O)[N-][C@@H](C)CO)cc21 (optimized conformer: 79.08993046925198 kcal/mol)

>  <smiles>  (4) 
COCC(=O)n1c(C(N)=O)cc2ccc(CC(=O)NC(C)CO)cc21

>  <score_type>  (4) 
oracle

>  <origin>  (4) 
adg

>  <m_score__min__energy>  (4) 
-9.5700000000000003

>  <m_primary>  (4) 
energy

$$$$
4:0
     RDKit          3D

 42 44  0  0  0  0  0  0  0  0999 V2000
   -3.1040   21.5540  -28.4280 C   0  0  0  0  0  0  0  0  0  0  0  0
   -2.8270   23.0500  -28.6030 C   0  0  0  0  0  0  0  0  0  0  0  0
   -3.8010   23.8870  -27.7820 C   0  0  0  0  0  0  0  0  0  0  0  0
   -2.9540   23.4090  -29.9810 O   0  0  0  0  0  0  0  0  0  0  0  0
   -3.5260   22.5710  -30.9470 C   0  0  0  0  0  0  0  0  0  0  0  0
   -2.7920   21.8060  -31.6340 O   0  0  0  0  0  0  0  0  0  0  0  0
   -4.9500   22.5950  -31.1640 N   0  0  0  0  0  0  0  0  0  0  0  0
   -5.8040   23.6230  -30.8950 C   0  0  0  0  0  0  0  0  0  0  0  0
   -5.4190   24.9900  -30.4920 C   0  0  0  0  0  0  0  0  0  0  0  0
   -4.1120   25.4980  -30.7700 N   0  0  0  0  0  0  0  0  0  0  0  0
   -6.2800   25.7470  -29.9640 O   0  0  0  0  0  0  0  0  0  0  0  0
   -7.1230   23.2490  -31.1290 C   0  0  0  0  0  0  0  0  0  0  0  0
   -7.0540   21.9510  -31.5760 C   0  0  0  0  0  0  0  0  0  0  0  0
   -8.0740   21.0890  -31.9640 C   0  0  0  0  0  0  0  0  0  0  0  0
   -7.7210   19.7940  -32.3790 C   0  0  0  0  0  0  0  0  0  0  0  0
   -6.3650   19.3830  -32.3950 C   0  0  0  0  0  0  0  0  0  0  0  0
   -6.0110   18.0180  -32.8510 C   0  0  0  0  0  0  0  0  0  0  0  0
   -5.9350   16.8910  -32.0560 C   0  0  0  0  0  0  0  0  0  0  0  0
   -6.1230   16.8110  -30.7150 F   0  0  0  0  0  0  0  0  0  0  0  0
   -5.5900   15.8590  -32.9040 C   0  0  0  0  0  0  0  0  0  0  0  0
   -5.4770   16.3410  -34.1590 N   0  0  0  0  0  0  0  0  0  0  0  0
   -5.7400   17.6420  -34.1240 N   0  0  0  0  0  0  0  0  0  0  0  0
   -5.7430   18.4810  -35.3210 C   0  0  0  0  0  0  0  0  0  0  0  0
   -5.3600   20.2780  -31.9650 C   0  0  0  0  0  0  0  0  0  0  0  0
   -5.7350   21.5740  -31.5860 C   0  0  0  0  0  0  0  0  0  0  0  0
   -3.1487   21.3124  -27.3558 H   0  0  0  0  0  0  0  0  0  0  0  0
   -4.0642   21.3011  -28.9012 H   0  0  0  0  0  0  0  0  0  0  0  0
   -2.2980   20.9740  -28.9012 H   0  0  0  0  0  0  0  0  0  0  0  0
   -1.8034   23.2489  -28.2527 H   0  0  0  0  0  0  0  0  0  0  0  0
   -3.6116   23.7243  -26.7107 H   0  0  0  0  0  0  0  0  0  0  0  0
   -3.6618   24.9516  -28.0214 H   0  0  0  0  0  0  0  0  0  0  0  0
   -4.8325   23.5892  -28.0214 H   0  0  0  0  0  0  0  0  0  0  0  0
   -3.4190   24.9310  -31.3040 H   0  0  0  0  0  0  0  0  0  0  0  0
   -3.8760   26.4920  -30.5550 H   0  0  0  0  0  0  0  0  0  0  0  0
   -8.0265   23.8601  -30.9870 H   0  0  0  0  0  0  0  0  0  0  0  0
   -9.1255   21.4114  -31.9465 H   0  0  0  0  0  0  0  0  0  0  0  0
   -8.5060   19.0913  -32.6950 H   0  0  0  0  0  0  0  0  0  0  0  0
   -5.4325   14.8122  -32.6052 H   0  0  0  0  0  0  0  0  0  0  0  0
   -5.7468   19.5407  -35.0260 H   0  0  0  0  0  0  0  0  0  0  0  0
   -4.8441   18.2700  -35.9189 H   0  0  0  0  0  0  0  0  0  0  0  0
   -6.6404   18.2636  -35.9189 H   0  0  0  0  0  0  0  0  0  0  0  0
   -4.3063   19.9645  -31.9285 H   0  0  0  0  0  0  0  0  0  0  0  0
  1  2  1  0
  2  3  1  0
  2  4  1  0
  4  5  1  0
  5  6  2  0
  5  7  1  0
  7  8  1  0
  8  9  1  0
  9 10  1  0
  9 11  2  0
  8 12  2  0
 12 13  1  0
 13 14  2  0
 14 15  1  0
 15 16  2  0
 16 17  1  0
 17 18  2  0
 18 19  1  0
 18 20  1  0
 20 21  2  0
 21 22  1  0
 22 23  1  0
 16 24  1  0
 24 25  2  0
 25  7  1  0
 25 13  1  0
 22 17  1  0
  1 26  1  0
  1 27  1  0
  1 28  1  0
  2 29  1  0
  3 30  1  0
  3 31  1  0
  3 32  1  0
 10 33  1  0
 10 34  1  0
 12 35  1  0
 14 36  1  0
 15 37  1  0
 20 38  1  0
 23 39  1  0
 23 40  1  0
 23 41  1  0
 24 42  1  0
M  END
>  <UniqueID>  (5) 
5

>  <SMILES>  (5) 
CC(C)OC(=O)n1c(C(N)=O)cc2ccc(-c3c(F)cnn3C)cc21

>  <Energy>  (5) 
113.44183543955309

>  <Genealogy>  (5) 
CC(C)OC(=O)n1c(C(N)=O)cc2ccc(-c3c(F)cnn3C)cc21 (3D coordinates assigned)
CC(C)OC(=O)n1c(C(N)=O)cc2ccc(-c3c(F)cnn3C)cc21 (optimized conformer: 113.44183543955309 kcal/mol)

>  <smiles>  (5) 
CC(C)OC(=O)n1c(C(N)=O)cc2ccc(-c3c(F)cnn3C)cc21

>  <score_type>  (5) 
oracle

>  <origin>  (5) 
adg

>  <m_score__min__energy>  (5) 
-9.25

>  <m_primary>  (5) 
energy

$$$$
5:0
     RDKit          3D

 38 39  0  0  0  0  0  0  0  0999 V2000
   -5.7590   18.0570  -35.1880 N   0  0  0  0  0  0  0  0  0  0  0  0
   -4.4400   18.1620  -34.6490 C   0  0  0  0  0  0  0  0  0  0  0  0
   -3.5390   17.3900  -35.0710 O   0  0  0  0  0  0  0  0  0  0  0  0
   -4.1000   19.2000  -33.6570 C   0  0  0  0  0  0  0  0  0  0  0  0
   -2.7920   19.5320  -33.3130 C   0  0  0  0  0  0  0  0  0  0  0  0
   -2.9030   20.5720  -32.4200 C   0  0  0  0  0  0  0  0  0  0  0  0
   -1.9130   21.2770  -31.7410 C   0  0  0  0  0  0  0  0  0  0  0  0
   -2.3160   22.2770  -30.8420 C   0  0  0  0  0  0  0  0  0  0  0  0
   -3.6900   22.5540  -30.6380 C   0  0  0  0  0  0  0  0  0  0  0  0
   -4.1100   23.5940  -29.6380 C   0  0  0  0  0  0  0  0  0  0  0  0
   -3.4800   24.9090  -29.9680 C   0  0  0  0  0  0  0  0  0  0  0  0
   -3.9860   25.6500  -30.8510 O   0  0  0  0  0  0  0  0  0  0  0  0
   -2.3040   25.2940  -29.3350 O   0  0  0  0  0  0  0  0  0  0  0  0
   -4.6690   21.8090  -31.3340 C   0  0  0  0  0  0  0  0  0  0  0  0
   -4.2390   20.8310  -32.2420 C   0  0  0  0  0  0  0  0  0  0  0  0
   -4.9880   19.9930  -32.9920 N   0  0  0  0  0  0  0  0  0  0  0  0
   -6.4210   19.8900  -32.9890 C   0  0  0  0  0  0  0  0  0  0  0  0
   -6.9710   18.7590  -32.8690 O   0  0  0  0  0  0  0  0  0  0  0  0
   -7.2030   21.0410  -33.1130 O   0  0  0  0  0  0  0  0  0  0  0  0
   -7.6810   21.7740  -31.9910 C   0  0  0  0  0  0  0  0  0  0  0  0
   -9.1430   21.4130  -31.7380 C   0  0  0  0  0  0  0  0  0  0  0  0
   -9.3660   19.9020  -31.8290 C   0  0  0  0  0  0  0  0  0  0  0  0
   -9.6120   19.5280  -33.1570 O   0  0  0  0  0  0  0  0  0  0  0  0
   -6.4820   18.7840  -34.9900 H   0  0  0  0  0  0  0  0  0  0  0  0
   -5.9910   17.2920  -35.8590 H   0  0  0  0  0  0  0  0  0  0  0  0
   -1.8667   19.0622  -33.6780 H   0  0  0  0  0  0  0  0  0  0  0  0
   -0.8476   21.0572  -31.9040 H   0  0  0  0  0  0  0  0  0  0  0  0
   -1.5571   22.8513  -30.2904 H   0  0  0  0  0  0  0  0  0  0  0  0
   -5.2047   23.6993  -29.6608 H   0  0  0  0  0  0  0  0  0  0  0  0
   -3.7845   23.2808  -28.6350 H   0  0  0  0  0  0  0  0  0  0  0  0
   -5.7409   21.9918  -31.1675 H   0  0  0  0  0  0  0  0  0  0  0  0
   -7.0813   21.5210  -31.1042 H   0  0  0  0  0  0  0  0  0  0  0  0
   -7.5972   22.8522  -32.1923 H   0  0  0  0  0  0  0  0  0  0  0  0
   -9.4285   21.7575  -30.7331 H   0  0  0  0  0  0  0  0  0  0  0  0
   -9.7595   21.9020  -32.5066 H   0  0  0  0  0  0  0  0  0  0  0  0
   -8.4690   19.3798  -31.4647 H   0  0  0  0  0  0  0  0  0  0  0  0
  -10.2355   19.6298  -31.2126 H   0  0  0  0  0  0  0  0  0  0  0  0
   -8.7590   19.6510  -33.6490 H   0  0  0  0  0  0  0  0  0  0  0  0
  1  2  1  0
  2  3  2  0
  2  4  1  0
  4  5  2  0
  5  6  1  0
  6  7  2  0
  7  8  1  0
  8  9  2  0
  9 10  1  0
 10 11  1  0
 11 12  2  0
 11 13  1  0
  9 14  1  0
 14 15  2  0
 15 16  1  0
 16 17  1  0
 17 18  2  0
 17 19  1  0
 19 20  1  0
 20 21  1  0
 21 22  1  0
 22 23  1  0
 16  4  1  0
 15  6  1  0
  1 24  1  0
  1 25  1  0
  5 26  1  0
  7 27  1  0
  8 28  1  0
 10 29  1  0
 10 30  1  0
 14 31  1  0
 20 32  1  0
 20 33  1  0
 21 34  1  0
 21 35  1  0
 22 36  1  0
 22 37  1  0
 23 38  1  0
M  CHG  1  13  -1
M  END
>  <UniqueID>  (6) 
6

>  <SMILES>  (6) 
NC(=O)c1cc2ccc(CC(=O)[O-])cc2n1C(=O)OCCCO

>  <Energy>  (6) 
68.83942227991187

>  <Genealogy>  (6) 
NC(=O)c1cc2ccc(CC(=O)[O-])cc2n1C(=O)OCCCO (protonated)
NC(=O)c1cc2ccc(CC(=O)[O-])cc2n1C(=O)OCCCO (3D coordinates assigned)
NC(=O)c1cc2ccc(CC(=O)[O-])cc2n1C(=O)OCCCO (optimized conformer: 68.83942227991187 kcal/mol)

>  <smiles>  (6) 
NC(=O)c1cc2ccc(CC(=O)O)cc2n1C(=O)OCCCO

>  <score_type>  (6) 
oracle

>  <origin>  (6) 
adg

>  <m_score__min__energy>  (6) 
-9.1600000000000001

>  <m_primary>  (6) 
energy

$$$$
6:0
     RDKit          3D

 52 54  0  0  0  0  0  0  0  0999 V2000
   -4.5160   15.7620  -32.4750 C   0  0  0  0  0  0  0  0  0  0  0  0
   -5.6160   16.6170  -32.9550 N   0  0  1  0  0  0  0  0  0  0  0  0
   -6.1420   17.5160  -31.9000 C   0  0  0  0  0  0  0  0  0  0  0  0
   -7.6580   17.7920  -31.9990 C   0  0  0  0  0  0  0  0  0  0  0  0
   -7.9970   18.9830  -32.9060 C   0  0  0  0  0  0  0  0  0  0  0  0
   -7.8400   20.2780  -32.1540 C   0  0  0  0  0  0  0  0  0  0  0  0
   -8.9130   20.7830  -31.3780 C   0  0  0  0  0  0  0  0  0  0  0  0
   -8.7850   22.0020  -30.6900 C   0  0  0  0  0  0  0  0  0  0  0  0
   -7.5860   22.6970  -30.8120 C   0  0  0  0  0  0  0  0  0  0  0  0
   -7.1900   23.8840  -30.2400 C   0  0  0  0  0  0  0  0  0  0  0  0
   -5.8950   24.1040  -30.7050 C   0  0  0  0  0  0  0  0  0  0  0  0
   -5.1220   25.3260  -30.4010 C   0  0  0  0  0  0  0  0  0  0  0  0
   -3.6980   25.2960  -30.3400 N   0  0  0  0  0  0  0  0  0  0  0  0
   -5.7220   26.4230  -30.2440 O   0  0  0  0  0  0  0  0  0  0  0  0
   -5.5010   23.0890  -31.5250 N   0  0  0  0  0  0  0  0  0  0  0  0
   -4.2110   22.8970  -32.1270 C   0  0  0  0  0  0  0  0  0  0  0  0
   -3.1620   23.1450  -31.4760 O   0  0  0  0  0  0  0  0  0  0  0  0
   -4.1080   22.4650  -33.4430 O   0  0  0  0  0  0  0  0  0  0  0  0
   -6.5490   22.2360  -31.5820 C   0  0  0  0  0  0  0  0  0  0  0  0
   -6.6410   21.0170  -32.2630 C   0  0  0  0  0  0  0  0  0  0  0  0
   -5.1560   17.4060  -34.0710 C   0  0  0  0  0  0  0  0  0  0  0  0
   -5.8060   17.4190  -35.1550 O   0  0  0  0  0  0  0  0  0  0  0  0
   -3.9820   18.1600  -33.9440 O   0  0  0  0  0  0  0  0  0  0  0  0
   -3.9720   19.5810  -33.8220 C   0  0  0  0  0  0  0  0  0  0  0  0
   -2.8450   20.0230  -32.9240 C   0  0  0  0  0  0  0  0  0  0  0  0
   -1.5930   20.3860  -33.4580 C   0  0  0  0  0  0  0  0  0  0  0  0
   -1.3660   20.3300  -34.7960 F   0  0  0  0  0  0  0  0  0  0  0  0
   -0.5650   20.8140  -32.6120 C   0  0  0  0  0  0  0  0  0  0  0  0
    0.6400   21.1620  -33.1300 F   0  0  0  0  0  0  0  0  0  0  0  0
   -0.7750   20.8850  -31.2310 C   0  0  0  0  0  0  0  0  0  0  0  0
    0.2250   21.3010  -30.4130 F   0  0  0  0  0  0  0  0  0  0  0  0
   -2.0150   20.5290  -30.6930 C   0  0  0  0  0  0  0  0  0  0  0  0
   -2.2180   20.6020  -29.3540 F   0  0  0  0  0  0  0  0  0  0  0  0
   -3.0480   20.1010  -31.5340 C   0  0  0  0  0  0  0  0  0  0  0  0
   -4.2480   19.7650  -30.9960 F   0  0  0  0  0  0  0  0  0  0  0  0
   -4.5090   15.7566  -31.3750 H   0  0  0  0  0  0  0  0  0  0  0  0
   -4.6601   14.7365  -32.8458 H   0  0  0  0  0  0  0  0  0  0  0  0
   -3.5577   16.1547  -32.8458 H   0  0  0  0  0  0  0  0  0  0  0  0
   -6.3850   16.0010  -33.3050 H   0  0  0  0  0  0  0  0  0  0  0  0
   -5.9387   17.0555  -30.9219 H   0  0  0  0  0  0  0  0  0  0  0  0
   -5.6361   18.4841  -32.0297 H   0  0  0  0  0  0  0  0  0  0  0  0
   -8.1513   16.8947  -32.4009 H   0  0  0  0  0  0  0  0  0  0  0  0
   -8.0122   18.0397  -30.9875 H   0  0  0  0  0  0  0  0  0  0  0  0
   -7.3194   18.9828  -33.7726 H   0  0  0  0  0  0  0  0  0  0  0  0
   -9.0405   18.8899  -33.2415 H   0  0  0  0  0  0  0  0  0  0  0  0
   -9.8536   20.2164  -31.3136 H   0  0  0  0  0  0  0  0  0  0  0  0
   -9.6076   22.3944  -30.0740 H   0  0  0  0  0  0  0  0  0  0  0  0
   -7.7720   24.5235  -29.5601 H   0  0  0  0  0  0  0  0  0  0  0  0
   -3.1230   25.3320  -31.2110 H   0  0  0  0  0  0  0  0  0  0  0  0
   -5.8013   20.6438  -32.8676 H   0  0  0  0  0  0  0  0  0  0  0  0
   -3.8393   20.0294  -34.8177 H   0  0  0  0  0  0  0  0  0  0  0  0
   -4.9266   19.9084  -33.3843 H   0  0  0  0  0  0  0  0  0  0  0  0
  1  2  1  0
  2  3  1  0
  3  4  1  0
  4  5  1  0
  5  6  1  0
  6  7  2  0
  7  8  1  0
  8  9  2  0
  9 10  1  0
 10 11  2  0
 11 12  1  0
 12 13  1  0
 12 14  2  0
 11 15  1  0
 15 16  1  0
 16 17  2  0
 16 18  1  0
 15 19  1  0
 19 20  2  0
  2 21  1  0
 21 22  2  0
 21 23  1  0
 23 24  1  0
 24 25  1  0
 25 26  2  0
 26 27  1  0
 26 28  1  0
 28 29  1  0
 28 30  2  0
 30 31  1  0
 30 32  1  0
 32 33  1  0
 32 34  2  0
 34 35  1  0
 20  6  1  0
 34 25  1  0
 19  9  1  0
  1 36  1  0
  1 37  1  0
  1 38  1  0
  2 39  1  6
  3 40  1  0
  3 41  1  0
  4 42  1  0
  4 43  1  0
  5 44  1  0
  5 45  1  0
  7 46  1  0
  8 47  1  0
 10 48  1  0
 13 49  1  0
 20 50  1  0
 24 51  1  0
 24 52  1  0
M  CHG  3   2   1  13  -1  18  -1
M  END
>  <UniqueID>  (7) 
7

>  <SMILES>  (7) 
C[N@@H+](CCCc1ccc2cc(C([NH-])=O)n(C(=O)[O-])c2c1)C(=O)OCc1c(F)c(F)c(F)c(F)c1F

>  <Energy>  (7) 
92.99127280410693

>  <Genealogy>  (7) 
C[NH+](CCCc1ccc2cc(C([NH-])=O)n(C(=O)[O-])c2c1)C(=O)OCc1c(F)c(F)c(F)c(F)c1F (protonated)
C[N@@H+](CCCc1ccc2cc(C([NH-])=O)n(C(=O)[O-])c2c1)C(=O)OCc1c(F)c(F)c(F)c(F)c1F (chirality)
C[N@@H+](CCCc1ccc2cc(C([NH-])=O)n(C(=O)[O-])c2c1)C(=O)OCc1c(F)c(F)c(F)c(F)c1F (3D coordinates assigned)
C[N@@H+](CCCc1ccc2cc(C([NH-])=O)n(C(=O)[O-])c2c1)C(=O)OCc1c(F)c(F)c(F)c(F)c1F (optimized conformer: 92.99127280410693 kcal/mol)

>  <smiles>  (7) 
CN(CCCc1ccc2cc(C(N)=O)n(C(=O)O)c2c1)C(=O)OCc1c(F)c(F)c(F)c(F)c1F

>  <score_type>  (7) 
oracle

>  <origin>  (7) 
adg

>  <m_score__min__energy>  (7) 
-10.970000000000001

>  <m_primary>  (7) 
energy

$$$$
7:0
     RDKit          3D

 38 40  0  0  0  0  0  0  0  0999 V2000
   -4.1560   25.6570  -30.5680 N   0  0  0  0  0  0  0  0  0  0  0  0
   -5.4720   25.1340  -30.4110 C   0  0  0  0  0  0  0  0  0  0  0  0
   -6.3530   25.8380  -29.8490 O   0  0  0  0  0  0  0  0  0  0  0  0
   -5.8320   23.8050  -30.9500 C   0  0  0  0  0  0  0  0  0  0  0  0
   -7.1410   23.4250  -31.2400 C   0  0  0  0  0  0  0  0  0  0  0  0
   -7.0410   22.1720  -31.8010 C   0  0  0  0  0  0  0  0  0  0  0  0
   -8.0370   21.3150  -32.2610 C   0  0  0  0  0  0  0  0  0  0  0  0
   -7.6470   20.0620  -32.7630 C   0  0  0  0  0  0  0  0  0  0  0  0
   -6.2800   19.6940  -32.7980 C   0  0  0  0  0  0  0  0  0  0  0  0
   -5.8800   18.3290  -33.2890 C   0  0  0  0  0  0  0  0  0  0  0  0
   -4.9120   18.2350  -34.4250 C   0  0  0  0  0  0  0  0  0  0  0  0
   -3.7140   18.5820  -34.2650 O   0  0  0  0  0  0  0  0  0  0  0  0
   -5.3460   17.8090  -35.6750 O   0  0  0  0  0  0  0  0  0  0  0  0
   -6.9560   17.2490  -33.2380 C   0  0  0  0  0  0  0  0  0  0  0  0
   -5.8040   17.2210  -32.2440 C   0  0  0  0  0  0  0  0  0  0  0  0
   -5.2990   20.5810  -32.3050 C   0  0  0  0  0  0  0  0  0  0  0  0
   -5.7140   21.8300  -31.8290 C   0  0  0  0  0  0  0  0  0  0  0  0
   -4.9590   22.8210  -31.3050 N   0  0  0  0  0  0  0  0  0  0  0  0
   -3.5370   22.7850  -31.1020 C   0  0  0  0  0  0  0  0  0  0  0  0
   -2.8040   22.1420  -31.9030 O   0  0  0  0  0  0  0  0  0  0  0  0
   -2.9720   23.4900  -30.0350 O   0  0  0  0  0  0  0  0  0  0  0  0
   -1.5870   23.4310  -29.7000 C   0  0  0  0  0  0  0  0  0  0  0  0
   -1.2530   24.4580  -28.6170 C   0  0  0  0  0  0  0  0  0  0  0  0
   -1.8140   25.7020  -28.9370 O   0  0  0  0  0  0  0  0  0  0  0  0
   -3.4800   25.6590  -29.7720 H   0  0  0  0  0  0  0  0  0  0  0  0
   -8.0590   24.0034  -31.0591 H   0  0  0  0  0  0  0  0  0  0  0  0
   -9.0964   21.6097  -32.2323 H   0  0  0  0  0  0  0  0  0  0  0  0
   -8.4101   19.3609  -33.1320 H   0  0  0  0  0  0  0  0  0  0  0  0
   -7.9711   17.4998  -32.8963 H   0  0  0  0  0  0  0  0  0  0  0  0
   -7.3758   16.5350  -33.9618 H   0  0  0  0  0  0  0  0  0  0  0  0
   -5.9867   17.4515  -31.1841 H   0  0  0  0  0  0  0  0  0  0  0  0
   -5.0469   16.4782  -31.9523 H   0  0  0  0  0  0  0  0  0  0  0  0
   -4.2361   20.2980  -32.2952 H   0  0  0  0  0  0  0  0  0  0  0  0
   -1.3469   22.4234  -29.3297 H   0  0  0  0  0  0  0  0  0  0  0  0
   -0.9940   23.6564  -30.5986 H   0  0  0  0  0  0  0  0  0  0  0  0
   -1.6579   24.1143  -27.6537 H   0  0  0  0  0  0  0  0  0  0  0  0
   -0.1603   24.5648  -28.5498 H   0  0  0  0  0  0  0  0  0  0  0  0
   -2.1120   25.6440  -29.8820 H   0  0  0  0  0  0  0  0  0  0  0  0
  1  2  1  0
  2  3  2  0
  2  4  1  0
  4  5  2  0
  5  6  1  0
  6  7  2  0
  7  8  1  0
  8  9  2  0
  9 10  1  0
 10 11  1  0
 11 12  2  0
 11 13  1  0
 10 14  1  0
 14 15  1  0
  9 16  1  0
 16 17  2  0
 17 18  1  0
 18 19  1  0
 19 20  2  0
 19 21  1  0
 21 22  1  0
 22 23  1  0
 23 24  1  0
 18  4  1  0
 17  6  1  0
 15 10  1  0
  1 25  1  0
  5 26  1  0
  7 27  1  0
  8 28  1  0
 14 29  1  0
 14 30  1  0
 15 31  1  0
 15 32  1  0
 16 33  1  0
 22 34  1  0
 22 35  1  0
 23 36  1  0
 23 37  1  0
 24 38  1  0
M  CHG  2   1  -1  13  -1
M  END
>  <UniqueID>  (8) 
8

>  <SMILES>  (8) 
[NH-]C(=O)c1cc2ccc(C3(C(=O)[O-])CC3)cc2n1C(=O)OCCO

>  <Energy>  (8) 
340.07260567034393

>  <Genealogy>  (8) 
[NH-]C(=O)c1cc2ccc(C3(C(=O)[O-])CC3)cc2n1C(=O)OCCO (protonated)
[NH-]C(=O)c1cc2ccc(C3(C(=O)[O-])CC3)cc2n1C(=O)OCCO (3D coordinates assigned)
[NH-]C(=O)c1cc2ccc(C3(C(=O)[O-])CC3)cc2n1C(=O)OCCO (nonaromatic ring conformer: 340.07260567034393 kcal/mol)

>  <smiles>  (8) 
NC(=O)c1cc2ccc(C3(C(=O)O)CC3)cc2n1C(=O)OCCO

>  <score_type>  (8) 
oracle

>  <origin>  (8) 
adg

>  <m_score__min__energy>  (8) 
-11.08

>  <m_primary>  (8) 
energy

$$$$
8:0
     RDKit          3D

 50 53  0  0  0  0  0  0  0  0999 V2000
   -3.4590   17.4360  -34.2130 C   0  0  0  0  0  0  0  0  0  0  0  0
   -4.3450   16.2490  -34.5550 C   0  0  0  0  0  0  0  0  0  0  0  0
   -5.7090   16.6120  -34.3800 O   0  0  0  0  0  0  0  0  0  0  0  0
   -6.1250   17.9300  -34.1650 C   0  0  0  0  0  0  0  0  0  0  0  0
   -6.1020   18.7750  -35.0990 O   0  0  0  0  0  0  0  0  0  0  0  0
   -6.6520   18.3150  -32.8180 C   0  0  0  0  0  0  0  0  0  0  0  0
   -6.8210   19.7810  -32.5230 C   0  0  0  0  0  0  0  0  0  0  0  0
   -8.0900   20.3990  -32.6350 C   0  0  0  0  0  0  0  0  0  0  0  0
   -8.2560   21.7550  -32.3050 C   0  0  0  0  0  0  0  0  0  0  0  0
   -7.1450   22.4540  -31.8410 C   0  0  0  0  0  0  0  0  0  0  0  0
   -7.0250   23.7630  -31.4320 C   0  0  0  0  0  0  0  0  0  0  0  0
   -5.6960   23.9060  -31.0310 C   0  0  0  0  0  0  0  0  0  0  0  0
   -5.1640   25.1350  -30.4050 C   0  0  0  0  0  0  0  0  0  0  0  0
   -3.8960   25.6620  -30.7840 N   0  0  0  0  0  0  0  0  0  0  0  0
   -5.8180   25.7010  -29.4900 O   0  0  0  0  0  0  0  0  0  0  0  0
   -5.0190   22.7360  -31.2020 N   0  0  0  0  0  0  0  0  0  0  0  0
   -3.6350   22.4660  -30.9330 C   0  0  0  0  0  0  0  0  0  0  0  0
   -2.7370   23.0650  -31.5860 O   0  0  0  0  0  0  0  0  0  0  0  0
   -3.2920   21.5280  -29.9540 O   0  0  0  0  0  0  0  0  0  0  0  0
   -2.9040   21.8820  -28.6300 C   0  0  0  0  0  0  0  0  0  0  0  0
   -1.9750   23.0570  -28.6520 C   0  0  0  0  0  0  0  0  0  0  0  0
   -2.3440   24.2950  -28.8780 O   0  0  0  0  0  0  0  0  0  0  0  0
   -1.2480   25.0150  -28.8040 C   0  0  0  0  0  0  0  0  0  0  0  0
   -1.2200   26.2630  -28.9690 O   0  0  0  0  0  0  0  0  0  0  0  0
   -0.1830   24.2910  -28.5430 O   0  0  0  0  0  0  0  0  0  0  0  0
   -0.6060   23.0520  -28.4510 C   0  0  0  0  0  0  0  0  0  0  0  0
    0.2630   21.8790  -28.1360 C   0  0  0  0  0  0  0  0  0  0  0  0
   -5.9190   21.8580  -31.6930 C   0  0  0  0  0  0  0  0  0  0  0  0
   -5.7190   20.5200  -32.0450 C   0  0  0  0  0  0  0  0  0  0  0  0
   -7.7900   17.4290  -32.3190 C   0  0  0  0  0  0  0  0  0  0  0  0
   -6.4230   17.3570  -31.6540 C   0  0  0  0  0  0  0  0  0  0  0  0
   -3.3849   17.5353  -33.1200 H   0  0  0  0  0  0  0  0  0  0  0  0
   -2.4558   17.2786  -34.6358 H   0  0  0  0  0  0  0  0  0  0  0  0
   -3.8953   18.3530  -34.6358 H   0  0  0  0  0  0  0  0  0  0  0  0
   -4.1751   15.9535  -35.6008 H   0  0  0  0  0  0  0  0  0  0  0  0
   -4.1012   15.4055  -33.8924 H   0  0  0  0  0  0  0  0  0  0  0  0
   -8.9532   19.8128  -32.9832 H   0  0  0  0  0  0  0  0  0  0  0  0
   -9.2334   22.2487  -32.4101 H   0  0  0  0  0  0  0  0  0  0  0  0
   -7.8104   24.5331  -31.4231 H   0  0  0  0  0  0  0  0  0  0  0  0
   -3.0260   25.0920  -30.6910 H   0  0  0  0  0  0  0  0  0  0  0  0
   -3.8003   22.1401  -28.0469 H   0  0  0  0  0  0  0  0  0  0  0  0
   -2.3858   21.0273  -28.1706 H   0  0  0  0  0  0  0  0  0  0  0  0
    0.3461   21.7668  -27.0449 H   0  0  0  0  0  0  0  0  0  0  0  0
   -0.1802   20.9685  -28.5655 H   0  0  0  0  0  0  0  0  0  0  0  0
    1.2631   22.0378  -28.5655 H   0  0  0  0  0  0  0  0  0  0  0  0
   -4.7265   20.0550  -31.9515 H   0  0  0  0  0  0  0  0  0  0  0  0
   -8.6398   17.8757  -31.7821 H   0  0  0  0  0  0  0  0  0  0  0  0
   -8.4679   16.6982  -32.7843 H   0  0  0  0  0  0  0  0  0  0  0  0
   -6.2853   17.7514  -30.6364 H   0  0  0  0  0  0  0  0  0  0  0  0
   -5.7045   16.5521  -31.4398 H   0  0  0  0  0  0  0  0  0  0  0  0
  1  2  1  0
  2  3  1  0
  3  4  1  0
  4  5  2  0
  4  6  1  0
  6  7  1  0
  7  8  2  0
  8  9  1  0
  9 10  2  0
 10 11  1  0
 11 12  2  0
 12 13  1  0
 13 14  1  0
 13 15  2  0
 12 16  1  0
 16 17  1  0
 17 18  2  0
 17 19  1  0
 19 20  1  0
 20 21  1  0
 21 22  1  0
 22 23  1  0
 23 24  2  0
 23 25  1  0
 25 26  1  0
 26 27  1  0
 16 28  1  0
 28 29  2  0
  6 30  1  0
 30 31  1  0
 31  6  1  0
 29  7  1  0
 28 10  1  0
 26 21  2  0
  1 32  1  0
  1 33  1  0
  1 34  1  0
  2 35  1  0
  2 36  1  0
  8 37  1  0
  9 38  1  0
 11 39  1  0
 14 40  1  0
 20 41  1  0
 20 42  1  0
 27 43  1  0
 27 44  1  0
 27 45  1  0
 29 46  1  0
 30 47  1  0
 30 48  1  0
 31 49  1  0
 31 50  1  0
M  CHG  1  14  -1
M  END
>  <UniqueID>  (9) 
9

>  <SMILES>  (9) 
CCOC(=O)C1(c2ccc3cc(C([NH-])=O)n(C(=O)OCc4oc(=O)oc4C)c3c2)CC1

>  <Energy>  (9) 
380.3010490063769

>  <Genealogy>  (9) 
CCOC(=O)C1(c2ccc3cc(C([NH-])=O)n(C(=O)OCc4oc(=O)oc4C)c3c2)CC1 (protonated)
CCOC(=O)C1(c2ccc3cc(C([NH-])=O)n(C(=O)OCc4oc(=O)oc4C)c3c2)CC1 (3D coordinates assigned)
CCOC(=O)C1(c2ccc3cc(C([NH-])=O)n(C(=O)OCc4oc(=O)oc4C)c3c2)CC1 (nonaromatic ring conformer: 380.3010490063769 kcal/mol)

>  <smiles>  (9) 
CCOC(=O)C1(c2ccc3cc(C(N)=O)n(C(=O)OCc4oc(=O)oc4C)c3c2)CC1

>  <score_type>  (9) 
oracle

>  <origin>  (9) 
adg

>  <m_score__min__energy>  (9) 
-11.949999999999999

>  <m_primary>  (9) 
energy

$$$$
9:0
     RDKit          3D

 43 44  0  0  0  0  0  0  0  0999 V2000
   -7.7200   18.5070  -31.9610 C   0  0  0  0  0  0  0  0  0  0  0  0
   -6.4170   18.4460  -32.5250 O   0  0  0  0  0  0  0  0  0  0  0  0
   -5.8660   19.5000  -33.2610 C   0  0  0  0  0  0  0  0  0  0  0  0
   -6.5240   20.5570  -33.4630 O   0  0  0  0  0  0  0  0  0  0  0  0
   -4.5000   19.3510  -33.8490 C   0  0  0  0  0  0  0  0  0  0  0  0
   -3.4780   19.9720  -32.9390 C   0  0  0  0  0  0  0  0  0  0  0  0
   -2.1700   19.4320  -32.8630 C   0  0  0  0  0  0  0  0  0  0  0  0
   -1.1940   20.0320  -32.0510 C   0  0  0  0  0  0  0  0  0  0  0  0
   -1.5520   21.1680  -31.3320 C   0  0  0  0  0  0  0  0  0  0  0  0
   -0.7990   21.9620  -30.4970 C   0  0  0  0  0  0  0  0  0  0  0  0
   -1.6600   22.9710  -30.0700 C   0  0  0  0  0  0  0  0  0  0  0  0
   -1.2760   24.0070  -29.0880 C   0  0  0  0  0  0  0  0  0  0  0  0
   -1.6200   25.3700  -29.3230 N   0  0  0  0  0  0  0  0  0  0  0  0
   -0.6170   23.7070  -28.0570 O   0  0  0  0  0  0  0  0  0  0  0  0
   -2.8960   22.8110  -30.6240 N   0  0  0  0  0  0  0  0  0  0  0  0
   -4.0440   23.6620  -30.4890 C   0  0  0  0  0  0  0  0  0  0  0  0
   -3.9430   24.8930  -30.7350 O   0  0  0  0  0  0  0  0  0  0  0  0
   -5.2740   23.1000  -30.1120 O   0  0  0  0  0  0  0  0  0  0  0  0
   -6.5710   23.4990  -30.5780 C   0  0  0  0  0  0  0  0  0  0  0  0
   -7.6440   22.4860  -30.1330 C   0  0  0  0  0  0  0  0  0  0  0  0
   -6.5130   23.5190  -32.1120 C   0  0  0  0  0  0  0  0  0  0  0  0
   -6.9150   24.9140  -30.0750 C   0  0  0  0  0  0  0  0  0  0  0  0
   -2.8150   21.7010  -31.3900 C   0  0  0  0  0  0  0  0  0  0  0  0
   -3.8020   21.1330  -32.2040 C   0  0  0  0  0  0  0  0  0  0  0  0
   -7.6450   18.5035  -30.8636 H   0  0  0  0  0  0  0  0  0  0  0  0
   -8.2198   19.4295  -32.2914 H   0  0  0  0  0  0  0  0  0  0  0  0
   -8.3038   17.6352  -32.2914 H   0  0  0  0  0  0  0  0  0  0  0  0
   -4.2728   18.2823  -33.9763 H   0  0  0  0  0  0  0  0  0  0  0  0
   -4.4698   19.8577  -34.8249 H   0  0  0  0  0  0  0  0  0  0  0  0
   -1.9168   18.5341  -33.4458 H   0  0  0  0  0  0  0  0  0  0  0  0
   -0.1776   19.6166  -31.9854 H   0  0  0  0  0  0  0  0  0  0  0  0
    0.2583   21.8283  -30.2245 H   0  0  0  0  0  0  0  0  0  0  0  0
   -2.6160   25.6850  -29.3000 H   0  0  0  0  0  0  0  0  0  0  0  0
   -7.6815   22.4506  -29.0342 H   0  0  0  0  0  0  0  0  0  0  0  0
   -8.6247   22.7953  -30.5236 H   0  0  0  0  0  0  0  0  0  0  0  0
   -7.3916   21.4891  -30.5236 H   0  0  0  0  0  0  0  0  0  0  0  0
   -5.5195   23.8616  -32.4369 H   0  0  0  0  0  0  0  0  0  0  0  0
   -6.6962   22.5058  -32.4991 H   0  0  0  0  0  0  0  0  0  0  0  0
   -7.2817   24.2040  -32.4991 H   0  0  0  0  0  0  0  0  0  0  0  0
   -6.9169   24.9217  -28.9750 H   0  0  0  0  0  0  0  0  0  0  0  0
   -6.1641   25.6274  -30.4454 H   0  0  0  0  0  0  0  0  0  0  0  0
   -7.9096   25.2031  -30.4454 H   0  0  0  0  0  0  0  0  0  0  0  0
   -4.8049   21.5800  -32.2693 H   0  0  0  0  0  0  0  0  0  0  0  0
  1  2  1  0
  2  3  1  0
  3  4  2  0
  3  5  1  0
  5  6  1  0
  6  7  2  0
  7  8  1  0
  8  9  2  0
  9 10  1  0
 10 11  2  0
 11 12  1  0
 12 13  1  0
 12 14  2  0
 11 15  1  0
 15 16  1  0
 16 17  2  0
 16 18  1  0
 18 19  1  0
 19 20  1  0
 19 21  1  0
 19 22  1  0
 15 23  1  0
 23 24  2  0
 24  6  1  0
 23  9  1  0
  1 25  1  0
  1 26  1  0
  1 27  1  0
  5 28  1  0
  5 29  1  0
  7 30  1  0
  8 31  1  0
 10 32  1  0
 13 33  1  0
 20 34  1  0
 20 35  1  0
 20 36  1  0
 21 37  1  0
 21 38  1  0
 21 39  1  0
 22 40  1  0
 22 41  1  0
 22 42  1  0
 24 43  1  0
M  CHG  1  13  -1
M  END
>  <UniqueID>  (10) 
10

>  <SMILES>  (10) 
COC(=O)Cc1ccc2cc(C([NH-])=O)n(C(=O)OC(C)(C)C)c2c1

>  <Energy>  (10) 
72.23300105139879

>  <Genealogy>  (10) 
COC(=O)Cc1ccc2cc(C([NH-])=O)n(C(=O)OC(C)(C)C)c2c1 (protonated)
COC(=O)Cc1ccc2cc(C([NH-])=O)n(C(=O)OC(C)(C)C)c2c1 (3D coordinates assigned)
COC(=O)Cc1ccc2cc(C([NH-])=O)n(C(=O)OC(C)(C)C)c2c1 (optimized conformer: 72.23300105139879 kcal/mol)

>  <smiles>  (10) 
COC(=O)Cc1ccc2cc(C(N)=O)n(C(=O)OC(C)(C)C)c2c1

>  <score_type>  (10) 
oracle

>  <origin>  (10) 
adg

>  <m_score__min__energy>  (10) 
-9.9000000000000004

>  <m_primary>  (10) 
energy

$$$$
10:0
     RDKit          3D

 38 40  0  0  0  0  0  0  0  0999 V2000
   -3.8780   25.6700  -30.8340 N   0  0  0  0  0  0  0  0  0  0  0  0
   -5.1340   25.1090  -30.4570 C   0  0  0  0  0  0  0  0  0  0  0  0
   -5.8500   25.7130  -29.6140 O   0  0  0  0  0  0  0  0  0  0  0  0
   -5.5770   23.8060  -30.9950 C   0  0  0  0  0  0  0  0  0  0  0  0
   -6.9100   23.5070  -31.2700 C   0  0  0  0  0  0  0  0  0  0  0  0
   -6.9130   22.1860  -31.6570 C   0  0  0  0  0  0  0  0  0  0  0  0
   -7.9710   21.3720  -32.0500 C   0  0  0  0  0  0  0  0  0  0  0  0
   -7.6810   20.0490  -32.4220 C   0  0  0  0  0  0  0  0  0  0  0  0
   -6.3470   19.5620  -32.4090 C   0  0  0  0  0  0  0  0  0  0  0  0
   -6.0400   18.1650  -32.8110 C   0  0  0  0  0  0  0  0  0  0  0  0
   -5.7300   17.0950  -31.9690 C   0  0  0  0  0  0  0  0  0  0  0  0
   -5.4900   15.9140  -32.6020 N   0  0  0  0  0  0  0  0  0  0  0  0
   -5.6020   16.0150  -33.9440 C   0  0  0  0  0  0  0  0  0  0  0  0
   -6.0070   17.5810  -34.3930 S   0  0  0  0  0  0  0  0  0  0  0  0
   -5.3020   20.4260  -32.0020 C   0  0  0  0  0  0  0  0  0  0  0  0
   -5.6230   21.7330  -31.6160 C   0  0  0  0  0  0  0  0  0  0  0  0
   -4.7870   22.7180  -31.2150 N   0  0  0  0  0  0  0  0  0  0  0  0
   -3.3560   22.6300  -31.1250 C   0  0  0  0  0  0  0  0  0  0  0  0
   -2.7400   21.7240  -31.7510 O   0  0  0  0  0  0  0  0  0  0  0  0
   -2.6570   23.5310  -30.3190 O   0  0  0  0  0  0  0  0  0  0  0  0
   -1.3330   23.2880  -29.8590 C   0  0  0  0  0  0  0  0  0  0  0  0
   -1.2570   23.5780  -28.3600 C   0  0  0  0  0  0  0  0  0  0  0  0
   -1.8340   24.9550  -28.0140 C   0  0  0  0  0  0  0  0  0  0  0  0
   -1.4800   25.9040  -28.9840 O   0  0  0  0  0  0  0  0  0  0  0  0
   -2.9850   25.3030  -30.4370 H   0  0  0  0  0  0  0  0  0  0  0  0
   -7.7750   24.1823  -31.1940 H   0  0  0  0  0  0  0  0  0  0  0  0
   -9.0028   21.7530  -32.0687 H   0  0  0  0  0  0  0  0  0  0  0  0
   -8.4991   19.3803  -32.7279 H   0  0  0  0  0  0  0  0  0  0  0  0
   -5.6832   17.1988  -30.8749 H   0  0  0  0  0  0  0  0  0  0  0  0
   -5.4486   15.1836  -34.6477 H   0  0  0  0  0  0  0  0  0  0  0  0
   -4.2588   20.0775  -31.9893 H   0  0  0  0  0  0  0  0  0  0  0  0
   -1.0671   22.2367  -30.0437 H   0  0  0  0  0  0  0  0  0  0  0  0
   -0.6306   23.9419  -30.3966 H   0  0  0  0  0  0  0  0  0  0  0  0
   -1.8267   22.8077  -27.8195 H   0  0  0  0  0  0  0  0  0  0  0  0
   -0.1975   23.5684  -28.0644 H   0  0  0  0  0  0  0  0  0  0  0  0
   -2.9305   24.8836  -27.9633 H   0  0  0  0  0  0  0  0  0  0  0  0
   -1.4245   25.2741  -27.0442 H   0  0  0  0  0  0  0  0  0  0  0  0
   -1.9950   25.6790  -29.8020 H   0  0  0  0  0  0  0  0  0  0  0  0
  1  2  1  0
  2  3  2  0
  2  4  1  0
  4  5  2  0
  5  6  1  0
  6  7  2  0
  7  8  1  0
  8  9  2  0
  9 10  1  0
 10 11  2  0
 11 12  1  0
 12 13  2  0
 13 14  1  0
  9 15  1  0
 15 16  2  0
 16 17  1  0
 17 18  1  0
 18 19  2  0
 18 20  1  0
 20 21  1  0
 21 22  1  0
 22 23  1  0
 23 24  1  0
 17  4  1  0
 16  6  1  0
 14 10  1  0
  1 25  1  0
  5 26  1  0
  7 27  1  0
  8 28  1  0
 11 29  1  0
 13 30  1  0
 15 31  1  0
 21 32  1  0
 21 33  1  0
 22 34  1  0
 22 35  1  0
 23 36  1  0
 23 37  1  0
 24 38  1  0
M  CHG  1   1  -1
M  END
>  <UniqueID>  (11) 
11

>  <SMILES>  (11) 
[NH-]C(=O)c1cc2ccc(-c3cncs3)cc2n1C(=O)OCCCO

>  <Energy>  (11) 
105.00180918411462

>  <Genealogy>  (11) 
[NH-]C(=O)c1cc2ccc(-c3cncs3)cc2n1C(=O)OCCCO (protonated)
[NH-]C(=O)c1cc2ccc(-c3cncs3)cc2n1C(=O)OCCCO (3D coordinates assigned)
[NH-]C(=O)c1cc2ccc(-c3cncs3)cc2n1C(=O)OCCCO (optimized conformer: 105.00180918411462 kcal/mol)

>  <smiles>  (11) 
NC(=O)c1cc2ccc(-c3cncs3)cc2n1C(=O)OCCCO

>  <score_type>  (11) 
oracle

>  <origin>  (11) 
adg

>  <m_score__min__energy>  (11) 
-11.109999999999999

>  <m_primary>  (11) 
energy

$$$$
11:0
     RDKit          3D

 59 61  0  0  0  0  0  0  0  0999 V2000
   -3.9500   13.2550  -31.5700 C   0  0  0  0  0  0  0  0  0  0  0  0
   -2.5790   13.5890  -31.7590 O   0  0  0  0  0  0  0  0  0  0  0  0
   -2.1520   14.4930  -32.7360 C   0  0  0  0  0  0  0  0  0  0  0  0
   -1.5490   15.5530  -32.4140 O   0  0  0  0  0  0  0  0  0  0  0  0
   -2.4530   14.2190  -34.1720 C   0  0  0  0  0  0  0  0  0  0  0  0
   -3.8180   15.2360  -34.7210 S   0  0  0  0  0  0  0  0  0  0  0  0
   -5.0260   14.3630  -34.9230 O   0  0  0  0  0  0  0  0  0  0  0  0
   -3.4640   15.8770  -36.0340 O   0  0  0  0  0  0  0  0  0  0  0  0
   -4.2030   16.4800  -33.5550 N   0  0  0  0  0  0  0  0  0  0  0  0
   -5.3840   16.0970  -32.7530 C   0  0  0  0  0  0  0  0  0  0  0  0
   -6.0060   17.3120  -32.0630 C   0  0  0  0  0  0  0  0  0  0  0  0
   -6.5820   18.2710  -33.1230 C   0  0  0  0  0  0  0  0  0  0  0  0
   -6.8420   19.6490  -32.5370 C   0  0  0  0  0  0  0  0  0  0  0  0
   -8.1750   20.1050  -32.3730 C   0  0  0  0  0  0  0  0  0  0  0  0
   -8.4390   21.3860  -31.8640 C   0  0  0  0  0  0  0  0  0  0  0  0
   -7.3570   22.1880  -31.5200 C   0  0  0  0  0  0  0  0  0  0  0  0
   -7.3380   23.4730  -31.0360 C   0  0  0  0  0  0  0  0  0  0  0  0
   -5.9920   23.7920  -30.9010 C   0  0  0  0  0  0  0  0  0  0  0  0
   -5.5260   25.1060  -30.4350 C   0  0  0  0  0  0  0  0  0  0  0  0
   -4.1990   25.5480  -30.7200 N   0  0  0  0  0  0  0  0  0  0  0  0
   -6.3270   25.8780  -29.8450 O   0  0  0  0  0  0  0  0  0  0  0  0
   -5.2000   22.7400  -31.2560 N   0  0  0  0  0  0  0  0  0  0  0  0
   -3.7680   22.6350  -31.0980 C   0  0  0  0  0  0  0  0  0  0  0  0
   -3.0940   21.9090  -31.8760 O   0  0  0  0  0  0  0  0  0  0  0  0
   -3.1250   23.3130  -30.0560 O   0  0  0  0  0  0  0  0  0  0  0  0
   -2.9430   22.7740  -28.7480 C   0  0  0  0  0  0  0  0  0  0  0  0
   -4.0300   23.3320  -27.8310 C   0  0  0  0  0  0  0  0  0  0  0  0
   -3.0170   21.2450  -28.7960 C   0  0  0  0  0  0  0  0  0  0  0  0
   -6.0590   21.7650  -31.6480 C   0  0  0  0  0  0  0  0  0  0  0  0
   -5.7680   20.4950  -32.1660 C   0  0  0  0  0  0  0  0  0  0  0  0
   -5.7090   18.3310  -34.4040 C   0  0  0  0  0  0  0  0  0  0  0  0
   -4.2710   17.8230  -34.1810 C   0  0  0  0  0  0  0  0  0  0  0  0
   -4.1693   13.2016  -30.4934 H   0  0  0  0  0  0  0  0  0  0  0  0
   -4.5826   14.0253  -32.0353 H   0  0  0  0  0  0  0  0  0  0  0  0
   -4.1574   12.2801  -32.0353 H   0  0  0  0  0  0  0  0  0  0  0  0
   -1.5641   14.4450  -34.7793 H   0  0  0  0  0  0  0  0  0  0  0  0
   -2.7258   13.1595  -34.2861 H   0  0  0  0  0  0  0  0  0  0  0  0
   -6.1333   15.6386  -33.4152 H   0  0  0  0  0  0  0  0  0  0  0  0
   -5.0614   15.3857  -31.9784 H   0  0  0  0  0  0  0  0  0  0  0  0
   -6.8129   16.9793  -31.3935 H   0  0  0  0  0  0  0  0  0  0  0  0
   -5.2343   17.8347  -31.4789 H   0  0  0  0  0  0  0  0  0  0  0  0
   -7.5532   17.8611  -33.4372 H   0  0  0  0  0  0  0  0  0  0  0  0
   -9.0121   19.4466  -32.6481 H   0  0  0  0  0  0  0  0  0  0  0  0
   -9.4716   21.7447  -31.7409 H   0  0  0  0  0  0  0  0  0  0  0  0
   -8.2026   24.1126  -30.8048 H   0  0  0  0  0  0  0  0  0  0  0  0
   -3.8620   26.4680  -30.3560 H   0  0  0  0  0  0  0  0  0  0  0  0
   -3.5570   24.9640  -31.3000 H   0  0  0  0  0  0  0  0  0  0  0  0
   -1.9538   23.0585  -28.3600 H   0  0  0  0  0  0  0  0  0  0  0  0
   -3.7371   23.1816  -26.7814 H   0  0  0  0  0  0  0  0  0  0  0  0
   -4.1576   24.4071  -28.0256 H   0  0  0  0  0  0  0  0  0  0  0  0
   -4.9780   22.8091  -28.0256 H   0  0  0  0  0  0  0  0  0  0  0  0
   -3.0363   20.8465  -27.7709 H   0  0  0  0  0  0  0  0  0  0  0  0
   -3.9310   20.9386  -29.3258 H   0  0  0  0  0  0  0  0  0  0  0  0
   -2.1368   20.8518  -29.3258 H   0  0  0  0  0  0  0  0  0  0  0  0
   -4.7260   20.1620  -32.2821 H   0  0  0  0  0  0  0  0  0  0  0  0
   -6.1827   17.7113  -35.1796 H   0  0  0  0  0  0  0  0  0  0  0  0
   -5.6405   19.3869  -34.7047 H   0  0  0  0  0  0  0  0  0  0  0  0
   -3.7637   17.7777  -35.1560 H   0  0  0  0  0  0  0  0  0  0  0  0
   -3.7860   18.5257  -33.4875 H   0  0  0  0  0  0  0  0  0  0  0  0
  1  2  1  0
  2  3  1  0
  3  4  2  0
  3  5  1  0
  5  6  1  0
  6  7  2  0
  6  8  2  0
  6  9  1  0
  9 10  1  0
 10 11  1  0
 11 12  1  0
 12 13  1  0
 13 14  2  0
 14 15  1  0
 15 16  2  0
 16 17  1  0
 17 18  2  0
 18 19  1  0
 19 20  1  0
 19 21  2  0
 18 22  1  0
 22 23  1  0
 23 24  2  0
 23 25  1  0
 25 26  1  0
 26 27  1  0
 26 28  1  0
 22 29  1  0
 29 30  2  0
 12 31  1  0
 31 32  1  0
 32  9  1  0
 30 13  1  0
 29 16  1  0
  1 33  1  0
  1 34  1  0
  1 35  1  0
  5 36  1  0
  5 37  1  0
 10 38  1  0
 10 39  1  0
 11 40  1  0
 11 41  1  0
 12 42  1  0
 14 43  1  0
 15 44  1  0
 17 45  1  0
 20 46  1  0
 20 47  1  0
 26 48  1  0
 27 49  1  0
 27 50  1  0
 27 51  1  0
 28 52  1  0
 28 53  1  0
 28 54  1  0
 30 55  1  0
 31 56  1  0
 31 57  1  0
 32 58  1  0
 32 59  1  0
M  END
>  <UniqueID>  (12) 
12

>  <SMILES>  (12) 
COC(=O)CS(=O)(=O)N1CCC(c2ccc3cc(C(N)=O)n(C(=O)OC(C)C)c3c2)CC1

>  <Energy>  (12) 
95.22289863599609

>  <Genealogy>  (12) 
COC(=O)CS(=O)(=O)N1CCC(c2ccc3cc(C(N)=O)n(C(=O)OC(C)C)c3c2)CC1 (3D coordinates assigned)
COC(=O)CS(=O)(=O)N1CCC(c2ccc3cc(C(N)=O)n(C(=O)OC(C)C)c3c2)CC1 (nonaromatic ring conformer: 95.22289863599609 kcal/mol)

>  <smiles>  (12) 
COC(=O)CS(=O)(=O)N1CCC(c2ccc3cc(C(N)=O)n(C(=O)OC(C)C)c3c2)CC1

>  <score_type>  (12) 
oracle

>  <origin>  (12) 
adg

>  <m_score__min__energy>  (12) 
-9.75

>  <m_primary>  (12) 
energy

$$$$
12:0
     RDKit          3D

 44 46  0  0  0  0  0  0  0  0999 V2000
   -5.1920   24.8620  -28.9740 N   0  0  0  0  0  0  0  0  0  0  0  0
   -5.4160   24.6720  -30.3720 C   0  0  0  0  0  0  0  0  0  0  0  0
   -5.0070   25.5420  -31.1860 O   0  0  0  0  0  0  0  0  0  0  0  0
   -6.1740   23.5090  -30.8740 C   0  0  0  0  0  0  0  0  0  0  0  0
   -7.5580   23.5050  -31.0220 C   0  0  0  0  0  0  0  0  0  0  0  0
   -7.8730   22.2330  -31.4420 C   0  0  0  0  0  0  0  0  0  0  0  0
   -9.1120   21.6740  -31.7440 C   0  0  0  0  0  0  0  0  0  0  0  0
   -9.1430   20.3390  -32.1820 C   0  0  0  0  0  0  0  0  0  0  0  0
   -7.9420   19.6000  -32.3280 C   0  0  0  0  0  0  0  0  0  0  0  0
   -7.9900   18.1640  -32.7680 C   0  0  0  0  0  0  0  0  0  0  0  0
   -6.8190   17.4230  -32.2080 C   0  0  0  0  0  0  0  0  0  0  0  0
   -6.5330   17.5380  -30.9840 O   0  0  0  0  0  0  0  0  0  0  0  0
   -6.0790   16.5840  -33.0530 O   0  0  0  0  0  0  0  0  0  0  0  0
   -4.7310   16.2440  -32.8740 C   0  0  0  0  0  0  0  0  0  0  0  0
   -4.4090   15.1230  -32.3930 O   0  0  0  0  0  0  0  0  0  0  0  0
   -3.6810   17.2150  -33.2550 C   0  0  0  0  0  0  0  0  0  0  0  0
   -4.0080   18.5420  -33.5830 C   0  0  0  0  0  0  0  0  0  0  0  0
   -3.0010   19.4440  -33.9360 C   0  0  0  0  0  0  0  0  0  0  0  0
   -1.6730   19.0140  -33.9580 C   0  0  0  0  0  0  0  0  0  0  0  0
   -1.3700   17.7290  -33.6380 N   0  0  0  0  0  0  0  0  0  0  0  0
   -2.3300   16.8300  -33.2920 C   0  0  0  0  0  0  0  0  0  0  0  0
   -6.7040   20.1980  -32.0030 C   0  0  0  0  0  0  0  0  0  0  0  0
   -6.7050   21.5210  -31.5460 C   0  0  0  0  0  0  0  0  0  0  0  0
   -5.6490   22.2940  -31.2010 N   0  0  0  0  0  0  0  0  0  0  0  0
   -4.2600   21.9310  -31.2750 C   0  0  0  0  0  0  0  0  0  0  0  0
   -3.7130   21.7800  -32.4010 O   0  0  0  0  0  0  0  0  0  0  0  0
   -3.5300   21.7440  -30.0930 O   0  0  0  0  0  0  0  0  0  0  0  0
   -3.3600   22.7050  -29.0890 C   0  0  0  0  0  0  0  0  0  0  0  0
   -4.0900   22.7150  -28.0620 O   0  0  0  0  0  0  0  0  0  0  0  0
   -2.3130   23.7160  -29.2330 C   0  0  0  0  0  0  0  0  0  0  0  0
   -2.6130   24.9330  -29.3390 O   0  0  0  0  0  0  0  0  0  0  0  0
   -4.6190   25.6690  -28.6400 H   0  0  0  0  0  0  0  0  0  0  0  0
   -5.6610   24.2560  -28.2660 H   0  0  0  0  0  0  0  0  0  0  0  0
   -8.2514   24.3397  -30.8418 H   0  0  0  0  0  0  0  0  0  0  0  0
  -10.0379   22.2592  -31.6429 H   0  0  0  0  0  0  0  0  0  0  0  0
  -10.1074   19.8634  -32.4135 H   0  0  0  0  0  0  0  0  0  0  0  0
   -8.9208   17.7024  -32.4068 H   0  0  0  0  0  0  0  0  0  0  0  0
   -7.9560   18.1196  -33.8666 H   0  0  0  0  0  0  0  0  0  0  0  0
   -5.0575   18.8707  -33.5618 H   0  0  0  0  0  0  0  0  0  0  0  0
   -3.2523   20.4833  -34.1942 H   0  0  0  0  0  0  0  0  0  0  0  0
   -0.8721   19.7156  -34.2344 H   0  0  0  0  0  0  0  0  0  0  0  0
   -2.0478   15.7971  -33.0400 H   0  0  0  0  0  0  0  0  0  0  0  0
   -5.7629   19.6380  -32.1065 H   0  0  0  0  0  0  0  0  0  0  0  0
   -1.2565   23.4102  -29.2487 H   0  0  0  0  0  0  0  0  0  0  0  0
  1  2  1  0
  2  3  2  0
  2  4  1  0
  4  5  2  0
  5  6  1  0
  6  7  2  0
  7  8  1  0
  8  9  2  0
  9 10  1  0
 10 11  1  0
 11 12  2  0
 11 13  1  0
 13 14  1  0
 14 15  2  0
 14 16  1  0
 16 17  2  0
 17 18  1  0
 18 19  2  0
 19 20  1  0
 20 21  2  0
  9 22  1  0
 22 23  2  0
 23 24  1  0
 24 25  1  0
 25 26  2  0
 25 27  1  0
 27 28  1  0
 28 29  2  0
 28 30  1  0
 30 31  2  0
 24  4  1  0
 23  6  1  0
 21 16  1  0
  1 32  1  0
  1 33  1  0
  5 34  1  0
  7 35  1  0
  8 36  1  0
 10 37  1  0
 10 38  1  0
 17 39  1  0
 18 40  1  0
 19 41  1  0
 21 42  1  0
 22 43  1  0
 30 44  1  0
M  END
>  <UniqueID>  (13) 
13

>  <SMILES>  (13) 
NC(=O)c1cc2ccc(CC(=O)OC(=O)c3cccnc3)cc2n1C(=O)OC(=O)C=O

>  <Energy>  (13) 
85.46485655730045

>  <Genealogy>  (13) 
NC(=O)c1cc2ccc(CC(=O)OC(=O)c3cccnc3)cc2n1C(=O)OC(=O)C=O (3D coordinates assigned)
NC(=O)c1cc2ccc(CC(=O)OC(=O)c3cccnc3)cc2n1C(=O)OC(=O)C=O (optimized conformer: 85.46485655730045 kcal/mol)

>  <smiles>  (13) 
NC(=O)c1cc2ccc(CC(=O)OC(=O)c3cccnc3)cc2n1C(=O)OC(=O)C=O

>  <score_type>  (13) 
oracle

>  <origin>  (13) 
adg

>  <m_score__min__energy>  (13) 
-9.3900000000000006

>  <m_primary>  (13) 
energy

$$$$
13:0
     RDKit          3D

 60 62  0  0  0  0  0  0  0  0999 V2000
   -2.7730   15.8710  -33.1850 C   0  0  0  0  0  0  0  0  0  0  0  0
   -2.9450   17.0230  -34.0900 N   0  0  0  0  0  0  0  0  0  0  0  0
   -3.5560   16.5740  -35.3550 C   0  0  0  0  0  0  0  0  0  0  0  0
   -3.7750   18.0860  -33.4760 C   0  0  0  0  0  0  0  0  0  0  0  0
   -5.2490   18.0140  -33.9390 C   0  0  0  0  0  0  0  0  0  0  0  0
   -6.1980   17.5610  -32.8690 C   0  0  0  0  0  0  0  0  0  0  0  0
   -6.9620   18.8190  -32.7890 N   0  0  0  0  0  0  0  0  0  0  0  0
   -8.1040   19.3100  -32.0880 C   0  0  0  0  0  0  0  0  0  0  0  0
   -8.7200   18.5440  -31.3000 O   0  0  0  0  0  0  0  0  0  0  0  0
   -8.6120   20.6970  -32.3620 C   0  0  0  0  0  0  0  0  0  0  0  0
   -7.6840   21.7460  -31.8070 C   0  0  0  0  0  0  0  0  0  0  0  0
   -8.1400   23.0760  -31.6280 C   0  0  0  0  0  0  0  0  0  0  0  0
   -7.3000   24.0520  -31.0670 C   0  0  0  0  0  0  0  0  0  0  0  0
   -6.0150   23.6690  -30.6950 C   0  0  0  0  0  0  0  0  0  0  0  0
   -5.0150   24.4000  -30.0960 C   0  0  0  0  0  0  0  0  0  0  0  0
   -3.9570   23.5090  -29.9270 C   0  0  0  0  0  0  0  0  0  0  0  0
   -2.6440   23.9030  -29.3780 C   0  0  0  0  0  0  0  0  0  0  0  0
   -2.2740   25.2790  -29.3410 N   0  0  0  0  0  0  0  0  0  0  0  0
   -1.8300   23.0330  -28.9630 O   0  0  0  0  0  0  0  0  0  0  0  0
   -4.2910   22.2760  -30.4010 N   0  0  0  0  0  0  0  0  0  0  0  0
   -3.5120   21.0710  -30.3410 C   0  0  0  0  0  0  0  0  0  0  0  0
   -3.0890   20.6550  -29.2280 O   0  0  0  0  0  0  0  0  0  0  0  0
   -3.2040   20.3880  -31.5250 O   0  0  0  0  0  0  0  0  0  0  0  0
   -2.4520   20.9160  -32.5830 C   0  0  0  0  0  0  0  0  0  0  0  0
   -3.0100   21.3710  -33.6180 O   0  0  0  0  0  0  0  0  0  0  0  0
   -0.9570   20.9060  -32.4930 C   0  0  0  0  0  0  0  0  0  0  0  0
   -0.3150   20.4490  -33.8190 C   0  0  2  0  0  0  0  0  0  0  0  0
   -0.8250   21.2330  -34.9440 N   0  0  0  0  0  0  0  0  0  0  0  0
   -0.5590   18.9870  -34.0720 C   0  0  0  0  0  0  0  0  0  0  0  0
   -0.9790   18.5930  -35.1950 O   0  0  0  0  0  0  0  0  0  0  0  0
   -0.3190   18.0600  -33.0660 O   0  0  0  0  0  0  0  0  0  0  0  0
   -5.5530   22.3900  -30.8700 C   0  0  0  0  0  0  0  0  0  0  0  0
   -6.3750   21.3930  -31.4100 C   0  0  0  0  0  0  0  0  0  0  0  0
   -6.0280   19.2940  -33.8250 C   0  0  0  0  0  0  0  0  0  0  0  0
   -2.8242   16.2140  -32.1411 H   0  0  0  0  0  0  0  0  0  0  0  0
   -3.5716   15.1373  -33.3695 H   0  0  0  0  0  0  0  0  0  0  0  0
   -1.7950   15.4026  -33.3695 H   0  0  0  0  0  0  0  0  0  0  0  0
   -1.9980   17.4110  -34.3170 H   0  0  0  0  0  0  0  0  0  0  0  0
   -4.4247   15.9356  -35.1363 H   0  0  0  0  0  0  0  0  0  0  0  0
   -3.8814   17.4495  -35.9361 H   0  0  0  0  0  0  0  0  0  0  0  0
   -2.8177   16.0020  -35.9361 H   0  0  0  0  0  0  0  0  0  0  0  0
   -3.7410   17.9751  -32.3821 H   0  0  0  0  0  0  0  0  0  0  0  0
   -3.3681   19.0580  -33.7915 H   0  0  0  0  0  0  0  0  0  0  0  0
   -5.0758   17.4920  -34.8916 H   0  0  0  0  0  0  0  0  0  0  0  0
   -6.8171   16.7084  -33.1847 H   0  0  0  0  0  0  0  0  0  0  0  0
   -5.7550   17.1854  -31.9348 H   0  0  0  0  0  0  0  0  0  0  0  0
   -8.6996   20.8369  -33.4495 H   0  0  0  0  0  0  0  0  0  0  0  0
   -9.5905   20.8086  -31.8720 H   0  0  0  0  0  0  0  0  0  0  0  0
   -9.1621   23.3466  -31.9315 H   0  0  0  0  0  0  0  0  0  0  0  0
   -7.6470   25.0863  -30.9262 H   0  0  0  0  0  0  0  0  0  0  0  0
   -5.0444   25.4621  -29.8111 H   0  0  0  0  0  0  0  0  0  0  0  0
   -1.5900   25.6700  -30.0260 H   0  0  0  0  0  0  0  0  0  0  0  0
   -0.6061   21.9215  -32.2571 H   0  0  0  0  0  0  0  0  0  0  0  0
   -0.6630   20.1976  -31.7045 H   0  0  0  0  0  0  0  0  0  0  0  0
    0.7689   20.6128  -33.7283 H   0  0  0  0  0  0  0  0  0  0  0  0
   -1.2020   22.1380  -34.5790 H   0  0  0  0  0  0  0  0  0  0  0  0
   -1.6210   20.7230  -35.3920 H   0  0  0  0  0  0  0  0  0  0  0  0
   -6.0106   20.3612  -31.5222 H   0  0  0  0  0  0  0  0  0  0  0  0
   -6.5362   19.5663  -34.7618 H   0  0  0  0  0  0  0  0  0  0  0  0
   -5.4581   20.2084  -33.6035 H   0  0  0  0  0  0  0  0  0  0  0  0
  1  2  1  0
  2  3  1  0
  2  4  1  0
  4  5  1  0
  5  6  1  0
  6  7  1  0
  7  8  1  0
  8  9  2  0
  8 10  1  0
 10 11  1  0
 11 12  2  0
 12 13  1  0
 13 14  2  0
 14 15  1  0
 15 16  2  0
 16 17  1  0
 17 18  1  0
 17 19  2  0
 16 20  1  0
 20 21  1  0
 21 22  2  0
 21 23  1  0
 23 24  1  0
 24 25  2  0
 24 26  1  0
 26 27  1  0
 27 28  1  0
 27 29  1  0
 29 30  2  0
 29 31  1  0
 20 32  1  0
 32 33  2  0
  7 34  1  0
 34  5  1  0
 33 11  1  0
 32 14  1  0
  1 35  1  0
  1 36  1  0
  1 37  1  0
  2 38  1  0
  3 39  1  0
  3 40  1  0
  3 41  1  0
  4 42  1  0
  4 43  1  0
  5 44  1  0
  6 45  1  0
  6 46  1  0
 10 47  1  0
 10 48  1  0
 12 49  1  0
 13 50  1  0
 15 51  1  0
 18 52  1  0
 26 53  1  0
 26 54  1  0
 27 55  1  1
 28 56  1  0
 28 57  1  0
 33 58  1  0
 34 59  1  0
 34 60  1  0
M  CHG  3   2   1  18  -1  31  -1
M  END
>  <UniqueID>  (14) 
14

>  <SMILES>  (14) 
C[NH+](C)CC1CN(C(=O)Cc2ccc3cc(C([NH-])=O)n(C(=O)OC(=O)C[C@H](N)C(=O)[O-])c3c2)C1

>  <Energy>  (14) 
140.3014266818988

>  <Genealogy>  (14) 
C[NH+](C)CC1CN(C(=O)Cc2ccc3cc(C([NH-])=O)n(C(=O)OC(=O)CC(N)C(=O)[O-])c3c2)C1 (protonated)
C[NH+](C)CC1CN(C(=O)Cc2ccc3cc(C([NH-])=O)n(C(=O)OC(=O)C[C@H](N)C(=O)[O-])c3c2)C1 (chirality)
C[NH+](C)CC1CN(C(=O)Cc2ccc3cc(C([NH-])=O)n(C(=O)OC(=O)C[C@H](N)C(=O)[O-])c3c2)C1 (3D coordinates assigned)
C[NH+](C)CC1CN(C(=O)Cc2ccc3cc(C([NH-])=O)n(C(=O)OC(=O)C[C@H](N)C(=O)[O-])c3c2)C1 (nonaromatic ring conformer: 140.3014266818988 kcal/mol)

>  <smiles>  (14) 
CN(C)CC1CN(C(=O)Cc2ccc3cc(C(N)=O)n(C(=O)OC(=O)CC(N)C(=O)O)c3c2)C1

>  <score_type>  (14) 
oracle

>  <origin>  (14) 
adg

>  <m_score__min__energy>  (14) 
-13.199999999999999

>  <m_primary>  (14) 
energy

$$$$
14:0
     RDKit          3D

 31 32  0  0  0  0  0  0  0  0999 V2000
   -2.0860   25.2790  -28.5960 N   0  0  0  0  0  0  0  0  0  0  0  0
   -1.4010   24.2170  -29.2620 C   0  0  0  0  0  0  0  0  0  0  0  0
   -0.1420   24.1720  -29.2200 O   0  0  0  0  0  0  0  0  0  0  0  0
   -2.1370   23.2110  -30.0510 C   0  0  0  0  0  0  0  0  0  0  0  0
   -1.6300   21.9470  -30.3410 C   0  0  0  0  0  0  0  0  0  0  0  0
   -2.5770   21.3510  -31.1400 C   0  0  0  0  0  0  0  0  0  0  0  0
   -2.5950   20.0790  -31.7060 C   0  0  0  0  0  0  0  0  0  0  0  0
   -3.7220   19.7090  -32.4580 C   0  0  0  0  0  0  0  0  0  0  0  0
   -4.8070   20.6070  -32.6230 C   0  0  0  0  0  0  0  0  0  0  0  0
   -6.0280   20.1860  -33.3990 C   0  0  0  0  0  0  0  0  0  0  0  0
   -7.3300   20.5940  -32.6980 C   0  0  0  0  0  0  0  0  0  0  0  0
   -8.3740   19.1910  -32.3190 S   0  0  0  0  0  0  0  0  0  0  0  0
   -7.6780   17.9120  -32.6910 O   0  0  0  0  0  0  0  0  0  0  0  0
   -8.7040   19.1750  -30.8530 O   0  0  0  0  0  0  0  0  0  0  0  0
   -9.7940   19.3180  -33.1960 F   0  0  0  0  0  0  0  0  0  0  0  0
   -4.7530   21.8880  -32.0310 C   0  0  0  0  0  0  0  0  0  0  0  0
   -3.6090   22.2400  -31.3050 C   0  0  0  0  0  0  0  0  0  0  0  0
   -3.3550   23.3880  -30.6360 N   0  0  0  0  0  0  0  0  0  0  0  0
   -4.2450   24.5060  -30.4710 C   0  0  0  0  0  0  0  0  0  0  0  0
   -3.8650   25.6730  -30.7500 O   0  0  0  0  0  0  0  0  0  0  0  0
   -5.5400   24.3070  -30.0070 O   0  0  0  0  0  0  0  0  0  0  0  0
   -3.1060   25.4400  -28.7470 H   0  0  0  0  0  0  0  0  0  0  0  0
   -1.5530   25.9620  -28.0130 H   0  0  0  0  0  0  0  0  0  0  0  0
   -0.6756   21.5171  -30.0030 H   0  0  0  0  0  0  0  0  0  0  0  0
   -1.7525   19.3853  -31.5684 H   0  0  0  0  0  0  0  0  0  0  0  0
   -3.7634   18.7132  -32.9234 H   0  0  0  0  0  0  0  0  0  0  0  0
   -5.9971   20.6588  -34.3917 H   0  0  0  0  0  0  0  0  0  0  0  0
   -6.0164   19.0888  -33.4772 H   0  0  0  0  0  0  0  0  0  0  0  0
   -7.0785   21.1101  -31.7597 H   0  0  0  0  0  0  0  0  0  0  0  0
   -7.8872   21.2493  -33.3837 H   0  0  0  0  0  0  0  0  0  0  0  0
   -5.5906   22.5930  -32.1379 H   0  0  0  0  0  0  0  0  0  0  0  0
  1  2  1  0
  2  3  2  0
  2  4  1  0
  4  5  2  0
  5  6  1  0
  6  7  2  0
  7  8  1  0
  8  9  2  0
  9 10  1  0
 10 11  1  0
 11 12  1  0
 12 13  2  0
 12 14  2  0
 12 15  1  0
  9 16  1  0
 16 17  2  0
 17 18  1  0
 18 19  1  0
 19 20  2  0
 19 21  1  0
 18  4  1  0
 17  6  1  0
  1 22  1  0
  1 23  1  0
  5 24  1  0
  7 25  1  0
  8 26  1  0
 10 27  1  0
 10 28  1  0
 11 29  1  0
 11 30  1  0
 16 31  1  0
M  CHG  1  21  -1
M  END
>  <UniqueID>  (15) 
15

>  <SMILES>  (15) 
NC(=O)c1cc2ccc(CCS(=O)(=O)F)cc2n1C(=O)[O-]

>  <Energy>  (15) 
65.33255696728463

>  <Genealogy>  (15) 
NC(=O)c1cc2ccc(CCS(=O)(=O)F)cc2n1C(=O)[O-] (protonated)
NC(=O)c1cc2ccc(CCS(=O)(=O)F)cc2n1C(=O)[O-] (3D coordinates assigned)
NC(=O)c1cc2ccc(CCS(=O)(=O)F)cc2n1C(=O)[O-] (optimized conformer: 65.33255696728463 kcal/mol)

>  <smiles>  (15) 
NC(=O)c1cc2ccc(CCS(=O)(=O)F)cc2n1C(=O)O

>  <score_type>  (15) 
oracle

>  <origin>  (15) 
adg

>  <m_score__min__energy>  (15) 
-8.9399999999999995

>  <m_primary>  (15) 
energy

$$$$
15:0
     RDKit          3D

 39 41  0  0  0  0  0  0  0  0999 V2000
   -2.1700   25.2800  -28.6210 N   0  0  0  0  0  0  0  0  0  0  0  0
   -1.3790   24.2410  -29.2010 C   0  0  0  0  0  0  0  0  0  0  0  0
   -0.1460   24.1970  -28.9530 O   0  0  0  0  0  0  0  0  0  0  0  0
   -1.9900   23.2490  -30.1140 C   0  0  0  0  0  0  0  0  0  0  0  0
   -1.3590   22.0720  -30.5150 C   0  0  0  0  0  0  0  0  0  0  0  0
   -2.2930   21.3950  -31.2630 C   0  0  0  0  0  0  0  0  0  0  0  0
   -2.1970   20.1680  -31.9140 C   0  0  0  0  0  0  0  0  0  0  0  0
   -3.3160   19.7140  -32.6310 C   0  0  0  0  0  0  0  0  0  0  0  0
   -4.5030   20.4880  -32.6830 C   0  0  0  0  0  0  0  0  0  0  0  0
   -5.6950   19.9870  -33.4540 C   0  0  0  0  0  0  0  0  0  0  0  0
   -6.8520   19.4830  -32.5620 C   0  0  0  0  0  0  0  0  0  0  0  0
   -8.1110   20.3830  -32.3580 C   0  0  0  0  0  0  0  0  0  0  0  0
   -9.1100   20.0540  -33.2930 O   0  0  0  0  0  0  0  0  0  0  0  0
   -8.6900   20.4300  -30.9380 C   0  0  0  0  0  0  0  0  0  0  0  0
   -8.5260   21.9440  -30.9230 C   0  0  0  0  0  0  0  0  0  0  0  0
   -7.9130   21.9030  -32.3190 C   0  0  0  0  0  0  0  0  0  0  0  0
   -4.5540   21.7380  -32.0280 C   0  0  0  0  0  0  0  0  0  0  0  0
   -3.4330   22.1540  -31.3020 C   0  0  0  0  0  0  0  0  0  0  0  0
   -3.2630   23.2980  -30.5990 N   0  0  0  0  0  0  0  0  0  0  0  0
   -4.2130   24.3680  -30.4570 C   0  0  0  0  0  0  0  0  0  0  0  0
   -5.3750   24.1370  -30.0300 O   0  0  0  0  0  0  0  0  0  0  0  0
   -3.8640   25.6660  -30.8070 O   0  0  0  0  0  0  0  0  0  0  0  0
   -1.7220   25.9990  -28.0100 H   0  0  0  0  0  0  0  0  0  0  0  0
   -3.2030   25.3190  -28.7610 H   0  0  0  0  0  0  0  0  0  0  0  0
   -0.3323   21.7530  -30.2824 H   0  0  0  0  0  0  0  0  0  0  0  0
   -1.2732   19.5726  -31.8681 H   0  0  0  0  0  0  0  0  0  0  0  0
   -3.2712   18.7490  -33.1571 H   0  0  0  0  0  0  0  0  0  0  0  0
   -6.0730   20.8090  -34.0797 H   0  0  0  0  0  0  0  0  0  0  0  0
   -5.3522   19.1269  -34.0479 H   0  0  0  0  0  0  0  0  0  0  0  0
   -7.2026   18.5356  -32.9972 H   0  0  0  0  0  0  0  0  0  0  0  0
   -6.4033   19.4337  -31.5589 H   0  0  0  0  0  0  0  0  0  0  0  0
   -8.6790   20.0490  -34.1880 H   0  0  0  0  0  0  0  0  0  0  0  0
   -9.7338   20.0904  -30.8669 H   0  0  0  0  0  0  0  0  0  0  0  0
   -8.2538   19.8143  -30.1376 H   0  0  0  0  0  0  0  0  0  0  0  0
   -9.4757   22.4963  -30.8674 H   0  0  0  0  0  0  0  0  0  0  0  0
   -7.9888   22.4338  -30.0974 H   0  0  0  0  0  0  0  0  0  0  0  0
   -8.4891   22.4510  -33.0792 H   0  0  0  0  0  0  0  0  0  0  0  0
   -6.9215   22.3413  -32.5059 H   0  0  0  0  0  0  0  0  0  0  0  0
   -5.4531   22.3690  -32.0872 H   0  0  0  0  0  0  0  0  0  0  0  0
  1  2  1  0
  2  3  2  0
  2  4  1  0
  4  5  2  0
  5  6  1  0
  6  7  2  0
  7  8  1  0
  8  9  2  0
  9 10  1  0
 10 11  1  0
 11 12  1  0
 12 13  1  0
 12 14  1  0
 14 15  1  0
 15 16  1  0
  9 17  1  0
 17 18  2  0
 18 19  1  0
 19 20  1  0
 20 21  2  0
 20 22  1  0
 19  4  1  0
 18  6  1  0
 16 12  1  0
  1 23  1  0
  1 24  1  0
  5 25  1  0
  7 26  1  0
  8 27  1  0
 10 28  1  0
 10 29  1  0
 11 30  1  0
 11 31  1  0
 13 32  1  0
 14 33  1  0
 14 34  1  0
 15 35  1  0
 15 36  1  0
 16 37  1  0
 16 38  1  0
 17 39  1  0
M  CHG  1  22  -1
M  END
>  <UniqueID>  (16) 
16

>  <SMILES>  (16) 
NC(=O)c1cc2ccc(CCC3(O)CCC3)cc2n1C(=O)[O-]

>  <Energy>  (16) 
142.2111113242488

>  <Genealogy>  (16) 
NC(=O)c1cc2ccc(CCC3(O)CCC3)cc2n1C(=O)[O-] (protonated)
NC(=O)c1cc2ccc(CCC3(O)CCC3)cc2n1C(=O)[O-] (3D coordinates assigned)
NC(=O)c1cc2ccc(CCC3(O)CCC3)cc2n1C(=O)[O-] (nonaromatic ring conformer: 142.2111113242488 kcal/mol)

>  <smiles>  (16) 
NC(=O)c1cc2ccc(CCC3(O)CCC3)cc2n1C(=O)O

>  <score_type>  (16) 
oracle

>  <origin>  (16) 
adg

>  <m_score__min__energy>  (16) 
-9.5199999999999996

>  <m_primary>  (16) 
energy

$$$$
16:0
     RDKit          3D

 38 40  0  0  0  0  0  0  0  0999 V2000
   -7.5980   22.9910  -30.8330 C   0  0  0  0  0  0  0  0  0  0  0  0
   -8.8130   22.2780  -31.0300 O   0  0  0  0  0  0  0  0  0  0  0  0
   -8.8950   21.1350  -31.8300 C   0  0  0  0  0  0  0  0  0  0  0  0
   -9.9960   20.7850  -32.3370 O   0  0  0  0  0  0  0  0  0  0  0  0
   -7.6880   20.3370  -32.0800 C   0  0  0  0  0  0  0  0  0  0  0  0
   -7.4480   19.0460  -31.6420 C   0  0  0  0  0  0  0  0  0  0  0  0
   -6.2030   18.7010  -32.1300 C   0  0  0  0  0  0  0  0  0  0  0  0
   -5.6850   19.7290  -32.8310 N   0  0  0  0  0  0  0  0  0  0  0  0
   -4.4230   19.7210  -33.5660 C   0  0  0  0  0  0  0  0  0  0  0  0
   -3.3520   20.3890  -32.7480 C   0  0  0  0  0  0  0  0  0  0  0  0
   -2.0760   19.7870  -32.6240 C   0  0  0  0  0  0  0  0  0  0  0  0
   -1.0850   20.3700  -31.8170 C   0  0  0  0  0  0  0  0  0  0  0  0
   -1.4020   21.5470  -31.1460 C   0  0  0  0  0  0  0  0  0  0  0  0
   -0.6450   22.3010  -30.2790 C   0  0  0  0  0  0  0  0  0  0  0  0
   -1.4670   23.3560  -29.8910 C   0  0  0  0  0  0  0  0  0  0  0  0
   -1.0160   24.4600  -29.0170 C   0  0  0  0  0  0  0  0  0  0  0  0
   -1.7720   25.6670  -28.9530 N   0  0  0  0  0  0  0  0  0  0  0  0
    0.0080   24.3360  -28.2960 O   0  0  0  0  0  0  0  0  0  0  0  0
   -2.6890   23.2560  -30.4900 N   0  0  0  0  0  0  0  0  0  0  0  0
   -3.8360   24.1030  -30.3050 C   0  0  0  0  0  0  0  0  0  0  0  0
   -4.8420   23.6840  -29.6740 O   0  0  0  0  0  0  0  0  0  0  0  0
   -3.8550   25.3840  -30.8430 O   0  0  0  0  0  0  0  0  0  0  0  0
   -2.6310   22.1450  -31.2570 C   0  0  0  0  0  0  0  0  0  0  0  0
   -3.6420   21.5760  -32.0410 C   0  0  0  0  0  0  0  0  0  0  0  0
   -6.5880   20.7280  -32.8170 C   0  0  0  0  0  0  0  0  0  0  0  0
   -7.4087   23.1021  -29.7551 H   0  0  0  0  0  0  0  0  0  0  0  0
   -6.7683   22.4365  -31.2958 H   0  0  0  0  0  0  0  0  0  0  0  0
   -7.6774   23.9858  -31.2958 H   0  0  0  0  0  0  0  0  0  0  0  0
   -8.1143   18.4212  -31.0291 H   0  0  0  0  0  0  0  0  0  0  0  0
   -5.7079   17.7318  -31.9704 H   0  0  0  0  0  0  0  0  0  0  0  0
   -4.1284   18.6818  -33.7743 H   0  0  0  0  0  0  0  0  0  0  0  0
   -4.5506   20.2672  -34.5122 H   0  0  0  0  0  0  0  0  0  0  0  0
   -1.8589   18.8540  -33.1648 H   0  0  0  0  0  0  0  0  0  0  0  0
   -0.0903   19.9108  -31.7187 H   0  0  0  0  0  0  0  0  0  0  0  0
    0.3904   22.1107  -29.9599 H   0  0  0  0  0  0  0  0  0  0  0  0
   -2.7840   25.6810  -29.2110 H   0  0  0  0  0  0  0  0  0  0  0  0
   -4.6365   22.0418  -32.1044 H   0  0  0  0  0  0  0  0  0  0  0  0
   -6.4681   21.7018  -33.3143 H   0  0  0  0  0  0  0  0  0  0  0  0
  1  2  1  0
  2  3  1  0
  3  4  2  0
  3  5  1  0
  5  6  1  0
  6  7  2  0
  7  8  1  0
  8  9  1  0
  9 10  1  0
 10 11  2  0
 11 12  1  0
 12 13  2  0
 13 14  1  0
 14 15  2  0
 15 16  1  0
 16 17  1  0
 16 18  2  0
 15 19  1  0
 19 20  1  0
 20 21  2  0
 20 22  1  0
 19 23  1  0
 23 24  2  0
  8 25  1  0
 25  5  2  0
 24 10  1  0
 23 13  1  0
  1 26  1  0
  1 27  1  0
  1 28  1  0
  6 29  1  0
  7 30  1  0
  9 31  1  0
  9 32  1  0
 11 33  1  0
 12 34  1  0
 14 35  1  0
 17 36  1  0
 24 37  1  0
 25 38  1  0
M  CHG  2  17  -1  22  -1
M  END
>  <UniqueID>  (17) 
17

>  <SMILES>  (17) 
COC(=O)c1ccn(Cc2ccc3cc(C([NH-])=O)n(C(=O)[O-])c3c2)c1

>  <Energy>  (17) 
100.54420193609167

>  <Genealogy>  (17) 
COC(=O)c1ccn(Cc2ccc3cc(C([NH-])=O)n(C(=O)[O-])c3c2)c1 (protonated)
COC(=O)c1ccn(Cc2ccc3cc(C([NH-])=O)n(C(=O)[O-])c3c2)c1 (3D coordinates assigned)
COC(=O)c1ccn(Cc2ccc3cc(C([NH-])=O)n(C(=O)[O-])c3c2)c1 (optimized conformer: 100.54420193609167 kcal/mol)

>  <smiles>  (17) 
COC(=O)c1ccn(Cc2ccc3cc(C(N)=O)n(C(=O)O)c3c2)c1

>  <score_type>  (17) 
oracle

>  <origin>  (17) 
adg

>  <m_score__min__energy>  (17) 
-11.56

>  <m_primary>  (17) 
energy

$$$$
17:0
     RDKit          3D

 43 45  0  0  0  0  0  0  0  0999 V2000
   -6.4370   25.1470  -29.7170 C   0  0  0  0  0  0  0  0  0  0  0  0
   -5.3130   24.1770  -29.3760 C   0  0  1  0  0  0  0  0  0  0  0  0
   -5.7450   22.8760  -29.5950 F   0  0  0  0  0  0  0  0  0  0  0  0
   -4.0950   24.4670  -30.2060 C   0  0  0  0  0  0  0  0  0  0  0  0
   -3.9710   25.5890  -30.7630 O   0  0  0  0  0  0  0  0  0  0  0  0
   -3.1200   23.4450  -30.4520 N   0  0  0  0  0  0  0  0  0  0  0  0
   -1.8550   23.3530  -29.9600 C   0  0  0  0  0  0  0  0  0  0  0  0
   -1.1720   24.3700  -29.1320 C   0  0  0  0  0  0  0  0  0  0  0  0
   -1.7190   25.6790  -28.9780 N   0  0  0  0  0  0  0  0  0  0  0  0
   -0.0790   24.0890  -28.5690 O   0  0  0  0  0  0  0  0  0  0  0  0
   -1.2500   22.1740  -30.3970 C   0  0  0  0  0  0  0  0  0  0  0  0
   -2.1910   21.5550  -31.1890 C   0  0  0  0  0  0  0  0  0  0  0  0
   -2.1280   20.3550  -31.8910 C   0  0  0  0  0  0  0  0  0  0  0  0
   -3.2540   19.9660  -32.6340 C   0  0  0  0  0  0  0  0  0  0  0  0
   -4.4210   20.7780  -32.6750 C   0  0  0  0  0  0  0  0  0  0  0  0
   -5.5990   20.4150  -33.4300 N   0  0  0  0  0  0  0  0  0  0  0  0
   -6.3950   19.1740  -33.3500 C   0  0  1  0  0  0  0  0  0  0  0  0
   -5.6330   18.0050  -32.7610 C   0  0  0  0  0  0  0  0  0  0  0  0
   -6.5060   17.5500  -31.6000 C   0  0  0  0  0  0  0  0  0  0  0  0
   -7.4350   18.5640  -31.2900 O   0  0  0  0  0  0  0  0  0  0  0  0
   -7.6590   19.2710  -32.4850 C   0  0  1  0  0  0  0  0  0  0  0  0
   -8.1340   20.6960  -32.1860 C   0  0  0  0  0  0  0  0  0  0  0  0
   -4.4420   21.9820  -31.9340 C   0  0  0  0  0  0  0  0  0  0  0  0
   -3.3060   22.3450  -31.2080 C   0  0  0  0  0  0  0  0  0  0  0  0
   -6.8833   25.5322  -28.7883 H   0  0  0  0  0  0  0  0  0  0  0  0
   -6.0329   25.9846  -30.3045 H   0  0  0  0  0  0  0  0  0  0  0  0
   -7.2065   24.6247  -30.3045 H   0  0  0  0  0  0  0  0  0  0  0  0
   -5.0429   24.2987  -28.3167 H   0  0  0  0  0  0  0  0  0  0  0  0
   -2.7520   25.8290  -28.9670 H   0  0  0  0  0  0  0  0  0  0  0  0
   -0.2375   21.8156  -30.1595 H   0  0  0  0  0  0  0  0  0  0  0  0
   -1.2232   19.7300  -31.8645 H   0  0  0  0  0  0  0  0  0  0  0  0
   -3.2333   19.0188  -33.1929 H   0  0  0  0  0  0  0  0  0  0  0  0
   -5.8430   21.0380  -34.2320 H   0  0  0  0  0  0  0  0  0  0  0  0
   -6.6525   19.0186  -34.4081 H   0  0  0  0  0  0  0  0  0  0  0  0
   -4.6419   18.3228  -32.4049 H   0  0  0  0  0  0  0  0  0  0  0  0
   -5.4486   17.2052  -33.4934 H   0  0  0  0  0  0  0  0  0  0  0  0
   -5.8744   17.3494  -30.7220 H   0  0  0  0  0  0  0  0  0  0  0  0
   -7.0428   16.6318  -31.8805 H   0  0  0  0  0  0  0  0  0  0  0  0
   -8.4777   18.8274  -33.0707 H   0  0  0  0  0  0  0  0  0  0  0  0
   -8.1837   20.8451  -31.0973 H   0  0  0  0  0  0  0  0  0  0  0  0
   -7.4277   21.4172  -32.6230 H   0  0  0  0  0  0  0  0  0  0  0  0
   -9.1318   20.8492  -32.6230 H   0  0  0  0  0  0  0  0  0  0  0  0
   -5.3372   22.6212  -31.9296 H   0  0  0  0  0  0  0  0  0  0  0  0
  1  2  1  0
  2  3  1  0
  2  4  1  0
  4  5  2  0
  4  6  1  0
  6  7  1  0
  7  8  1  0
  8  9  1  0
  8 10  2  0
  7 11  2  0
 11 12  1  0
 12 13  2  0
 13 14  1  0
 14 15  2  0
 15 16  1  0
 16 17  1  0
 17 18  1  0
 18 19  1  0
 19 20  1  0
 20 21  1  0
 21 22  1  0
 15 23  1  0
 23 24  2  0
 24  6  1  0
 24 12  1  0
 21 17  1  0
  1 25  1  0
  1 26  1  0
  1 27  1  0
  2 28  1  1
  9 29  1  0
 11 30  1  0
 13 31  1  0
 14 32  1  0
 16 33  1  0
 17 34  1  6
 18 35  1  0
 18 36  1  0
 19 37  1  0
 19 38  1  0
 21 39  1  6
 22 40  1  0
 22 41  1  0
 22 42  1  0
 23 43  1  0
M  CHG  1   9  -1
M  END
>  <UniqueID>  (18) 
18

>  <SMILES>  (18) 
CC1OCC[C@@H]1Nc1ccc2cc(C([NH-])=O)n(C(=O)[C@@H](C)F)c2c1

>  <Energy>  (18) 
87.46549192284208

>  <Genealogy>  (18) 
CC(F)C(=O)n1c(C([NH-])=O)cc2ccc(NC3CCOC3C)cc21 (protonated)
CC1OCC[C@@H]1Nc1ccc2cc(C([NH-])=O)n(C(=O)[C@@H](C)F)c2c1 (chirality)
CC1OCC[C@@H]1Nc1ccc2cc(C([NH-])=O)n(C(=O)[C@@H](C)F)c2c1 (3D coordinates assigned)
CC1OCC[C@@H]1Nc1ccc2cc(C([NH-])=O)n(C(=O)[C@@H](C)F)c2c1 (nonaromatic ring conformer: 87.46549192284208 kcal/mol)

>  <smiles>  (18) 
CC(F)C(=O)n1c(C(N)=O)cc2ccc(NC3CCOC3C)cc21

>  <score_type>  (18) 
oracle

>  <origin>  (18) 
adg

>  <m_score__min__energy>  (18) 
-10.94

>  <m_primary>  (18) 
energy

$$$$
18:0
     RDKit          3D

 35 37  0  0  0  0  0  0  0  0999 V2000
   -6.1110   18.4940  -35.0890 N   0  0  0  0  0  0  0  0  0  0  0  0
   -4.8050   18.3470  -34.5250 C   0  0  0  0  0  0  0  0  0  0  0  0
   -4.1250   17.3160  -34.7880 O   0  0  0  0  0  0  0  0  0  0  0  0
   -4.2690   19.3470  -33.5820 C   0  0  0  0  0  0  0  0  0  0  0  0
   -2.9080   19.5670  -33.4020 C   0  0  0  0  0  0  0  0  0  0  0  0
   -2.8220   20.4870  -32.3850 C   0  0  0  0  0  0  0  0  0  0  0  0
   -1.7000   21.0660  -31.8030 C   0  0  0  0  0  0  0  0  0  0  0  0
   -1.9000   22.0050  -30.7790 C   0  0  0  0  0  0  0  0  0  0  0  0
   -3.2090   22.3490  -30.3610 C   0  0  0  0  0  0  0  0  0  0  0  0
   -3.4140   23.3550  -29.2610 C   0  0  0  0  0  0  0  0  0  0  0  0
   -3.0540   24.7290  -29.7340 C   0  0  0  0  0  0  0  0  0  0  0  0
   -2.0130   25.2910  -29.3080 O   0  0  0  0  0  0  0  0  0  0  0  0
   -3.8710   25.3910  -30.6430 O   0  0  0  0  0  0  0  0  0  0  0  0
   -4.3260   21.7570  -30.9890 C   0  0  0  0  0  0  0  0  0  0  0  0
   -4.1000   20.8040  -31.9930 C   0  0  0  0  0  0  0  0  0  0  0  0
   -5.0050   20.1140  -32.7280 N   0  0  0  0  0  0  0  0  0  0  0  0
   -6.4380   20.2540  -32.7020 C   0  0  0  0  0  0  0  0  0  0  0  0
   -7.1700   19.2260  -32.6810 O   0  0  0  0  0  0  0  0  0  0  0  0
   -7.0200   21.5260  -32.7270 O   0  0  0  0  0  0  0  0  0  0  0  0
   -7.7040   22.0780  -31.6100 C   0  0  0  0  0  0  0  0  0  0  0  0
   -8.5030   23.3130  -31.9880 C   0  0  0  0  0  0  0  0  0  0  0  0
   -7.2080   23.4520  -31.2010 C   0  0  0  0  0  0  0  0  0  0  0  0
   -6.7370   19.2790  -34.7990 H   0  0  0  0  0  0  0  0  0  0  0  0
   -6.4990   17.7470  -35.7060 H   0  0  0  0  0  0  0  0  0  0  0  0
   -2.0778   19.1037  -33.9553 H   0  0  0  0  0  0  0  0  0  0  0  0
   -0.6865   20.7965  -32.1348 H   0  0  0  0  0  0  0  0  0  0  0  0
   -1.0320   22.4782  -30.2966 H   0  0  0  0  0  0  0  0  0  0  0  0
   -4.4696   23.3435  -28.9519 H   0  0  0  0  0  0  0  0  0  0  0  0
   -2.7674   23.0902  -28.4114 H   0  0  0  0  0  0  0  0  0  0  0  0
   -5.3493   22.0364  -30.6979 H   0  0  0  0  0  0  0  0  0  0  0  0
   -7.9028   21.1401  -31.0707 H   0  0  0  0  0  0  0  0  0  0  0  0
   -8.5472   23.6401  -33.0373 H   0  0  0  0  0  0  0  0  0  0  0  0
   -9.5421   23.6429  -31.8420 H   0  0  0  0  0  0  0  0  0  0  0  0
   -6.3157   23.8802  -31.6812 H   0  0  0  0  0  0  0  0  0  0  0  0
   -6.9227   23.9247  -30.2496 H   0  0  0  0  0  0  0  0  0  0  0  0
  1  2  1  0
  2  3  2  0
  2  4  1  0
  4  5  2  0
  5  6  1  0
  6  7  2  0
  7  8  1  0
  8  9  2  0
  9 10  1  0
 10 11  1  0
 11 12  2  0
 11 13  1  0
  9 14  1  0
 14 15  2  0
 15 16  1  0
 16 17  1  0
 17 18  2  0
 17 19  1  0
 19 20  1  0
 20 21  1  0
 21 22  1  0
 16  4  1  0
 22 20  1  0
 15  6  1  0
  1 23  1  0
  1 24  1  0
  5 25  1  0
  7 26  1  0
  8 27  1  0
 10 28  1  0
 10 29  1  0
 14 30  1  0
 20 31  1  0
 21 32  1  0
 21 33  1  0
 22 34  1  0
 22 35  1  0
M  CHG  1  13  -1
M  END
>  <UniqueID>  (19) 
19

>  <SMILES>  (19) 
NC(=O)c1cc2ccc(CC(=O)[O-])cc2n1C(=O)OC1CC1

>  <Energy>  (19) 
337.5819120126142

>  <Genealogy>  (19) 
NC(=O)c1cc2ccc(CC(=O)[O-])cc2n1C(=O)OC1CC1 (protonated)
NC(=O)c1cc2ccc(CC(=O)[O-])cc2n1C(=O)OC1CC1 (3D coordinates assigned)
NC(=O)c1cc2ccc(CC(=O)[O-])cc2n1C(=O)OC1CC1 (nonaromatic ring conformer: 337.5819120126142 kcal/mol)

>  <smiles>  (19) 
NC(=O)c1cc2ccc(CC(=O)O)cc2n1C(=O)OC1CC1

>  <score_type>  (19) 
oracle

>  <origin>  (19) 
adg

>  <m_score__min__energy>  (19) 
-9.7400000000000002

>  <m_primary>  (19) 
energy

$$$$
19:0
     RDKit          3D

 56 57  0  0  0  0  0  0  0  0999 V2000
   -3.8440   22.9650  -28.3150 C   0  0  0  0  0  0  0  0  0  0  0  0
   -2.8430   22.4350  -29.3350 C   0  0  0  0  0  0  0  0  0  0  0  0
   -2.9930   23.1080  -30.5830 O   0  0  0  0  0  0  0  0  0  0  0  0
   -3.8970   22.7060  -31.5740 C   0  0  0  0  0  0  0  0  0  0  0  0
   -3.4840   22.1410  -32.6220 O   0  0  0  0  0  0  0  0  0  0  0  0
   -5.2980   22.9690  -31.4050 N   0  0  0  0  0  0  0  0  0  0  0  0
   -5.8830   24.0690  -30.8490 C   0  0  0  0  0  0  0  0  0  0  0  0
   -5.1900   25.3090  -30.4410 C   0  0  0  0  0  0  0  0  0  0  0  0
   -3.8630   25.5870  -30.8800 N   0  0  0  0  0  0  0  0  0  0  0  0
   -5.7960   26.1570  -29.7340 O   0  0  0  0  0  0  0  0  0  0  0  0
   -7.2650   23.9070  -30.7860 C   0  0  0  0  0  0  0  0  0  0  0  0
   -7.5140   22.6690  -31.3340 C   0  0  0  0  0  0  0  0  0  0  0  0
   -8.7180   21.9930  -31.5080 C   0  0  0  0  0  0  0  0  0  0  0  0
   -8.6740   20.7070  -32.0730 C   0  0  0  0  0  0  0  0  0  0  0  0
   -7.4390   20.1260  -32.4520 C   0  0  0  0  0  0  0  0  0  0  0  0
   -7.4000   18.7290  -33.0080 C   0  0  0  0  0  0  0  0  0  0  0  0
   -5.9740   18.1660  -32.9520 C   0  0  0  0  0  0  0  0  0  0  0  0
   -5.1730   18.4450  -34.2050 C   0  0  0  0  0  0  0  0  0  0  0  0
   -5.7410   18.7650  -35.2420 O   0  0  0  0  0  0  0  0  0  0  0  0
   -3.7260   18.3480  -34.1710 N   0  0  2  0  0  0  0  0  0  0  0  0
   -3.3120   17.0480  -34.7290 C   0  0  0  0  0  0  0  0  0  0  0  0
   -3.2490   18.5430  -32.7820 C   0  0  0  0  0  0  0  0  0  0  0  0
   -2.0570   19.5170  -32.6990 C   0  0  0  0  0  0  0  0  0  0  0  0
   -1.5490   19.8220  -34.0560 N   0  0  0  0  0  0  0  0  0  0  0  0
   -0.9680   21.1740  -34.1000 C   0  0  0  0  0  0  0  0  0  0  0  0
   -0.5350   18.8390  -34.4760 C   0  0  0  0  0  0  0  0  0  0  0  0
   -6.2360   20.8380  -32.2480 C   0  0  0  0  0  0  0  0  0  0  0  0
   -6.3100   22.1250  -31.7000 C   0  0  0  0  0  0  0  0  0  0  0  0
   -3.4715   22.7677  -27.2990 H   0  0  0  0  0  0  0  0  0  0  0  0
   -3.9712   24.0486  -28.4550 H   0  0  0  0  0  0  0  0  0  0  0  0
   -4.8117   22.4611  -28.4550 H   0  0  0  0  0  0  0  0  0  0  0  0
   -1.8225   22.5968  -28.9576 H   0  0  0  0  0  0  0  0  0  0  0  0
   -3.0271   21.3612  -29.4872 H   0  0  0  0  0  0  0  0  0  0  0  0
   -3.0370   25.2800  -30.3210 H   0  0  0  0  0  0  0  0  0  0  0  0
   -8.0016   24.6179  -30.3835 H   0  0  0  0  0  0  0  0  0  0  0  0
   -9.6737   22.4507  -31.2127 H   0  0  0  0  0  0  0  0  0  0  0  0
   -9.6082   20.1458  -32.2225 H   0  0  0  0  0  0  0  0  0  0  0  0
   -8.0665   18.0852  -32.4154 H   0  0  0  0  0  0  0  0  0  0  0  0
   -7.7304   18.7551  -34.0569 H   0  0  0  0  0  0  0  0  0  0  0  0
   -5.4527   18.6190  -32.0958 H   0  0  0  0  0  0  0  0  0  0  0  0
   -6.0576   17.0736  -32.8542 H   0  0  0  0  0  0  0  0  0  0  0  0
   -3.3250   19.1020  -34.7780 H   0  0  0  0  0  0  0  0  0  0  0  0
   -3.0899   16.3505  -33.9079 H   0  0  0  0  0  0  0  0  0  0  0  0
   -4.1244   16.6391  -35.3478 H   0  0  0  0  0  0  0  0  0  0  0  0
   -2.4128   17.1842  -35.3478 H   0  0  0  0  0  0  0  0  0  0  0  0
   -4.0759   18.9450  -32.1781 H   0  0  0  0  0  0  0  0  0  0  0  0
   -2.9102   17.5669  -32.4046 H   0  0  0  0  0  0  0  0  0  0  0  0
   -2.3830   20.4495  -32.2152 H   0  0  0  0  0  0  0  0  0  0  0  0
   -1.2527   19.0499  -32.1117 H   0  0  0  0  0  0  0  0  0  0  0  0
   -0.8111   21.5392  -33.0743 H   0  0  0  0  0  0  0  0  0  0  0  0
   -0.0042   21.1419  -34.6293 H   0  0  0  0  0  0  0  0  0  0  0  0
   -1.6546   21.8511  -34.6293 H   0  0  0  0  0  0  0  0  0  0  0  0
   -0.0704   18.3886  -33.5865 H   0  0  0  0  0  0  0  0  0  0  0  0
   -1.0139   18.0524  -35.0776 H   0  0  0  0  0  0  0  0  0  0  0  0
    0.2364   19.3421  -35.0776 H   0  0  0  0  0  0  0  0  0  0  0  0
   -5.2656   20.3929  -32.5128 H   0  0  0  0  0  0  0  0  0  0  0  0
  1  2  1  0
  2  3  1  0
  3  4  1  0
  4  5  2  0
  4  6  1  0
  6  7  1  0
  7  8  1  0
  8  9  1  0
  8 10  2  0
  7 11  2  0
 11 12  1  0
 12 13  2  0
 13 14  1  0
 14 15  2  0
 15 16  1  0
 16 17  1  0
 17 18  1  0
 18 19  2  0
 18 20  1  0
 20 21  1  0
 20 22  1  0
 22 23  1  0
 23 24  1  0
 24 25  1  0
 24 26  1  0
 15 27  1  0
 27 28  2  0
 28  6  1  0
 28 12  1  0
  1 29  1  0
  1 30  1  0
  1 31  1  0
  2 32  1  0
  2 33  1  0
  9 34  1  0
 11 35  1  0
 13 36  1  0
 14 37  1  0
 16 38  1  0
 16 39  1  0
 17 40  1  0
 17 41  1  0
 20 42  1  6
 21 43  1  0
 21 44  1  0
 21 45  1  0
 22 46  1  0
 22 47  1  0
 23 48  1  0
 23 49  1  0
 25 50  1  0
 25 51  1  0
 25 52  1  0
 26 53  1  0
 26 54  1  0
 26 55  1  0
 27 56  1  0
M  CHG  2   9  -1  20   1
M  END
>  <UniqueID>  (20) 
20

>  <SMILES>  (20) 
CCOC(=O)n1c(C([NH-])=O)cc2ccc(CCC(=O)[N@H+](C)CCN(C)C)cc21

>  <Energy>  (20) 
89.60062357701482

>  <Genealogy>  (20) 
CCOC(=O)n1c(C([NH-])=O)cc2ccc(CCC(=O)[NH+](C)CCN(C)C)cc21 (protonated)
CCOC(=O)n1c(C([NH-])=O)cc2ccc(CCC(=O)[N@H+](C)CCN(C)C)cc21 (chirality)
CCOC(=O)n1c(C([NH-])=O)cc2ccc(CCC(=O)[N@H+](C)CCN(C)C)cc21 (3D coordinates assigned)
CCOC(=O)n1c(C([NH-])=O)cc2ccc(CCC(=O)[N@H+](C)CCN(C)C)cc21 (optimized conformer: 89.60062357701482 kcal/mol)

>  <smiles>  (20) 
CCOC(=O)n1c(C(N)=O)cc2ccc(CCC(=O)N(C)CCN(C)C)cc21

>  <score_type>  (20) 
oracle

>  <origin>  (20) 
adg

>  <m_score__min__energy>  (20) 
-9.4499999999999993

>  <m_primary>  (20) 
energy

$$$$
20:0
     RDKit          3D

 52 53  0  0  0  0  0  0  0  0999 V2000
   -1.3910   19.6890  -31.7530 C   0  0  0  0  0  0  0  0  0  0  0  0
   -1.2270   18.5880  -32.7930 C   0  0  0  0  0  0  0  0  0  0  0  0
   -2.4800   17.9750  -33.0840 O   0  0  0  0  0  0  0  0  0  0  0  0
   -3.5270   18.6300  -33.7470 C   0  0  0  0  0  0  0  0  0  0  0  0
   -3.5090   19.8860  -33.8740 O   0  0  0  0  0  0  0  0  0  0  0  0
   -4.6430   17.8670  -34.2420 N   0  0  0  0  0  0  0  0  0  0  0  0
   -4.4860   16.4240  -34.4340 C   0  0  0  0  0  0  0  0  0  0  0  0
   -5.9680   18.4840  -34.4140 C   0  0  0  0  0  0  0  0  0  0  0  0
   -6.8070   18.3580  -33.1340 C   0  0  0  0  0  0  0  0  0  0  0  0
   -7.0480   19.7020  -32.4960 C   0  0  0  0  0  0  0  0  0  0  0  0
   -8.3630   20.2220  -32.4150 C   0  0  0  0  0  0  0  0  0  0  0  0
   -8.5900   21.5150  -31.9160 C   0  0  0  0  0  0  0  0  0  0  0  0
   -7.4860   22.2650  -31.5200 C   0  0  0  0  0  0  0  0  0  0  0  0
   -7.4170   23.5700  -31.0890 C   0  0  0  0  0  0  0  0  0  0  0  0
   -6.0600   23.8250  -30.9080 C   0  0  0  0  0  0  0  0  0  0  0  0
   -5.5330   25.1120  -30.4140 C   0  0  0  0  0  0  0  0  0  0  0  0
   -4.2080   25.5370  -30.7330 N   0  0  0  0  0  0  0  0  0  0  0  0
   -6.2450   25.8230  -29.6560 O   0  0  0  0  0  0  0  0  0  0  0  0
   -5.3160   22.7260  -31.2220 N   0  0  0  0  0  0  0  0  0  0  0  0
   -3.8870   22.6580  -31.3480 C   0  0  0  0  0  0  0  0  0  0  0  0
   -3.3640   22.2780  -32.4320 O   0  0  0  0  0  0  0  0  0  0  0  0
   -3.0790   23.0370  -30.2700 O   0  0  0  0  0  0  0  0  0  0  0  0
   -3.4470   22.8650  -28.9020 C   0  0  0  0  0  0  0  0  0  0  0  0
   -2.9590   24.0520  -28.0660 C   0  0  0  0  0  0  0  0  0  0  0  0
   -2.8330   21.5650  -28.3860 C   0  0  0  0  0  0  0  0  0  0  0  0
   -6.2070   21.7750  -31.5850 C   0  0  0  0  0  0  0  0  0  0  0  0
   -5.9530   20.4870  -32.0700 C   0  0  0  0  0  0  0  0  0  0  0  0
   -1.3262   19.2537  -30.7449 H   0  0  0  0  0  0  0  0  0  0  0  0
   -0.5943   20.4365  -31.8816 H   0  0  0  0  0  0  0  0  0  0  0  0
   -2.3710   20.1718  -31.8816 H   0  0  0  0  0  0  0  0  0  0  0  0
   -0.8152   19.0224  -33.7159 H   0  0  0  0  0  0  0  0  0  0  0  0
   -0.5455   17.8233  -32.3919 H   0  0  0  0  0  0  0  0  0  0  0  0
   -4.4320   15.9274  -33.4539 H   0  0  0  0  0  0  0  0  0  0  0  0
   -5.3469   16.0331  -34.9961 H   0  0  0  0  0  0  0  0  0  0  0  0
   -3.5612   16.2274  -34.9961 H   0  0  0  0  0  0  0  0  0  0  0  0
   -5.8395   19.5494  -34.6559 H   0  0  0  0  0  0  0  0  0  0  0  0
   -6.4928   17.9631  -35.2284 H   0  0  0  0  0  0  0  0  0  0  0  0
   -7.7764   17.9029  -33.3855 H   0  0  0  0  0  0  0  0  0  0  0  0
   -6.2534   17.7314  -32.4192 H   0  0  0  0  0  0  0  0  0  0  0  0
   -9.2136   19.6079  -32.7457 H   0  0  0  0  0  0  0  0  0  0  0  0
   -9.6089   21.9226  -31.8404 H   0  0  0  0  0  0  0  0  0  0  0  0
   -8.2546   24.2634  -30.9230 H   0  0  0  0  0  0  0  0  0  0  0  0
   -3.8660   26.4720  -30.4160 H   0  0  0  0  0  0  0  0  0  0  0  0
   -3.5390   24.9000  -31.2190 H   0  0  0  0  0  0  0  0  0  0  0  0
   -4.5427   22.8152  -28.8180 H   0  0  0  0  0  0  0  0  0  0  0  0
   -3.0574   23.8126  -26.9969 H   0  0  0  0  0  0  0  0  0  0  0  0
   -1.9039   24.2564  -28.3004 H   0  0  0  0  0  0  0  0  0  0  0  0
   -3.5652   24.9394  -28.3004 H   0  0  0  0  0  0  0  0  0  0  0  0
   -2.8352   21.5697  -27.2860 H   0  0  0  0  0  0  0  0  0  0  0  0
   -3.4229   20.7110  -28.7502 H   0  0  0  0  0  0  0  0  0  0  0  0
   -1.7987   21.4781  -28.7502 H   0  0  0  0  0  0  0  0  0  0  0  0
   -4.9262   20.0954  -32.1184 H   0  0  0  0  0  0  0  0  0  0  0  0
  1  2  1  0
  2  3  1  0
  3  4  1  0
  4  5  2  0
  4  6  1  0
  6  7  1  0
  6  8  1  0
  8  9  1  0
  9 10  1  0
 10 11  2  0
 11 12  1  0
 12 13  2  0
 13 14  1  0
 14 15  2  0
 15 16  1  0
 16 17  1  0
 16 18  2  0
 15 19  1  0
 19 20  1  0
 20 21  2  0
 20 22  1  0
 22 23  1  0
 23 24  1  0
 23 25  1  0
 19 26  1  0
 26 27  2  0
 27 10  1  0
 26 13  1  0
  1 28  1  0
  1 29  1  0
  1 30  1  0
  2 31  1  0
  2 32  1  0
  7 33  1  0
  7 34  1  0
  7 35  1  0
  8 36  1  0
  8 37  1  0
  9 38  1  0
  9 39  1  0
 11 40  1  0
 12 41  1  0
 14 42  1  0
 17 43  1  0
 17 44  1  0
 23 45  1  0
 24 46  1  0
 24 47  1  0
 24 48  1  0
 25 49  1  0
 25 50  1  0
 25 51  1  0
 27 52  1  0
M  END
>  <UniqueID>  (21) 
21

>  <SMILES>  (21) 
CCOC(=O)N(C)CCc1ccc2cc(C(N)=O)n(C(=O)OC(C)C)c2c1

>  <Energy>  (21) 
71.87390293625748

>  <Genealogy>  (21) 
CCOC(=O)N(C)CCc1ccc2cc(C(N)=O)n(C(=O)OC(C)C)c2c1 (3D coordinates assigned)
CCOC(=O)N(C)CCc1ccc2cc(C(N)=O)n(C(=O)OC(C)C)c2c1 (optimized conformer: 71.87390293625748 kcal/mol)

>  <smiles>  (21) 
CCOC(=O)N(C)CCc1ccc2cc(C(N)=O)n(C(=O)OC(C)C)c2c1

>  <score_type>  (21) 
oracle

>  <origin>  (21) 
adg

>  <m_score__min__energy>  (21) 
-8.2799999999999994

>  <m_primary>  (21) 
energy

$$$$
21:0
     RDKit          3D

 34 36  0  0  0  0  0  0  0  0999 V2000
   -2.1360   25.2520  -28.5450 N   0  0  0  0  0  0  0  0  0  0  0  0
   -1.3680   24.2120  -29.1490 C   0  0  0  0  0  0  0  0  0  0  0  0
   -0.1160   24.2000  -28.9980 O   0  0  0  0  0  0  0  0  0  0  0  0
   -2.0040   23.1890  -30.0040 C   0  0  0  0  0  0  0  0  0  0  0  0
   -1.4010   21.9760  -30.3200 C   0  0  0  0  0  0  0  0  0  0  0  0
   -2.2770   21.3490  -31.1770 C   0  0  0  0  0  0  0  0  0  0  0  0
   -2.1880   20.1030  -31.7900 C   0  0  0  0  0  0  0  0  0  0  0  0
   -3.2580   19.6880  -32.5980 C   0  0  0  0  0  0  0  0  0  0  0  0
   -4.3950   20.5160  -32.7740 C   0  0  0  0  0  0  0  0  0  0  0  0
   -5.5430   20.0640  -33.6360 C   0  0  0  0  0  0  0  0  0  0  0  0
   -6.6810   19.5680  -32.7870 C   0  0  0  0  0  0  0  0  0  0  0  0
   -6.6750   18.3650  -32.4070 O   0  0  0  0  0  0  0  0  0  0  0  0
   -7.7440   20.4390  -32.3680 N   0  0  0  0  0  0  0  0  0  0  0  0
   -7.6520   21.7040  -31.9190 C   0  0  0  0  0  0  0  0  0  0  0  0
   -8.9230   22.1480  -31.6310 C   0  0  0  0  0  0  0  0  0  0  0  0
   -9.8130   21.1700  -31.8970 N   0  0  0  0  0  0  0  0  0  0  0  0
   -9.0600   20.1440  -32.3450 C   0  0  0  0  0  0  0  0  0  0  0  0
   -4.4530   21.7720  -32.1270 C   0  0  0  0  0  0  0  0  0  0  0  0
   -3.3620   22.1700  -31.3450 C   0  0  0  0  0  0  0  0  0  0  0  0
   -3.2110   23.3070  -30.6260 N   0  0  0  0  0  0  0  0  0  0  0  0
   -4.1800   24.3550  -30.4540 C   0  0  0  0  0  0  0  0  0  0  0  0
   -5.3170   24.1030  -29.9770 O   0  0  0  0  0  0  0  0  0  0  0  0
   -3.8680   25.6630  -30.8050 O   0  0  0  0  0  0  0  0  0  0  0  0
   -1.6760   25.9410  -27.9090 H   0  0  0  0  0  0  0  0  0  0  0  0
   -3.1430   25.3880  -28.7850 H   0  0  0  0  0  0  0  0  0  0  0  0
   -0.4318   21.5986  -29.9618 H   0  0  0  0  0  0  0  0  0  0  0  0
   -1.3055   19.4624  -31.6457 H   0  0  0  0  0  0  0  0  0  0  0  0
   -3.2138   18.7101  -33.0998 H   0  0  0  0  0  0  0  0  0  0  0  0
   -5.8904   20.9098  -34.2475 H   0  0  0  0  0  0  0  0  0  0  0  0
   -5.1989   19.2427  -34.2817 H   0  0  0  0  0  0  0  0  0  0  0  0
   -6.7236   22.2824  -31.8024 H   0  0  0  0  0  0  0  0  0  0  0  0
   -9.1740   23.1465  -31.2437 H   0  0  0  0  0  0  0  0  0  0  0  0
   -9.4737   19.1737  -32.6571 H   0  0  0  0  0  0  0  0  0  0  0  0
   -5.3345   22.4210  -32.2355 H   0  0  0  0  0  0  0  0  0  0  0  0
  1  2  1  0
  2  3  2  0
  2  4  1  0
  4  5  2  0
  5  6  1  0
  6  7  2  0
  7  8  1  0
  8  9  2  0
  9 10  1  0
 10 11  1  0
 11 12  2  0
 11 13  1  0
 13 14  1  0
 14 15  2  0
 15 16  1  0
 16 17  2  0
  9 18  1  0
 18 19  2  0
 19 20  1  0
 20 21  1  0
 21 22  2  0
 21 23  1  0
 20  4  1  0
 19  6  1  0
 17 13  1  0
  1 24  1  0
  1 25  1  0
  5 26  1  0
  7 27  1  0
  8 28  1  0
 10 29  1  0
 10 30  1  0
 14 31  1  0
 15 32  1  0
 17 33  1  0
 18 34  1  0
M  CHG  1  23  -1
M  END
>  <UniqueID>  (22) 
22

>  <SMILES>  (22) 
NC(=O)c1cc2ccc(CC(=O)n3ccnc3)cc2n1C(=O)[O-]

>  <Energy>  (22) 
104.47887373114261

>  <Genealogy>  (22) 
NC(=O)c1cc2ccc(CC(=O)n3ccnc3)cc2n1C(=O)[O-] (protonated)
NC(=O)c1cc2ccc(CC(=O)n3ccnc3)cc2n1C(=O)[O-] (3D coordinates assigned)
NC(=O)c1cc2ccc(CC(=O)n3ccnc3)cc2n1C(=O)[O-] (optimized conformer: 104.47887373114261 kcal/mol)

>  <smiles>  (22) 
NC(=O)c1cc2ccc(CC(=O)n3ccnc3)cc2n1C(=O)O

>  <score_type>  (22) 
oracle

>  <origin>  (22) 
adg

>  <m_score__min__energy>  (22) 
-8.9399999999999995

>  <m_primary>  (22) 
energy

$$$$
22:0
     RDKit          3D

 53 55  0  0  0  0  0  0  0  0999 V2000
   -0.5480   19.0690  -34.5580 C   0  0  0  0  0  0  0  0  0  0  0  0
   -1.7410   18.2910  -34.1080 C   0  0  0  0  0  0  0  0  0  0  0  0
   -1.7910   16.9800  -34.0540 O   0  0  0  0  0  0  0  0  0  0  0  0
   -2.9440   16.5680  -33.6060 N   0  0  0  0  0  0  0  0  0  0  0  0
   -3.6840   17.6690  -33.3700 C   0  0  0  0  0  0  0  0  0  0  0  0
   -5.0040   17.6170  -32.8160 N   0  0  0  0  0  0  0  0  0  0  0  0
   -6.1550   18.1510  -33.4820 C   0  0  0  0  0  0  0  0  0  0  0  0
   -6.1270   18.3770  -34.7230 O   0  0  0  0  0  0  0  0  0  0  0  0
   -7.4030   18.4450  -32.7040 C   0  0  0  0  0  0  0  0  0  0  0  0
   -7.4500   19.9060  -32.3510 C   0  0  0  0  0  0  0  0  0  0  0  0
   -8.6900   20.5920  -32.2910 C   0  0  0  0  0  0  0  0  0  0  0  0
   -8.7430   21.9390  -31.8960 C   0  0  0  0  0  0  0  0  0  0  0  0
   -7.5470   22.5700  -31.5640 C   0  0  0  0  0  0  0  0  0  0  0  0
   -7.3200   23.8390  -31.0820 C   0  0  0  0  0  0  0  0  0  0  0  0
   -5.9450   23.9100  -30.8630 C   0  0  0  0  0  0  0  0  0  0  0  0
   -5.2540   25.1270  -30.3900 C   0  0  0  0  0  0  0  0  0  0  0  0
   -3.8560   25.3050  -30.5980 N   0  0  0  0  0  0  0  0  0  0  0  0
   -5.9160   26.0420  -29.8320 O   0  0  0  0  0  0  0  0  0  0  0  0
   -5.3470   22.7310  -31.1970 N   0  0  0  0  0  0  0  0  0  0  0  0
   -3.9820   22.3480  -30.9780 C   0  0  0  0  0  0  0  0  0  0  0  0
   -3.0960   22.6970  -31.8020 O   0  0  0  0  0  0  0  0  0  0  0  0
   -3.6610   21.5570  -29.8640 O   0  0  0  0  0  0  0  0  0  0  0  0
   -3.1100   22.0200  -28.6230 C   0  0  0  0  0  0  0  0  0  0  0  0
   -2.7020   20.8320  -27.7300 C   0  0  0  0  0  0  0  0  0  0  0  0
   -1.8570   22.8400  -28.9620 C   0  0  0  0  0  0  0  0  0  0  0  0
   -4.1170   22.9290  -27.8920 C   0  0  0  0  0  0  0  0  0  0  0  0
   -6.3410   21.9250  -31.6290 C   0  0  0  0  0  0  0  0  0  0  0  0
   -6.2570   20.5830  -32.0170 C   0  0  0  0  0  0  0  0  0  0  0  0
   -2.9400   18.8020  -33.6530 C   0  0  0  0  0  0  0  0  0  0  0  0
   -3.3070   20.2430  -33.4650 C   0  0  0  0  0  0  0  0  0  0  0  0
    0.0066   19.4307  -33.6796 H   0  0  0  0  0  0  0  0  0  0  0  0
    0.1046   18.4223  -35.1629 H   0  0  0  0  0  0  0  0  0  0  0  0
   -0.8766   19.9270  -35.1629 H   0  0  0  0  0  0  0  0  0  0  0  0
   -5.1450   17.0850  -31.9280 H   0  0  0  0  0  0  0  0  0  0  0  0
   -8.2822   18.1878  -33.3130 H   0  0  0  0  0  0  0  0  0  0  0  0
   -7.4048   17.8476  -31.7803 H   0  0  0  0  0  0  0  0  0  0  0  0
   -9.6182   20.0646  -32.5561 H   0  0  0  0  0  0  0  0  0  0  0  0
   -9.7003   22.4789  -31.8504 H   0  0  0  0  0  0  0  0  0  0  0  0
   -8.0650   24.6291  -30.9068 H   0  0  0  0  0  0  0  0  0  0  0  0
   -3.4970   26.0480  -31.2360 H   0  0  0  0  0  0  0  0  0  0  0  0
   -2.8001   21.1177  -26.6723 H   0  0  0  0  0  0  0  0  0  0  0  0
   -3.3568   19.9735  -27.9402 H   0  0  0  0  0  0  0  0  0  0  0  0
   -1.6579   20.5569  -27.9402 H   0  0  0  0  0  0  0  0  0  0  0  0
   -1.3662   23.1612  -28.0315 H   0  0  0  0  0  0  0  0  0  0  0  0
   -1.1617   22.2216  -29.5487 H   0  0  0  0  0  0  0  0  0  0  0  0
   -2.1454   23.7247  -29.5487 H   0  0  0  0  0  0  0  0  0  0  0  0
   -3.9914   22.8156  -26.8051 H   0  0  0  0  0  0  0  0  0  0  0  0
   -3.9374   23.9768  -28.1746 H   0  0  0  0  0  0  0  0  0  0  0  0
   -5.1410   22.6434  -28.1746 H   0  0  0  0  0  0  0  0  0  0  0  0
   -5.2857   20.0685  -32.0606 H   0  0  0  0  0  0  0  0  0  0  0  0
   -3.3647   20.4695  -32.3901 H   0  0  0  0  0  0  0  0  0  0  0  0
   -2.5425   20.8802  -33.9335 H   0  0  0  0  0  0  0  0  0  0  0  0
   -4.2832   20.4369  -33.9335 H   0  0  0  0  0  0  0  0  0  0  0  0
  1  2  1  0
  2  3  1  0
  3  4  1  0
  4  5  2  0
  5  6  1  0
  6  7  1  0
  7  8  2  0
  7  9  1  0
  9 10  1  0
 10 11  2  0
 11 12  1  0
 12 13  2  0
 13 14  1  0
 14 15  2  0
 15 16  1  0
 16 17  1  0
 16 18  2  0
 15 19  1  0
 19 20  1  0
 20 21  2  0
 20 22  1  0
 22 23  1  0
 23 24  1  0
 23 25  1  0
 23 26  1  0
 19 27  1  0
 27 28  2  0
  5 29  1  0
 29 30  1  0
 29  2  2  0
 28 10  1  0
 27 13  1  0
  1 31  1  0
  1 32  1  0
  1 33  1  0
  6 34  1  0
  9 35  1  0
  9 36  1  0
 11 37  1  0
 12 38  1  0
 14 39  1  0
 17 40  1  0
 24 41  1  0
 24 42  1  0
 24 43  1  0
 25 44  1  0
 25 45  1  0
 25 46  1  0
 26 47  1  0
 26 48  1  0
 26 49  1  0
 28 50  1  0
 30 51  1  0
 30 52  1  0
 30 53  1  0
M  CHG  1  17  -1
M  END
>  <UniqueID>  (23) 
23

>  <SMILES>  (23) 
Cc1onc(NC(=O)Cc2ccc3cc(C([NH-])=O)n(C(=O)OC(C)(C)C)c3c2)c1C

>  <Energy>  (23) 
118.42855222349985

>  <Genealogy>  (23) 
Cc1onc(NC(=O)Cc2ccc3cc(C([NH-])=O)n(C(=O)OC(C)(C)C)c3c2)c1C (protonated)
Cc1onc(NC(=O)Cc2ccc3cc(C([NH-])=O)n(C(=O)OC(C)(C)C)c3c2)c1C (3D coordinates assigned)
Cc1onc(NC(=O)Cc2ccc3cc(C([NH-])=O)n(C(=O)OC(C)(C)C)c3c2)c1C (optimized conformer: 118.42855222349985 kcal/mol)

>  <smiles>  (23) 
Cc1onc(NC(=O)Cc2ccc3cc(C(N)=O)n(C(=O)OC(C)(C)C)c3c2)c1C

>  <score_type>  (23) 
oracle

>  <origin>  (23) 
adg

>  <m_score__min__energy>  (23) 
-11.859999999999999

>  <m_primary>  (23) 
energy

$$$$
23:0
     RDKit          3D

 53 54  0  0  0  0  0  0  0  0999 V2000
   -3.8140   23.2300  -27.8970 C   0  0  0  0  0  0  0  0  0  0  0  0
   -3.3430   21.8200  -28.2370 C   0  0  0  0  0  0  0  0  0  0  0  0
   -3.5980   21.5220  -29.6080 O   0  0  0  0  0  0  0  0  0  0  0  0
   -3.9030   22.4970  -30.5650 C   0  0  0  0  0  0  0  0  0  0  0  0
   -2.9800   23.0960  -31.1830 O   0  0  0  0  0  0  0  0  0  0  0  0
   -5.2750   22.7920  -30.8670 N   0  0  0  0  0  0  0  0  0  0  0  0
   -5.8790   24.0130  -30.9080 C   0  0  0  0  0  0  0  0  0  0  0  0
   -5.2760   25.2950  -30.4880 C   0  0  0  0  0  0  0  0  0  0  0  0
   -3.9470   25.6420  -30.8690 N   0  0  0  0  0  0  0  0  0  0  0  0
   -5.9260   26.0760  -29.7420 O   0  0  0  0  0  0  0  0  0  0  0  0
   -7.2030   23.8900  -31.3260 C   0  0  0  0  0  0  0  0  0  0  0  0
   -7.3960   22.5430  -31.5340 C   0  0  0  0  0  0  0  0  0  0  0  0
   -8.5290   21.8560  -31.9580 C   0  0  0  0  0  0  0  0  0  0  0  0
   -8.4370   20.4620  -32.1040 C   0  0  0  0  0  0  0  0  0  0  0  0
   -7.2190   19.7880  -31.8460 C   0  0  0  0  0  0  0  0  0  0  0  0
   -7.1420   18.2910  -31.9790 C   0  0  0  0  0  0  0  0  0  0  0  0
   -5.7700   17.8720  -32.5170 C   0  0  0  0  0  0  0  0  0  0  0  0
   -5.9120   16.9390  -33.7220 C   0  0  0  0  0  0  0  0  0  0  0  0
   -4.7500   17.0530  -34.5960 N   0  0  0  0  0  0  0  0  0  0  0  0
   -3.6160   17.8630  -34.2820 C   0  0  0  0  0  0  0  0  0  0  0  0
   -2.5330   17.3020  -33.9680 O   0  0  0  0  0  0  0  0  0  0  0  0
   -3.7260   19.2600  -34.3240 O   0  0  0  0  0  0  0  0  0  0  0  0
   -2.9990   20.1980  -33.5170 C   0  0  0  0  0  0  0  0  0  0  0  0
   -2.8100   19.6500  -32.0900 C   0  0  0  0  0  0  0  0  0  0  0  0
   -3.7180   21.5600  -33.4860 C   0  0  0  0  0  0  0  0  0  0  0  0
   -1.6190   20.3790  -34.1660 C   0  0  0  0  0  0  0  0  0  0  0  0
   -6.0910   20.5170  -31.4070 C   0  0  0  0  0  0  0  0  0  0  0  0
   -6.2170   21.9020  -31.2500 C   0  0  0  0  0  0  0  0  0  0  0  0
   -3.8540   23.3497  -26.8043 H   0  0  0  0  0  0  0  0  0  0  0  0
   -3.1120   23.9632  -28.3207 H   0  0  0  0  0  0  0  0  0  0  0  0
   -4.8158   23.3941  -28.3207 H   0  0  0  0  0  0  0  0  0  0  0  0
   -2.2625   21.7439  -28.0455 H   0  0  0  0  0  0  0  0  0  0  0  0
   -3.8923   21.1021  -27.6102 H   0  0  0  0  0  0  0  0  0  0  0  0
   -3.1250   25.1390  -30.4680 H   0  0  0  0  0  0  0  0  0  0  0  0
   -7.9375   24.6976  -31.4610 H   0  0  0  0  0  0  0  0  0  0  0  0
   -9.4677   22.3879  -32.1723 H   0  0  0  0  0  0  0  0  0  0  0  0
   -9.3201   19.8883  -32.4219 H   0  0  0  0  0  0  0  0  0  0  0  0
   -7.3003   17.8309  -30.9924 H   0  0  0  0  0  0  0  0  0  0  0  0
   -7.9185   17.9550  -32.6820 H   0  0  0  0  0  0  0  0  0  0  0  0
   -5.2140   18.7708  -32.8221 H   0  0  0  0  0  0  0  0  0  0  0  0
   -5.2317   17.3358  -31.7215 H   0  0  0  0  0  0  0  0  0  0  0  0
   -5.9983   15.9011  -33.3680 H   0  0  0  0  0  0  0  0  0  0  0  0
   -6.8118   17.2228  -34.2876 H   0  0  0  0  0  0  0  0  0  0  0  0
   -3.0783   20.4279  -31.3600 H   0  0  0  0  0  0  0  0  0  0  0  0
   -3.4574   18.7725  -31.9454 H   0  0  0  0  0  0  0  0  0  0  0  0
   -1.7593   19.3582  -31.9454 H   0  0  0  0  0  0  0  0  0  0  0  0
   -3.8794   21.8657  -32.4417 H   0  0  0  0  0  0  0  0  0  0  0  0
   -3.0997   22.3127  -33.9971 H   0  0  0  0  0  0  0  0  0  0  0  0
   -4.6883   21.4741  -33.9971 H   0  0  0  0  0  0  0  0  0  0  0  0
   -0.8549   20.4792  -33.3810 H   0  0  0  0  0  0  0  0  0  0  0  0
   -1.3900   19.5032  -34.7909 H   0  0  0  0  0  0  0  0  0  0  0  0
   -1.6236   21.2842  -34.7909 H   0  0  0  0  0  0  0  0  0  0  0  0
   -5.1387   20.0092  -31.1942 H   0  0  0  0  0  0  0  0  0  0  0  0
  1  2  1  0
  2  3  1  0
  3  4  1  0
  4  5  2  0
  4  6  1  0
  6  7  1  0
  7  8  1  0
  8  9  1  0
  8 10  2  0
  7 11  2  0
 11 12  1  0
 12 13  2  0
 13 14  1  0
 14 15  2  0
 15 16  1  0
 16 17  1  0
 17 18  1  0
 18 19  1  0
 19 20  1  0
 20 21  2  0
 20 22  1  0
 22 23  1  0
 23 24  1  0
 23 25  1  0
 23 26  1  0
 15 27  1  0
 27 28  2  0
 28  6  1  0
 28 12  1  0
  1 29  1  0
  1 30  1  0
  1 31  1  0
  2 32  1  0
  2 33  1  0
  9 34  1  0
 11 35  1  0
 13 36  1  0
 14 37  1  0
 16 38  1  0
 16 39  1  0
 17 40  1  0
 17 41  1  0
 18 42  1  0
 18 43  1  0
 24 44  1  0
 24 45  1  0
 24 46  1  0
 25 47  1  0
 25 48  1  0
 25 49  1  0
 26 50  1  0
 26 51  1  0
 26 52  1  0
 27 53  1  0
M  CHG  2   9  -1  19  -1
M  END
>  <UniqueID>  (24) 
24

>  <SMILES>  (24) 
CCOC(=O)n1c(C([NH-])=O)cc2ccc(CCC[N-]C(=O)OC(C)(C)C)cc21

>  <Energy>  (24) 
75.1107661293111

>  <Genealogy>  (24) 
CCOC(=O)n1c(C([NH-])=O)cc2ccc(CCC[N-]C(=O)OC(C)(C)C)cc21 (protonated)
CCOC(=O)n1c(C([NH-])=O)cc2ccc(CCC[N-]C(=O)OC(C)(C)C)cc21 (3D coordinates assigned)
CCOC(=O)n1c(C([NH-])=O)cc2ccc(CCC[N-]C(=O)OC(C)(C)C)cc21 (optimized conformer: 75.1107661293111 kcal/mol)

>  <smiles>  (24) 
CCOC(=O)n1c(C(N)=O)cc2ccc(CCCNC(=O)OC(C)(C)C)cc21

>  <score_type>  (24) 
oracle

>  <origin>  (24) 
adg

>  <m_score__min__energy>  (24) 
-10.07

>  <m_primary>  (24) 
energy

$$$$
24:0
     RDKit          3D

 45 46  0  0  0  0  0  0  0  0999 V2000
   -6.2980   17.9370  -31.0820 C   0  0  0  0  0  0  0  0  0  0  0  0
   -7.1240   17.4510  -32.2750 C   0  0  1  0  0  0  0  0  0  0  0  0
   -7.7800   18.5520  -32.8980 O   0  0  0  0  0  0  0  0  0  0  0  0
   -7.5230   19.8900  -32.5800 C   0  0  0  0  0  0  0  0  0  0  0  0
   -8.0540   20.4280  -31.5710 O   0  0  0  0  0  0  0  0  0  0  0  0
   -6.5640   20.6640  -33.4220 C   0  0  0  0  0  0  0  0  0  0  0  0
   -5.2930   20.8960  -32.6520 C   0  0  0  0  0  0  0  0  0  0  0  0
   -4.2680   19.9170  -32.6600 C   0  0  0  0  0  0  0  0  0  0  0  0
   -3.0620   20.1410  -31.9740 C   0  0  0  0  0  0  0  0  0  0  0  0
   -2.9040   21.3540  -31.3110 C   0  0  0  0  0  0  0  0  0  0  0  0
   -1.8480   21.8200  -30.5610 C   0  0  0  0  0  0  0  0  0  0  0  0
   -2.2290   23.0920  -30.1380 C   0  0  0  0  0  0  0  0  0  0  0  0
   -1.3410   23.9920  -29.3730 C   0  0  0  0  0  0  0  0  0  0  0  0
   -1.6100   25.3890  -29.2900 N   0  0  0  0  0  0  0  0  0  0  0  0
   -0.3030   23.5290  -28.8280 O   0  0  0  0  0  0  0  0  0  0  0  0
   -3.4750   23.3970  -30.6000 N   0  0  0  0  0  0  0  0  0  0  0  0
   -4.2550   24.5680  -30.3120 C   0  0  0  0  0  0  0  0  0  0  0  0
   -3.9540   25.6770  -30.8280 O   0  0  0  0  0  0  0  0  0  0  0  0
   -5.3670   24.4840  -29.4840 O   0  0  0  0  0  0  0  0  0  0  0  0
   -3.8740   22.3230  -31.3180 C   0  0  0  0  0  0  0  0  0  0  0  0
   -5.0930   22.1190  -31.9740 C   0  0  0  0  0  0  0  0  0  0  0  0
   -6.0300   16.6220  -33.5550 Si  0  0  0  0  0  4  0  0  0  0  0  0
   -5.7370   17.8180  -34.9580 C   0  0  0  0  0  0  0  0  0  0  0  0
   -4.3840   16.1670  -32.7960 C   0  0  0  0  0  0  0  0  0  0  0  0
   -6.8520   15.0860  -34.2300 C   0  0  0  0  0  0  0  0  0  0  0  0
   -6.7969   17.6434  -30.1466 H   0  0  0  0  0  0  0  0  0  0  0  0
   -5.2962   17.4844  -31.1209 H   0  0  0  0  0  0  0  0  0  0  0  0
   -6.2071   19.0325  -31.1209 H   0  0  0  0  0  0  0  0  0  0  0  0
   -7.8620   16.7284  -31.8966 H   0  0  0  0  0  0  0  0  0  0  0  0
   -6.3396   20.0968  -34.3374 H   0  0  0  0  0  0  0  0  0  0  0  0
   -7.0114   21.6324  -33.6904 H   0  0  0  0  0  0  0  0  0  0  0  0
   -4.4176   18.9747  -33.2074 H   0  0  0  0  0  0  0  0  0  0  0  0
   -2.2673   19.3806  -31.9616 H   0  0  0  0  0  0  0  0  0  0  0  0
   -0.9042   21.2992  -30.3421 H   0  0  0  0  0  0  0  0  0  0  0  0
   -1.2490   26.0490  -30.0150 H   0  0  0  0  0  0  0  0  0  0  0  0
   -5.8759   22.8916  -31.9620 H   0  0  0  0  0  0  0  0  0  0  0  0
   -5.4940   18.8100  -34.5495 H   0  0  0  0  0  0  0  0  0  0  0  0
   -4.8998   17.4607  -35.5756 H   0  0  0  0  0  0  0  0  0  0  0  0
   -6.6445   17.8881  -35.5756 H   0  0  0  0  0  0  0  0  0  0  0  0
   -4.4670   16.1900  -31.6994 H   0  0  0  0  0  0  0  0  0  0  0  0
   -4.0974   15.1559  -33.1209 H   0  0  0  0  0  0  0  0  0  0  0  0
   -3.6188   16.8873  -33.1209 H   0  0  0  0  0  0  0  0  0  0  0  0
   -7.1901   14.4542  -33.3954 H   0  0  0  0  0  0  0  0  0  0  0  0
   -7.7168   15.3735  -34.8460 H   0  0  0  0  0  0  0  0  0  0  0  0
   -6.1330   14.5259  -34.8460 H   0  0  0  0  0  0  0  0  0  0  0  0
  1  2  1  0
  2  3  1  0
  3  4  1  0
  4  5  2  0
  4  6  1  0
  6  7  1  0
  7  8  2  0
  8  9  1  0
  9 10  2  0
 10 11  1  0
 11 12  2  0
 12 13  1  0
 13 14  1  0
 13 15  2  0
 12 16  1  0
 16 17  1  0
 17 18  2  0
 17 19  1  0
 16 20  1  0
 20 21  2  0
  2 22  1  0
 22 23  1  0
 22 24  1  0
 22 25  1  0
 21  7  1  0
 20 10  1  0
  1 26  1  0
  1 27  1  0
  1 28  1  0
  2 29  1  1
  6 30  1  0
  6 31  1  0
  8 32  1  0
  9 33  1  0
 11 34  1  0
 14 35  1  0
 21 36  1  0
 23 37  1  0
 23 38  1  0
 23 39  1  0
 24 40  1  0
 24 41  1  0
 24 42  1  0
 25 43  1  0
 25 44  1  0
 25 45  1  0
M  CHG  2  14  -1  19  -1
M  END
>  <UniqueID>  (25) 
25

>  <SMILES>  (25) 
C[C@@H](OC(=O)Cc1ccc2cc(C([NH-])=O)n(C(=O)[O-])c2c1)[Si](C)(C)C

>  <Energy>  (25) 
61.925768529663664

>  <Genealogy>  (25) 
CC(OC(=O)Cc1ccc2cc(C([NH-])=O)n(C(=O)[O-])c2c1)[Si](C)(C)C (protonated)
C[C@@H](OC(=O)Cc1ccc2cc(C([NH-])=O)n(C(=O)[O-])c2c1)[Si](C)(C)C (chirality)
C[C@@H](OC(=O)Cc1ccc2cc(C([NH-])=O)n(C(=O)[O-])c2c1)[Si](C)(C)C (3D coordinates assigned)
C[C@@H](OC(=O)Cc1ccc2cc(C([NH-])=O)n(C(=O)[O-])c2c1)[Si](C)(C)C (optimized conformer: 61.925768529663664 kcal/mol)

>  <smiles>  (25) 
CC(OC(=O)Cc1ccc2cc(C(N)=O)n(C(=O)O)c2c1)[Si](C)(C)C

>  <score_type>  (25) 
oracle

>  <origin>  (25) 
adg

>  <m_score__min__energy>  (25) 
-11.6

>  <m_primary>  (25) 
energy

$$$$
25:0
     RDKit          3D

 42 43  0  0  0  0  0  0  0  0999 V2000
   -0.5310   23.0370  -25.3180 C   0  0  0  0  0  0  0  0  0  0  0  0
   -0.8510   22.7930  -26.7940 C   0  0  2  0  0  0  0  0  0  0  0  0
   -1.6550   23.8530  -27.2840 O   0  0  0  0  0  0  0  0  0  0  0  0
   -0.9640   24.5140  -28.7000 P   0  0  2  0  0  0  0  0  0  0  0  0
    0.5440   24.5510  -28.5780 O   0  0  0  0  0  0  0  0  0  0  0  0
   -1.5420   26.0900  -28.9080 O   0  0  0  0  0  0  0  0  0  0  0  0
   -1.4050   23.5830  -30.0430 O   0  0  0  0  0  0  0  0  0  0  0  0
   -1.6040   21.5020  -26.9290 C   0  0  0  0  0  0  0  0  0  0  0  0
   -1.2110   20.4710  -26.3150 O   0  0  0  0  0  0  0  0  0  0  0  0
   -2.7090   21.4420  -27.7820 O   0  0  0  0  0  0  0  0  0  0  0  0
   -2.5840   21.2580  -29.1880 C   0  0  0  0  0  0  0  0  0  0  0  0
   -3.8600   21.3850  -29.8040 O   0  0  0  0  0  0  0  0  0  0  0  0
   -4.1270   22.3110  -30.8180 C   0  0  0  0  0  0  0  0  0  0  0  0
   -3.1990   22.7160  -31.5720 O   0  0  0  0  0  0  0  0  0  0  0  0
   -5.4680   22.7830  -31.0170 N   0  0  0  0  0  0  0  0  0  0  0  0
   -5.9440   24.0450  -30.8210 C   0  0  0  0  0  0  0  0  0  0  0  0
   -5.1350   25.2450  -30.5250 C   0  0  0  0  0  0  0  0  0  0  0  0
   -3.7460   25.2920  -30.8410 N   0  0  0  0  0  0  0  0  0  0  0  0
   -5.6900   26.2650  -30.0320 O   0  0  0  0  0  0  0  0  0  0  0  0
   -7.3230   24.0810  -31.0190 C   0  0  0  0  0  0  0  0  0  0  0  0
   -7.6780   22.7940  -31.3530 C   0  0  0  0  0  0  0  0  0  0  0  0
   -8.9310   22.2550  -31.6300 C   0  0  0  0  0  0  0  0  0  0  0  0
   -9.0110   20.8800  -31.9050 C   0  0  0  0  0  0  0  0  0  0  0  0
   -7.8450   20.0720  -31.9080 C   0  0  0  0  0  0  0  0  0  0  0  0
   -7.9570   18.5860  -32.1390 C   0  0  0  0  0  0  0  0  0  0  0  0
   -9.2690   18.1660  -32.0000 F   0  0  0  0  0  0  0  0  0  0  0  0
   -7.1820   17.8920  -31.2260 F   0  0  0  0  0  0  0  0  0  0  0  0
   -7.5220   18.2910  -33.4160 F   0  0  0  0  0  0  0  0  0  0  0  0
   -6.5930   20.6540  -31.5990 C   0  0  0  0  0  0  0  0  0  0  0  0
   -6.5420   22.0300  -31.3450 C   0  0  0  0  0  0  0  0  0  0  0  0
   -1.2500   22.4888  -24.6915 H   0  0  0  0  0  0  0  0  0  0  0  0
    0.4881   22.6846  -25.1006 H   0  0  0  0  0  0  0  0  0  0  0  0
   -0.6011   24.1130  -25.1006 H   0  0  0  0  0  0  0  0  0  0  0  0
    0.0847   22.7420  -27.3700 H   0  0  0  0  0  0  0  0  0  0  0  0
   -2.1800   24.0560  -30.4390 H   0  0  0  0  0  0  0  0  0  0  0  0
   -1.9032   22.0190  -29.5972 H   0  0  0  0  0  0  0  0  0  0  0  0
   -2.1807   20.2546  -29.3894 H   0  0  0  0  0  0  0  0  0  0  0  0
   -3.0230   25.0640  -30.1240 H   0  0  0  0  0  0  0  0  0  0  0  0
   -7.9870   24.9532  -30.9277 H   0  0  0  0  0  0  0  0  0  0  0  0
   -9.8314   22.8868  -31.6334 H   0  0  0  0  0  0  0  0  0  0  0  0
   -9.9888   20.4245  -32.1205 H   0  0  0  0  0  0  0  0  0  0  0  0
   -5.6812   20.0400  -31.5592 H   0  0  0  0  0  0  0  0  0  0  0  0
  1  2  1  0
  2  3  1  0
  3  4  1  0
  4  5  2  0
  4  6  1  6
  4  7  1  0
  2  8  1  0
  8  9  2  0
  8 10  1  0
 10 11  1  0
 11 12  1  0
 12 13  1  0
 13 14  2  0
 13 15  1  0
 15 16  1  0
 16 17  1  0
 17 18  1  0
 17 19  2  0
 16 20  2  0
 20 21  1  0
 21 22  2  0
 22 23  1  0
 23 24  2  0
 24 25  1  0
 25 26  1  0
 25 27  1  0
 25 28  1  0
 24 29  1  0
 29 30  2  0
 30 15  1  0
 30 21  1  0
  1 31  1  0
  1 32  1  0
  1 33  1  0
  2 34  1  6
  7 35  1  0
 11 36  1  0
 11 37  1  0
 18 38  1  0
 20 39  1  0
 22 40  1  0
 23 41  1  0
 29 42  1  0
M  CHG  2   6  -1  18  -1
M  END
>  <UniqueID>  (26) 
26

>  <SMILES>  (26) 
C[C@H](O[P@](=O)([O-])O)C(=O)OCOC(=O)n1c(C([NH-])=O)cc2ccc(C(F)(F)F)cc21

>  <Energy>  (26) 
75.45942168350629

>  <Genealogy>  (26) 
C[C@H](OP(=O)([O-])O)C(=O)OCOC(=O)n1c(C([NH-])=O)cc2ccc(C(F)(F)F)cc21 (protonated)
C[C@H](O[P@](=O)([O-])O)C(=O)OCOC(=O)n1c(C([NH-])=O)cc2ccc(C(F)(F)F)cc21 (chirality)
C[C@H](O[P@](=O)([O-])O)C(=O)OCOC(=O)n1c(C([NH-])=O)cc2ccc(C(F)(F)F)cc21 (3D coordinates assigned)
C[C@H](O[P@](=O)([O-])O)C(=O)OCOC(=O)n1c(C([NH-])=O)cc2ccc(C(F)(F)F)cc21 (optimized conformer: 75.45942168350629 kcal/mol)

>  <smiles>  (26) 
C[C@H](OP(=O)(O)O)C(=O)OCOC(=O)n1c(C(N)=O)cc2ccc(C(F)(F)F)cc21

>  <score_type>  (26) 
oracle

>  <origin>  (26) 
adg

>  <m_score__min__energy>  (26) 
-12.16

>  <m_primary>  (26) 
energy

$$$$
26:0
     RDKit          3D

 45 47  0  0  0  0  0  0  0  0999 V2000
   -3.8940   25.6040  -30.8480 N   0  0  0  0  0  0  0  0  0  0  0  0
   -5.2400   25.3200  -30.4740 C   0  0  0  0  0  0  0  0  0  0  0  0
   -5.8790   26.1580  -29.7860 O   0  0  0  0  0  0  0  0  0  0  0  0
   -5.8550   24.0320  -30.8620 C   0  0  0  0  0  0  0  0  0  0  0  0
   -7.2070   23.8870  -31.1630 C   0  0  0  0  0  0  0  0  0  0  0  0
   -7.3540   22.5770  -31.5610 C   0  0  0  0  0  0  0  0  0  0  0  0
   -8.4910   21.8890  -31.9730 C   0  0  0  0  0  0  0  0  0  0  0  0
   -8.3530   20.5320  -32.3090 C   0  0  0  0  0  0  0  0  0  0  0  0
   -7.0950   19.8880  -32.2120 C   0  0  0  0  0  0  0  0  0  0  0  0
   -6.9560   18.4410  -32.5940 C   0  0  0  0  0  0  0  0  0  0  0  0
   -6.1530   18.3170  -33.8500 C   0  0  0  0  0  0  0  0  0  0  0  0
   -6.0760   19.2850  -34.6500 O   0  0  0  0  0  0  0  0  0  0  0  0
   -5.4480   17.1490  -34.1110 O   0  0  0  0  0  0  0  0  0  0  0  0
   -5.9600   20.6220  -31.8000 C   0  0  0  0  0  0  0  0  0  0  0  0
   -6.1230   21.9770  -31.4900 C   0  0  0  0  0  0  0  0  0  0  0  0
   -5.1910   22.8560  -31.0590 N   0  0  0  0  0  0  0  0  0  0  0  0
   -3.8050   22.5720  -30.8150 C   0  0  0  0  0  0  0  0  0  0  0  0
   -2.9150   23.3290  -31.2890 O   0  0  0  0  0  0  0  0  0  0  0  0
   -3.4520   21.4700  -30.0270 O   0  0  0  0  0  0  0  0  0  0  0  0
   -3.0830   21.5740  -28.6540 C   0  0  0  0  0  0  0  0  0  0  0  0
   -2.0880   22.7360  -28.4550 C   0  0  0  0  0  0  0  0  0  0  0  0
   -2.7070   24.0810  -28.4460 N   0  0  0  0  0  0  0  0  0  0  0  0
   -4.0080   24.1260  -27.7610 C   0  0  0  0  0  0  0  0  0  0  0  0
   -3.8420   24.9150  -26.4670 C   0  0  0  0  0  0  0  0  0  0  0  0
   -2.4120   25.4190  -26.4580 C   0  0  0  0  0  0  0  0  0  0  0  0
   -1.8640   25.1200  -27.8430 C   0  0  0  0  0  0  0  0  0  0  0  0
   -3.0930   25.2500  -30.2790 H   0  0  0  0  0  0  0  0  0  0  0  0
   -7.9910   24.6557  -31.0968 H   0  0  0  0  0  0  0  0  0  0  0  0
   -9.4674   22.3919  -32.0337 H   0  0  0  0  0  0  0  0  0  0  0  0
   -9.2306   19.9638  -32.6509 H   0  0  0  0  0  0  0  0  0  0  0  0
   -6.4494   17.8974  -31.7829 H   0  0  0  0  0  0  0  0  0  0  0  0
   -7.9561   18.0148  -32.7619 H   0  0  0  0  0  0  0  0  0  0  0  0
   -4.9737   20.1408  -31.7249 H   0  0  0  0  0  0  0  0  0  0  0  0
   -3.9830   21.7589  -28.0491 H   0  0  0  0  0  0  0  0  0  0  0  0
   -2.6047   20.6347  -28.3393 H   0  0  0  0  0  0  0  0  0  0  0  0
   -1.5748   22.5878  -27.4934 H   0  0  0  0  0  0  0  0  0  0  0  0
   -1.4041   22.7126  -29.3163 H   0  0  0  0  0  0  0  0  0  0  0  0
   -4.7503   24.6201  -28.4050 H   0  0  0  0  0  0  0  0  0  0  0  0
   -4.3551   23.1058  -27.5404 H   0  0  0  0  0  0  0  0  0  0  0  0
   -4.5445   25.7612  -26.4438 H   0  0  0  0  0  0  0  0  0  0  0  0
   -4.0515   24.2893  -25.5869 H   0  0  0  0  0  0  0  0  0  0  0  0
   -2.3876   26.5009  -26.2608 H   0  0  0  0  0  0  0  0  0  0  0  0
   -1.8150   24.9348  -25.6711 H   0  0  0  0  0  0  0  0  0  0  0  0
   -1.8924   26.0297  -28.4608 H   0  0  0  0  0  0  0  0  0  0  0  0
   -0.8209   24.7771  -27.7770 H   0  0  0  0  0  0  0  0  0  0  0  0
  1  2  1  0
  2  3  2  0
  2  4  1  0
  4  5  2  0
  5  6  1  0
  6  7  2  0
  7  8  1  0
  8  9  2  0
  9 10  1  0
 10 11  1  0
 11 12  2  0
 11 13  1  0
  9 14  1  0
 14 15  2  0
 15 16  1  0
 16 17  1  0
 17 18  2  0
 17 19  1  0
 19 20  1  0
 20 21  1  0
 21 22  1  0
 22 23  1  0
 23 24  1  0
 24 25  1  0
 25 26  1  0
 16  4  1  0
 26 22  1  0
 15  6  1  0
  1 27  1  0
  5 28  1  0
  7 29  1  0
  8 30  1  0
 10 31  1  0
 10 32  1  0
 14 33  1  0
 20 34  1  0
 20 35  1  0
 21 36  1  0
 21 37  1  0
 23 38  1  0
 23 39  1  0
 24 40  1  0
 24 41  1  0
 25 42  1  0
 25 43  1  0
 26 44  1  0
 26 45  1  0
M  CHG  2   1  -1  13  -1
M  END
>  <UniqueID>  (27) 
27

>  <SMILES>  (27) 
[NH-]C(=O)c1cc2ccc(CC(=O)[O-])cc2n1C(=O)OCCN1CCCC1

>  <Energy>  (27) 
85.93893364528101

>  <Genealogy>  (27) 
[NH-]C(=O)c1cc2ccc(CC(=O)[O-])cc2n1C(=O)OCCN1CCCC1 (protonated)
[NH-]C(=O)c1cc2ccc(CC(=O)[O-])cc2n1C(=O)OCCN1CCCC1 (3D coordinates assigned)
[NH-]C(=O)c1cc2ccc(CC(=O)[O-])cc2n1C(=O)OCCN1CCCC1 (nonaromatic ring conformer: 85.93893364528101 kcal/mol)

>  <smiles>  (27) 
NC(=O)c1cc2ccc(CC(=O)O)cc2n1C(=O)OCCN1CCCC1

>  <score_type>  (27) 
oracle

>  <origin>  (27) 
adg

>  <m_score__min__energy>  (27) 
-10.710000000000001

>  <m_primary>  (27) 
energy

$$$$
27:0
     RDKit          3D

 43 44  0  0  0  0  0  0  0  0999 V2000
   -4.1840   23.1290  -28.0330 C   0  0  0  0  0  0  0  0  0  0  0  0
   -3.0440   22.5610  -28.8620 C   0  0  0  0  0  0  0  0  0  0  0  0
   -3.0710   23.1350  -30.1640 O   0  0  0  0  0  0  0  0  0  0  0  0
   -3.9140   22.6700  -31.1780 C   0  0  0  0  0  0  0  0  0  0  0  0
   -3.4420   22.0210  -32.1520 O   0  0  0  0  0  0  0  0  0  0  0  0
   -5.3220   22.9510  -31.1180 N   0  0  0  0  0  0  0  0  0  0  0  0
   -5.9220   24.1510  -30.8790 C   0  0  0  0  0  0  0  0  0  0  0  0
   -5.2410   25.3920  -30.4530 C   0  0  0  0  0  0  0  0  0  0  0  0
   -3.9020   25.6680  -30.8540 N   0  0  0  0  0  0  0  0  0  0  0  0
   -5.8340   26.1960  -29.6860 O   0  0  0  0  0  0  0  0  0  0  0  0
   -7.3050   24.0410  -31.0080 C   0  0  0  0  0  0  0  0  0  0  0  0
   -7.5380   22.7240  -31.3270 C   0  0  0  0  0  0  0  0  0  0  0  0
   -8.7370   22.0630  -31.5770 C   0  0  0  0  0  0  0  0  0  0  0  0
   -8.6800   20.6990  -31.9100 C   0  0  0  0  0  0  0  0  0  0  0  0
   -7.4350   20.0290  -31.9980 C   0  0  0  0  0  0  0  0  0  0  0  0
   -7.3840   18.5620  -32.3340 C   0  0  0  0  0  0  0  0  0  0  0  0
   -6.0180   18.1360  -32.9080 C   0  0  0  0  0  0  0  0  0  0  0  0
   -6.1260   17.5310  -34.2660 N   0  0  0  0  0  0  0  0  0  0  0  0
   -6.5540   16.1220  -34.1940 C   0  0  0  0  0  0  0  0  0  0  0  0
   -4.8360   17.6100  -34.9750 C   0  0  0  0  0  0  0  0  0  0  0  0
   -6.2380   20.7340  -31.7400 C   0  0  0  0  0  0  0  0  0  0  0  0
   -6.3260   22.0860  -31.3900 C   0  0  0  0  0  0  0  0  0  0  0  0
   -3.9527   23.0137  -26.9638 H   0  0  0  0  0  0  0  0  0  0  0  0
   -4.3117   24.1961  -28.2676 H   0  0  0  0  0  0  0  0  0  0  0  0
   -5.1128   22.5883  -28.2676 H   0  0  0  0  0  0  0  0  0  0  0  0
   -2.0853   22.7972  -28.3772 H   0  0  0  0  0  0  0  0  0  0  0  0
   -3.1567   21.4696  -28.9405 H   0  0  0  0  0  0  0  0  0  0  0  0
   -3.0910   25.2970  -30.3090 H   0  0  0  0  0  0  0  0  0  0  0  0
   -8.0519   24.8386  -30.8815 H   0  0  0  0  0  0  0  0  0  0  0  0
   -9.6995   22.5920  -31.5158 H   0  0  0  0  0  0  0  0  0  0  0  0
   -9.6110   20.1463  -32.1042 H   0  0  0  0  0  0  0  0  0  0  0  0
   -7.5783   17.9833  -31.4189 H   0  0  0  0  0  0  0  0  0  0  0  0
   -8.1456   18.3683  -33.1037 H   0  0  0  0  0  0  0  0  0  0  0  0
   -5.3702   19.0229  -32.9688 H   0  0  0  0  0  0  0  0  0  0  0  0
   -5.6004   17.3712  -32.2367 H   0  0  0  0  0  0  0  0  0  0  0  0
   -6.8260   18.0530  -34.8450 H   0  0  0  0  0  0  0  0  0  0  0  0
   -6.6457   15.8200  -33.1402 H   0  0  0  0  0  0  0  0  0  0  0  0
   -7.5272   16.0084  -34.6940 H   0  0  0  0  0  0  0  0  0  0  0  0
   -5.8084   15.4863  -34.6940 H   0  0  0  0  0  0  0  0  0  0  0  0
   -4.0173   17.6601  -34.2421 H   0  0  0  0  0  0  0  0  0  0  0  0
   -4.7092   16.7179  -35.6060 H   0  0  0  0  0  0  0  0  0  0  0  0
   -4.8190   18.5109  -35.6060 H   0  0  0  0  0  0  0  0  0  0  0  0
   -5.2616   20.2327  -31.8124 H   0  0  0  0  0  0  0  0  0  0  0  0
  1  2  1  0
  2  3  1  0
  3  4  1  0
  4  5  2  0
  4  6  1  0
  6  7  1  0
  7  8  1  0
  8  9  1  0
  8 10  2  0
  7 11  2  0
 11 12  1  0
 12 13  2  0
 13 14  1  0
 14 15  2  0
 15 16  1  0
 16 17  1  0
 17 18  1  0
 18 19  1  0
 18 20  1  0
 15 21  1  0
 21 22  2  0
 22  6  1  0
 22 12  1  0
  1 23  1  0
  1 24  1  0
  1 25  1  0
  2 26  1  0
  2 27  1  0
  9 28  1  0
 11 29  1  0
 13 30  1  0
 14 31  1  0
 16 32  1  0
 16 33  1  0
 17 34  1  0
 17 35  1  0
 18 36  1  0
 19 37  1  0
 19 38  1  0
 19 39  1  0
 20 40  1  0
 20 41  1  0
 20 42  1  0
 21 43  1  0
M  CHG  2   9  -1  18   1
M  END
>  <UniqueID>  (28) 
28

>  <SMILES>  (28) 
CCOC(=O)n1c(C([NH-])=O)cc2ccc(CC[NH+](C)C)cc21

>  <Energy>  (28) 
77.2101884068688

>  <Genealogy>  (28) 
CCOC(=O)n1c(C([NH-])=O)cc2ccc(CC[NH+](C)C)cc21 (protonated)
CCOC(=O)n1c(C([NH-])=O)cc2ccc(CC[NH+](C)C)cc21 (3D coordinates assigned)
CCOC(=O)n1c(C([NH-])=O)cc2ccc(CC[NH+](C)C)cc21 (optimized conformer: 77.2101884068688 kcal/mol)

>  <smiles>  (28) 
CCOC(=O)n1c(C(N)=O)cc2ccc(CCN(C)C)cc21

>  <score_type>  (28) 
oracle

>  <origin>  (28) 
adg

>  <m_score__min__energy>  (28) 
-9.5999999999999996

>  <m_primary>  (28) 
energy

$$$$
28:0
     RDKit          3D

 41 43  0  0  0  0  0  0  0  0999 V2000
   -9.4260   19.5290  -32.6620 C   0  0  0  0  0  0  0  0  0  0  0  0
   -8.0580   19.9160  -33.0640 N   0  0  0  0  0  0  0  0  0  0  0  0
   -7.6800   21.1230  -32.2980 C   0  0  0  0  0  0  0  0  0  0  0  0
   -7.0480   18.8360  -32.8480 C   0  0  1  0  0  0  0  0  0  0  0  0
   -6.1340   18.5560  -34.0620 C   0  0  0  0  0  0  0  0  0  0  0  0
   -4.9270   19.4580  -33.8900 C   0  0  0  0  0  0  0  0  0  0  0  0
   -4.8510   19.7220  -32.4640 N   0  0  0  0  0  0  0  0  0  0  0  0
   -3.7350   20.3790  -31.8220 C   0  0  0  0  0  0  0  0  0  0  0  0
   -2.4690   19.7350  -31.7390 C   0  0  0  0  0  0  0  0  0  0  0  0
   -1.3810   20.3600  -31.1080 C   0  0  0  0  0  0  0  0  0  0  0  0
   -1.5750   21.6290  -30.5750 C   0  0  0  0  0  0  0  0  0  0  0  0
   -0.7010   22.4440  -29.8940 C   0  0  0  0  0  0  0  0  0  0  0  0
   -1.4300   23.5900  -29.5840 C   0  0  0  0  0  0  0  0  0  0  0  0
   -0.8430   24.7720  -28.9180 C   0  0  0  0  0  0  0  0  0  0  0  0
   -1.5440   26.0140  -28.9310 N   0  0  0  0  0  0  0  0  0  0  0  0
    0.2550   24.6900  -28.3070 O   0  0  0  0  0  0  0  0  0  0  0  0
   -2.7080   23.4840  -30.0510 N   0  0  0  0  0  0  0  0  0  0  0  0
   -3.7870   24.4190  -29.8890 C   0  0  0  0  0  0  0  0  0  0  0  0
   -3.8630   25.4390  -30.6220 O   0  0  0  0  0  0  0  0  0  0  0  0
   -4.7440   24.2190  -28.9010 O   0  0  0  0  0  0  0  0  0  0  0  0
   -2.7780   22.2780  -30.6570 C   0  0  0  0  0  0  0  0  0  0  0  0
   -3.8850   21.6720  -31.2630 C   0  0  0  0  0  0  0  0  0  0  0  0
   -6.0430   19.2650  -31.7620 C   0  0  0  0  0  0  0  0  0  0  0  0
   -9.4940   19.5098  -31.5643 H   0  0  0  0  0  0  0  0  0  0  0  0
  -10.1458   20.2588  -33.0612 H   0  0  0  0  0  0  0  0  0  0  0  0
   -9.6568   18.5303  -33.0612 H   0  0  0  0  0  0  0  0  0  0  0  0
   -7.7468   20.9096  -31.2210 H   0  0  0  0  0  0  0  0  0  0  0  0
   -6.6489   21.4102  -32.5516 H   0  0  0  0  0  0  0  0  0  0  0  0
   -8.3631   21.9471  -32.5516 H   0  0  0  0  0  0  0  0  0  0  0  0
   -7.6590   17.9540  -32.6057 H   0  0  0  0  0  0  0  0  0  0  0  0
   -5.8245   17.5005  -34.0726 H   0  0  0  0  0  0  0  0  0  0  0  0
   -6.6528   18.7521  -35.0120 H   0  0  0  0  0  0  0  0  0  0  0  0
   -4.0143   18.9521  -34.2381 H   0  0  0  0  0  0  0  0  0  0  0  0
   -5.0184   20.3844  -34.4760 H   0  0  0  0  0  0  0  0  0  0  0  0
   -2.3405   18.7334  -32.1752 H   0  0  0  0  0  0  0  0  0  0  0  0
   -0.4038   19.8598  -31.0376 H   0  0  0  0  0  0  0  0  0  0  0  0
    0.3503   22.2353  -29.6467 H   0  0  0  0  0  0  0  0  0  0  0  0
   -2.5880   26.0400  -28.9550 H   0  0  0  0  0  0  0  0  0  0  0  0
   -4.8542   22.1907  -31.3044 H   0  0  0  0  0  0  0  0  0  0  0  0
   -5.7983   18.4123  -31.1116 H   0  0  0  0  0  0  0  0  0  0  0  0
   -6.4593   20.0582  -31.1236 H   0  0  0  0  0  0  0  0  0  0  0  0
  1  2  1  0
  2  3  1  0
  2  4  1  0
  4  5  1  0
  5  6  1  0
  6  7  1  0
  7  8  1  0
  8  9  2  0
  9 10  1  0
 10 11  2  0
 11 12  1  0
 12 13  2  0
 13 14  1  0
 14 15  1  0
 14 16  2  0
 13 17  1  0
 17 18  1  0
 18 19  2  0
 18 20  1  0
 17 21  1  0
 21 22  2  0
  7 23  1  0
 23  4  1  0
 22  8  1  0
 21 11  1  0
  1 24  1  0
  1 25  1  0
  1 26  1  0
  3 27  1  0
  3 28  1  0
  3 29  1  0
  4 30  1  1
  5 31  1  0
  5 32  1  0
  6 33  1  0
  6 34  1  0
  9 35  1  0
 10 36  1  0
 12 37  1  0
 15 38  1  0
 22 39  1  0
 23 40  1  0
 23 41  1  0
M  CHG  2  15  -1  20  -1
M  END
>  <UniqueID>  (29) 
29

>  <SMILES>  (29) 
CN(C)[C@H]1CCN(c2ccc3cc(C([NH-])=O)n(C(=O)[O-])c3c2)C1

>  <Energy>  (29) 
92.05107201555752

>  <Genealogy>  (29) 
CN(C)C1CCN(c2ccc3cc(C([NH-])=O)n(C(=O)[O-])c3c2)C1 (protonated)
CN(C)[C@H]1CCN(c2ccc3cc(C([NH-])=O)n(C(=O)[O-])c3c2)C1 (chirality)
CN(C)[C@H]1CCN(c2ccc3cc(C([NH-])=O)n(C(=O)[O-])c3c2)C1 (3D coordinates assigned)
CN(C)[C@H]1CCN(c2ccc3cc(C([NH-])=O)n(C(=O)[O-])c3c2)C1 (nonaromatic ring conformer: 92.05107201555752 kcal/mol)

>  <smiles>  (29) 
CN(C)C1CCN(c2ccc3cc(C(N)=O)n(C(=O)O)c3c2)C1

>  <score_type>  (29) 
oracle

>  <origin>  (29) 
adg

>  <m_score__min__energy>  (29) 
-11.720000000000001

>  <m_primary>  (29) 
energy

$$$$
29:0
     RDKit          3D

 56 58  0  0  0  0  0  0  0  0999 V2000
   -4.0110   25.6650  -30.7970 N   0  0  0  0  0  0  0  0  0  0  0  0
   -5.3730   25.3580  -30.4960 C   0  0  0  0  0  0  0  0  0  0  0  0
   -6.0830   26.2200  -29.9020 O   0  0  0  0  0  0  0  0  0  0  0  0
   -5.9610   24.0370  -30.8170 C   0  0  0  0  0  0  0  0  0  0  0  0
   -7.2960   23.8730  -31.1830 C   0  0  0  0  0  0  0  0  0  0  0  0
   -7.4310   22.5400  -31.4930 C   0  0  0  0  0  0  0  0  0  0  0  0
   -8.5480   21.8330  -31.9330 C   0  0  0  0  0  0  0  0  0  0  0  0
   -8.3970   20.4640  -32.2040 C   0  0  0  0  0  0  0  0  0  0  0  0
   -7.1400   19.8320  -32.0430 C   0  0  0  0  0  0  0  0  0  0  0  0
   -6.9780   18.3780  -32.4110 C   0  0  0  0  0  0  0  0  0  0  0  0
   -6.4020   18.2060  -33.8250 C   0  0  0  0  0  0  0  0  0  0  0  0
   -5.0700   17.4890  -33.7970 C   0  0  0  0  0  0  0  0  0  0  0  0
   -5.0670   16.2880  -33.5630 O   0  0  0  0  0  0  0  0  0  0  0  0
   -3.8260   18.2110  -34.0230 N   0  0  1  0  0  0  0  0  0  0  0  0
   -3.9250   19.6760  -33.8020 C   0  0  0  0  0  0  0  0  0  0  0  0
   -2.8370   20.2940  -32.9090 C   0  0  0  0  0  0  0  0  0  0  0  0
   -1.5130   20.5020  -33.6410 C   0  0  0  0  0  0  0  0  0  0  0  0
   -1.2840   19.3960  -34.4790 O   0  0  0  0  0  0  0  0  0  0  0  0
   -1.2540   18.1840  -33.7530 C   0  0  0  0  0  0  0  0  0  0  0  0
   -2.6400   17.5760  -33.3980 C   0  0  0  0  0  0  0  0  0  0  0  0
   -6.0280   20.5810  -31.5900 C   0  0  0  0  0  0  0  0  0  0  0  0
   -6.2090   21.9440  -31.3230 C   0  0  0  0  0  0  0  0  0  0  0  0
   -5.2940   22.8460  -30.8970 N   0  0  0  0  0  0  0  0  0  0  0  0
   -3.8930   22.5940  -30.7010 C   0  0  0  0  0  0  0  0  0  0  0  0
   -3.0580   23.0700  -31.5210 O   0  0  0  0  0  0  0  0  0  0  0  0
   -3.4680   21.7730  -29.6460 O   0  0  0  0  0  0  0  0  0  0  0  0
   -3.1760   22.2180  -28.3490 C   0  0  0  0  0  0  0  0  0  0  0  0
   -2.7630   21.4220  -27.4630 O   0  0  0  0  0  0  0  0  0  0  0  0
   -3.3390   23.6700  -28.0200 C   0  0  0  0  0  0  0  0  0  0  0  0
   -2.0020   24.4000  -28.1270 C   0  0  0  0  0  0  0  0  0  0  0  0
   -1.9570   25.1210  -29.3270 O   0  0  0  0  0  0  0  0  0  0  0  0
   -3.2830   24.9190  -30.8310 H   0  0  0  0  0  0  0  0  0  0  0  0
   -8.0770   24.6469  -31.2168 H   0  0  0  0  0  0  0  0  0  0  0  0
   -9.5192   22.3327  -32.0641 H   0  0  0  0  0  0  0  0  0  0  0  0
   -9.2627   19.8769  -32.5444 H   0  0  0  0  0  0  0  0  0  0  0  0
   -6.2976   17.9021  -31.6895 H   0  0  0  0  0  0  0  0  0  0  0  0
   -7.9721   17.9076  -32.3881 H   0  0  0  0  0  0  0  0  0  0  0  0
   -7.1100   17.6215  -34.4308 H   0  0  0  0  0  0  0  0  0  0  0  0
   -6.2475   19.2049  -34.2589 H   0  0  0  0  0  0  0  0  0  0  0  0
   -3.6240   18.1370  -35.0490 H   0  0  0  0  0  0  0  0  0  0  0  0
   -3.8758   20.1693  -34.7839 H   0  0  0  0  0  0  0  0  0  0  0  0
   -4.8739   19.8337  -33.2684 H   0  0  0  0  0  0  0  0  0  0  0  0
   -3.1937   21.2690  -32.5453 H   0  0  0  0  0  0  0  0  0  0  0  0
   -2.6502   19.5917  -32.0832 H   0  0  0  0  0  0  0  0  0  0  0  0
   -1.5639   21.4200  -34.2449 H   0  0  0  0  0  0  0  0  0  0  0  0
   -0.6932   20.5982  -32.9139 H   0  0  0  0  0  0  0  0  0  0  0  0
   -0.7042   17.4441  -34.3532 H   0  0  0  0  0  0  0  0  0  0  0  0
   -0.7761   18.4225  -32.7913 H   0  0  0  0  0  0  0  0  0  0  0  0
   -2.6283   16.5192  -33.7029 H   0  0  0  0  0  0  0  0  0  0  0  0
   -2.7597   17.7411  -32.3171 H   0  0  0  0  0  0  0  0  0  0  0  0
   -5.0462   20.1047  -31.4511 H   0  0  0  0  0  0  0  0  0  0  0  0
   -4.0545   24.1216  -28.7230 H   0  0  0  0  0  0  0  0  0  0  0  0
   -3.7099   23.7598  -26.9883 H   0  0  0  0  0  0  0  0  0  0  0  0
   -1.8937   25.0925  -27.2792 H   0  0  0  0  0  0  0  0  0  0  0  0
   -1.1822   23.6668  -28.1095 H   0  0  0  0  0  0  0  0  0  0  0  0
   -2.3260   24.5160  -30.0240 H   0  0  0  0  0  0  0  0  0  0  0  0
  1  2  1  0
  2  3  2  0
  2  4  1  0
  4  5  2  0
  5  6  1  0
  6  7  2  0
  7  8  1  0
  8  9  2  0
  9 10  1  0
 10 11  1  0
 11 12  1  0
 12 13  2  0
 12 14  1  0
 14 15  1  0
 15 16  1  0
 16 17  1  0
 17 18  1  0
 18 19  1  0
 19 20  1  0
  9 21  1  0
 21 22  2  0
 22 23  1  0
 23 24  1  0
 24 25  2  0
 24 26  1  0
 26 27  1  0
 27 28  2  0
 27 29  1  0
 29 30  1  0
 30 31  1  0
 23  4  1  0
 22  6  1  0
 20 14  1  0
  1 32  1  0
  5 33  1  0
  7 34  1  0
  8 35  1  0
 10 36  1  0
 10 37  1  0
 11 38  1  0
 11 39  1  0
 14 40  1  6
 15 41  1  0
 15 42  1  0
 16 43  1  0
 16 44  1  0
 17 45  1  0
 17 46  1  0
 19 47  1  0
 19 48  1  0
 20 49  1  0
 20 50  1  0
 21 51  1  0
 29 52  1  0
 29 53  1  0
 30 54  1  0
 30 55  1  0
 31 56  1  0
M  CHG  2   1  -1  14   1
M  END
>  <UniqueID>  (30) 
30

>  <SMILES>  (30) 
[NH-]C(=O)c1cc2ccc(CCC(=O)[N@H+]3CCCOCC3)cc2n1C(=O)OC(=O)CCO

>  <Energy>  (30) 
107.13372567167849

>  <Genealogy>  (30) 
[NH-]C(=O)c1cc2ccc(CCC(=O)[NH+]3CCCOCC3)cc2n1C(=O)OC(=O)CCO (protonated)
[NH-]C(=O)c1cc2ccc(CCC(=O)[N@H+]3CCCOCC3)cc2n1C(=O)OC(=O)CCO (chirality)
[NH-]C(=O)c1cc2ccc(CCC(=O)[N@H+]3CCCOCC3)cc2n1C(=O)OC(=O)CCO (3D coordinates assigned)
[NH-]C(=O)c1cc2ccc(CCC(=O)[N@H+]3CCCOCC3)cc2n1C(=O)OC(=O)CCO (nonaromatic ring conformer: 107.13372567167849 kcal/mol)

>  <smiles>  (30) 
NC(=O)c1cc2ccc(CCC(=O)N3CCCOCC3)cc2n1C(=O)OC(=O)CCO

>  <score_type>  (30) 
oracle

>  <origin>  (30) 
adg

>  <m_score__min__energy>  (30) 
-8.0800000000000001

>  <m_primary>  (30) 
energy

$$$$
30:0
     RDKit          3D

 45 46  0  0  0  0  0  0  0  0999 V2000
   -6.0500   18.9720  -34.5490 C   0  0  0  0  0  0  0  0  0  0  0  0
   -6.2360   18.1370  -33.3590 N   0  0  0  0  0  0  0  0  0  0  0  0
   -5.9640   16.6980  -33.4080 C   0  0  0  0  0  0  0  0  0  0  0  0
   -6.7500   18.7190  -32.1450 C   0  0  0  0  0  0  0  0  0  0  0  0
   -7.1660   17.9750  -31.2160 O   0  0  0  0  0  0  0  0  0  0  0  0
   -6.8220   20.1420  -31.9840 N   0  0  0  0  0  0  0  0  0  0  0  0
   -7.9260   20.9380  -32.0420 C   0  0  0  0  0  0  0  0  0  0  0  0
   -9.3050   20.4880  -32.3290 C   0  0  0  0  0  0  0  0  0  0  0  0
   -9.5500   19.2690  -33.0260 N   0  0  0  0  0  0  0  0  0  0  0  0
  -10.2810   21.1970  -31.9670 O   0  0  0  0  0  0  0  0  0  0  0  0
   -7.5700   22.2740  -31.8540 C   0  0  0  0  0  0  0  0  0  0  0  0
   -6.2020   22.2690  -31.6940 C   0  0  0  0  0  0  0  0  0  0  0  0
   -5.3160   23.3240  -31.5000 C   0  0  0  0  0  0  0  0  0  0  0  0
   -3.9490   23.0210  -31.3790 C   0  0  0  0  0  0  0  0  0  0  0  0
   -3.4970   21.6760  -31.4280 C   0  0  0  0  0  0  0  0  0  0  0  0
   -2.0290   21.3540  -31.3120 C   0  0  0  0  0  0  0  0  0  0  0  0
   -1.6040   21.1050  -29.8860 C   0  0  0  0  0  0  0  0  0  0  0  0
   -1.5950   19.9150  -29.4700 O   0  0  0  0  0  0  0  0  0  0  0  0
   -1.2290   22.1770  -28.9880 N   0  0  0  0  0  0  0  0  0  0  0  0
   -1.0600   21.8700  -27.5640 C   0  0  0  0  0  0  0  0  0  0  0  0
   -0.9180   23.5320  -29.4690 C   0  0  0  0  0  0  0  0  0  0  0  0
   -1.9520   24.5130  -29.0040 C   0  0  0  0  0  0  0  0  0  0  0  0
   -1.6200   25.8940  -28.8980 N   0  0  0  0  0  0  0  0  0  0  0  0
   -3.1280   24.1340  -28.7560 O   0  0  0  0  0  0  0  0  0  0  0  0
   -4.4270   20.6350  -31.6500 C   0  0  0  0  0  0  0  0  0  0  0  0
   -5.7780   20.9700  -31.7800 C   0  0  0  0  0  0  0  0  0  0  0  0
   -5.8204   20.0028  -34.2414 H   0  0  0  0  0  0  0  0  0  0  0  0
   -5.2184   18.5747  -35.1494 H   0  0  0  0  0  0  0  0  0  0  0  0
   -6.9717   18.9652  -35.1494 H   0  0  0  0  0  0  0  0  0  0  0  0
   -5.8895   16.3038  -32.3838 H   0  0  0  0  0  0  0  0  0  0  0  0
   -6.7817   16.1881  -33.9385 H   0  0  0  0  0  0  0  0  0  0  0  0
   -5.0166   16.5218  -33.9385 H   0  0  0  0  0  0  0  0  0  0  0  0
   -9.7740   19.2680  -34.0460 H   0  0  0  0  0  0  0  0  0  0  0  0
   -8.2399   23.1463  -31.8371 H   0  0  0  0  0  0  0  0  0  0  0  0
   -5.6741   24.3625  -31.4431 H   0  0  0  0  0  0  0  0  0  0  0  0
   -3.2212   23.8349  -31.2449 H   0  0  0  0  0  0  0  0  0  0  0  0
   -1.8174   20.4526  -31.9059 H   0  0  0  0  0  0  0  0  0  0  0  0
   -1.4655   22.2231  -31.6822 H   0  0  0  0  0  0  0  0  0  0  0  0
   -1.5034   22.6754  -26.9601 H   0  0  0  0  0  0  0  0  0  0  0  0
   -1.5617   20.9190  -27.3319 H   0  0  0  0  0  0  0  0  0  0  0  0
    0.0119   21.7853  -27.3319 H   0  0  0  0  0  0  0  0  0  0  0  0
    0.0661   23.8349  -29.0820 H   0  0  0  0  0  0  0  0  0  0  0  0
   -0.9109   23.5224  -30.5689 H   0  0  0  0  0  0  0  0  0  0  0  0
   -1.2280   26.4170  -29.7120 H   0  0  0  0  0  0  0  0  0  0  0  0
   -4.0962   19.5882  -31.7187 H   0  0  0  0  0  0  0  0  0  0  0  0
  1  2  1  0
  2  3  1  0
  2  4  1  0
  4  5  2  0
  4  6  1  0
  6  7  1  0
  7  8  1  0
  8  9  1  0
  8 10  2  0
  7 11  2  0
 11 12  1  0
 12 13  2  0
 13 14  1  0
 14 15  2  0
 15 16  1  0
 16 17  1  0
 17 18  2  0
 17 19  1  0
 19 20  1  0
 19 21  1  0
 21 22  1  0
 22 23  1  0
 22 24  2  0
 15 25  1  0
 25 26  2  0
 26  6  1  0
 26 12  1  0
  1 27  1  0
  1 28  1  0
  1 29  1  0
  3 30  1  0
  3 31  1  0
  3 32  1  0
  9 33  1  0
 11 34  1  0
 13 35  1  0
 14 36  1  0
 16 37  1  0
 16 38  1  0
 20 39  1  0
 20 40  1  0
 20 41  1  0
 21 42  1  0
 21 43  1  0
 23 44  1  0
 25 45  1  0
M  CHG  2   9  -1  23  -1
M  END
>  <UniqueID>  (31) 
31

>  <SMILES>  (31) 
CN(C)C(=O)n1c(C([NH-])=O)cc2ccc(CC(=O)N(C)CC([NH-])=O)cc21

>  <Energy>  (31) 
76.89133250726981

>  <Genealogy>  (31) 
CN(C)C(=O)n1c(C([NH-])=O)cc2ccc(CC(=O)N(C)CC([NH-])=O)cc21 (protonated)
CN(C)C(=O)n1c(C([NH-])=O)cc2ccc(CC(=O)N(C)CC([NH-])=O)cc21 (3D coordinates assigned)
CN(C)C(=O)n1c(C([NH-])=O)cc2ccc(CC(=O)N(C)CC([NH-])=O)cc21 (optimized conformer: 76.89133250726981 kcal/mol)

>  <smiles>  (31) 
CN(C)C(=O)n1c(C(N)=O)cc2ccc(CC(=O)N(C)CC(N)=O)cc21

>  <score_type>  (31) 
oracle

>  <origin>  (31) 
adg

>  <m_score__min__energy>  (31) 
-10.5

>  <m_primary>  (31) 
energy

$$$$
31:0
     RDKit          3D

 35 37  0  0  0  0  0  0  0  0999 V2000
   -8.9950   18.2140  -31.5130 C   0  0  0  0  0  0  0  0  0  0  0  0
   -8.6500   19.5620  -32.0560 C   0  0  0  0  0  0  0  0  0  0  0  0
   -9.4900   20.4990  -32.0020 O   0  0  0  0  0  0  0  0  0  0  0  0
   -7.3590   19.7980  -32.6120 N   0  0  0  0  0  0  0  0  0  0  0  0
   -6.1210   19.0360  -32.8560 C   0  0  0  0  0  0  0  0  0  0  0  0
   -5.3540   20.1740  -33.4610 C   0  0  0  0  0  0  0  0  0  0  0  0
   -4.1590   20.6480  -32.6520 C   0  0  0  0  0  0  0  0  0  0  0  0
   -2.9270   19.9360  -32.6400 C   0  0  0  0  0  0  0  0  0  0  0  0
   -1.8330   20.4040  -31.8930 C   0  0  0  0  0  0  0  0  0  0  0  0
   -1.9960   21.5750  -31.1620 C   0  0  0  0  0  0  0  0  0  0  0  0
   -1.0970   22.2600  -30.3780 C   0  0  0  0  0  0  0  0  0  0  0  0
   -1.7920   23.3680  -29.8990 C   0  0  0  0  0  0  0  0  0  0  0  0
   -1.2180   24.3320  -28.9380 C   0  0  0  0  0  0  0  0  0  0  0  0
   -1.5690   25.7120  -28.9860 N   0  0  0  0  0  0  0  0  0  0  0  0
   -0.4460   23.9230  -28.0300 O   0  0  0  0  0  0  0  0  0  0  0  0
   -3.0690   23.3740  -30.3770 N   0  0  0  0  0  0  0  0  0  0  0  0
   -4.0680   24.3900  -30.1940 C   0  0  0  0  0  0  0  0  0  0  0  0
   -5.1440   24.1240  -29.5940 O   0  0  0  0  0  0  0  0  0  0  0  0
   -3.8710   25.6670  -30.7020 O   0  0  0  0  0  0  0  0  0  0  0  0
   -3.1790   22.2670  -31.1460 C   0  0  0  0  0  0  0  0  0  0  0  0
   -4.2790   21.8360  -31.8960 C   0  0  0  0  0  0  0  0  0  0  0  0
   -6.6280   20.9270  -33.2180 C   0  0  0  0  0  0  0  0  0  0  0  0
   -8.9862   18.2483  -30.4136 H   0  0  0  0  0  0  0  0  0  0  0  0
   -9.9965   17.9231  -31.8628 H   0  0  0  0  0  0  0  0  0  0  0  0
   -8.2563   17.4778  -31.8628 H   0  0  0  0  0  0  0  0  0  0  0  0
   -5.6634   18.6603  -31.9289 H   0  0  0  0  0  0  0  0  0  0  0  0
   -6.2072   18.1155  -33.4521 H   0  0  0  0  0  0  0  0  0  0  0  0
   -4.8448   20.1249  -34.4348 H   0  0  0  0  0  0  0  0  0  0  0  0
   -2.8300   19.0080  -33.2226 H   0  0  0  0  0  0  0  0  0  0  0  0
   -0.8767   19.8604  -31.8868 H   0  0  0  0  0  0  0  0  0  0  0  0
   -0.0506   21.9899  -30.1727 H   0  0  0  0  0  0  0  0  0  0  0  0
   -2.5690   26.0130  -28.9670 H   0  0  0  0  0  0  0  0  0  0  0  0
   -5.2174   22.4099  -31.8971 H   0  0  0  0  0  0  0  0  0  0  0  0
   -6.4976   21.7706  -32.5243 H   0  0  0  0  0  0  0  0  0  0  0  0
   -7.0934   21.4200  -34.0843 H   0  0  0  0  0  0  0  0  0  0  0  0
  1  2  1  0
  2  3  2  0
  2  4  1  0
  4  5  1  0
  5  6  1  0
  6  7  1  0
  7  8  2  0
  8  9  1  0
  9 10  2  0
 10 11  1  0
 11 12  2  0
 12 13  1  0
 13 14  1  0
 13 15  2  0
 12 16  1  0
 16 17  1  0
 17 18  2  0
 17 19  1  0
 16 20  1  0
 20 21  2  0
  6 22  1  0
 22  4  1  0
 21  7  1  0
 20 10  1  0
  1 23  1  0
  1 24  1  0
  1 25  1  0
  5 26  1  0
  5 27  1  0
  6 28  1  0
  8 29  1  0
  9 30  1  0
 11 31  1  0
 14 32  1  0
 21 33  1  0
 22 34  1  0
 22 35  1  0
M  CHG  2  14  -1  19  -1
M  END
>  <UniqueID>  (32) 
32

>  <SMILES>  (32) 
CC(=O)N1CC(c2ccc3cc(C([NH-])=O)n(C(=O)[O-])c3c2)C1

>  <Energy>  (32) 
120.97583351916342

>  <Genealogy>  (32) 
CC(=O)N1CC(c2ccc3cc(C([NH-])=O)n(C(=O)[O-])c3c2)C1 (protonated)
CC(=O)N1CC(c2ccc3cc(C([NH-])=O)n(C(=O)[O-])c3c2)C1 (3D coordinates assigned)
CC(=O)N1CC(c2ccc3cc(C([NH-])=O)n(C(=O)[O-])c3c2)C1 (nonaromatic ring conformer: 120.97583351916342 kcal/mol)

>  <smiles>  (32) 
CC(=O)N1CC(c2ccc3cc(C(N)=O)n(C(=O)O)c3c2)C1

>  <score_type>  (32) 
oracle

>  <origin>  (32) 
adg

>  <m_score__min__energy>  (32) 
-11.66

>  <m_primary>  (32) 
energy

$$$$
32:0
     RDKit          3D

 46 47  0  0  0  0  0  0  0  0999 V2000
   -4.1140   24.5310  -27.2220 C   0  0  0  0  0  0  0  0  0  0  0  0
   -3.6010   24.2540  -28.5730 N   0  0  0  0  0  0  0  0  0  0  0  0
   -4.4050   24.6650  -29.7040 C   0  0  0  0  0  0  0  0  0  0  0  0
   -3.8620   25.2540  -30.6790 O   0  0  0  0  0  0  0  0  0  0  0  0
   -5.8970   24.4410  -29.7130 C   0  0  0  0  0  0  0  0  0  0  0  0
   -6.5030   24.4940  -31.1230 C   0  0  0  0  0  0  0  0  0  0  0  0
   -6.9080   23.1280  -31.6160 C   0  0  0  0  0  0  0  0  0  0  0  0
   -8.2590   22.7110  -31.5200 C   0  0  0  0  0  0  0  0  0  0  0  0
   -8.6460   21.4340  -31.9590 C   0  0  0  0  0  0  0  0  0  0  0  0
   -7.6630   20.5960  -32.4770 C   0  0  0  0  0  0  0  0  0  0  0  0
   -7.7660   19.3190  -32.9770 C   0  0  0  0  0  0  0  0  0  0  0  0
   -6.4700   18.9620  -33.3480 C   0  0  0  0  0  0  0  0  0  0  0  0
   -6.0980   17.6200  -33.8510 C   0  0  0  0  0  0  0  0  0  0  0  0
   -5.0020   17.4580  -34.7540 N   0  0  0  0  0  0  0  0  0  0  0  0
   -6.7660   16.6090  -33.5110 O   0  0  0  0  0  0  0  0  0  0  0  0
   -5.6010   19.9810  -33.0900 N   0  0  0  0  0  0  0  0  0  0  0  0
   -4.1940   20.0300  -33.3800 C   0  0  0  0  0  0  0  0  0  0  0  0
   -3.6630   21.0970  -33.7840 O   0  0  0  0  0  0  0  0  0  0  0  0
   -3.4010   18.9020  -33.2050 O   0  0  0  0  0  0  0  0  0  0  0  0
   -6.3480   20.9750  -32.5580 C   0  0  0  0  0  0  0  0  0  0  0  0
   -5.9370   22.2480  -32.1460 C   0  0  0  0  0  0  0  0  0  0  0  0
   -2.2270   23.7140  -28.7700 C   0  0  0  0  0  0  0  0  0  0  0  0
   -2.0900   22.9950  -30.1350 C   0  0  0  0  0  0  0  0  0  0  0  0
   -1.9180   22.6960  -27.6530 C   0  0  0  0  0  0  0  0  0  0  0  0
   -1.2190   24.8510  -28.7720 C   0  0  0  0  0  0  0  0  0  0  0  0
   -1.5750   26.0430  -28.9750 O   0  0  0  0  0  0  0  0  0  0  0  0
    0.1280   24.5750  -28.5680 O   0  0  0  0  0  0  0  0  0  0  0  0
   -3.4040   24.1476  -26.4744 H   0  0  0  0  0  0  0  0  0  0  0  0
   -4.2340   25.6165  -27.0908 H   0  0  0  0  0  0  0  0  0  0  0  0
   -5.0875   24.0359  -27.0908 H   0  0  0  0  0  0  0  0  0  0  0  0
   -6.1057   23.4521  -29.2787 H   0  0  0  0  0  0  0  0  0  0  0  0
   -6.3550   25.2516  -29.1272 H   0  0  0  0  0  0  0  0  0  0  0  0
   -7.3915   25.1422  -31.1034 H   0  0  0  0  0  0  0  0  0  0  0  0
   -5.7372   24.8886  -31.8071 H   0  0  0  0  0  0  0  0  0  0  0  0
   -9.0114   23.3935  -31.0979 H   0  0  0  0  0  0  0  0  0  0  0  0
   -9.6941   21.1063  -31.8953 H   0  0  0  0  0  0  0  0  0  0  0  0
   -8.6770   18.7089  -33.0655 H   0  0  0  0  0  0  0  0  0  0  0  0
   -4.7730   16.5120  -35.1340 H   0  0  0  0  0  0  0  0  0  0  0  0
   -4.3910   18.2620  -35.0160 H   0  0  0  0  0  0  0  0  0  0  0  0
   -4.8845   22.5560  -32.2325 H   0  0  0  0  0  0  0  0  0  0  0  0
   -1.8865   21.9270  -29.9680 H   0  0  0  0  0  0  0  0  0  0  0  0
   -3.0254   23.1056  -30.7032 H   0  0  0  0  0  0  0  0  0  0  0  0
   -1.2608   23.4418  -30.7032 H   0  0  0  0  0  0  0  0  0  0  0  0
   -2.0627   23.1726  -26.6722 H   0  0  0  0  0  0  0  0  0  0  0  0
   -2.5949   21.8339  -27.7451 H   0  0  0  0  0  0  0  0  0  0  0  0
   -0.8761   22.3556  -27.7451 H   0  0  0  0  0  0  0  0  0  0  0  0
  1  2  1  0
  2  3  1  0
  3  4  2  0
  3  5  1  0
  5  6  1  0
  6  7  1  0
  7  8  2  0
  8  9  1  0
  9 10  2  0
 10 11  1  0
 11 12  2  0
 12 13  1  0
 13 14  1  0
 13 15  2  0
 12 16  1  0
 16 17  1  0
 17 18  2  0
 17 19  1  0
 16 20  1  0
 20 21  2  0
  2 22  1  0
 22 23  1  0
 22 24  1  0
 22 25  1  0
 25 26  2  0
 25 27  1  0
 21  7  1  0
 20 10  1  0
  1 28  1  0
  1 29  1  0
  1 30  1  0
  5 31  1  0
  5 32  1  0
  6 33  1  0
  6 34  1  0
  8 35  1  0
  9 36  1  0
 11 37  1  0
 14 38  1  0
 14 39  1  0
 21 40  1  0
 23 41  1  0
 23 42  1  0
 23 43  1  0
 24 44  1  0
 24 45  1  0
 24 46  1  0
M  CHG  2  19  -1  27  -1
M  END
>  <UniqueID>  (33) 
33

>  <SMILES>  (33) 
CN(C(=O)CCc1ccc2cc(C(N)=O)n(C(=O)[O-])c2c1)C(C)(C)C(=O)[O-]

>  <Energy>  (33) 
84.98379024108074

>  <Genealogy>  (33) 
CN(C(=O)CCc1ccc2cc(C(N)=O)n(C(=O)[O-])c2c1)C(C)(C)C(=O)[O-] (protonated)
CN(C(=O)CCc1ccc2cc(C(N)=O)n(C(=O)[O-])c2c1)C(C)(C)C(=O)[O-] (3D coordinates assigned)
CN(C(=O)CCc1ccc2cc(C(N)=O)n(C(=O)[O-])c2c1)C(C)(C)C(=O)[O-] (optimized conformer: 84.98379024108074 kcal/mol)

>  <smiles>  (33) 
CN(C(=O)CCc1ccc2cc(C(N)=O)n(C(=O)O)c2c1)C(C)(C)C(=O)O

>  <score_type>  (33) 
oracle

>  <origin>  (33) 
adg

>  <m_score__min__energy>  (33) 
-11.550000000000001

>  <m_primary>  (33) 
energy

$$$$
33:0
     RDKit          3D

 43 44  0  0  0  0  0  0  0  0999 V2000
   -3.5980   16.9720  -34.9750 C   0  0  0  0  0  0  0  0  0  0  0  0
   -3.8240   18.0340  -33.9730 N   0  0  1  0  0  0  0  0  0  0  0  0
   -4.8450   17.6510  -32.9640 C   0  0  0  0  0  0  0  0  0  0  0  0
   -6.2860   18.1490  -33.2450 C   0  0  0  0  0  0  0  0  0  0  0  0
   -6.5510   19.5360  -32.7110 C   0  0  0  0  0  0  0  0  0  0  0  0
   -7.8820   20.0180  -32.6210 C   0  0  0  0  0  0  0  0  0  0  0  0
   -8.1460   21.3020  -32.1160 C   0  0  0  0  0  0  0  0  0  0  0  0
   -7.0650   22.0780  -31.7080 C   0  0  0  0  0  0  0  0  0  0  0  0
   -7.0370   23.3490  -31.1830 C   0  0  0  0  0  0  0  0  0  0  0  0
   -5.6900   23.6310  -30.9700 C   0  0  0  0  0  0  0  0  0  0  0  0
   -5.2020   24.9470  -30.5100 C   0  0  0  0  0  0  0  0  0  0  0  0
   -3.8210   25.2910  -30.6020 N   0  0  0  0  0  0  0  0  0  0  0  0
   -6.0210   25.7990  -30.0740 O   0  0  0  0  0  0  0  0  0  0  0  0
   -4.9140   22.5710  -31.3360 N   0  0  0  0  0  0  0  0  0  0  0  0
   -3.4890   22.4390  -31.2060 C   0  0  0  0  0  0  0  0  0  0  0  0
   -2.9580   22.3620  -30.0670 O   0  0  0  0  0  0  0  0  0  0  0  0
   -2.6790   22.4170  -32.3370 O   0  0  0  0  0  0  0  0  0  0  0  0
   -5.7720   21.6280  -31.7860 C   0  0  0  0  0  0  0  0  0  0  0  0
   -5.4820   20.3450  -32.2660 C   0  0  0  0  0  0  0  0  0  0  0  0
   -2.5860   18.5050  -33.3720 C   0  0  0  0  0  0  0  0  0  0  0  0
   -1.8430   17.7180  -32.7940 O   0  0  0  0  0  0  0  0  0  0  0  0
   -2.2340   19.9850  -33.4020 C   0  0  2  0  0  0  0  0  0  0  0  0
   -3.1770   20.6730  -34.1860 O   0  0  0  0  0  0  0  0  0  0  0  0
   -0.8370   20.2600  -33.9760 C   0  0  0  0  0  0  0  0  0  0  0  0
   -0.7500   21.5830  -34.4310 O   0  0  0  0  0  0  0  0  0  0  0  0
   -3.3955   16.0205  -34.4615 H   0  0  0  0  0  0  0  0  0  0  0  0
   -4.4936   16.8655  -35.6047 H   0  0  0  0  0  0  0  0  0  0  0  0
   -2.7366   17.2394  -35.6047 H   0  0  0  0  0  0  0  0  0  0  0  0
   -4.2320   18.8340  -34.5110 H   0  0  0  0  0  0  0  0  0  0  0  0
   -4.8713   16.5527  -32.9096 H   0  0  0  0  0  0  0  0  0  0  0  0
   -4.5371   18.1362  -32.0260 H   0  0  0  0  0  0  0  0  0  0  0  0
   -6.4472   18.1567  -34.3331 H   0  0  0  0  0  0  0  0  0  0  0  0
   -6.9749   17.4634  -32.7298 H   0  0  0  0  0  0  0  0  0  0  0  0
   -8.7156   19.3801  -32.9499 H   0  0  0  0  0  0  0  0  0  0  0  0
   -9.1757   21.6825  -32.0452 H   0  0  0  0  0  0  0  0  0  0  0  0
   -7.8962   24.0037  -30.9754 H   0  0  0  0  0  0  0  0  0  0  0  0
   -3.4980   26.0480  -31.2470 H   0  0  0  0  0  0  0  0  0  0  0  0
   -4.4462   19.9758  -32.2958 H   0  0  0  0  0  0  0  0  0  0  0  0
   -2.2432   20.3332  -32.3586 H   0  0  0  0  0  0  0  0  0  0  0  0
   -2.8900   21.6240  -34.2270 H   0  0  0  0  0  0  0  0  0  0  0  0
   -0.0835   20.0957  -33.1916 H   0  0  0  0  0  0  0  0  0  0  0  0
   -0.6565   19.5785  -34.8204 H   0  0  0  0  0  0  0  0  0  0  0  0
   -1.6110   22.0160  -34.1910 H   0  0  0  0  0  0  0  0  0  0  0  0
  1  2  1  0
  2  3  1  0
  3  4  1  0
  4  5  1  0
  5  6  2  0
  6  7  1  0
  7  8  2  0
  8  9  1  0
  9 10  2  0
 10 11  1  0
 11 12  1  0
 11 13  2  0
 10 14  1  0
 14 15  1  0
 15 16  2  0
 15 17  1  0
 14 18  1  0
 18 19  2  0
  2 20  1  0
 20 21  2  0
 20 22  1  0
 22 23  1  0
 22 24  1  0
 24 25  1  0
 19  5  1  0
 18  8  1  0
  1 26  1  0
  1 27  1  0
  1 28  1  0
  2 29  1  6
  3 30  1  0
  3 31  1  0
  4 32  1  0
  4 33  1  0
  6 34  1  0
  7 35  1  0
  9 36  1  0
 12 37  1  0
 19 38  1  0
 22 39  1  1
 23 40  1  0
 24 41  1  0
 24 42  1  0
 25 43  1  0
M  CHG  3   2   1  12  -1  17  -1
M  END
>  <UniqueID>  (34) 
34

>  <SMILES>  (34) 
C[N@@H+](CCc1ccc2cc(C([NH-])=O)n(C(=O)[O-])c2c1)C(=O)[C@H](O)CO

>  <Energy>  (34) 
85.77433572894948

>  <Genealogy>  (34) 
C[NH+](CCc1ccc2cc(C([NH-])=O)n(C(=O)[O-])c2c1)C(=O)C(O)CO (protonated)
C[N@@H+](CCc1ccc2cc(C([NH-])=O)n(C(=O)[O-])c2c1)C(=O)[C@H](O)CO (chirality)
C[N@@H+](CCc1ccc2cc(C([NH-])=O)n(C(=O)[O-])c2c1)C(=O)[C@H](O)CO (3D coordinates assigned)
C[N@@H+](CCc1ccc2cc(C([NH-])=O)n(C(=O)[O-])c2c1)C(=O)[C@H](O)CO (optimized conformer: 85.77433572894948 kcal/mol)

>  <smiles>  (34) 
CN(CCc1ccc2cc(C(N)=O)n(C(=O)O)c2c1)C(=O)C(O)CO

>  <score_type>  (34) 
oracle

>  <origin>  (34) 
adg

>  <m_score__min__energy>  (34) 
-9.8399999999999999

>  <m_primary>  (34) 
energy

$$$$
34:0
     RDKit          3D

 30 31  0  0  0  0  0  0  0  0999 V2000
   -3.1630   20.7490  -33.0880 C   0  0  0  0  0  0  0  0  0  0  0  0
   -3.5470   22.0160  -32.9450 C   0  0  0  0  0  0  0  0  0  0  0  0
   -3.9720   22.5810  -31.6510 C   0  0  0  0  0  0  0  0  0  0  0  0
   -3.1050   22.7860  -30.7610 O   0  0  0  0  0  0  0  0  0  0  0  0
   -5.3450   22.9090  -31.3860 N   0  0  0  0  0  0  0  0  0  0  0  0
   -5.8530   24.1090  -30.9900 C   0  0  0  0  0  0  0  0  0  0  0  0
   -5.0650   25.3050  -30.6260 C   0  0  0  0  0  0  0  0  0  0  0  0
   -3.6530   25.2280  -30.4440 N   0  0  0  0  0  0  0  0  0  0  0  0
   -5.6490   26.4070  -30.4500 O   0  0  0  0  0  0  0  0  0  0  0  0
   -7.2460   24.0510  -30.9320 C   0  0  0  0  0  0  0  0  0  0  0  0
   -7.5750   22.7690  -31.3130 C   0  0  0  0  0  0  0  0  0  0  0  0
   -8.8210   22.1670  -31.4570 C   0  0  0  0  0  0  0  0  0  0  0  0
   -8.8610   20.8340  -31.9000 C   0  0  0  0  0  0  0  0  0  0  0  0
   -7.6630   20.1320  -32.1880 C   0  0  0  0  0  0  0  0  0  0  0  0
   -7.7200   18.7200  -32.7010 C   0  0  0  0  0  0  0  0  0  0  0  0
   -6.4020   18.3340  -33.2890 C   0  0  0  0  0  0  0  0  0  0  0  0
   -6.0800   18.7360  -34.4380 O   0  0  0  0  0  0  0  0  0  0  0  0
   -5.5490   17.4890  -32.5910 O   0  0  0  0  0  0  0  0  0  0  0  0
   -6.4170   20.7810  -32.0440 C   0  0  0  0  0  0  0  0  0  0  0  0
   -6.4090   22.1030  -31.5870 C   0  0  0  0  0  0  0  0  0  0  0  0
   -2.8548   20.3758  -34.0758 H   0  0  0  0  0  0  0  0  0  0  0  0
   -3.1540   20.0755  -32.2183 H   0  0  0  0  0  0  0  0  0  0  0  0
   -3.5472   22.6691  -33.8301 H   0  0  0  0  0  0  0  0  0  0  0  0
   -3.0300   24.8950  -31.2130 H   0  0  0  0  0  0  0  0  0  0  0  0
   -7.9353   24.8581  -30.6432 H   0  0  0  0  0  0  0  0  0  0  0  0
   -9.7462   22.7174  -31.2311 H   0  0  0  0  0  0  0  0  0  0  0  0
   -9.8309   20.3303  -32.0246 H   0  0  0  0  0  0  0  0  0  0  0  0
   -7.9608   18.0405  -31.8702 H   0  0  0  0  0  0  0  0  0  0  0  0
   -8.4953   18.6503  -33.4782 H   0  0  0  0  0  0  0  0  0  0  0  0
   -5.4781   20.2609  -32.2847 H   0  0  0  0  0  0  0  0  0  0  0  0
  1  2  2  0
  2  3  1  0
  3  4  2  0
  3  5  1  0
  5  6  1  0
  6  7  1  0
  7  8  1  0
  7  9  2  0
  6 10  2  0
 10 11  1  0
 11 12  2  0
 12 13  1  0
 13 14  2  0
 14 15  1  0
 15 16  1  0
 16 17  2  0
 16 18  1  0
 14 19  1  0
 19 20  2  0
 20  5  1  0
 20 11  1  0
  1 21  1  0
  1 22  1  0
  2 23  1  0
  8 24  1  0
 10 25  1  0
 12 26  1  0
 13 27  1  0
 15 28  1  0
 15 29  1  0
 19 30  1  0
M  CHG  2   8  -1  18  -1
M  END
>  <UniqueID>  (35) 
35

>  <SMILES>  (35) 
C=CC(=O)n1c(C([NH-])=O)cc2ccc(CC(=O)[O-])cc21

>  <Energy>  (35) 
67.26109852639259

>  <Genealogy>  (35) 
C=CC(=O)n1c(C([NH-])=O)cc2ccc(CC(=O)[O-])cc21 (protonated)
C=CC(=O)n1c(C([NH-])=O)cc2ccc(CC(=O)[O-])cc21 (3D coordinates assigned)
C=CC(=O)n1c(C([NH-])=O)cc2ccc(CC(=O)[O-])cc21 (optimized conformer: 67.26109852639259 kcal/mol)

>  <smiles>  (35) 
C=CC(=O)n1c(C(N)=O)cc2ccc(CC(=O)O)cc21

>  <score_type>  (35) 
oracle

>  <origin>  (35) 
adg

>  <m_score__min__energy>  (35) 
-9.9299999999999997

>  <m_primary>  (35) 
energy

$$$$
35:0
     RDKit          3D

 49 51  0  0  0  0  0  0  0  0999 V2000
   -3.8850   19.3130  -33.5220 C   0  0  0  0  0  0  0  0  0  0  0  0
   -5.1150   19.2810  -34.2110 O   0  0  0  0  0  0  0  0  0  0  0  0
   -5.7290   18.0250  -34.0140 C   0  0  0  0  0  0  0  0  0  0  0  0
   -6.1860   17.8940  -32.5570 C   0  0  0  0  0  0  0  0  0  0  0  0
   -7.6030   18.4370  -32.3160 C   0  0  0  0  0  0  0  0  0  0  0  0
   -7.6020   19.9150  -32.0230 C   0  0  0  0  0  0  0  0  0  0  0  0
   -8.8210   20.6360  -31.9740 C   0  0  0  0  0  0  0  0  0  0  0  0
   -8.8310   22.0030  -31.6490 C   0  0  0  0  0  0  0  0  0  0  0  0
   -7.6130   22.6190  -31.3780 C   0  0  0  0  0  0  0  0  0  0  0  0
   -7.3390   23.9100  -30.9840 C   0  0  0  0  0  0  0  0  0  0  0  0
   -5.9570   23.9570  -30.8080 C   0  0  0  0  0  0  0  0  0  0  0  0
   -5.2200   25.1800  -30.4280 C   0  0  0  0  0  0  0  0  0  0  0  0
   -3.8710   25.3560  -30.8530 N   0  0  0  0  0  0  0  0  0  0  0  0
   -5.7590   26.0590  -29.7050 O   0  0  0  0  0  0  0  0  0  0  0  0
   -5.4000   22.7460  -31.0870 N   0  0  0  0  0  0  0  0  0  0  0  0
   -4.0320   22.3500  -30.9250 C   0  0  0  0  0  0  0  0  0  0  0  0
   -3.1310   22.9130  -31.6050 O   0  0  0  0  0  0  0  0  0  0  0  0
   -3.7140   21.3060  -30.0480 O   0  0  0  0  0  0  0  0  0  0  0  0
   -2.4750   21.2040  -29.3440 C   0  0  0  0  0  0  0  0  0  0  0  0
   -2.1930   22.4520  -28.4830 C   0  0  2  0  0  0  0  0  0  0  0  0
   -3.4090   23.0880  -27.8690 C   0  0  0  0  0  0  0  0  0  0  0  0
   -2.9760   24.5330  -27.7140 C   0  0  0  0  0  0  0  0  0  0  0  0
   -1.9320   24.8150  -28.6200 O   0  0  0  0  0  0  0  0  0  0  0  0
   -1.5730   23.6070  -29.2520 C   0  0  0  0  0  0  0  0  0  0  0  0
   -6.4250   21.9380  -31.4330 C   0  0  0  0  0  0  0  0  0  0  0  0
   -6.3850   20.5740  -31.7410 C   0  0  0  0  0  0  0  0  0  0  0  0
   -4.0717   19.3081  -32.4380 H   0  0  0  0  0  0  0  0  0  0  0  0
   -3.2886   18.4301  -33.7953 H   0  0  0  0  0  0  0  0  0  0  0  0
   -3.3353   20.2258  -33.7953 H   0  0  0  0  0  0  0  0  0  0  0  0
   -6.6003   17.9359  -34.6795 H   0  0  0  0  0  0  0  0  0  0  0  0
   -5.0063   17.2275  -34.2413 H   0  0  0  0  0  0  0  0  0  0  0  0
   -6.1674   16.8298  -32.2791 H   0  0  0  0  0  0  0  0  0  0  0  0
   -5.4975   18.4934  -31.9433 H   0  0  0  0  0  0  0  0  0  0  0  0
   -8.2104   18.2541  -33.2147 H   0  0  0  0  0  0  0  0  0  0  0  0
   -8.0197   17.9185  -31.4399 H   0  0  0  0  0  0  0  0  0  0  0  0
   -9.7680   20.1208  -32.1924 H   0  0  0  0  0  0  0  0  0  0  0  0
   -9.7733   22.5692  -31.6100 H   0  0  0  0  0  0  0  0  0  0  0  0
   -8.0580   24.7298  -30.8390 H   0  0  0  0  0  0  0  0  0  0  0  0
   -3.1010   24.7730  -30.4540 H   0  0  0  0  0  0  0  0  0  0  0  0
   -2.5111   20.3215  -28.6884 H   0  0  0  0  0  0  0  0  0  0  0  0
   -1.6690   21.1160  -30.0874 H   0  0  0  0  0  0  0  0  0  0  0  0
   -1.5201   22.0211  -27.7270 H   0  0  0  0  0  0  0  0  0  0  0  0
   -4.2814   23.0029  -28.5336 H   0  0  0  0  0  0  0  0  0  0  0  0
   -3.7216   22.6186  -26.9246 H   0  0  0  0  0  0  0  0  0  0  0  0
   -3.8296   25.1950  -27.9217 H   0  0  0  0  0  0  0  0  0  0  0  0
   -2.6219   24.6995  -26.6860 H   0  0  0  0  0  0  0  0  0  0  0  0
   -1.9461   23.6055  -30.2868 H   0  0  0  0  0  0  0  0  0  0  0  0
   -0.4781   23.5027  -29.2668 H   0  0  0  0  0  0  0  0  0  0  0  0
   -5.4300   20.0286  -31.7630 H   0  0  0  0  0  0  0  0  0  0  0  0
  1  2  1  0
  2  3  1  0
  3  4  1  0
  4  5  1  0
  5  6  1  0
  6  7  2  0
  7  8  1  0
  8  9  2  0
  9 10  1  0
 10 11  2  0
 11 12  1  0
 12 13  1  0
 12 14  2  0
 11 15  1  0
 15 16  1  0
 16 17  2  0
 16 18  1  0
 18 19  1  0
 19 20  1  0
 20 21  1  0
 21 22  1  0
 22 23  1  0
 23 24  1  0
 15 25  1  0
 25 26  2  0
 26  6  1  0
 25  9  1  0
 24 20  1  0
  1 27  1  0
  1 28  1  0
  1 29  1  0
  3 30  1  0
  3 31  1  0
  4 32  1  0
  4 33  1  0
  5 34  1  0
  5 35  1  0
  7 36  1  0
  8 37  1  0
 10 38  1  0
 13 39  1  0
 19 40  1  0
 19 41  1  0
 20 42  1  1
 21 43  1  0
 21 44  1  0
 22 45  1  0
 22 46  1  0
 24 47  1  0
 24 48  1  0
 26 49  1  0
M  CHG  1  13  -1
M  END
>  <UniqueID>  (36) 
36

>  <SMILES>  (36) 
COCCCc1ccc2cc(C([NH-])=O)n(C(=O)OC[C@@H]3CCOC3)c2c1

>  <Energy>  (36) 
84.02013487721332

>  <Genealogy>  (36) 
COCCCc1ccc2cc(C([NH-])=O)n(C(=O)OCC3CCOC3)c2c1 (protonated)
COCCCc1ccc2cc(C([NH-])=O)n(C(=O)OC[C@@H]3CCOC3)c2c1 (chirality)
COCCCc1ccc2cc(C([NH-])=O)n(C(=O)OC[C@@H]3CCOC3)c2c1 (3D coordinates assigned)
COCCCc1ccc2cc(C([NH-])=O)n(C(=O)OC[C@@H]3CCOC3)c2c1 (nonaromatic ring conformer: 84.02013487721332 kcal/mol)

>  <smiles>  (36) 
COCCCc1ccc2cc(C(N)=O)n(C(=O)OCC3CCOC3)c2c1

>  <score_type>  (36) 
oracle

>  <origin>  (36) 
adg

>  <m_score__min__energy>  (36) 
-11.109999999999999

>  <m_primary>  (36) 
energy

$$$$
36:0
     RDKit          3D

 52 55  0  0  0  0  0  0  0  0999 V2000
   -2.7610   20.6980  -33.4540 C   0  0  0  0  0  0  0  0  0  0  0  0
   -3.3540   19.6270  -34.1780 O   0  0  0  0  0  0  0  0  0  0  0  0
   -3.7770   18.4440  -33.5630 C   0  0  0  0  0  0  0  0  0  0  0  0
   -2.9260   17.6050  -33.1610 O   0  0  0  0  0  0  0  0  0  0  0  0
   -5.1810   18.1860  -33.3870 N   0  0  0  0  0  0  0  0  0  0  0  0
   -5.8400   17.0130  -33.6040 C   0  0  0  0  0  0  0  0  0  0  0  0
   -5.2580   15.8040  -34.2230 C   0  0  0  0  0  0  0  0  0  0  0  0
   -4.0200   15.8740  -34.9340 N   0  0  0  0  0  0  0  0  0  0  0  0
   -5.8380   14.6910  -34.1030 O   0  0  0  0  0  0  0  0  0  0  0  0
   -7.1820   17.1310  -33.2470 C   0  0  0  0  0  0  0  0  0  0  0  0
   -7.3270   18.4250  -32.8040 C   0  0  0  0  0  0  0  0  0  0  0  0
   -8.4550   19.0820  -32.3210 C   0  0  0  0  0  0  0  0  0  0  0  0
   -8.3130   20.4170  -31.9050 C   0  0  0  0  0  0  0  0  0  0  0  0
   -7.0530   21.0640  -31.9670 C   0  0  0  0  0  0  0  0  0  0  0  0
   -6.9090   22.4600  -31.5040 C   0  0  0  0  0  0  0  0  0  0  0  0
   -7.9490   23.2810  -31.2530 N   0  0  0  0  0  0  0  0  0  0  0  0
   -7.4070   24.4030  -30.8880 O   0  0  0  0  0  0  0  0  0  0  0  0
   -6.1010   24.2910  -30.9010 C   0  0  0  0  0  0  0  0  0  0  0  0
   -5.1890   25.3990  -30.5610 C   0  0  0  0  0  0  0  0  0  0  0  0
   -5.6960   26.5290  -30.3380 O   0  0  0  0  0  0  0  0  0  0  0  0
   -3.7580   25.2700  -30.4620 N   0  0  0  0  0  0  0  0  0  0  0  0
   -2.9390   24.3340  -29.6850 C   0  0  0  0  0  0  0  0  0  0  0  0
   -3.4810   24.1360  -28.2580 C   0  0  0  0  0  0  0  0  0  0  0  0
   -2.5800   23.1860  -27.4390 C   0  0  0  0  0  0  0  0  0  0  0  0
   -1.8540   22.1940  -28.2720 N   0  0  0  0  0  0  0  0  0  0  0  0
   -1.5200   21.0020  -27.4760 C   0  0  0  0  0  0  0  0  0  0  0  0
   -2.6170   21.8120  -29.4730 C   0  0  0  0  0  0  0  0  0  0  0  0
   -2.6980   23.0050  -30.4360 C   0  0  0  0  0  0  0  0  0  0  0  0
   -5.7200   23.0640  -31.2980 N   0  0  0  0  0  0  0  0  0  0  0  0
   -5.9310   20.3640  -32.4690 C   0  0  0  0  0  0  0  0  0  0  0  0
   -6.1050   19.0410  -32.8950 C   0  0  0  0  0  0  0  0  0  0  0  0
   -2.8638   20.5122  -32.3747 H   0  0  0  0  0  0  0  0  0  0  0  0
   -1.6945   20.7700  -33.7137 H   0  0  0  0  0  0  0  0  0  0  0  0
   -3.2660   21.6401  -33.7137 H   0  0  0  0  0  0  0  0  0  0  0  0
   -3.5270   16.7840  -35.0740 H   0  0  0  0  0  0  0  0  0  0  0  0
   -3.6170   15.0160  -35.3710 H   0  0  0  0  0  0  0  0  0  0  0  0
   -7.9593   16.3549  -33.3068 H   0  0  0  0  0  0  0  0  0  0  0  0
   -9.4280   18.5719  -32.2665 H   0  0  0  0  0  0  0  0  0  0  0  0
   -9.1885   20.9655  -31.5274 H   0  0  0  0  0  0  0  0  0  0  0  0
   -1.9469   24.7946  -29.5684 H   0  0  0  0  0  0  0  0  0  0  0  0
   -3.5239   25.1123  -27.7530 H   0  0  0  0  0  0  0  0  0  0  0  0
   -4.4831   23.6878  -28.3277 H   0  0  0  0  0  0  0  0  0  0  0  0
   -1.8404   23.7911  -26.8942 H   0  0  0  0  0  0  0  0  0  0  0  0
   -3.2369   22.6208  -26.7615 H   0  0  0  0  0  0  0  0  0  0  0  0
   -1.5881   21.2451  -26.4054 H   0  0  0  0  0  0  0  0  0  0  0  0
   -2.2260   20.1926  -27.7138 H   0  0  0  0  0  0  0  0  0  0  0  0
   -0.4963   20.6773  -27.7138 H   0  0  0  0  0  0  0  0  0  0  0  0
   -2.1141   20.9715  -29.9736 H   0  0  0  0  0  0  0  0  0  0  0  0
   -3.6335   21.5120  -29.1785 H   0  0  0  0  0  0  0  0  0  0  0  0
   -1.7524   23.0775  -30.9933 H   0  0  0  0  0  0  0  0  0  0  0  0
   -3.5463   22.8382  -31.1162 H   0  0  0  0  0  0  0  0  0  0  0  0
   -4.9445   20.8475  -32.5236 H   0  0  0  0  0  0  0  0  0  0  0  0
  1  2  1  0
  2  3  1  0
  3  4  2  0
  3  5  1  0
  5  6  1  0
  6  7  1  0
  7  8  1  0
  7  9  2  0
  6 10  2  0
 10 11  1  0
 11 12  2  0
 12 13  1  0
 13 14  2  0
 14 15  1  0
 15 16  2  0
 16 17  1  0
 17 18  1  0
 18 19  1  0
 19 20  2  0
 19 21  1  0
 21 22  1  0
 22 23  1  0
 23 24  1  0
 24 25  1  0
 25 26  1  0
 25 27  1  0
 27 28  1  0
 18 29  2  0
 14 30  1  0
 30 31  2  0
 31  5  1  0
 31 11  1  0
 29 15  1  0
 28 22  1  0
  1 32  1  0
  1 33  1  0
  1 34  1  0
  8 35  1  0
  8 36  1  0
 10 37  1  0
 12 38  1  0
 13 39  1  0
 22 40  1  0
 23 41  1  0
 23 42  1  0
 24 43  1  0
 24 44  1  0
 26 45  1  0
 26 46  1  0
 26 47  1  0
 27 48  1  0
 27 49  1  0
 28 50  1  0
 28 51  1  0
 30 52  1  0
M  CHG  1  21  -1
M  END
>  <UniqueID>  (37) 
37

>  <SMILES>  (37) 
COC(=O)n1c(C(N)=O)cc2ccc(-c3noc(C(=O)[N-]C4CCN(C)CC4)n3)cc21

>  <Energy>  (37) 
133.26191179478724

>  <Genealogy>  (37) 
COC(=O)n1c(C(N)=O)cc2ccc(-c3noc(C(=O)[N-]C4CCN(C)CC4)n3)cc21 (protonated)
COC(=O)n1c(C(N)=O)cc2ccc(-c3noc(C(=O)[N-]C4CCN(C)CC4)n3)cc21 (3D coordinates assigned)
COC(=O)n1c(C(N)=O)cc2ccc(-c3noc(C(=O)[N-]C4CCN(C)CC4)n3)cc21 (nonaromatic ring conformer: 133.26191179478724 kcal/mol)

>  <smiles>  (37) 
COC(=O)n1c(C(N)=O)cc2ccc(-c3noc(C(=O)NC4CCN(C)CC4)n3)cc21

>  <score_type>  (37) 
oracle

>  <origin>  (37) 
adg

>  <m_score__min__energy>  (37) 
-10.5

>  <m_primary>  (37) 
energy

$$$$
37:0
     RDKit          3D

 51 52  0  0  0  0  0  0  0  0999 V2000
   -0.4560   19.4920  -29.0250 C   0  0  0  0  0  0  0  0  0  0  0  0
   -1.6250   20.3790  -29.4510 C   0  0  0  0  0  0  0  0  0  0  0  0
   -2.6440   20.4690  -28.3790 N   0  0  0  0  0  0  0  0  0  0  0  0
   -2.1290   19.9520  -27.0830 C   0  0  0  0  0  0  0  0  0  0  0  0
   -3.1190   18.9450  -26.5070 C   0  0  0  0  0  0  0  0  0  0  0  0
   -3.1480   21.8560  -28.2590 C   0  0  0  0  0  0  0  0  0  0  0  0
   -2.2440   22.8330  -29.0260 C   0  0  0  0  0  0  0  0  0  0  0  0
   -2.4880   24.2920  -28.6230 C   0  0  0  0  0  0  0  0  0  0  0  0
   -3.1070   25.0400  -29.7150 N   0  0  0  0  0  0  0  0  0  0  0  0
   -4.4540   24.9020  -30.1900 C   0  0  0  0  0  0  0  0  0  0  0  0
   -4.8120   25.5840  -31.1860 O   0  0  0  0  0  0  0  0  0  0  0  0
   -5.4490   23.9670  -29.5560 C   0  0  0  0  0  0  0  0  0  0  0  0
   -5.8970   22.8990  -30.5190 C   0  0  0  0  0  0  0  0  0  0  0  0
   -7.2760   22.6070  -30.6650 C   0  0  0  0  0  0  0  0  0  0  0  0
   -7.7050   21.5770  -31.5180 C   0  0  0  0  0  0  0  0  0  0  0  0
   -6.7370   20.8690  -32.2210 C   0  0  0  0  0  0  0  0  0  0  0  0
   -6.8710   19.7920  -33.0660 C   0  0  0  0  0  0  0  0  0  0  0  0
   -5.5740   19.4570  -33.4490 C   0  0  0  0  0  0  0  0  0  0  0  0
   -5.2490   18.3860  -34.4160 C   0  0  0  0  0  0  0  0  0  0  0  0
   -4.0150   17.6720  -34.3250 N   0  0  0  0  0  0  0  0  0  0  0  0
   -6.0740   18.0720  -35.3140 O   0  0  0  0  0  0  0  0  0  0  0  0
   -4.6720   20.3010  -32.8680 N   0  0  0  0  0  0  0  0  0  0  0  0
   -3.2380   20.2410  -32.9470 C   0  0  0  0  0  0  0  0  0  0  0  0
   -2.5830   21.2150  -33.4020 O   0  0  0  0  0  0  0  0  0  0  0  0
   -2.5600   19.0990  -32.5390 O   0  0  0  0  0  0  0  0  0  0  0  0
   -5.4000   21.1590  -32.1210 C   0  0  0  0  0  0  0  0  0  0  0  0
   -4.9440   22.1750  -31.2720 C   0  0  0  0  0  0  0  0  0  0  0  0
   -0.4058   19.4539  -27.9268 H   0  0  0  0  0  0  0  0  0  0  0  0
   -0.6032   18.4763  -29.4208 H   0  0  0  0  0  0  0  0  0  0  0  0
    0.4826   19.9073  -29.4208 H   0  0  0  0  0  0  0  0  0  0  0  0
   -1.2479   21.3880  -29.6739 H   0  0  0  0  0  0  0  0  0  0  0  0
   -2.0934   19.9359  -30.3422 H   0  0  0  0  0  0  0  0  0  0  0  0
   -1.1582   19.4605  -27.2442 H   0  0  0  0  0  0  0  0  0  0  0  0
   -2.0048   20.7877  -26.3786 H   0  0  0  0  0  0  0  0  0  0  0  0
   -3.0824   18.9822  -25.4082 H   0  0  0  0  0  0  0  0  0  0  0  0
   -4.1348   19.1929  -26.8487 H   0  0  0  0  0  0  0  0  0  0  0  0
   -2.8539   17.9336  -26.8487 H   0  0  0  0  0  0  0  0  0  0  0  0
   -4.1662   21.9067  -28.6721 H   0  0  0  0  0  0  0  0  0  0  0  0
   -3.1515   22.1392  -27.1961 H   0  0  0  0  0  0  0  0  0  0  0  0
   -1.1938   22.5799  -28.8187 H   0  0  0  0  0  0  0  0  0  0  0  0
   -2.4773   22.7367  -30.0966 H   0  0  0  0  0  0  0  0  0  0  0  0
   -3.1533   24.3169  -27.7474 H   0  0  0  0  0  0  0  0  0  0  0  0
   -1.5198   24.7565  -28.3845 H   0  0  0  0  0  0  0  0  0  0  0  0
   -4.9824   23.4876  -28.6829 H   0  0  0  0  0  0  0  0  0  0  0  0
   -6.3306   24.5532  -29.2575 H   0  0  0  0  0  0  0  0  0  0  0  0
   -8.0186   23.1935  -30.1041 H   0  0  0  0  0  0  0  0  0  0  0  0
   -8.7733   21.3381  -31.6264 H   0  0  0  0  0  0  0  0  0  0  0  0
   -7.8049   19.2993  -33.3743 H   0  0  0  0  0  0  0  0  0  0  0  0
   -3.8130   16.8870  -34.9840 H   0  0  0  0  0  0  0  0  0  0  0  0
   -3.2800   17.9460  -33.6360 H   0  0  0  0  0  0  0  0  0  0  0  0
   -3.8711   22.4042  -31.1928 H   0  0  0  0  0  0  0  0  0  0  0  0
  1  2  1  0
  2  3  1  0
  3  4  1  0
  4  5  1  0
  3  6  1  0
  6  7  1  0
  7  8  1  0
  8  9  1  0
  9 10  1  0
 10 11  2  0
 10 12  1  0
 12 13  1  0
 13 14  2  0
 14 15  1  0
 15 16  2  0
 16 17  1  0
 17 18  2  0
 18 19  1  0
 19 20  1  0
 19 21  2  0
 18 22  1  0
 22 23  1  0
 23 24  2  0
 23 25  1  0
 22 26  1  0
 26 27  2  0
 27 13  1  0
 26 16  1  0
  1 28  1  0
  1 29  1  0
  1 30  1  0
  2 31  1  0
  2 32  1  0
  4 33  1  0
  4 34  1  0
  5 35  1  0
  5 36  1  0
  5 37  1  0
  6 38  1  0
  6 39  1  0
  7 40  1  0
  7 41  1  0
  8 42  1  0
  8 43  1  0
 12 44  1  0
 12 45  1  0
 14 46  1  0
 15 47  1  0
 17 48  1  0
 20 49  1  0
 20 50  1  0
 27 51  1  0
M  CHG  2   9  -1  25  -1
M  END
>  <UniqueID>  (38) 
38

>  <SMILES>  (38) 
CCN(CC)CCC[N-]C(=O)Cc1ccc2cc(C(N)=O)n(C(=O)[O-])c2c1

>  <Energy>  (38) 
80.443087843646

>  <Genealogy>  (38) 
CCN(CC)CCC[N-]C(=O)Cc1ccc2cc(C(N)=O)n(C(=O)[O-])c2c1 (protonated)
CCN(CC)CCC[N-]C(=O)Cc1ccc2cc(C(N)=O)n(C(=O)[O-])c2c1 (3D coordinates assigned)
CCN(CC)CCC[N-]C(=O)Cc1ccc2cc(C(N)=O)n(C(=O)[O-])c2c1 (optimized conformer: 80.443087843646 kcal/mol)

>  <smiles>  (38) 
CCN(CC)CCCNC(=O)Cc1ccc2cc(C(N)=O)n(C(=O)O)c2c1

>  <score_type>  (38) 
oracle

>  <origin>  (38) 
adg

>  <m_score__min__energy>  (38) 
-9.1799999999999997

>  <m_primary>  (38) 
energy

$$$$
38:0
     RDKit          3D

 31 32  0  0  0  0  0  0  0  0999 V2000
   -5.5170   26.4910  -30.3370 N   0  0  0  0  0  0  0  0  0  0  0  0
   -6.3560   25.4040  -29.9450 C   0  0  0  0  0  0  0  0  0  0  0  0
   -7.1730   25.5640  -28.9990 O   0  0  0  0  0  0  0  0  0  0  0  0
   -6.3320   24.1180  -30.6720 C   0  0  0  0  0  0  0  0  0  0  0  0
   -7.4830   23.4300  -31.0450 C   0  0  0  0  0  0  0  0  0  0  0  0
   -7.0370   22.3320  -31.7440 C   0  0  0  0  0  0  0  0  0  0  0  0
   -7.7560   21.2980  -32.3330 C   0  0  0  0  0  0  0  0  0  0  0  0
   -7.0370   20.2670  -32.9590 C   0  0  0  0  0  0  0  0  0  0  0  0
   -5.6150   20.2810  -32.9790 C   0  0  0  0  0  0  0  0  0  0  0  0
   -4.8600   19.2260  -33.6030 N   0  0  0  0  0  0  0  0  0  0  0  0
   -5.4790   18.1240  -34.3430 C   0  0  0  0  0  0  0  0  0  0  0  0
   -4.4300   17.1620  -34.9040 C   0  0  0  0  0  0  0  0  0  0  0  0
   -3.1620   17.7610  -34.9010 O   0  0  0  0  0  0  0  0  0  0  0  0
   -4.9250   21.3500  -32.3660 C   0  0  0  0  0  0  0  0  0  0  0  0
   -5.6670   22.3760  -31.7680 C   0  0  0  0  0  0  0  0  0  0  0  0
   -5.2170   23.4680  -31.1090 N   0  0  0  0  0  0  0  0  0  0  0  0
   -3.8460   23.7980  -30.8280 C   0  0  0  0  0  0  0  0  0  0  0  0
   -2.9520   22.9130  -30.8920 O   0  0  0  0  0  0  0  0  0  0  0  0
   -3.4900   25.0960  -30.4830 O   0  0  0  0  0  0  0  0  0  0  0  0
   -4.9560   26.4490  -31.2160 H   0  0  0  0  0  0  0  0  0  0  0  0
   -5.5200   27.3790  -29.7880 H   0  0  0  0  0  0  0  0  0  0  0  0
   -8.5256   23.7051  -30.8276 H   0  0  0  0  0  0  0  0  0  0  0  0
   -8.8557   21.2879  -32.3093 H   0  0  0  0  0  0  0  0  0  0  0  0
   -7.5796   19.4394  -33.4392 H   0  0  0  0  0  0  0  0  0  0  0  0
   -3.8180   19.2510  -33.5100 H   0  0  0  0  0  0  0  0  0  0  0  0
   -6.1457   17.5697  -33.6661 H   0  0  0  0  0  0  0  0  0  0  0  0
   -6.0413   18.5498  -35.1871 H   0  0  0  0  0  0  0  0  0  0  0  0
   -4.4029   16.2542  -34.2834 H   0  0  0  0  0  0  0  0  0  0  0  0
   -4.6998   16.9061  -35.9392 H   0  0  0  0  0  0  0  0  0  0  0  0
   -2.6590   17.3780  -35.6670 H   0  0  0  0  0  0  0  0  0  0  0  0
   -3.8253   21.3761  -32.3585 H   0  0  0  0  0  0  0  0  0  0  0  0
  1  2  1  0
  2  3  2  0
  2  4  1  0
  4  5  2  0
  5  6  1  0
  6  7  2  0
  7  8  1  0
  8  9  2  0
  9 10  1  0
 10 11  1  0
 11 12  1  0
 12 13  1  0
  9 14  1  0
 14 15  2  0
 15 16  1  0
 16 17  1  0
 17 18  2  0
 17 19  1  0
 16  4  1  0
 15  6  1  0
  1 20  1  0
  1 21  1  0
  5 22  1  0
  7 23  1  0
  8 24  1  0
 10 25  1  0
 11 26  1  0
 11 27  1  0
 12 28  1  0
 12 29  1  0
 13 30  1  0
 14 31  1  0
M  CHG  1  19  -1
M  END
>  <UniqueID>  (39) 
39

>  <SMILES>  (39) 
NC(=O)c1cc2ccc(NCCO)cc2n1C(=O)[O-]

>  <Energy>  (39) 
69.03865820041968

>  <Genealogy>  (39) 
NC(=O)c1cc2ccc(NCCO)cc2n1C(=O)[O-] (protonated)
NC(=O)c1cc2ccc(NCCO)cc2n1C(=O)[O-] (3D coordinates assigned)
NC(=O)c1cc2ccc(NCCO)cc2n1C(=O)[O-] (optimized conformer: 69.03865820041968 kcal/mol)

>  <smiles>  (39) 
NC(=O)c1cc2ccc(NCCO)cc2n1C(=O)O

>  <score_type>  (39) 
oracle

>  <origin>  (39) 
adg

>  <m_score__min__energy>  (39) 
-7.9199999999999999

>  <m_primary>  (39) 
energy

$$$$
39:0
     RDKit          3D

 31 32  0  0  0  0  0  0  0  0999 V2000
   -3.8730   25.3060  -30.6370 N   0  0  0  0  0  0  0  0  0  0  0  0
   -5.2790   25.1660  -30.4490 C   0  0  0  0  0  0  0  0  0  0  0  0
   -5.9250   26.1010  -29.9030 O   0  0  0  0  0  0  0  0  0  0  0  0
   -5.9810   23.9300  -30.8540 C   0  0  0  0  0  0  0  0  0  0  0  0
   -7.3500   23.8620  -31.1100 C   0  0  0  0  0  0  0  0  0  0  0  0
   -7.6030   22.5390  -31.3960 C   0  0  0  0  0  0  0  0  0  0  0  0
   -8.7900   21.9060  -31.7500 C   0  0  0  0  0  0  0  0  0  0  0  0
   -8.7480   20.5290  -32.0220 C   0  0  0  0  0  0  0  0  0  0  0  0
   -7.5290   19.8050  -31.9260 C   0  0  0  0  0  0  0  0  0  0  0  0
   -7.4850   18.3410  -32.2790 C   0  0  0  0  0  0  0  0  0  0  0  0
   -8.7440   17.7950  -32.1130 F   0  0  0  0  0  0  0  0  0  0  0  0
   -7.0880   18.1690  -33.5940 F   0  0  0  0  0  0  0  0  0  0  0  0
   -6.5900   17.6690  -31.4650 F   0  0  0  0  0  0  0  0  0  0  0  0
   -6.3390   20.4910  -31.5850 C   0  0  0  0  0  0  0  0  0  0  0  0
   -6.4170   21.8590  -31.3090 C   0  0  0  0  0  0  0  0  0  0  0  0
   -5.4140   22.6990  -30.9820 N   0  0  0  0  0  0  0  0  0  0  0  0
   -4.0280   22.3490  -30.8840 C   0  0  0  0  0  0  0  0  0  0  0  0
   -3.2670   22.5270  -31.8730 O   0  0  0  0  0  0  0  0  0  0  0  0
   -3.4540   21.8980  -29.5770 C   0  0  0  0  0  0  0  0  0  0  0  0
   -2.1260   22.5500  -29.3570 C   0  0  0  0  0  0  0  0  0  0  0  0
   -1.7890   23.7530  -30.0490 N   0  0  0  0  0  0  0  0  0  0  0  0
   -1.3180   22.0610  -28.5240 O   0  0  0  0  0  0  0  0  0  0  0  0
   -3.4870   26.0460  -31.2640 H   0  0  0  0  0  0  0  0  0  0  0  0
   -8.0742   24.6896  -31.0881 H   0  0  0  0  0  0  0  0  0  0  0  0
   -9.7337   22.4675  -31.8149 H   0  0  0  0  0  0  0  0  0  0  0  0
   -9.6700   20.0043  -32.3129 H   0  0  0  0  0  0  0  0  0  0  0  0
   -5.3764   19.9607  -31.5383 H   0  0  0  0  0  0  0  0  0  0  0  0
   -4.1377   22.1771  -28.7618 H   0  0  0  0  0  0  0  0  0  0  0  0
   -3.3249   20.8057  -29.5937 H   0  0  0  0  0  0  0  0  0  0  0  0
   -0.8700   24.2190  -29.8800 H   0  0  0  0  0  0  0  0  0  0  0  0
   -2.4600   24.1840  -30.7230 H   0  0  0  0  0  0  0  0  0  0  0  0
  1  2  1  0
  2  3  2  0
  2  4  1  0
  4  5  2  0
  5  6  1  0
  6  7  2  0
  7  8  1  0
  8  9  2  0
  9 10  1  0
 10 11  1  0
 10 12  1  0
 10 13  1  0
  9 14  1  0
 14 15  2  0
 15 16  1  0
 16 17  1  0
 17 18  2  0
 17 19  1  0
 19 20  1  0
 20 21  1  0
 20 22  2  0
 16  4  1  0
 15  6  1  0
  1 23  1  0
  5 24  1  0
  7 25  1  0
  8 26  1  0
 14 27  1  0
 19 28  1  0
 19 29  1  0
 21 30  1  0
 21 31  1  0
M  CHG  1   1  -1
M  END
>  <UniqueID>  (40) 
40

>  <SMILES>  (40) 
[NH-]C(=O)c1cc2ccc(C(F)(F)F)cc2n1C(=O)CC(N)=O

>  <Energy>  (40) 
68.10465373397548

>  <Genealogy>  (40) 
[NH-]C(=O)c1cc2ccc(C(F)(F)F)cc2n1C(=O)CC(N)=O (protonated)
[NH-]C(=O)c1cc2ccc(C(F)(F)F)cc2n1C(=O)CC(N)=O (3D coordinates assigned)
[NH-]C(=O)c1cc2ccc(C(F)(F)F)cc2n1C(=O)CC(N)=O (optimized conformer: 68.10465373397548 kcal/mol)

>  <smiles>  (40) 
NC(=O)CC(=O)n1c(C(N)=O)cc2ccc(C(F)(F)F)cc21

>  <score_type>  (40) 
oracle

>  <origin>  (40) 
adg

>  <m_score__min__energy>  (40) 
-10

>  <m_primary>  (40) 
energy

$$$$
40:0
     RDKit          3D

 60 61  0  0  0  0  0  0  0  0999 V2000
   -2.9640   20.8520  -29.3670 C   0  0  0  0  0  0  0  0  0  0  0  0
   -2.4530   22.2630  -29.0450 C   0  0  0  0  0  0  0  0  0  0  0  0
   -1.0430   22.4310  -29.6420 C   0  0  0  0  0  0  0  0  0  0  0  0
   -2.4220   22.4400  -27.5150 C   0  0  0  0  0  0  0  0  0  0  0  0
   -3.3700   23.1900  -29.6450 O   0  0  0  0  0  0  0  0  0  0  0  0
   -3.1760   24.5690  -29.8020 C   0  0  0  0  0  0  0  0  0  0  0  0
   -2.4070   25.2120  -29.0380 O   0  0  0  0  0  0  0  0  0  0  0  0
   -3.8650   25.2620  -30.8400 N   0  0  0  0  0  0  0  0  0  0  0  0
   -5.3160   25.3930  -30.8500 C   0  0  0  0  0  0  0  0  0  0  0  0
   -5.9420   24.3010  -29.9830 C   0  0  0  0  0  0  0  0  0  0  0  0
   -6.3240   23.1140  -30.8270 C   0  0  0  0  0  0  0  0  0  0  0  0
   -7.6730   22.6880  -30.8910 C   0  0  0  0  0  0  0  0  0  0  0  0
   -8.0360   21.5710  -31.6630 C   0  0  0  0  0  0  0  0  0  0  0  0
   -7.0280   20.8930  -32.3420 C   0  0  0  0  0  0  0  0  0  0  0  0
   -7.1060   19.8050  -33.1810 C   0  0  0  0  0  0  0  0  0  0  0  0
   -5.7970   19.5500  -33.5740 C   0  0  0  0  0  0  0  0  0  0  0  0
   -5.4180   18.4170  -34.4410 C   0  0  0  0  0  0  0  0  0  0  0  0
   -4.0960   18.3020  -34.9710 N   0  0  0  0  0  0  0  0  0  0  0  0
   -6.2600   17.5090  -34.6770 O   0  0  0  0  0  0  0  0  0  0  0  0
   -4.9390   20.4490  -33.0130 N   0  0  0  0  0  0  0  0  0  0  0  0
   -3.5280   20.5740  -33.2590 C   0  0  0  0  0  0  0  0  0  0  0  0
   -3.0590   21.6490  -33.7210 O   0  0  0  0  0  0  0  0  0  0  0  0
   -2.6820   19.4940  -32.9960 O   0  0  0  0  0  0  0  0  0  0  0  0
   -1.5530   19.5790  -32.1310 C   0  0  1  0  0  0  0  0  0  0  0  0
   -1.0130   18.3120  -31.9740 F   0  0  0  0  0  0  0  0  0  0  0  0
   -0.4920   20.5220  -32.7390 C   0  0  2  0  0  0  0  0  0  0  0  0
   -0.9080   21.8600  -32.6080 O   0  0  0  0  0  0  0  0  0  0  0  0
   -0.1900   20.2130  -34.2350 C   0  0  1  0  0  0  0  0  0  0  0  0
   -1.3840   19.9650  -34.9360 O   0  0  0  0  0  0  0  0  0  0  0  0
    0.6250   21.3060  -34.9540 C   0  0  0  0  0  0  0  0  0  0  0  0
   -0.1330   22.4770  -35.1230 O   0  0  0  0  0  0  0  0  0  0  0  0
   -5.7110   21.2680  -32.2630 C   0  0  0  0  0  0  0  0  0  0  0  0
   -5.3270   22.3920  -31.5200 C   0  0  0  0  0  0  0  0  0  0  0  0
   -3.1602   20.3103  -28.4299 H   0  0  0  0  0  0  0  0  0  0  0  0
   -3.8935   20.9230  -29.9509 H   0  0  0  0  0  0  0  0  0  0  0  0
   -2.2046   20.3114  -29.9509 H   0  0  0  0  0  0  0  0  0  0  0  0
   -0.3082   22.5185  -28.8281 H   0  0  0  0  0  0  0  0  0  0  0  0
   -0.8007   21.5554  -30.2621 H   0  0  0  0  0  0  0  0  0  0  0  0
   -1.0132   23.3390  -30.2621 H   0  0  0  0  0  0  0  0  0  0  0  0
   -2.5923   21.4676  -27.0299 H   0  0  0  0  0  0  0  0  0  0  0  0
   -1.4411   22.8345  -27.2113 H   0  0  0  0  0  0  0  0  0  0  0  0
   -3.2105   23.1444  -27.2113 H   0  0  0  0  0  0  0  0  0  0  0  0
   -5.5960   26.3797  -30.4526 H   0  0  0  0  0  0  0  0  0  0  0  0
   -5.6821   25.2907  -31.8822 H   0  0  0  0  0  0  0  0  0  0  0  0
   -5.2163   23.9841  -29.2195 H   0  0  0  0  0  0  0  0  0  0  0  0
   -6.8463   24.7023  -29.5022 H   0  0  0  0  0  0  0  0  0  0  0  0
   -8.4445   23.2368  -30.3309 H   0  0  0  0  0  0  0  0  0  0  0  0
   -9.0839   21.2430  -31.7285 H   0  0  0  0  0  0  0  0  0  0  0  0
   -8.0110   19.2545  -33.4775 H   0  0  0  0  0  0  0  0  0  0  0  0
   -3.3410   18.9550  -34.6730 H   0  0  0  0  0  0  0  0  0  0  0  0
   -3.8560   17.5170  -35.6160 H   0  0  0  0  0  0  0  0  0  0  0  0
   -1.8656   19.9782  -31.1548 H   0  0  0  0  0  0  0  0  0  0  0  0
    0.4399   20.3546  -32.1790 H   0  0  0  0  0  0  0  0  0  0  0  0
   -1.4340   22.0920  -33.4190 H   0  0  0  0  0  0  0  0  0  0  0  0
    0.4426   19.3131  -34.2300 H   0  0  0  0  0  0  0  0  0  0  0  0
   -1.9710   20.7580  -34.8180 H   0  0  0  0  0  0  0  0  0  0  0  0
    1.5178   21.5398  -34.3555 H   0  0  0  0  0  0  0  0  0  0  0  0
    0.9112   20.9301  -35.9474 H   0  0  0  0  0  0  0  0  0  0  0  0
   -1.0480   22.2840  -34.7910 H   0  0  0  0  0  0  0  0  0  0  0  0
   -4.2734   22.7051  -31.4773 H   0  0  0  0  0  0  0  0  0  0  0  0
  1  2  1  0
  2  3  1  0
  2  4  1  0
  2  5  1  0
  5  6  1  0
  6  7  2  0
  6  8  1  0
  8  9  1  0
  9 10  1  0
 10 11  1  0
 11 12  2  0
 12 13  1  0
 13 14  2  0
 14 15  1  0
 15 16  2  0
 16 17  1  0
 17 18  1  0
 17 19  2  0
 16 20  1  0
 20 21  1  0
 21 22  2  0
 21 23  1  0
 23 24  1  0
 24 25  1  0
 24 26  1  0
 26 27  1  0
 26 28  1  0
 28 29  1  0
 28 30  1  0
 30 31  1  0
 20 32  1  0
 32 33  2  0
 33 11  1  0
 32 14  1  0
  1 34  1  0
  1 35  1  0
  1 36  1  0
  3 37  1  0
  3 38  1  0
  3 39  1  0
  4 40  1  0
  4 41  1  0
  4 42  1  0
  9 43  1  0
  9 44  1  0
 10 45  1  0
 10 46  1  0
 12 47  1  0
 13 48  1  0
 15 49  1  0
 18 50  1  0
 18 51  1  0
 24 52  1  1
 26 53  1  1
 27 54  1  0
 28 55  1  1
 29 56  1  0
 30 57  1  0
 30 58  1  0
 31 59  1  0
 33 60  1  0
M  CHG  1   8  -1
M  END
>  <UniqueID>  (41) 
41

>  <SMILES>  (41) 
CC(C)(C)OC(=O)[N-]CCc1ccc2cc(C(N)=O)n(C(=O)O[C@@H](F)[C@H](O)C(O)CO)c2c1

>  <Energy>  (41) 
85.1105384561431

>  <Genealogy>  (41) 
CC(C)(C)OC(=O)[N-]CCc1ccc2cc(C(N)=O)n(C(=O)OC(F)C(O)C(O)CO)c2c1 (protonated)
CC(C)(C)OC(=O)[N-]CCc1ccc2cc(C(N)=O)n(C(=O)O[C@@H](F)[C@H](O)C(O)CO)c2c1 (chirality)
CC(C)(C)OC(=O)[N-]CCc1ccc2cc(C(N)=O)n(C(=O)O[C@@H](F)[C@H](O)C(O)CO)c2c1 (3D coordinates assigned)
CC(C)(C)OC(=O)[N-]CCc1ccc2cc(C(N)=O)n(C(=O)O[C@@H](F)[C@H](O)C(O)CO)c2c1 (optimized conformer: 85.1105384561431 kcal/mol)

>  <smiles>  (41) 
CC(C)(C)OC(=O)NCCc1ccc2cc(C(N)=O)n(C(=O)OC(F)C(O)C(O)CO)c2c1

>  <score_type>  (41) 
oracle

>  <origin>  (41) 
adg

>  <m_score__min__energy>  (41) 
-9.8200000000000003

>  <m_primary>  (41) 
energy

$$$$
41:0
     RDKit          3D

 34 37  0  0  0  0  0  0  0  0999 V2000
   -1.5030   25.6730  -29.1210 N   0  0  0  0  0  0  0  0  0  0  0  0
   -1.0580   24.3310  -29.2920 C   0  0  0  0  0  0  0  0  0  0  0  0
    0.1160   24.0230  -28.9550 O   0  0  0  0  0  0  0  0  0  0  0  0
   -1.9330   23.3110  -29.9080 C   0  0  0  0  0  0  0  0  0  0  0  0
   -1.4820   22.0510  -30.2960 C   0  0  0  0  0  0  0  0  0  0  0  0
   -2.5610   21.4480  -30.8990 C   0  0  0  0  0  0  0  0  0  0  0  0
   -2.6780   20.1820  -31.4600 C   0  0  0  0  0  0  0  0  0  0  0  0
   -3.9240   19.8040  -31.9870 C   0  0  0  0  0  0  0  0  0  0  0  0
   -5.0360   20.6940  -31.9390 C   0  0  0  0  0  0  0  0  0  0  0  0
   -6.4120   20.3450  -32.4770 C   0  0  1  0  0  0  0  0  0  0  0  0
   -7.1990   19.2830  -31.7100 C   0  0  2  0  0  0  0  0  0  0  0  0
   -8.3060   18.5850  -32.4800 C   0  0  0  0  0  0  0  0  0  0  0  0
   -9.2170   19.5930  -33.0260 N   0  0  0  0  0  0  0  0  0  0  0  0
   -8.9420   20.8480  -32.3230 C   0  0  0  0  0  0  0  0  0  0  0  0
   -7.6070   20.7330  -31.6090 C   0  0  2  0  0  0  0  0  0  0  0  0
   -4.8690   21.9720  -31.3570 C   0  0  0  0  0  0  0  0  0  0  0  0
   -3.6110   22.3260  -30.8580 C   0  0  0  0  0  0  0  0  0  0  0  0
   -3.2430   23.4760  -30.2480 N   0  0  0  0  0  0  0  0  0  0  0  0
   -4.0980   24.5920  -29.9510 C   0  0  0  0  0  0  0  0  0  0  0  0
   -3.9700   25.6760  -30.5800 O   0  0  0  0  0  0  0  0  0  0  0  0
   -5.0560   24.4940  -28.9500 O   0  0  0  0  0  0  0  0  0  0  0  0
   -2.5130   25.8900  -28.9720 H   0  0  0  0  0  0  0  0  0  0  0  0
   -0.4768   21.6285  -30.1509 H   0  0  0  0  0  0  0  0  0  0  0  0
   -1.8192   19.4953  -31.4905 H   0  0  0  0  0  0  0  0  0  0  0  0
   -4.0428   18.8096  -32.4420 H   0  0  0  0  0  0  0  0  0  0  0  0
   -6.1237   20.5005  -33.5271 H   0  0  0  0  0  0  0  0  0  0  0  0
   -6.8655   18.4596  -31.0613 H   0  0  0  0  0  0  0  0  0  0  0  0
   -7.8699   17.9984  -33.3020 H   0  0  0  0  0  0  0  0  0  0  0  0
   -8.8577   17.9111  -31.8080 H   0  0  0  0  0  0  0  0  0  0  0  0
   -8.9840   19.7290  -34.0380 H   0  0  0  0  0  0  0  0  0  0  0  0
   -8.9028   21.6752  -33.0470 H   0  0  0  0  0  0  0  0  0  0  0  0
   -9.7388   21.0460  -31.5910 H   0  0  0  0  0  0  0  0  0  0  0  0
   -7.7265   21.5176  -30.8473 H   0  0  0  0  0  0  0  0  0  0  0  0
   -5.7130   22.6750  -31.2978 H   0  0  0  0  0  0  0  0  0  0  0  0
  1  2  1  0
  2  3  2  0
  2  4  1  0
  4  5  2  0
  5  6  1  0
  6  7  2  0
  7  8  1  0
  8  9  2  0
  9 10  1  0
 10 11  1  0
 11 12  1  0
 12 13  1  0
 13 14  1  0
 14 15  1  0
  9 16  1  0
 16 17  2  0
 17 18  1  0
 18 19  1  0
 19 20  2  0
 19 21  1  0
 18  4  1  0
 17  6  1  0
 15 10  1  0
 15 11  1  0
  1 22  1  0
  5 23  1  0
  7 24  1  0
  8 25  1  0
 10 26  1  6
 11 27  1  1
 12 28  1  0
 12 29  1  0
 13 30  1  0
 14 31  1  0
 14 32  1  0
 15 33  1  1
 16 34  1  0
M  CHG  2   1  -1  21  -1
M  END
>  <UniqueID>  (42) 
42

>  <SMILES>  (42) 
[NH-]C(=O)c1cc2ccc(C3[C@H]4CNC[C@@H]34)cc2n1C(=O)[O-]

>  <Energy>  (42) 
347.15594201971334

>  <Genealogy>  (42) 
[NH-]C(=O)c1cc2ccc(C3C4CNCC43)cc2n1C(=O)[O-] (protonated)
[NH-]C(=O)c1cc2ccc(C3[C@H]4CNC[C@@H]34)cc2n1C(=O)[O-] (chirality)
[NH-]C(=O)c1cc2ccc(C3[C@H]4CNC[C@@H]34)cc2n1C(=O)[O-] (3D coordinates assigned)
[NH-]C(=O)c1cc2ccc(C3[C@H]4CNC[C@@H]34)cc2n1C(=O)[O-] (nonaromatic ring conformer: 347.15594201971334 kcal/mol)

>  <smiles>  (42) 
NC(=O)c1cc2ccc(C3C4CNCC43)cc2n1C(=O)O

>  <score_type>  (42) 
oracle

>  <origin>  (42) 
adg

>  <m_score__min__energy>  (42) 
-12.199999999999999

>  <m_primary>  (42) 
energy

$$$$
42:0
     RDKit          3D

 38 40  0  0  0  0  0  0  0  0999 V2000
   -6.5000   25.1110  -29.7480 C   0  0  0  0  0  0  0  0  0  0  0  0
   -5.5190   24.0660  -30.0010 N   0  0  0  0  0  0  0  0  0  0  0  0
   -4.1880   24.3450  -30.4460 C   0  0  0  0  0  0  0  0  0  0  0  0
   -3.8580   25.5260  -30.7430 O   0  0  0  0  0  0  0  0  0  0  0  0
   -3.2260   23.2830  -30.5430 N   0  0  0  0  0  0  0  0  0  0  0  0
   -1.9600   23.2610  -30.0390 C   0  0  0  0  0  0  0  0  0  0  0  0
   -1.3720   24.2670  -29.1330 C   0  0  0  0  0  0  0  0  0  0  0  0
   -2.1700   25.3040  -28.5610 N   0  0  0  0  0  0  0  0  0  0  0  0
   -0.1570   24.1770  -28.8160 O   0  0  0  0  0  0  0  0  0  0  0  0
   -1.2860   22.1140  -30.4500 C   0  0  0  0  0  0  0  0  0  0  0  0
   -2.1910   21.4160  -31.2160 C   0  0  0  0  0  0  0  0  0  0  0  0
   -2.0460   20.2090  -31.8930 C   0  0  0  0  0  0  0  0  0  0  0  0
   -3.1360   19.7380  -32.6420 C   0  0  0  0  0  0  0  0  0  0  0  0
   -4.3450   20.4760  -32.7030 C   0  0  0  0  0  0  0  0  0  0  0  0
   -5.4950   19.9710  -33.5350 C   0  0  0  0  0  0  0  0  0  0  0  0
   -6.7390   19.9800  -32.7630 N   0  0  0  0  0  0  0  0  0  0  0  0
   -7.4730   21.0730  -32.6110 N   0  0  0  0  0  0  0  0  0  0  0  0
   -8.5750   20.7440  -31.9100 C   0  0  0  0  0  0  0  0  0  0  0  0
   -8.5510   19.3960  -31.6090 C   0  0  0  0  0  0  0  0  0  0  0  0
   -7.3730   18.9430  -32.1660 C   0  0  0  0  0  0  0  0  0  0  0  0
   -6.9170   17.5820  -32.1180 N   0  0  0  0  0  0  0  0  0  0  0  0
   -6.2800   17.1440  -31.1400 O   0  0  0  0  0  0  0  0  0  0  0  0
   -7.2430   16.7180  -33.1390 O   0  0  0  0  0  0  0  0  0  0  0  0
   -4.4470   21.7080  -32.0180 C   0  0  0  0  0  0  0  0  0  0  0  0
   -3.3540   22.1420  -31.2590 C   0  0  0  0  0  0  0  0  0  0  0  0
   -6.6237   25.2428  -28.6630 H   0  0  0  0  0  0  0  0  0  0  0  0
   -6.1540   26.0547  -30.1949 H   0  0  0  0  0  0  0  0  0  0  0  0
   -7.4637   24.8253  -30.1949 H   0  0  0  0  0  0  0  0  0  0  0  0
   -1.7290   26.0300  -27.9530 H   0  0  0  0  0  0  0  0  0  0  0  0
   -3.2080   25.3080  -28.6720 H   0  0  0  0  0  0  0  0  0  0  0  0
   -0.2509   21.8271  -30.2129 H   0  0  0  0  0  0  0  0  0  0  0  0
   -1.1054   19.6408  -31.8428 H   0  0  0  0  0  0  0  0  0  0  0  0
   -3.0511   18.7864  -33.1872 H   0  0  0  0  0  0  0  0  0  0  0  0
   -5.6133   20.6177  -34.4169 H   0  0  0  0  0  0  0  0  0  0  0  0
   -5.2794   18.9375  -33.8439 H   0  0  0  0  0  0  0  0  0  0  0  0
   -9.3735   21.4431  -31.6208 H   0  0  0  0  0  0  0  0  0  0  0  0
   -9.3010   18.8155  -31.0517 H   0  0  0  0  0  0  0  0  0  0  0  0
   -5.3643   22.3119  -32.0799 H   0  0  0  0  0  0  0  0  0  0  0  0
  1  2  1  0
  2  3  1  0
  3  4  2  0
  3  5  1  0
  5  6  1  0
  6  7  1  0
  7  8  1  0
  7  9  2  0
  6 10  2  0
 10 11  1  0
 11 12  2  0
 12 13  1  0
 13 14  2  0
 14 15  1  0
 15 16  1  0
 16 17  1  0
 17 18  2  0
 18 19  1  0
 19 20  2  0
 20 21  1  0
 21 22  2  0
 21 23  1  0
 14 24  1  0
 24 25  2  0
 25  5  1  0
 25 11  1  0
 20 16  1  0
  1 26  1  0
  1 27  1  0
  1 28  1  0
  8 29  1  0
  8 30  1  0
 10 31  1  0
 12 32  1  0
 13 33  1  0
 15 34  1  0
 15 35  1  0
 18 36  1  0
 19 37  1  0
 24 38  1  0
M  CHG  3   2  -1  21   1  23  -1
M  END
>  <UniqueID>  (43) 
43

>  <SMILES>  (43) 
C[N-]C(=O)n1c(C(N)=O)cc2ccc(Cn3nccc3[N+](=O)[O-])cc21

>  <Energy>  (43) 
108.7267072764336

>  <Genealogy>  (43) 
C[N-]C(=O)n1c(C(N)=O)cc2ccc(Cn3nccc3[N+](=O)[O-])cc21 (protonated)
C[N-]C(=O)n1c(C(N)=O)cc2ccc(Cn3nccc3[N+](=O)[O-])cc21 (3D coordinates assigned)
C[N-]C(=O)n1c(C(N)=O)cc2ccc(Cn3nccc3[N+](=O)[O-])cc21 (optimized conformer: 108.7267072764336 kcal/mol)

>  <smiles>  (43) 
CNC(=O)n1c(C(N)=O)cc2ccc(Cn3nccc3[N+](=O)[O-])cc21

>  <score_type>  (43) 
oracle

>  <origin>  (43) 
adg

>  <m_score__min__energy>  (43) 
-9.3000000000000007

>  <m_primary>  (43) 
energy

$$$$
43:0
     RDKit          3D

 35 36  0  0  0  0  0  0  0  0999 V2000
   -3.0860   23.0440  -27.9760 C   0  0  0  0  0  0  0  0  0  0  0  0
   -3.6810   23.4950  -29.3160 C   0  0  1  0  0  0  0  0  0  0  0  0
   -3.1760   24.8540  -29.7180 C   0  0  0  0  0  0  0  0  0  0  0  0
   -3.8630   25.5730  -30.4900 O   0  0  0  0  0  0  0  0  0  0  0  0
   -1.9330   25.3070  -29.2900 O   0  0  0  0  0  0  0  0  0  0  0  0
   -3.4040   22.4790  -30.4060 C   0  0  0  0  0  0  0  0  0  0  0  0
   -2.0770   22.2330  -30.8520 C   0  0  0  0  0  0  0  0  0  0  0  0
   -1.8230   21.2990  -31.8680 C   0  0  0  0  0  0  0  0  0  0  0  0
   -2.9040   20.6160  -32.4140 C   0  0  0  0  0  0  0  0  0  0  0  0
   -2.9410   19.6890  -33.4290 C   0  0  0  0  0  0  0  0  0  0  0  0
   -4.2850   19.3530  -33.5700 C   0  0  0  0  0  0  0  0  0  0  0  0
   -4.7710   18.3310  -34.5180 C   0  0  0  0  0  0  0  0  0  0  0  0
   -6.1350   18.3040  -34.9430 N   0  0  0  0  0  0  0  0  0  0  0  0
   -3.9830   17.4340  -34.9200 O   0  0  0  0  0  0  0  0  0  0  0  0
   -5.0520   20.0530  -32.6880 N   0  0  0  0  0  0  0  0  0  0  0  0
   -6.4860   20.0690  -32.5960 C   0  0  0  0  0  0  0  0  0  0  0  0
   -7.1650   20.6790  -33.4690 O   0  0  0  0  0  0  0  0  0  0  0  0
   -7.1250   19.4110  -31.5410 O   0  0  0  0  0  0  0  0  0  0  0  0
   -8.2220   18.5210  -31.7310 C   0  0  0  0  0  0  0  0  0  0  0  0
   -8.3620   18.2080  -33.0890 O   0  0  0  0  0  0  0  0  0  0  0  0
   -4.1900   20.8230  -31.9840 C   0  0  0  0  0  0  0  0  0  0  0  0
   -4.4760   21.7630  -30.9880 C   0  0  0  0  0  0  0  0  0  0  0  0
   -3.6658   23.4835  -27.1509 H   0  0  0  0  0  0  0  0  0  0  0  0
   -3.1253   21.9468  -27.9081 H   0  0  0  0  0  0  0  0  0  0  0  0
   -2.0402   23.3783  -27.9081 H   0  0  0  0  0  0  0  0  0  0  0  0
   -4.7701   23.5684  -29.1804 H   0  0  0  0  0  0  0  0  0  0  0  0
   -1.2396   22.7810  -30.3955 H   0  0  0  0  0  0  0  0  0  0  0  0
   -0.7984   21.1126  -32.2222 H   0  0  0  0  0  0  0  0  0  0  0  0
   -2.0907   19.2967  -34.0062 H   0  0  0  0  0  0  0  0  0  0  0  0
   -6.4510   17.6000  -35.6450 H   0  0  0  0  0  0  0  0  0  0  0  0
   -6.8510   18.9230  -34.5000 H   0  0  0  0  0  0  0  0  0  0  0  0
   -8.0428   17.5969  -31.1618 H   0  0  0  0  0  0  0  0  0  0  0  0
   -9.1435   19.0071  -31.3781 H   0  0  0  0  0  0  0  0  0  0  0  0
   -8.5900   19.0570  -33.5480 H   0  0  0  0  0  0  0  0  0  0  0  0
   -5.5121   21.9414  -30.6645 H   0  0  0  0  0  0  0  0  0  0  0  0
  1  2  1  0
  2  3  1  0
  3  4  2  0
  3  5  1  0
  2  6  1  0
  6  7  2  0
  7  8  1  0
  8  9  2  0
  9 10  1  0
 10 11  2  0
 11 12  1  0
 12 13  1  0
 12 14  2  0
 11 15  1  0
 15 16  1  0
 16 17  2  0
 16 18  1  0
 18 19  1  0
 19 20  1  0
 15 21  1  0
 21 22  2  0
 22  6  1  0
 21  9  1  0
  1 23  1  0
  1 24  1  0
  1 25  1  0
  2 26  1  1
  7 27  1  0
  8 28  1  0
 10 29  1  0
 13 30  1  0
 13 31  1  0
 19 32  1  0
 19 33  1  0
 20 34  1  0
 22 35  1  0
M  CHG  1   5  -1
M  END
>  <UniqueID>  (44) 
44

>  <SMILES>  (44) 
C[C@@H](C(=O)[O-])c1ccc2cc(C(N)=O)n(C(=O)OCO)c2c1

>  <Energy>  (44) 
71.33200587612328

>  <Genealogy>  (44) 
CC(C(=O)[O-])c1ccc2cc(C(N)=O)n(C(=O)OCO)c2c1 (protonated)
C[C@@H](C(=O)[O-])c1ccc2cc(C(N)=O)n(C(=O)OCO)c2c1 (chirality)
C[C@@H](C(=O)[O-])c1ccc2cc(C(N)=O)n(C(=O)OCO)c2c1 (3D coordinates assigned)
C[C@@H](C(=O)[O-])c1ccc2cc(C(N)=O)n(C(=O)OCO)c2c1 (optimized conformer: 71.33200587612328 kcal/mol)

>  <smiles>  (44) 
CC(C(=O)O)c1ccc2cc(C(N)=O)n(C(=O)OCO)c2c1

>  <score_type>  (44) 
oracle

>  <origin>  (44) 
adg

>  <m_score__min__energy>  (44) 
-9.3599999999999994

>  <m_primary>  (44) 
energy

$$$$
44:0
     RDKit          3D

 43 45  0  0  0  0  0  0  0  0999 V2000
   -3.2400   14.7400  -35.5550 C   0  0  0  0  0  0  0  0  0  0  0  0
   -4.5300   14.9260  -34.8110 C   0  0  0  0  0  0  0  0  0  0  0  0
   -5.2860   13.9260  -34.6600 O   0  0  0  0  0  0  0  0  0  0  0  0
   -4.9270   16.2110  -34.2760 N   0  0  0  0  0  0  0  0  0  0  0  0
   -6.1120   16.3520  -33.4140 C   0  0  0  0  0  0  0  0  0  0  0  0
   -5.8390   17.3320  -32.2640 C   0  0  0  0  0  0  0  0  0  0  0  0
   -5.1340   18.6460  -32.7130 C   0  0  2  0  0  0  0  0  0  0  0  0
   -5.8560   19.8960  -32.2350 C   0  0  0  0  0  0  0  0  0  0  0  0
   -7.2670   20.0210  -32.3660 C   0  0  0  0  0  0  0  0  0  0  0  0
   -7.9260   21.1960  -31.9640 C   0  0  0  0  0  0  0  0  0  0  0  0
   -7.1570   22.2300  -31.4410 C   0  0  0  0  0  0  0  0  0  0  0  0
   -7.5340   23.4810  -31.0100 C   0  0  0  0  0  0  0  0  0  0  0  0
   -6.3520   24.1080  -30.6120 C   0  0  0  0  0  0  0  0  0  0  0  0
   -6.2980   25.4510  -29.9910 C   0  0  0  0  0  0  0  0  0  0  0  0
   -5.3670   26.4310  -30.4540 N   0  0  0  0  0  0  0  0  0  0  0  0
   -7.0990   25.7540  -29.0660 O   0  0  0  0  0  0  0  0  0  0  0  0
   -5.2870   23.2750  -30.7920 N   0  0  0  0  0  0  0  0  0  0  0  0
   -3.8980   23.5700  -30.5650 C   0  0  0  0  0  0  0  0  0  0  0  0
   -3.0570   22.6380  -30.4640 O   0  0  0  0  0  0  0  0  0  0  0  0
   -3.4660   24.8870  -30.4720 O   0  0  0  0  0  0  0  0  0  0  0  0
   -5.7980   22.1280  -31.2990 C   0  0  0  0  0  0  0  0  0  0  0  0
   -5.1110   20.9760  -31.7060 C   0  0  0  0  0  0  0  0  0  0  0  0
   -4.8450   18.7100  -34.2300 C   0  0  2  0  0  0  0  0  0  0  0  0
   -6.0310   18.9240  -34.9560 O   0  0  0  0  0  0  0  0  0  0  0  0
   -4.1730   17.4070  -34.6930 C   0  0  0  0  0  0  0  0  0  0  0  0
   -2.4159   14.6212  -34.8361 H   0  0  0  0  0  0  0  0  0  0  0  0
   -3.3074   13.8423  -36.1871 H   0  0  0  0  0  0  0  0  0  0  0  0
   -3.0511   15.6202  -36.1871 H   0  0  0  0  0  0  0  0  0  0  0  0
   -6.9525   16.7280  -34.0158 H   0  0  0  0  0  0  0  0  0  0  0  0
   -6.3553   15.3679  -32.9870 H   0  0  0  0  0  0  0  0  0  0  0  0
   -6.7996   17.5956  -31.7974 H   0  0  0  0  0  0  0  0  0  0  0  0
   -5.1572   16.8248  -31.5654 H   0  0  0  0  0  0  0  0  0  0  0  0
   -4.1550   18.6200  -32.2122 H   0  0  0  0  0  0  0  0  0  0  0  0
   -7.8495   19.1882  -32.7869 H   0  0  0  0  0  0  0  0  0  0  0  0
   -9.0173   21.2945  -32.0603 H   0  0  0  0  0  0  0  0  0  0  0  0
   -8.5513   23.8986  -30.9844 H   0  0  0  0  0  0  0  0  0  0  0  0
   -4.6520   26.2030  -31.1800 H   0  0  0  0  0  0  0  0  0  0  0  0
   -5.3620   27.3880  -30.0330 H   0  0  0  0  0  0  0  0  0  0  0  0
   -4.0165   20.9131  -31.6160 H   0  0  0  0  0  0  0  0  0  0  0  0
   -4.1656   19.5544  -34.4183 H   0  0  0  0  0  0  0  0  0  0  0  0
   -6.7860   18.7680  -34.3280 H   0  0  0  0  0  0  0  0  0  0  0  0
   -4.1023   17.4159  -35.7907 H   0  0  0  0  0  0  0  0  0  0  0  0
   -3.1777   17.3572  -34.2272 H   0  0  0  0  0  0  0  0  0  0  0  0
  1  2  1  0
  2  3  2  0
  2  4  1  0
  4  5  1  0
  5  6  1  0
  6  7  1  0
  7  8  1  0
  8  9  2  0
  9 10  1  0
 10 11  2  0
 11 12  1  0
 12 13  2  0
 13 14  1  0
 14 15  1  0
 14 16  2  0
 13 17  1  0
 17 18  1  0
 18 19  2  0
 18 20  1  0
 17 21  1  0
 21 22  2  0
  7 23  1  0
 23 24  1  0
 23 25  1  0
 25  4  1  0
 22  8  1  0
 21 11  1  0
  1 26  1  0
  1 27  1  0
  1 28  1  0
  5 29  1  0
  5 30  1  0
  6 31  1  0
  6 32  1  0
  7 33  1  1
  9 34  1  0
 10 35  1  0
 12 36  1  0
 15 37  1  0
 15 38  1  0
 22 39  1  0
 23 40  1  1
 24 41  1  0
 25 42  1  0
 25 43  1  0
M  CHG  1  20  -1
M  END
>  <UniqueID>  (45) 
45

>  <SMILES>  (45) 
CC(=O)N1CC[C@H](c2ccc3cc(C(N)=O)n(C(=O)[O-])c3c2)[C@H](O)C1

>  <Energy>  (45) 
88.55082919636509

>  <Genealogy>  (45) 
CC(=O)N1CCC(c2ccc3cc(C(N)=O)n(C(=O)[O-])c3c2)C(O)C1 (protonated)
CC(=O)N1CC[C@H](c2ccc3cc(C(N)=O)n(C(=O)[O-])c3c2)[C@H](O)C1 (chirality)
CC(=O)N1CC[C@H](c2ccc3cc(C(N)=O)n(C(=O)[O-])c3c2)[C@H](O)C1 (3D coordinates assigned)
CC(=O)N1CC[C@H](c2ccc3cc(C(N)=O)n(C(=O)[O-])c3c2)[C@H](O)C1 (nonaromatic ring conformer: 88.55082919636509 kcal/mol)

>  <smiles>  (45) 
CC(=O)N1CCC(c2ccc3cc(C(N)=O)n(C(=O)O)c3c2)C(O)C1

>  <score_type>  (45) 
oracle

>  <origin>  (45) 
adg

>  <m_score__min__energy>  (45) 
-9.7100000000000009

>  <m_primary>  (45) 
energy

$$$$
45:0
     RDKit          3D

 55 58  0  0  0  0  0  0  0  0999 V2000
   -2.0130   17.3980  -34.8020 C   0  0  0  0  0  0  0  0  0  0  0  0
   -2.8230   18.5510  -34.6040 O   0  0  0  0  0  0  0  0  0  0  0  0
   -4.1270   18.5330  -34.0810 C   0  0  0  0  0  0  0  0  0  0  0  0
   -5.1660   17.8190  -34.7110 C   0  0  0  0  0  0  0  0  0  0  0  0
   -6.4590   17.8380  -34.1830 C   0  0  0  0  0  0  0  0  0  0  0  0
   -6.7320   18.5640  -33.0260 C   0  0  0  0  0  0  0  0  0  0  0  0
   -5.7150   19.2740  -32.3850 C   0  0  0  0  0  0  0  0  0  0  0  0
   -6.0020   19.9520  -31.2450 F   0  0  0  0  0  0  0  0  0  0  0  0
   -4.4040   19.2620  -32.9030 C   0  0  0  0  0  0  0  0  0  0  0  0
   -3.3310   20.0190  -32.2170 C   0  0  0  0  0  0  0  0  0  0  0  0
   -1.9940   19.5500  -32.2510 C   0  0  0  0  0  0  0  0  0  0  0  0
   -0.9700   20.2580  -31.6010 C   0  0  0  0  0  0  0  0  0  0  0  0
   -1.3090   21.4300  -30.9320 C   0  0  0  0  0  0  0  0  0  0  0  0
   -0.5220   22.2950  -30.2080 C   0  0  0  0  0  0  0  0  0  0  0  0
   -1.3840   23.2920  -29.7600 C   0  0  0  0  0  0  0  0  0  0  0  0
   -0.9260   24.4820  -29.0110 C   0  0  0  0  0  0  0  0  0  0  0  0
   -1.7150   25.6690  -28.9630 N   0  0  0  0  0  0  0  0  0  0  0  0
    0.2010   24.4690  -28.4500 O   0  0  0  0  0  0  0  0  0  0  0  0
   -2.6590   23.0490  -30.1800 N   0  0  0  0  0  0  0  0  0  0  0  0
   -3.8490   23.7890  -29.8670 C   0  0  0  0  0  0  0  0  0  0  0  0
   -4.5630   23.4450  -28.8850 O   0  0  0  0  0  0  0  0  0  0  0  0
   -4.2210   24.8760  -30.6670 O   0  0  0  0  0  0  0  0  0  0  0  0
   -5.4160   25.6330  -30.4750 C   0  0  0  0  0  0  0  0  0  0  0  0
   -6.6380   24.7100  -30.3090 C   0  0  0  0  0  0  0  0  0  0  0  0
   -6.4510   23.3720  -30.9270 N   0  0  0  0  0  0  0  0  0  0  0  0
   -7.2280   22.3450  -30.2120 C   0  0  0  0  0  0  0  0  0  0  0  0
   -8.5810   22.2490  -30.8890 C   0  0  0  0  0  0  0  0  0  0  0  0
   -8.3330   22.6940  -32.3160 C   0  0  0  0  0  0  0  0  0  0  0  0
   -6.9390   23.3200  -32.3190 C   0  0  0  0  0  0  0  0  0  0  0  0
   -2.5940   21.9070  -30.9000 C   0  0  0  0  0  0  0  0  0  0  0  0
   -3.6380   21.2110  -31.5230 C   0  0  0  0  0  0  0  0  0  0  0  0
   -1.7213   16.9828  -33.8260 H   0  0  0  0  0  0  0  0  0  0  0  0
   -2.5807   16.6436  -35.3665 H   0  0  0  0  0  0  0  0  0  0  0  0
   -1.1108   17.6762  -35.3665 H   0  0  0  0  0  0  0  0  0  0  0  0
   -4.9573   17.2429  -35.6246 H   0  0  0  0  0  0  0  0  0  0  0  0
   -7.2637   17.2782  -34.6821 H   0  0  0  0  0  0  0  0  0  0  0  0
   -7.7526   18.5780  -32.6158 H   0  0  0  0  0  0  0  0  0  0  0  0
   -1.7560   18.6222  -32.7919 H   0  0  0  0  0  0  0  0  0  0  0  0
    0.0688   19.8969  -31.6202 H   0  0  0  0  0  0  0  0  0  0  0  0
    0.5593   22.2158  -30.0224 H   0  0  0  0  0  0  0  0  0  0  0  0
   -2.7020   25.6730  -29.3030 H   0  0  0  0  0  0  0  0  0  0  0  0
   -5.3079   26.2516  -29.5718 H   0  0  0  0  0  0  0  0  0  0  0  0
   -5.5744   26.2655  -31.3609 H   0  0  0  0  0  0  0  0  0  0  0  0
   -6.8301   24.5747  -29.2344 H   0  0  0  0  0  0  0  0  0  0  0  0
   -7.4828   25.1916  -30.8232 H   0  0  0  0  0  0  0  0  0  0  0  0
   -5.4410   23.1020  -30.8860 H   0  0  0  0  0  0  0  0  0  0  0  0
   -6.7104   21.3759  -30.2665 H   0  0  0  0  0  0  0  0  0  0  0  0
   -7.3420   22.6121  -29.1510 H   0  0  0  0  0  0  0  0  0  0  0  0
   -8.9536   21.2143  -30.8651 H   0  0  0  0  0  0  0  0  0  0  0  0
   -9.3406   22.8669  -30.3877 H   0  0  0  0  0  0  0  0  0  0  0  0
   -8.3673   21.8316  -32.9979 H   0  0  0  0  0  0  0  0  0  0  0  0
   -9.0982   23.4067  -32.6573 H   0  0  0  0  0  0  0  0  0  0  0  0
   -6.2580   22.7085  -32.9292 H   0  0  0  0  0  0  0  0  0  0  0  0
   -6.9798   24.3336  -32.7443 H   0  0  0  0  0  0  0  0  0  0  0  0
   -4.6718   21.5834  -31.4732 H   0  0  0  0  0  0  0  0  0  0  0  0
  1  2  1  0
  2  3  1  0
  3  4  2  0
  4  5  1  0
  5  6  2  0
  6  7  1  0
  7  8  1  0
  7  9  2  0
  9 10  1  0
 10 11  2  0
 11 12  1  0
 12 13  2  0
 13 14  1  0
 14 15  2  0
 15 16  1  0
 16 17  1  0
 16 18  2  0
 15 19  1  0
 19 20  1  0
 20 21  2  0
 20 22  1  0
 22 23  1  0
 23 24  1  0
 24 25  1  0
 25 26  1  0
 26 27  1  0
 27 28  1  0
 28 29  1  0
 19 30  1  0
 30 31  2  0
  9  3  1  0
 31 10  1  0
 30 13  1  0
 29 25  1  0
  1 32  1  0
  1 33  1  0
  1 34  1  0
  4 35  1  0
  5 36  1  0
  6 37  1  0
 11 38  1  0
 12 39  1  0
 14 40  1  0
 17 41  1  0
 23 42  1  0
 23 43  1  0
 24 44  1  0
 24 45  1  0
 25 46  1  0
 26 47  1  0
 26 48  1  0
 27 49  1  0
 27 50  1  0
 28 51  1  0
 28 52  1  0
 29 53  1  0
 29 54  1  0
 31 55  1  0
M  CHG  2  17  -1  25   1
M  END
>  <UniqueID>  (46) 
46

>  <SMILES>  (46) 
COc1cccc(F)c1-c1ccc2cc(C([NH-])=O)n(C(=O)OCC[NH+]3CCCC3)c2c1

>  <Energy>  (46) 
106.64425508666501

>  <Genealogy>  (46) 
COc1cccc(F)c1-c1ccc2cc(C([NH-])=O)n(C(=O)OCC[NH+]3CCCC3)c2c1 (protonated)
COc1cccc(F)c1-c1ccc2cc(C([NH-])=O)n(C(=O)OCC[NH+]3CCCC3)c2c1 (3D coordinates assigned)
COc1cccc(F)c1-c1ccc2cc(C([NH-])=O)n(C(=O)OCC[NH+]3CCCC3)c2c1 (nonaromatic ring conformer: 106.64425508666501 kcal/mol)

>  <smiles>  (46) 
COc1cccc(F)c1-c1ccc2cc(C(N)=O)n(C(=O)OCCN3CCCC3)c2c1

>  <score_type>  (46) 
oracle

>  <origin>  (46) 
adg

>  <m_score__min__energy>  (46) 
-10.42

>  <m_primary>  (46) 
energy

$$$$
46:0
     RDKit          3D

 44 45  0  0  0  0  0  0  0  0999 V2000
   -7.5460   18.6400  -31.6160 C   0  0  0  0  0  0  0  0  0  0  0  0
   -6.3740   18.8510  -32.2110 C   0  0  0  0  0  0  0  0  0  0  0  0
   -5.5860   17.7380  -32.5500 O   0  0  0  0  0  0  0  0  0  0  0  0
   -5.5290   17.0700  -33.8210 C   0  0  0  0  0  0  0  0  0  0  0  0
   -6.8150   16.2390  -33.9460 C   0  0  0  0  0  0  0  0  0  0  0  0
   -5.4930   18.1020  -34.9630 C   0  0  0  0  0  0  0  0  0  0  0  0
   -4.3190   16.1210  -33.9150 C   0  0  0  0  0  0  0  0  0  0  0  0
   -5.9200   20.1990  -32.4270 N   0  0  0  0  0  0  0  0  0  0  0  0
   -6.8250   21.1430  -33.0930 C   0  0  0  0  0  0  0  0  0  0  0  0
   -4.6630   20.6510  -31.8570 C   0  0  0  0  0  0  0  0  0  0  0  0
   -3.5110   19.8150  -31.8880 C   0  0  0  0  0  0  0  0  0  0  0  0
   -2.2890   20.2440  -31.3460 C   0  0  0  0  0  0  0  0  0  0  0  0
   -2.2350   21.5140  -30.7850 C   0  0  0  0  0  0  0  0  0  0  0  0
   -1.1870   22.1660  -30.1770 C   0  0  0  0  0  0  0  0  0  0  0  0
   -1.6930   23.4070  -29.7970 C   0  0  0  0  0  0  0  0  0  0  0  0
   -0.8770   24.4770  -29.1820 C   0  0  0  0  0  0  0  0  0  0  0  0
   -1.4180   25.7850  -28.9850 N   0  0  0  0  0  0  0  0  0  0  0  0
    0.2980   24.2350  -28.7970 O   0  0  0  0  0  0  0  0  0  0  0  0
   -3.0050   23.5160  -30.1560 N   0  0  0  0  0  0  0  0  0  0  0  0
   -3.8970   24.6130  -29.8960 C   0  0  0  0  0  0  0  0  0  0  0  0
   -3.8680   25.6430  -30.6200 O   0  0  0  0  0  0  0  0  0  0  0  0
   -4.7930   24.5540  -28.8360 O   0  0  0  0  0  0  0  0  0  0  0  0
   -3.3200   22.3480  -30.7590 C   0  0  0  0  0  0  0  0  0  0  0  0
   -4.5570   21.9390  -31.2730 C   0  0  0  0  0  0  0  0  0  0  0  0
   -8.1837   19.4925  -31.3393 H   0  0  0  0  0  0  0  0  0  0  0  0
   -7.8767   17.6132  -31.4010 H   0  0  0  0  0  0  0  0  0  0  0  0
   -7.1928   15.9949  -32.9422 H   0  0  0  0  0  0  0  0  0  0  0  0
   -7.5740   16.8179  -34.4927 H   0  0  0  0  0  0  0  0  0  0  0  0
   -6.5991   15.3092  -34.4927 H   0  0  0  0  0  0  0  0  0  0  0  0
   -5.4576   19.1165  -34.5394 H   0  0  0  0  0  0  0  0  0  0  0  0
   -4.6002   17.9321  -35.5828 H   0  0  0  0  0  0  0  0  0  0  0  0
   -6.3954   17.9947  -35.5828 H   0  0  0  0  0  0  0  0  0  0  0  0
   -3.9812   15.8561  -32.9022 H   0  0  0  0  0  0  0  0  0  0  0  0
   -4.6102   15.2080  -34.4550 H   0  0  0  0  0  0  0  0  0  0  0  0
   -3.5016   16.6214  -34.4550 H   0  0  0  0  0  0  0  0  0  0  0  0
   -7.3768   21.7186  -32.3352 H   0  0  0  0  0  0  0  0  0  0  0  0
   -6.2399   21.8305  -33.7215 H   0  0  0  0  0  0  0  0  0  0  0  0
   -7.5366   20.5874  -33.7215 H   0  0  0  0  0  0  0  0  0  0  0  0
   -3.5795   18.8164  -32.3442 H   0  0  0  0  0  0  0  0  0  0  0  0
   -1.4014   19.5945  -31.3649 H   0  0  0  0  0  0  0  0  0  0  0  0
   -0.1657   21.7874  -30.0235 H   0  0  0  0  0  0  0  0  0  0  0  0
   -0.8470   26.5210  -28.5140 H   0  0  0  0  0  0  0  0  0  0  0  0
   -2.3660   26.0390  -29.3400 H   0  0  0  0  0  0  0  0  0  0  0  0
   -5.4310   22.6051  -31.2246 H   0  0  0  0  0  0  0  0  0  0  0  0
  1  2  2  0
  2  3  1  0
  3  4  1  0
  4  5  1  0
  4  6  1  0
  4  7  1  0
  2  8  1  0
  8  9  1  0
  8 10  1  0
 10 11  2  0
 11 12  1  0
 12 13  2  0
 13 14  1  0
 14 15  2  0
 15 16  1  0
 16 17  1  0
 16 18  2  0
 15 19  1  0
 19 20  1  0
 20 21  2  0
 20 22  1  0
 19 23  1  0
 23 24  2  0
 24 10  1  0
 23 13  1  0
  1 25  1  0
  1 26  1  0
  5 27  1  0
  5 28  1  0
  5 29  1  0
  6 30  1  0
  6 31  1  0
  6 32  1  0
  7 33  1  0
  7 34  1  0
  7 35  1  0
  9 36  1  0
  9 37  1  0
  9 38  1  0
 11 39  1  0
 12 40  1  0
 14 41  1  0
 17 42  1  0
 17 43  1  0
 24 44  1  0
M  CHG  1  22  -1
M  END
>  <UniqueID>  (47) 
47

>  <SMILES>  (47) 
C=C(OC(C)(C)C)N(C)c1ccc2cc(C(N)=O)n(C(=O)[O-])c2c1

>  <Energy>  (47) 
88.31811570247862

>  <Genealogy>  (47) 
C=C(OC(C)(C)C)N(C)c1ccc2cc(C(N)=O)n(C(=O)[O-])c2c1 (protonated)
C=C(OC(C)(C)C)N(C)c1ccc2cc(C(N)=O)n(C(=O)[O-])c2c1 (3D coordinates assigned)
C=C(OC(C)(C)C)N(C)c1ccc2cc(C(N)=O)n(C(=O)[O-])c2c1 (optimized conformer: 88.31811570247862 kcal/mol)

>  <smiles>  (47) 
C=C(OC(C)(C)C)N(C)c1ccc2cc(C(N)=O)n(C(=O)O)c2c1

>  <score_type>  (47) 
oracle

>  <origin>  (47) 
adg

>  <m_score__min__energy>  (47) 
-9.2799999999999994

>  <m_primary>  (47) 
energy

$$$$
47:0
     RDKit          3D

 37 38  0  0  0  0  0  0  0  0999 V2000
   -3.1930   21.8990  -32.5410 C   0  0  0  0  0  0  0  0  0  0  0  0
   -3.7990   22.6740  -31.4140 C   0  0  0  0  0  0  0  0  0  0  0  0
   -3.0550   23.1020  -30.4910 O   0  0  0  0  0  0  0  0  0  0  0  0
   -5.2190   22.8610  -31.3310 N   0  0  0  0  0  0  0  0  0  0  0  0
   -5.9030   23.9850  -30.9750 C   0  0  0  0  0  0  0  0  0  0  0  0
   -5.3090   25.2280  -30.4420 C   0  0  0  0  0  0  0  0  0  0  0  0
   -4.0170   25.6610  -30.8600 N   0  0  0  0  0  0  0  0  0  0  0  0
   -5.9320   25.8970  -29.5760 O   0  0  0  0  0  0  0  0  0  0  0  0
   -7.2750   23.7830  -31.1100 C   0  0  0  0  0  0  0  0  0  0  0  0
   -7.4130   22.4860  -31.5540 C   0  0  0  0  0  0  0  0  0  0  0  0
   -8.5570   21.7620  -31.8710 C   0  0  0  0  0  0  0  0  0  0  0  0
   -8.3960   20.4460  -32.3350 C   0  0  0  0  0  0  0  0  0  0  0  0
   -7.1030   19.8800  -32.4660 C   0  0  0  0  0  0  0  0  0  0  0  0
   -6.9410   18.4920  -33.0200 C   0  0  0  0  0  0  0  0  0  0  0  0
   -6.0810   17.6830  -32.1050 C   0  0  0  0  0  0  0  0  0  0  0  0
   -6.4620   17.4530  -30.9250 O   0  0  0  0  0  0  0  0  0  0  0  0
   -4.8340   17.2330  -32.5560 O   0  0  0  0  0  0  0  0  0  0  0  0
   -4.6730   16.1010  -33.4060 C   0  0  0  0  0  0  0  0  0  0  0  0
   -4.7250   14.8380  -32.6010 C   0  0  0  0  0  0  0  0  0  0  0  0
   -5.0030   14.8780  -31.2010 N   0  0  0  0  0  0  0  0  0  0  0  0
   -4.4890   13.7340  -33.1590 O   0  0  0  0  0  0  0  0  0  0  0  0
   -5.9640   20.6500  -32.1450 C   0  0  0  0  0  0  0  0  0  0  0  0
   -6.1560   21.9530  -31.6750 C   0  0  0  0  0  0  0  0  0  0  0  0
   -2.5632   21.0936  -32.1352 H   0  0  0  0  0  0  0  0  0  0  0  0
   -3.9926   21.4635  -33.1582 H   0  0  0  0  0  0  0  0  0  0  0  0
   -2.5776   22.5700  -33.1582 H   0  0  0  0  0  0  0  0  0  0  0  0
   -3.1530   25.2700  -30.4230 H   0  0  0  0  0  0  0  0  0  0  0  0
   -8.0782   24.5062  -30.9054 H   0  0  0  0  0  0  0  0  0  0  0  0
   -9.5574   22.2062  -31.7618 H   0  0  0  0  0  0  0  0  0  0  0  0
   -9.2814   19.8492  -32.5991 H   0  0  0  0  0  0  0  0  0  0  0  0
   -7.9287   18.0162  -33.1095 H   0  0  0  0  0  0  0  0  0  0  0  0
   -6.4673   18.5479  -34.0112 H   0  0  0  0  0  0  0  0  0  0  0  0
   -5.4806   16.0895  -34.1527 H   0  0  0  0  0  0  0  0  0  0  0  0
   -3.6971   16.1660  -33.9094 H   0  0  0  0  0  0  0  0  0  0  0  0
   -5.1910   15.7850  -30.7180 H   0  0  0  0  0  0  0  0  0  0  0  0
   -5.0190   13.9960  -30.6430 H   0  0  0  0  0  0  0  0  0  0  0  0
   -4.9517   20.2357  -32.2616 H   0  0  0  0  0  0  0  0  0  0  0  0
  1  2  1  0
  2  3  2  0
  2  4  1  0
  4  5  1  0
  5  6  1  0
  6  7  1  0
  6  8  2  0
  5  9  2  0
  9 10  1  0
 10 11  2  0
 11 12  1  0
 12 13  2  0
 13 14  1  0
 14 15  1  0
 15 16  2  0
 15 17  1  0
 17 18  1  0
 18 19  1  0
 19 20  1  0
 19 21  2  0
 13 22  1  0
 22 23  2  0
 23  4  1  0
 23 10  1  0
  1 24  1  0
  1 25  1  0
  1 26  1  0
  7 27  1  0
  9 28  1  0
 11 29  1  0
 12 30  1  0
 14 31  1  0
 14 32  1  0
 18 33  1  0
 18 34  1  0
 20 35  1  0
 20 36  1  0
 22 37  1  0
M  CHG  1   7  -1
M  END
>  <UniqueID>  (48) 
48

>  <SMILES>  (48) 
CC(=O)n1c(C([NH-])=O)cc2ccc(CC(=O)OCC(N)=O)cc21

>  <Energy>  (48) 
69.97482191113782

>  <Genealogy>  (48) 
CC(=O)n1c(C([NH-])=O)cc2ccc(CC(=O)OCC(N)=O)cc21 (protonated)
CC(=O)n1c(C([NH-])=O)cc2ccc(CC(=O)OCC(N)=O)cc21 (3D coordinates assigned)
CC(=O)n1c(C([NH-])=O)cc2ccc(CC(=O)OCC(N)=O)cc21 (optimized conformer: 69.97482191113782 kcal/mol)

>  <smiles>  (48) 
CC(=O)n1c(C(N)=O)cc2ccc(CC(=O)OCC(N)=O)cc21

>  <score_type>  (48) 
oracle

>  <origin>  (48) 
adg

>  <m_score__min__energy>  (48) 
-9.6899999999999995

>  <m_primary>  (48) 
energy

$$$$
48:0
     RDKit          3D

 46 48  0  0  0  0  0  0  0  0999 V2000
   -6.7740   15.6470  -34.2210 C   0  0  0  0  0  0  0  0  0  0  0  0
   -6.4190   16.6810  -33.1550 C   0  0  0  0  0  0  0  0  0  0  0  0
   -7.1910   17.9330  -33.3430 N   0  0  0  0  0  0  0  0  0  0  0  0
   -7.7410   18.4260  -32.0530 C   0  0  0  0  0  0  0  0  0  0  0  0
   -9.0920   19.0950  -32.2880 C   0  0  0  0  0  0  0  0  0  0  0  0
   -6.3260   18.9570  -33.9740 C   0  0  0  0  0  0  0  0  0  0  0  0
   -4.8560   18.7430  -33.7330 C   0  0  0  0  0  0  0  0  0  0  0  0
   -4.6520   19.9390  -32.8980 N   0  0  0  0  0  0  0  0  0  0  0  0
   -3.5730   20.5730  -32.2110 C   0  0  0  0  0  0  0  0  0  0  0  0
   -2.2740   20.0210  -32.2750 C   0  0  0  0  0  0  0  0  0  0  0  0
   -1.2080   20.6250  -31.5900 C   0  0  0  0  0  0  0  0  0  0  0  0
   -1.4720   21.7820  -30.8620 C   0  0  0  0  0  0  0  0  0  0  0  0
   -0.6290   22.5520  -30.0970 C   0  0  0  0  0  0  0  0  0  0  0  0
   -1.4280   23.5660  -29.5820 C   0  0  0  0  0  0  0  0  0  0  0  0
   -0.9070   24.6300  -28.7080 C   0  0  0  0  0  0  0  0  0  0  0  0
   -1.7600   25.6730  -28.2380 N   0  0  0  0  0  0  0  0  0  0  0  0
    0.2880   24.5770  -28.3120 O   0  0  0  0  0  0  0  0  0  0  0  0
   -2.7120   23.4550  -30.0300 N   0  0  0  0  0  0  0  0  0  0  0  0
   -3.7830   24.4060  -29.8520 C   0  0  0  0  0  0  0  0  0  0  0  0
   -4.0360   25.4060  -30.8360 N   0  0  0  0  0  0  0  0  0  0  0  0
   -4.4850   24.3930  -28.8070 O   0  0  0  0  0  0  0  0  0  0  0  0
   -2.7240   22.3440  -30.8050 C   0  0  0  0  0  0  0  0  0  0  0  0
   -3.8070   21.7460  -31.4650 C   0  0  0  0  0  0  0  0  0  0  0  0
   -6.0950   20.1570  -33.0990 C   0  0  0  0  0  0  0  0  0  0  0  0
   -7.0944   14.7139  -33.7345 H   0  0  0  0  0  0  0  0  0  0  0  0
   -7.5912   16.0327  -34.8482 H   0  0  0  0  0  0  0  0  0  0  0  0
   -5.8922   15.4495  -34.8482 H   0  0  0  0  0  0  0  0  0  0  0  0
   -6.6462   16.2652  -32.1623 H   0  0  0  0  0  0  0  0  0  0  0  0
   -5.3480   16.9163  -33.2415 H   0  0  0  0  0  0  0  0  0  0  0  0
   -7.8683   17.5789  -31.3629 H   0  0  0  0  0  0  0  0  0  0  0  0
   -7.0446   19.1578  -31.6177 H   0  0  0  0  0  0  0  0  0  0  0  0
   -9.5598   19.3267  -31.3198 H   0  0  0  0  0  0  0  0  0  0  0  0
   -8.9465   20.0252  -32.8568 H   0  0  0  0  0  0  0  0  0  0  0  0
   -9.7437   18.4155  -32.8568 H   0  0  0  0  0  0  0  0  0  0  0  0
   -6.7920   18.9868  -34.9700 H   0  0  0  0  0  0  0  0  0  0  0  0
   -4.6472   17.8082  -33.1921 H   0  0  0  0  0  0  0  0  0  0  0  0
   -4.2151   18.6398  -34.6210 H   0  0  0  0  0  0  0  0  0  0  0  0
   -2.0966   19.1106  -32.8664 H   0  0  0  0  0  0  0  0  0  0  0  0
   -0.1952   20.1973  -31.6272 H   0  0  0  0  0  0  0  0  0  0  0  0
    0.4471   22.3987  -29.9285 H   0  0  0  0  0  0  0  0  0  0  0  0
   -1.3800   26.4300  -27.6290 H   0  0  0  0  0  0  0  0  0  0  0  0
   -2.7820   25.6590  -28.4500 H   0  0  0  0  0  0  0  0  0  0  0  0
   -3.8770   26.4170  -30.6300 H   0  0  0  0  0  0  0  0  0  0  0  0
   -4.8151   22.1817  -31.4022 H   0  0  0  0  0  0  0  0  0  0  0  0
   -6.6648   20.1115  -32.1592 H   0  0  0  0  0  0  0  0  0  0  0  0
   -6.3994   21.1338  -33.5031 H   0  0  0  0  0  0  0  0  0  0  0  0
  1  2  1  0
  2  3  1  0
  3  4  1  0
  4  5  1  0
  3  6  1  0
  6  7  1  0
  7  8  1  0
  8  9  1  0
  9 10  2  0
 10 11  1  0
 11 12  2  0
 12 13  1  0
 13 14  2  0
 14 15  1  0
 15 16  1  0
 15 17  2  0
 14 18  1  0
 18 19  1  0
 19 20  1  0
 19 21  2  0
 18 22  1  0
 22 23  2  0
  8 24  1  0
 24  6  1  0
 23  9  1  0
 22 12  1  0
  1 25  1  0
  1 26  1  0
  1 27  1  0
  2 28  1  0
  2 29  1  0
  4 30  1  0
  4 31  1  0
  5 32  1  0
  5 33  1  0
  5 34  1  0
  6 35  1  0
  7 36  1  0
  7 37  1  0
 10 38  1  0
 11 39  1  0
 13 40  1  0
 16 41  1  0
 16 42  1  0
 20 43  1  0
 23 44  1  0
 24 45  1  0
 24 46  1  0
M  CHG  1  20  -1
M  END
>  <UniqueID>  (49) 
49

>  <SMILES>  (49) 
CCN(CC)C1CN(c2ccc3cc(C(N)=O)n(C([NH-])=O)c3c2)C1

>  <Energy>  (49) 
133.26519047835131

>  <Genealogy>  (49) 
CCN(CC)C1CN(c2ccc3cc(C(N)=O)n(C([NH-])=O)c3c2)C1 (protonated)
CCN(CC)C1CN(c2ccc3cc(C(N)=O)n(C([NH-])=O)c3c2)C1 (3D coordinates assigned)
CCN(CC)C1CN(c2ccc3cc(C(N)=O)n(C([NH-])=O)c3c2)C1 (nonaromatic ring conformer: 133.26519047835131 kcal/mol)

>  <smiles>  (49) 
CCN(CC)C1CN(c2ccc3cc(C(N)=O)n(C(N)=O)c3c2)C1

>  <score_type>  (49) 
oracle

>  <origin>  (49) 
adg

>  <m_score__min__energy>  (49) 
-9.3399999999999999

>  <m_primary>  (49) 
energy

$$$$
49:0
     RDKit          3D

 56 58  0  0  0  0  0  0  0  0999 V2000
   -3.4880   25.2830  -30.4560 N   0  0  0  0  0  0  0  0  0  0  0  0
   -4.3070   24.4770  -29.6140 C   0  0  0  0  0  0  0  0  0  0  0  0
   -4.1610   24.5420  -28.3650 O   0  0  0  0  0  0  0  0  0  0  0  0
   -5.2840   23.5270  -30.1870 C   0  0  0  0  0  0  0  0  0  0  0  0
   -6.6430   23.5430  -29.8790 C   0  0  0  0  0  0  0  0  0  0  0  0
   -7.1810   22.4660  -30.5440 C   0  0  0  0  0  0  0  0  0  0  0  0
   -8.4990   22.0230  -30.6160 C   0  0  0  0  0  0  0  0  0  0  0  0
   -8.7760   20.9060  -31.4200 C   0  0  0  0  0  0  0  0  0  0  0  0
   -7.7390   20.2510  -32.1280 C   0  0  0  0  0  0  0  0  0  0  0  0
   -8.0550   19.0920  -33.0310 C   0  0  0  0  0  0  0  0  0  0  0  0
   -7.1420   17.9870  -32.7570 N   0  0  0  0  0  0  0  0  0  0  0  0
   -6.5560   17.1820  -33.6580 C   0  0  0  0  0  0  0  0  0  0  0  0
   -5.7090   16.3360  -32.9790 C   0  0  0  0  0  0  0  0  0  0  0  0
   -5.7500   16.6170  -31.6600 N   0  0  0  0  0  0  0  0  0  0  0  0
   -6.6320   17.6330  -31.5620 C   0  0  0  0  0  0  0  0  0  0  0  0
   -6.4150   20.7360  -32.0410 C   0  0  0  0  0  0  0  0  0  0  0  0
   -6.1660   21.8420  -31.2220 C   0  0  0  0  0  0  0  0  0  0  0  0
   -4.9950   22.4840  -31.0150 N   0  0  0  0  0  0  0  0  0  0  0  0
   -3.7400   22.1850  -31.6440 C   0  0  0  0  0  0  0  0  0  0  0  0
   -3.6440   22.2180  -32.9020 O   0  0  0  0  0  0  0  0  0  0  0  0
   -2.6230   21.8850  -30.8570 O   0  0  0  0  0  0  0  0  0  0  0  0
   -2.7030   21.1200  -29.6590 C   0  0  0  0  0  0  0  0  0  0  0  0
   -1.7850   20.0550  -29.7280 O   0  0  0  0  0  0  0  0  0  0  0  0
   -0.2830   20.5930  -29.1250 P   0  0  1  0  0  0  0  0  0  0  0  0
   -0.2550   22.1060  -29.1130 O   0  0  0  0  0  0  0  0  0  0  0  0
   -0.0490   20.0080  -27.5520 O   0  0  0  0  0  0  0  0  0  0  0  0
    0.9440   20.0020  -30.1500 O   0  0  0  0  0  0  0  0  0  0  0  0
    0.4420   18.8890  -30.8540 C   0  0  0  0  0  0  0  0  0  0  0  0
   -0.0250   19.3440  -32.2410 C   0  0  2  0  0  0  0  0  0  0  0  0
    0.5530   20.7220  -32.5960 C   0  0  0  0  0  0  0  0  0  0  0  0
   -0.1180   21.7250  -31.8850 O   0  0  0  0  0  0  0  0  0  0  0  0
   -1.4530   19.4000  -32.2480 O   0  0  0  0  0  0  0  0  0  0  0  0
   -2.2130   19.6230  -33.4040 C   0  0  0  0  0  0  0  0  0  0  0  0
   -1.7520   20.3110  -34.3540 O   0  0  0  0  0  0  0  0  0  0  0  0
   -3.6010   19.0790  -33.4870 C   0  0  0  0  0  0  0  0  0  0  0  0
   -3.6090   17.9110  -34.2270 F   0  0  0  0  0  0  0  0  0  0  0  0
   -4.4340   20.0010  -34.0950 F   0  0  0  0  0  0  0  0  0  0  0  0
   -4.0670   18.8150  -32.2130 F   0  0  0  0  0  0  0  0  0  0  0  0
   -3.8910   26.0850  -30.9900 H   0  0  0  0  0  0  0  0  0  0  0  0
   -7.1731   24.2642  -29.2395 H   0  0  0  0  0  0  0  0  0  0  0  0
   -9.2992   22.5329  -30.0596 H   0  0  0  0  0  0  0  0  0  0  0  0
   -9.8087   20.5359  -31.5009 H   0  0  0  0  0  0  0  0  0  0  0  0
   -9.0896   18.7630  -32.8540 H   0  0  0  0  0  0  0  0  0  0  0  0
   -7.9395   19.4066  -34.0787 H   0  0  0  0  0  0  0  0  0  0  0  0
   -6.7232   17.1962  -34.7451 H   0  0  0  0  0  0  0  0  0  0  0  0
   -5.0927   15.5507  -33.4411 H   0  0  0  0  0  0  0  0  0  0  0  0
   -6.9040   18.1178  -30.6128 H   0  0  0  0  0  0  0  0  0  0  0  0
   -5.6005   20.2559  -32.6032 H   0  0  0  0  0  0  0  0  0  0  0  0
   -2.4608   21.7594  -28.7973 H   0  0  0  0  0  0  0  0  0  0  0  0
   -3.7220   20.7227  -29.5414 H   0  0  0  0  0  0  0  0  0  0  0  0
    1.2337   18.1329  -30.9613 H   0  0  0  0  0  0  0  0  0  0  0  0
   -0.4033   18.4514  -30.3027 H   0  0  0  0  0  0  0  0  0  0  0  0
    0.3326   18.6252  -32.9929 H   0  0  0  0  0  0  0  0  0  0  0  0
    1.6218   20.7456  -32.3368 H   0  0  0  0  0  0  0  0  0  0  0  0
    0.4244   20.8986  -33.6741 H   0  0  0  0  0  0  0  0  0  0  0  0
   -0.6080   21.2650  -31.1550 H   0  0  0  0  0  0  0  0  0  0  0  0
  1  2  1  0
  2  3  2  0
  2  4  1  0
  4  5  2  0
  5  6  1  0
  6  7  2  0
  7  8  1  0
  8  9  2  0
  9 10  1  0
 10 11  1  0
 11 12  1  0
 12 13  2  0
 13 14  1  0
 14 15  2  0
  9 16  1  0
 16 17  2  0
 17 18  1  0
 18 19  1  0
 19 20  2  0
 19 21  1  0
 21 22  1  0
 22 23  1  0
 23 24  1  0
 24 25  2  0
 24 26  1  1
 24 27  1  0
 27 28  1  0
 28 29  1  0
 29 30  1  0
 30 31  1  0
 29 32  1  0
 32 33  1  0
 33 34  2  0
 33 35  1  0
 35 36  1  0
 35 37  1  0
 35 38  1  0
 18  4  1  0
 17  6  1  0
 15 11  1  0
  1 39  1  0
  5 40  1  0
  7 41  1  0
  8 42  1  0
 10 43  1  0
 10 44  1  0
 12 45  1  0
 13 46  1  0
 15 47  1  0
 16 48  1  0
 22 49  1  0
 22 50  1  0
 28 51  1  0
 28 52  1  0
 29 53  1  6
 30 54  1  0
 30 55  1  0
 31 56  1  0
M  CHG  2   1  -1  26  -1
M  END
>  <UniqueID>  (50) 
50

>  <SMILES>  (50) 
[NH-]C(=O)c1cc2ccc(Cn3ccnc3)cc2n1C(=O)OCO[P@@](=O)([O-])OC[C@H](CO)OC(=O)C(F)(F)F

>  <Energy>  (50) 
114.99587134667289

>  <Genealogy>  (50) 
[NH-]C(=O)c1cc2ccc(Cn3ccnc3)cc2n1C(=O)OCOP(=O)([O-])OC[C@H](CO)OC(=O)C(F)(F)F (protonated)
[NH-]C(=O)c1cc2ccc(Cn3ccnc3)cc2n1C(=O)OCO[P@@](=O)([O-])OC[C@H](CO)OC(=O)C(F)(F)F (chirality)
[NH-]C(=O)c1cc2ccc(Cn3ccnc3)cc2n1C(=O)OCO[P@@](=O)([O-])OC[C@H](CO)OC(=O)C(F)(F)F (3D coordinates assigned)
[NH-]C(=O)c1cc2ccc(Cn3ccnc3)cc2n1C(=O)OCO[P@@](=O)([O-])OC[C@H](CO)OC(=O)C(F)(F)F (optimized conformer: 114.99587134667289 kcal/mol)

>  <smiles>  (50) 
NC(=O)c1cc2ccc(Cn3ccnc3)cc2n1C(=O)OCOP(=O)(O)OC[C@H](CO)OC(=O)C(F)(F)F

>  <score_type>  (50) 
oracle

>  <origin>  (50) 
adg

>  <m_score__min__energy>  (50) 
-12.99

>  <m_primary>  (50) 
energy

$$$$
50:0
     RDKit          3D

 40 42  0  0  0  0  0  0  0  0999 V2000
   -3.8670   25.6130  -30.7840 N   0  0  0  0  0  0  0  0  0  0  0  0
   -5.0110   24.8660  -30.3760 C   0  0  0  0  0  0  0  0  0  0  0  0
   -5.7560   25.3240  -29.4710 O   0  0  0  0  0  0  0  0  0  0  0  0
   -5.3320   23.5890  -31.0490 C   0  0  0  0  0  0  0  0  0  0  0  0
   -6.5600   23.3320  -31.6550 C   0  0  0  0  0  0  0  0  0  0  0  0
   -6.5000   22.0190  -32.0590 C   0  0  0  0  0  0  0  0  0  0  0  0
   -7.4600   21.2310  -32.6840 C   0  0  0  0  0  0  0  0  0  0  0  0
   -7.1420   19.8880  -32.9470 C   0  0  0  0  0  0  0  0  0  0  0  0
   -5.8730   19.3660  -32.5950 C   0  0  0  0  0  0  0  0  0  0  0  0
   -5.5900   17.8980  -32.7750 C   0  0  0  0  0  0  0  0  0  0  0  0
   -4.0860   17.6140  -32.9070 C   0  0  0  0  0  0  0  0  0  0  0  0
   -3.4640   18.4960  -33.8470 O   0  0  0  0  0  0  0  0  0  0  0  0
   -2.4260   19.4030  -33.5710 C   0  0  0  0  0  0  0  0  0  0  0  0
   -2.1420   19.6970  -32.2350 C   0  0  0  0  0  0  0  0  0  0  0  0
   -1.1100   20.5210  -31.9130 N   0  0  0  0  0  0  0  0  0  0  0  0
   -0.3240   21.0860  -32.8690 C   0  0  0  0  0  0  0  0  0  0  0  0
   -0.5780   20.8480  -34.2290 C   0  0  0  0  0  0  0  0  0  0  0  0
    0.2800   21.4440  -35.2770 C   0  0  0  0  0  0  0  0  0  0  0  0
    0.4540   20.8540  -36.3750 O   0  0  0  0  0  0  0  0  0  0  0  0
    0.9010   22.6700  -35.0650 O   0  0  0  0  0  0  0  0  0  0  0  0
   -1.6540   20.0160  -34.5740 C   0  0  0  0  0  0  0  0  0  0  0  0
   -4.9110   20.2050  -31.9890 C   0  0  0  0  0  0  0  0  0  0  0  0
   -5.2680   21.5280  -31.7070 C   0  0  0  0  0  0  0  0  0  0  0  0
   -4.5380   22.4810  -31.0860 N   0  0  0  0  0  0  0  0  0  0  0  0
   -3.1910   22.3430  -30.6050 C   0  0  0  0  0  0  0  0  0  0  0  0
   -2.3460   23.2530  -30.8080 O   0  0  0  0  0  0  0  0  0  0  0  0
   -2.8020   21.1930  -29.9280 O   0  0  0  0  0  0  0  0  0  0  0  0
   -2.9040   25.3060  -30.5200 H   0  0  0  0  0  0  0  0  0  0  0  0
   -7.3995   24.0312  -31.7831 H   0  0  0  0  0  0  0  0  0  0  0  0
   -8.4392   21.6466  -32.9642 H   0  0  0  0  0  0  0  0  0  0  0  0
   -7.8847   19.2363  -33.4304 H   0  0  0  0  0  0  0  0  0  0  0  0
   -5.9794   17.3517  -31.9033 H   0  0  0  0  0  0  0  0  0  0  0  0
   -6.0808   17.5685  -33.7027 H   0  0  0  0  0  0  0  0  0  0  0  0
   -3.6101   17.7465  -31.9242 H   0  0  0  0  0  0  0  0  0  0  0  0
   -3.9609   16.5825  -33.2681 H   0  0  0  0  0  0  0  0  0  0  0  0
   -2.7587   19.2579  -31.4370 H   0  0  0  0  0  0  0  0  0  0  0  0
   -0.9070   20.7130  -30.9070 H   0  0  0  0  0  0  0  0  0  0  0  0
    0.5154   21.7331  -32.5746 H   0  0  0  0  0  0  0  0  0  0  0  0
   -1.8946   19.8426  -35.6333 H   0  0  0  0  0  0  0  0  0  0  0  0
   -3.9070   19.8275  -31.7452 H   0  0  0  0  0  0  0  0  0  0  0  0
  1  2  1  0
  2  3  2  0
  2  4  1  0
  4  5  2  0
  5  6  1  0
  6  7  2  0
  7  8  1  0
  8  9  2  0
  9 10  1  0
 10 11  1  0
 11 12  1  0
 12 13  1  0
 13 14  2  0
 14 15  1  0
 15 16  2  0
 16 17  1  0
 17 18  1  0
 18 19  2  0
 18 20  1  0
 17 21  2  0
  9 22  1  0
 22 23  2  0
 23 24  1  0
 24 25  1  0
 25 26  2  0
 25 27  1  0
 24  4  1  0
 23  6  1  0
 21 13  1  0
  1 28  1  0
  5 29  1  0
  7 30  1  0
  8 31  1  0
 10 32  1  0
 10 33  1  0
 11 34  1  0
 11 35  1  0
 14 36  1  0
 15 37  1  0
 16 38  1  0
 21 39  1  0
 22 40  1  0
M  CHG  4   1  -1  15   1  20  -1  27  -1
M  END
>  <UniqueID>  (51) 
51

>  <SMILES>  (51) 
[NH-]C(=O)c1cc2ccc(CCOc3c[nH+]cc(C(=O)[O-])c3)cc2n1C(=O)[O-]

>  <Energy>  (51) 
77.55043695438418

>  <Genealogy>  (51) 
[NH-]C(=O)c1cc2ccc(CCOc3c[nH+]cc(C(=O)[O-])c3)cc2n1C(=O)[O-] (protonated)
[NH-]C(=O)c1cc2ccc(CCOc3c[nH+]cc(C(=O)[O-])c3)cc2n1C(=O)[O-] (3D coordinates assigned)
[NH-]C(=O)c1cc2ccc(CCOc3c[nH+]cc(C(=O)[O-])c3)cc2n1C(=O)[O-] (optimized conformer: 77.55043695438418 kcal/mol)

>  <smiles>  (51) 
NC(=O)c1cc2ccc(CCOc3cncc(C(=O)O)c3)cc2n1C(=O)O

>  <score_type>  (51) 
oracle

>  <origin>  (51) 
adg

>  <m_score__min__energy>  (51) 
-10.24

>  <m_primary>  (51) 
energy

$$$$
51:0
     RDKit          3D

 44 45  0  0  0  0  0  0  0  0999 V2000
   -3.7280   20.7950  -30.4770 C   0  0  0  0  0  0  0  0  0  0  0  0
   -4.2760   22.0460  -31.0860 C   0  0  0  0  0  0  0  0  0  0  0  0
   -3.4810   22.8780  -31.5970 O   0  0  0  0  0  0  0  0  0  0  0  0
   -5.6880   22.3180  -31.0820 N   0  0  0  0  0  0  0  0  0  0  0  0
   -6.2900   23.5210  -30.8640 C   0  0  0  0  0  0  0  0  0  0  0  0
   -5.6130   24.7590  -30.4260 C   0  0  0  0  0  0  0  0  0  0  0  0
   -5.8910   25.3490  -29.1560 N   0  0  0  0  0  0  0  0  0  0  0  0
   -4.8100   25.3330  -31.2090 O   0  0  0  0  0  0  0  0  0  0  0  0
   -7.6610   23.4340  -31.0950 C   0  0  0  0  0  0  0  0  0  0  0  0
   -7.8840   22.1270  -31.4630 C   0  0  0  0  0  0  0  0  0  0  0  0
   -9.0650   21.4960  -31.8430 C   0  0  0  0  0  0  0  0  0  0  0  0
   -8.9950   20.1500  -32.2400 C   0  0  0  0  0  0  0  0  0  0  0  0
   -7.7520   19.4690  -32.2660 C   0  0  0  0  0  0  0  0  0  0  0  0
   -7.6790   18.0350  -32.7260 C   0  0  0  0  0  0  0  0  0  0  0  0
   -6.4100   17.3860  -32.2410 C   0  0  0  0  0  0  0  0  0  0  0  0
   -6.2120   17.3110  -30.9980 O   0  0  0  0  0  0  0  0  0  0  0  0
   -5.4070   16.9120  -33.1670 N   0  0  0  0  0  0  0  0  0  0  0  0
   -5.0930   15.4790  -33.2060 C   0  0  0  0  0  0  0  0  0  0  0  0
   -4.7130   17.8330  -34.0920 C   0  0  0  0  0  0  0  0  0  0  0  0
   -5.7050   18.5170  -35.0420 C   0  0  0  0  0  0  0  0  0  0  0  0
   -3.8650   18.8550  -33.3270 C   0  0  0  0  0  0  0  0  0  0  0  0
   -6.5760   20.1400  -31.8590 C   0  0  0  0  0  0  0  0  0  0  0  0
   -6.6780   21.4740  -31.4510 C   0  0  0  0  0  0  0  0  0  0  0  0
   -3.7631   20.8751  -29.3805 H   0  0  0  0  0  0  0  0  0  0  0  0
   -4.3316   19.9344  -30.8013 H   0  0  0  0  0  0  0  0  0  0  0  0
   -2.6862   20.6552  -30.8013 H   0  0  0  0  0  0  0  0  0  0  0  0
   -5.3630   26.1950  -28.8460 H   0  0  0  0  0  0  0  0  0  0  0  0
   -6.6820   25.0120  -28.5640 H   0  0  0  0  0  0  0  0  0  0  0  0
   -8.4059   24.2381  -31.0029 H   0  0  0  0  0  0  0  0  0  0  0  0
  -10.0240   22.0347  -31.8328 H   0  0  0  0  0  0  0  0  0  0  0  0
   -9.9131   19.6199  -32.5333 H   0  0  0  0  0  0  0  0  0  0  0  0
   -8.5426   17.4830  -32.3267 H   0  0  0  0  0  0  0  0  0  0  0  0
   -7.6894   18.0148  -33.8258 H   0  0  0  0  0  0  0  0  0  0  0  0
   -5.0086   15.0940  -32.1790 H   0  0  0  0  0  0  0  0  0  0  0  0
   -5.8948   14.9422  -33.7341 H   0  0  0  0  0  0  0  0  0  0  0  0
   -4.1402   15.3267  -33.7341 H   0  0  0  0  0  0  0  0  0  0  0  0
   -4.0262   17.2353  -34.7093 H   0  0  0  0  0  0  0  0  0  0  0  0
   -6.4707   19.0449  -34.4546 H   0  0  0  0  0  0  0  0  0  0  0  0
   -5.1679   19.2376  -35.6762 H   0  0  0  0  0  0  0  0  0  0  0  0
   -6.1876   17.7588  -35.6762 H   0  0  0  0  0  0  0  0  0  0  0  0
   -3.9927   18.7011  -32.2453 H   0  0  0  0  0  0  0  0  0  0  0  0
   -2.8056   18.7252  -33.5933 H   0  0  0  0  0  0  0  0  0  0  0  0
   -4.1880   19.8722  -33.5933 H   0  0  0  0  0  0  0  0  0  0  0  0
   -5.6039   19.6252  -31.8631 H   0  0  0  0  0  0  0  0  0  0  0  0
  1  2  1  0
  2  3  2  0
  2  4  1  0
  4  5  1  0
  5  6  1  0
  6  7  1  0
  6  8  2  0
  5  9  2  0
  9 10  1  0
 10 11  2  0
 11 12  1  0
 12 13  2  0
 13 14  1  0
 14 15  1  0
 15 16  2  0
 15 17  1  0
 17 18  1  0
 17 19  1  0
 19 20  1  0
 19 21  1  0
 13 22  1  0
 22 23  2  0
 23  4  1  0
 23 10  1  0
  1 24  1  0
  1 25  1  0
  1 26  1  0
  7 27  1  0
  7 28  1  0
  9 29  1  0
 11 30  1  0
 12 31  1  0
 14 32  1  0
 14 33  1  0
 18 34  1  0
 18 35  1  0
 18 36  1  0
 19 37  1  0
 20 38  1  0
 20 39  1  0
 20 40  1  0
 21 41  1  0
 21 42  1  0
 21 43  1  0
 22 44  1  0
M  END
>  <UniqueID>  (52) 
52

>  <SMILES>  (52) 
CC(=O)n1c(C(N)=O)cc2ccc(CC(=O)N(C)C(C)C)cc21

>  <Energy>  (52) 
77.35889603996164

>  <Genealogy>  (52) 
CC(=O)n1c(C(N)=O)cc2ccc(CC(=O)N(C)C(C)C)cc21 (3D coordinates assigned)
CC(=O)n1c(C(N)=O)cc2ccc(CC(=O)N(C)C(C)C)cc21 (optimized conformer: 77.35889603996164 kcal/mol)

>  <smiles>  (52) 
CC(=O)n1c(C(N)=O)cc2ccc(CC(=O)N(C)C(C)C)cc21

>  <score_type>  (52) 
oracle

>  <origin>  (52) 
adg

>  <m_score__min__energy>  (52) 
-8.9199999999999999

>  <m_primary>  (52) 
energy

$$$$
52:0
     RDKit          3D

 40 41  0  0  0  0  0  0  0  0999 V2000
   -2.3530   21.2030  -31.1530 C   0  0  0  0  0  0  0  0  0  0  0  0
   -2.1640   21.5920  -32.6210 C   0  0  0  0  0  0  0  0  0  0  0  0
   -0.9330   20.9020  -33.2020 C   0  0  0  0  0  0  0  0  0  0  0  0
   -3.3080   21.2050  -33.3830 O   0  0  0  0  0  0  0  0  0  0  0  0
   -4.0020   20.0040  -33.1920 C   0  0  0  0  0  0  0  0  0  0  0  0
   -3.3910   18.9010  -33.2290 O   0  0  0  0  0  0  0  0  0  0  0  0
   -5.4200   20.0350  -32.9650 N   0  0  0  0  0  0  0  0  0  0  0  0
   -6.3640   19.1750  -33.4430 C   0  0  0  0  0  0  0  0  0  0  0  0
   -6.0920   17.9410  -34.2150 C   0  0  0  0  0  0  0  0  0  0  0  0
   -4.9800   17.8690  -35.1080 N   0  0  0  0  0  0  0  0  0  0  0  0
   -6.8600   16.9480  -34.1130 O   0  0  0  0  0  0  0  0  0  0  0  0
   -7.6340   19.5620  -33.0170 C   0  0  0  0  0  0  0  0  0  0  0  0
   -7.4360   20.6920  -32.2560 C   0  0  0  0  0  0  0  0  0  0  0  0
   -8.3550   21.4860  -31.5770 C   0  0  0  0  0  0  0  0  0  0  0  0
   -7.8690   22.6020  -30.8750 C   0  0  0  0  0  0  0  0  0  0  0  0
   -6.4860   22.9120  -30.8820 C   0  0  0  0  0  0  0  0  0  0  0  0
   -5.9710   24.0980  -30.1070 C   0  0  0  0  0  0  0  0  0  0  0  0
   -4.5620   23.8480  -29.5560 C   0  0  0  0  0  0  0  0  0  0  0  0
   -3.6010   24.9150  -29.9840 C   0  0  0  0  0  0  0  0  0  0  0  0
   -3.8840   25.6730  -30.9490 O   0  0  0  0  0  0  0  0  0  0  0  0
   -2.3730   25.0450  -29.3460 O   0  0  0  0  0  0  0  0  0  0  0  0
   -5.5840   22.0790  -31.5790 C   0  0  0  0  0  0  0  0  0  0  0  0
   -6.0930   20.9580  -32.2450 C   0  0  0  0  0  0  0  0  0  0  0  0
   -1.9635   22.0046  -30.5082 H   0  0  0  0  0  0  0  0  0  0  0  0
   -3.4235   21.0549  -30.9478 H   0  0  0  0  0  0  0  0  0  0  0  0
   -1.8078   20.2699  -30.9478 H   0  0  0  0  0  0  0  0  0  0  0  0
   -2.0323   22.6829  -32.6711 H   0  0  0  0  0  0  0  0  0  0  0  0
   -0.2928   20.5432  -32.3826 H   0  0  0  0  0  0  0  0  0  0  0  0
   -1.2486   20.0493  -33.8211 H   0  0  0  0  0  0  0  0  0  0  0  0
   -0.3703   21.6162  -33.8211 H   0  0  0  0  0  0  0  0  0  0  0  0
   -4.8190   17.0090  -35.6760 H   0  0  0  0  0  0  0  0  0  0  0  0
   -4.2890   18.6490  -35.1790 H   0  0  0  0  0  0  0  0  0  0  0  0
   -8.5913   19.0689  -33.2414 H   0  0  0  0  0  0  0  0  0  0  0  0
   -9.4287   21.2474  -31.5894 H   0  0  0  0  0  0  0  0  0  0  0  0
   -8.5680   23.2407  -30.3151 H   0  0  0  0  0  0  0  0  0  0  0  0
   -5.9433   24.9736  -30.7723 H   0  0  0  0  0  0  0  0  0  0  0  0
   -6.6461   24.2703  -29.2558 H   0  0  0  0  0  0  0  0  0  0  0  0
   -4.6073   23.8293  -28.4571 H   0  0  0  0  0  0  0  0  0  0  0  0
   -4.2048   22.8862  -29.9528 H   0  0  0  0  0  0  0  0  0  0  0  0
   -4.5077   22.3054  -31.5982 H   0  0  0  0  0  0  0  0  0  0  0  0
  1  2  1  0
  2  3  1  0
  2  4  1  0
  4  5  1  0
  5  6  2  0
  5  7  1  0
  7  8  1  0
  8  9  1  0
  9 10  1  0
  9 11  2  0
  8 12  2  0
 12 13  1  0
 13 14  2  0
 14 15  1  0
 15 16  2  0
 16 17  1  0
 17 18  1  0
 18 19  1  0
 19 20  2  0
 19 21  1  0
 16 22  1  0
 22 23  2  0
 23  7  1  0
 23 13  1  0
  1 24  1  0
  1 25  1  0
  1 26  1  0
  2 27  1  0
  3 28  1  0
  3 29  1  0
  3 30  1  0
 10 31  1  0
 10 32  1  0
 12 33  1  0
 14 34  1  0
 15 35  1  0
 17 36  1  0
 17 37  1  0
 18 38  1  0
 18 39  1  0
 22 40  1  0
M  CHG  1  21  -1
M  END
>  <UniqueID>  (53) 
53

>  <SMILES>  (53) 
CC(C)OC(=O)n1c(C(N)=O)cc2ccc(CCC(=O)[O-])cc21

>  <Energy>  (53) 
68.08493858815112

>  <Genealogy>  (53) 
CC(C)OC(=O)n1c(C(N)=O)cc2ccc(CCC(=O)[O-])cc21 (protonated)
CC(C)OC(=O)n1c(C(N)=O)cc2ccc(CCC(=O)[O-])cc21 (3D coordinates assigned)
CC(C)OC(=O)n1c(C(N)=O)cc2ccc(CCC(=O)[O-])cc21 (optimized conformer: 68.08493858815112 kcal/mol)

>  <smiles>  (53) 
CC(C)OC(=O)n1c(C(N)=O)cc2ccc(CCC(=O)O)cc21

>  <score_type>  (53) 
oracle

>  <origin>  (53) 
adg

>  <m_score__min__energy>  (53) 
-9.9600000000000009

>  <m_primary>  (53) 
energy

$$$$
53:0
     RDKit          3D

 51 52  0  0  0  0  0  0  0  0999 V2000
   -3.4290   15.4850  -33.3820 C   0  0  0  0  0  0  0  0  0  0  0  0
   -3.5840   16.0470  -34.6650 O   0  0  0  0  0  0  0  0  0  0  0  0
   -2.6690   17.1090  -34.8570 C   0  0  0  0  0  0  0  0  0  0  0  0
   -3.2190   18.5730  -33.9210 P   0  0  1  0  0  0  0  0  0  0  0  0
   -2.6450   19.8040  -34.5840 O   0  0  0  0  0  0  0  0  0  0  0  0
   -5.0430   18.6890  -33.9570 C   0  0  0  0  0  0  0  0  0  0  0  0
   -5.6650   18.0530  -32.7080 C   0  0  0  0  0  0  0  0  0  0  0  0
   -7.1240   18.4830  -32.5040 C   0  0  0  0  0  0  0  0  0  0  0  0
   -7.2300   19.9160  -32.0480 C   0  0  0  0  0  0  0  0  0  0  0  0
   -8.5010   20.5270  -31.9050 C   0  0  0  0  0  0  0  0  0  0  0  0
   -8.6070   21.8760  -31.5290 C   0  0  0  0  0  0  0  0  0  0  0  0
   -7.4320   22.5840  -31.3000 C   0  0  0  0  0  0  0  0  0  0  0  0
   -7.2460   23.9040  -30.9560 C   0  0  0  0  0  0  0  0  0  0  0  0
   -5.8670   24.0760  -30.8790 C   0  0  0  0  0  0  0  0  0  0  0  0
   -5.2270   25.3370  -30.4510 C   0  0  0  0  0  0  0  0  0  0  0  0
   -3.8880   25.6240  -30.8500 N   0  0  0  0  0  0  0  0  0  0  0  0
   -5.8610   26.1840  -29.7700 O   0  0  0  0  0  0  0  0  0  0  0  0
   -5.2220   22.9100  -31.1700 N   0  0  0  0  0  0  0  0  0  0  0  0
   -3.8040   22.6910  -31.2720 C   0  0  0  0  0  0  0  0  0  0  0  0
   -3.0440   22.9820  -30.3110 O   0  0  0  0  0  0  0  0  0  0  0  0
   -3.2630   22.1300  -32.4220 O   0  0  0  0  0  0  0  0  0  0  0  0
   -6.1940   22.0060  -31.4220 C   0  0  0  0  0  0  0  0  0  0  0  0
   -6.0580   20.6690  -31.8120 C   0  0  0  0  0  0  0  0  0  0  0  0
   -2.6170   18.5020  -32.3240 O   0  0  0  0  0  0  0  0  0  0  0  0
   -2.0120   19.7310  -31.9960 C   0  0  0  0  0  0  0  0  0  0  0  0
   -0.8180   19.8830  -32.7590 O   0  0  0  0  0  0  0  0  0  0  0  0
   -0.0130   21.0230  -32.6920 C   0  0  0  0  0  0  0  0  0  0  0  0
    0.2510   21.5580  -31.5800 O   0  0  0  0  0  0  0  0  0  0  0  0
    0.4970   21.5610  -33.8760 O   0  0  0  0  0  0  0  0  0  0  0  0
    0.0200   21.1780  -35.1600 C   0  0  0  0  0  0  0  0  0  0  0  0
   -3.6397   16.2490  -32.6192 H   0  0  0  0  0  0  0  0  0  0  0  0
   -4.1290   14.6449  -33.2627 H   0  0  0  0  0  0  0  0  0  0  0  0
   -2.3973   15.1225  -33.2627 H   0  0  0  0  0  0  0  0  0  0  0  0
   -1.6736   16.8021  -34.5035 H   0  0  0  0  0  0  0  0  0  0  0  0
   -2.6210   17.3586  -35.9272 H   0  0  0  0  0  0  0  0  0  0  0  0
   -5.3341   19.7488  -34.0026 H   0  0  0  0  0  0  0  0  0  0  0  0
   -5.4086   18.1474  -34.8419 H   0  0  0  0  0  0  0  0  0  0  0  0
   -5.6296   16.9586  -32.8127 H   0  0  0  0  0  0  0  0  0  0  0  0
   -5.0881   18.3904  -31.8343 H   0  0  0  0  0  0  0  0  0  0  0  0
   -7.6637   18.3721  -33.4560 H   0  0  0  0  0  0  0  0  0  0  0  0
   -7.5614   17.8438  -31.7229 H   0  0  0  0  0  0  0  0  0  0  0  0
   -9.4123   19.9394  -32.0901 H   0  0  0  0  0  0  0  0  0  0  0  0
   -9.5896   22.3580  -31.4189 H   0  0  0  0  0  0  0  0  0  0  0  0
   -8.0230   24.6624  -30.7794 H   0  0  0  0  0  0  0  0  0  0  0  0
   -3.0770   25.1880  -30.3600 H   0  0  0  0  0  0  0  0  0  0  0  0
   -5.0631   20.2154  -31.9319 H   0  0  0  0  0  0  0  0  0  0  0  0
   -2.7035   20.5548  -32.2266 H   0  0  0  0  0  0  0  0  0  0  0  0
   -1.7702   19.7496  -30.9231 H   0  0  0  0  0  0  0  0  0  0  0  0
   -0.8330   20.4931  -35.0450 H   0  0  0  0  0  0  0  0  0  0  0  0
   -0.3003   22.0727  -35.7141 H   0  0  0  0  0  0  0  0  0  0  0  0
    0.8244   20.6720  -35.7141 H   0  0  0  0  0  0  0  0  0  0  0  0
  1  2  1  0
  2  3  1  0
  3  4  1  0
  4  5  2  0
  4  6  1  0
  6  7  1  0
  7  8  1  0
  8  9  1  0
  9 10  2  0
 10 11  1  0
 11 12  2  0
 12 13  1  0
 13 14  2  0
 14 15  1  0
 15 16  1  0
 15 17  2  0
 14 18  1  0
 18 19  1  0
 19 20  2  0
 19 21  1  0
 18 22  1  0
 22 23  2  0
  4 24  1  1
 24 25  1  0
 25 26  1  0
 26 27  1  0
 27 28  2  0
 27 29  1  0
 29 30  1  0
 23  9  1  0
 22 12  1  0
  1 31  1  0
  1 32  1  0
  1 33  1  0
  3 34  1  0
  3 35  1  0
  6 36  1  0
  6 37  1  0
  7 38  1  0
  7 39  1  0
  8 40  1  0
  8 41  1  0
 10 42  1  0
 11 43  1  0
 13 44  1  0
 16 45  1  0
 23 46  1  0
 25 47  1  0
 25 48  1  0
 30 49  1  0
 30 50  1  0
 30 51  1  0
M  CHG  2  16  -1  21  -1
M  END
>  <UniqueID>  (54) 
54

>  <SMILES>  (54) 
COC[P@@](=O)(CCCc1ccc2cc(C([NH-])=O)n(C(=O)[O-])c2c1)OCOC(=O)OC

>  <Energy>  (54) 
76.42356938103428

>  <Genealogy>  (54) 
COCP(=O)(CCCc1ccc2cc(C([NH-])=O)n(C(=O)[O-])c2c1)OCOC(=O)OC (protonated)
COC[P@@](=O)(CCCc1ccc2cc(C([NH-])=O)n(C(=O)[O-])c2c1)OCOC(=O)OC (chirality)
COC[P@@](=O)(CCCc1ccc2cc(C([NH-])=O)n(C(=O)[O-])c2c1)OCOC(=O)OC (3D coordinates assigned)
COC[P@@](=O)(CCCc1ccc2cc(C([NH-])=O)n(C(=O)[O-])c2c1)OCOC(=O)OC (optimized conformer: 76.42356938103428 kcal/mol)

>  <smiles>  (54) 
COCP(=O)(CCCc1ccc2cc(C(N)=O)n(C(=O)O)c2c1)OCOC(=O)OC

>  <score_type>  (54) 
oracle

>  <origin>  (54) 
adg

>  <m_score__min__energy>  (54) 
-10.039999999999999

>  <m_primary>  (54) 
energy

$$$$
54:0
     RDKit          3D

 26 27  0  0  0  0  0  0  0  0999 V2000
   -5.4660   17.5130  -34.9040 N   0  0  0  0  0  0  0  0  0  0  0  0
   -4.8550   18.2570  -34.2610 C   0  0  0  0  0  0  0  0  0  0  0  0
   -4.0810   19.1990  -33.4460 C   0  0  0  0  0  0  0  0  0  0  0  0
   -4.9810   20.2810  -32.9200 C   0  0  0  0  0  0  0  0  0  0  0  0
   -6.3810   20.2030  -33.1230 C   0  0  0  0  0  0  0  0  0  0  0  0
   -7.2340   21.2000  -32.6230 C   0  0  0  0  0  0  0  0  0  0  0  0
   -6.6630   22.2490  -31.9090 C   0  0  0  0  0  0  0  0  0  0  0  0
   -7.2530   23.3540  -31.3420 C   0  0  0  0  0  0  0  0  0  0  0  0
   -6.2090   24.0720  -30.7640 C   0  0  0  0  0  0  0  0  0  0  0  0
   -6.4110   25.3090  -29.9860 C   0  0  0  0  0  0  0  0  0  0  0  0
   -5.6390   26.4820  -30.2480 N   0  0  0  0  0  0  0  0  0  0  0  0
   -7.2380   25.3150  -29.0350 O   0  0  0  0  0  0  0  0  0  0  0  0
   -5.0180   23.4450  -30.9740 N   0  0  0  0  0  0  0  0  0  0  0  0
   -3.7070   23.9320  -30.6390 C   0  0  0  0  0  0  0  0  0  0  0  0
   -2.7440   23.1340  -30.5000 O   0  0  0  0  0  0  0  0  0  0  0  0
   -3.4880   25.2950  -30.4700 O   0  0  0  0  0  0  0  0  0  0  0  0
   -5.3130   22.3270  -31.6760 C   0  0  0  0  0  0  0  0  0  0  0  0
   -4.4380   21.3560  -32.1810 C   0  0  0  0  0  0  0  0  0  0  0  0
   -3.6252   18.6614  -32.6015 H   0  0  0  0  0  0  0  0  0  0  0  0
   -3.2943   19.6528  -34.0667 H   0  0  0  0  0  0  0  0  0  0  0  0
   -6.8041   19.3527  -33.6780 H   0  0  0  0  0  0  0  0  0  0  0  0
   -8.3202   21.1532  -32.7906 H   0  0  0  0  0  0  0  0  0  0  0  0
   -8.3215   23.6152  -31.3444 H   0  0  0  0  0  0  0  0  0  0  0  0
   -4.8370   26.4610  -30.9150 H   0  0  0  0  0  0  0  0  0  0  0  0
   -5.8200   27.3600  -29.7130 H   0  0  0  0  0  0  0  0  0  0  0  0
   -3.3544   21.4289  -32.0063 H   0  0  0  0  0  0  0  0  0  0  0  0
  1  2  3  0
  2  3  1  0
  3  4  1  0
  4  5  2  0
  5  6  1  0
  6  7  2  0
  7  8  1  0
  8  9  2  0
  9 10  1  0
 10 11  1  0
 10 12  2  0
  9 13  1  0
 13 14  1  0
 14 15  2  0
 14 16  1  0
 13 17  1  0
 17 18  2  0
 18  4  1  0
 17  7  1  0
  3 19  1  0
  3 20  1  0
  5 21  1  0
  6 22  1  0
  8 23  1  0
 11 24  1  0
 11 25  1  0
 18 26  1  0
M  CHG  1  16  -1
M  END
>  <UniqueID>  (55) 
55

>  <SMILES>  (55) 
N#CCc1ccc2cc(C(N)=O)n(C(=O)[O-])c2c1

>  <Energy>  (55) 
64.68738371304585

>  <Genealogy>  (55) 
N#CCc1ccc2cc(C(N)=O)n(C(=O)[O-])c2c1 (protonated)
N#CCc1ccc2cc(C(N)=O)n(C(=O)[O-])c2c1 (3D coordinates assigned)
N#CCc1ccc2cc(C(N)=O)n(C(=O)[O-])c2c1 (optimized conformer: 64.68738371304585 kcal/mol)

>  <smiles>  (55) 
N#CCc1ccc2cc(C(N)=O)n(C(=O)O)c2c1

>  <score_type>  (55) 
oracle

>  <origin>  (55) 
adg

>  <m_score__min__energy>  (55) 
-8.5099999999999998

>  <m_primary>  (55) 
energy

$$$$
55:0
     RDKit          3D

 34 35  0  0  0  0  0  0  0  0999 V2000
   -1.5770   25.6800  -28.9990 N   0  0  0  0  0  0  0  0  0  0  0  0
   -1.0740   24.3560  -29.1500 C   0  0  0  0  0  0  0  0  0  0  0  0
   -0.0280   24.0200  -28.5340 O   0  0  0  0  0  0  0  0  0  0  0  0
   -1.7560   23.4090  -30.0570 C   0  0  0  0  0  0  0  0  0  0  0  0
   -1.1550   22.2540  -30.5510 C   0  0  0  0  0  0  0  0  0  0  0  0
   -2.1340   21.6130  -31.2750 C   0  0  0  0  0  0  0  0  0  0  0  0
   -2.0790   20.4240  -31.9970 C   0  0  0  0  0  0  0  0  0  0  0  0
   -3.2350   20.0160  -32.6820 C   0  0  0  0  0  0  0  0  0  0  0  0
   -4.4150   20.7990  -32.6360 C   0  0  0  0  0  0  0  0  0  0  0  0
   -5.6300   20.3860  -33.4260 C   0  0  0  0  0  0  0  0  0  0  0  0
   -6.6830   19.6780  -32.5570 C   0  0  0  0  0  0  0  0  0  0  0  0
   -6.9860   18.2410  -33.0180 C   0  0  0  0  0  0  0  0  0  0  0  0
   -6.3760   17.9470  -34.3160 N   0  0  0  0  0  0  0  0  0  0  0  0
   -5.0890   17.3290  -34.4170 C   0  0  0  0  0  0  0  0  0  0  0  0
   -4.4470   17.0110  -33.3810 O   0  0  0  0  0  0  0  0  0  0  0  0
   -4.5410   17.0800  -35.6680 O   0  0  0  0  0  0  0  0  0  0  0  0
   -4.4330   22.0010  -31.8930 C   0  0  0  0  0  0  0  0  0  0  0  0
   -3.2720   22.3740  -31.2060 C   0  0  0  0  0  0  0  0  0  0  0  0
   -3.0560   23.4840  -30.4650 N   0  0  0  0  0  0  0  0  0  0  0  0
   -3.9960   24.5440  -30.2280 C   0  0  0  0  0  0  0  0  0  0  0  0
   -3.8530   25.6610  -30.7900 O   0  0  0  0  0  0  0  0  0  0  0  0
   -5.0880   24.3380  -29.3930 O   0  0  0  0  0  0  0  0  0  0  0  0
   -2.6030   25.8700  -29.0170 H   0  0  0  0  0  0  0  0  0  0  0  0
   -0.1173   21.9239  -30.3954 H   0  0  0  0  0  0  0  0  0  0  0  0
   -1.1585   19.8227  -32.0299 H   0  0  0  0  0  0  0  0  0  0  0  0
   -3.2243   19.0799  -33.2596 H   0  0  0  0  0  0  0  0  0  0  0  0
   -6.0845   21.2840  -33.8699 H   0  0  0  0  0  0  0  0  0  0  0  0
   -5.3013   19.6758  -34.1990 H   0  0  0  0  0  0  0  0  0  0  0  0
   -6.3141   19.6420  -31.5213 H   0  0  0  0  0  0  0  0  0  0  0  0
   -7.6172   20.2521  -32.6444 H   0  0  0  0  0  0  0  0  0  0  0  0
   -6.5910   17.5366  -32.2711 H   0  0  0  0  0  0  0  0  0  0  0  0
   -8.0763   18.1374  -33.1210 H   0  0  0  0  0  0  0  0  0  0  0  0
   -6.8790   18.1760  -35.2030 H   0  0  0  0  0  0  0  0  0  0  0  0
   -5.3364   22.6275  -31.8555 H   0  0  0  0  0  0  0  0  0  0  0  0
  1  2  1  0
  2  3  2  0
  2  4  1  0
  4  5  2  0
  5  6  1  0
  6  7  2  0
  7  8  1  0
  8  9  2  0
  9 10  1  0
 10 11  1  0
 11 12  1  0
 12 13  1  0
 13 14  1  0
 14 15  2  0
 14 16  1  0
  9 17  1  0
 17 18  2  0
 18 19  1  0
 19 20  1  0
 20 21  2  0
 20 22  1  0
 19  4  1  0
 18  6  1  0
  1 23  1  0
  5 24  1  0
  7 25  1  0
  8 26  1  0
 10 27  1  0
 10 28  1  0
 11 29  1  0
 11 30  1  0
 12 31  1  0
 12 32  1  0
 13 33  1  0
 17 34  1  0
M  CHG  3   1  -1  16  -1  22  -1
M  END
>  <UniqueID>  (56) 
56

>  <SMILES>  (56) 
[NH-]C(=O)c1cc2ccc(CCCNC(=O)[O-])cc2n1C(=O)[O-]

>  <Energy>  (56) 
67.13047102593316

>  <Genealogy>  (56) 
[NH-]C(=O)c1cc2ccc(CCCNC(=O)[O-])cc2n1C(=O)[O-] (protonated)
[NH-]C(=O)c1cc2ccc(CCCNC(=O)[O-])cc2n1C(=O)[O-] (3D coordinates assigned)
[NH-]C(=O)c1cc2ccc(CCCNC(=O)[O-])cc2n1C(=O)[O-] (optimized conformer: 67.13047102593316 kcal/mol)

>  <smiles>  (56) 
NC(=O)c1cc2ccc(CCCNC(=O)O)cc2n1C(=O)O

>  <score_type>  (56) 
oracle

>  <origin>  (56) 
adg

>  <m_score__min__energy>  (56) 
-11.01

>  <m_primary>  (56) 
energy

$$$$
56:0
     RDKit          3D

 50 52  0  0  0  0  0  0  0  0999 V2000
   -0.8530   23.3570  -29.3390 C   0  0  0  0  0  0  0  0  0  0  0  0
   -2.1960   23.4040  -28.6880 C   0  0  0  0  0  0  0  0  0  0  0  0
   -2.6600   24.4230  -28.0020 O   0  0  0  0  0  0  0  0  0  0  0  0
   -3.8520   24.0600  -27.5850 C   0  0  0  0  0  0  0  0  0  0  0  0
   -4.6010   24.7940  -26.8910 O   0  0  0  0  0  0  0  0  0  0  0  0
   -4.1770   22.8470  -27.9720 O   0  0  0  0  0  0  0  0  0  0  0  0
   -3.1540   22.4060  -28.6670 C   0  0  0  0  0  0  0  0  0  0  0  0
   -3.0740   21.0570  -29.3010 C   0  0  0  0  0  0  0  0  0  0  0  0
   -3.8160   21.0650  -30.5150 O   0  0  0  0  0  0  0  0  0  0  0  0
   -4.2030   22.2420  -31.1610 C   0  0  0  0  0  0  0  0  0  0  0  0
   -3.3310   23.0240  -31.6290 O   0  0  0  0  0  0  0  0  0  0  0  0
   -5.6000   22.5570  -31.2870 N   0  0  0  0  0  0  0  0  0  0  0  0
   -6.2340   23.6750  -30.8330 C   0  0  0  0  0  0  0  0  0  0  0  0
   -5.5780   24.8750  -30.2760 C   0  0  0  0  0  0  0  0  0  0  0  0
   -5.8310   25.3020  -28.9370 N   0  0  0  0  0  0  0  0  0  0  0  0
   -4.7400   25.5040  -30.9750 O   0  0  0  0  0  0  0  0  0  0  0  0
   -7.6110   23.5660  -31.0030 C   0  0  0  0  0  0  0  0  0  0  0  0
   -7.8070   22.3380  -31.5900 C   0  0  0  0  0  0  0  0  0  0  0  0
   -8.9880   21.7100  -31.9720 C   0  0  0  0  0  0  0  0  0  0  0  0
   -8.8980   20.4210  -32.5200 C   0  0  0  0  0  0  0  0  0  0  0  0
   -7.6460   19.7730  -32.6570 C   0  0  0  0  0  0  0  0  0  0  0  0
   -7.6080   18.4500  -33.2270 N   0  0  0  0  0  0  0  0  0  0  0  0
   -6.4330   17.5490  -33.2470 C   0  0  0  0  0  0  0  0  0  0  0  0
   -5.9490   17.3540  -31.7920 C   0  0  0  0  0  0  0  0  0  0  0  0
   -6.8410   16.1730  -33.8090 C   0  0  0  0  0  0  0  0  0  0  0  0
   -5.2770   18.1600  -34.0820 C   0  0  0  0  0  0  0  0  0  0  0  0
   -5.7320   18.5670  -35.3440 O   0  0  0  0  0  0  0  0  0  0  0  0
   -6.4670   20.4530  -32.2760 C   0  0  0  0  0  0  0  0  0  0  0  0
   -6.5800   21.7450  -31.7490 C   0  0  0  0  0  0  0  0  0  0  0  0
   -0.0714   23.3296  -28.5655 H   0  0  0  0  0  0  0  0  0  0  0  0
   -0.7806   22.4558  -29.9655 H   0  0  0  0  0  0  0  0  0  0  0  0
   -0.7177   24.2510  -29.9655 H   0  0  0  0  0  0  0  0  0  0  0  0
   -2.0229   20.8125  -29.5140 H   0  0  0  0  0  0  0  0  0  0  0  0
   -3.4917   20.3027  -28.6180 H   0  0  0  0  0  0  0  0  0  0  0  0
   -6.3910   24.7130  -28.2800 H   0  0  0  0  0  0  0  0  0  0  0  0
   -5.3960   26.1790  -28.5750 H   0  0  0  0  0  0  0  0  0  0  0  0
   -8.3784   24.3042  -30.7269 H   0  0  0  0  0  0  0  0  0  0  0  0
   -9.9612   22.2077  -31.8485 H   0  0  0  0  0  0  0  0  0  0  0  0
   -9.8133   19.9064  -32.8479 H   0  0  0  0  0  0  0  0  0  0  0  0
   -8.5430   18.0280  -33.4290 H   0  0  0  0  0  0  0  0  0  0  0  0
   -6.7397   17.6726  -31.0968 H   0  0  0  0  0  0  0  0  0  0  0  0
   -5.7171   16.2923  -31.6219 H   0  0  0  0  0  0  0  0  0  0  0  0
   -5.0458   17.9584  -31.6219 H   0  0  0  0  0  0  0  0  0  0  0  0
   -7.0456   15.4831  -32.9770 H   0  0  0  0  0  0  0  0  0  0  0  0
   -7.7454   16.2823  -34.4255 H   0  0  0  0  0  0  0  0  0  0  0  0
   -6.0232   15.7716  -34.4255 H   0  0  0  0  0  0  0  0  0  0  0  0
   -4.8686   19.0309  -33.5484 H   0  0  0  0  0  0  0  0  0  0  0  0
   -4.4996   17.3939  -34.2191 H   0  0  0  0  0  0  0  0  0  0  0  0
   -6.6630   18.8870  -35.2140 H   0  0  0  0  0  0  0  0  0  0  0  0
   -5.4819   19.9773  -32.3911 H   0  0  0  0  0  0  0  0  0  0  0  0
  1  2  1  0
  2  3  1  0
  3  4  1  0
  4  5  2  0
  4  6  1  0
  6  7  1  0
  7  8  1  0
  8  9  1  0
  9 10  1  0
 10 11  2  0
 10 12  1  0
 12 13  1  0
 13 14  1  0
 14 15  1  0
 14 16  2  0
 13 17  2  0
 17 18  1  0
 18 19  2  0
 19 20  1  0
 20 21  2  0
 21 22  1  0
 22 23  1  0
 23 24  1  0
 23 25  1  0
 23 26  1  0
 26 27  1  0
 21 28  1  0
 28 29  2  0
  7  2  2  0
 29 12  1  0
 29 18  1  0
  1 30  1  0
  1 31  1  0
  1 32  1  0
  8 33  1  0
  8 34  1  0
 15 35  1  0
 15 36  1  0
 17 37  1  0
 19 38  1  0
 20 39  1  0
 22 40  1  0
 24 41  1  0
 24 42  1  0
 24 43  1  0
 25 44  1  0
 25 45  1  0
 25 46  1  0
 26 47  1  0
 26 48  1  0
 27 49  1  0
 28 50  1  0
M  END
>  <UniqueID>  (57) 
57

>  <SMILES>  (57) 
Cc1oc(=O)oc1COC(=O)n1c(C(N)=O)cc2ccc(NC(C)(C)CO)cc21

>  <Energy>  (57) 
122.02727831175673

>  <Genealogy>  (57) 
Cc1oc(=O)oc1COC(=O)n1c(C(N)=O)cc2ccc(NC(C)(C)CO)cc21 (3D coordinates assigned)
Cc1oc(=O)oc1COC(=O)n1c(C(N)=O)cc2ccc(NC(C)(C)CO)cc21 (optimized conformer: 122.02727831175673 kcal/mol)

>  <smiles>  (57) 
Cc1oc(=O)oc1COC(=O)n1c(C(N)=O)cc2ccc(NC(C)(C)CO)cc21

>  <score_type>  (57) 
oracle

>  <origin>  (57) 
adg

>  <m_score__min__energy>  (57) 
-9.3200000000000003

>  <m_primary>  (57) 
energy

$$$$
57:0
     RDKit          3D

 30 31  0  0  0  0  0  0  0  0999 V2000
   -3.9110   25.6710  -30.8610 N   0  0  0  0  0  0  0  0  0  0  0  0
   -5.1760   25.1760  -30.4270 C   0  0  0  0  0  0  0  0  0  0  0  0
   -5.8680   25.8630  -29.6310 O   0  0  0  0  0  0  0  0  0  0  0  0
   -5.6770   23.8850  -30.9460 C   0  0  0  0  0  0  0  0  0  0  0  0
   -7.0200   23.6360  -31.2150 C   0  0  0  0  0  0  0  0  0  0  0  0
   -7.0790   22.3120  -31.5870 C   0  0  0  0  0  0  0  0  0  0  0  0
   -8.1690   21.5390  -31.9730 C   0  0  0  0  0  0  0  0  0  0  0  0
   -7.9340   20.2000  -32.3300 C   0  0  0  0  0  0  0  0  0  0  0  0
   -6.6210   19.6650  -32.3030 C   0  0  0  0  0  0  0  0  0  0  0  0
   -6.3710   18.2400  -32.7030 C   0  0  0  0  0  0  0  0  0  0  0  0
   -6.0970   18.1750  -34.0570 F   0  0  0  0  0  0  0  0  0  0  0  0
   -7.4910   17.4770  -32.4270 F   0  0  0  0  0  0  0  0  0  0  0  0
   -5.5390   20.4830  -31.9080 C   0  0  0  0  0  0  0  0  0  0  0  0
   -5.8050   21.8070  -31.5400 C   0  0  0  0  0  0  0  0  0  0  0  0
   -4.9310   22.7610  -31.1520 N   0  0  0  0  0  0  0  0  0  0  0  0
   -3.5070   22.6130  -31.0410 C   0  0  0  0  0  0  0  0  0  0  0  0
   -2.8900   21.8520  -31.8360 O   0  0  0  0  0  0  0  0  0  0  0  0
   -2.8150   23.2960  -30.0360 O   0  0  0  0  0  0  0  0  0  0  0  0
   -1.4070   23.1880  -29.8420 C   0  0  0  0  0  0  0  0  0  0  0  0
   -0.8720   24.4330  -29.2090 C   0  0  0  0  0  0  0  0  0  0  0  0
    0.2270   24.4120  -28.5960 O   0  0  0  0  0  0  0  0  0  0  0  0
   -1.5760   25.6250  -29.3210 O   0  0  0  0  0  0  0  0  0  0  0  0
   -3.0220   25.2990  -30.4580 H   0  0  0  0  0  0  0  0  0  0  0  0
   -7.8567   24.3467  -31.1451 H   0  0  0  0  0  0  0  0  0  0  0  0
   -9.1839   21.9626  -31.9981 H   0  0  0  0  0  0  0  0  0  0  0  0
   -8.7765   19.5611  -32.6332 H   0  0  0  0  0  0  0  0  0  0  0  0
   -5.5114   17.8527  -32.1364 H   0  0  0  0  0  0  0  0  0  0  0  0
   -4.5122   20.0889  -31.8901 H   0  0  0  0  0  0  0  0  0  0  0  0
   -1.1959   22.3291  -29.1880 H   0  0  0  0  0  0  0  0  0  0  0  0
   -0.9215   23.0469  -30.8189 H   0  0  0  0  0  0  0  0  0  0  0  0
  1  2  1  0
  2  3  2  0
  2  4  1  0
  4  5  2  0
  5  6  1  0
  6  7  2  0
  7  8  1  0
  8  9  2  0
  9 10  1  0
 10 11  1  0
 10 12  1  0
  9 13  1  0
 13 14  2  0
 14 15  1  0
 15 16  1  0
 16 17  2  0
 16 18  1  0
 18 19  1  0
 19 20  1  0
 20 21  2  0
 20 22  1  0
 15  4  1  0
 14  6  1  0
  1 23  1  0
  5 24  1  0
  7 25  1  0
  8 26  1  0
 10 27  1  0
 13 28  1  0
 19 29  1  0
 19 30  1  0
M  CHG  2   1  -1  22  -1
M  END
>  <UniqueID>  (58) 
58

>  <SMILES>  (58) 
[NH-]C(=O)c1cc2ccc(C(F)F)cc2n1C(=O)OCC(=O)[O-]

>  <Energy>  (58) 
66.58636934985307

>  <Genealogy>  (58) 
[NH-]C(=O)c1cc2ccc(C(F)F)cc2n1C(=O)OCC(=O)[O-] (protonated)
[NH-]C(=O)c1cc2ccc(C(F)F)cc2n1C(=O)OCC(=O)[O-] (3D coordinates assigned)
[NH-]C(=O)c1cc2ccc(C(F)F)cc2n1C(=O)OCC(=O)[O-] (optimized conformer: 66.58636934985307 kcal/mol)

>  <smiles>  (58) 
NC(=O)c1cc2ccc(C(F)F)cc2n1C(=O)OCC(=O)O

>  <score_type>  (58) 
oracle

>  <origin>  (58) 
adg

>  <m_score__min__energy>  (58) 
-11.48

>  <m_primary>  (58) 
energy

$$$$
58:0
     RDKit          3D

 46 48  0  0  0  0  0  0  0  0999 V2000
   -3.9420   25.6360  -30.8450 N   0  0  0  0  0  0  0  0  0  0  0  0
   -5.3210   25.4290  -30.5400 C   0  0  0  0  0  0  0  0  0  0  0  0
   -5.9850   26.3620  -30.0090 O   0  0  0  0  0  0  0  0  0  0  0  0
   -5.9680   24.1490  -30.8900 C   0  0  0  0  0  0  0  0  0  0  0  0
   -7.3420   23.9940  -31.0600 C   0  0  0  0  0  0  0  0  0  0  0  0
   -7.5320   22.6470  -31.2650 C   0  0  0  0  0  0  0  0  0  0  0  0
   -8.7030   21.9270  -31.4760 C   0  0  0  0  0  0  0  0  0  0  0  0
   -8.5980   20.5380  -31.6600 C   0  0  0  0  0  0  0  0  0  0  0  0
   -7.3330   19.9000  -31.6450 C   0  0  0  0  0  0  0  0  0  0  0  0
   -7.2200   18.4180  -31.8870 C   0  0  0  0  0  0  0  0  0  0  0  0
   -5.9590   18.0530  -32.7060 C   0  0  2  0  0  0  0  0  0  0  0  0
   -6.0960   18.5190  -34.1700 C   0  0  0  0  0  0  0  0  0  0  0  0
   -4.9170   18.1780  -34.9830 N   0  0  0  0  0  0  0  0  0  0  0  0
   -4.0480   17.1720  -34.3630 C   0  0  0  0  0  0  0  0  0  0  0  0
   -4.8670   16.1270  -33.5830 C   0  0  0  0  0  0  0  0  0  0  0  0
   -5.7720   16.6540  -32.6240 O   0  0  0  0  0  0  0  0  0  0  0  0
   -6.1660   20.6650  -31.4300 C   0  0  0  0  0  0  0  0  0  0  0  0
   -6.3050   22.0390  -31.2240 C   0  0  0  0  0  0  0  0  0  0  0  0
   -5.3370   22.9470  -30.9950 N   0  0  0  0  0  0  0  0  0  0  0  0
   -3.9290   22.6790  -30.9370 C   0  0  0  0  0  0  0  0  0  0  0  0
   -3.1850   23.0450  -31.8880 O   0  0  0  0  0  0  0  0  0  0  0  0
   -3.3190   22.0930  -29.7000 C   0  0  0  0  0  0  0  0  0  0  0  0
   -2.0150   22.8220  -29.3780 C   0  0  0  0  0  0  0  0  0  0  0  0
   -2.3300   24.3430  -28.5010 S   0  0  0  0  0  0  0  0  0  0  0  0
   -3.8140   24.5710  -28.4180 O   0  0  0  0  0  0  0  0  0  0  0  0
   -1.7510   24.2680  -27.1140 O   0  0  0  0  0  0  0  0  0  0  0  0
   -1.6200   25.6200  -29.3290 O   0  0  0  0  0  0  0  0  0  0  0  0
   -3.2230   24.9250  -30.5830 H   0  0  0  0  0  0  0  0  0  0  0  0
   -8.1106   24.7805  -31.0355 H   0  0  0  0  0  0  0  0  0  0  0  0
   -9.6813   22.4295  -31.4982 H   0  0  0  0  0  0  0  0  0  0  0  0
   -9.5075   19.9396  -31.8174 H   0  0  0  0  0  0  0  0  0  0  0  0
   -7.1728   17.9033  -30.9160 H   0  0  0  0  0  0  0  0  0  0  0  0
   -8.1008   18.1026  -32.4655 H   0  0  0  0  0  0  0  0  0  0  0  0
   -5.0790   18.5680  -32.2933 H   0  0  0  0  0  0  0  0  0  0  0  0
   -6.9806   18.0374  -34.6121 H   0  0  0  0  0  0  0  0  0  0  0  0
   -6.1924   19.6148  -34.1643 H   0  0  0  0  0  0  0  0  0  0  0  0
   -4.3420   19.0360  -35.1420 H   0  0  0  0  0  0  0  0  0  0  0  0
   -3.4731   16.6617  -35.1498 H   0  0  0  0  0  0  0  0  0  0  0  0
   -3.3758   17.6823  -33.6575 H   0  0  0  0  0  0  0  0  0  0  0  0
   -5.4470   15.5392  -34.3097 H   0  0  0  0  0  0  0  0  0  0  0  0
   -4.1365   15.5320  -33.0152 H   0  0  0  0  0  0  0  0  0  0  0  0
   -5.1734   20.1910  -31.4249 H   0  0  0  0  0  0  0  0  0  0  0  0
   -4.0185   22.2046  -28.8584 H   0  0  0  0  0  0  0  0  0  0  0  0
   -3.1102   21.0258  -29.8654 H   0  0  0  0  0  0  0  0  0  0  0  0
   -1.3842   22.1716  -28.7543 H   0  0  0  0  0  0  0  0  0  0  0  0
   -1.5062   23.0624  -30.3232 H   0  0  0  0  0  0  0  0  0  0  0  0
  1  2  1  0
  2  3  2  0
  2  4  1  0
  4  5  2  0
  5  6  1  0
  6  7  2  0
  7  8  1  0
  8  9  2  0
  9 10  1  0
 10 11  1  0
 11 12  1  0
 12 13  1  0
 13 14  1  0
 14 15  1  0
 15 16  1  0
  9 17  1  0
 17 18  2  0
 18 19  1  0
 19 20  1  0
 20 21  2  0
 20 22  1  0
 22 23  1  0
 23 24  1  0
 24 25  2  0
 24 26  2  0
 24 27  1  0
 19  4  1  0
 18  6  1  0
 16 11  1  0
  1 28  1  0
  5 29  1  0
  7 30  1  0
  8 31  1  0
 10 32  1  0
 10 33  1  0
 11 34  1  1
 12 35  1  0
 12 36  1  0
 13 37  1  0
 14 38  1  0
 14 39  1  0
 15 40  1  0
 15 41  1  0
 17 42  1  0
 22 43  1  0
 22 44  1  0
 23 45  1  0
 23 46  1  0
M  CHG  2   1  -1  27  -1
M  END
>  <UniqueID>  (59) 
59

>  <SMILES>  (59) 
[NH-]C(=O)c1cc2ccc(C[C@@H]3CNCCO3)cc2n1C(=O)CCS(=O)(=O)[O-]

>  <Energy>  (59) 
90.3387968275273

>  <Genealogy>  (59) 
[NH-]C(=O)c1cc2ccc(CC3CNCCO3)cc2n1C(=O)CCS(=O)(=O)[O-] (protonated)
[NH-]C(=O)c1cc2ccc(C[C@@H]3CNCCO3)cc2n1C(=O)CCS(=O)(=O)[O-] (chirality)
[NH-]C(=O)c1cc2ccc(C[C@@H]3CNCCO3)cc2n1C(=O)CCS(=O)(=O)[O-] (3D coordinates assigned)
[NH-]C(=O)c1cc2ccc(C[C@@H]3CNCCO3)cc2n1C(=O)CCS(=O)(=O)[O-] (nonaromatic ring conformer: 90.3387968275273 kcal/mol)

>  <smiles>  (59) 
NC(=O)c1cc2ccc(CC3CNCCO3)cc2n1C(=O)CCS(=O)(=O)O

>  <score_type>  (59) 
oracle

>  <origin>  (59) 
adg

>  <m_score__min__energy>  (59) 
-14.07

>  <m_primary>  (59) 
energy

$$$$
59:0
     RDKit          3D

 51 54  0  0  0  0  0  0  0  0999 V2000
   -9.2970   23.4590  -32.3220 N   0  0  0  0  0  0  0  0  0  0  0  0
   -9.0340   22.2570  -31.5970 C   0  0  0  0  0  0  0  0  0  0  0  0
   -9.8420   21.8970  -30.7010 O   0  0  0  0  0  0  0  0  0  0  0  0
   -7.8230   21.4420  -31.8760 C   0  0  0  0  0  0  0  0  0  0  0  0
   -7.8040   20.0510  -31.9960 C   0  0  0  0  0  0  0  0  0  0  0  0
   -6.4910   19.7200  -32.2320 C   0  0  0  0  0  0  0  0  0  0  0  0
   -5.9130   18.4800  -32.4920 C   0  0  0  0  0  0  0  0  0  0  0  0
   -4.5370   18.4440  -32.7770 C   0  0  0  0  0  0  0  0  0  0  0  0
   -3.7690   19.6380  -32.7980 C   0  0  0  0  0  0  0  0  0  0  0  0
   -2.3120   19.5890  -33.1600 C   0  0  0  0  0  0  0  0  0  0  0  0
   -1.5870   20.7810  -32.6230 C   0  0  0  0  0  0  0  0  0  0  0  0
   -1.8020   21.9180  -33.1200 O   0  0  0  0  0  0  0  0  0  0  0  0
   -0.6720   20.6140  -31.5760 O   0  0  0  0  0  0  0  0  0  0  0  0
   -0.5170   21.5470  -30.5030 C   0  0  0  0  0  0  0  0  0  0  0  0
   -0.2790   20.8370  -29.1620 C   0  0  0  0  0  0  0  0  0  0  0  0
   -1.3360   19.8450  -28.8650 N   0  0  0  0  0  0  0  0  0  0  0  0
   -2.6110   20.4850  -28.4770 C   0  0  0  0  0  0  0  0  0  0  0  0
   -3.0780   19.8500  -27.1780 C   0  0  0  0  0  0  0  0  0  0  0  0
   -1.8120   19.3410  -26.5480 C   0  0  0  0  0  0  0  0  0  0  0  0
   -0.9410   18.9800  -27.7360 C   0  0  0  0  0  0  0  0  0  0  0  0
   -4.3900   20.8750  -32.5120 C   0  0  0  0  0  0  0  0  0  0  0  0
   -5.7590   20.8780  -32.2360 C   0  0  0  0  0  0  0  0  0  0  0  0
   -6.5610   21.9390  -32.0130 N   0  0  0  0  0  0  0  0  0  0  0  0
   -6.1600   23.3180  -32.0320 C   0  0  0  0  0  0  0  0  0  0  0  0
   -6.8180   24.1510  -32.7150 O   0  0  0  0  0  0  0  0  0  0  0  0
   -5.0070   23.7690  -31.2430 C   0  0  0  0  0  0  0  0  0  0  0  0
   -4.5800   25.0500  -31.2160 N   0  0  0  0  0  0  0  0  0  0  0  0
   -3.5780   25.0440  -30.3900 O   0  0  0  0  0  0  0  0  0  0  0  0
   -3.3820   23.8260  -29.9530 C   0  0  0  0  0  0  0  0  0  0  0  0
   -2.5100   23.5180  -29.0990 O   0  0  0  0  0  0  0  0  0  0  0  0
   -4.2740   22.9490  -30.4550 N   0  0  0  0  0  0  0  0  0  0  0  0
   -8.6480   23.8170  -33.0560 H   0  0  0  0  0  0  0  0  0  0  0  0
  -10.1850   23.9850  -32.1460 H   0  0  0  0  0  0  0  0  0  0  0  0
   -8.6599   19.3644  -31.9181 H   0  0  0  0  0  0  0  0  0  0  0  0
   -6.5137   17.5587  -32.4749 H   0  0  0  0  0  0  0  0  0  0  0  0
   -4.0499   17.4802  -32.9861 H   0  0  0  0  0  0  0  0  0  0  0  0
   -1.8666   18.6763  -32.7372 H   0  0  0  0  0  0  0  0  0  0  0  0
   -2.2228   19.5887  -34.2564 H   0  0  0  0  0  0  0  0  0  0  0  0
    0.3426   22.1986  -30.7187 H   0  0  0  0  0  0  0  0  0  0  0  0
   -1.4448   22.1321  -30.4210 H   0  0  0  0  0  0  0  0  0  0  0  0
    0.6917   20.3209  -29.2007 H   0  0  0  0  0  0  0  0  0  0  0  0
   -0.2937   21.5976  -28.3674 H   0  0  0  0  0  0  0  0  0  0  0  0
   -2.4578   21.5644  -28.3310 H   0  0  0  0  0  0  0  0  0  0  0  0
   -3.3654   20.3432  -29.2649 H   0  0  0  0  0  0  0  0  0  0  0  0
   -3.5648   20.5948  -26.5313 H   0  0  0  0  0  0  0  0  0  0  0  0
   -3.8213   19.0550  -27.3380 H   0  0  0  0  0  0  0  0  0  0  0  0
   -1.3369   20.1216  -25.9357 H   0  0  0  0  0  0  0  0  0  0  0  0
   -1.9838   18.4914  -25.8708 H   0  0  0  0  0  0  0  0  0  0  0  0
    0.1176   19.1479  -27.4886 H   0  0  0  0  0  0  0  0  0  0  0  0
   -1.0717   17.9202  -28.0001 H   0  0  0  0  0  0  0  0  0  0  0  0
   -3.8107   21.8101  -32.5069 H   0  0  0  0  0  0  0  0  0  0  0  0
  1  2  1  0
  2  3  2  0
  2  4  1  0
  4  5  2  0
  5  6  1  0
  6  7  2  0
  7  8  1  0
  8  9  2  0
  9 10  1  0
 10 11  1  0
 11 12  2  0
 11 13  1  0
 13 14  1  0
 14 15  1  0
 15 16  1  0
 16 17  1  0
 17 18  1  0
 18 19  1  0
 19 20  1  0
  9 21  1  0
 21 22  2  0
 22 23  1  0
 23 24  1  0
 24 25  2  0
 24 26  1  0
 26 27  2  0
 27 28  1  0
 28 29  1  0
 29 30  2  0
 29 31  1  0
 23  4  1  0
 31 26  1  0
 22  6  1  0
 20 16  1  0
  1 32  1  0
  1 33  1  0
  5 34  1  0
  7 35  1  0
  8 36  1  0
 10 37  1  0
 10 38  1  0
 14 39  1  0
 14 40  1  0
 15 41  1  0
 15 42  1  0
 17 43  1  0
 17 44  1  0
 18 45  1  0
 18 46  1  0
 19 47  1  0
 19 48  1  0
 20 49  1  0
 20 50  1  0
 21 51  1  0
M  CHG  1  31  -1
M  END
>  <UniqueID>  (60) 
60

>  <SMILES>  (60) 
NC(=O)c1cc2ccc(CC(=O)OCCN3CCCC3)cc2n1C(=O)c1noc(=O)[n-]1

>  <Energy>  (60) 
124.89702648898933

>  <Genealogy>  (60) 
NC(=O)c1cc2ccc(CC(=O)OCCN3CCCC3)cc2n1C(=O)c1noc(=O)[n-]1 (protonated)
NC(=O)c1cc2ccc(CC(=O)OCCN3CCCC3)cc2n1C(=O)c1noc(=O)[n-]1 (3D coordinates assigned)
NC(=O)c1cc2ccc(CC(=O)OCCN3CCCC3)cc2n1C(=O)c1noc(=O)[n-]1 (nonaromatic ring conformer: 124.89702648898933 kcal/mol)

>  <smiles>  (60) 
NC(=O)c1cc2ccc(CC(=O)OCCN3CCCC3)cc2n1C(=O)c1noc(=O)[nH]1

>  <score_type>  (60) 
oracle

>  <origin>  (60) 
adg

>  <m_score__min__energy>  (60) 
-10.49

>  <m_primary>  (60) 
energy

$$$$
60:0
     RDKit          3D

 44 45  0  0  0  0  0  0  0  0999 V2000
   -3.3930   19.2390  -33.7960 C   0  0  0  0  0  0  0  0  0  0  0  0
   -4.3800   18.1930  -33.5790 N   0  0  0  0  0  0  0  0  0  0  0  0
   -5.7480   18.3300  -33.9730 C   0  0  0  0  0  0  0  0  0  0  0  0
   -6.0490   18.5020  -35.1850 O   0  0  0  0  0  0  0  0  0  0  0  0
   -6.8240   18.3190  -32.9340 C   0  0  0  0  0  0  0  0  0  0  0  0
   -7.0630   19.7140  -32.4290 C   0  0  0  0  0  0  0  0  0  0  0  0
   -8.3700   20.2620  -32.4430 C   0  0  0  0  0  0  0  0  0  0  0  0
   -8.6010   21.5720  -31.9950 C   0  0  0  0  0  0  0  0  0  0  0  0
   -7.5070   22.3150  -31.5570 C   0  0  0  0  0  0  0  0  0  0  0  0
   -7.4530   23.5960  -31.0590 C   0  0  0  0  0  0  0  0  0  0  0  0
   -6.1070   23.8270  -30.7870 C   0  0  0  0  0  0  0  0  0  0  0  0
   -5.5890   25.1210  -30.3030 C   0  0  0  0  0  0  0  0  0  0  0  0
   -4.2440   25.5240  -30.5640 N   0  0  0  0  0  0  0  0  0  0  0  0
   -6.3640   25.9100  -29.7000 O   0  0  0  0  0  0  0  0  0  0  0  0
   -5.3580   22.7280  -31.0890 N   0  0  0  0  0  0  0  0  0  0  0  0
   -3.9510   22.5370  -30.8650 C   0  0  0  0  0  0  0  0  0  0  0  0
   -3.1110   23.0750  -31.6360 O   0  0  0  0  0  0  0  0  0  0  0  0
   -3.5200   21.7550  -29.7910 O   0  0  0  0  0  0  0  0  0  0  0  0
   -3.0860   22.3080  -28.5530 C   0  0  0  0  0  0  0  0  0  0  0  0
   -1.6240   22.7340  -28.6570 C   0  0  0  0  0  0  0  0  0  0  0  0
   -1.4180   24.4780  -28.3240 S   0  0  0  0  0  0  0  0  0  0  0  0
   -2.0390   24.8380  -26.6980 C   0  0  0  0  0  0  0  0  0  0  0  0
   -2.1810   25.2880  -29.3360 O   0  0  0  0  0  0  0  0  0  0  0  0
    0.0390   24.8430  -28.3890 O   0  0  0  0  0  0  0  0  0  0  0  0
   -6.2310   21.8100  -31.5650 C   0  0  0  0  0  0  0  0  0  0  0  0
   -5.9770   20.4980  -31.9840 C   0  0  0  0  0  0  0  0  0  0  0  0
   -3.0380   19.6152  -32.8252 H   0  0  0  0  0  0  0  0  0  0  0  0
   -2.5440   18.8300  -34.3635 H   0  0  0  0  0  0  0  0  0  0  0  0
   -3.8505   20.0628  -34.3635 H   0  0  0  0  0  0  0  0  0  0  0  0
   -7.7524   17.9268  -33.3748 H   0  0  0  0  0  0  0  0  0  0  0  0
   -6.5107   17.6795  -32.0956 H   0  0  0  0  0  0  0  0  0  0  0  0
   -9.2114   19.6549  -32.8084 H   0  0  0  0  0  0  0  0  0  0  0  0
   -9.6148   21.9989  -31.9899 H   0  0  0  0  0  0  0  0  0  0  0  0
   -8.2933   24.2896  -30.9079 H   0  0  0  0  0  0  0  0  0  0  0  0
   -3.6310   24.9730  -31.2050 H   0  0  0  0  0  0  0  0  0  0  0  0
   -3.8810   26.4210  -30.1730 H   0  0  0  0  0  0  0  0  0  0  0  0
   -3.7045   23.1842  -28.3084 H   0  0  0  0  0  0  0  0  0  0  0  0
   -3.1862   21.5491  -27.7630 H   0  0  0  0  0  0  0  0  0  0  0  0
   -1.0327   22.1598  -27.9285 H   0  0  0  0  0  0  0  0  0  0  0  0
   -1.2822   22.5384  -29.6841 H   0  0  0  0  0  0  0  0  0  0  0  0
   -1.3463   24.4364  -25.9437 H   0  0  0  0  0  0  0  0  0  0  0  0
   -2.1271   25.9272  -26.5720 H   0  0  0  0  0  0  0  0  0  0  0  0
   -3.0280   24.3732  -26.5720 H   0  0  0  0  0  0  0  0  0  0  0  0
   -4.9562   20.0886  -31.9667 H   0  0  0  0  0  0  0  0  0  0  0  0
  1  2  1  0
  2  3  1  0
  3  4  2  0
  3  5  1  0
  5  6  1  0
  6  7  2  0
  7  8  1  0
  8  9  2  0
  9 10  1  0
 10 11  2  0
 11 12  1  0
 12 13  1  0
 12 14  2  0
 11 15  1  0
 15 16  1  0
 16 17  2  0
 16 18  1  0
 18 19  1  0
 19 20  1  0
 20 21  1  0
 21 22  1  0
 21 23  2  0
 21 24  2  0
 15 25  1  0
 25 26  2  0
 26  6  1  0
 25  9  1  0
  1 27  1  0
  1 28  1  0
  1 29  1  0
  5 30  1  0
  5 31  1  0
  7 32  1  0
  8 33  1  0
 10 34  1  0
 13 35  1  0
 13 36  1  0
 19 37  1  0
 19 38  1  0
 20 39  1  0
 20 40  1  0
 22 41  1  0
 22 42  1  0
 22 43  1  0
 26 44  1  0
M  CHG  1   2  -1
M  END
>  <UniqueID>  (61) 
61

>  <SMILES>  (61) 
C[N-]C(=O)Cc1ccc2cc(C(N)=O)n(C(=O)OCCS(C)(=O)=O)c2c1

>  <Energy>  (61) 
65.224903284449

>  <Genealogy>  (61) 
C[N-]C(=O)Cc1ccc2cc(C(N)=O)n(C(=O)OCCS(C)(=O)=O)c2c1 (protonated)
C[N-]C(=O)Cc1ccc2cc(C(N)=O)n(C(=O)OCCS(C)(=O)=O)c2c1 (3D coordinates assigned)
C[N-]C(=O)Cc1ccc2cc(C(N)=O)n(C(=O)OCCS(C)(=O)=O)c2c1 (optimized conformer: 65.224903284449 kcal/mol)

>  <smiles>  (61) 
CNC(=O)Cc1ccc2cc(C(N)=O)n(C(=O)OCCS(C)(=O)=O)c2c1

>  <score_type>  (61) 
oracle

>  <origin>  (61) 
adg

>  <m_score__min__energy>  (61) 
-9.5700000000000003

>  <m_primary>  (61) 
energy

$$$$
61:0
     RDKit          3D

 33 35  0  0  0  0  0  0  0  0999 V2000
   -3.8730   25.6750  -30.5110 N   0  0  0  0  0  0  0  0  0  0  0  0
   -5.2220   25.2240  -30.4080 C   0  0  0  0  0  0  0  0  0  0  0  0
   -6.0690   25.9450  -29.8170 O   0  0  0  0  0  0  0  0  0  0  0  0
   -5.6180   23.9440  -31.0300 C   0  0  0  0  0  0  0  0  0  0  0  0
   -6.9330   23.6310  -31.3690 C   0  0  0  0  0  0  0  0  0  0  0  0
   -6.8930   22.3350  -31.8290 C   0  0  0  0  0  0  0  0  0  0  0  0
   -7.9160   21.5260  -32.3110 C   0  0  0  0  0  0  0  0  0  0  0  0
   -7.5840   20.2330  -32.7480 C   0  0  0  0  0  0  0  0  0  0  0  0
   -6.2430   19.7740  -32.7000 C   0  0  0  0  0  0  0  0  0  0  0  0
   -5.9030   18.4130  -33.1830 C   0  0  0  0  0  0  0  0  0  0  0  0
   -4.7050   18.1960  -33.8830 C   0  0  0  0  0  0  0  0  0  0  0  0
   -4.3680   16.9190  -34.3380 C   0  0  0  0  0  0  0  0  0  0  0  0
   -5.2260   15.8310  -34.1050 C   0  0  0  0  0  0  0  0  0  0  0  0
   -4.8740   14.4750  -34.5850 C   0  0  0  0  0  0  0  0  0  0  0  0
   -3.7160   14.2310  -35.0190 O   0  0  0  0  0  0  0  0  0  0  0  0
   -5.8150   13.4540  -34.5630 O   0  0  0  0  0  0  0  0  0  0  0  0
   -6.4270   16.0470  -33.4100 C   0  0  0  0  0  0  0  0  0  0  0  0
   -6.7650   17.3250  -32.9530 C   0  0  0  0  0  0  0  0  0  0  0  0
   -7.9520   17.5010  -32.3190 F   0  0  0  0  0  0  0  0  0  0  0  0
   -5.2300   20.6300  -32.2080 C   0  0  0  0  0  0  0  0  0  0  0  0
   -5.5930   21.9070  -31.7630 C   0  0  0  0  0  0  0  0  0  0  0  0
   -4.7950   22.8850  -31.2780 N   0  0  0  0  0  0  0  0  0  0  0  0
   -3.3670   22.8290  -31.1320 C   0  0  0  0  0  0  0  0  0  0  0  0
   -2.8180   23.2580  -30.0830 O   0  0  0  0  0  0  0  0  0  0  0  0
   -2.5790   22.2770  -32.1340 O   0  0  0  0  0  0  0  0  0  0  0  0
   -3.1760   25.1540  -31.0880 H   0  0  0  0  0  0  0  0  0  0  0  0
   -7.8158   24.2821  -31.2863 H   0  0  0  0  0  0  0  0  0  0  0  0
   -8.9541   21.8877  -32.3490 H   0  0  0  0  0  0  0  0  0  0  0  0
   -8.3728   19.5692  -33.1317 H   0  0  0  0  0  0  0  0  0  0  0  0
   -4.0256   19.0396  -34.0748 H   0  0  0  0  0  0  0  0  0  0  0  0
   -3.4247   16.7642  -34.8823 H   0  0  0  0  0  0  0  0  0  0  0  0
   -7.1080   15.2036  -33.2233 H   0  0  0  0  0  0  0  0  0  0  0  0
   -4.1812   20.3000  -32.1757 H   0  0  0  0  0  0  0  0  0  0  0  0
  1  2  1  0
  2  3  2  0
  2  4  1  0
  4  5  2  0
  5  6  1  0
  6  7  2  0
  7  8  1  0
  8  9  2  0
  9 10  1  0
 10 11  2  0
 11 12  1  0
 12 13  2  0
 13 14  1  0
 14 15  2  0
 14 16  1  0
 13 17  1  0
 17 18  2  0
 18 19  1  0
  9 20  1  0
 20 21  2  0
 21 22  1  0
 22 23  1  0
 23 24  2  0
 23 25  1  0
 22  4  1  0
 21  6  1  0
 18 10  1  0
  1 26  1  0
  5 27  1  0
  7 28  1  0
  8 29  1  0
 11 30  1  0
 12 31  1  0
 17 32  1  0
 20 33  1  0
M  CHG  3   1  -1  16  -1  25  -1
M  END
>  <UniqueID>  (62) 
62

>  <SMILES>  (62) 
[NH-]C(=O)c1cc2ccc(-c3ccc(C(=O)[O-])cc3F)cc2n1C(=O)[O-]

>  <Energy>  (62) 
82.31754513381534

>  <Genealogy>  (62) 
[NH-]C(=O)c1cc2ccc(-c3ccc(C(=O)[O-])cc3F)cc2n1C(=O)[O-] (protonated)
[NH-]C(=O)c1cc2ccc(-c3ccc(C(=O)[O-])cc3F)cc2n1C(=O)[O-] (3D coordinates assigned)
[NH-]C(=O)c1cc2ccc(-c3ccc(C(=O)[O-])cc3F)cc2n1C(=O)[O-] (optimized conformer: 82.31754513381534 kcal/mol)

>  <smiles>  (62) 
NC(=O)c1cc2ccc(-c3ccc(C(=O)O)cc3F)cc2n1C(=O)O

>  <score_type>  (62) 
oracle

>  <origin>  (62) 
adg

>  <m_score__min__energy>  (62) 
-10.91

>  <m_primary>  (62) 
energy

$$$$
62:0
     RDKit          3D

 46 47  0  0  0  0  0  0  0  0999 V2000
   -3.8840   24.1940  -27.3580 C   0  0  0  0  0  0  0  0  0  0  0  0
   -4.2020   23.0220  -27.9160 C   0  0  0  0  0  0  0  0  0  0  0  0
   -3.1560   22.0980  -28.4730 C   0  0  0  0  0  0  0  0  0  0  0  0
   -3.5710   21.5890  -29.7390 O   0  0  0  0  0  0  0  0  0  0  0  0
   -3.9030   22.4070  -30.8260 C   0  0  0  0  0  0  0  0  0  0  0  0
   -3.0030   22.8330  -31.6010 O   0  0  0  0  0  0  0  0  0  0  0  0
   -5.2710   22.7850  -31.0410 N   0  0  0  0  0  0  0  0  0  0  0  0
   -5.7980   24.0430  -31.0420 C   0  0  0  0  0  0  0  0  0  0  0  0
   -5.0900   25.2810  -30.6570 C   0  0  0  0  0  0  0  0  0  0  0  0
   -3.6790   25.2870  -30.4580 N   0  0  0  0  0  0  0  0  0  0  0  0
   -5.7460   26.3370  -30.4550 O   0  0  0  0  0  0  0  0  0  0  0  0
   -7.1510   24.0050  -31.3730 C   0  0  0  0  0  0  0  0  0  0  0  0
   -7.4420   22.6750  -31.5670 C   0  0  0  0  0  0  0  0  0  0  0  0
   -8.6450   22.0600  -31.9030 C   0  0  0  0  0  0  0  0  0  0  0  0
   -8.6550   20.6630  -32.0430 C   0  0  0  0  0  0  0  0  0  0  0  0
   -7.4650   19.9120  -31.8710 C   0  0  0  0  0  0  0  0  0  0  0  0
   -7.4920   18.4130  -31.9760 C   0  0  0  0  0  0  0  0  0  0  0  0
   -6.9540   17.9930  -33.3070 C   0  0  0  0  0  0  0  0  0  0  0  0
   -7.1960   16.8370  -33.7470 O   0  0  0  0  0  0  0  0  0  0  0  0
   -6.1150   18.8900  -34.0400 N   0  0  0  0  0  0  0  0  0  0  0  0
   -4.6830   18.6740  -34.2320 C   0  0  1  0  0  0  0  0  0  0  0  0
   -3.8890   19.7370  -33.4620 C   0  0  0  0  0  0  0  0  0  0  0  0
   -4.3080   17.2970  -33.8520 N   0  0  0  0  0  0  0  0  0  0  0  0
   -3.8700   16.4710  -34.9840 C   0  0  0  0  0  0  0  0  0  0  0  0
   -6.2630   20.5710  -31.5290 C   0  0  0  0  0  0  0  0  0  0  0  0
   -6.2900   21.9600  -31.3650 C   0  0  0  0  0  0  0  0  0  0  0  0
   -4.6752   24.8464  -26.9600 H   0  0  0  0  0  0  0  0  0  0  0  0
   -2.8310   24.5063  -27.2967 H   0  0  0  0  0  0  0  0  0  0  0  0
   -5.2599   22.7252  -27.9691 H   0  0  0  0  0  0  0  0  0  0  0  0
   -2.2121   22.6495  -28.5950 H   0  0  0  0  0  0  0  0  0  0  0  0
   -3.0133   21.2575  -27.7779 H   0  0  0  0  0  0  0  0  0  0  0  0
   -3.0290   24.9520  -31.2030 H   0  0  0  0  0  0  0  0  0  0  0  0
   -7.8401   24.8579  -31.4605 H   0  0  0  0  0  0  0  0  0  0  0  0
   -9.5604   22.6510  -32.0543 H   0  0  0  0  0  0  0  0  0  0  0  0
   -9.5947   20.1466  -32.2884 H   0  0  0  0  0  0  0  0  0  0  0  0
   -6.8725   17.9789  -31.1773 H   0  0  0  0  0  0  0  0  0  0  0  0
   -8.5281   18.0584  -31.8726 H   0  0  0  0  0  0  0  0  0  0  0  0
   -4.4333   18.7836  -35.2977 H   0  0  0  0  0  0  0  0  0  0  0  0
   -4.0107   19.5740  -32.3810 H   0  0  0  0  0  0  0  0  0  0  0  0
   -2.8239   19.6621  -33.7264 H   0  0  0  0  0  0  0  0  0  0  0  0
   -4.2630   20.7371  -33.7264 H   0  0  0  0  0  0  0  0  0  0  0  0
   -5.1340   16.8320  -33.4070 H   0  0  0  0  0  0  0  0  0  0  0  0
   -3.3860   15.5583  -34.6063 H   0  0  0  0  0  0  0  0  0  0  0  0
   -4.7414   16.1972  -35.5969 H   0  0  0  0  0  0  0  0  0  0  0  0
   -3.1544   17.0387  -35.5969 H   0  0  0  0  0  0  0  0  0  0  0  0
   -5.3289   20.0058  -31.3950 H   0  0  0  0  0  0  0  0  0  0  0  0
  1  2  2  0
  2  3  1  0
  3  4  1  0
  4  5  1  0
  5  6  2  0
  5  7  1  0
  7  8  1  0
  8  9  1  0
  9 10  1  0
  9 11  2  0
  8 12  2  0
 12 13  1  0
 13 14  2  0
 14 15  1  0
 15 16  2  0
 16 17  1  0
 17 18  1  0
 18 19  2  0
 18 20  1  0
 20 21  1  0
 21 22  1  0
 21 23  1  0
 23 24  1  0
 16 25  1  0
 25 26  2  0
 26  7  1  0
 26 13  1  0
  1 27  1  0
  1 28  1  0
  2 29  1  0
  3 30  1  0
  3 31  1  0
 10 32  1  0
 12 33  1  0
 14 34  1  0
 15 35  1  0
 17 36  1  0
 17 37  1  0
 21 38  1  6
 22 39  1  0
 22 40  1  0
 22 41  1  0
 23 42  1  0
 24 43  1  0
 24 44  1  0
 24 45  1  0
 25 46  1  0
M  CHG  2  10  -1  20  -1
M  END
>  <UniqueID>  (63) 
63

>  <SMILES>  (63) 
C=CCOC(=O)n1c(C([NH-])=O)cc2ccc(CC(=O)[N-][C@@H](C)NC)cc21

>  <Energy>  (63) 
75.17736999404252

>  <Genealogy>  (63) 
C=CCOC(=O)n1c(C([NH-])=O)cc2ccc(CC(=O)[N-]C(C)NC)cc21 (protonated)
C=CCOC(=O)n1c(C([NH-])=O)cc2ccc(CC(=O)[N-][C@@H](C)NC)cc21 (chirality)
C=CCOC(=O)n1c(C([NH-])=O)cc2ccc(CC(=O)[N-][C@@H](C)NC)cc21 (3D coordinates assigned)
C=CCOC(=O)n1c(C([NH-])=O)cc2ccc(CC(=O)[N-][C@@H](C)NC)cc21 (optimized conformer: 75.17736999404252 kcal/mol)

>  <smiles>  (63) 
C=CCOC(=O)n1c(C(N)=O)cc2ccc(CC(=O)NC(C)NC)cc21

>  <score_type>  (63) 
oracle

>  <origin>  (63) 
adg

>  <m_score__min__energy>  (63) 
-10.4

>  <m_primary>  (63) 
energy

$$$$
63:0
     RDKit          3D

 43 45  0  0  0  0  0  0  0  0999 V2000
   -3.8730   25.2550  -30.6930 N   0  0  0  0  0  0  0  0  0  0  0  0
   -5.2620   25.1800  -30.3840 C   0  0  0  0  0  0  0  0  0  0  0  0
   -5.8080   26.1330  -29.7680 O   0  0  0  0  0  0  0  0  0  0  0  0
   -6.0320   23.9740  -30.7520 C   0  0  0  0  0  0  0  0  0  0  0  0
   -7.4190   23.9600  -30.8820 C   0  0  0  0  0  0  0  0  0  0  0  0
   -7.7340   22.6930  -31.3170 C   0  0  0  0  0  0  0  0  0  0  0  0
   -8.9740   22.1250  -31.5920 C   0  0  0  0  0  0  0  0  0  0  0  0
   -9.0060   20.7790  -31.9930 C   0  0  0  0  0  0  0  0  0  0  0  0
   -7.8080   20.0330  -32.1140 C   0  0  0  0  0  0  0  0  0  0  0  0
   -7.8620   18.5790  -32.4950 C   0  0  0  0  0  0  0  0  0  0  0  0
   -6.4740   18.0850  -32.9250 C   0  0  0  0  0  0  0  0  0  0  0  0
   -6.0230   18.7170  -34.2520 C   0  0  0  0  0  0  0  0  0  0  0  0
   -4.5490   18.7860  -34.3620 N   0  0  0  0  0  0  0  0  0  0  0  0
   -4.0160   19.8010  -33.4350 C   0  0  0  0  0  0  0  0  0  0  0  0
   -2.4840   19.9150  -33.5920 C   0  0  0  0  0  0  0  0  0  0  0  0
   -1.9320   18.8490  -34.3450 O   0  0  0  0  0  0  0  0  0  0  0  0
   -2.4050   17.6170  -33.8430 C   0  0  0  0  0  0  0  0  0  0  0  0
   -3.9180   17.4730  -34.0970 C   0  0  0  0  0  0  0  0  0  0  0  0
   -6.5690   20.6400  -31.8130 C   0  0  0  0  0  0  0  0  0  0  0  0
   -6.5640   21.9870  -31.4320 C   0  0  0  0  0  0  0  0  0  0  0  0
   -5.5090   22.7580  -31.0860 N   0  0  0  0  0  0  0  0  0  0  0  0
   -4.1340   22.3420  -31.0250 C   0  0  0  0  0  0  0  0  0  0  0  0
   -3.3420   22.6210  -31.9630 O   0  0  0  0  0  0  0  0  0  0  0  0
   -3.6600   21.6480  -29.9190 O   0  0  0  0  0  0  0  0  0  0  0  0
   -3.4890   26.0490  -31.2520 H   0  0  0  0  0  0  0  0  0  0  0  0
   -8.1154   24.7871  -30.6796 H   0  0  0  0  0  0  0  0  0  0  0  0
   -9.9000   22.7113  -31.4984 H   0  0  0  0  0  0  0  0  0  0  0  0
   -9.9708   20.2997  -32.2152 H   0  0  0  0  0  0  0  0  0  0  0  0
   -8.2041   17.9906  -31.6308 H   0  0  0  0  0  0  0  0  0  0  0  0
   -8.5599   18.4570  -33.3365 H   0  0  0  0  0  0  0  0  0  0  0  0
   -5.7463   18.3453  -32.1423 H   0  0  0  0  0  0  0  0  0  0  0  0
   -6.5308   16.9960  -33.0694 H   0  0  0  0  0  0  0  0  0  0  0  0
   -6.4130   18.1120  -35.0838 H   0  0  0  0  0  0  0  0  0  0  0  0
   -6.4143   19.7444  -34.2886 H   0  0  0  0  0  0  0  0  0  0  0  0
   -4.4774   20.7744  -33.6577 H   0  0  0  0  0  0  0  0  0  0  0  0
   -4.2496   19.5019  -32.4025 H   0  0  0  0  0  0  0  0  0  0  0  0
   -2.2516   20.8625  -34.1002 H   0  0  0  0  0  0  0  0  0  0  0  0
   -2.0423   19.8752  -32.5854 H   0  0  0  0  0  0  0  0  0  0  0  0
   -1.8743   16.7945  -34.3447 H   0  0  0  0  0  0  0  0  0  0  0  0
   -2.2225   17.5822  -32.7588 H   0  0  0  0  0  0  0  0  0  0  0  0
   -4.0740   16.8188  -34.9674 H   0  0  0  0  0  0  0  0  0  0  0  0
   -4.3806   17.0421  -33.1968 H   0  0  0  0  0  0  0  0  0  0  0  0
   -5.6312   20.0686  -31.8763 H   0  0  0  0  0  0  0  0  0  0  0  0
  1  2  1  0
  2  3  2  0
  2  4  1  0
  4  5  2  0
  5  6  1  0
  6  7  2  0
  7  8  1  0
  8  9  2  0
  9 10  1  0
 10 11  1  0
 11 12  1  0
 12 13  1  0
 13 14  1  0
 14 15  1  0
 15 16  1  0
 16 17  1  0
 17 18  1  0
  9 19  1  0
 19 20  2  0
 20 21  1  0
 21 22  1  0
 22 23  2  0
 22 24  1  0
 21  4  1  0
 20  6  1  0
 18 13  1  0
  1 25  1  0
  5 26  1  0
  7 27  1  0
  8 28  1  0
 10 29  1  0
 10 30  1  0
 11 31  1  0
 11 32  1  0
 12 33  1  0
 12 34  1  0
 14 35  1  0
 14 36  1  0
 15 37  1  0
 15 38  1  0
 17 39  1  0
 17 40  1  0
 18 41  1  0
 18 42  1  0
 19 43  1  0
M  CHG  2   1  -1  24  -1
M  END
>  <UniqueID>  (64) 
64

>  <SMILES>  (64) 
[NH-]C(=O)c1cc2ccc(CCCN3CCOCC3)cc2n1C(=O)[O-]

>  <Energy>  (64) 
88.82019342320571

>  <Genealogy>  (64) 
[NH-]C(=O)c1cc2ccc(CCCN3CCOCC3)cc2n1C(=O)[O-] (protonated)
[NH-]C(=O)c1cc2ccc(CCCN3CCOCC3)cc2n1C(=O)[O-] (3D coordinates assigned)
[NH-]C(=O)c1cc2ccc(CCCN3CCOCC3)cc2n1C(=O)[O-] (nonaromatic ring conformer: 88.82019342320571 kcal/mol)

>  <smiles>  (64) 
NC(=O)c1cc2ccc(CCCN3CCOCC3)cc2n1C(=O)O

>  <score_type>  (64) 
oracle

>  <origin>  (64) 
adg

>  <m_score__min__energy>  (64) 
-11.81

>  <m_primary>  (64) 
energy

$$$$
64:0
     RDKit          3D

 44 46  0  0  0  0  0  0  0  0999 V2000
   -0.9010   14.6580  -35.9990 C   0  0  0  0  0  0  0  0  0  0  0  0
   -0.1020   15.9510  -35.8780 C   0  0  0  0  0  0  0  0  0  0  0  0
   -0.7790   16.8810  -35.0360 O   0  0  0  0  0  0  0  0  0  0  0  0
   -0.6250   18.2680  -35.1430 C   0  0  0  0  0  0  0  0  0  0  0  0
    0.1650   18.7540  -36.0000 O   0  0  0  0  0  0  0  0  0  0  0  0
   -1.3720   19.1400  -34.2760 N   0  0  0  0  0  0  0  0  0  0  0  0
   -1.0380   20.5660  -34.2400 C   0  0  0  0  0  0  0  0  0  0  0  0
   -2.3180   18.6030  -33.3290 C   0  0  0  0  0  0  0  0  0  0  0  0
   -1.9160   17.8570  -32.3940 O   0  0  0  0  0  0  0  0  0  0  0  0
   -3.7220   18.8980  -33.4360 N   0  0  0  0  0  0  0  0  0  0  0  0
   -4.6660   18.1910  -34.1140 C   0  0  0  0  0  0  0  0  0  0  0  0
   -4.4590   16.8870  -34.7770 C   0  0  0  0  0  0  0  0  0  0  0  0
   -3.4110   16.6940  -35.7270 N   0  0  0  0  0  0  0  0  0  0  0  0
   -5.1920   15.9100  -34.4620 O   0  0  0  0  0  0  0  0  0  0  0  0
   -5.8910   18.8520  -34.0810 C   0  0  0  0  0  0  0  0  0  0  0  0
   -5.6680   19.9940  -33.3470 C   0  0  0  0  0  0  0  0  0  0  0  0
   -6.5390   21.0220  -33.0010 C   0  0  0  0  0  0  0  0  0  0  0  0
   -6.0280   22.0970  -32.2530 C   0  0  0  0  0  0  0  0  0  0  0  0
   -4.6580   22.1370  -31.8800 C   0  0  0  0  0  0  0  0  0  0  0  0
   -4.1110   23.2670  -31.0900 C   0  0  0  0  0  0  0  0  0  0  0  0
   -3.0800   23.2180  -30.1670 C   0  0  0  0  0  0  0  0  0  0  0  0
   -2.9560   24.5220  -29.7380 C   0  0  0  0  0  0  0  0  0  0  0  0
   -1.9930   25.0170  -28.7500 C   0  0  0  0  0  0  0  0  0  0  0  0
   -1.8550   24.4200  -27.6490 O   0  0  0  0  0  0  0  0  0  0  0  0
   -1.2290   26.1450  -29.0190 O   0  0  0  0  0  0  0  0  0  0  0  0
   -3.8570   25.2990  -30.3680 N   0  0  0  0  0  0  0  0  0  0  0  0
   -4.5590   24.5360  -31.1900 N   0  0  0  0  0  0  0  0  0  0  0  0
   -3.8040   21.0780  -32.2660 C   0  0  0  0  0  0  0  0  0  0  0  0
   -4.3480   20.0050  -32.9790 C   0  0  0  0  0  0  0  0  0  0  0  0
   -1.1364   14.2771  -34.9943 H   0  0  0  0  0  0  0  0  0  0  0  0
   -1.8355   14.8542  -36.5450 H   0  0  0  0  0  0  0  0  0  0  0  0
   -0.3075   13.9099  -36.5450 H   0  0  0  0  0  0  0  0  0  0  0  0
    0.8857   15.7270  -35.4488 H   0  0  0  0  0  0  0  0  0  0  0  0
    0.0101   16.3941  -36.8785 H   0  0  0  0  0  0  0  0  0  0  0  0
   -0.9602   20.8981  -33.1942 H   0  0  0  0  0  0  0  0  0  0  0  0
   -0.0770   20.7305  -34.7494 H   0  0  0  0  0  0  0  0  0  0  0  0
   -1.8260   21.1401  -34.7494 H   0  0  0  0  0  0  0  0  0  0  0  0
   -2.6700   17.4150  -35.8700 H   0  0  0  0  0  0  0  0  0  0  0  0
   -3.3160   15.7800  -36.2230 H   0  0  0  0  0  0  0  0  0  0  0  0
   -6.8357   18.5298  -34.5433 H   0  0  0  0  0  0  0  0  0  0  0  0
   -7.5962   20.9945  -33.3037 H   0  0  0  0  0  0  0  0  0  0  0  0
   -6.6971   22.9170  -31.9530 H   0  0  0  0  0  0  0  0  0  0  0  0
   -2.4956   22.3418  -29.8497 H   0  0  0  0  0  0  0  0  0  0  0  0
   -2.7342   21.0978  -32.0108 H   0  0  0  0  0  0  0  0  0  0  0  0
  1  2  1  0
  2  3  1  0
  3  4  1  0
  4  5  2  0
  4  6  1  0
  6  7  1  0
  6  8  1  0
  8  9  2  0
  8 10  1  0
 10 11  1  0
 11 12  1  0
 12 13  1  0
 12 14  2  0
 11 15  2  0
 15 16  1  0
 16 17  2  0
 17 18  1  0
 18 19  2  0
 19 20  1  0
 20 21  1  0
 21 22  2  0
 22 23  1  0
 23 24  2  0
 23 25  1  0
 22 26  1  0
 26 27  1  0
 19 28  1  0
 28 29  2  0
 29 10  1  0
 29 16  1  0
 27 20  2  0
  1 30  1  0
  1 31  1  0
  1 32  1  0
  2 33  1  0
  2 34  1  0
  7 35  1  0
  7 36  1  0
  7 37  1  0
 13 38  1  0
 13 39  1  0
 15 40  1  0
 17 41  1  0
 18 42  1  0
 21 43  1  0
 28 44  1  0
M  CHG  2  25  -1  26  -1
M  END
>  <UniqueID>  (65) 
65

>  <SMILES>  (65) 
CCOC(=O)N(C)C(=O)n1c(C(N)=O)cc2ccc(-c3cc(C(=O)[O-])[n-]n3)cc21

>  <Energy>  (65) 
111.59083462628718

>  <Genealogy>  (65) 
CCOC(=O)N(C)C(=O)n1c(C(N)=O)cc2ccc(-c3cc(C(=O)[O-])[n-]n3)cc21 (protonated)
CCOC(=O)N(C)C(=O)n1c(C(N)=O)cc2ccc(-c3cc(C(=O)[O-])[n-]n3)cc21 (3D coordinates assigned)
CCOC(=O)N(C)C(=O)n1c(C(N)=O)cc2ccc(-c3cc(C(=O)[O-])[n-]n3)cc21 (optimized conformer: 111.59083462628718 kcal/mol)

>  <smiles>  (65) 
CCOC(=O)N(C)C(=O)n1c(C(N)=O)cc2ccc(-c3cc(C(=O)O)[nH]n3)cc21

>  <score_type>  (65) 
oracle

>  <origin>  (65) 
adg

>  <m_score__min__energy>  (65) 
-10.91

>  <m_primary>  (65) 
energy

$$$$
65:0
     RDKit          3D

 55 57  0  0  0  0  0  0  0  0999 V2000
   -0.0220   21.5380  -34.8590 C   0  0  0  0  0  0  0  0  0  0  0  0
   -1.0140   20.9190  -33.8900 C   0  0  0  0  0  0  0  0  0  0  0  0
   -1.1920   19.5420  -34.2070 O   0  0  0  0  0  0  0  0  0  0  0  0
   -1.7860   18.6350  -33.3220 C   0  0  0  0  0  0  0  0  0  0  0  0
   -1.1030   17.7320  -32.7710 O   0  0  0  0  0  0  0  0  0  0  0  0
   -3.2270   18.7950  -32.9580 C   0  0  0  0  0  0  0  0  0  0  0  0
   -3.9420   17.5300  -33.1380 N   0  0  0  0  0  0  0  0  0  0  0  0
   -3.4530   16.3490  -32.8130 N   0  0  0  0  0  0  0  0  0  0  0  0
   -4.4170   15.4420  -33.0500 C   0  0  0  0  0  0  0  0  0  0  0  0
   -4.2970   13.9750  -32.7480 C   0  0  0  0  0  0  0  0  0  0  0  0
   -5.2230   13.1680  -33.6640 C   0  0  0  0  0  0  0  0  0  0  0  0
   -4.6040   13.6990  -31.2700 C   0  0  0  0  0  0  0  0  0  0  0  0
   -5.5430   16.0170  -33.5250 N   0  0  0  0  0  0  0  0  0  0  0  0
   -5.2130   17.3300  -33.5500 C   0  0  0  0  0  0  0  0  0  0  0  0
   -6.1650   18.4060  -34.0050 C   0  0  0  0  0  0  0  0  0  0  0  0
   -7.3370   18.5920  -33.0290 C   0  0  0  0  0  0  0  0  0  0  0  0
   -7.4000   20.0000  -32.4950 C   0  0  0  0  0  0  0  0  0  0  0  0
   -8.6500   20.5820  -32.1610 C   0  0  0  0  0  0  0  0  0  0  0  0
   -8.7160   21.8860  -31.6350 C   0  0  0  0  0  0  0  0  0  0  0  0
   -7.5220   22.5750  -31.4480 C   0  0  0  0  0  0  0  0  0  0  0  0
   -7.2990   23.8420  -30.9530 C   0  0  0  0  0  0  0  0  0  0  0  0
   -5.9140   23.9980  -30.9560 C   0  0  0  0  0  0  0  0  0  0  0  0
   -5.2340   25.1770  -30.3850 C   0  0  0  0  0  0  0  0  0  0  0  0
   -3.9470   25.5720  -30.8500 N   0  0  0  0  0  0  0  0  0  0  0  0
   -5.7700   25.8110  -29.4380 O   0  0  0  0  0  0  0  0  0  0  0  0
   -5.3040   22.8780  -31.4460 N   0  0  0  0  0  0  0  0  0  0  0  0
   -3.8980   22.6580  -31.6470 C   0  0  0  0  0  0  0  0  0  0  0  0
   -3.4910   22.0420  -32.6670 O   0  0  0  0  0  0  0  0  0  0  0  0
   -2.9740   23.1100  -30.7120 O   0  0  0  0  0  0  0  0  0  0  0  0
   -6.3030   22.0150  -31.7410 C   0  0  0  0  0  0  0  0  0  0  0  0
   -6.2070   20.7260  -32.2820 C   0  0  0  0  0  0  0  0  0  0  0  0
    0.7789   22.0378  -34.2944 H   0  0  0  0  0  0  0  0  0  0  0  0
    0.4123   20.7503  -35.4922 H   0  0  0  0  0  0  0  0  0  0  0  0
   -0.5387   22.2743  -35.4922 H   0  0  0  0  0  0  0  0  0  0  0  0
   -0.6304   21.0122  -32.8633 H   0  0  0  0  0  0  0  0  0  0  0  0
   -1.9789   21.4411  -33.9700 H   0  0  0  0  0  0  0  0  0  0  0  0
   -3.3026   19.1077  -31.9061 H   0  0  0  0  0  0  0  0  0  0  0  0
   -3.6780   19.5561  -33.6117 H   0  0  0  0  0  0  0  0  0  0  0  0
   -2.5030   16.1790  -32.4160 H   0  0  0  0  0  0  0  0  0  0  0  0
   -3.2611   13.6589  -32.9405 H   0  0  0  0  0  0  0  0  0  0  0  0
   -5.9120   12.5676  -33.0518 H   0  0  0  0  0  0  0  0  0  0  0  0
   -5.8010   13.8557  -34.2989 H   0  0  0  0  0  0  0  0  0  0  0  0
   -4.6208   12.5015  -34.2989 H   0  0  0  0  0  0  0  0  0  0  0  0
   -3.9345   14.3009  -30.6379 H   0  0  0  0  0  0  0  0  0  0  0  0
   -5.6492   13.9671  -31.0563 H   0  0  0  0  0  0  0  0  0  0  0  0
   -4.4483   12.6312  -31.0563 H   0  0  0  0  0  0  0  0  0  0  0  0
   -5.6153   19.3555  -34.0841 H   0  0  0  0  0  0  0  0  0  0  0  0
   -6.5794   18.1022  -34.9776 H   0  0  0  0  0  0  0  0  0  0  0  0
   -8.2772   18.3675  -33.5541 H   0  0  0  0  0  0  0  0  0  0  0  0
   -7.1872   17.9095  -32.1794 H   0  0  0  0  0  0  0  0  0  0  0  0
   -9.5763   20.0089  -32.3145 H   0  0  0  0  0  0  0  0  0  0  0  0
   -9.6820   22.3461  -31.3797 H   0  0  0  0  0  0  0  0  0  0  0  0
   -8.0527   24.5733  -30.6257 H   0  0  0  0  0  0  0  0  0  0  0  0
   -3.0780   25.2500  -30.3690 H   0  0  0  0  0  0  0  0  0  0  0  0
   -5.2287   20.2909  -32.5342 H   0  0  0  0  0  0  0  0  0  0  0  0
  1  2  1  0
  2  3  1  0
  3  4  1  0
  4  5  2  0
  4  6  1  0
  6  7  1  0
  7  8  1  0
  8  9  2  0
  9 10  1  0
 10 11  1  0
 10 12  1  0
  9 13  1  0
 13 14  2  0
 14 15  1  0
 15 16  1  0
 16 17  1  0
 17 18  2  0
 18 19  1  0
 19 20  2  0
 20 21  1  0
 21 22  2  0
 22 23  1  0
 23 24  1  0
 23 25  2  0
 22 26  1  0
 26 27  1  0
 27 28  2  0
 27 29  1  0
 26 30  1  0
 30 31  2  0
 14  7  1  0
 31 17  1  0
 30 20  1  0
  1 32  1  0
  1 33  1  0
  1 34  1  0
  2 35  1  0
  2 36  1  0
  6 37  1  0
  6 38  1  0
  8 39  1  0
 10 40  1  0
 11 41  1  0
 11 42  1  0
 11 43  1  0
 12 44  1  0
 12 45  1  0
 12 46  1  0
 15 47  1  0
 15 48  1  0
 16 49  1  0
 16 50  1  0
 18 51  1  0
 19 52  1  0
 21 53  1  0
 24 54  1  0
 31 55  1  0
M  CHG  3   8   1  24  -1  29  -1
M  END
>  <UniqueID>  (66) 
66

>  <SMILES>  (66) 
CCOC(=O)Cn1[nH+]c(C(C)C)nc1CCc1ccc2cc(C([NH-])=O)n(C(=O)[O-])c2c1

>  <Energy>  (66) 
109.65916029333623

>  <Genealogy>  (66) 
CCOC(=O)Cn1[nH+]c(C(C)C)nc1CCc1ccc2cc(C([NH-])=O)n(C(=O)[O-])c2c1 (protonated)
CCOC(=O)Cn1[nH+]c(C(C)C)nc1CCc1ccc2cc(C([NH-])=O)n(C(=O)[O-])c2c1 (3D coordinates assigned)
CCOC(=O)Cn1[nH+]c(C(C)C)nc1CCc1ccc2cc(C([NH-])=O)n(C(=O)[O-])c2c1 (optimized conformer: 109.65916029333623 kcal/mol)

>  <smiles>  (66) 
CCOC(=O)Cn1nc(C(C)C)nc1CCc1ccc2cc(C(N)=O)n(C(=O)O)c2c1

>  <score_type>  (66) 
oracle

>  <origin>  (66) 
adg

>  <m_score__min__energy>  (66) 
-12.33

>  <m_primary>  (66) 
energy

$$$$
66:0
     RDKit          3D

 33 35  0  0  0  0  0  0  0  0999 V2000
   -6.0610   24.9310  -29.1690 N   0  0  0  0  0  0  0  0  0  0  0  0
   -6.4610   23.6990  -29.7710 C   0  0  0  0  0  0  0  0  0  0  0  0
   -7.5800   23.2020  -29.4740 O   0  0  0  0  0  0  0  0  0  0  0  0
   -5.5590   22.9640  -30.6800 C   0  0  0  0  0  0  0  0  0  0  0  0
   -5.9490   21.8350  -31.3940 C   0  0  0  0  0  0  0  0  0  0  0  0
   -4.8190   21.4180  -32.0580 C   0  0  0  0  0  0  0  0  0  0  0  0
   -4.6380   20.3450  -32.9280 C   0  0  0  0  0  0  0  0  0  0  0  0
   -3.3670   20.1710  -33.5010 C   0  0  0  0  0  0  0  0  0  0  0  0
   -2.3160   21.0690  -33.2040 C   0  0  0  0  0  0  0  0  0  0  0  0
   -1.0320   20.8870  -33.8040 N   0  0  0  0  0  0  0  0  0  0  0  0
   -0.4760   20.7350  -35.1620 C   0  0  0  0  0  0  0  0  0  0  0  0
    0.9530   20.6010  -34.7340 C   0  0  0  0  0  0  0  0  0  0  0  0
    1.8420   21.7370  -35.1640 C   0  0  0  0  0  0  0  0  0  0  0  0
    1.3770   22.8950  -35.3490 O   0  0  0  0  0  0  0  0  0  0  0  0
    3.1970   21.5080  -35.3630 O   0  0  0  0  0  0  0  0  0  0  0  0
    0.3690   20.7550  -33.3620 C   0  0  0  0  0  0  0  0  0  0  0  0
   -2.5330   22.1460  -32.3220 C   0  0  0  0  0  0  0  0  0  0  0  0
   -3.8030   22.2870  -31.7470 C   0  0  0  0  0  0  0  0  0  0  0  0
   -4.2450   23.2460  -30.9020 N   0  0  0  0  0  0  0  0  0  0  0  0
   -3.5120   24.3960  -30.4430 C   0  0  0  0  0  0  0  0  0  0  0  0
   -2.5210   24.2590  -29.6780 O   0  0  0  0  0  0  0  0  0  0  0  0
   -3.8870   25.6720  -30.8440 O   0  0  0  0  0  0  0  0  0  0  0  0
   -6.7240   25.4540  -28.5560 H   0  0  0  0  0  0  0  0  0  0  0  0
   -5.0840   25.2840  -29.2640 H   0  0  0  0  0  0  0  0  0  0  0  0
   -6.9476   21.3745  -31.4215 H   0  0  0  0  0  0  0  0  0  0  0  0
   -5.4638   19.6560  -33.1589 H   0  0  0  0  0  0  0  0  0  0  0  0
   -3.1881   19.3293  -34.1862 H   0  0  0  0  0  0  0  0  0  0  0  0
   -0.8511   19.8380  -35.6765 H   0  0  0  0  0  0  0  0  0  0  0  0
   -0.7090   21.5258  -35.8903 H   0  0  0  0  0  0  0  0  0  0  0  0
    1.6116   19.7729  -35.0347 H   0  0  0  0  0  0  0  0  0  0  0  0
    0.5332   19.8707  -32.7287 H   0  0  0  0  0  0  0  0  0  0  0  0
    0.7742   21.5605  -32.7319 H   0  0  0  0  0  0  0  0  0  0  0  0
   -1.7266   22.8575  -32.0908 H   0  0  0  0  0  0  0  0  0  0  0  0
  1  2  1  0
  2  3  2  0
  2  4  1  0
  4  5  2  0
  5  6  1  0
  6  7  2  0
  7  8  1  0
  8  9  2  0
  9 10  1  0
 10 11  1  0
 11 12  1  0
 12 13  1  0
 13 14  2  0
 13 15  1  0
 12 16  1  0
  9 17  1  0
 17 18  2  0
 18 19  1  0
 19 20  1  0
 20 21  2  0
 20 22  1  0
 19  4  1  0
 18  6  1  0
 16 10  1  0
  1 23  1  0
  1 24  1  0
  5 25  1  0
  7 26  1  0
  8 27  1  0
 11 28  1  0
 11 29  1  0
 12 30  1  0
 16 31  1  0
 16 32  1  0
 17 33  1  0
M  CHG  2  15  -1  22  -1
M  END
>  <UniqueID>  (67) 
67

>  <SMILES>  (67) 
NC(=O)c1cc2ccc(N3CC(C(=O)[O-])C3)cc2n1C(=O)[O-]

>  <Energy>  (67) 
119.58334609884758

>  <Genealogy>  (67) 
NC(=O)c1cc2ccc(N3CC(C(=O)[O-])C3)cc2n1C(=O)[O-] (protonated)
NC(=O)c1cc2ccc(N3CC(C(=O)[O-])C3)cc2n1C(=O)[O-] (3D coordinates assigned)
NC(=O)c1cc2ccc(N3CC(C(=O)[O-])C3)cc2n1C(=O)[O-] (nonaromatic ring conformer: 119.58334609884758 kcal/mol)

>  <smiles>  (67) 
NC(=O)c1cc2ccc(N3CC(C(=O)O)C3)cc2n1C(=O)O

>  <score_type>  (67) 
oracle

>  <origin>  (67) 
adg

>  <m_score__min__energy>  (67) 
-9.3900000000000006

>  <m_primary>  (67) 
energy

$$$$
67:0
     RDKit          3D

 43 45  0  0  0  0  0  0  0  0999 V2000
   -5.9950   16.8040  -34.2190 C   0  0  0  0  0  0  0  0  0  0  0  0
   -6.1070   18.2720  -33.7860 C   0  0  1  0  0  0  0  0  0  0  0  0
   -6.0440   19.1130  -34.9080 O   0  0  0  0  0  0  0  0  0  0  0  0
   -7.4000   18.5480  -32.9950 C   0  0  0  0  0  0  0  0  0  0  0  0
   -7.4580   19.9500  -32.4380 C   0  0  0  0  0  0  0  0  0  0  0  0
   -8.7040   20.5300  -32.0890 C   0  0  0  0  0  0  0  0  0  0  0  0
   -8.7660   21.8210  -31.5330 C   0  0  0  0  0  0  0  0  0  0  0  0
   -7.5670   22.5030  -31.3390 C   0  0  0  0  0  0  0  0  0  0  0  0
   -7.3270   23.7530  -30.8080 C   0  0  0  0  0  0  0  0  0  0  0  0
   -5.9400   23.9060  -30.8390 C   0  0  0  0  0  0  0  0  0  0  0  0
   -5.2280   25.1030  -30.3420 C   0  0  0  0  0  0  0  0  0  0  0  0
   -3.8340   25.2780  -30.5780 N   0  0  0  0  0  0  0  0  0  0  0  0
   -5.8600   25.9860  -29.7040 O   0  0  0  0  0  0  0  0  0  0  0  0
   -5.3550   22.7950  -31.3610 N   0  0  0  0  0  0  0  0  0  0  0  0
   -3.9590   22.5540  -31.5780 C   0  0  0  0  0  0  0  0  0  0  0  0
   -3.5230   22.5490  -32.7620 O   0  0  0  0  0  0  0  0  0  0  0  0
   -3.0690   22.2870  -30.4700 N   0  0  0  0  0  0  0  0  0  0  0  0
   -3.5630   22.3350  -29.0840 C   0  0  0  0  0  0  0  0  0  0  0  0
   -2.9110   21.2660  -28.2620 C   0  0  0  0  0  0  0  0  0  0  0  0
   -3.4740   20.8480  -27.2150 O   0  0  0  0  0  0  0  0  0  0  0  0
   -1.6350   20.7400  -28.6390 N   0  0  0  0  0  0  0  0  0  0  0  0
   -0.9870   21.1880  -29.8320 C   0  0  0  0  0  0  0  0  0  0  0  0
    0.1360   20.7120  -30.1490 O   0  0  0  0  0  0  0  0  0  0  0  0
   -1.6140   22.2500  -30.6840 C   0  0  0  0  0  0  0  0  0  0  0  0
   -6.3590   21.9520  -31.6710 C   0  0  0  0  0  0  0  0  0  0  0  0
   -6.2650   20.6760  -32.2270 C   0  0  0  0  0  0  0  0  0  0  0  0
   -5.9460   16.1615  -33.3275 H   0  0  0  0  0  0  0  0  0  0  0  0
   -6.8749   16.5308  -34.8199 H   0  0  0  0  0  0  0  0  0  0  0  0
   -5.0838   16.6675  -34.8199 H   0  0  0  0  0  0  0  0  0  0  0  0
   -5.2587   18.4817  -33.1179 H   0  0  0  0  0  0  0  0  0  0  0  0
   -6.9760   19.3860  -35.1160 H   0  0  0  0  0  0  0  0  0  0  0  0
   -8.2599   18.4003  -33.6649 H   0  0  0  0  0  0  0  0  0  0  0  0
   -7.4216   17.8524  -32.1431 H   0  0  0  0  0  0  0  0  0  0  0  0
   -9.6326   19.9642  -32.2548 H   0  0  0  0  0  0  0  0  0  0  0  0
   -9.7294   22.2767  -31.2605 H   0  0  0  0  0  0  0  0  0  0  0  0
   -8.0700   24.4752  -30.4389 H   0  0  0  0  0  0  0  0  0  0  0  0
   -3.4870   26.0230  -31.2220 H   0  0  0  0  0  0  0  0  0  0  0  0
   -3.3308   23.3187  -28.6500 H   0  0  0  0  0  0  0  0  0  0  0  0
   -4.6507   22.1711  -29.0861 H   0  0  0  0  0  0  0  0  0  0  0  0
   -1.1820   20.0070  -28.0490 H   0  0  0  0  0  0  0  0  0  0  0  0
   -1.1839   23.2274  -30.4198 H   0  0  0  0  0  0  0  0  0  0  0  0
   -1.4147   22.0226  -31.7416 H   0  0  0  0  0  0  0  0  0  0  0  0
   -5.2880   20.2468  -32.4939 H   0  0  0  0  0  0  0  0  0  0  0  0
  1  2  1  0
  2  3  1  0
  2  4  1  0
  4  5  1  0
  5  6  2  0
  6  7  1  0
  7  8  2  0
  8  9  1  0
  9 10  2  0
 10 11  1  0
 11 12  1  0
 11 13  2  0
 10 14  1  0
 14 15  1  0
 15 16  2  0
 15 17  1  0
 17 18  1  0
 18 19  1  0
 19 20  2  0
 19 21  1  0
 21 22  1  0
 22 23  2  0
 22 24  1  0
 14 25  1  0
 25 26  2  0
 26  5  1  0
 25  8  1  0
 24 17  1  0
  1 27  1  0
  1 28  1  0
  1 29  1  0
  2 30  1  1
  3 31  1  0
  4 32  1  0
  4 33  1  0
  6 34  1  0
  7 35  1  0
  9 36  1  0
 12 37  1  0
 18 38  1  0
 18 39  1  0
 21 40  1  0
 24 41  1  0
 24 42  1  0
 26 43  1  0
M  CHG  1  12  -1
M  END
>  <UniqueID>  (68) 
68

>  <SMILES>  (68) 
C[C@@H](O)Cc1ccc2cc(C([NH-])=O)n(C(=O)N3CC(=O)NC(=O)C3)c2c1

>  <Energy>  (68) 
79.564503872341

>  <Genealogy>  (68) 
C[C@@H](O)Cc1ccc2cc(C([NH-])=O)n(C(=O)N3CC(=O)NC(=O)C3)c2c1 (protonated)
C[C@@H](O)Cc1ccc2cc(C([NH-])=O)n(C(=O)N3CC(=O)NC(=O)C3)c2c1 (3D coordinates assigned)
C[C@@H](O)Cc1ccc2cc(C([NH-])=O)n(C(=O)N3CC(=O)NC(=O)C3)c2c1 (nonaromatic ring conformer: 79.564503872341 kcal/mol)

>  <smiles>  (68) 
C[C@@H](O)Cc1ccc2cc(C(N)=O)n(C(=O)N3CC(=O)NC(=O)C3)c2c1

>  <score_type>  (68) 
oracle

>  <origin>  (68) 
adg

>  <m_score__min__energy>  (68) 
-11.27

>  <m_primary>  (68) 
energy

$$$$
68:0
     RDKit          3D

 56 58  0  0  0  0  0  0  0  0999 V2000
   -8.2140   22.6660  -31.2190 C   0  0  0  0  0  0  0  0  0  0  0  0
   -7.5390   23.8180  -31.2130 C   0  0  0  0  0  0  0  0  0  0  0  0
   -6.4290   24.0860  -30.2300 C   0  0  0  0  0  0  0  0  0  0  0  0
   -5.3200   23.0170  -30.3340 C   0  0  1  0  0  0  0  0  0  0  0  0
   -5.1870   22.4550  -31.7540 C   0  0  0  0  0  0  0  0  0  0  0  0
   -4.1120   21.4490  -31.7860 N   0  0  0  0  0  0  0  0  0  0  0  0
   -4.2210   20.3120  -32.6610 C   0  0  0  0  0  0  0  0  0  0  0  0
   -5.4710   19.9600  -33.2330 C   0  0  0  0  0  0  0  0  0  0  0  0
   -5.5760   18.8660  -34.1080 C   0  0  0  0  0  0  0  0  0  0  0  0
   -4.4240   18.1390  -34.3850 C   0  0  0  0  0  0  0  0  0  0  0  0
   -4.2330   17.0670  -35.2280 C   0  0  0  0  0  0  0  0  0  0  0  0
   -2.8730   16.7630  -35.1390 C   0  0  0  0  0  0  0  0  0  0  0  0
   -2.2230   15.6340  -35.8410 C   0  0  0  0  0  0  0  0  0  0  0  0
   -1.0300   15.0410  -35.3270 N   0  0  0  0  0  0  0  0  0  0  0  0
   -2.7090   15.1970  -36.9180 O   0  0  0  0  0  0  0  0  0  0  0  0
   -2.2550   17.6100  -34.2690 N   0  0  0  0  0  0  0  0  0  0  0  0
   -0.8550   17.6870  -33.9670 C   0  0  0  0  0  0  0  0  0  0  0  0
   -0.3620   16.9430  -33.0770 O   0  0  0  0  0  0  0  0  0  0  0  0
   -0.0520   18.6130  -34.6430 O   0  0  0  0  0  0  0  0  0  0  0  0
    0.6420   19.6740  -33.9890 C   0  0  0  0  0  0  0  0  0  0  0  0
   -0.2400   20.9170  -33.8810 C   0  0  0  0  0  0  0  0  0  0  0  0
    0.3000   21.9570  -34.6790 O   0  0  0  0  0  0  0  0  0  0  0  0
    0.2890   21.5940  -36.0420 C   0  0  0  0  0  0  0  0  0  0  0  0
   -3.2140   18.4480  -33.8210 C   0  0  0  0  0  0  0  0  0  0  0  0
   -3.0760   19.5410  -32.9600 C   0  0  0  0  0  0  0  0  0  0  0  0
   -2.8050   21.7800  -31.1900 C   0  0  0  0  0  0  0  0  0  0  0  0
   -2.9890   22.3950  -29.7980 C   0  0  0  0  0  0  0  0  0  0  0  0
   -3.9870   23.4640  -29.8820 N   0  0  0  0  0  0  0  0  0  0  0  0
   -3.5050   24.8130  -30.0410 C   0  0  0  0  0  0  0  0  0  0  0  0
   -2.5530   25.2470  -29.3410 O   0  0  0  0  0  0  0  0  0  0  0  0
   -4.1290   25.6690  -30.9400 O   0  0  0  0  0  0  0  0  0  0  0  0
   -9.0189   22.5039  -31.9511 H   0  0  0  0  0  0  0  0  0  0  0  0
   -7.9652   21.8790  -30.4919 H   0  0  0  0  0  0  0  0  0  0  0  0
   -7.8009   24.5941  -31.9472 H   0  0  0  0  0  0  0  0  0  0  0  0
   -5.9950   25.0747  -30.4399 H   0  0  0  0  0  0  0  0  0  0  0  0
   -6.8489   24.0542  -29.2138 H   0  0  0  0  0  0  0  0  0  0  0  0
   -5.6589   22.2313  -29.6428 H   0  0  0  0  0  0  0  0  0  0  0  0
   -6.1363   21.9867  -32.0532 H   0  0  0  0  0  0  0  0  0  0  0  0
   -4.9452   23.2717  -32.4500 H   0  0  0  0  0  0  0  0  0  0  0  0
   -6.3669   20.5497  -32.9888 H   0  0  0  0  0  0  0  0  0  0  0  0
   -6.5408   18.5929  -34.5603 H   0  0  0  0  0  0  0  0  0  0  0  0
   -4.9911   16.5581  -35.8415 H   0  0  0  0  0  0  0  0  0  0  0  0
   -0.5620   14.2680  -35.8510 H   0  0  0  0  0  0  0  0  0  0  0  0
   -0.6290   15.3300  -34.4080 H   0  0  0  0  0  0  0  0  0  0  0  0
    0.9295   19.3475  -32.9787 H   0  0  0  0  0  0  0  0  0  0  0  0
    1.5349   19.9267  -34.5796 H   0  0  0  0  0  0  0  0  0  0  0  0
   -1.2548   20.6768  -34.2311 H   0  0  0  0  0  0  0  0  0  0  0  0
   -0.2793   21.2457  -32.8320 H   0  0  0  0  0  0  0  0  0  0  0  0
    0.2558   20.4980  -36.1293 H   0  0  0  0  0  0  0  0  0  0  0  0
   -0.5964   22.0277  -36.5298 H   0  0  0  0  0  0  0  0  0  0  0  0
    1.1991   21.9733  -36.5298 H   0  0  0  0  0  0  0  0  0  0  0  0
   -2.0979   19.7947  -32.5254 H   0  0  0  0  0  0  0  0  0  0  0  0
   -2.2039   20.8628  -31.1038 H   0  0  0  0  0  0  0  0  0  0  0  0
   -2.2943   22.5093  -31.8360 H   0  0  0  0  0  0  0  0  0  0  0  0
   -3.3334   21.6222  -29.0950 H   0  0  0  0  0  0  0  0  0  0  0  0
   -2.0324   22.8042  -29.4409 H   0  0  0  0  0  0  0  0  0  0  0  0
  1  2  2  0
  2  3  1  0
  3  4  1  0
  4  5  1  0
  5  6  1  0
  6  7  1  0
  7  8  2  0
  8  9  1  0
  9 10  2  0
 10 11  1  0
 11 12  2  0
 12 13  1  0
 13 14  1  0
 13 15  2  0
 12 16  1  0
 16 17  1  0
 17 18  2  0
 17 19  1  0
 19 20  1  0
 20 21  1  0
 21 22  1  0
 22 23  1  0
 16 24  1  0
 24 25  2  0
  6 26  1  0
 26 27  1  0
 27 28  1  0
 28 29  1  0
 29 30  2  0
 29 31  1  0
 28  4  1  0
 25  7  1  0
 24 10  1  0
  1 32  1  0
  1 33  1  0
  2 34  1  0
  3 35  1  0
  3 36  1  0
  4 37  1  1
  5 38  1  0
  5 39  1  0
  8 40  1  0
  9 41  1  0
 11 42  1  0
 14 43  1  0
 14 44  1  0
 20 45  1  0
 20 46  1  0
 21 47  1  0
 21 48  1  0
 23 49  1  0
 23 50  1  0
 23 51  1  0
 25 52  1  0
 26 53  1  0
 26 54  1  0
 27 55  1  0
 27 56  1  0
M  CHG  1  31  -1
M  END
>  <UniqueID>  (69) 
69

>  <SMILES>  (69) 
C=CC[C@H]1CN(c2ccc3cc(C(N)=O)n(C(=O)OCCOC)c3c2)CCN1C(=O)[O-]

>  <Energy>  (69) 
100.58691975558142

>  <Genealogy>  (69) 
C=CC[C@H]1CN(c2ccc3cc(C(N)=O)n(C(=O)OCCOC)c3c2)CCN1C(=O)[O-] (protonated)
C=CC[C@H]1CN(c2ccc3cc(C(N)=O)n(C(=O)OCCOC)c3c2)CCN1C(=O)[O-] (3D coordinates assigned)
C=CC[C@H]1CN(c2ccc3cc(C(N)=O)n(C(=O)OCCOC)c3c2)CCN1C(=O)[O-] (nonaromatic ring conformer: 100.58691975558142 kcal/mol)

>  <smiles>  (69) 
C=CC[C@H]1CN(c2ccc3cc(C(N)=O)n(C(=O)OCCOC)c3c2)CCN1C(=O)O

>  <score_type>  (69) 
oracle

>  <origin>  (69) 
adg

>  <m_score__min__energy>  (69) 
-9.5199999999999996

>  <m_primary>  (69) 
energy

$$$$
69:0
     RDKit          3D

 46 48  0  0  0  0  0  0  0  0999 V2000
   -4.2390   25.8300  -30.4960 N   0  0  0  0  0  0  0  0  0  0  0  0
   -5.5250   25.3230  -30.1520 C   0  0  0  0  0  0  0  0  0  0  0  0
   -6.2300   25.9480  -29.3150 O   0  0  0  0  0  0  0  0  0  0  0  0
   -6.0280   24.0590  -30.7320 C   0  0  0  0  0  0  0  0  0  0  0  0
   -7.3570   23.8560  -31.1000 C   0  0  0  0  0  0  0  0  0  0  0  0
   -7.4210   22.5500  -31.5280 C   0  0  0  0  0  0  0  0  0  0  0  0
   -8.5030   21.8190  -32.0090 C   0  0  0  0  0  0  0  0  0  0  0  0
   -8.2760   20.4890  -32.4000 C   0  0  0  0  0  0  0  0  0  0  0  0
   -6.9780   19.9200  -32.3240 C   0  0  0  0  0  0  0  0  0  0  0  0
   -6.7540   18.5520  -32.7230 N   0  0  0  0  0  0  0  0  0  0  0  0
   -7.0150   17.4400  -31.7980 C   0  0  0  0  0  0  0  0  0  0  0  0
   -5.7450   16.5980  -31.5930 C   0  0  0  0  0  0  0  0  0  0  0  0
   -4.8560   16.5150  -32.8640 C   0  0  0  0  0  0  0  0  0  0  0  0
   -4.1880   15.1710  -32.9730 C   0  0  0  0  0  0  0  0  0  0  0  0
   -3.5350   14.8630  -34.0050 O   0  0  0  0  0  0  0  0  0  0  0  0
   -4.3030   14.2540  -31.9350 O   0  0  0  0  0  0  0  0  0  0  0  0
   -5.6470   16.8360  -34.1460 C   0  0  0  0  0  0  0  0  0  0  0  0
   -6.2270   18.2580  -34.0660 C   0  0  0  0  0  0  0  0  0  0  0  0
   -5.9080   20.6980  -31.8260 C   0  0  0  0  0  0  0  0  0  0  0  0
   -6.1680   22.0100  -31.4190 C   0  0  0  0  0  0  0  0  0  0  0  0
   -5.2990   22.9230  -30.9290 N   0  0  0  0  0  0  0  0  0  0  0  0
   -3.8880   22.7430  -30.7270 C   0  0  0  0  0  0  0  0  0  0  0  0
   -3.0780   23.1660  -31.5960 O   0  0  0  0  0  0  0  0  0  0  0  0
   -3.3700   22.1390  -29.4500 C   0  0  0  0  0  0  0  0  0  0  0  0
   -3.2620   23.1610  -28.3090 C   0  0  0  0  0  0  0  0  0  0  0  0
   -2.8220   24.4590  -28.8140 N   0  0  0  0  0  0  0  0  0  0  0  0
   -3.4590   25.1860  -30.7560 H   0  0  0  0  0  0  0  0  0  0  0  0
   -8.1797   24.5849  -31.0573 H   0  0  0  0  0  0  0  0  0  0  0  0
   -9.5044   22.2684  -32.0808 H   0  0  0  0  0  0  0  0  0  0  0  0
   -9.1148   19.8809  -32.7697 H   0  0  0  0  0  0  0  0  0  0  0  0
   -7.3408   17.8449  -30.8285 H   0  0  0  0  0  0  0  0  0  0  0  0
   -7.8003   16.7994  -32.2258 H   0  0  0  0  0  0  0  0  0  0  0  0
   -5.1541   17.0479  -30.7815 H   0  0  0  0  0  0  0  0  0  0  0  0
   -6.0663   15.5743  -31.3506 H   0  0  0  0  0  0  0  0  0  0  0  0
   -4.0753   17.2827  -32.7588 H   0  0  0  0  0  0  0  0  0  0  0  0
   -4.9763   16.7648  -35.0149 H   0  0  0  0  0  0  0  0  0  0  0  0
   -6.4718   16.1157  -34.2504 H   0  0  0  0  0  0  0  0  0  0  0  0
   -5.4335   18.9814  -34.3047 H   0  0  0  0  0  0  0  0  0  0  0  0
   -7.0556   18.3333  -34.7856 H   0  0  0  0  0  0  0  0  0  0  0  0
   -4.8926   20.2801  -31.7601 H   0  0  0  0  0  0  0  0  0  0  0  0
   -4.0538   21.3356  -29.1386 H   0  0  0  0  0  0  0  0  0  0  0  0
   -2.3576   21.7585  -29.6506 H   0  0  0  0  0  0  0  0  0  0  0  0
   -4.2469   23.2746  -27.8325 H   0  0  0  0  0  0  0  0  0  0  0  0
   -2.5229   22.7979  -27.5797 H   0  0  0  0  0  0  0  0  0  0  0  0
   -2.7540   24.3910  -29.8560 H   0  0  0  0  0  0  0  0  0  0  0  0
   -3.5680   25.1640  -28.6160 H   0  0  0  0  0  0  0  0  0  0  0  0
  1  2  1  0
  2  3  2  0
  2  4  1  0
  4  5  2  0
  5  6  1  0
  6  7  2  0
  7  8  1  0
  8  9  2  0
  9 10  1  0
 10 11  1  0
 11 12  1  0
 12 13  1  0
 13 14  1  0
 14 15  2  0
 14 16  1  0
 13 17  1  0
 17 18  1  0
  9 19  1  0
 19 20  2  0
 20 21  1  0
 21 22  1  0
 22 23  2  0
 22 24  1  0
 24 25  1  0
 25 26  1  0
 21  4  1  0
 20  6  1  0
 18 10  1  0
  1 27  1  0
  5 28  1  0
  7 29  1  0
  8 30  1  0
 11 31  1  0
 11 32  1  0
 12 33  1  0
 12 34  1  0
 13 35  1  0
 17 36  1  0
 17 37  1  0
 18 38  1  0
 18 39  1  0
 19 40  1  0
 24 41  1  0
 24 42  1  0
 25 43  1  0
 25 44  1  0
 26 45  1  0
 26 46  1  0
M  CHG  2   1  -1  16  -1
M  END
>  <UniqueID>  (70) 
70

>  <SMILES>  (70) 
[NH-]C(=O)c1cc2ccc(N3CCC(C(=O)[O-])CC3)cc2n1C(=O)CCN

>  <Energy>  (70) 
90.2863159507784

>  <Genealogy>  (70) 
[NH-]C(=O)c1cc2ccc(N3CCC(C(=O)[O-])CC3)cc2n1C(=O)CCN (protonated)
[NH-]C(=O)c1cc2ccc(N3CCC(C(=O)[O-])CC3)cc2n1C(=O)CCN (3D coordinates assigned)
[NH-]C(=O)c1cc2ccc(N3CCC(C(=O)[O-])CC3)cc2n1C(=O)CCN (nonaromatic ring conformer: 90.2863159507784 kcal/mol)

>  <smiles>  (70) 
NCCC(=O)n1c(C(N)=O)cc2ccc(N3CCC(C(=O)O)CC3)cc21

>  <score_type>  (70) 
oracle

>  <origin>  (70) 
adg

>  <m_score__min__energy>  (70) 
-10.07

>  <m_primary>  (70) 
energy

$$$$
70:0
     RDKit          3D

 40 42  0  0  0  0  0  0  0  0999 V2000
   -2.5610   19.7970  -32.5310 C   0  0  0  0  0  0  0  0  0  0  0  0
   -3.5780   20.4140  -33.1370 C   0  0  0  0  0  0  0  0  0  0  0  0
   -3.6860   21.9090  -33.1520 C   0  0  0  0  0  0  0  0  0  0  0  0
   -3.3620   22.4190  -31.8630 O   0  0  0  0  0  0  0  0  0  0  0  0
   -4.2370   22.3390  -30.7760 C   0  0  0  0  0  0  0  0  0  0  0  0
   -3.8480   21.8450  -29.6820 O   0  0  0  0  0  0  0  0  0  0  0  0
   -5.5910   22.7980  -30.9170 N   0  0  0  0  0  0  0  0  0  0  0  0
   -6.0810   24.0500  -30.6850 C   0  0  0  0  0  0  0  0  0  0  0  0
   -5.2850   25.2470  -30.3470 C   0  0  0  0  0  0  0  0  0  0  0  0
   -3.8940   25.2840  -30.6520 N   0  0  0  0  0  0  0  0  0  0  0  0
   -5.8110   26.2250  -29.7530 O   0  0  0  0  0  0  0  0  0  0  0  0
   -7.4580   24.0810  -30.8960 C   0  0  0  0  0  0  0  0  0  0  0  0
   -7.7990   22.8040  -31.2790 C   0  0  0  0  0  0  0  0  0  0  0  0
   -9.0390   22.2720  -31.6190 C   0  0  0  0  0  0  0  0  0  0  0  0
   -9.1000   20.9110  -31.9620 C   0  0  0  0  0  0  0  0  0  0  0  0
   -7.9320   20.1080  -31.9420 C   0  0  0  0  0  0  0  0  0  0  0  0
   -8.0030   18.6500  -32.3070 C   0  0  0  0  0  0  0  0  0  0  0  0
   -6.6590   17.9940  -32.1360 C   0  0  0  0  0  0  0  0  0  0  0  0
   -6.2850   17.6700  -30.9770 O   0  0  0  0  0  0  0  0  0  0  0  0
   -5.7550   17.7310  -33.2720 C   0  0  0  0  0  0  0  0  0  0  0  0
   -5.8300   18.2560  -34.5490 C   0  0  0  0  0  0  0  0  0  0  0  0
   -4.7580   17.6990  -35.2080 C   0  0  0  0  0  0  0  0  0  0  0  0
   -4.0860   16.8900  -34.3680 N   0  0  0  0  0  0  0  0  0  0  0  0
   -4.6900   16.9110  -33.1900 N   0  0  0  0  0  0  0  0  0  0  0  0
   -6.6900   20.6840  -31.5920 C   0  0  0  0  0  0  0  0  0  0  0  0
   -6.6550   22.0480  -31.2810 C   0  0  0  0  0  0  0  0  0  0  0  0
   -2.5039   18.6985  -32.5337 H   0  0  0  0  0  0  0  0  0  0  0  0
   -1.7801   20.3871  -32.0290 H   0  0  0  0  0  0  0  0  0  0  0  0
   -4.3527   19.8129  -33.6356 H   0  0  0  0  0  0  0  0  0  0  0  0
   -2.9874   22.3201  -33.8956 H   0  0  0  0  0  0  0  0  0  0  0  0
   -4.7134   22.2007  -33.4152 H   0  0  0  0  0  0  0  0  0  0  0  0
   -3.4940   26.0430  -31.2460 H   0  0  0  0  0  0  0  0  0  0  0  0
   -8.1304   24.9439  -30.7808 H   0  0  0  0  0  0  0  0  0  0  0  0
   -9.9436   22.8978  -31.6192 H   0  0  0  0  0  0  0  0  0  0  0  0
  -10.0634   20.4642  -32.2488 H   0  0  0  0  0  0  0  0  0  0  0  0
   -8.7348   18.1497  -31.6557 H   0  0  0  0  0  0  0  0  0  0  0  0
   -8.3082   18.5630  -33.3602 H   0  0  0  0  0  0  0  0  0  0  0  0
   -6.5765   18.9588  -34.9474 H   0  0  0  0  0  0  0  0  0  0  0  0
   -4.4915   17.8860  -36.2587 H   0  0  0  0  0  0  0  0  0  0  0  0
   -5.7739   20.0757  -31.5647 H   0  0  0  0  0  0  0  0  0  0  0  0
  1  2  2  0
  2  3  1  0
  3  4  1  0
  4  5  1  0
  5  6  2  0
  5  7  1  0
  7  8  1  0
  8  9  1  0
  9 10  1  0
  9 11  2  0
  8 12  2  0
 12 13  1  0
 13 14  2  0
 14 15  1  0
 15 16  2  0
 16 17  1  0
 17 18  1  0
 18 19  2  0
 18 20  1  0
 20 21  2  0
 21 22  1  0
 22 23  2  0
 23 24  1  0
 16 25  1  0
 25 26  2  0
 26  7  1  0
 26 13  1  0
 24 20  1  0
  1 27  1  0
  1 28  1  0
  2 29  1  0
  3 30  1  0
  3 31  1  0
 10 32  1  0
 12 33  1  0
 14 34  1  0
 15 35  1  0
 17 36  1  0
 17 37  1  0
 21 38  1  0
 22 39  1  0
 25 40  1  0
M  CHG  2  10  -1  24  -1
M  END
>  <UniqueID>  (71) 
71

>  <SMILES>  (71) 
C=CCOC(=O)n1c(C([NH-])=O)cc2ccc(CC(=O)c3ccn[n-]3)cc21

>  <Energy>  (71) 
102.48129488756496

>  <Genealogy>  (71) 
C=CCOC(=O)n1c(C([NH-])=O)cc2ccc(CC(=O)c3ccn[n-]3)cc21 (protonated)
C=CCOC(=O)n1c(C([NH-])=O)cc2ccc(CC(=O)c3ccn[n-]3)cc21 (3D coordinates assigned)
C=CCOC(=O)n1c(C([NH-])=O)cc2ccc(CC(=O)c3ccn[n-]3)cc21 (optimized conformer: 102.48129488756496 kcal/mol)

>  <smiles>  (71) 
C=CCOC(=O)n1c(C(N)=O)cc2ccc(CC(=O)c3ccn[nH]3)cc21

>  <score_type>  (71) 
oracle

>  <origin>  (71) 
adg

>  <m_score__min__energy>  (71) 
-10.57

>  <m_primary>  (71) 
energy

$$$$
71:0
     RDKit          3D

 45 48  0  0  0  0  0  0  0  0999 V2000
   -7.7020   17.8640  -31.9780 C   0  0  0  0  0  0  0  0  0  0  0  0
   -9.0710   18.1910  -32.0530 O   0  0  0  0  0  0  0  0  0  0  0  0
   -9.2050   19.5020  -32.5620 C   0  0  0  0  0  0  0  0  0  0  0  0
   -7.8980   20.0940  -32.9920 C   0  0  0  0  0  0  0  0  0  0  0  0
   -7.8170   21.0960  -31.9140 N   0  0  0  0  0  0  0  0  0  0  0  0
   -6.9220   22.1270  -31.4960 C   0  0  0  0  0  0  0  0  0  0  0  0
   -7.2980   23.4840  -31.6250 C   0  0  0  0  0  0  0  0  0  0  0  0
   -6.4220   24.5100  -31.2270 C   0  0  0  0  0  0  0  0  0  0  0  0
   -5.1860   24.1420  -30.7000 C   0  0  0  0  0  0  0  0  0  0  0  0
   -4.1430   24.9230  -30.2570 C   0  0  0  0  0  0  0  0  0  0  0  0
   -3.1580   24.0260  -29.8470 C   0  0  0  0  0  0  0  0  0  0  0  0
   -1.8880   24.4420  -29.2180 C   0  0  0  0  0  0  0  0  0  0  0  0
   -1.6100   25.8180  -28.9680 N   0  0  0  0  0  0  0  0  0  0  0  0
   -1.0180   23.5760  -28.9360 O   0  0  0  0  0  0  0  0  0  0  0  0
   -3.5720   22.7420  -30.0390 N   0  0  0  0  0  0  0  0  0  0  0  0
   -2.8270   21.5340  -29.8230 C   0  0  0  0  0  0  0  0  0  0  0  0
   -2.6960   20.7100  -30.7680 O   0  0  0  0  0  0  0  0  0  0  0  0
   -2.1900   21.3040  -28.5560 N   0  0  0  0  0  0  0  0  0  0  0  0
   -1.5980   20.0620  -28.1510 C   0  0  0  0  0  0  0  0  0  0  0  0
   -0.5100   19.5460  -28.7610 N   0  0  0  0  0  0  0  0  0  0  0  0
   -0.1100   18.3810  -28.1840 C   0  0  0  0  0  0  0  0  0  0  0  0
    1.0970   17.6400  -28.6600 C   0  0  0  0  0  0  0  0  0  0  0  0
   -0.8620   17.9730  -27.0850 C   0  0  0  0  0  0  0  0  0  0  0  0
   -2.0820   19.1070  -26.8490 S   0  0  0  0  0  0  0  0  0  0  0  0
   -4.8170   22.8290  -30.5560 C   0  0  0  0  0  0  0  0  0  0  0  0
   -5.6630   21.7900  -30.9590 C   0  0  0  0  0  0  0  0  0  0  0  0
   -9.1040   20.5240  -31.4750 C   0  0  0  0  0  0  0  0  0  0  0  0
   -7.3995   17.7918  -30.9229 H   0  0  0  0  0  0  0  0  0  0  0  0
   -7.5277   16.8990  -32.4763 H   0  0  0  0  0  0  0  0  0  0  0  0
   -7.1104   18.6461  -32.4763 H   0  0  0  0  0  0  0  0  0  0  0  0
  -10.0695   19.3762  -33.2304 H   0  0  0  0  0  0  0  0  0  0  0  0
   -7.0721   19.3681  -32.9597 H   0  0  0  0  0  0  0  0  0  0  0  0
   -7.8321   20.4643  -34.0257 H   0  0  0  0  0  0  0  0  0  0  0  0
   -8.2841   23.7395  -32.0402 H   0  0  0  0  0  0  0  0  0  0  0  0
   -6.7037   25.5685  -31.3285 H   0  0  0  0  0  0  0  0  0  0  0  0
   -4.0965   26.0217  -30.2318 H   0  0  0  0  0  0  0  0  0  0  0  0
   -1.2220   26.4330  -29.7180 H   0  0  0  0  0  0  0  0  0  0  0  0
   -2.1520   22.0990  -27.8800 H   0  0  0  0  0  0  0  0  0  0  0  0
    1.6748   17.2853  -27.7938 H   0  0  0  0  0  0  0  0  0  0  0  0
    0.7825   16.7792  -29.2683 H   0  0  0  0  0  0  0  0  0  0  0  0
    1.7223   18.3100  -29.2683 H   0  0  0  0  0  0  0  0  0  0  0  0
   -0.6892   17.0709  -26.4798 H   0  0  0  0  0  0  0  0  0  0  0  0
   -5.3541   20.7390  -30.8595 H   0  0  0  0  0  0  0  0  0  0  0  0
   -9.0483   20.0735  -30.4730 H   0  0  0  0  0  0  0  0  0  0  0  0
   -9.9484   21.2200  -31.3629 H   0  0  0  0  0  0  0  0  0  0  0  0
  1  2  1  0
  2  3  1  0
  3  4  1  0
  4  5  1  0
  5  6  1  0
  6  7  2  0
  7  8  1  0
  8  9  2  0
  9 10  1  0
 10 11  2  0
 11 12  1  0
 12 13  1  0
 12 14  2  0
 11 15  1  0
 15 16  1  0
 16 17  2  0
 16 18  1  0
 18 19  1  0
 19 20  2  0
 20 21  1  0
 21 22  1  0
 21 23  2  0
 23 24  1  0
 15 25  1  0
 25 26  2  0
  5 27  1  0
 27  3  1  0
 26  6  1  0
 25  9  1  0
 24 19  1  0
  1 28  1  0
  1 29  1  0
  1 30  1  0
  3 31  1  0
  4 32  1  0
  4 33  1  0
  7 34  1  0
  8 35  1  0
 10 36  1  0
 13 37  1  0
 18 38  1  0
 22 39  1  0
 22 40  1  0
 22 41  1  0
 23 42  1  0
 26 43  1  0
 27 44  1  0
 27 45  1  0
M  CHG  1  13  -1
M  END
>  <UniqueID>  (72) 
72

>  <SMILES>  (72) 
COC1CN(c2ccc3cc(C([NH-])=O)n(C(=O)Nc4nc(C)cs4)c3c2)C1

>  <Energy>  (72) 
161.47022085260537

>  <Genealogy>  (72) 
COC1CN(c2ccc3cc(C([NH-])=O)n(C(=O)Nc4nc(C)cs4)c3c2)C1 (protonated)
COC1CN(c2ccc3cc(C([NH-])=O)n(C(=O)Nc4nc(C)cs4)c3c2)C1 (3D coordinates assigned)
COC1CN(c2ccc3cc(C([NH-])=O)n(C(=O)Nc4nc(C)cs4)c3c2)C1 (nonaromatic ring conformer: 161.47022085260537 kcal/mol)

>  <smiles>  (72) 
COC1CN(c2ccc3cc(C(N)=O)n(C(=O)Nc4nc(C)cs4)c3c2)C1

>  <score_type>  (72) 
oracle

>  <origin>  (72) 
adg

>  <m_score__min__energy>  (72) 
-10.82

>  <m_primary>  (72) 
energy

$$$$
72:0
     RDKit          3D

 37 39  0  0  0  0  0  0  0  0999 V2000
   -1.9790   25.5780  -28.4440 N   0  0  0  0  0  0  0  0  0  0  0  0
   -1.0620   24.5650  -28.8630 C   0  0  0  0  0  0  0  0  0  0  0  0
    0.1500   24.6610  -28.5340 O   0  0  0  0  0  0  0  0  0  0  0  0
   -1.5160   23.4380  -29.7060 C   0  0  0  0  0  0  0  0  0  0  0  0
   -0.7030   22.3680  -30.0750 C   0  0  0  0  0  0  0  0  0  0  0  0
   -1.5240   21.5040  -30.7600 C   0  0  0  0  0  0  0  0  0  0  0  0
   -1.2350   20.2830  -31.3600 C   0  0  0  0  0  0  0  0  0  0  0  0
   -2.2730   19.6120  -32.0260 C   0  0  0  0  0  0  0  0  0  0  0  0
   -3.5780   20.1740  -32.0900 C   0  0  0  0  0  0  0  0  0  0  0  0
   -4.6530   19.5080  -32.7790 N   0  0  0  0  0  0  0  0  0  0  0  0
   -5.6000   20.2050  -33.6530 C   0  0  0  0  0  0  0  0  0  0  0  0
   -6.8480   20.5740  -32.8960 C   0  0  0  0  0  0  0  0  0  0  0  0
   -6.9760   21.8500  -32.3240 C   0  0  0  0  0  0  0  0  0  0  0  0
   -8.1200   22.1790  -31.5890 C   0  0  0  0  0  0  0  0  0  0  0  0
   -9.1350   21.2340  -31.4110 C   0  0  0  0  0  0  0  0  0  0  0  0
   -9.0060   19.9570  -31.9650 C   0  0  0  0  0  0  0  0  0  0  0  0
   -7.8640   19.6250  -32.7000 C   0  0  0  0  0  0  0  0  0  0  0  0
   -3.8280   21.4170  -31.4670 C   0  0  0  0  0  0  0  0  0  0  0  0
   -2.7790   22.0540  -30.7940 C   0  0  0  0  0  0  0  0  0  0  0  0
   -2.7910   23.2430  -30.1500 N   0  0  0  0  0  0  0  0  0  0  0  0
   -3.9040   24.1470  -30.0330 C   0  0  0  0  0  0  0  0  0  0  0  0
   -4.9360   23.8070  -29.3970 O   0  0  0  0  0  0  0  0  0  0  0  0
   -3.8590   25.3970  -30.6360 O   0  0  0  0  0  0  0  0  0  0  0  0
   -1.6400   26.3910  -27.8830 H   0  0  0  0  0  0  0  0  0  0  0  0
   -2.9990   25.5070  -28.6540 H   0  0  0  0  0  0  0  0  0  0  0  0
    0.3689   22.2415  -29.8630 H   0  0  0  0  0  0  0  0  0  0  0  0
   -0.2225   19.8554  -31.3141 H   0  0  0  0  0  0  0  0  0  0  0  0
   -2.0748   18.6411  -32.5035 H   0  0  0  0  0  0  0  0  0  0  0  0
   -4.7590   18.4760  -32.6440 H   0  0  0  0  0  0  0  0  0  0  0  0
   -5.1282   21.1202  -34.0401 H   0  0  0  0  0  0  0  0  0  0  0  0
   -5.8736   19.5371  -34.4831 H   0  0  0  0  0  0  0  0  0  0  0  0
   -6.1750   22.5926  -32.4541 H   0  0  0  0  0  0  0  0  0  0  0  0
   -8.2211   23.1827  -31.1504 H   0  0  0  0  0  0  0  0  0  0  0  0
  -10.0350   21.4953  -30.8351 H   0  0  0  0  0  0  0  0  0  0  0  0
   -9.8035   19.2129  -31.8225 H   0  0  0  0  0  0  0  0  0  0  0  0
   -7.7611   18.6163  -33.1264 H   0  0  0  0  0  0  0  0  0  0  0  0
   -4.8271   21.8751  -31.5099 H   0  0  0  0  0  0  0  0  0  0  0  0
  1  2  1  0
  2  3  2  0
  2  4  1  0
  4  5  2  0
  5  6  1  0
  6  7  2  0
  7  8  1  0
  8  9  2  0
  9 10  1  0
 10 11  1  0
 11 12  1  0
 12 13  2  0
 13 14  1  0
 14 15  2  0
 15 16  1  0
 16 17  2  0
  9 18  1  0
 18 19  2  0
 19 20  1  0
 20 21  1  0
 21 22  2  0
 21 23  1  0
 20  4  1  0
 19  6  1  0
 17 12  1  0
  1 24  1  0
  1 25  1  0
  5 26  1  0
  7 27  1  0
  8 28  1  0
 10 29  1  0
 11 30  1  0
 11 31  1  0
 13 32  1  0
 14 33  1  0
 15 34  1  0
 16 35  1  0
 17 36  1  0
 18 37  1  0
M  CHG  1  23  -1
M  END
>  <UniqueID>  (73) 
73

>  <SMILES>  (73) 
NC(=O)c1cc2ccc(NCc3ccccc3)cc2n1C(=O)[O-]

>  <Energy>  (73) 
78.36245134890558

>  <Genealogy>  (73) 
NC(=O)c1cc2ccc(NCc3ccccc3)cc2n1C(=O)[O-] (protonated)
NC(=O)c1cc2ccc(NCc3ccccc3)cc2n1C(=O)[O-] (3D coordinates assigned)
NC(=O)c1cc2ccc(NCc3ccccc3)cc2n1C(=O)[O-] (optimized conformer: 78.36245134890558 kcal/mol)

>  <smiles>  (73) 
NC(=O)c1cc2ccc(NCc3ccccc3)cc2n1C(=O)O

>  <score_type>  (73) 
oracle

>  <origin>  (73) 
adg

>  <m_score__min__energy>  (73) 
-9.8800000000000008

>  <m_primary>  (73) 
energy

$$$$
73:0
     RDKit          3D

 37 39  0  0  0  0  0  0  0  0999 V2000
   -9.1070   18.9360  -32.0870 C   0  0  0  0  0  0  0  0  0  0  0  0
   -8.4510   20.2790  -32.0920 C   0  0  0  0  0  0  0  0  0  0  0  0
   -9.0800   21.4870  -31.8630 C   0  0  0  0  0  0  0  0  0  0  0  0
   -8.0930   22.4470  -31.9560 C   0  0  0  0  0  0  0  0  0  0  0  0
   -6.9390   21.8750  -32.2230 O   0  0  0  0  0  0  0  0  0  0  0  0
   -7.1140   20.5760  -32.3150 C   0  0  0  0  0  0  0  0  0  0  0  0
   -6.0210   19.6260  -32.6130 C   0  0  0  0  0  0  0  0  0  0  0  0
   -6.0280   18.4710  -32.1080 O   0  0  0  0  0  0  0  0  0  0  0  0
   -4.8630   20.0360  -33.4760 C   0  0  0  0  0  0  0  0  0  0  0  0
   -3.7570   20.5980  -32.6220 C   0  0  0  0  0  0  0  0  0  0  0  0
   -2.5600   19.8640  -32.4310 C   0  0  0  0  0  0  0  0  0  0  0  0
   -1.5380   20.3650  -31.6060 C   0  0  0  0  0  0  0  0  0  0  0  0
   -1.7420   21.5950  -30.9870 C   0  0  0  0  0  0  0  0  0  0  0  0
   -0.9390   22.2850  -30.1090 C   0  0  0  0  0  0  0  0  0  0  0  0
   -1.6530   23.4360  -29.7860 C   0  0  0  0  0  0  0  0  0  0  0  0
   -1.1220   24.4990  -28.9090 C   0  0  0  0  0  0  0  0  0  0  0  0
   -1.9610   25.5510  -28.4280 N   0  0  0  0  0  0  0  0  0  0  0  0
    0.1080   24.5150  -28.6300 O   0  0  0  0  0  0  0  0  0  0  0  0
   -2.8560   23.4550  -30.4270 N   0  0  0  0  0  0  0  0  0  0  0  0
   -3.9330   24.3880  -30.2260 C   0  0  0  0  0  0  0  0  0  0  0  0
   -4.9420   24.0670  -29.5420 O   0  0  0  0  0  0  0  0  0  0  0  0
   -3.8620   25.6670  -30.7680 O   0  0  0  0  0  0  0  0  0  0  0  0
   -2.8920   22.3220  -31.1650 C   0  0  0  0  0  0  0  0  0  0  0  0
   -3.9310   21.8400  -31.9730 C   0  0  0  0  0  0  0  0  0  0  0  0
   -9.2664   18.6097  -31.0487 H   0  0  0  0  0  0  0  0  0  0  0  0
  -10.0757   18.9992  -32.6043 H   0  0  0  0  0  0  0  0  0  0  0  0
   -8.4617   18.2108  -32.6043 H   0  0  0  0  0  0  0  0  0  0  0  0
  -10.1469   21.6502  -31.6505 H   0  0  0  0  0  0  0  0  0  0  0  0
   -8.2480   23.5283  -31.8263 H   0  0  0  0  0  0  0  0  0  0  0  0
   -4.4894   19.1590  -34.0249 H   0  0  0  0  0  0  0  0  0  0  0  0
   -5.1974   20.8064  -34.1864 H   0  0  0  0  0  0  0  0  0  0  0  0
   -2.4294   18.8938  -32.9326 H   0  0  0  0  0  0  0  0  0  0  0  0
   -0.6052   19.8021  -31.4542 H   0  0  0  0  0  0  0  0  0  0  0  0
    0.0548   21.9905  -29.7407 H   0  0  0  0  0  0  0  0  0  0  0  0
   -2.9400   25.6600  -28.7730 H   0  0  0  0  0  0  0  0  0  0  0  0
   -1.5780   26.2760  -27.7830 H   0  0  0  0  0  0  0  0  0  0  0  0
   -4.8599   22.4156  -32.0986 H   0  0  0  0  0  0  0  0  0  0  0  0
  1  2  1  0
  2  3  1  0
  3  4  2  0
  4  5  1  0
  5  6  1  0
  6  7  1  0
  7  8  2  0
  7  9  1  0
  9 10  1  0
 10 11  2  0
 11 12  1  0
 12 13  2  0
 13 14  1  0
 14 15  2  0
 15 16  1  0
 16 17  1  0
 16 18  2  0
 15 19  1  0
 19 20  1  0
 20 21  2  0
 20 22  1  0
 19 23  1  0
 23 24  2  0
  6  2  2  0
 24 10  1  0
 23 13  1  0
  1 25  1  0
  1 26  1  0
  1 27  1  0
  3 28  1  0
  4 29  1  0
  9 30  1  0
  9 31  1  0
 11 32  1  0
 12 33  1  0
 14 34  1  0
 17 35  1  0
 17 36  1  0
 24 37  1  0
M  CHG  1  22  -1
M  END
>  <UniqueID>  (74) 
74

>  <SMILES>  (74) 
Cc1ccoc1C(=O)Cc1ccc2cc(C(N)=O)n(C(=O)[O-])c2c1

>  <Energy>  (74) 
103.12886955070196

>  <Genealogy>  (74) 
Cc1ccoc1C(=O)Cc1ccc2cc(C(N)=O)n(C(=O)[O-])c2c1 (protonated)
Cc1ccoc1C(=O)Cc1ccc2cc(C(N)=O)n(C(=O)[O-])c2c1 (3D coordinates assigned)
Cc1ccoc1C(=O)Cc1ccc2cc(C(N)=O)n(C(=O)[O-])c2c1 (optimized conformer: 103.12886955070196 kcal/mol)

>  <smiles>  (74) 
Cc1ccoc1C(=O)Cc1ccc2cc(C(N)=O)n(C(=O)O)c2c1

>  <score_type>  (74) 
oracle

>  <origin>  (74) 
adg

>  <m_score__min__energy>  (74) 
-9.7100000000000009

>  <m_primary>  (74) 
energy

$$$$
74:0
     RDKit          3D

 36 37  0  0  0  0  0  0  0  0999 V2000
   -8.0180   21.0150  -31.3110 C   0  0  0  0  0  0  0  0  0  0  0  0
   -8.2420   19.5750  -31.5120 N   0  0  0  0  0  0  0  0  0  0  0  0
   -9.1030   19.3720  -32.6910 C   0  0  0  0  0  0  0  0  0  0  0  0
   -6.9500   18.8740  -31.6690 C   0  0  0  0  0  0  0  0  0  0  0  0
   -6.3580   19.1110  -33.0650 C   0  0  0  0  0  0  0  0  0  0  0  0
   -5.7320   20.3920  -33.1480 O   0  0  0  0  0  0  0  0  0  0  0  0
   -4.5360   20.7610  -32.5090 C   0  0  0  0  0  0  0  0  0  0  0  0
   -3.3630   19.9580  -32.5550 C   0  0  0  0  0  0  0  0  0  0  0  0
   -2.1860   20.3760  -31.9130 C   0  0  0  0  0  0  0  0  0  0  0  0
   -2.2100   21.5850  -31.2240 C   0  0  0  0  0  0  0  0  0  0  0  0
   -1.2090   22.2320  -30.5370 C   0  0  0  0  0  0  0  0  0  0  0  0
   -1.7890   23.4040  -30.0570 C   0  0  0  0  0  0  0  0  0  0  0  0
   -1.0820   24.3620  -29.1820 C   0  0  0  0  0  0  0  0  0  0  0  0
   -1.6130   25.6710  -28.9880 N   0  0  0  0  0  0  0  0  0  0  0  0
    0.0080   24.0510  -28.6330 O   0  0  0  0  0  0  0  0  0  0  0  0
   -3.0970   23.4820  -30.4380 N   0  0  0  0  0  0  0  0  0  0  0  0
   -4.0160   24.5630  -30.2080 C   0  0  0  0  0  0  0  0  0  0  0  0
   -3.8680   25.6620  -30.8070 O   0  0  0  0  0  0  0  0  0  0  0  0
   -5.0590   24.4180  -29.3030 O   0  0  0  0  0  0  0  0  0  0  0  0
   -3.3390   22.3590  -31.1490 C   0  0  0  0  0  0  0  0  0  0  0  0
   -4.5200   21.9750  -31.7950 C   0  0  0  0  0  0  0  0  0  0  0  0
   -7.9839   21.2339  -30.2335 H   0  0  0  0  0  0  0  0  0  0  0  0
   -7.0638   21.3059  -31.7746 H   0  0  0  0  0  0  0  0  0  0  0  0
   -8.8388   21.5820  -31.7746 H   0  0  0  0  0  0  0  0  0  0  0  0
  -10.1246   19.1311  -32.3619 H   0  0  0  0  0  0  0  0  0  0  0  0
   -9.1196   20.2909  -33.2955 H   0  0  0  0  0  0  0  0  0  0  0  0
   -8.7074   18.5425  -33.2955 H   0  0  0  0  0  0  0  0  0  0  0  0
   -6.2447   19.2470  -30.9118 H   0  0  0  0  0  0  0  0  0  0  0  0
   -7.1205   17.7949  -31.5408 H   0  0  0  0  0  0  0  0  0  0  0  0
   -5.6106   18.3317  -33.2752 H   0  0  0  0  0  0  0  0  0  0  0  0
   -7.1743   19.0730  -33.8014 H   0  0  0  0  0  0  0  0  0  0  0  0
   -3.3778   19.0015  -33.0980 H   0  0  0  0  0  0  0  0  0  0  0  0
   -1.2718   19.7656  -31.9535 H   0  0  0  0  0  0  0  0  0  0  0  0
   -0.1712   21.8954  -30.3966 H   0  0  0  0  0  0  0  0  0  0  0  0
   -2.6430   25.8400  -29.0050 H   0  0  0  0  0  0  0  0  0  0  0  0
   -5.4177   22.6088  -31.7460 H   0  0  0  0  0  0  0  0  0  0  0  0
  1  2  1  0
  2  3  1  0
  2  4  1  0
  4  5  1  0
  5  6  1  0
  6  7  1  0
  7  8  2  0
  8  9  1  0
  9 10  2  0
 10 11  1  0
 11 12  2  0
 12 13  1  0
 13 14  1  0
 13 15  2  0
 12 16  1  0
 16 17  1  0
 17 18  2  0
 17 19  1  0
 16 20  1  0
 20 21  2  0
 21  7  1  0
 20 10  1  0
  1 22  1  0
  1 23  1  0
  1 24  1  0
  3 25  1  0
  3 26  1  0
  3 27  1  0
  4 28  1  0
  4 29  1  0
  5 30  1  0
  5 31  1  0
  8 32  1  0
  9 33  1  0
 11 34  1  0
 14 35  1  0
 21 36  1  0
M  CHG  2  14  -1  19  -1
M  END
>  <UniqueID>  (75) 
75

>  <SMILES>  (75) 
CN(C)CCOc1ccc2cc(C([NH-])=O)n(C(=O)[O-])c2c1

>  <Energy>  (75) 
74.88739604176618

>  <Genealogy>  (75) 
CN(C)CCOc1ccc2cc(C([NH-])=O)n(C(=O)[O-])c2c1 (protonated)
CN(C)CCOc1ccc2cc(C([NH-])=O)n(C(=O)[O-])c2c1 (3D coordinates assigned)
CN(C)CCOc1ccc2cc(C([NH-])=O)n(C(=O)[O-])c2c1 (optimized conformer: 74.88739604176618 kcal/mol)

>  <smiles>  (75) 
CN(C)CCOc1ccc2cc(C(N)=O)n(C(=O)O)c2c1

>  <score_type>  (75) 
oracle

>  <origin>  (75) 
adg

>  <m_score__min__energy>  (75) 
-10.41

>  <m_primary>  (75) 
energy

$$$$
75:0
     RDKit          3D

 54 55  0  0  0  0  0  0  0  0999 V2000
   -2.6580   20.6920  -32.5190 C   0  0  0  0  0  0  0  0  0  0  0  0
   -3.1210   21.9310  -32.6680 C   0  0  0  0  0  0  0  0  0  0  0  0
   -3.7650   22.6790  -31.5740 C   0  0  0  0  0  0  0  0  0  0  0  0
   -3.0490   23.1330  -30.6420 O   0  0  0  0  0  0  0  0  0  0  0  0
   -5.1860   22.8910  -31.5370 N   0  0  0  0  0  0  0  0  0  0  0  0
   -5.8550   23.9200  -30.9500 C   0  0  0  0  0  0  0  0  0  0  0  0
   -5.2340   25.1110  -30.3350 C   0  0  0  0  0  0  0  0  0  0  0  0
   -4.0070   25.6200  -30.8510 N   0  0  0  0  0  0  0  0  0  0  0  0
   -5.7710   25.6770  -29.3460 O   0  0  0  0  0  0  0  0  0  0  0  0
   -7.2320   23.7110  -31.0230 C   0  0  0  0  0  0  0  0  0  0  0  0
   -7.3820   22.5040  -31.6680 C   0  0  0  0  0  0  0  0  0  0  0  0
   -8.5330   21.7810  -31.9550 C   0  0  0  0  0  0  0  0  0  0  0  0
   -8.3850   20.5210  -32.5570 C   0  0  0  0  0  0  0  0  0  0  0  0
   -7.0990   19.9940  -32.8590 C   0  0  0  0  0  0  0  0  0  0  0  0
   -7.0200   18.5830  -33.4340 C   0  0  1  0  0  0  0  0  0  0  0  0
   -6.0560   18.4040  -34.5870 C   0  0  0  0  0  0  0  0  0  0  0  0
   -5.8390   17.2880  -35.0340 O   0  0  0  0  0  0  0  0  0  0  0  0
   -6.8630   17.5060  -32.3240 C   0  0  0  0  0  0  0  0  0  0  0  0
   -5.4300   17.1050  -31.9040 C   0  0  0  0  0  0  0  0  0  0  0  0
   -5.0080   15.6420  -32.1670 C   0  0  0  0  0  0  0  0  0  0  0  0
   -4.7160   15.3340  -33.5930 N   0  0  0  0  0  0  0  0  0  0  0  0
   -3.2500   15.4080  -33.8800 C   0  0  0  0  0  0  0  0  0  0  0  0
   -2.8130   16.8230  -34.2680 C   0  0  0  0  0  0  0  0  0  0  0  0
   -5.2540   13.9880  -33.9210 C   0  0  0  0  0  0  0  0  0  0  0  0
   -6.7050   14.0440  -34.4140 C   0  0  0  0  0  0  0  0  0  0  0  0
   -5.9530   20.7750  -32.5560 C   0  0  0  0  0  0  0  0  0  0  0  0
   -6.1340   22.0290  -31.9650 C   0  0  0  0  0  0  0  0  0  0  0  0
   -2.1849   20.1759  -33.3674 H   0  0  0  0  0  0  0  0  0  0  0  0
   -2.7485   20.1841  -31.5475 H   0  0  0  0  0  0  0  0  0  0  0  0
   -3.0185   22.4171  -33.6494 H   0  0  0  0  0  0  0  0  0  0  0  0
   -3.0890   25.2940  -30.4720 H   0  0  0  0  0  0  0  0  0  0  0  0
   -8.0281   24.3698  -30.6458 H   0  0  0  0  0  0  0  0  0  0  0  0
   -9.5292   22.1829  -31.7181 H   0  0  0  0  0  0  0  0  0  0  0  0
   -9.2807   19.9304  -32.7996 H   0  0  0  0  0  0  0  0  0  0  0  0
   -8.0009   18.4204  -33.9045 H   0  0  0  0  0  0  0  0  0  0  0  0
   -5.5508   19.2787  -35.0225 H   0  0  0  0  0  0  0  0  0  0  0  0
   -7.3741   17.8837  -31.4262 H   0  0  0  0  0  0  0  0  0  0  0  0
   -7.2880   16.5918  -32.7639 H   0  0  0  0  0  0  0  0  0  0  0  0
   -4.7298   17.7558  -32.4483 H   0  0  0  0  0  0  0  0  0  0  0  0
   -5.4100   17.2170  -30.8099 H   0  0  0  0  0  0  0  0  0  0  0  0
   -4.1029   15.4336  -31.5776 H   0  0  0  0  0  0  0  0  0  0  0  0
   -5.8621   15.0119  -31.8780 H   0  0  0  0  0  0  0  0  0  0  0  0
   -5.2440   16.0180  -34.1800 H   0  0  0  0  0  0  0  0  0  0  0  0
   -2.6960   15.0990  -32.9813 H   0  0  0  0  0  0  0  0  0  0  0  0
   -3.0354   14.7412  -34.7282 H   0  0  0  0  0  0  0  0  0  0  0  0
   -2.6308   17.4130  -33.3577 H   0  0  0  0  0  0  0  0  0  0  0  0
   -1.8890   16.7713  -34.8625 H   0  0  0  0  0  0  0  0  0  0  0  0
   -3.6053   17.3014  -34.8625 H   0  0  0  0  0  0  0  0  0  0  0  0
   -4.6301   13.5403  -34.7086 H   0  0  0  0  0  0  0  0  0  0  0  0
   -5.2348   13.3852  -33.0010 H   0  0  0  0  0  0  0  0  0  0  0  0
   -7.3851   14.0702  -33.5498 H   0  0  0  0  0  0  0  0  0  0  0  0
   -6.8507   14.9484  -35.0229 H   0  0  0  0  0  0  0  0  0  0  0  0
   -6.9200   13.1535  -35.0229 H   0  0  0  0  0  0  0  0  0  0  0  0
   -4.9433   20.4012  -32.7816 H   0  0  0  0  0  0  0  0  0  0  0  0
  1  2  2  0
  2  3  1  0
  3  4  2  0
  3  5  1  0
  5  6  1  0
  6  7  1  0
  7  8  1  0
  7  9  2  0
  6 10  2  0
 10 11  1  0
 11 12  2  0
 12 13  1  0
 13 14  2  0
 14 15  1  0
 15 16  1  0
 16 17  2  0
 15 18  1  0
 18 19  1  0
 19 20  1  0
 20 21  1  0
 21 22  1  0
 22 23  1  0
 21 24  1  0
 24 25  1  0
 14 26  1  0
 26 27  2  0
 27  5  1  0
 27 11  1  0
  1 28  1  0
  1 29  1  0
  2 30  1  0
  8 31  1  0
 10 32  1  0
 12 33  1  0
 13 34  1  0
 15 35  1  6
 16 36  1  0
 18 37  1  0
 18 38  1  0
 19 39  1  0
 19 40  1  0
 20 41  1  0
 20 42  1  0
 21 43  1  0
 22 44  1  0
 22 45  1  0
 23 46  1  0
 23 47  1  0
 23 48  1  0
 24 49  1  0
 24 50  1  0
 25 51  1  0
 25 52  1  0
 25 53  1  0
 26 54  1  0
M  CHG  2   8  -1  21   1
M  END
>  <UniqueID>  (76) 
76

>  <SMILES>  (76) 
C=CC(=O)n1c(C([NH-])=O)cc2ccc([C@@H](C=O)CCC[NH+](CC)CC)cc21

>  <Energy>  (76) 
94.94737435083111

>  <Genealogy>  (76) 
C=CC(=O)n1c(C([NH-])=O)cc2ccc(C(C=O)CCC[NH+](CC)CC)cc21 (protonated)
C=CC(=O)n1c(C([NH-])=O)cc2ccc([C@@H](C=O)CCC[NH+](CC)CC)cc21 (chirality)
C=CC(=O)n1c(C([NH-])=O)cc2ccc([C@@H](C=O)CCC[NH+](CC)CC)cc21 (3D coordinates assigned)
C=CC(=O)n1c(C([NH-])=O)cc2ccc([C@@H](C=O)CCC[NH+](CC)CC)cc21 (optimized conformer: 94.94737435083111 kcal/mol)

>  <smiles>  (76) 
C=CC(=O)n1c(C(N)=O)cc2ccc(C(C=O)CCCN(CC)CC)cc21

>  <score_type>  (76) 
oracle

>  <origin>  (76) 
adg

>  <m_score__min__energy>  (76) 
-9.9800000000000004

>  <m_primary>  (76) 
energy

$$$$
76:0
     RDKit          3D

 49 51  0  0  0  0  0  0  0  0999 V2000
   -3.0230   21.1760  -29.2030 C   0  0  0  0  0  0  0  0  0  0  0  0
   -2.8550   22.6990  -29.0260 C   0  0  0  0  0  0  0  0  0  0  0  0
   -3.9260   23.2060  -28.0340 C   0  0  0  0  0  0  0  0  0  0  0  0
   -1.4340   22.9910  -28.4940 C   0  0  0  0  0  0  0  0  0  0  0  0
   -3.0340   23.2910  -30.3200 O   0  0  0  0  0  0  0  0  0  0  0  0
   -3.7280   22.7270  -31.4100 C   0  0  0  0  0  0  0  0  0  0  0  0
   -3.0990   22.1910  -32.3600 O   0  0  0  0  0  0  0  0  0  0  0  0
   -5.1690   22.7630  -31.4340 N   0  0  0  0  0  0  0  0  0  0  0  0
   -5.9710   23.7360  -30.9080 C   0  0  0  0  0  0  0  0  0  0  0  0
   -5.5240   25.0230  -30.3520 C   0  0  0  0  0  0  0  0  0  0  0  0
   -4.2010   25.5060  -30.5930 N   0  0  0  0  0  0  0  0  0  0  0  0
   -6.3430   25.7350  -29.7050 O   0  0  0  0  0  0  0  0  0  0  0  0
   -7.3120   23.3800  -30.9970 C   0  0  0  0  0  0  0  0  0  0  0  0
   -7.3200   22.1560  -31.6220 C   0  0  0  0  0  0  0  0  0  0  0  0
   -8.3940   21.3460  -31.9670 C   0  0  0  0  0  0  0  0  0  0  0  0
   -8.1230   20.1250  -32.6020 C   0  0  0  0  0  0  0  0  0  0  0  0
   -6.7880   19.7310  -32.8750 C   0  0  0  0  0  0  0  0  0  0  0  0
   -6.5200   18.4850  -33.5480 N   0  0  0  0  0  0  0  0  0  0  0  0
   -7.0580   17.2260  -33.0180 C   0  0  0  0  0  0  0  0  0  0  0  0
   -6.4690   16.0240  -33.7690 C   0  0  0  0  0  0  0  0  0  0  0  0
   -5.0180   16.1790  -33.9320 N   0  0  0  0  0  0  0  0  0  0  0  0
   -4.6300   17.3840  -34.6970 C   0  0  0  0  0  0  0  0  0  0  0  0
   -5.7310   18.4570  -34.7860 C   0  0  0  0  0  0  0  0  0  0  0  0
   -5.7200   20.5730  -32.4880 C   0  0  0  0  0  0  0  0  0  0  0  0
   -6.0180   21.8000  -31.8750 C   0  0  0  0  0  0  0  0  0  0  0  0
   -3.0760   20.6957  -28.2148 H   0  0  0  0  0  0  0  0  0  0  0  0
   -3.9491   20.9716  -29.7602 H   0  0  0  0  0  0  0  0  0  0  0  0
   -2.1637   20.7746  -29.7602 H   0  0  0  0  0  0  0  0  0  0  0  0
   -3.5784   23.0414  -27.0034 H   0  0  0  0  0  0  0  0  0  0  0  0
   -4.0967   24.2805  -28.1962 H   0  0  0  0  0  0  0  0  0  0  0  0
   -4.8653   22.6569  -28.1962 H   0  0  0  0  0  0  0  0  0  0  0  0
   -1.4466   22.9884  -27.3941 H   0  0  0  0  0  0  0  0  0  0  0  0
   -0.7411   22.2165  -28.8546 H   0  0  0  0  0  0  0  0  0  0  0  0
   -1.1027   23.9760  -28.8546 H   0  0  0  0  0  0  0  0  0  0  0  0
   -3.5370   24.9820  -31.2160 H   0  0  0  0  0  0  0  0  0  0  0  0
   -3.9010   26.4240  -30.1970 H   0  0  0  0  0  0  0  0  0  0  0  0
   -8.1805   23.9548  -30.6430 H   0  0  0  0  0  0  0  0  0  0  0  0
   -9.4274   21.6531  -31.7486 H   0  0  0  0  0  0  0  0  0  0  0  0
   -8.9548   19.4659  -32.8914 H   0  0  0  0  0  0  0  0  0  0  0  0
   -6.8027   17.1453  -31.9511 H   0  0  0  0  0  0  0  0  0  0  0  0
   -8.1499   17.2249  -33.1510 H   0  0  0  0  0  0  0  0  0  0  0  0
   -6.6730   15.1057  -33.1987 H   0  0  0  0  0  0  0  0  0  0  0  0
   -6.9340   15.9642  -34.7641 H   0  0  0  0  0  0  0  0  0  0  0  0
   -4.5930   16.2360  -32.9750 H   0  0  0  0  0  0  0  0  0  0  0  0
   -3.7501   17.8320  -34.2121 H   0  0  0  0  0  0  0  0  0  0  0  0
   -4.4272   17.0532  -35.7263 H   0  0  0  0  0  0  0  0  0  0  0  0
   -5.2658   19.4416  -34.9416 H   0  0  0  0  0  0  0  0  0  0  0  0
   -6.3967   18.2161  -35.6279 H   0  0  0  0  0  0  0  0  0  0  0  0
   -4.6766   20.2725  -32.6638 H   0  0  0  0  0  0  0  0  0  0  0  0
  1  2  1  0
  2  3  1  0
  2  4  1  0
  2  5  1  0
  5  6  1  0
  6  7  2  0
  6  8  1  0
  8  9  1  0
  9 10  1  0
 10 11  1  0
 10 12  2  0
  9 13  2  0
 13 14  1  0
 14 15  2  0
 15 16  1  0
 16 17  2  0
 17 18  1  0
 18 19  1  0
 19 20  1  0
 20 21  1  0
 21 22  1  0
 22 23  1  0
 17 24  1  0
 24 25  2  0
 25  8  1  0
 25 14  1  0
 23 18  1  0
  1 26  1  0
  1 27  1  0
  1 28  1  0
  3 29  1  0
  3 30  1  0
  3 31  1  0
  4 32  1  0
  4 33  1  0
  4 34  1  0
 11 35  1  0
 11 36  1  0
 13 37  1  0
 15 38  1  0
 16 39  1  0
 19 40  1  0
 19 41  1  0
 20 42  1  0
 20 43  1  0
 21 44  1  0
 22 45  1  0
 22 46  1  0
 23 47  1  0
 23 48  1  0
 24 49  1  0
M  END
>  <UniqueID>  (77) 
77

>  <SMILES>  (77) 
CC(C)(C)OC(=O)n1c(C(N)=O)cc2ccc(N3CCNCC3)cc21

>  <Energy>  (77) 
93.73256811338008

>  <Genealogy>  (77) 
CC(C)(C)OC(=O)n1c(C(N)=O)cc2ccc(N3CCNCC3)cc21 (3D coordinates assigned)
CC(C)(C)OC(=O)n1c(C(N)=O)cc2ccc(N3CCNCC3)cc21 (nonaromatic ring conformer: 93.73256811338008 kcal/mol)

>  <smiles>  (77) 
CC(C)(C)OC(=O)n1c(C(N)=O)cc2ccc(N3CCNCC3)cc21

>  <score_type>  (77) 
oracle

>  <origin>  (77) 
adg

>  <m_score__min__energy>  (77) 
-9.6799999999999997

>  <m_primary>  (77) 
energy

$$$$
77:0
     RDKit          3D

 44 46  0  0  0  0  0  0  0  0999 V2000
   -6.9990   24.0670  -31.1220 C   0  0  0  0  0  0  0  0  0  0  0  0
   -6.7620   24.8870  -30.0970 C   0  0  0  0  0  0  0  0  0  0  0  0
   -5.7330   25.9780  -30.1980 C   0  0  0  0  0  0  0  0  0  0  0  0
   -4.4180   25.4380  -30.0920 O   0  0  0  0  0  0  0  0  0  0  0  0
   -4.1240   24.2670  -29.3840 C   0  0  0  0  0  0  0  0  0  0  0  0
   -4.6440   24.0570  -28.2540 O   0  0  0  0  0  0  0  0  0  0  0  0
   -3.2050   23.3130  -29.9380 N   0  0  0  0  0  0  0  0  0  0  0  0
   -1.8480   23.2960  -29.8160 C   0  0  0  0  0  0  0  0  0  0  0  0
   -1.0160   24.3680  -29.2280 C   0  0  0  0  0  0  0  0  0  0  0  0
   -1.5300   25.6870  -29.0620 N   0  0  0  0  0  0  0  0  0  0  0  0
    0.1790   24.1280  -28.9130 O   0  0  0  0  0  0  0  0  0  0  0  0
   -1.3170   22.1500  -30.4030 C   0  0  0  0  0  0  0  0  0  0  0  0
   -2.4000   21.4610  -30.8990 C   0  0  0  0  0  0  0  0  0  0  0  0
   -2.4540   20.2480  -31.5770 C   0  0  0  0  0  0  0  0  0  0  0  0
   -3.7150   19.7570  -31.9520 C   0  0  0  0  0  0  0  0  0  0  0  0
   -4.9000   20.4720  -31.6260 C   0  0  0  0  0  0  0  0  0  0  0  0
   -6.2700   19.9650  -32.0440 C   0  0  1  0  0  0  0  0  0  0  0  0
   -7.1660   21.0840  -32.6300 C   0  0  0  0  0  0  0  0  0  0  0  0
   -8.6260   20.9540  -32.3020 C   0  0  0  0  0  0  0  0  0  0  0  0
   -9.2080   19.8430  -32.4240 O   0  0  0  0  0  0  0  0  0  0  0  0
   -9.3550   22.0650  -31.8980 O   0  0  0  0  0  0  0  0  0  0  0  0
   -6.1820   18.7240  -32.9070 C   0  0  0  0  0  0  0  0  0  0  0  0
   -6.4130   17.4300  -32.4520 C   0  0  0  0  0  0  0  0  0  0  0  0
   -6.2040   16.4480  -33.4280 C   0  0  0  0  0  0  0  0  0  0  0  0
   -5.7950   16.9560  -34.6520 C   0  0  0  0  0  0  0  0  0  0  0  0
   -5.6930   18.6280  -34.5160 S   0  0  0  0  0  0  0  0  0  0  0  0
   -4.7990   21.7090  -30.9480 C   0  0  0  0  0  0  0  0  0  0  0  0
   -3.5270   22.1820  -30.6050 C   0  0  0  0  0  0  0  0  0  0  0  0
   -7.7562   23.2745  -31.0287 H   0  0  0  0  0  0  0  0  0  0  0  0
   -6.4373   24.1832  -32.0606 H   0  0  0  0  0  0  0  0  0  0  0  0
   -7.3289   24.7628  -29.1625 H   0  0  0  0  0  0  0  0  0  0  0  0
   -5.8383   26.4857  -31.1681 H   0  0  0  0  0  0  0  0  0  0  0  0
   -5.8908   26.6919  -29.3761 H   0  0  0  0  0  0  0  0  0  0  0  0
   -2.5550   25.8550  -28.9560 H   0  0  0  0  0  0  0  0  0  0  0  0
   -0.2579   21.8580  -30.4583 H   0  0  0  0  0  0  0  0  0  0  0  0
   -1.5360   19.6896  -31.8126 H   0  0  0  0  0  0  0  0  0  0  0  0
   -3.7869   18.8084  -32.5043 H   0  0  0  0  0  0  0  0  0  0  0  0
   -6.7883   19.6433  -31.1286 H   0  0  0  0  0  0  0  0  0  0  0  0
   -6.8110   22.0483  -32.2375 H   0  0  0  0  0  0  0  0  0  0  0  0
   -7.0849   21.0065  -33.7243 H   0  0  0  0  0  0  0  0  0  0  0  0
   -6.7295   17.2002  -31.4239 H   0  0  0  0  0  0  0  0  0  0  0  0
   -6.3505   15.3739  -33.2414 H   0  0  0  0  0  0  0  0  0  0  0  0
   -5.5756   16.3670  -35.5547 H   0  0  0  0  0  0  0  0  0  0  0  0
   -5.7004   22.2868  -30.6957 H   0  0  0  0  0  0  0  0  0  0  0  0
  1  2  2  0
  2  3  1  0
  3  4  1  0
  4  5  1  0
  5  6  2  0
  5  7  1  0
  7  8  1  0
  8  9  1  0
  9 10  1  0
  9 11  2  0
  8 12  2  0
 12 13  1  0
 13 14  2  0
 14 15  1  0
 15 16  2  0
 16 17  1  0
 17 18  1  0
 18 19  1  0
 19 20  2  0
 19 21  1  0
 17 22  1  0
 22 23  2  0
 23 24  1  0
 24 25  2  0
 25 26  1  0
 16 27  1  0
 27 28  2  0
 28  7  1  0
 28 13  1  0
 26 22  1  0
  1 29  1  0
  1 30  1  0
  2 31  1  0
  3 32  1  0
  3 33  1  0
 10 34  1  0
 12 35  1  0
 14 36  1  0
 15 37  1  0
 17 38  1  1
 18 39  1  0
 18 40  1  0
 23 41  1  0
 24 42  1  0
 25 43  1  0
 27 44  1  0
M  CHG  2  10  -1  21  -1
M  END
>  <UniqueID>  (78) 
78

>  <SMILES>  (78) 
C=CCOC(=O)n1c(C([NH-])=O)cc2ccc([C@@H](CC(=O)[O-])c3cccs3)cc21

>  <Energy>  (78) 
108.87433753538187

>  <Genealogy>  (78) 
C=CCOC(=O)n1c(C([NH-])=O)cc2ccc([C@@H](CC(=O)[O-])c3cccs3)cc21 (protonated)
C=CCOC(=O)n1c(C([NH-])=O)cc2ccc([C@@H](CC(=O)[O-])c3cccs3)cc21 (3D coordinates assigned)
C=CCOC(=O)n1c(C([NH-])=O)cc2ccc([C@@H](CC(=O)[O-])c3cccs3)cc21 (optimized conformer: 108.87433753538187 kcal/mol)

>  <smiles>  (78) 
C=CCOC(=O)n1c(C(N)=O)cc2ccc([C@@H](CC(=O)O)c3cccs3)cc21

>  <score_type>  (78) 
oracle

>  <origin>  (78) 
adg

>  <m_score__min__energy>  (78) 
-11.27

>  <m_primary>  (78) 
energy

$$$$
78:0
     RDKit          3D

 39 41  0  0  0  0  0  0  0  0999 V2000
   -2.3680   22.1470  -30.9950 C   0  0  0  0  0  0  0  0  0  0  0  0
   -2.3390   20.9850  -31.9870 C   0  0  0  0  0  0  0  0  0  0  0  0
   -3.4800   20.1070  -31.9500 O   0  0  0  0  0  0  0  0  0  0  0  0
   -4.4050   19.7970  -32.9620 C   0  0  0  0  0  0  0  0  0  0  0  0
   -4.0390   19.3150  -34.0660 O   0  0  0  0  0  0  0  0  0  0  0  0
   -5.8040   20.0200  -32.7190 N   0  0  0  0  0  0  0  0  0  0  0  0
   -6.8350   19.1680  -32.9810 C   0  0  0  0  0  0  0  0  0  0  0  0
   -6.6960   17.7630  -33.4250 C   0  0  0  0  0  0  0  0  0  0  0  0
   -5.9950   17.4430  -34.6280 N   0  0  0  0  0  0  0  0  0  0  0  0
   -7.2230   16.8350  -32.7580 O   0  0  0  0  0  0  0  0  0  0  0  0
   -8.0550   19.7720  -32.6840 C   0  0  0  0  0  0  0  0  0  0  0  0
   -7.7380   21.0300  -32.2260 C   0  0  0  0  0  0  0  0  0  0  0  0
   -8.5690   22.0670  -31.8080 C   0  0  0  0  0  0  0  0  0  0  0  0
   -7.9690   23.2750  -31.4180 C   0  0  0  0  0  0  0  0  0  0  0  0
   -6.5610   23.4250  -31.4510 C   0  0  0  0  0  0  0  0  0  0  0  0
   -5.9340   24.7400  -31.0780 C   0  0  0  0  0  0  0  0  0  0  0  0
   -4.7070   24.5100  -30.2540 C   0  0  0  0  0  0  0  0  0  0  0  0
   -3.5370   25.2910  -30.4850 N   0  0  0  0  0  0  0  0  0  0  0  0
   -4.7190   23.6540  -29.3300 O   0  0  0  0  0  0  0  0  0  0  0  0
   -5.7500   22.3560  -31.8910 C   0  0  0  0  0  0  0  0  0  0  0  0
   -6.3730   21.1570  -32.2580 C   0  0  0  0  0  0  0  0  0  0  0  0
   -1.6820   21.2550  -33.3330 C   0  0  0  0  0  0  0  0  0  0  0  0
   -0.9760   20.3790  -32.2890 C   0  0  0  0  0  0  0  0  0  0  0  0
   -2.3582   21.7528  -29.9681 H   0  0  0  0  0  0  0  0  0  0  0  0
   -1.4855   22.7847  -31.1514 H   0  0  0  0  0  0  0  0  0  0  0  0
   -3.2812   22.7399  -31.1514 H   0  0  0  0  0  0  0  0  0  0  0  0
   -5.9350   16.4530  -34.9510 H   0  0  0  0  0  0  0  0  0  0  0  0
   -5.5000   18.1790  -35.1790 H   0  0  0  0  0  0  0  0  0  0  0  0
   -9.0588   19.3355  -32.7927 H   0  0  0  0  0  0  0  0  0  0  0  0
   -9.6618   21.9432  -31.7842 H   0  0  0  0  0  0  0  0  0  0  0  0
   -8.5984   24.1129  -31.0836 H   0  0  0  0  0  0  0  0  0  0  0  0
   -5.6604   25.2851  -31.9934 H   0  0  0  0  0  0  0  0  0  0  0  0
   -6.6552   25.3291  -30.4925 H   0  0  0  0  0  0  0  0  0  0  0  0
   -3.5260   26.0350  -31.2170 H   0  0  0  0  0  0  0  0  0  0  0  0
   -4.6565   22.4626  -31.9441 H   0  0  0  0  0  0  0  0  0  0  0  0
   -2.0918   20.8004  -34.2470 H   0  0  0  0  0  0  0  0  0  0  0  0
   -1.4146   22.1571  -33.9029 H   0  0  0  0  0  0  0  0  0  0  0  0
   -0.8791   19.2957  -32.4537 H   0  0  0  0  0  0  0  0  0  0  0  0
    0.0085   20.3913  -31.7985 H   0  0  0  0  0  0  0  0  0  0  0  0
  1  2  1  0
  2  3  1  0
  3  4  1  0
  4  5  2  0
  4  6  1  0
  6  7  1  0
  7  8  1  0
  8  9  1  0
  8 10  2  0
  7 11  2  0
 11 12  1  0
 12 13  2  0
 13 14  1  0
 14 15  2  0
 15 16  1  0
 16 17  1  0
 17 18  1  0
 17 19  2  0
 15 20  1  0
 20 21  2  0
  2 22  1  0
 22 23  1  0
 23  2  1  0
 21  6  1  0
 21 12  1  0
  1 24  1  0
  1 25  1  0
  1 26  1  0
  9 27  1  0
  9 28  1  0
 11 29  1  0
 13 30  1  0
 14 31  1  0
 16 32  1  0
 16 33  1  0
 18 34  1  0
 20 35  1  0
 22 36  1  0
 22 37  1  0
 23 38  1  0
 23 39  1  0
M  CHG  1  18  -1
M  END
>  <UniqueID>  (79) 
79

>  <SMILES>  (79) 
CC1(OC(=O)n2c(C(N)=O)cc3ccc(CC([NH-])=O)cc32)CC1

>  <Energy>  (79) 
349.1638518863663

>  <Genealogy>  (79) 
CC1(OC(=O)n2c(C(N)=O)cc3ccc(CC([NH-])=O)cc32)CC1 (protonated)
CC1(OC(=O)n2c(C(N)=O)cc3ccc(CC([NH-])=O)cc32)CC1 (3D coordinates assigned)
CC1(OC(=O)n2c(C(N)=O)cc3ccc(CC([NH-])=O)cc32)CC1 (nonaromatic ring conformer: 349.1638518863663 kcal/mol)

>  <smiles>  (79) 
CC1(OC(=O)n2c(C(N)=O)cc3ccc(CC(N)=O)cc32)CC1

>  <score_type>  (79) 
oracle

>  <origin>  (79) 
adg

>  <m_score__min__energy>  (79) 
-10.49

>  <m_primary>  (79) 
energy

$$$$
79:0
     RDKit          3D

 39 40  0  0  0  0  0  0  0  0999 V2000
   -5.6810   18.2740  -34.7860 C   0  0  0  0  0  0  0  0  0  0  0  0
   -5.0490   18.0740  -33.6840 N   0  0  0  0  0  0  0  0  0  0  0  0
   -5.7260   17.9180  -32.4150 C   0  0  0  0  0  0  0  0  0  0  0  0
   -7.1940   18.3460  -32.5260 C   0  0  0  0  0  0  0  0  0  0  0  0
   -7.3460   19.8040  -32.1880 C   0  0  0  0  0  0  0  0  0  0  0  0
   -8.6130   20.4300  -32.2870 C   0  0  0  0  0  0  0  0  0  0  0  0
   -8.7670   21.7880  -31.9620 C   0  0  0  0  0  0  0  0  0  0  0  0
   -7.6460   22.4830  -31.5160 C   0  0  0  0  0  0  0  0  0  0  0  0
   -7.5030   23.8090  -31.1820 C   0  0  0  0  0  0  0  0  0  0  0  0
   -6.1630   23.9590  -30.8350 C   0  0  0  0  0  0  0  0  0  0  0  0
   -5.5710   25.2440  -30.4070 C   0  0  0  0  0  0  0  0  0  0  0  0
   -4.2390   25.6080  -30.7730 N   0  0  0  0  0  0  0  0  0  0  0  0
   -6.2390   26.0150  -29.6680 O   0  0  0  0  0  0  0  0  0  0  0  0
   -5.5000   22.7740  -30.9500 N   0  0  0  0  0  0  0  0  0  0  0  0
   -4.0870   22.5550  -30.8030 C   0  0  0  0  0  0  0  0  0  0  0  0
   -3.3080   22.9050  -31.7310 O   0  0  0  0  0  0  0  0  0  0  0  0
   -3.5200   22.0580  -29.4980 C   0  0  0  0  0  0  0  0  0  0  0  0
   -3.1460   23.1910  -28.5320 C   0  0  0  0  0  0  0  0  0  0  0  0
   -2.0900   24.0870  -29.1020 C   0  0  0  0  0  0  0  0  0  0  0  0
   -2.3510   25.2920  -29.3600 O   0  0  0  0  0  0  0  0  0  0  0  0
   -0.8290   23.5810  -29.3880 O   0  0  0  0  0  0  0  0  0  0  0  0
   -6.4210   21.8810  -31.3770 C   0  0  0  0  0  0  0  0  0  0  0  0
   -6.2340   20.5390  -31.7250 C   0  0  0  0  0  0  0  0  0  0  0  0
   -5.1231   18.3868  -35.7273 H   0  0  0  0  0  0  0  0  0  0  0  0
   -6.7795   18.3323  -34.7873 H   0  0  0  0  0  0  0  0  0  0  0  0
   -5.6801   16.8624  -32.1089 H   0  0  0  0  0  0  0  0  0  0  0  0
   -5.2282   18.5546  -31.6687 H   0  0  0  0  0  0  0  0  0  0  0  0
   -7.5440   18.1747  -33.5547 H   0  0  0  0  0  0  0  0  0  0  0  0
   -7.7914   17.7530  -31.8179 H   0  0  0  0  0  0  0  0  0  0  0  0
   -9.4841   19.8474  -32.6214 H   0  0  0  0  0  0  0  0  0  0  0  0
   -9.7428   22.2867  -32.0569 H   0  0  0  0  0  0  0  0  0  0  0  0
   -8.2816   24.5860  -31.1877 H   0  0  0  0  0  0  0  0  0  0  0  0
   -3.8630   26.5460  -30.5100 H   0  0  0  0  0  0  0  0  0  0  0  0
   -3.5900   24.9190  -31.2090 H   0  0  0  0  0  0  0  0  0  0  0  0
   -4.2705   21.4173  -29.0119 H   0  0  0  0  0  0  0  0  0  0  0  0
   -2.5963   21.5078  -29.7307 H   0  0  0  0  0  0  0  0  0  0  0  0
   -4.0445   23.7898  -28.3217 H   0  0  0  0  0  0  0  0  0  0  0  0
   -2.7471   22.7368  -27.6130 H   0  0  0  0  0  0  0  0  0  0  0  0
   -5.2436   20.0679  -31.6397 H   0  0  0  0  0  0  0  0  0  0  0  0
  1  2  2  0
  2  3  1  0
  3  4  1  0
  4  5  1  0
  5  6  2  0
  6  7  1  0
  7  8  2  0
  8  9  1  0
  9 10  2  0
 10 11  1  0
 11 12  1  0
 11 13  2  0
 10 14  1  0
 14 15  1  0
 15 16  2  0
 15 17  1  0
 17 18  1  0
 18 19  1  0
 19 20  2  0
 19 21  1  0
 14 22  1  0
 22 23  2  0
 23  5  1  0
 22  8  1  0
  1 24  1  0
  1 25  1  0
  3 26  1  0
  3 27  1  0
  4 28  1  0
  4 29  1  0
  6 30  1  0
  7 31  1  0
  9 32  1  0
 12 33  1  0
 12 34  1  0
 17 35  1  0
 17 36  1  0
 18 37  1  0
 18 38  1  0
 23 39  1  0
M  CHG  1  21  -1
M  END
>  <UniqueID>  (80) 
80

>  <SMILES>  (80) 
C=NCCc1ccc2cc(C(N)=O)n(C(=O)CCC(=O)[O-])c2c1

>  <Energy>  (80) 
72.57954344022716

>  <Genealogy>  (80) 
C=NCCc1ccc2cc(C(N)=O)n(C(=O)CCC(=O)[O-])c2c1 (protonated)
C=NCCc1ccc2cc(C(N)=O)n(C(=O)CCC(=O)[O-])c2c1 (3D coordinates assigned)
C=NCCc1ccc2cc(C(N)=O)n(C(=O)CCC(=O)[O-])c2c1 (optimized conformer: 72.57954344022716 kcal/mol)

>  <smiles>  (80) 
C=NCCc1ccc2cc(C(N)=O)n(C(=O)CCC(=O)O)c2c1

>  <score_type>  (80) 
oracle

>  <origin>  (80) 
adg

>  <m_score__min__energy>  (80) 
-10.550000000000001

>  <m_primary>  (80) 
energy

$$$$
80:0
     RDKit          3D

 43 44  0  0  0  0  0  0  0  0999 V2000
   -3.6100   15.7080  -33.2130 C   0  0  0  0  0  0  0  0  0  0  0  0
   -4.1120   17.0670  -33.7420 C   0  0  0  0  0  0  0  0  0  0  0  0
   -3.9080   17.1120  -35.2680 C   0  0  0  0  0  0  0  0  0  0  0  0
   -3.3560   18.2400  -33.0690 C   0  0  0  0  0  0  0  0  0  0  0  0
   -3.5800   19.4580  -33.7320 O   0  0  0  0  0  0  0  0  0  0  0  0
   -5.5520   17.2090  -33.4980 N   0  0  0  0  0  0  0  0  0  0  0  0
   -6.3620   18.3620  -33.7500 C   0  0  0  0  0  0  0  0  0  0  0  0
   -6.0290   19.2080  -34.6210 O   0  0  0  0  0  0  0  0  0  0  0  0
   -7.6010   18.5820  -32.9360 C   0  0  0  0  0  0  0  0  0  0  0  0
   -7.6140   19.9700  -32.3580 C   0  0  0  0  0  0  0  0  0  0  0  0
   -8.8440   20.6460  -32.1590 C   0  0  0  0  0  0  0  0  0  0  0  0
   -8.8660   21.9610  -31.6630 C   0  0  0  0  0  0  0  0  0  0  0  0
   -7.6470   22.5720  -31.3820 C   0  0  0  0  0  0  0  0  0  0  0  0
   -7.3700   23.8420  -30.9250 C   0  0  0  0  0  0  0  0  0  0  0  0
   -5.9800   23.9170  -30.8570 C   0  0  0  0  0  0  0  0  0  0  0  0
   -5.2400   25.1080  -30.3890 C   0  0  0  0  0  0  0  0  0  0  0  0
   -3.8470   25.2580  -30.6540 N   0  0  0  0  0  0  0  0  0  0  0  0
   -5.8410   25.9970  -29.7270 O   0  0  0  0  0  0  0  0  0  0  0  0
   -5.4220   22.7420  -31.2630 N   0  0  0  0  0  0  0  0  0  0  0  0
   -4.0320   22.4220  -31.4030 C   0  0  0  0  0  0  0  0  0  0  0  0
   -3.5130   22.4030  -32.5520 O   0  0  0  0  0  0  0  0  0  0  0  0
   -3.1610   22.2430  -30.1960 C   0  0  0  0  0  0  0  0  0  0  0  0
   -2.7420   20.9280  -30.0870 F   0  0  0  0  0  0  0  0  0  0  0  0
   -3.8790   22.5820  -29.0640 F   0  0  0  0  0  0  0  0  0  0  0  0
   -2.0530   23.0620  -30.2940 F   0  0  0  0  0  0  0  0  0  0  0  0
   -6.4510   21.9300  -31.5750 C   0  0  0  0  0  0  0  0  0  0  0  0
   -6.3970   20.6270  -32.0730 C   0  0  0  0  0  0  0  0  0  0  0  0
   -3.6139   15.7186  -32.1131 H   0  0  0  0  0  0  0  0  0  0  0  0
   -4.2715   14.9069  -33.5743 H   0  0  0  0  0  0  0  0  0  0  0  0
   -2.5865   15.5293  -33.5743 H   0  0  0  0  0  0  0  0  0  0  0  0
   -2.8561   17.3440  -35.4906 H   0  0  0  0  0  0  0  0  0  0  0  0
   -4.1677   16.1350  -35.7016 H   0  0  0  0  0  0  0  0  0  0  0  0
   -4.5546   17.8891  -35.7016 H   0  0  0  0  0  0  0  0  0  0  0  0
   -3.6993   18.3335  -32.0281 H   0  0  0  0  0  0  0  0  0  0  0  0
   -2.2789   18.0211  -33.1138 H   0  0  0  0  0  0  0  0  0  0  0  0
   -4.4760   19.3970  -34.1550 H   0  0  0  0  0  0  0  0  0  0  0  0
   -8.4840   18.4495  -33.5784 H   0  0  0  0  0  0  0  0  0  0  0  0
   -7.6180   17.8540  -32.1116 H   0  0  0  0  0  0  0  0  0  0  0  0
   -9.7900   20.1367  -32.3949 H   0  0  0  0  0  0  0  0  0  0  0  0
   -9.8165   22.4907  -31.5019 H   0  0  0  0  0  0  0  0  0  0  0  0
   -8.0931   24.6301  -30.6681 H   0  0  0  0  0  0  0  0  0  0  0  0
   -3.4950   26.0460  -31.2410 H   0  0  0  0  0  0  0  0  0  0  0  0
   -5.4322   20.1254  -32.2390 H   0  0  0  0  0  0  0  0  0  0  0  0
  1  2  1  0
  2  3  1  0
  2  4  1  0
  4  5  1  0
  2  6  1  0
  6  7  1  0
  7  8  2  0
  7  9  1  0
  9 10  1  0
 10 11  2  0
 11 12  1  0
 12 13  2  0
 13 14  1  0
 14 15  2  0
 15 16  1  0
 16 17  1  0
 16 18  2  0
 15 19  1  0
 19 20  1  0
 20 21  2  0
 20 22  1  0
 22 23  1  0
 22 24  1  0
 22 25  1  0
 19 26  1  0
 26 27  2  0
 27 10  1  0
 26 13  1  0
  1 28  1  0
  1 29  1  0
  1 30  1  0
  3 31  1  0
  3 32  1  0
  3 33  1  0
  4 34  1  0
  4 35  1  0
  5 36  1  0
  9 37  1  0
  9 38  1  0
 11 39  1  0
 12 40  1  0
 14 41  1  0
 17 42  1  0
 27 43  1  0
M  CHG  2   6  -1  17  -1
M  END
>  <UniqueID>  (81) 
81

>  <SMILES>  (81) 
CC(C)(CO)[N-]C(=O)Cc1ccc2cc(C([NH-])=O)n(C(=O)C(F)(F)F)c2c1

>  <Energy>  (81) 
77.72849040533397

>  <Genealogy>  (81) 
CC(C)(CO)[N-]C(=O)Cc1ccc2cc(C([NH-])=O)n(C(=O)C(F)(F)F)c2c1 (protonated)
CC(C)(CO)[N-]C(=O)Cc1ccc2cc(C([NH-])=O)n(C(=O)C(F)(F)F)c2c1 (3D coordinates assigned)
CC(C)(CO)[N-]C(=O)Cc1ccc2cc(C([NH-])=O)n(C(=O)C(F)(F)F)c2c1 (optimized conformer: 77.72849040533397 kcal/mol)

>  <smiles>  (81) 
CC(C)(CO)NC(=O)Cc1ccc2cc(C(N)=O)n(C(=O)C(F)(F)F)c2c1

>  <score_type>  (81) 
oracle

>  <origin>  (81) 
adg

>  <m_score__min__energy>  (81) 
-9.8100000000000005

>  <m_primary>  (81) 
energy

$$$$
81:0
     RDKit          3D

 29 30  0  0  0  0  0  0  0  0999 V2000
   -7.4390   19.1790  -31.9450 C   0  0  0  0  0  0  0  0  0  0  0  0
   -6.8200   20.4040  -32.5490 C   0  0  0  0  0  0  0  0  0  0  0  0
   -7.3150   21.5000  -32.3380 O   0  0  0  0  0  0  0  0  0  0  0  0
   -5.5910   20.2910  -33.4080 C   0  0  0  0  0  0  0  0  0  0  0  0
   -4.3790   20.7490  -32.6460 C   0  0  0  0  0  0  0  0  0  0  0  0
   -3.2360   19.9160  -32.5590 C   0  0  0  0  0  0  0  0  0  0  0  0
   -2.1140   20.3170  -31.8130 C   0  0  0  0  0  0  0  0  0  0  0  0
   -2.1660   21.5480  -31.1680 C   0  0  0  0  0  0  0  0  0  0  0  0
   -1.2370   22.1620  -30.3590 C   0  0  0  0  0  0  0  0  0  0  0  0
   -1.8220   23.3660  -29.9740 C   0  0  0  0  0  0  0  0  0  0  0  0
   -1.1230   24.3850  -29.1620 C   0  0  0  0  0  0  0  0  0  0  0  0
   -1.6810   25.6810  -28.9730 N   0  0  0  0  0  0  0  0  0  0  0  0
    0.0070   24.1220  -28.6710 O   0  0  0  0  0  0  0  0  0  0  0  0
   -3.0660   23.4900  -30.5150 N   0  0  0  0  0  0  0  0  0  0  0  0
   -4.0270   24.5340  -30.2820 C   0  0  0  0  0  0  0  0  0  0  0  0
   -3.8660   25.6730  -30.7940 O   0  0  0  0  0  0  0  0  0  0  0  0
   -5.1580   24.2870  -29.5130 O   0  0  0  0  0  0  0  0  0  0  0  0
   -3.2610   22.3700  -31.2470 C   0  0  0  0  0  0  0  0  0  0  0  0
   -4.3990   21.9880  -31.9690 C   0  0  0  0  0  0  0  0  0  0  0  0
   -7.4020   19.2523  -30.8481 H   0  0  0  0  0  0  0  0  0  0  0  0
   -8.4862   19.0981  -32.2719 H   0  0  0  0  0  0  0  0  0  0  0  0
   -6.8829   18.2880  -32.2719 H   0  0  0  0  0  0  0  0  0  0  0  0
   -5.4547   19.2422  -33.7105 H   0  0  0  0  0  0  0  0  0  0  0  0
   -5.7160   20.9261  -34.2974 H   0  0  0  0  0  0  0  0  0  0  0  0
   -3.2266   18.9471  -33.0797 H   0  0  0  0  0  0  0  0  0  0  0  0
   -1.2223   19.6768  -31.7416 H   0  0  0  0  0  0  0  0  0  0  0  0
   -0.2439   21.7826  -30.0766 H   0  0  0  0  0  0  0  0  0  0  0  0
   -2.7160   25.8240  -28.9630 H   0  0  0  0  0  0  0  0  0  0  0  0
   -5.2862   22.6371  -32.0076 H   0  0  0  0  0  0  0  0  0  0  0  0
  1  2  1  0
  2  3  2  0
  2  4  1  0
  4  5  1  0
  5  6  2  0
  6  7  1  0
  7  8  2  0
  8  9  1  0
  9 10  2  0
 10 11  1  0
 11 12  1  0
 11 13  2  0
 10 14  1  0
 14 15  1  0
 15 16  2  0
 15 17  1  0
 14 18  1  0
 18 19  2  0
 19  5  1  0
 18  8  1  0
  1 20  1  0
  1 21  1  0
  1 22  1  0
  4 23  1  0
  4 24  1  0
  6 25  1  0
  7 26  1  0
  9 27  1  0
 12 28  1  0
 19 29  1  0
M  CHG  2  12  -1  17  -1
M  END
>  <UniqueID>  (82) 
82

>  <SMILES>  (82) 
CC(=O)Cc1ccc2cc(C([NH-])=O)n(C(=O)[O-])c2c1

>  <Energy>  (82) 
65.6606804272995

>  <Genealogy>  (82) 
CC(=O)Cc1ccc2cc(C([NH-])=O)n(C(=O)[O-])c2c1 (protonated)
CC(=O)Cc1ccc2cc(C([NH-])=O)n(C(=O)[O-])c2c1 (3D coordinates assigned)
CC(=O)Cc1ccc2cc(C([NH-])=O)n(C(=O)[O-])c2c1 (optimized conformer: 65.6606804272995 kcal/mol)

>  <smiles>  (82) 
CC(=O)Cc1ccc2cc(C(N)=O)n(C(=O)O)c2c1

>  <score_type>  (82) 
oracle

>  <origin>  (82) 
adg

>  <m_score__min__energy>  (82) 
-10.470000000000001

>  <m_primary>  (82) 
energy

$$$$
82:0
     RDKit          3D

 29 30  0  0  0  0  0  0  0  0999 V2000
   -6.5380   17.4840  -31.9900 C   0  0  0  0  0  0  0  0  0  0  0  0
   -6.7310   18.5030  -33.1180 C   0  0  2  0  0  0  0  0  0  0  0  0
   -5.5960   18.4560  -34.1060 C   0  0  0  0  0  0  0  0  0  0  0  0
   -5.8320   18.5620  -35.3380 O   0  0  0  0  0  0  0  0  0  0  0  0
   -4.2790   18.3520  -33.6730 O   0  0  0  0  0  0  0  0  0  0  0  0
   -6.9010   19.9040  -32.5680 C   0  0  0  0  0  0  0  0  0  0  0  0
   -8.2040   20.4190  -32.3400 C   0  0  0  0  0  0  0  0  0  0  0  0
   -8.3840   21.7070  -31.8100 C   0  0  0  0  0  0  0  0  0  0  0  0
   -7.2520   22.4620  -31.5240 C   0  0  0  0  0  0  0  0  0  0  0  0
   -7.1410   23.7210  -30.9820 C   0  0  0  0  0  0  0  0  0  0  0  0
   -5.7730   23.9730  -30.9060 C   0  0  0  0  0  0  0  0  0  0  0  0
   -5.2100   25.2630  -30.4550 C   0  0  0  0  0  0  0  0  0  0  0  0
   -3.9010   25.6670  -30.8440 N   0  0  0  0  0  0  0  0  0  0  0  0
   -5.9140   26.0400  -29.7570 O   0  0  0  0  0  0  0  0  0  0  0  0
   -5.0640   22.9060  -31.3740 N   0  0  0  0  0  0  0  0  0  0  0  0
   -3.6390   22.7320  -31.3870 C   0  0  0  0  0  0  0  0  0  0  0  0
   -2.9400   23.1350  -30.4200 O   0  0  0  0  0  0  0  0  0  0  0  0
   -3.0190   22.0930  -32.4540 O   0  0  0  0  0  0  0  0  0  0  0  0
   -5.9850   21.9900  -31.7510 C   0  0  0  0  0  0  0  0  0  0  0  0
   -5.7730   20.7040  -32.2590 C   0  0  0  0  0  0  0  0  0  0  0  0
   -6.6339   17.9903  -31.0182 H   0  0  0  0  0  0  0  0  0  0  0  0
   -7.3032   16.6980  -32.0710 H   0  0  0  0  0  0  0  0  0  0  0  0
   -5.5383   17.0322  -32.0710 H   0  0  0  0  0  0  0  0  0  0  0  0
   -7.6535   18.2281  -33.6504 H   0  0  0  0  0  0  0  0  0  0  0  0
   -9.0824   19.8024  -32.5811 H   0  0  0  0  0  0  0  0  0  0  0  0
   -9.3920   22.1072  -31.6263 H   0  0  0  0  0  0  0  0  0  0  0  0
   -7.9595   24.3881  -30.6736 H   0  0  0  0  0  0  0  0  0  0  0  0
   -3.0560   25.2940  -30.3560 H   0  0  0  0  0  0  0  0  0  0  0  0
   -4.7533   20.3222  -32.4151 H   0  0  0  0  0  0  0  0  0  0  0  0
  1  2  1  0
  2  3  1  0
  3  4  2  0
  3  5  1  0
  2  6  1  0
  6  7  2  0
  7  8  1  0
  8  9  2  0
  9 10  1  0
 10 11  2  0
 11 12  1  0
 12 13  1  0
 12 14  2  0
 11 15  1  0
 15 16  1  0
 16 17  2  0
 16 18  1  0
 15 19  1  0
 19 20  2  0
 20  6  1  0
 19  9  1  0
  1 21  1  0
  1 22  1  0
  1 23  1  0
  2 24  1  6
  7 25  1  0
  8 26  1  0
 10 27  1  0
 13 28  1  0
 20 29  1  0
M  CHG  3   5  -1  13  -1  18  -1
M  END
>  <UniqueID>  (83) 
83

>  <SMILES>  (83) 
C[C@H](C(=O)[O-])c1ccc2cc(C([NH-])=O)n(C(=O)[O-])c2c1

>  <Energy>  (83) 
67.88898560358685

>  <Genealogy>  (83) 
CC(C(=O)[O-])c1ccc2cc(C([NH-])=O)n(C(=O)[O-])c2c1 (protonated)
C[C@H](C(=O)[O-])c1ccc2cc(C([NH-])=O)n(C(=O)[O-])c2c1 (chirality)
C[C@H](C(=O)[O-])c1ccc2cc(C([NH-])=O)n(C(=O)[O-])c2c1 (3D coordinates assigned)
C[C@H](C(=O)[O-])c1ccc2cc(C([NH-])=O)n(C(=O)[O-])c2c1 (optimized conformer: 67.88898560358685 kcal/mol)

>  <smiles>  (83) 
CC(C(=O)O)c1ccc2cc(C(N)=O)n(C(=O)O)c2c1

>  <score_type>  (83) 
oracle

>  <origin>  (83) 
adg

>  <m_score__min__energy>  (83) 
-10.369999999999999

>  <m_primary>  (83) 
energy

$$$$
83:0
     RDKit          3D

 46 48  0  0  0  0  0  0  0  0999 V2000
   -3.8590   25.3470  -30.4920 N   0  0  0  0  0  0  0  0  0  0  0  0
   -5.2470   25.1050  -30.2460 C   0  0  0  0  0  0  0  0  0  0  0  0
   -5.9240   25.9610  -29.6110 O   0  0  0  0  0  0  0  0  0  0  0  0
   -5.8820   23.8780  -30.7690 C   0  0  0  0  0  0  0  0  0  0  0  0
   -7.2360   23.7900  -31.0870 C   0  0  0  0  0  0  0  0  0  0  0  0
   -7.4430   22.4770  -31.4450 C   0  0  0  0  0  0  0  0  0  0  0  0
   -8.6020   21.8330  -31.8690 C   0  0  0  0  0  0  0  0  0  0  0  0
   -8.5150   20.4700  -32.1990 C   0  0  0  0  0  0  0  0  0  0  0  0
   -7.2820   19.7740  -32.0910 C   0  0  0  0  0  0  0  0  0  0  0  0
   -7.1960   18.3230  -32.4950 C   0  0  0  0  0  0  0  0  0  0  0  0
   -6.8000   18.2060  -33.8160 F   0  0  0  0  0  0  0  0  0  0  0  0
   -6.2760   17.6540  -31.7070 F   0  0  0  0  0  0  0  0  0  0  0  0
   -8.4380   17.7310  -32.3430 F   0  0  0  0  0  0  0  0  0  0  0  0
   -6.1230   20.4710  -31.6770 C   0  0  0  0  0  0  0  0  0  0  0  0
   -6.2440   21.8230  -31.3450 C   0  0  0  0  0  0  0  0  0  0  0  0
   -5.2720   22.6720  -30.9470 N   0  0  0  0  0  0  0  0  0  0  0  0
   -3.8840   22.3300  -30.7730 C   0  0  0  0  0  0  0  0  0  0  0  0
   -3.0300   22.8170  -31.5620 O   0  0  0  0  0  0  0  0  0  0  0  0
   -3.4130   21.3980  -29.6790 C   0  0  0  0  0  0  0  0  0  0  0  0
   -3.1640   22.0820  -28.3230 C   0  0  0  0  0  0  0  0  0  0  0  0
   -4.2540   23.1290  -27.9730 C   0  0  0  0  0  0  0  0  0  0  0  0
   -3.7440   24.5010  -27.7200 N   0  0  0  0  0  0  0  0  0  0  0  0
   -2.3000   24.6510  -27.9910 C   0  0  0  0  0  0  0  0  0  0  0  0
   -1.6230   25.0370  -26.6860 C   0  0  0  0  0  0  0  0  0  0  0  0
   -2.7210   25.6600  -25.8600 C   0  0  0  0  0  0  0  0  0  0  0  0
   -4.0000   25.0020  -26.3530 C   0  0  0  0  0  0  0  0  0  0  0  0
   -3.5550   26.0420  -31.2110 H   0  0  0  0  0  0  0  0  0  0  0  0
   -7.9814   24.5984  -31.0581 H   0  0  0  0  0  0  0  0  0  0  0  0
   -9.5566   22.3745  -31.9434 H   0  0  0  0  0  0  0  0  0  0  0  0
   -9.4123   19.9360  -32.5450 H   0  0  0  0  0  0  0  0  0  0  0  0
   -5.1501   19.9612  -31.6178 H   0  0  0  0  0  0  0  0  0  0  0  0
   -4.1781   20.6206  -29.5366 H   0  0  0  0  0  0  0  0  0  0  0  0
   -2.4448   20.9925  -30.0080 H   0  0  0  0  0  0  0  0  0  0  0  0
   -3.1501   21.3121  -27.5375 H   0  0  0  0  0  0  0  0  0  0  0  0
   -2.2024   22.6120  -28.3892 H   0  0  0  0  0  0  0  0  0  0  0  0
   -4.9635   23.1774  -28.8122 H   0  0  0  0  0  0  0  0  0  0  0  0
   -4.7148   22.7925  -27.0326 H   0  0  0  0  0  0  0  0  0  0  0  0
   -4.2550   25.1300  -28.3840 H   0  0  0  0  0  0  0  0  0  0  0  0
   -1.8874   23.7006  -28.3604 H   0  0  0  0  0  0  0  0  0  0  0  0
   -2.1296   25.4223  -28.7565 H   0  0  0  0  0  0  0  0  0  0  0  0
   -1.2143   24.1485  -26.1825 H   0  0  0  0  0  0  0  0  0  0  0  0
   -0.7764   25.7221  -26.8409 H   0  0  0  0  0  0  0  0  0  0  0  0
   -2.5662   25.4531  -24.7908 H   0  0  0  0  0  0  0  0  0  0  0  0
   -2.7499   26.7545  -25.9662 H   0  0  0  0  0  0  0  0  0  0  0  0
   -4.2714   24.1661  -25.6914 H   0  0  0  0  0  0  0  0  0  0  0  0
   -4.8309   25.7229  -26.3540 H   0  0  0  0  0  0  0  0  0  0  0  0
  1  2  1  0
  2  3  2  0
  2  4  1  0
  4  5  2  0
  5  6  1  0
  6  7  2  0
  7  8  1  0
  8  9  2  0
  9 10  1  0
 10 11  1  0
 10 12  1  0
 10 13  1  0
  9 14  1  0
 14 15  2  0
 15 16  1  0
 16 17  1  0
 17 18  2  0
 17 19  1  0
 19 20  1  0
 20 21  1  0
 21 22  1  0
 22 23  1  0
 23 24  1  0
 24 25  1  0
 25 26  1  0
 16  4  1  0
 26 22  1  0
 15  6  1  0
  1 27  1  0
  5 28  1  0
  7 29  1  0
  8 30  1  0
 14 31  1  0
 19 32  1  0
 19 33  1  0
 20 34  1  0
 20 35  1  0
 21 36  1  0
 21 37  1  0
 22 38  1  0
 23 39  1  0
 23 40  1  0
 24 41  1  0
 24 42  1  0
 25 43  1  0
 25 44  1  0
 26 45  1  0
 26 46  1  0
M  CHG  2   1  -1  22   1
M  END
>  <UniqueID>  (84) 
84

>  <SMILES>  (84) 
[NH-]C(=O)c1cc2ccc(C(F)(F)F)cc2n1C(=O)CCC[NH+]1CCCC1

>  <Energy>  (84) 
91.35864662218485

>  <Genealogy>  (84) 
[NH-]C(=O)c1cc2ccc(C(F)(F)F)cc2n1C(=O)CCC[NH+]1CCCC1 (protonated)
[NH-]C(=O)c1cc2ccc(C(F)(F)F)cc2n1C(=O)CCC[NH+]1CCCC1 (3D coordinates assigned)
[NH-]C(=O)c1cc2ccc(C(F)(F)F)cc2n1C(=O)CCC[NH+]1CCCC1 (nonaromatic ring conformer: 91.35864662218485 kcal/mol)

>  <smiles>  (84) 
NC(=O)c1cc2ccc(C(F)(F)F)cc2n1C(=O)CCCN1CCCC1

>  <score_type>  (84) 
oracle

>  <origin>  (84) 
adg

>  <m_score__min__energy>  (84) 
-10.23

>  <m_primary>  (84) 
energy

$$$$
84:0
     RDKit          3D

 32 33  0  0  0  0  0  0  0  0999 V2000
   -3.2980   18.9810  -33.8080 C   0  0  0  0  0  0  0  0  0  0  0  0
   -4.3870   18.0810  -33.6480 O   0  0  0  0  0  0  0  0  0  0  0  0
   -5.6450   18.3150  -34.2120 C   0  0  0  0  0  0  0  0  0  0  0  0
   -5.7670   18.5330  -35.4490 O   0  0  0  0  0  0  0  0  0  0  0  0
   -6.8610   18.2560  -33.3450 C   0  0  0  0  0  0  0  0  0  0  0  0
   -7.1180   19.6020  -32.7280 C   0  0  0  0  0  0  0  0  0  0  0  0
   -8.4290   19.9600  -32.3250 C   0  0  0  0  0  0  0  0  0  0  0  0
   -8.6730   21.1960  -31.7040 C   0  0  0  0  0  0  0  0  0  0  0  0
   -7.5930   22.0490  -31.5000 C   0  0  0  0  0  0  0  0  0  0  0  0
   -7.5430   23.2810  -30.8890 C   0  0  0  0  0  0  0  0  0  0  0  0
   -6.2060   23.6640  -30.9440 C   0  0  0  0  0  0  0  0  0  0  0  0
   -5.7160   24.9690  -30.4560 C   0  0  0  0  0  0  0  0  0  0  0  0
   -6.0130   25.4240  -29.1360 N   0  0  0  0  0  0  0  0  0  0  0  0
   -4.9760   25.6680  -31.1980 O   0  0  0  0  0  0  0  0  0  0  0  0
   -5.4530   22.7030  -31.5490 N   0  0  0  0  0  0  0  0  0  0  0  0
   -4.0210   22.6700  -31.6870 C   0  0  0  0  0  0  0  0  0  0  0  0
   -3.2060   23.5560  -30.9230 N   0  0  0  0  0  0  0  0  0  0  0  0
   -3.4770   21.8500  -32.4720 O   0  0  0  0  0  0  0  0  0  0  0  0
   -6.3190   21.7210  -31.8890 C   0  0  0  0  0  0  0  0  0  0  0  0
   -6.0430   20.4870  -32.4920 C   0  0  0  0  0  0  0  0  0  0  0  0
   -2.9272   19.2874  -32.8188 H   0  0  0  0  0  0  0  0  0  0  0  0
   -2.4900   18.4836  -34.3645 H   0  0  0  0  0  0  0  0  0  0  0  0
   -3.6343   19.8682  -34.3645 H   0  0  0  0  0  0  0  0  0  0  0  0
   -7.7288   17.9628  -33.9541 H   0  0  0  0  0  0  0  0  0  0  0  0
   -6.6994   17.5174  -32.5460 H   0  0  0  0  0  0  0  0  0  0  0  0
   -9.2625   19.2638  -32.5001 H   0  0  0  0  0  0  0  0  0  0  0  0
   -9.6875   21.4810  -31.3884 H   0  0  0  0  0  0  0  0  0  0  0  0
   -8.3808   23.8431  -30.4507 H   0  0  0  0  0  0  0  0  0  0  0  0
   -5.6900   26.3650  -28.8210 H   0  0  0  0  0  0  0  0  0  0  0  0
   -6.4820   24.8000  -28.4430 H   0  0  0  0  0  0  0  0  0  0  0  0
   -3.1320   24.5670  -31.1740 H   0  0  0  0  0  0  0  0  0  0  0  0
   -5.0154   20.2144  -32.7744 H   0  0  0  0  0  0  0  0  0  0  0  0
  1  2  1  0
  2  3  1  0
  3  4  2  0
  3  5  1  0
  5  6  1  0
  6  7  2  0
  7  8  1  0
  8  9  2  0
  9 10  1  0
 10 11  2  0
 11 12  1  0
 12 13  1  0
 12 14  2  0
 11 15  1  0
 15 16  1  0
 16 17  1  0
 16 18  2  0
 15 19  1  0
 19 20  2  0
 20  6  1  0
 19  9  1  0
  1 21  1  0
  1 22  1  0
  1 23  1  0
  5 24  1  0
  5 25  1  0
  7 26  1  0
  8 27  1  0
 10 28  1  0
 13 29  1  0
 13 30  1  0
 17 31  1  0
 20 32  1  0
M  CHG  1  17  -1
M  END
>  <UniqueID>  (85) 
85

>  <SMILES>  (85) 
COC(=O)Cc1ccc2cc(C(N)=O)n(C([NH-])=O)c2c1

>  <Energy>  (85) 
67.5857291253703

>  <Genealogy>  (85) 
COC(=O)Cc1ccc2cc(C(N)=O)n(C([NH-])=O)c2c1 (protonated)
COC(=O)Cc1ccc2cc(C(N)=O)n(C([NH-])=O)c2c1 (3D coordinates assigned)
COC(=O)Cc1ccc2cc(C(N)=O)n(C([NH-])=O)c2c1 (optimized conformer: 67.5857291253703 kcal/mol)

>  <smiles>  (85) 
COC(=O)Cc1ccc2cc(C(N)=O)n(C(N)=O)c2c1

>  <score_type>  (85) 
oracle

>  <origin>  (85) 
adg

>  <m_score__min__energy>  (85) 
-8.3900000000000006

>  <m_primary>  (85) 
energy

$$$$
85:0
     RDKit          3D

 28 29  0  0  0  0  0  0  0  0999 V2000
   -4.2780   17.2200  -34.7290 N   0  0  0  0  0  0  0  0  0  0  0  0
   -5.0880   18.3860  -34.5770 C   0  0  0  0  0  0  0  0  0  0  0  0
   -6.0810   18.5510  -35.3350 O   0  0  0  0  0  0  0  0  0  0  0  0
   -4.7440   19.4330  -33.5960 C   0  0  0  0  0  0  0  0  0  0  0  0
   -5.6960   20.1600  -32.8870 C   0  0  0  0  0  0  0  0  0  0  0  0
   -4.9800   21.0660  -32.1410 C   0  0  0  0  0  0  0  0  0  0  0  0
   -5.4240   22.0270  -31.2360 C   0  0  0  0  0  0  0  0  0  0  0  0
   -4.4590   22.7990  -30.5700 C   0  0  0  0  0  0  0  0  0  0  0  0
   -3.0780   22.6000  -30.8170 C   0  0  0  0  0  0  0  0  0  0  0  0
   -2.0550   23.3990  -30.0610 C   0  0  0  0  0  0  0  0  0  0  0  0
   -2.8170   24.9000  -29.3710 P   0  0  0  0  0  0  0  0  0  0  0  0
   -3.5980   24.5390  -28.1280 O   0  0  0  0  0  0  0  0  0  0  0  0
   -3.8640   25.5830  -30.5110 O   0  0  0  0  0  0  0  0  0  0  0  0
   -1.6130   26.0180  -28.9720 O   0  0  0  0  0  0  0  0  0  0  0  0
   -2.6640   21.6070  -31.7330 C   0  0  0  0  0  0  0  0  0  0  0  0
   -3.6480   20.8640  -32.3990 C   0  0  0  0  0  0  0  0  0  0  0  0
   -3.4850   19.8580  -33.2900 N   0  0  0  0  0  0  0  0  0  0  0  0
   -2.2420   19.2770  -33.7180 C   0  0  0  0  0  0  0  0  0  0  0  0
   -1.4180   19.9530  -34.3890 O   0  0  0  0  0  0  0  0  0  0  0  0
   -1.9320   17.9640  -33.3890 O   0  0  0  0  0  0  0  0  0  0  0  0
   -4.5560   16.4730  -35.4040 H   0  0  0  0  0  0  0  0  0  0  0  0
   -3.3630   17.1320  -34.2360 H   0  0  0  0  0  0  0  0  0  0  0  0
   -6.7886   20.0360  -32.9172 H   0  0  0  0  0  0  0  0  0  0  0  0
   -6.4976   22.1765  -31.0489 H   0  0  0  0  0  0  0  0  0  0  0  0
   -4.7782   23.5661  -29.8491 H   0  0  0  0  0  0  0  0  0  0  0  0
   -1.6492   22.7876  -29.2415 H   0  0  0  0  0  0  0  0  0  0  0  0
   -1.2464   23.6895  -30.7479 H   0  0  0  0  0  0  0  0  0  0  0  0
   -1.5957   21.4217  -31.9187 H   0  0  0  0  0  0  0  0  0  0  0  0
  1  2  1  0
  2  3  2  0
  2  4  1  0
  4  5  2  0
  5  6  1  0
  6  7  2  0
  7  8  1  0
  8  9  2  0
  9 10  1  0
 10 11  1  0
 11 12  2  0
 11 13  1  0
 11 14  1  0
  9 15  1  0
 15 16  2  0
 16 17  1  0
 17 18  1  0
 18 19  2  0
 18 20  1  0
 17  4  1  0
 16  6  1  0
  1 21  1  0
  1 22  1  0
  5 23  1  0
  7 24  1  0
  8 25  1  0
 10 26  1  0
 10 27  1  0
 15 28  1  0
M  CHG  3  13  -1  14  -1  20  -1
M  END
>  <UniqueID>  (86) 
86

>  <SMILES>  (86) 
NC(=O)c1cc2ccc(CP(=O)([O-])[O-])cc2n1C(=O)[O-]

>  <Energy>  (86) 
63.59415577287512

>  <Genealogy>  (86) 
NC(=O)c1cc2ccc(CP(=O)([O-])[O-])cc2n1C(=O)[O-] (protonated)
NC(=O)c1cc2ccc(CP(=O)([O-])[O-])cc2n1C(=O)[O-] (3D coordinates assigned)
NC(=O)c1cc2ccc(CP(=O)([O-])[O-])cc2n1C(=O)[O-] (optimized conformer: 63.59415577287512 kcal/mol)

>  <smiles>  (86) 
NC(=O)c1cc2ccc(CP(=O)(O)O)cc2n1C(=O)O

>  <score_type>  (86) 
oracle

>  <origin>  (86) 
adg

>  <m_score__min__energy>  (86) 
-10.84

>  <m_primary>  (86) 
energy

$$$$
86:0
     RDKit          3D

 45 46  0  0  0  0  0  0  0  0999 V2000
   -3.9290   25.6730  -30.9060 N   0  0  0  0  0  0  0  0  0  0  0  0
   -5.2390   25.2640  -30.5250 C   0  0  0  0  0  0  0  0  0  0  0  0
   -5.9170   25.9990  -29.7570 O   0  0  0  0  0  0  0  0  0  0  0  0
   -5.7890   23.9650  -30.9670 C   0  0  0  0  0  0  0  0  0  0  0  0
   -7.1340   23.7690  -31.2680 C   0  0  0  0  0  0  0  0  0  0  0  0
   -7.2540   22.4250  -31.5350 C   0  0  0  0  0  0  0  0  0  0  0  0
   -8.3740   21.6840  -31.9080 C   0  0  0  0  0  0  0  0  0  0  0  0
   -8.2030   20.3120  -32.1510 C   0  0  0  0  0  0  0  0  0  0  0  0
   -6.9290   19.7080  -32.0160 C   0  0  0  0  0  0  0  0  0  0  0  0
   -6.7490   18.2470  -32.3180 C   0  0  0  0  0  0  0  0  0  0  0  0
   -6.4670   18.0590  -33.7730 C   0  0  0  0  0  0  0  0  0  0  0  0
   -6.1100   19.0440  -34.4750 O   0  0  0  0  0  0  0  0  0  0  0  0
   -6.5600   16.7780  -34.3280 O   0  0  0  0  0  0  0  0  0  0  0  0
   -5.5630   15.7720  -34.1520 C   0  0  0  0  0  0  0  0  0  0  0  0
   -4.4780   16.2320  -33.1720 C   0  0  0  0  0  0  0  0  0  0  0  0
   -3.2690   16.8480  -33.8810 C   0  0  0  0  0  0  0  0  0  0  0  0
   -3.5740   18.1680  -34.3150 O   0  0  0  0  0  0  0  0  0  0  0  0
   -3.2730   19.2720  -33.5450 N   0  0  0  0  0  0  0  0  0  0  0  0
   -3.7420   20.3850  -33.8550 O   0  0  0  0  0  0  0  0  0  0  0  0
   -2.4820   19.1580  -32.4250 O   0  0  0  0  0  0  0  0  0  0  0  0
   -5.8140   20.4940  -31.6500 C   0  0  0  0  0  0  0  0  0  0  0  0
   -6.0140   21.8560  -31.3990 C   0  0  0  0  0  0  0  0  0  0  0  0
   -5.1000   22.7920  -31.0560 N   0  0  0  0  0  0  0  0  0  0  0  0
   -3.6830   22.5910  -30.9270 C   0  0  0  0  0  0  0  0  0  0  0  0
   -3.0820   21.8220  -31.7260 O   0  0  0  0  0  0  0  0  0  0  0  0
   -2.9790   23.2280  -29.8980 O   0  0  0  0  0  0  0  0  0  0  0  0
   -1.5760   23.0740  -29.6970 C   0  0  0  0  0  0  0  0  0  0  0  0
   -0.9840   24.3450  -29.1760 C   0  0  0  0  0  0  0  0  0  0  0  0
   -1.5960   25.4360  -29.3220 O   0  0  0  0  0  0  0  0  0  0  0  0
    0.2320   24.3200  -28.5080 O   0  0  0  0  0  0  0  0  0  0  0  0
   -3.0840   25.2840  -30.4300 H   0  0  0  0  0  0  0  0  0  0  0  0
   -7.9308   24.5271  -31.2880 H   0  0  0  0  0  0  0  0  0  0  0  0
   -9.3609   22.1593  -32.0088 H   0  0  0  0  0  0  0  0  0  0  0  0
   -9.0670   19.7000  -32.4492 H   0  0  0  0  0  0  0  0  0  0  0  0
   -5.9067   17.8541  -31.7296 H   0  0  0  0  0  0  0  0  0  0  0  0
   -7.6705   17.7069  -32.0552 H   0  0  0  0  0  0  0  0  0  0  0  0
   -6.0381   14.8609  -33.7594 H   0  0  0  0  0  0  0  0  0  0  0  0
   -5.0915   15.5749  -35.1261 H   0  0  0  0  0  0  0  0  0  0  0  0
   -4.9102   16.9834  -32.4948 H   0  0  0  0  0  0  0  0  0  0  0  0
   -4.1270   15.3460  -32.6227 H   0  0  0  0  0  0  0  0  0  0  0  0
   -2.4179   16.8819  -33.1849 H   0  0  0  0  0  0  0  0  0  0  0  0
   -3.0140   16.2323  -34.7562 H   0  0  0  0  0  0  0  0  0  0  0  0
   -4.8129   20.0464  -31.5644 H   0  0  0  0  0  0  0  0  0  0  0  0
   -1.3998   22.2670  -28.9705 H   0  0  0  0  0  0  0  0  0  0  0  0
   -1.1018   22.8258  -30.6580 H   0  0  0  0  0  0  0  0  0  0  0  0
  1  2  1  0
  2  3  2  0
  2  4  1  0
  4  5  2  0
  5  6  1  0
  6  7  2  0
  7  8  1  0
  8  9  2  0
  9 10  1  0
 10 11  1  0
 11 12  2  0
 11 13  1  0
 13 14  1  0
 14 15  1  0
 15 16  1  0
 16 17  1  0
 17 18  1  0
 18 19  2  0
 18 20  1  0
  9 21  1  0
 21 22  2  0
 22 23  1  0
 23 24  1  0
 24 25  2  0
 24 26  1  0
 26 27  1  0
 27 28  1  0
 28 29  2  0
 28 30  1  0
 23  4  1  0
 22  6  1  0
  1 31  1  0
  5 32  1  0
  7 33  1  0
  8 34  1  0
 10 35  1  0
 10 36  1  0
 14 37  1  0
 14 38  1  0
 15 39  1  0
 15 40  1  0
 16 41  1  0
 16 42  1  0
 21 43  1  0
 27 44  1  0
 27 45  1  0
M  CHG  4   1  -1  18   1  20  -1  30  -1
M  END
>  <UniqueID>  (87) 
87

>  <SMILES>  (87) 
[NH-]C(=O)c1cc2ccc(CC(=O)OCCCO[N+](=O)[O-])cc2n1C(=O)OCC(=O)[O-]

>  <Energy>  (87) 
69.99690518015774

>  <Genealogy>  (87) 
[NH-]C(=O)c1cc2ccc(CC(=O)OCCCO[N+](=O)[O-])cc2n1C(=O)OCC(=O)[O-] (protonated)
[NH-]C(=O)c1cc2ccc(CC(=O)OCCCO[N+](=O)[O-])cc2n1C(=O)OCC(=O)[O-] (3D coordinates assigned)
[NH-]C(=O)c1cc2ccc(CC(=O)OCCCO[N+](=O)[O-])cc2n1C(=O)OCC(=O)[O-] (optimized conformer: 69.99690518015774 kcal/mol)

>  <smiles>  (87) 
NC(=O)c1cc2ccc(CC(=O)OCCCO[N+](=O)[O-])cc2n1C(=O)OCC(=O)O

>  <score_type>  (87) 
oracle

>  <origin>  (87) 
adg

>  <m_score__min__energy>  (87) 
-12.84

>  <m_primary>  (87) 
energy

$$$$
87:0
     RDKit          3D

 46 47  0  0  0  0  0  0  0  0999 V2000
   -7.5440   23.4240  -31.9920 C   0  0  0  0  0  0  0  0  0  0  0  0
   -6.8060   23.0430  -30.9450 C   0  0  0  0  0  0  0  0  0  0  0  0
   -6.3710   24.0230  -29.8960 C   0  0  0  0  0  0  0  0  0  0  0  0
   -5.0280   23.7470  -29.5180 O   0  0  0  0  0  0  0  0  0  0  0  0
   -3.9240   24.1410  -30.2790 C   0  0  0  0  0  0  0  0  0  0  0  0
   -3.8710   25.2990  -30.7750 O   0  0  0  0  0  0  0  0  0  0  0  0
   -2.8300   23.2290  -30.4610 N   0  0  0  0  0  0  0  0  0  0  0  0
   -1.5780   23.2890  -29.9230 C   0  0  0  0  0  0  0  0  0  0  0  0
   -1.0330   24.3970  -29.1100 C   0  0  0  0  0  0  0  0  0  0  0  0
   -1.7240   25.6370  -29.0000 N   0  0  0  0  0  0  0  0  0  0  0  0
    0.0840   24.2610  -28.5430 O   0  0  0  0  0  0  0  0  0  0  0  0
   -0.8240   22.1870  -30.3220 C   0  0  0  0  0  0  0  0  0  0  0  0
   -1.6530   21.4500  -31.1360 C   0  0  0  0  0  0  0  0  0  0  0  0
   -1.4160   20.2620  -31.8220 C   0  0  0  0  0  0  0  0  0  0  0  0
   -2.4650   19.7200  -32.5870 C   0  0  0  0  0  0  0  0  0  0  0  0
   -3.7290   20.3610  -32.6320 C   0  0  0  0  0  0  0  0  0  0  0  0
   -4.8470   19.7900  -33.4620 C   0  0  0  0  0  0  0  0  0  0  0  0
   -6.0650   19.4730  -32.5860 C   0  0  0  0  0  0  0  0  0  0  0  0
   -7.3330   20.1540  -33.1400 C   0  0  0  0  0  0  0  0  0  0  0  0
   -8.5980   19.6560  -32.5540 N   0  0  0  0  0  0  0  0  0  0  0  0
   -8.3930   18.5580  -31.5940 C   0  0  0  0  0  0  0  0  0  0  0  0
   -9.4220   20.7250  -31.9720 C   0  0  0  0  0  0  0  0  0  0  0  0
   -3.9290   21.5650  -31.9240 C   0  0  0  0  0  0  0  0  0  0  0  0
   -2.8600   22.0980  -31.1980 C   0  0  0  0  0  0  0  0  0  0  0  0
   -7.8498   22.6851  -32.7474 H   0  0  0  0  0  0  0  0  0  0  0  0
   -7.8456   24.4765  -32.0984 H   0  0  0  0  0  0  0  0  0  0  0  0
   -6.5111   21.9875  -30.8504 H   0  0  0  0  0  0  0  0  0  0  0  0
   -6.4361   25.0445  -30.2988 H   0  0  0  0  0  0  0  0  0  0  0  0
   -7.0255   23.9336  -29.0164 H   0  0  0  0  0  0  0  0  0  0  0  0
   -2.7450   25.7040  -29.2110 H   0  0  0  0  0  0  0  0  0  0  0  0
    0.2149   21.9553  -30.0446 H   0  0  0  0  0  0  0  0  0  0  0  0
   -0.4377   19.7620  -31.7675 H   0  0  0  0  0  0  0  0  0  0  0  0
   -2.3033   18.7917  -33.1546 H   0  0  0  0  0  0  0  0  0  0  0  0
   -5.1359   20.5216  -34.2310 H   0  0  0  0  0  0  0  0  0  0  0  0
   -4.4981   18.8591  -33.9328 H   0  0  0  0  0  0  0  0  0  0  0  0
   -6.2205   18.3842  -32.5656 H   0  0  0  0  0  0  0  0  0  0  0  0
   -5.8766   19.8530  -31.5711 H   0  0  0  0  0  0  0  0  0  0  0  0
   -7.2609   21.2328  -32.9376 H   0  0  0  0  0  0  0  0  0  0  0  0
   -7.3710   19.9219  -34.2146 H   0  0  0  0  0  0  0  0  0  0  0  0
   -8.4660   18.9492  -30.5685 H   0  0  0  0  0  0  0  0  0  0  0  0
   -9.1628   17.7876  -31.7483 H   0  0  0  0  0  0  0  0  0  0  0  0
   -7.3970   18.1172  -31.7483 H   0  0  0  0  0  0  0  0  0  0  0  0
   -9.3769   20.6664  -30.8745 H   0  0  0  0  0  0  0  0  0  0  0  0
   -9.0416   21.7026  -32.3030 H   0  0  0  0  0  0  0  0  0  0  0  0
  -10.4643   20.6060  -32.3030 H   0  0  0  0  0  0  0  0  0  0  0  0
   -4.9045   22.0729  -31.9429 H   0  0  0  0  0  0  0  0  0  0  0  0
  1  2  2  0
  2  3  1  0
  3  4  1  0
  4  5  1  0
  5  6  2  0
  5  7  1  0
  7  8  1  0
  8  9  1  0
  9 10  1  0
  9 11  2  0
  8 12  2  0
 12 13  1  0
 13 14  2  0
 14 15  1  0
 15 16  2  0
 16 17  1  0
 17 18  1  0
 18 19  1  0
 19 20  1  0
 20 21  1  0
 20 22  1  0
 16 23  1  0
 23 24  2  0
 24  7  1  0
 24 13  1  0
  1 25  1  0
  1 26  1  0
  2 27  1  0
  3 28  1  0
  3 29  1  0
 10 30  1  0
 12 31  1  0
 14 32  1  0
 15 33  1  0
 17 34  1  0
 17 35  1  0
 18 36  1  0
 18 37  1  0
 19 38  1  0
 19 39  1  0
 21 40  1  0
 21 41  1  0
 21 42  1  0
 22 43  1  0
 22 44  1  0
 22 45  1  0
 23 46  1  0
M  CHG  1  10  -1
M  END
>  <UniqueID>  (88) 
88

>  <SMILES>  (88) 
C=CCOC(=O)n1c(C([NH-])=O)cc2ccc(CCCN(C)C)cc21

>  <Energy>  (88) 
77.00416104499723

>  <Genealogy>  (88) 
C=CCOC(=O)n1c(C([NH-])=O)cc2ccc(CCCN(C)C)cc21 (protonated)
C=CCOC(=O)n1c(C([NH-])=O)cc2ccc(CCCN(C)C)cc21 (3D coordinates assigned)
C=CCOC(=O)n1c(C([NH-])=O)cc2ccc(CCCN(C)C)cc21 (optimized conformer: 77.00416104499723 kcal/mol)

>  <smiles>  (88) 
C=CCOC(=O)n1c(C(N)=O)cc2ccc(CCCN(C)C)cc21

>  <score_type>  (88) 
oracle

>  <origin>  (88) 
adg

>  <m_score__min__energy>  (88) 
-10.49

>  <m_primary>  (88) 
energy

$$$$
88:0
     RDKit          3D

 54 55  0  0  0  0  0  0  0  0999 V2000
   -6.6590   23.7900  -30.3150 C   0  0  0  0  0  0  0  0  0  0  0  0
   -6.0840   24.8510  -31.2380 C   0  0  0  0  0  0  0  0  0  0  0  0
   -4.6970   25.0210  -30.9620 O   0  0  0  0  0  0  0  0  0  0  0  0
   -4.0430   24.3260  -29.9420 C   0  0  0  0  0  0  0  0  0  0  0  0
   -4.3610   24.5160  -28.7360 O   0  0  0  0  0  0  0  0  0  0  0  0
   -3.0270   23.3640  -30.2700 N   0  0  0  0  0  0  0  0  0  0  0  0
   -1.6960   23.4240  -29.9810 C   0  0  0  0  0  0  0  0  0  0  0  0
   -1.0410   24.4270  -29.1170 C   0  0  0  0  0  0  0  0  0  0  0  0
   -1.6220   25.7200  -28.9650 N   0  0  0  0  0  0  0  0  0  0  0  0
    0.0460   24.1670  -28.5370 O   0  0  0  0  0  0  0  0  0  0  0  0
   -1.0230   22.3490  -30.5610 C   0  0  0  0  0  0  0  0  0  0  0  0
   -1.9900   21.6230  -31.2190 C   0  0  0  0  0  0  0  0  0  0  0  0
   -1.8750   20.4750  -31.9970 C   0  0  0  0  0  0  0  0  0  0  0  0
   -3.0380   19.9750  -32.6080 C   0  0  0  0  0  0  0  0  0  0  0  0
   -4.2830   20.6240  -32.4260 C   0  0  0  0  0  0  0  0  0  0  0  0
   -5.5070   20.1390  -33.1580 C   0  0  0  0  0  0  0  0  0  0  0  0
   -6.7720   20.8820  -32.7020 C   0  0  0  0  0  0  0  0  0  0  0  0
   -7.8000   19.9540  -32.2020 N   0  0  0  0  0  0  0  0  0  0  0  0
   -9.0410   20.4710  -31.6170 C   0  0  0  0  0  0  0  0  0  0  0  0
   -7.5880   18.5310  -32.2660 C   0  0  0  0  0  0  0  0  0  0  0  0
   -7.6660   17.8400  -31.2130 O   0  0  0  0  0  0  0  0  0  0  0  0
   -7.2830   17.9280  -33.4960 O   0  0  0  0  0  0  0  0  0  0  0  0
   -6.2590   16.9530  -33.7350 C   0  0  0  0  0  0  0  0  0  0  0  0
   -6.8770   15.5760  -34.0420 C   0  0  0  0  0  0  0  0  0  0  0  0
   -5.4620   17.4240  -34.9610 C   0  0  0  0  0  0  0  0  0  0  0  0
   -5.3050   16.8630  -32.5280 C   0  0  0  0  0  0  0  0  0  0  0  0
   -4.3600   21.7860  -31.6270 C   0  0  0  0  0  0  0  0  0  0  0  0
   -3.1900   22.2560  -31.0250 C   0  0  0  0  0  0  0  0  0  0  0  0
   -6.4976   24.0879  -29.2685 H   0  0  0  0  0  0  0  0  0  0  0  0
   -7.7375   23.6849  -30.5041 H   0  0  0  0  0  0  0  0  0  0  0  0
   -6.1582   22.8290  -30.5041 H   0  0  0  0  0  0  0  0  0  0  0  0
   -6.2136   24.5360  -32.2839 H   0  0  0  0  0  0  0  0  0  0  0  0
   -6.6095   25.8033  -31.0734 H   0  0  0  0  0  0  0  0  0  0  0  0
   -2.6580   25.8490  -28.9940 H   0  0  0  0  0  0  0  0  0  0  0  0
    0.0531   22.1279  -30.5046 H   0  0  0  0  0  0  0  0  0  0  0  0
   -0.9045   19.9745  -32.1297 H   0  0  0  0  0  0  0  0  0  0  0  0
   -2.9803   19.0716  -33.2330 H   0  0  0  0  0  0  0  0  0  0  0  0
   -5.3661   20.3033  -34.2365 H   0  0  0  0  0  0  0  0  0  0  0  0
   -5.6383   19.0695  -32.9366 H   0  0  0  0  0  0  0  0  0  0  0  0
   -6.5031   21.5827  -31.8978 H   0  0  0  0  0  0  0  0  0  0  0  0
   -7.1863   21.4166  -33.5695 H   0  0  0  0  0  0  0  0  0  0  0  0
   -8.9694   20.4412  -30.5197 H   0  0  0  0  0  0  0  0  0  0  0  0
   -9.1970   21.5089  -31.9462 H   0  0  0  0  0  0  0  0  0  0  0  0
   -9.8877   19.8508  -31.9462 H   0  0  0  0  0  0  0  0  0  0  0  0
   -7.1088   15.0596  -33.0988 H   0  0  0  0  0  0  0  0  0  0  0  0
   -7.8012   15.7102  -34.6232 H   0  0  0  0  0  0  0  0  0  0  0  0
   -6.1624   14.9747  -34.6232 H   0  0  0  0  0  0  0  0  0  0  0  0
   -4.5593   17.9575  -34.6286 H   0  0  0  0  0  0  0  0  0  0  0  0
   -5.1711   16.5527  -35.5661 H   0  0  0  0  0  0  0  0  0  0  0  0
   -6.0850   18.0991  -35.5661 H   0  0  0  0  0  0  0  0  0  0  0  0
   -5.8867   16.9179  -31.5960 H   0  0  0  0  0  0  0  0  0  0  0  0
   -4.7580   15.9093  -32.5632 H   0  0  0  0  0  0  0  0  0  0  0  0
   -4.5893   17.6976  -32.5632 H   0  0  0  0  0  0  0  0  0  0  0  0
   -5.3173   22.3081  -31.4822 H   0  0  0  0  0  0  0  0  0  0  0  0
  1  2  1  0
  2  3  1  0
  3  4  1  0
  4  5  2  0
  4  6  1  0
  6  7  1  0
  7  8  1  0
  8  9  1  0
  8 10  2  0
  7 11  2  0
 11 12  1  0
 12 13  2  0
 13 14  1  0
 14 15  2  0
 15 16  1  0
 16 17  1  0
 17 18  1  0
 18 19  1  0
 18 20  1  0
 20 21  2  0
 20 22  1  0
 22 23  1  0
 23 24  1  0
 23 25  1  0
 23 26  1  0
 15 27  1  0
 27 28  2  0
 28  6  1  0
 28 12  1  0
  1 29  1  0
  1 30  1  0
  1 31  1  0
  2 32  1  0
  2 33  1  0
  9 34  1  0
 11 35  1  0
 13 36  1  0
 14 37  1  0
 16 38  1  0
 16 39  1  0
 17 40  1  0
 17 41  1  0
 19 42  1  0
 19 43  1  0
 19 44  1  0
 24 45  1  0
 24 46  1  0
 24 47  1  0
 25 48  1  0
 25 49  1  0
 25 50  1  0
 26 51  1  0
 26 52  1  0
 26 53  1  0
 27 54  1  0
M  CHG  1   9  -1
M  END
>  <UniqueID>  (89) 
89

>  <SMILES>  (89) 
CCOC(=O)n1c(C([NH-])=O)cc2ccc(CCN(C)C(=O)OC(C)(C)C)cc21

>  <Energy>  (89) 
73.9923057906719

>  <Genealogy>  (89) 
CCOC(=O)n1c(C([NH-])=O)cc2ccc(CCN(C)C(=O)OC(C)(C)C)cc21 (protonated)
CCOC(=O)n1c(C([NH-])=O)cc2ccc(CCN(C)C(=O)OC(C)(C)C)cc21 (3D coordinates assigned)
CCOC(=O)n1c(C([NH-])=O)cc2ccc(CCN(C)C(=O)OC(C)(C)C)cc21 (optimized conformer: 73.9923057906719 kcal/mol)

>  <smiles>  (89) 
CCOC(=O)n1c(C(N)=O)cc2ccc(CCN(C)C(=O)OC(C)(C)C)cc21

>  <score_type>  (89) 
oracle

>  <origin>  (89) 
adg

>  <m_score__min__energy>  (89) 
-10.27

>  <m_primary>  (89) 
energy

$$$$
89:0
     RDKit          3D

 37 39  0  0  0  0  0  0  0  0999 V2000
   -3.5270   26.0450  -31.2610 H   0  0  0  0  0  0  0  0  0  0  0  0
   -3.8630   25.2960  -30.6160 N   0  0  0  0  0  0  0  0  0  0  0  0
   -5.2560   25.0860  -30.3990 C   0  0  0  0  0  0  0  0  0  0  0  0
   -5.9130   25.9410  -29.7470 O   0  0  0  0  0  0  0  0  0  0  0  0
   -5.9280   23.8630  -30.8870 C   0  0  0  0  0  0  0  0  0  0  0  0
   -7.2850   23.8020  -31.2000 C   0  0  0  0  0  0  0  0  0  0  0  0
   -8.0120   24.6273  -31.1789 H   0  0  0  0  0  0  0  0  0  0  0  0
   -7.5220   22.4900  -31.5410 C   0  0  0  0  0  0  0  0  0  0  0  0
   -8.6990   21.8710  -31.9510 C   0  0  0  0  0  0  0  0  0  0  0  0
   -9.6413   22.4341  -32.0214 H   0  0  0  0  0  0  0  0  0  0  0  0
   -8.6460   20.5050  -32.2720 C   0  0  0  0  0  0  0  0  0  0  0  0
   -9.5612   19.9871  -32.5948 H   0  0  0  0  0  0  0  0  0  0  0  0
   -7.4230   19.7820  -32.1850 C   0  0  0  0  0  0  0  0  0  0  0  0
   -7.3360   18.3080  -32.5370 C   0  0  0  0  0  0  0  0  0  0  0  0
   -8.4051   18.0724  -32.4292 H   0  0  0  0  0  0  0  0  0  0  0  0
   -6.2390   17.5380  -31.8110 C   0  0  0  0  0  0  0  0  0  0  0  0
   -5.6753   18.1510  -31.0924 H   0  0  0  0  0  0  0  0  0  0  0  0
   -6.5197   16.6914  -31.1672 H   0  0  0  0  0  0  0  0  0  0  0  0
   -5.5080   17.2730  -33.0510 N   0  0  0  0  0  0  0  0  0  0  0  0
   -5.4840   16.2530  -33.2890 H   0  0  0  0  0  0  0  0  0  0  0  0
   -4.5830   17.7610  -33.0790 H   0  0  0  0  0  0  0  0  0  0  0  0
   -6.5400   17.9960  -33.7980 C   0  0  0  0  0  0  0  0  0  0  0  0
   -6.1625   18.8927  -34.3112 H   0  0  0  0  0  0  0  0  0  0  0  0
   -7.0444   17.4904  -34.6346 H   0  0  0  0  0  0  0  0  0  0  0  0
   -6.2530   20.4510  -31.7640 C   0  0  0  0  0  0  0  0  0  0  0  0
   -5.2939   19.9165  -31.6969 H   0  0  0  0  0  0  0  0  0  0  0  0
   -6.3390   21.8080  -31.4340 C   0  0  0  0  0  0  0  0  0  0  0  0
   -5.3510   22.6370  -31.0330 N   0  0  0  0  0  0  0  0  0  0  0  0
   -3.9660   22.2900  -30.8840 C   0  0  0  0  0  0  0  0  0  0  0  0
   -3.5460   21.8660  -29.7730 O   0  0  0  0  0  0  0  0  0  0  0  0
   -3.0650   22.3540  -32.0530 C   0  0  0  0  0  0  0  0  0  0  0  0
   -2.4081   23.2328  -32.1321 H   0  0  0  0  0  0  0  0  0  0  0  0
   -2.9770   21.4360  -33.0260 C   0  0  0  0  0  0  0  0  0  0  0  0
   -2.3924   21.7035  -33.9186 H   0  0  0  0  0  0  0  0  0  0  0  0
   -3.5970   20.0980  -33.0020 C   0  0  0  0  0  0  0  0  0  0  0  0
   -4.3310   19.7440  -33.9610 O   0  0  0  0  0  0  0  0  0  0  0  0
   -3.3210   19.1880  -31.9890 O   0  0  0  0  0  0  0  0  0  0  0  0
  1  2  1  0
  2  3  1  0
  3  4  2  0
  3  5  1  0
  5  6  2  0
  6  7  1  0
  6  8  1  0
  8  9  2  0
  9 10  1  0
  9 11  1  0
 11 12  1  0
 11 13  2  0
 13 14  1  0
 14 15  1  0
 14 16  1  0
 16 17  1  0
 16 18  1  0
 16 19  1  0
 19 20  1  0
 19 21  1  0
 19 22  1  0
 22 23  1  0
 22 24  1  0
 13 25  1  0
 25 26  1  0
 25 27  2  0
 27 28  1  0
 28 29  1  0
 29 30  2  0
 29 31  1  0
 31 32  1  0
 31 33  2  0
 33 34  1  0
 33 35  1  0
 35 36  2  0
 35 37  1  0
 28  5  1  0
 27  8  1  0
 22 14  1  0
M  CHG  3   2  -1  19   1  37  -1
M  END
>  <UniqueID>  (90) 
90

>  <SMILES>  (90) 
[NH-]C(=O)c1cc2ccc(C3C[NH2+]C3)cc2n1C(=O)/C=C\C(=O)[O-]

>  <Energy>  (90) 
154.7992015326593

>  <Genealogy>  (90) 
[NH-]C(=O)c1cc2ccc(C3C[NH2+]C3)cc2n1C(=O)/C=C\C(=O)[O-] (protonated)
[NH-]C(=O)c1cc2ccc(C3C[NH2+]C3)cc2n1C(=O)/C=C\C(=O)[O-] (cis-trans isomerization)
[NH-]C(=O)c1cc2ccc(C3C[NH2+]C3)cc2n1C(=O)/C=C\C(=O)[O-] (3D coordinates assigned)
[NH-]C(=O)c1cc2ccc(C3C[NH2+]C3)cc2n1C(=O)/C=C\C(=O)[O-] (nonaromatic ring conformer: 154.7992015326593 kcal/mol)

>  <smiles>  (90) 
NC(=O)c1cc2ccc(C3CNC3)cc2n1C(=O)/C=C\C(=O)O

>  <score_type>  (90) 
oracle

>  <origin>  (90) 
adg

>  <m_score__min__energy>  (90) 
-11.720000000000001

>  <m_primary>  (90) 
energy

$$$$
90:0
     RDKit          3D

 44 46  0  0  0  0  0  0  0  0999 V2000
   -1.2440   20.6800  -34.1390 C   0  0  0  0  0  0  0  0  0  0  0  0
   -2.3490   20.5380  -33.0750 C   0  0  0  0  0  0  0  0  0  0  0  0
   -1.8570   19.5900  -31.9710 C   0  0  0  0  0  0  0  0  0  0  0  0
   -2.6760   21.9050  -32.4450 C   0  0  0  0  0  0  0  0  0  0  0  0
   -3.5270   19.9480  -33.6440 O   0  0  0  0  0  0  0  0  0  0  0  0
   -4.2200   18.8300  -33.1540 C   0  0  0  0  0  0  0  0  0  0  0  0
   -3.6420   17.7180  -33.0260 O   0  0  0  0  0  0  0  0  0  0  0  0
   -5.6040   18.9630  -32.7920 N   0  0  0  0  0  0  0  0  0  0  0  0
   -6.5970   18.0510  -32.9880 C   0  0  0  0  0  0  0  0  0  0  0  0
   -6.4140   16.6630  -33.4580 C   0  0  0  0  0  0  0  0  0  0  0  0
   -5.3780   15.8340  -32.9280 N   0  0  0  0  0  0  0  0  0  0  0  0
   -7.2190   16.1840  -34.3000 O   0  0  0  0  0  0  0  0  0  0  0  0
   -7.8330   18.5850  -32.6360 C   0  0  0  0  0  0  0  0  0  0  0  0
   -7.5660   19.8630  -32.2030 C   0  0  0  0  0  0  0  0  0  0  0  0
   -8.4330   20.8500  -31.7510 C   0  0  0  0  0  0  0  0  0  0  0  0
   -7.8900   22.0980  -31.4040 C   0  0  0  0  0  0  0  0  0  0  0  0
   -6.4910   22.3450  -31.5250 C   0  0  0  0  0  0  0  0  0  0  0  0
   -5.8420   23.6750  -31.1790 C   0  0  1  0  0  0  0  0  0  0  0  0
   -6.2870   24.3400  -29.8820 C   0  0  0  0  0  0  0  0  0  0  0  0
   -4.9010   23.7030  -29.9790 C   0  0  2  0  0  0  0  0  0  0  0  0
   -3.7800   24.6860  -30.0940 C   0  0  0  0  0  0  0  0  0  0  0  0
   -3.8810   25.6720  -30.8700 O   0  0  0  0  0  0  0  0  0  0  0  0
   -2.6440   24.5440  -29.3070 O   0  0  0  0  0  0  0  0  0  0  0  0
   -5.6490   21.3110  -31.9910 C   0  0  0  0  0  0  0  0  0  0  0  0
   -6.2160   20.0690  -32.3080 C   0  0  0  0  0  0  0  0  0  0  0  0
   -0.2706   20.8051  -33.6422 H   0  0  0  0  0  0  0  0  0  0  0  0
   -1.2217   19.7773  -34.7672 H   0  0  0  0  0  0  0  0  0  0  0  0
   -1.4507   21.5590  -34.7672 H   0  0  0  0  0  0  0  0  0  0  0  0
   -2.0829   20.0253  -30.9864 H   0  0  0  0  0  0  0  0  0  0  0  0
   -2.3651   18.6192  -32.0680 H   0  0  0  0  0  0  0  0  0  0  0  0
   -0.7707   19.4467  -32.0680 H   0  0  0  0  0  0  0  0  0  0  0  0
   -2.6552   21.8179  -31.3487 H   0  0  0  0  0  0  0  0  0  0  0  0
   -1.9297   22.6456  -32.7682 H   0  0  0  0  0  0  0  0  0  0  0  0
   -3.6767   22.2277  -32.7682 H   0  0  0  0  0  0  0  0  0  0  0  0
   -4.8080   16.1430  -32.1110 H   0  0  0  0  0  0  0  0  0  0  0  0
   -5.2310   14.8730  -33.3070 H   0  0  0  0  0  0  0  0  0  0  0  0
   -8.8140   18.0906  -32.6921 H   0  0  0  0  0  0  0  0  0  0  0  0
   -9.5132   20.6596  -31.6673 H   0  0  0  0  0  0  0  0  0  0  0  0
   -8.5523   22.8947  -31.0343 H   0  0  0  0  0  0  0  0  0  0  0  0
   -5.7659   23.9885  -32.2306 H   0  0  0  0  0  0  0  0  0  0  0  0
   -6.3872   25.4342  -29.8310 H   0  0  0  0  0  0  0  0  0  0  0  0
   -7.1484   24.2299  -29.2068 H   0  0  0  0  0  0  0  0  0  0  0  0
   -4.3460   22.9461  -29.4053 H   0  0  0  0  0  0  0  0  0  0  0  0
   -4.5675   21.4776  -32.1031 H   0  0  0  0  0  0  0  0  0  0  0  0
  1  2  1  0
  2  3  1  0
  2  4  1  0
  2  5  1  0
  5  6  1  0
  6  7  2  0
  6  8  1  0
  8  9  1  0
  9 10  1  0
 10 11  1  0
 10 12  2  0
  9 13  2  0
 13 14  1  0
 14 15  2  0
 15 16  1  0
 16 17  2  0
 17 18  1  0
 18 19  1  0
 19 20  1  0
 20 21  1  0
 21 22  2  0
 21 23  1  0
 17 24  1  0
 24 25  2  0
 25  8  1  0
 25 14  1  0
 20 18  1  0
  1 26  1  0
  1 27  1  0
  1 28  1  0
  3 29  1  0
  3 30  1  0
  3 31  1  0
  4 32  1  0
  4 33  1  0
  4 34  1  0
 11 35  1  0
 11 36  1  0
 13 37  1  0
 15 38  1  0
 16 39  1  0
 18 40  1  6
 19 41  1  0
 19 42  1  0
 20 43  1  1
 24 44  1  0
M  CHG  1  23  -1
M  END
>  <UniqueID>  (91) 
91

>  <SMILES>  (91) 
CC(C)(C)OC(=O)n1c(C(N)=O)cc2ccc([C@H]3C[C@@H]3C(=O)[O-])cc21

>  <Energy>  (91) 
347.9590872291247

>  <Genealogy>  (91) 
CC(C)(C)OC(=O)n1c(C(N)=O)cc2ccc(C3CC3C(=O)[O-])cc21 (protonated)
CC(C)(C)OC(=O)n1c(C(N)=O)cc2ccc([C@H]3C[C@@H]3C(=O)[O-])cc21 (chirality)
CC(C)(C)OC(=O)n1c(C(N)=O)cc2ccc([C@H]3C[C@@H]3C(=O)[O-])cc21 (3D coordinates assigned)
CC(C)(C)OC(=O)n1c(C(N)=O)cc2ccc([C@H]3C[C@@H]3C(=O)[O-])cc21 (nonaromatic ring conformer: 347.9590872291247 kcal/mol)

>  <smiles>  (91) 
CC(C)(C)OC(=O)n1c(C(N)=O)cc2ccc(C3CC3C(=O)O)cc21

>  <score_type>  (91) 
oracle

>  <origin>  (91) 
adg

>  <m_score__min__energy>  (91) 
-10.5

>  <m_primary>  (91) 
energy

$$$$
91:0
     RDKit          3D

 46 48  0  0  0  0  0  0  0  0999 V2000
   -3.8510   23.8110  -28.8370 C   0  0  0  0  0  0  0  0  0  0  0  0
   -3.5870   24.1260  -30.2760 C   0  0  0  0  0  0  0  0  0  0  0  0
   -3.8730   25.2710  -30.7160 O   0  0  0  0  0  0  0  0  0  0  0  0
   -3.0890   23.1410  -31.1870 N   0  0  0  0  0  0  0  0  0  0  0  0
   -3.5720   21.7660  -31.2990 C   0  0  0  0  0  0  0  0  0  0  0  0
   -3.8310   21.3970  -32.7360 C   0  0  0  0  0  0  0  0  0  0  0  0
   -3.7050   22.2900  -33.6160 O   0  0  0  0  0  0  0  0  0  0  0  0
   -4.1860   20.0560  -33.1350 N   0  0  0  0  0  0  0  0  0  0  0  0
   -3.3610   19.1250  -33.6950 C   0  0  0  0  0  0  0  0  0  0  0  0
   -1.9480   19.3290  -34.0770 C   0  0  0  0  0  0  0  0  0  0  0  0
   -1.4610   20.6110  -34.4700 N   0  0  0  0  0  0  0  0  0  0  0  0
   -1.1670   18.3400  -34.1070 O   0  0  0  0  0  0  0  0  0  0  0  0
   -4.0210   17.9120  -33.8620 C   0  0  0  0  0  0  0  0  0  0  0  0
   -5.2910   18.1210  -33.3810 C   0  0  0  0  0  0  0  0  0  0  0  0
   -6.3640   17.2400  -33.2930 C   0  0  0  0  0  0  0  0  0  0  0  0
   -7.5530   17.7070  -32.7120 C   0  0  0  0  0  0  0  0  0  0  0  0
   -7.6360   19.0250  -32.2010 C   0  0  0  0  0  0  0  0  0  0  0  0
   -8.9280   19.5330  -31.6150 C   0  0  0  0  0  0  0  0  0  0  0  0
   -9.2670   20.9450  -32.1160 C   0  0  0  0  0  0  0  0  0  0  0  0
   -8.3400   21.9830  -31.5360 C   0  0  0  0  0  0  0  0  0  0  0  0
   -8.0460   21.9870  -30.1650 C   0  0  0  0  0  0  0  0  0  0  0  0
   -7.1480   22.9280  -29.6550 C   0  0  0  0  0  0  0  0  0  0  0  0
   -6.5590   23.8280  -30.4870 N   0  0  0  0  0  0  0  0  0  0  0  0
   -6.8200   23.8420  -31.8220 C   0  0  0  0  0  0  0  0  0  0  0  0
   -7.7110   22.9180  -32.3720 C   0  0  0  0  0  0  0  0  0  0  0  0
   -6.5210   19.8870  -32.2980 C   0  0  0  0  0  0  0  0  0  0  0  0
   -5.3640   19.4150  -32.9300 C   0  0  0  0  0  0  0  0  0  0  0  0
   -3.2751   24.4981  -28.1996 H   0  0  0  0  0  0  0  0  0  0  0  0
   -4.9243   23.9286  -28.6268 H   0  0  0  0  0  0  0  0  0  0  0  0
   -3.5476   22.7748  -28.6268 H   0  0  0  0  0  0  0  0  0  0  0  0
   -2.8148   21.0845  -30.8841 H   0  0  0  0  0  0  0  0  0  0  0  0
   -4.5162   21.6811  -30.7411 H   0  0  0  0  0  0  0  0  0  0  0  0
   -2.1160   21.4040  -34.6370 H   0  0  0  0  0  0  0  0  0  0  0  0
   -0.4490   20.7440  -34.6890 H   0  0  0  0  0  0  0  0  0  0  0  0
   -3.6132   16.9835  -34.2882 H   0  0  0  0  0  0  0  0  0  0  0  0
   -6.2829   16.2088  -33.6674 H   0  0  0  0  0  0  0  0  0  0  0  0
   -8.4283   17.0433  -32.6530 H   0  0  0  0  0  0  0  0  0  0  0  0
   -9.7412   18.8494  -31.9004 H   0  0  0  0  0  0  0  0  0  0  0  0
   -8.8130   19.5771  -30.5219 H   0  0  0  0  0  0  0  0  0  0  0  0
   -9.1810   20.9639  -33.2125 H   0  0  0  0  0  0  0  0  0  0  0  0
  -10.2916   21.1845  -31.7953 H   0  0  0  0  0  0  0  0  0  0  0  0
   -8.5194   21.2539  -29.4953 H   0  0  0  0  0  0  0  0  0  0  0  0
   -6.9172   22.9409  -28.5796 H   0  0  0  0  0  0  0  0  0  0  0  0
   -6.3282   24.5827  -32.4696 H   0  0  0  0  0  0  0  0  0  0  0  0
   -7.9181   22.9231  -33.4523 H   0  0  0  0  0  0  0  0  0  0  0  0
   -6.5608   20.9063  -31.8862 H   0  0  0  0  0  0  0  0  0  0  0  0
  1  2  1  0
  2  3  2  0
  2  4  1  0
  4  5  1  0
  5  6  1  0
  6  7  2  0
  6  8  1  0
  8  9  1  0
  9 10  1  0
 10 11  1  0
 10 12  2  0
  9 13  2  0
 13 14  1  0
 14 15  2  0
 15 16  1  0
 16 17  2  0
 17 18  1  0
 18 19  1  0
 19 20  1  0
 20 21  2  0
 21 22  1  0
 22 23  2  0
 23 24  1  0
 24 25  2  0
 17 26  1  0
 26 27  2  0
 27  8  1  0
 27 14  1  0
 25 20  1  0
  1 28  1  0
  1 29  1  0
  1 30  1  0
  5 31  1  0
  5 32  1  0
 11 33  1  0
 11 34  1  0
 13 35  1  0
 15 36  1  0
 16 37  1  0
 18 38  1  0
 18 39  1  0
 19 40  1  0
 19 41  1  0
 21 42  1  0
 22 43  1  0
 24 44  1  0
 25 45  1  0
 26 46  1  0
M  CHG  1   4  -1
M  END
>  <UniqueID>  (92) 
92

>  <SMILES>  (92) 
CC(=O)[N-]CC(=O)n1c(C(N)=O)cc2ccc(CCc3ccncc3)cc21

>  <Energy>  (92) 
83.16988765752568

>  <Genealogy>  (92) 
CC(=O)[N-]CC(=O)n1c(C(N)=O)cc2ccc(CCc3ccncc3)cc21 (protonated)
CC(=O)[N-]CC(=O)n1c(C(N)=O)cc2ccc(CCc3ccncc3)cc21 (3D coordinates assigned)
CC(=O)[N-]CC(=O)n1c(C(N)=O)cc2ccc(CCc3ccncc3)cc21 (optimized conformer: 83.16988765752568 kcal/mol)

>  <smiles>  (92) 
CC(=O)NCC(=O)n1c(C(N)=O)cc2ccc(CCc3ccncc3)cc21

>  <score_type>  (92) 
oracle

>  <origin>  (92) 
adg

>  <m_score__min__energy>  (92) 
-10.720000000000001

>  <m_primary>  (92) 
energy

$$$$
92:0
     RDKit          3D

 45 47  0  0  0  0  0  0  0  0999 V2000
   -6.4660   24.4020  -30.8570 C   0  0  0  0  0  0  0  0  0  0  0  0
   -5.6220   25.6690  -30.7870 C   0  0  0  0  0  0  0  0  0  0  0  0
   -4.2870   25.3630  -30.3900 O   0  0  0  0  0  0  0  0  0  0  0  0
   -3.9540   24.2770  -29.5720 C   0  0  0  0  0  0  0  0  0  0  0  0
   -4.5820   24.0740  -28.4980 O   0  0  0  0  0  0  0  0  0  0  0  0
   -2.9140   23.3750  -29.9770 N   0  0  0  0  0  0  0  0  0  0  0  0
   -1.5780   23.4610  -29.7100 C   0  0  0  0  0  0  0  0  0  0  0  0
   -0.8960   24.5940  -29.0520 C   0  0  0  0  0  0  0  0  0  0  0  0
   -1.5690   25.8440  -28.9120 N   0  0  0  0  0  0  0  0  0  0  0  0
    0.2630   24.4620  -28.5780 O   0  0  0  0  0  0  0  0  0  0  0  0
   -0.9060   22.3540  -30.2240 C   0  0  0  0  0  0  0  0  0  0  0  0
   -1.8740   21.5840  -30.8260 C   0  0  0  0  0  0  0  0  0  0  0  0
   -1.7660   20.3640  -31.4880 C   0  0  0  0  0  0  0  0  0  0  0  0
   -2.9430   19.7820  -31.9900 C   0  0  0  0  0  0  0  0  0  0  0  0
   -4.1920   20.4210  -31.8140 C   0  0  0  0  0  0  0  0  0  0  0  0
   -5.3820   19.8110  -32.3170 N   0  0  0  0  0  0  0  0  0  0  0  0
   -6.3330   20.0330  -33.4250 C   0  0  0  0  0  0  0  0  0  0  0  0
   -7.2350   18.8840  -33.0900 C   0  0  0  0  0  0  0  0  0  0  0  0
   -8.6130   19.2930  -32.6980 N   0  0  0  0  0  0  0  0  0  0  0  0
   -8.8070   20.7120  -32.3290 C   0  0  0  0  0  0  0  0  0  0  0  0
   -9.1060   18.4230  -31.6200 C   0  0  0  0  0  0  0  0  0  0  0  0
   -6.2370   18.6540  -31.9880 C   0  0  0  0  0  0  0  0  0  0  0  0
   -4.2660   21.6550  -31.1370 C   0  0  0  0  0  0  0  0  0  0  0  0
   -3.0780   22.2220  -30.6630 C   0  0  0  0  0  0  0  0  0  0  0  0
   -6.6955   24.0575  -29.8378 H   0  0  0  0  0  0  0  0  0  0  0  0
   -7.4033   24.6149  -31.3918 H   0  0  0  0  0  0  0  0  0  0  0  0
   -5.9084   23.6191  -31.3918 H   0  0  0  0  0  0  0  0  0  0  0  0
   -5.6038   26.1462  -31.7779 H   0  0  0  0  0  0  0  0  0  0  0  0
   -6.0651   26.3490  -30.0445 H   0  0  0  0  0  0  0  0  0  0  0  0
   -2.6100   25.9020  -28.9680 H   0  0  0  0  0  0  0  0  0  0  0  0
    0.1713   22.1407  -30.1616 H   0  0  0  0  0  0  0  0  0  0  0  0
   -0.7907   19.8712  -31.6142 H   0  0  0  0  0  0  0  0  0  0  0  0
   -2.8919   18.8217  -32.5241 H   0  0  0  0  0  0  0  0  0  0  0  0
   -6.8420   21.0059  -33.3596 H   0  0  0  0  0  0  0  0  0  0  0  0
   -5.9183   20.0650  -34.4433 H   0  0  0  0  0  0  0  0  0  0  0  0
   -7.5406   18.0864  -33.7832 H   0  0  0  0  0  0  0  0  0  0  0  0
   -8.8200   20.8074  -31.2332 H   0  0  0  0  0  0  0  0  0  0  0  0
   -7.9828   21.3136  -32.7397 H   0  0  0  0  0  0  0  0  0  0  0  0
   -9.7625   21.0703  -32.7397 H   0  0  0  0  0  0  0  0  0  0  0  0
   -8.8541   18.8676  -30.6459 H   0  0  0  0  0  0  0  0  0  0  0  0
  -10.1978   18.3181  -31.7038 H   0  0  0  0  0  0  0  0  0  0  0  0
   -8.6350   17.4325  -31.7038 H   0  0  0  0  0  0  0  0  0  0  0  0
   -6.6849   18.7269  -30.9860 H   0  0  0  0  0  0  0  0  0  0  0  0
   -5.7536   17.6669  -31.9442 H   0  0  0  0  0  0  0  0  0  0  0  0
   -5.2320   22.1588  -30.9854 H   0  0  0  0  0  0  0  0  0  0  0  0
  1  2  1  0
  2  3  1  0
  3  4  1  0
  4  5  2  0
  4  6  1  0
  6  7  1  0
  7  8  1  0
  8  9  1  0
  8 10  2  0
  7 11  2  0
 11 12  1  0
 12 13  2  0
 13 14  1  0
 14 15  2  0
 15 16  1  0
 16 17  1  0
 17 18  1  0
 18 19  1  0
 19 20  1  0
 19 21  1  0
 18 22  1  0
 15 23  1  0
 23 24  2  0
 24  6  1  0
 24 12  1  0
 22 16  1  0
  1 25  1  0
  1 26  1  0
  1 27  1  0
  2 28  1  0
  2 29  1  0
  9 30  1  0
 11 31  1  0
 13 32  1  0
 14 33  1  0
 17 34  1  0
 17 35  1  0
 18 36  1  0
 20 37  1  0
 20 38  1  0
 20 39  1  0
 21 40  1  0
 21 41  1  0
 21 42  1  0
 22 43  1  0
 22 44  1  0
 23 45  1  0
M  CHG  1   9  -1
M  END
>  <UniqueID>  (93) 
93

>  <SMILES>  (93) 
CCOC(=O)n1c(C([NH-])=O)cc2ccc(N3CC(N(C)C)C3)cc21

>  <Energy>  (93) 
132.90619391393733

>  <Genealogy>  (93) 
CCOC(=O)n1c(C([NH-])=O)cc2ccc(N3CC(N(C)C)C3)cc21 (protonated)
CCOC(=O)n1c(C([NH-])=O)cc2ccc(N3CC(N(C)C)C3)cc21 (3D coordinates assigned)
CCOC(=O)n1c(C([NH-])=O)cc2ccc(N3CC(N(C)C)C3)cc21 (nonaromatic ring conformer: 132.90619391393733 kcal/mol)

>  <smiles>  (93) 
CCOC(=O)n1c(C(N)=O)cc2ccc(N3CC(N(C)C)C3)cc21

>  <score_type>  (93) 
oracle

>  <origin>  (93) 
adg

>  <m_score__min__energy>  (93) 
-10.41

>  <m_primary>  (93) 
energy

$$$$
93:0
     RDKit          3D

 59 60  0  0  0  0  0  0  0  0999 V2000
   -0.6670   20.9400  -32.4810 C   0  0  0  0  0  0  0  0  0  0  0  0
   -1.1790   21.0900  -33.7850 O   0  0  0  0  0  0  0  0  0  0  0  0
   -2.4890   20.5650  -33.8380 C   0  0  0  0  0  0  0  0  0  0  0  0
   -2.4380   19.0360  -33.7520 C   0  0  0  0  0  0  0  0  0  0  0  0
   -3.7150   18.4430  -33.1520 C   0  0  0  0  0  0  0  0  0  0  0  0
   -4.8540   18.8600  -33.8990 O   0  0  0  0  0  0  0  0  0  0  0  0
   -6.0630   18.1600  -33.8860 C   0  0  0  0  0  0  0  0  0  0  0  0
   -6.4310   17.4940  -34.8940 O   0  0  0  0  0  0  0  0  0  0  0  0
   -6.9520   18.2600  -32.6860 C   0  0  0  0  0  0  0  0  0  0  0  0
   -7.1510   19.6950  -32.2740 C   0  0  0  0  0  0  0  0  0  0  0  0
   -8.4340   20.2930  -32.3550 C   0  0  0  0  0  0  0  0  0  0  0  0
   -8.6180   21.6420  -32.0030 C   0  0  0  0  0  0  0  0  0  0  0  0
   -7.5040   22.3650  -31.5830 C   0  0  0  0  0  0  0  0  0  0  0  0
   -7.3840   23.6880  -31.2180 C   0  0  0  0  0  0  0  0  0  0  0  0
   -6.0320   23.8710  -30.9290 C   0  0  0  0  0  0  0  0  0  0  0  0
   -5.4490   25.1490  -30.4700 C   0  0  0  0  0  0  0  0  0  0  0  0
   -4.0480   25.3960  -30.5790 N   0  0  0  0  0  0  0  0  0  0  0  0
   -6.1940   26.0240  -29.9510 O   0  0  0  0  0  0  0  0  0  0  0  0
   -5.3490   22.7070  -31.1030 N   0  0  0  0  0  0  0  0  0  0  0  0
   -3.9310   22.5030  -31.0280 C   0  0  0  0  0  0  0  0  0  0  0  0
   -3.2310   22.6960  -32.0580 O   0  0  0  0  0  0  0  0  0  0  0  0
   -3.3090   22.0890  -29.7940 N   0  0  0  0  0  0  0  0  0  0  0  0
   -2.8650   20.7020  -29.6360 C   0  0  0  0  0  0  0  0  0  0  0  0
   -3.1680   23.0300  -28.6720 C   0  0  0  0  0  0  0  0  0  0  0  0
   -1.9480   23.9400  -28.8690 C   0  0  0  0  0  0  0  0  0  0  0  0
   -2.0990   25.2190  -28.1390 N   0  0  0  0  0  0  0  0  0  0  0  0
   -2.8180   25.0240  -26.8670 C   0  0  0  0  0  0  0  0  0  0  0  0
   -0.7760   25.8070  -27.8650 C   0  0  0  0  0  0  0  0  0  0  0  0
   -6.2590   21.7990  -31.5050 C   0  0  0  0  0  0  0  0  0  0  0  0
   -6.0450   20.4650  -31.8560 C   0  0  0  0  0  0  0  0  0  0  0  0
   -1.4549   21.1708  -31.7489 H   0  0  0  0  0  0  0  0  0  0  0  0
   -0.3257   19.9041  -32.3380 H   0  0  0  0  0  0  0  0  0  0  0  0
    0.1793   21.6279  -32.3380 H   0  0  0  0  0  0  0  0  0  0  0  0
   -3.0750   20.9591  -32.9946 H   0  0  0  0  0  0  0  0  0  0  0  0
   -2.9611   20.8604  -34.7866 H   0  0  0  0  0  0  0  0  0  0  0  0
   -2.3017   18.6295  -34.7650 H   0  0  0  0  0  0  0  0  0  0  0  0
   -1.6001   18.7647  -33.0930 H   0  0  0  0  0  0  0  0  0  0  0  0
   -3.6496   17.3451  -33.1731 H   0  0  0  0  0  0  0  0  0  0  0  0
   -3.8194   18.7952  -32.1152 H   0  0  0  0  0  0  0  0  0  0  0  0
   -7.9297   17.8166  -32.9258 H   0  0  0  0  0  0  0  0  0  0  0  0
   -6.4756   17.7213  -31.8536 H   0  0  0  0  0  0  0  0  0  0  0  0
   -9.2930   19.6965  -32.6962 H   0  0  0  0  0  0  0  0  0  0  0  0
   -9.6111   22.1118  -32.0577 H   0  0  0  0  0  0  0  0  0  0  0  0
   -8.1847   24.4404  -31.1656 H   0  0  0  0  0  0  0  0  0  0  0  0
   -3.4870   25.6770  -29.7460 H   0  0  0  0  0  0  0  0  0  0  0  0
   -2.7880   20.4614  -28.5654 H   0  0  0  0  0  0  0  0  0  0  0  0
   -3.5922   20.0277  -30.1120 H   0  0  0  0  0  0  0  0  0  0  0  0
   -1.8814   20.5754  -30.1120 H   0  0  0  0  0  0  0  0  0  0  0  0
   -4.0736   23.6511  -28.6071 H   0  0  0  0  0  0  0  0  0  0  0  0
   -3.0298   22.4533  -27.7455 H   0  0  0  0  0  0  0  0  0  0  0  0
   -1.0518   23.4209  -28.4982 H   0  0  0  0  0  0  0  0  0  0  0  0
   -1.8559   24.1648  -29.9418 H   0  0  0  0  0  0  0  0  0  0  0  0
   -2.1331   25.2097  -26.0265 H   0  0  0  0  0  0  0  0  0  0  0  0
   -3.6638   25.7252  -26.8127 H   0  0  0  0  0  0  0  0  0  0  0  0
   -3.1936   23.9915  -26.8127 H   0  0  0  0  0  0  0  0  0  0  0  0
   -0.6230   25.8750  -26.7778 H   0  0  0  0  0  0  0  0  0  0  0  0
    0.0061   25.1717  -28.3063 H   0  0  0  0  0  0  0  0  0  0  0  0
   -0.7234   26.8132  -28.3063 H   0  0  0  0  0  0  0  0  0  0  0  0
   -5.0382   20.0246  -31.8079 H   0  0  0  0  0  0  0  0  0  0  0  0
  1  2  1  0
  2  3  1  0
  3  4  1  0
  4  5  1  0
  5  6  1  0
  6  7  1  0
  7  8  2  0
  7  9  1  0
  9 10  1  0
 10 11  2  0
 11 12  1  0
 12 13  2  0
 13 14  1  0
 14 15  2  0
 15 16  1  0
 16 17  1  0
 16 18  2  0
 15 19  1  0
 19 20  1  0
 20 21  2  0
 20 22  1  0
 22 23  1  0
 22 24  1  0
 24 25  1  0
 25 26  1  0
 26 27  1  0
 26 28  1  0
 19 29  1  0
 29 30  2  0
 30 10  1  0
 29 13  1  0
  1 31  1  0
  1 32  1  0
  1 33  1  0
  3 34  1  0
  3 35  1  0
  4 36  1  0
  4 37  1  0
  5 38  1  0
  5 39  1  0
  9 40  1  0
  9 41  1  0
 11 42  1  0
 12 43  1  0
 14 44  1  0
 17 45  1  0
 23 46  1  0
 23 47  1  0
 23 48  1  0
 24 49  1  0
 24 50  1  0
 25 51  1  0
 25 52  1  0
 27 53  1  0
 27 54  1  0
 27 55  1  0
 28 56  1  0
 28 57  1  0
 28 58  1  0
 30 59  1  0
M  CHG  1  17  -1
M  END
>  <UniqueID>  (94) 
94

>  <SMILES>  (94) 
COCCCOC(=O)Cc1ccc2cc(C([NH-])=O)n(C(=O)N(C)CCN(C)C)c2c1

>  <Energy>  (94) 
86.12364150509703

>  <Genealogy>  (94) 
COCCCOC(=O)Cc1ccc2cc(C([NH-])=O)n(C(=O)N(C)CCN(C)C)c2c1 (protonated)
COCCCOC(=O)Cc1ccc2cc(C([NH-])=O)n(C(=O)N(C)CCN(C)C)c2c1 (3D coordinates assigned)
COCCCOC(=O)Cc1ccc2cc(C([NH-])=O)n(C(=O)N(C)CCN(C)C)c2c1 (optimized conformer: 86.12364150509703 kcal/mol)

>  <smiles>  (94) 
COCCCOC(=O)Cc1ccc2cc(C(N)=O)n(C(=O)N(C)CCN(C)C)c2c1

>  <score_type>  (94) 
oracle

>  <origin>  (94) 
adg

>  <m_score__min__energy>  (94) 
-10.16

>  <m_primary>  (94) 
energy

$$$$
94:0
     RDKit          3D

 43 45  0  0  0  0  0  0  0  0999 V2000
   -1.9590   25.4590  -27.8310 N   0  0  0  0  0  0  0  0  0  0  0  0
   -1.0250   24.6300  -28.5240 C   0  0  0  0  0  0  0  0  0  0  0  0
    0.1960   24.6820  -28.2130 O   0  0  0  0  0  0  0  0  0  0  0  0
   -1.4700   23.6670  -29.5500 C   0  0  0  0  0  0  0  0  0  0  0  0
   -0.6720   22.6300  -30.0230 C   0  0  0  0  0  0  0  0  0  0  0  0
   -1.4680   21.9300  -30.8990 C   0  0  0  0  0  0  0  0  0  0  0  0
   -1.1790   20.8010  -31.6620 C   0  0  0  0  0  0  0  0  0  0  0  0
   -2.1860   20.3010  -32.5040 C   0  0  0  0  0  0  0  0  0  0  0  0
   -3.4450   20.9460  -32.5840 C   0  0  0  0  0  0  0  0  0  0  0  0
   -4.5260   20.3800  -33.4670 C   0  0  0  0  0  0  0  0  0  0  0  0
   -5.8770   20.3500  -32.7390 C   0  0  0  0  0  0  0  0  0  0  0  0
   -6.7690   19.3230  -33.3260 N   0  0  0  0  0  0  0  0  0  0  0  0
   -6.1140   18.5220  -34.3960 C   0  0  0  0  0  0  0  0  0  0  0  0
   -5.8910   17.0410  -34.0290 C   0  0  0  0  0  0  0  0  0  0  0  0
   -5.4430   16.8900  -32.5720 C   0  0  0  0  0  0  0  0  0  0  0  0
   -5.3260   15.5410  -32.2770 F   0  0  0  0  0  0  0  0  0  0  0  0
   -4.1950   17.4710  -32.4190 F   0  0  0  0  0  0  0  0  0  0  0  0
   -6.4450   17.5430  -31.5950 C   0  0  0  0  0  0  0  0  0  0  0  0
   -7.4300   18.5000  -32.2920 C   0  0  0  0  0  0  0  0  0  0  0  0
   -3.7040   22.0860  -31.7920 C   0  0  0  0  0  0  0  0  0  0  0  0
   -2.6920   22.5490  -30.9420 C   0  0  0  0  0  0  0  0  0  0  0  0
   -2.7090   23.6220  -30.1180 N   0  0  0  0  0  0  0  0  0  0  0  0
   -3.7690   24.5820  -29.9730 C   0  0  0  0  0  0  0  0  0  0  0  0
   -4.6210   24.4590  -29.0540 O   0  0  0  0  0  0  0  0  0  0  0  0
   -3.8680   25.6550  -30.8500 O   0  0  0  0  0  0  0  0  0  0  0  0
   -2.9870   25.3240  -27.9460 H   0  0  0  0  0  0  0  0  0  0  0  0
   -1.6210   26.1600  -27.1340 H   0  0  0  0  0  0  0  0  0  0  0  0
    0.3728   22.4158  -29.7537 H   0  0  0  0  0  0  0  0  0  0  0  0
   -0.1931   20.3162  -31.6069 H   0  0  0  0  0  0  0  0  0  0  0  0
   -1.9955   19.4007  -33.1066 H   0  0  0  0  0  0  0  0  0  0  0  0
   -4.6174   21.0046  -34.3678 H   0  0  0  0  0  0  0  0  0  0  0  0
   -4.2521   19.3493  -33.7365 H   0  0  0  0  0  0  0  0  0  0  0  0
   -5.7092   20.1173  -31.6771 H   0  0  0  0  0  0  0  0  0  0  0  0
   -6.3560   21.3346  -32.8446 H   0  0  0  0  0  0  0  0  0  0  0  0
   -6.7471   18.5633  -35.2946 H   0  0  0  0  0  0  0  0  0  0  0  0
   -5.1185   18.9617  -34.5560 H   0  0  0  0  0  0  0  0  0  0  0  0
   -6.8323   16.4904  -34.1733 H   0  0  0  0  0  0  0  0  0  0  0  0
   -5.1005   16.6375  -34.6789 H   0  0  0  0  0  0  0  0  0  0  0  0
   -7.0208   16.7472  -31.0999 H   0  0  0  0  0  0  0  0  0  0  0  0
   -5.8626   18.1375  -30.8757 H   0  0  0  0  0  0  0  0  0  0  0  0
   -8.2254   17.9064  -32.7663 H   0  0  0  0  0  0  0  0  0  0  0  0
   -7.8390   19.1791  -31.5294 H   0  0  0  0  0  0  0  0  0  0  0  0
   -4.6765   22.5976  -31.8415 H   0  0  0  0  0  0  0  0  0  0  0  0
  1  2  1  0
  2  3  2  0
  2  4  1  0
  4  5  2  0
  5  6  1  0
  6  7  2  0
  7  8  1  0
  8  9  2  0
  9 10  1  0
 10 11  1  0
 11 12  1  0
 12 13  1  0
 13 14  1  0
 14 15  1  0
 15 16  1  0
 15 17  1  0
 15 18  1  0
 18 19  1  0
  9 20  1  0
 20 21  2  0
 21 22  1  0
 22 23  1  0
 23 24  2  0
 23 25  1  0
 22  4  1  0
 21  6  1  0
 19 12  1  0
  1 26  1  0
  1 27  1  0
  5 28  1  0
  7 29  1  0
  8 30  1  0
 10 31  1  0
 10 32  1  0
 11 33  1  0
 11 34  1  0
 13 35  1  0
 13 36  1  0
 14 37  1  0
 14 38  1  0
 18 39  1  0
 18 40  1  0
 19 41  1  0
 19 42  1  0
 20 43  1  0
M  CHG  1  25  -1
M  END
>  <UniqueID>  (95) 
95

>  <SMILES>  (95) 
NC(=O)c1cc2ccc(CCN3CCC(F)(F)CC3)cc2n1C(=O)[O-]

>  <Energy>  (95) 
90.61914592647848

>  <Genealogy>  (95) 
NC(=O)c1cc2ccc(CCN3CCC(F)(F)CC3)cc2n1C(=O)[O-] (protonated)
NC(=O)c1cc2ccc(CCN3CCC(F)(F)CC3)cc2n1C(=O)[O-] (3D coordinates assigned)
NC(=O)c1cc2ccc(CCN3CCC(F)(F)CC3)cc2n1C(=O)[O-] (nonaromatic ring conformer: 90.61914592647848 kcal/mol)

>  <smiles>  (95) 
NC(=O)c1cc2ccc(CCN3CCC(F)(F)CC3)cc2n1C(=O)O

>  <score_type>  (95) 
oracle

>  <origin>  (95) 
adg

>  <m_score__min__energy>  (95) 
-9.4900000000000002

>  <m_primary>  (95) 
energy

$$$$
95:0
     RDKit          3D

 39 40  0  0  0  0  0  0  0  0999 V2000
   -1.5062   22.6425  -30.4213 H   0  0  0  0  0  0  0  0  0  0  0  0
   -1.9370   23.0340  -29.4880 C   0  0  0  0  0  0  0  0  0  0  0  0
   -1.5190   24.3640  -29.0180 C   0  0  0  0  0  0  0  0  0  0  0  0
   -2.3440   25.3180  -28.9660 O   0  0  0  0  0  0  0  0  0  0  0  0
   -0.1920   24.5530  -28.6240 O   0  0  0  0  0  0  0  0  0  0  0  0
    0.2120   24.5370  -27.2600 C   0  0  0  0  0  0  0  0  0  0  0  0
   -0.6774   24.5722  -26.6137 H   0  0  0  0  0  0  0  0  0  0  0  0
    0.7774   23.6158  -27.0558 H   0  0  0  0  0  0  0  0  0  0  0  0
    0.8484   25.4106  -27.0558 H   0  0  0  0  0  0  0  0  0  0  0  0
   -2.8220   22.2830  -28.8220 C   0  0  0  0  0  0  0  0  0  0  0  0
   -3.2747   22.6719  -27.8980 H   0  0  0  0  0  0  0  0  0  0  0  0
   -3.2070   20.9190  -29.3150 C   0  0  0  0  0  0  0  0  0  0  0  0
   -2.4453   20.1918  -28.9973 H   0  0  0  0  0  0  0  0  0  0  0  0
   -4.1873   20.6537  -28.8924 H   0  0  0  0  0  0  0  0  0  0  0  0
   -3.3020   20.9060  -30.7370 O   0  0  0  0  0  0  0  0  0  0  0  0
   -3.9430   21.9100  -31.4730 C   0  0  0  0  0  0  0  0  0  0  0  0
   -3.3030   22.5750  -32.3340 O   0  0  0  0  0  0  0  0  0  0  0  0
   -5.3300   22.1920  -31.2380 N   0  0  0  0  0  0  0  0  0  0  0  0
   -5.8740   23.3600  -30.7940 C   0  0  0  0  0  0  0  0  0  0  0  0
   -5.1200   24.5330  -30.3070 C   0  0  0  0  0  0  0  0  0  0  0  0
   -4.5540   25.2920  -31.1370 O   0  0  0  0  0  0  0  0  0  0  0  0
   -5.0720   24.8570  -28.9170 N   0  0  0  0  0  0  0  0  0  0  0  0
   -4.4980   25.6650  -28.5870 H   0  0  0  0  0  0  0  0  0  0  0  0
   -5.6710   24.3570  -28.2240 H   0  0  0  0  0  0  0  0  0  0  0  0
   -7.2640   23.2890  -30.8020 C   0  0  0  0  0  0  0  0  0  0  0  0
   -7.9740   24.0766  -30.5095 H   0  0  0  0  0  0  0  0  0  0  0  0
   -7.5610   22.0230  -31.2540 C   0  0  0  0  0  0  0  0  0  0  0  0
   -8.7950   21.4130  -31.4610 C   0  0  0  0  0  0  0  0  0  0  0  0
   -9.7336   21.9414  -31.2378 H   0  0  0  0  0  0  0  0  0  0  0  0
   -8.8040   20.1010  -31.9640 C   0  0  0  0  0  0  0  0  0  0  0  0
   -9.7623   19.5847  -32.1224 H   0  0  0  0  0  0  0  0  0  0  0  0
   -7.5900   19.4370  -32.2690 C   0  0  0  0  0  0  0  0  0  0  0  0
   -7.6140   18.0280  -32.7810 C   0  0  0  0  0  0  0  0  0  0  0  0
   -7.6259   17.3293  -31.9315 H   0  0  0  0  0  0  0  0  0  0  0  0
   -8.5149   17.8758  -33.3936 H   0  0  0  0  0  0  0  0  0  0  0  0
   -6.7188   17.8452  -33.3936 H   0  0  0  0  0  0  0  0  0  0  0  0
   -6.3560   20.0820  -32.0320 C   0  0  0  0  0  0  0  0  0  0  0  0
   -5.4039   19.5763  -32.2505 H   0  0  0  0  0  0  0  0  0  0  0  0
   -6.3760   21.3810  -31.5120 C   0  0  0  0  0  0  0  0  0  0  0  0
  1  2  1  0
  2  3  1  0
  3  4  2  0
  3  5  1  0
  5  6  1  0
  6  7  1  0
  6  8  1  0
  6  9  1  0
  2 10  2  0
 10 11  1  0
 10 12  1  0
 12 13  1  0
 12 14  1  0
 12 15  1  0
 15 16  1  0
 16 17  2  0
 16 18  1  0
 18 19  1  0
 19 20  1  0
 20 21  2  0
 20 22  1  0
 22 23  1  0
 22 24  1  0
 19 25  2  0
 25 26  1  0
 25 27  1  0
 27 28  2  0
 28 29  1  0
 28 30  1  0
 30 31  1  0
 30 32  2  0
 32 33  1  0
 33 34  1  0
 33 35  1  0
 33 36  1  0
 32 37  1  0
 37 38  1  0
 37 39  2  0
 39 18  1  0
 39 27  1  0
M  END
>  <UniqueID>  (96) 
96

>  <SMILES>  (96) 
COC(=O)/C=C/COC(=O)n1c(C(N)=O)cc2ccc(C)cc21

>  <Energy>  (96) 
70.43971739126026

>  <Genealogy>  (96) 
COC(=O)/C=C/COC(=O)n1c(C(N)=O)cc2ccc(C)cc21 (cis-trans isomerization)
COC(=O)/C=C/COC(=O)n1c(C(N)=O)cc2ccc(C)cc21 (3D coordinates assigned)
COC(=O)/C=C/COC(=O)n1c(C(N)=O)cc2ccc(C)cc21 (optimized conformer: 70.43971739126026 kcal/mol)

>  <smiles>  (96) 
COC(=O)/C=C/COC(=O)n1c(C(N)=O)cc2ccc(C)cc21

>  <score_type>  (96) 
oracle

>  <origin>  (96) 
adg

>  <m_score__min__energy>  (96) 
-9.0999999999999996

>  <m_primary>  (96) 
energy

$$$$
96:0
     RDKit          3D

 52 54  0  0  0  0  0  0  0  0999 V2000
   -3.4410   19.5910  -33.6290 C   0  0  0  0  0  0  0  0  0  0  0  0
   -4.4990   18.5280  -33.8800 C   0  0  0  0  0  0  0  0  0  0  0  0
   -4.7660   17.8260  -32.6710 O   0  0  0  0  0  0  0  0  0  0  0  0
   -6.0440   17.7440  -32.1120 C   0  0  0  0  0  0  0  0  0  0  0  0
   -6.2200   17.1880  -30.9910 O   0  0  0  0  0  0  0  0  0  0  0  0
   -7.1970   18.3850  -32.8180 C   0  0  0  0  0  0  0  0  0  0  0  0
   -7.3560   19.8210  -32.3950 C   0  0  0  0  0  0  0  0  0  0  0  0
   -8.6370   20.4280  -32.3970 C   0  0  0  0  0  0  0  0  0  0  0  0
   -8.7970   21.7610  -31.9810 C   0  0  0  0  0  0  0  0  0  0  0  0
   -7.6670   22.4490  -31.5460 C   0  0  0  0  0  0  0  0  0  0  0  0
   -7.5240   23.7550  -31.1370 C   0  0  0  0  0  0  0  0  0  0  0  0
   -6.1690   23.9110  -30.8520 C   0  0  0  0  0  0  0  0  0  0  0  0
   -5.5700   25.2010  -30.4350 C   0  0  0  0  0  0  0  0  0  0  0  0
   -4.2370   25.5740  -30.7910 N   0  0  0  0  0  0  0  0  0  0  0  0
   -6.2470   25.9840  -29.7160 O   0  0  0  0  0  0  0  0  0  0  0  0
   -5.5040   22.7390  -31.0610 N   0  0  0  0  0  0  0  0  0  0  0  0
   -4.0910   22.5040  -30.9950 C   0  0  0  0  0  0  0  0  0  0  0  0
   -3.3200   23.1210  -31.7780 O   0  0  0  0  0  0  0  0  0  0  0  0
   -3.5320   21.5890  -30.0420 N   0  0  0  0  0  0  0  0  0  0  0  0
   -2.1410   21.5880  -29.5870 C   0  0  0  0  0  0  0  0  0  0  0  0
   -1.9910   22.2830  -28.2120 C   0  0  0  0  0  0  0  0  0  0  0  0
   -3.2710   23.0480  -27.7960 C   0  0  0  0  0  0  0  0  0  0  0  0
   -3.2300   24.5270  -28.2190 C   0  0  0  0  0  0  0  0  0  0  0  0
   -2.4100   24.7050  -29.3560 O   0  0  0  0  0  0  0  0  0  0  0  0
   -1.0450   24.5230  -29.0110 C   0  0  0  0  0  0  0  0  0  0  0  0
   -0.7810   23.2350  -28.1990 C   0  0  0  0  0  0  0  0  0  0  0  0
   -6.4300   21.8630  -31.5050 C   0  0  0  0  0  0  0  0  0  0  0  0
   -6.2350   20.5510  -31.9450 C   0  0  0  0  0  0  0  0  0  0  0  0
   -3.3067   19.7260  -32.5456 H   0  0  0  0  0  0  0  0  0  0  0  0
   -2.4889   19.2744  -34.0799 H   0  0  0  0  0  0  0  0  0  0  0  0
   -3.7621   20.5416  -34.0799 H   0  0  0  0  0  0  0  0  0  0  0  0
   -5.4225   19.0075  -34.2366 H   0  0  0  0  0  0  0  0  0  0  0  0
   -4.1342   17.8214  -34.6400 H   0  0  0  0  0  0  0  0  0  0  0  0
   -7.0209   18.3468  -33.9031 H   0  0  0  0  0  0  0  0  0  0  0  0
   -8.1156   17.8386  -32.5578 H   0  0  0  0  0  0  0  0  0  0  0  0
   -9.5134   19.8508  -32.7270 H   0  0  0  0  0  0  0  0  0  0  0  0
   -9.7842   22.2458  -31.9985 H   0  0  0  0  0  0  0  0  0  0  0  0
   -8.3136   24.5162  -31.0527 H   0  0  0  0  0  0  0  0  0  0  0  0
   -3.8670   26.5100  -30.5130 H   0  0  0  0  0  0  0  0  0  0  0  0
   -3.5720   24.9030  -31.2310 H   0  0  0  0  0  0  0  0  0  0  0  0
   -1.7943   20.5476  -29.5009 H   0  0  0  0  0  0  0  0  0  0  0  0
   -1.5384   22.1433  -30.3209 H   0  0  0  0  0  0  0  0  0  0  0  0
   -1.8249   21.4832  -27.4753 H   0  0  0  0  0  0  0  0  0  0  0  0
   -4.1399   22.5683  -28.2703 H   0  0  0  0  0  0  0  0  0  0  0  0
   -3.3426   23.0133  -26.6989 H   0  0  0  0  0  0  0  0  0  0  0  0
   -4.2507   24.8622  -28.4553 H   0  0  0  0  0  0  0  0  0  0  0  0
   -2.8133   25.1177  -27.3899 H   0  0  0  0  0  0  0  0  0  0  0  0
   -0.4547   24.4773  -29.9380 H   0  0  0  0  0  0  0  0  0  0  0  0
   -0.7562   25.3720  -28.3740 H   0  0  0  0  0  0  0  0  0  0  0  0
    0.0850   22.7136  -28.6328 H   0  0  0  0  0  0  0  0  0  0  0  0
   -0.5905   23.5259  -27.1554 H   0  0  0  0  0  0  0  0  0  0  0  0
   -5.2325   20.0983  -31.9407 H   0  0  0  0  0  0  0  0  0  0  0  0
  1  2  1  0
  2  3  1  0
  3  4  1  0
  4  5  2  0
  4  6  1  0
  6  7  1  0
  7  8  2  0
  8  9  1  0
  9 10  2  0
 10 11  1  0
 11 12  2  0
 12 13  1  0
 13 14  1  0
 13 15  2  0
 12 16  1  0
 16 17  1  0
 17 18  2  0
 17 19  1  0
 19 20  1  0
 20 21  1  0
 21 22  1  0
 22 23  1  0
 23 24  1  0
 24 25  1  0
 25 26  1  0
 16 27  1  0
 27 28  2  0
 28  7  1  0
 27 10  1  0
 26 21  1  0
  1 29  1  0
  1 30  1  0
  1 31  1  0
  2 32  1  0
  2 33  1  0
  6 34  1  0
  6 35  1  0
  8 36  1  0
  9 37  1  0
 11 38  1  0
 14 39  1  0
 14 40  1  0
 20 41  1  0
 20 42  1  0
 21 43  1  0
 22 44  1  0
 22 45  1  0
 23 46  1  0
 23 47  1  0
 25 48  1  0
 25 49  1  0
 26 50  1  0
 26 51  1  0
 28 52  1  0
M  CHG  1  19  -1
M  END
>  <UniqueID>  (97) 
97

>  <SMILES>  (97) 
CCOC(=O)Cc1ccc2cc(C(N)=O)n(C(=O)[N-]CC3CCOCC3)c2c1

>  <Energy>  (97) 
91.0757151993436

>  <Genealogy>  (97) 
CCOC(=O)Cc1ccc2cc(C(N)=O)n(C(=O)[N-]CC3CCOCC3)c2c1 (protonated)
CCOC(=O)Cc1ccc2cc(C(N)=O)n(C(=O)[N-]CC3CCOCC3)c2c1 (3D coordinates assigned)
CCOC(=O)Cc1ccc2cc(C(N)=O)n(C(=O)[N-]CC3CCOCC3)c2c1 (nonaromatic ring conformer: 91.0757151993436 kcal/mol)

>  <smiles>  (97) 
CCOC(=O)Cc1ccc2cc(C(N)=O)n(C(=O)NCC3CCOCC3)c2c1

>  <score_type>  (97) 
oracle

>  <origin>  (97) 
adg

>  <m_score__min__energy>  (97) 
-9.9399999999999995

>  <m_primary>  (97) 
energy

$$$$
98:0
     RDKit          3D

 32 34  0  0  0  0  0  0  0  0999 V2000
   -6.4520   17.0460  -34.4660 C   0  0  0  0  0  0  0  0  0  0  0  0
   -5.9710   18.2950  -33.8900 N   0  0  0  0  0  0  0  0  0  0  0  0
   -4.8210   18.4620  -33.2110 C   0  0  0  0  0  0  0  0  0  0  0  0
   -4.6870   19.8090  -32.9040 C   0  0  0  0  0  0  0  0  0  0  0  0
   -3.5780   20.4650  -32.1660 C   0  0  0  0  0  0  0  0  0  0  0  0
   -2.3080   19.8360  -32.0690 C   0  0  0  0  0  0  0  0  0  0  0  0
   -1.2540   20.4420  -31.3650 C   0  0  0  0  0  0  0  0  0  0  0  0
   -1.4890   21.6770  -30.7750 C   0  0  0  0  0  0  0  0  0  0  0  0
   -0.6570   22.4680  -30.0160 C   0  0  0  0  0  0  0  0  0  0  0  0
   -1.4170   23.5850  -29.6760 C   0  0  0  0  0  0  0  0  0  0  0  0
   -0.8750   24.7390  -28.9300 C   0  0  0  0  0  0  0  0  0  0  0  0
   -1.5480   25.9950  -28.9300 N   0  0  0  0  0  0  0  0  0  0  0  0
    0.2250   24.6300  -28.3250 O   0  0  0  0  0  0  0  0  0  0  0  0
   -2.6730   23.4860  -30.1980 N   0  0  0  0  0  0  0  0  0  0  0  0
   -3.7790   24.3800  -29.9970 C   0  0  0  0  0  0  0  0  0  0  0  0
   -4.6720   24.1080  -29.1510 O   0  0  0  0  0  0  0  0  0  0  0  0
   -3.8620   25.5670  -30.7160 O   0  0  0  0  0  0  0  0  0  0  0  0
   -2.7000   22.3130  -30.8690 C   0  0  0  0  0  0  0  0  0  0  0  0
   -3.7730   21.7240  -31.5490 C   0  0  0  0  0  0  0  0  0  0  0  0
   -5.8110   20.4120  -33.4550 C   0  0  0  0  0  0  0  0  0  0  0  0
   -6.5610   19.4670  -34.0500 N   0  0  0  0  0  0  0  0  0  0  0  0
   -6.7204   16.3491  -33.6583 H   0  0  0  0  0  0  0  0  0  0  0  0
   -7.3375   17.2458  -35.0873 H   0  0  0  0  0  0  0  0  0  0  0  0
   -5.6612   16.6002  -35.0873 H   0  0  0  0  0  0  0  0  0  0  0  0
   -4.1090   17.6669  -32.9448 H   0  0  0  0  0  0  0  0  0  0  0  0
   -2.1476   18.8608  -32.5519 H   0  0  0  0  0  0  0  0  0  0  0  0
   -0.2721   19.9529  -31.2836 H   0  0  0  0  0  0  0  0  0  0  0  0
    0.3869   22.2620  -29.7369 H   0  0  0  0  0  0  0  0  0  0  0  0
   -2.5900   26.0460  -28.9700 H   0  0  0  0  0  0  0  0  0  0  0  0
   -4.7484   22.2297  -31.6027 H   0  0  0  0  0  0  0  0  0  0  0  0
   -6.0484   21.4852  -33.4118 H   0  0  0  0  0  0  0  0  0  0  0  0
   -7.4550   19.6240  -34.5670 H   0  0  0  0  0  0  0  0  0  0  0  0
  1  2  1  0
  2  3  1  0
  3  4  2  0
  4  5  1  0
  5  6  2  0
  6  7  1  0
  7  8  2  0
  8  9  1  0
  9 10  2  0
 10 11  1  0
 11 12  1  0
 11 13  2  0
 10 14  1  0
 14 15  1  0
 15 16  2  0
 15 17  1  0
 14 18  1  0
 18 19  2  0
  4 20  1  0
 20 21  2  0
 21  2  1  0
 19  5  1  0
 18  8  1  0
  1 22  1  0
  1 23  1  0
  1 24  1  0
  3 25  1  0
  6 26  1  0
  7 27  1  0
  9 28  1  0
 12 29  1  0
 19 30  1  0
 20 31  1  0
 21 32  1  0
M  CHG  3  12  -1  17  -1  21   1
M  END
>  <UniqueID>  (98) 
98

>  <SMILES>  (98) 
Cn1cc(-c2ccc3cc(C([NH-])=O)n(C(=O)[O-])c3c2)c[nH+]1

>  <Energy>  (98) 
106.04973888450314

>  <Genealogy>  (98) 
Cn1cc(-c2ccc3cc(C([NH-])=O)n(C(=O)[O-])c3c2)c[nH+]1 (protonated)
Cn1cc(-c2ccc3cc(C([NH-])=O)n(C(=O)[O-])c3c2)c[nH+]1 (3D coordinates assigned)
Cn1cc(-c2ccc3cc(C([NH-])=O)n(C(=O)[O-])c3c2)c[nH+]1 (optimized conformer: 106.04973888450314 kcal/mol)

>  <smiles>  (98) 
Cn1cc(-c2ccc3cc(C(N)=O)n(C(=O)O)c3c2)cn1

>  <score_type>  (98) 
oracle

>  <origin>  (98) 
adg

>  <m_score__min__energy>  (98) 
-11.06

>  <m_primary>  (98) 
energy

$$$$
99:0
     RDKit          3D

 39 40  0  0  0  0  0  0  0  0999 V2000
   -1.4130   25.7380  -28.2750 C   0  0  0  0  0  0  0  0  0  0  0  0
   -2.0970   25.1510  -29.3600 O   0  0  0  0  0  0  0  0  0  0  0  0
   -2.0180   23.7380  -29.2940 C   0  0  0  0  0  0  0  0  0  0  0  0
   -2.9680   23.1710  -28.2280 C   0  0  0  0  0  0  0  0  0  0  0  0
   -3.6300   21.8610  -28.6610 C   0  0  0  0  0  0  0  0  0  0  0  0
   -3.4670   21.6770  -30.0630 O   0  0  0  0  0  0  0  0  0  0  0  0
   -3.9970   22.5470  -31.0190 C   0  0  0  0  0  0  0  0  0  0  0  0
   -3.2300   23.1540  -31.8150 O   0  0  0  0  0  0  0  0  0  0  0  0
   -5.4210   22.7410  -31.0970 N   0  0  0  0  0  0  0  0  0  0  0  0
   -6.1190   23.8840  -30.8390 C   0  0  0  0  0  0  0  0  0  0  0  0
   -5.5620   25.1300  -30.2780 C   0  0  0  0  0  0  0  0  0  0  0  0
   -4.2320   25.5500  -30.5870 N   0  0  0  0  0  0  0  0  0  0  0  0
   -6.2490   25.8040  -29.4650 O   0  0  0  0  0  0  0  0  0  0  0  0
   -7.4710   23.7070  -31.1100 C   0  0  0  0  0  0  0  0  0  0  0  0
   -7.5910   22.4030  -31.5270 C   0  0  0  0  0  0  0  0  0  0  0  0
   -8.7220   21.6910  -31.9180 C   0  0  0  0  0  0  0  0  0  0  0  0
   -8.5540   20.3540  -32.3160 C   0  0  0  0  0  0  0  0  0  0  0  0
   -7.2680   19.7620  -32.3310 C   0  0  0  0  0  0  0  0  0  0  0  0
   -7.1110   18.3310  -32.7600 C   0  0  0  0  0  0  0  0  0  0  0  0
   -6.1960   18.2530  -33.7940 F   0  0  0  0  0  0  0  0  0  0  0  0
   -6.6640   17.5690  -31.6960 F   0  0  0  0  0  0  0  0  0  0  0  0
   -6.1420   20.5160  -31.9330 C   0  0  0  0  0  0  0  0  0  0  0  0
   -6.3400   21.8390  -31.5140 C   0  0  0  0  0  0  0  0  0  0  0  0
   -1.8406   25.3711  -27.3303 H   0  0  0  0  0  0  0  0  0  0  0  0
   -0.3476   25.4688  -28.3243 H   0  0  0  0  0  0  0  0  0  0  0  0
   -1.5174   26.8319  -28.3243 H   0  0  0  0  0  0  0  0  0  0  0  0
   -2.2891   23.3185  -30.2741 H   0  0  0  0  0  0  0  0  0  0  0  0
   -0.9887   23.4619  -29.0215 H   0  0  0  0  0  0  0  0  0  0  0  0
   -2.3943   22.9875  -27.3076 H   0  0  0  0  0  0  0  0  0  0  0  0
   -3.7674   23.9099  -28.0697 H   0  0  0  0  0  0  0  0  0  0  0  0
   -3.1621   21.0215  -28.1260 H   0  0  0  0  0  0  0  0  0  0  0  0
   -4.7032   21.9012  -28.4230 H   0  0  0  0  0  0  0  0  0  0  0  0
   -3.5840   24.9330  -31.1240 H   0  0  0  0  0  0  0  0  0  0  0  0
   -3.8660   26.4530  -30.2100 H   0  0  0  0  0  0  0  0  0  0  0  0
   -8.2740   24.4523  -31.0116 H   0  0  0  0  0  0  0  0  0  0  0  0
   -9.7166   22.1609  -31.9154 H   0  0  0  0  0  0  0  0  0  0  0  0
   -9.4300   19.7616  -32.6188 H   0  0  0  0  0  0  0  0  0  0  0  0
   -8.0849   17.9491  -33.0999 H   0  0  0  0  0  0  0  0  0  0  0  0
   -5.1341   20.0758  -31.9514 H   0  0  0  0  0  0  0  0  0  0  0  0
  1  2  1  0
  2  3  1  0
  3  4  1  0
  4  5  1  0
  5  6  1  0
  6  7  1  0
  7  8  2  0
  7  9  1  0
  9 10  1  0
 10 11  1  0
 11 12  1  0
 11 13  2  0
 10 14  2  0
 14 15  1  0
 15 16  2  0
 16 17  1  0
 17 18  2  0
 18 19  1  0
 19 20  1  0
 19 21  1  0
 18 22  1  0
 22 23  2  0
 23  9  1  0
 23 15  1  0
  1 24  1  0
  1 25  1  0
  1 26  1  0
  3 27  1  0
  3 28  1  0
  4 29  1  0
  4 30  1  0
  5 31  1  0
  5 32  1  0
 12 33  1  0
 12 34  1  0
 14 35  1  0
 16 36  1  0
 17 37  1  0
 19 38  1  0
 22 39  1  0
M  END
>  <UniqueID>  (99) 
99

>  <SMILES>  (99) 
COCCCOC(=O)n1c(C(N)=O)cc2ccc(C(F)F)cc21

>  <Energy>  (99) 
72.871935230115

>  <Genealogy>  (99) 
COCCCOC(=O)n1c(C(N)=O)cc2ccc(C(F)F)cc21 (3D coordinates assigned)
COCCCOC(=O)n1c(C(N)=O)cc2ccc(C(F)F)cc21 (optimized conformer: 72.871935230115 kcal/mol)

>  <smiles>  (99) 
COCCCOC(=O)n1c(C(N)=O)cc2ccc(C(F)F)cc21

>  <score_type>  (99) 
oracle

>  <origin>  (99) 
adg

>  <m_score__min__energy>  (99) 
-7.8099999999999996

>  <m_primary>  (99) 
energy

$$$$
