0:0
     RDKit          3D

 40 42  0  0  0  0  0  0  0  0999 V2000
   -3.2400   22.7900  -28.7540 C   0  0  0  0  0  0  0  0  0  0  0  0
   -2.9810   23.1530  -30.1050 O   0  0  0  0  0  0  0  0  0  0  0  0
   -3.6810   22.6020  -31.1820 C   0  0  0  0  0  0  0  0  0  0  0  0
   -3.0540   22.0760  -32.1430 O   0  0  0  0  0  0  0  0  0  0  0  0
   -5.1170   22.6400  -31.1940 N   0  0  0  0  0  0  0  0  0  0  0  0
   -5.9140   23.7220  -30.9650 C   0  0  0  0  0  0  0  0  0  0  0  0
   -5.4640   25.0390  -30.4690 C   0  0  0  0  0  0  0  0  0  0  0  0
   -4.1550   25.5310  -30.7570 N   0  0  0  0  0  0  0  0  0  0  0  0
   -6.2270   25.7130  -29.7270 O   0  0  0  0  0  0  0  0  0  0  0  0
   -7.2480   23.4090  -31.2030 C   0  0  0  0  0  0  0  0  0  0  0  0
   -7.2510   22.0850  -31.5740 C   0  0  0  0  0  0  0  0  0  0  0  0
   -8.3110   21.2600  -31.9340 C   0  0  0  0  0  0  0  0  0  0  0  0
   -8.0210   19.9360  -32.3020 C   0  0  0  0  0  0  0  0  0  0  0  0
   -6.6840   19.4580  -32.3130 C   0  0  0  0  0  0  0  0  0  0  0  0
   -6.3990   18.0940  -32.6940 N   0  0  0  0  0  0  0  0  0  0  0  0
   -6.0770   17.0830  -31.6780 C   0  0  0  0  0  0  0  0  0  0  0  0
   -5.2210   15.9690  -32.2940 C   0  0  0  0  0  0  0  0  0  0  0  0
   -5.8500   15.3360  -33.4700 N   0  0  0  0  0  0  0  0  0  0  0  0
   -6.7940   16.1970  -34.2100 C   0  0  0  0  0  0  0  0  0  0  0  0
   -6.4480   17.6870  -34.1040 C   0  0  0  0  0  0  0  0  0  0  0  0
   -5.6330   20.3330  -31.9450 C   0  0  0  0  0  0  0  0  0  0  0  0
   -5.9530   21.6420  -31.5640 C   0  0  0  0  0  0  0  0  0  0  0  0
   -2.7347   23.4981  -28.0807 H   0  0  0  0  0  0  0  0  0  0  0  0
   -4.3239   22.8173  -28.5683 H   0  0  0  0  0  0  0  0  0  0  0  0
   -2.8616   21.7739  -28.5683 H   0  0  0  0  0  0  0  0  0  0  0  0
   -3.8660   26.4760  -30.4220 H   0  0  0  0  0  0  0  0  0  0  0  0
   -3.4410   24.9290  -31.2240 H   0  0  0  0  0  0  0  0  0  0  0  0
   -8.1163   24.0784  -31.1135 H   0  0  0  0  0  0  0  0  0  0  0  0
   -9.3457   21.6333  -31.9306 H   0  0  0  0  0  0  0  0  0  0  0  0
   -8.8410   19.2599  -32.5856 H   0  0  0  0  0  0  0  0  0  0  0  0
   -5.5201   17.5575  -30.8566 H   0  0  0  0  0  0  0  0  0  0  0  0
   -7.0118   16.6479  -31.2948 H   0  0  0  0  0  0  0  0  0  0  0  0
   -4.2566   16.3989  -32.6022 H   0  0  0  0  0  0  0  0  0  0  0  0
   -5.0993   15.1886  -31.5284 H   0  0  0  0  0  0  0  0  0  0  0  0
   -6.3690   14.4830  -33.1550 H   0  0  0  0  0  0  0  0  0  0  0  0
   -6.7766   15.9068  -35.2709 H   0  0  0  0  0  0  0  0  0  0  0  0
   -7.7898   16.0559  -33.7644 H   0  0  0  0  0  0  0  0  0  0  0  0
   -5.4675   17.8669  -34.5690 H   0  0  0  0  0  0  0  0  0  0  0  0
   -7.2208   18.2740  -34.6218 H   0  0  0  0  0  0  0  0  0  0  0  0
   -4.5874   19.9916  -31.9582 H   0  0  0  0  0  0  0  0  0  0  0  0
  1  2  1  0
  2  3  1  0
  3  4  2  0
  3  5  1  0
  5  6  1  0
  6  7  1  0
  7  8  1  0
  7  9  2  0
  6 10  2  0
 10 11  1  0
 11 12  2  0
 12 13  1  0
 13 14  2  0
 14 15  1  0
 15 16  1  0
 16 17  1  0
 17 18  1  0
 18 19  1  0
 19 20  1  0
 14 21  1  0
 21 22  2  0
 22  5  1  0
 22 11  1  0
 20 15  1  0
  1 23  1  0
  1 24  1  0
  1 25  1  0
  8 26  1  0
  8 27  1  0
 10 28  1  0
 12 29  1  0
 13 30  1  0
 16 31  1  0
 16 32  1  0
 17 33  1  0
 17 34  1  0
 18 35  1  0
 19 36  1  0
 19 37  1  0
 20 38  1  0
 20 39  1  0
 21 40  1  0
M  END
>  <UniqueID>  (1) 
1

>  <SMILES>  (1) 
COC(=O)n1c(C(N)=O)cc2ccc(N3CCNCC3)cc21

>  <Energy>  (1) 
86.1529536855592

>  <Genealogy>  (1) 
COC(=O)n1c(C(N)=O)cc2ccc(N3CCNCC3)cc21 (3D coordinates assigned)
COC(=O)n1c(C(N)=O)cc2ccc(N3CCNCC3)cc21 (nonaromatic ring conformer: 86.1529536855592 kcal/mol)

>  <smiles>  (1) 
COC(=O)n1c(C(N)=O)cc2ccc(N3CCNCC3)cc21

>  <score_type>  (1) 
oracle

>  <origin>  (1) 
adg

>  <m_score__min__energy>  (1) 
-8.0099999999999998

>  <m_primary>  (1) 
energy

$$$$
1:0
     RDKit          3D

 47 48  0  0  0  0  0  0  0  0999 V2000
   -3.1060   20.6940  -32.9890 C   0  0  0  0  0  0  0  0  0  0  0  0
   -2.8240   20.2780  -31.5500 C   0  0  0  0  0  0  0  0  0  0  0  0
   -3.5410   21.1430  -30.6200 N   0  0  0  0  0  0  0  0  0  0  0  0
   -4.0450   22.4380  -30.9680 C   0  0  0  0  0  0  0  0  0  0  0  0
   -3.2450   23.3760  -31.2340 O   0  0  0  0  0  0  0  0  0  0  0  0
   -5.4650   22.6710  -30.9970 N   0  0  0  0  0  0  0  0  0  0  0  0
   -6.1220   23.8360  -30.7260 C   0  0  0  0  0  0  0  0  0  0  0  0
   -5.5130   25.0690  -30.1870 C   0  0  0  0  0  0  0  0  0  0  0  0
   -4.2470   25.5370  -30.6590 N   0  0  0  0  0  0  0  0  0  0  0  0
   -6.0960   25.6940  -29.2610 O   0  0  0  0  0  0  0  0  0  0  0  0
   -7.4810   23.7130  -31.0080 C   0  0  0  0  0  0  0  0  0  0  0  0
   -7.6430   22.4220  -31.4560 C   0  0  0  0  0  0  0  0  0  0  0  0
   -8.7850   21.7740  -31.9160 C   0  0  0  0  0  0  0  0  0  0  0  0
   -8.6500   20.4560  -32.3890 C   0  0  0  0  0  0  0  0  0  0  0  0
   -7.3840   19.8180  -32.3970 C   0  0  0  0  0  0  0  0  0  0  0  0
   -7.2370   18.4300  -32.9580 C   0  0  0  0  0  0  0  0  0  0  0  0
   -6.0790   18.3640  -33.9040 C   0  0  0  0  0  0  0  0  0  0  0  0
   -6.0960   19.0530  -34.9590 O   0  0  0  0  0  0  0  0  0  0  0  0
   -4.9970   17.5200  -33.6000 O   0  0  0  0  0  0  0  0  0  0  0  0
   -4.9780   16.0870  -33.7050 C   0  0  0  0  0  0  0  0  0  0  0  0
   -4.7200   15.4510  -32.3240 C   0  0  0  0  0  0  0  0  0  0  0  0
   -3.9180   15.6240  -34.7260 C   0  0  0  0  0  0  0  0  0  0  0  0
   -6.3660   15.6470  -34.2030 C   0  0  0  0  0  0  0  0  0  0  0  0
   -6.2470   20.5080  -31.9210 C   0  0  0  0  0  0  0  0  0  0  0  0
   -6.4120   21.8140  -31.4420 C   0  0  0  0  0  0  0  0  0  0  0  0
   -3.7232   21.6045  -32.9932 H   0  0  0  0  0  0  0  0  0  0  0  0
   -2.1557   20.8928  -33.5061 H   0  0  0  0  0  0  0  0  0  0  0  0
   -3.6426   19.8849  -33.5061 H   0  0  0  0  0  0  0  0  0  0  0  0
   -3.1508   19.2380  -31.4029 H   0  0  0  0  0  0  0  0  0  0  0  0
   -1.7444   20.3661  -31.3586 H   0  0  0  0  0  0  0  0  0  0  0  0
   -3.8640   26.4440  -30.3120 H   0  0  0  0  0  0  0  0  0  0  0  0
   -3.6390   24.9400  -31.2620 H   0  0  0  0  0  0  0  0  0  0  0  0
   -8.2583   24.4833  -30.8964 H   0  0  0  0  0  0  0  0  0  0  0  0
   -9.7634   22.2768  -31.9100 H   0  0  0  0  0  0  0  0  0  0  0  0
   -9.5349   19.9155  -32.7560 H   0  0  0  0  0  0  0  0  0  0  0  0
   -7.0703   17.7223  -32.1326 H   0  0  0  0  0  0  0  0  0  0  0  0
   -8.1558   18.1688  -33.5035 H   0  0  0  0  0  0  0  0  0  0  0  0
   -5.0078   16.1604  -31.5341 H   0  0  0  0  0  0  0  0  0  0  0  0
   -5.3164   14.5319  -32.2264 H   0  0  0  0  0  0  0  0  0  0  0  0
   -3.6518   15.2071  -32.2264 H   0  0  0  0  0  0  0  0  0  0  0  0
   -3.0372   15.2393  -34.1911 H   0  0  0  0  0  0  0  0  0  0  0  0
   -4.3401   14.8283  -35.3574 H   0  0  0  0  0  0  0  0  0  0  0  0
   -3.6210   16.4744  -35.3574 H   0  0  0  0  0  0  0  0  0  0  0  0
   -7.0166   15.4407  -33.3404 H   0  0  0  0  0  0  0  0  0  0  0  0
   -6.8082   16.4490  -34.8123 H   0  0  0  0  0  0  0  0  0  0  0  0
   -6.2654   14.7367  -34.8123 H   0  0  0  0  0  0  0  0  0  0  0  0
   -5.2557   20.0312  -31.9263 H   0  0  0  0  0  0  0  0  0  0  0  0
  1  2  1  0
  2  3  1  0
  3  4  1  0
  4  5  2  0
  4  6  1  0
  6  7  1  0
  7  8  1  0
  8  9  1  0
  8 10  2  0
  7 11  2  0
 11 12  1  0
 12 13  2  0
 13 14  1  0
 14 15  2  0
 15 16  1  0
 16 17  1  0
 17 18  2  0
 17 19  1  0
 19 20  1  0
 20 21  1  0
 20 22  1  0
 20 23  1  0
 15 24  1  0
 24 25  2  0
 25  6  1  0
 25 12  1  0
  1 26  1  0
  1 27  1  0
  1 28  1  0
  2 29  1  0
  2 30  1  0
  9 31  1  0
  9 32  1  0
 11 33  1  0
 13 34  1  0
 14 35  1  0
 16 36  1  0
 16 37  1  0
 21 38  1  0
 21 39  1  0
 21 40  1  0
 22 41  1  0
 22 42  1  0
 22 43  1  0
 23 44  1  0
 23 45  1  0
 23 46  1  0
 24 47  1  0
M  CHG  1   3  -1
M  END
>  <UniqueID>  (2) 
2

>  <SMILES>  (2) 
CC[N-]C(=O)n1c(C(N)=O)cc2ccc(CC(=O)OC(C)(C)C)cc21

>  <Energy>  (2) 
75.47373430954045

>  <Genealogy>  (2) 
CC[N-]C(=O)n1c(C(N)=O)cc2ccc(CC(=O)OC(C)(C)C)cc21 (protonated)
CC[N-]C(=O)n1c(C(N)=O)cc2ccc(CC(=O)OC(C)(C)C)cc21 (3D coordinates assigned)
CC[N-]C(=O)n1c(C(N)=O)cc2ccc(CC(=O)OC(C)(C)C)cc21 (optimized conformer: 75.47373430954045 kcal/mol)

>  <smiles>  (2) 
CCNC(=O)n1c(C(N)=O)cc2ccc(CC(=O)OC(C)(C)C)cc21

>  <score_type>  (2) 
oracle

>  <origin>  (2) 
adg

>  <m_score__min__energy>  (2) 
-8.8399999999999999

>  <m_primary>  (2) 
energy

$$$$
2:0
     RDKit          3D

 34 35  0  0  0  0  0  0  0  0999 V2000
   -9.3180   22.1420  -31.9530 C   0  0  0  0  0  0  0  0  0  0  0  0
   -8.2370   23.0560  -31.8150 O   0  0  0  0  0  0  0  0  0  0  0  0
   -7.2450   22.9110  -30.8390 C   0  0  0  0  0  0  0  0  0  0  0  0
   -7.5220   23.0990  -29.6230 O   0  0  0  0  0  0  0  0  0  0  0  0
   -5.9100   22.5480  -31.2230 N   0  0  0  0  0  0  0  0  0  0  0  0
   -4.7700   23.2780  -31.0610 C   0  0  0  0  0  0  0  0  0  0  0  0
   -4.6540   24.5420  -30.3060 C   0  0  0  0  0  0  0  0  0  0  0  0
   -5.3330   24.7280  -29.0640 N   0  0  0  0  0  0  0  0  0  0  0  0
   -3.8980   25.4530  -30.7390 O   0  0  0  0  0  0  0  0  0  0  0  0
   -3.6880   22.6450  -31.6660 C   0  0  0  0  0  0  0  0  0  0  0  0
   -4.1990   21.4840  -32.1990 C   0  0  0  0  0  0  0  0  0  0  0  0
   -3.5630   20.4750  -32.9170 C   0  0  0  0  0  0  0  0  0  0  0  0
   -4.3440   19.4010  -33.3750 C   0  0  0  0  0  0  0  0  0  0  0  0
   -5.7380   19.3640  -33.1260 C   0  0  0  0  0  0  0  0  0  0  0  0
   -6.5590   18.1940  -33.6060 C   0  0  0  0  0  0  0  0  0  0  0  0
   -7.2330   17.4610  -32.4410 C   0  0  0  0  0  0  0  0  0  0  0  0
   -8.4590   18.1870  -31.9700 C   0  0  0  0  0  0  0  0  0  0  0  0
   -9.0620   18.9370  -32.7230 O   0  0  0  0  0  0  0  0  0  0  0  0
   -6.3480   20.4030  -32.3890 C   0  0  0  0  0  0  0  0  0  0  0  0
   -5.5430   21.4490  -31.9210 C   0  0  0  0  0  0  0  0  0  0  0  0
   -9.6735   21.8414  -30.9564 H   0  0  0  0  0  0  0  0  0  0  0  0
  -10.1382   22.6247  -32.5047 H   0  0  0  0  0  0  0  0  0  0  0  0
   -8.9784   21.2530  -32.5047 H   0  0  0  0  0  0  0  0  0  0  0  0
   -5.8250   23.9360  -28.5950 H   0  0  0  0  0  0  0  0  0  0  0  0
   -5.2710   25.6430  -28.5650 H   0  0  0  0  0  0  0  0  0  0  0  0
   -2.6469   22.9976  -31.7088 H   0  0  0  0  0  0  0  0  0  0  0  0
   -2.4826   20.5175  -33.1194 H   0  0  0  0  0  0  0  0  0  0  0  0
   -3.8684   18.5806  -33.9325 H   0  0  0  0  0  0  0  0  0  0  0  0
   -7.3352   18.5609  -34.2936 H   0  0  0  0  0  0  0  0  0  0  0  0
   -5.8862   17.4872  -34.1136 H   0  0  0  0  0  0  0  0  0  0  0  0
   -7.5201   16.4520  -32.7718 H   0  0  0  0  0  0  0  0  0  0  0  0
   -6.5192   17.4109  -31.6055 H   0  0  0  0  0  0  0  0  0  0  0  0
   -8.8172   18.0430  -30.9400 H   0  0  0  0  0  0  0  0  0  0  0  0
   -7.4293   20.3909  -32.1875 H   0  0  0  0  0  0  0  0  0  0  0  0
  1  2  1  0
  2  3  1  0
  3  4  2  0
  3  5  1  0
  5  6  1  0
  6  7  1  0
  7  8  1  0
  7  9  2  0
  6 10  2  0
 10 11  1  0
 11 12  2  0
 12 13  1  0
 13 14  2  0
 14 15  1  0
 15 16  1  0
 16 17  1  0
 17 18  2  0
 14 19  1  0
 19 20  2  0
 20  5  1  0
 20 11  1  0
  1 21  1  0
  1 22  1  0
  1 23  1  0
  8 24  1  0
  8 25  1  0
 10 26  1  0
 12 27  1  0
 13 28  1  0
 15 29  1  0
 15 30  1  0
 16 31  1  0
 16 32  1  0
 17 33  1  0
 19 34  1  0
M  END
>  <UniqueID>  (3) 
3

>  <SMILES>  (3) 
COC(=O)n1c(C(N)=O)cc2ccc(CCC=O)cc21

>  <Energy>  (3) 
68.07401244902898

>  <Genealogy>  (3) 
COC(=O)n1c(C(N)=O)cc2ccc(CCC=O)cc21 (3D coordinates assigned)
COC(=O)n1c(C(N)=O)cc2ccc(CCC=O)cc21 (optimized conformer: 68.07401244902898 kcal/mol)

>  <smiles>  (3) 
COC(=O)n1c(C(N)=O)cc2ccc(CCC=O)cc21

>  <score_type>  (3) 
oracle

>  <origin>  (3) 
adg

>  <m_score__min__energy>  (3) 
-8.0500000000000007

>  <m_primary>  (3) 
energy

$$$$
3:0
     RDKit          3D

 41 43  0  0  0  0  0  0  0  0999 V2000
   -6.1030   17.1570  -30.4520 C   0  0  0  0  0  0  0  0  0  0  0  0
   -5.8780   16.9970  -31.9250 C   0  0  0  0  0  0  0  0  0  0  0  0
   -5.5610   15.7800  -32.4440 N   0  0  0  0  0  0  0  0  0  0  0  0
   -5.4030   16.0300  -34.0780 S   0  0  0  0  0  0  0  0  0  0  0  0
   -5.7110   17.6630  -34.1680 C   0  0  0  0  0  0  0  0  0  0  0  0
   -5.7340   18.4870  -35.4150 C   0  0  0  0  0  0  0  0  0  0  0  0
   -5.9690   18.0670  -32.8580 C   0  0  0  0  0  0  0  0  0  0  0  0
   -6.2950   19.4610  -32.4900 C   0  0  0  0  0  0  0  0  0  0  0  0
   -7.5950   19.9740  -32.7240 C   0  0  0  0  0  0  0  0  0  0  0  0
   -7.9100   21.3040  -32.3950 C   0  0  0  0  0  0  0  0  0  0  0  0
   -6.9070   22.0910  -31.8370 C   0  0  0  0  0  0  0  0  0  0  0  0
   -6.9260   23.4130  -31.4500 C   0  0  0  0  0  0  0  0  0  0  0  0
   -5.6420   23.6780  -30.9790 C   0  0  0  0  0  0  0  0  0  0  0  0
   -5.2380   24.9680  -30.3830 C   0  0  0  0  0  0  0  0  0  0  0  0
   -4.0650   25.6450  -30.8280 N   0  0  0  0  0  0  0  0  0  0  0  0
   -5.9150   25.4610  -29.4420 O   0  0  0  0  0  0  0  0  0  0  0  0
   -4.8580   22.5680  -31.0820 N   0  0  0  0  0  0  0  0  0  0  0  0
   -3.4550   22.4450  -30.8080 C   0  0  0  0  0  0  0  0  0  0  0  0
   -2.6190   22.6760  -31.7220 O   0  0  0  0  0  0  0  0  0  0  0  0
   -2.9700   22.1540  -29.4160 C   0  0  0  0  0  0  0  0  0  0  0  0
   -2.7040   23.4450  -28.6310 C   0  0  0  0  0  0  0  0  0  0  0  0
   -1.5300   24.2060  -29.1730 C   0  0  0  0  0  0  0  0  0  0  0  0
   -0.4820   23.5990  -29.5150 O   0  0  0  0  0  0  0  0  0  0  0  0
   -1.6040   25.5850  -29.3200 O   0  0  0  0  0  0  0  0  0  0  0  0
   -5.6490   21.6060  -31.5990 C   0  0  0  0  0  0  0  0  0  0  0  0
   -5.3050   20.2900  -31.9200 C   0  0  0  0  0  0  0  0  0  0  0  0
   -5.3273   16.6054  -29.9006 H   0  0  0  0  0  0  0  0  0  0  0  0
   -6.0529   18.2235  -30.1871 H   0  0  0  0  0  0  0  0  0  0  0  0
   -7.0939   16.7596  -30.1871 H   0  0  0  0  0  0  0  0  0  0  0  0
   -5.7638   19.5539  -35.1490 H   0  0  0  0  0  0  0  0  0  0  0  0
   -4.8298   18.2818  -36.0068 H   0  0  0  0  0  0  0  0  0  0  0  0
   -6.6254   18.2317  -36.0068 H   0  0  0  0  0  0  0  0  0  0  0  0
   -8.3650   19.3254  -33.1673 H   0  0  0  0  0  0  0  0  0  0  0  0
   -8.9169   21.7096  -32.5729 H   0  0  0  0  0  0  0  0  0  0  0  0
   -7.7746   24.1110  -31.5019 H   0  0  0  0  0  0  0  0  0  0  0  0
   -3.1150   25.2530  -30.6420 H   0  0  0  0  0  0  0  0  0  0  0  0
   -3.7341   21.5653  -28.8872 H   0  0  0  0  0  0  0  0  0  0  0  0
   -2.0257   21.5946  -29.4898 H   0  0  0  0  0  0  0  0  0  0  0  0
   -3.5973   24.0844  -28.6875 H   0  0  0  0  0  0  0  0  0  0  0  0
   -2.4757   23.1672  -27.5914 H   0  0  0  0  0  0  0  0  0  0  0  0
   -4.2896   19.9103  -31.7334 H   0  0  0  0  0  0  0  0  0  0  0  0
  1  2  1  0
  2  3  2  0
  3  4  1  0
  4  5  1  0
  5  6  1  0
  5  7  2  0
  7  8  1  0
  8  9  2  0
  9 10  1  0
 10 11  2  0
 11 12  1  0
 12 13  2  0
 13 14  1  0
 14 15  1  0
 14 16  2  0
 13 17  1  0
 17 18  1  0
 18 19  2  0
 18 20  1  0
 20 21  1  0
 21 22  1  0
 22 23  2  0
 22 24  1  0
 17 25  1  0
 25 26  2  0
  7  2  1  0
 26  8  1  0
 25 11  1  0
  1 27  1  0
  1 28  1  0
  1 29  1  0
  6 30  1  0
  6 31  1  0
  6 32  1  0
  9 33  1  0
 10 34  1  0
 12 35  1  0
 15 36  1  0
 20 37  1  0
 20 38  1  0
 21 39  1  0
 21 40  1  0
 26 41  1  0
M  CHG  2  15  -1  24  -1
M  END
>  <UniqueID>  (4) 
4

>  <SMILES>  (4) 
Cc1nsc(C)c1-c1ccc2cc(C([NH-])=O)n(C(=O)CCC(=O)[O-])c2c1

>  <Energy>  (4) 
113.99411525214671

>  <Genealogy>  (4) 
Cc1nsc(C)c1-c1ccc2cc(C([NH-])=O)n(C(=O)CCC(=O)[O-])c2c1 (protonated)
Cc1nsc(C)c1-c1ccc2cc(C([NH-])=O)n(C(=O)CCC(=O)[O-])c2c1 (3D coordinates assigned)
Cc1nsc(C)c1-c1ccc2cc(C([NH-])=O)n(C(=O)CCC(=O)[O-])c2c1 (optimized conformer: 113.99411525214671 kcal/mol)

>  <smiles>  (4) 
Cc1nsc(C)c1-c1ccc2cc(C(N)=O)n(C(=O)CCC(=O)O)c2c1

>  <score_type>  (4) 
oracle

>  <origin>  (4) 
adg

>  <m_score__min__energy>  (4) 
-13.210000000000001

>  <m_primary>  (4) 
energy

$$$$
4:0
     RDKit          3D

 40 41  0  0  0  0  0  0  0  0999 V2000
   -1.5400   25.7090  -28.1320 C   0  0  0  0  0  0  0  0  0  0  0  0
   -2.1230   25.2700  -29.3390 O   0  0  0  0  0  0  0  0  0  0  0  0
   -1.8890   23.8860  -29.4950 C   0  0  0  0  0  0  0  0  0  0  0  0
   -3.0070   23.1060  -28.8160 C   0  0  0  0  0  0  0  0  0  0  0  0
   -3.5790   22.1880  -29.7430 O   0  0  0  0  0  0  0  0  0  0  0  0
   -4.0550   22.5760  -30.9980 C   0  0  0  0  0  0  0  0  0  0  0  0
   -3.2520   22.7400  -31.9580 O   0  0  0  0  0  0  0  0  0  0  0  0
   -5.4610   22.7980  -31.1920 N   0  0  0  0  0  0  0  0  0  0  0  0
   -6.1820   23.9050  -30.8560 C   0  0  0  0  0  0  0  0  0  0  0  0
   -5.6270   25.1820  -30.3630 C   0  0  0  0  0  0  0  0  0  0  0  0
   -4.2590   25.5270  -30.5810 N   0  0  0  0  0  0  0  0  0  0  0  0
   -6.3890   26.0060  -29.7880 O   0  0  0  0  0  0  0  0  0  0  0  0
   -7.5380   23.7000  -31.0880 C   0  0  0  0  0  0  0  0  0  0  0  0
   -7.6300   22.4250  -31.5990 C   0  0  0  0  0  0  0  0  0  0  0  0
   -8.7510   21.6990  -31.9910 C   0  0  0  0  0  0  0  0  0  0  0  0
   -8.5580   20.3840  -32.4440 C   0  0  0  0  0  0  0  0  0  0  0  0
   -7.2590   19.8220  -32.4940 C   0  0  0  0  0  0  0  0  0  0  0  0
   -7.0670   18.3950  -32.9400 C   0  0  0  0  0  0  0  0  0  0  0  0
   -5.8440   18.2530  -33.8510 C   0  0  0  0  0  0  0  0  0  0  0  0
   -6.0520   18.9160  -35.0690 O   0  0  0  0  0  0  0  0  0  0  0  0
   -6.1450   20.5850  -32.0780 C   0  0  0  0  0  0  0  0  0  0  0  0
   -6.3640   21.9000  -31.6510 C   0  0  0  0  0  0  0  0  0  0  0  0
   -2.0974   25.2893  -27.2816 H   0  0  0  0  0  0  0  0  0  0  0  0
   -0.4937   25.3726  -28.0865 H   0  0  0  0  0  0  0  0  0  0  0  0
   -1.5742   26.8075  -28.0865 H   0  0  0  0  0  0  0  0  0  0  0  0
   -1.8647   23.6360  -30.5659 H   0  0  0  0  0  0  0  0  0  0  0  0
   -0.9247   23.6217  -29.0365 H   0  0  0  0  0  0  0  0  0  0  0  0
   -2.5986   22.5529  -27.9574 H   0  0  0  0  0  0  0  0  0  0  0  0
   -3.7818   23.8051  -28.4681 H   0  0  0  0  0  0  0  0  0  0  0  0
   -3.8750   26.4170  -30.1920 H   0  0  0  0  0  0  0  0  0  0  0  0
   -3.6480   24.9470  -31.1970 H   0  0  0  0  0  0  0  0  0  0  0  0
   -8.3611   24.4059  -30.9027 H   0  0  0  0  0  0  0  0  0  0  0  0
   -9.7570   22.1417  -31.9473 H   0  0  0  0  0  0  0  0  0  0  0  0
   -9.4236   19.7849  -32.7630 H   0  0  0  0  0  0  0  0  0  0  0  0
   -6.9285   17.7587  -32.0535 H   0  0  0  0  0  0  0  0  0  0  0  0
   -7.9580   18.0870  -33.5068 H   0  0  0  0  0  0  0  0  0  0  0  0
   -4.9674   18.6878  -33.3486 H   0  0  0  0  0  0  0  0  0  0  0  0
   -5.6774   17.1849  -34.0544 H   0  0  0  0  0  0  0  0  0  0  0  0
   -6.9410   19.3540  -35.0100 H   0  0  0  0  0  0  0  0  0  0  0  0
   -5.1318   20.1568  -32.0894 H   0  0  0  0  0  0  0  0  0  0  0  0
  1  2  1  0
  2  3  1  0
  3  4  1  0
  4  5  1  0
  5  6  1  0
  6  7  2  0
  6  8  1  0
  8  9  1  0
  9 10  1  0
 10 11  1  0
 10 12  2  0
  9 13  2  0
 13 14  1  0
 14 15  2  0
 15 16  1  0
 16 17  2  0
 17 18  1  0
 18 19  1  0
 19 20  1  0
 17 21  1  0
 21 22  2  0
 22  8  1  0
 22 14  1  0
  1 23  1  0
  1 24  1  0
  1 25  1  0
  3 26  1  0
  3 27  1  0
  4 28  1  0
  4 29  1  0
 11 30  1  0
 11 31  1  0
 13 32  1  0
 15 33  1  0
 16 34  1  0
 18 35  1  0
 18 36  1  0
 19 37  1  0
 19 38  1  0
 20 39  1  0
 21 40  1  0
M  END
>  <UniqueID>  (5) 
5

>  <SMILES>  (5) 
COCCOC(=O)n1c(C(N)=O)cc2ccc(CCO)cc21

>  <Energy>  (5) 
72.42517945726489

>  <Genealogy>  (5) 
COCCOC(=O)n1c(C(N)=O)cc2ccc(CCO)cc21 (3D coordinates assigned)
COCCOC(=O)n1c(C(N)=O)cc2ccc(CCO)cc21 (optimized conformer: 72.42517945726489 kcal/mol)

>  <smiles>  (5) 
COCCOC(=O)n1c(C(N)=O)cc2ccc(CCO)cc21

>  <score_type>  (5) 
oracle

>  <origin>  (5) 
adg

>  <m_score__min__energy>  (5) 
-8.8800000000000008

>  <m_primary>  (5) 
energy

$$$$
5:0
     RDKit          3D

 29 31  0  0  0  0  0  0  0  0999 V2000
   -4.1800   25.5190  -30.7030 N   0  0  0  0  0  0  0  0  0  0  0  0
   -5.4990   25.0470  -30.4250 C   0  0  0  0  0  0  0  0  0  0  0  0
   -6.2340   25.6980  -29.6360 O   0  0  0  0  0  0  0  0  0  0  0  0
   -5.9920   23.7760  -30.9940 C   0  0  0  0  0  0  0  0  0  0  0  0
   -7.3420   23.4650  -31.1140 C   0  0  0  0  0  0  0  0  0  0  0  0
   -7.3760   22.1860  -31.6180 C   0  0  0  0  0  0  0  0  0  0  0  0
   -8.4650   21.3860  -31.9470 C   0  0  0  0  0  0  0  0  0  0  0  0
   -8.2110   20.1160  -32.4870 C   0  0  0  0  0  0  0  0  0  0  0  0
   -6.8790   19.6660  -32.6990 C   0  0  0  0  0  0  0  0  0  0  0  0
   -6.6220   18.3250  -33.2840 C   0  0  0  0  0  0  0  0  0  0  0  0
   -5.7380   18.0140  -34.3030 C   0  0  0  0  0  0  0  0  0  0  0  0
   -5.8450   16.6530  -34.4960 C   0  0  0  0  0  0  0  0  0  0  0  0
   -6.7290   16.1550  -33.6620 O   0  0  0  0  0  0  0  0  0  0  0  0
   -7.2140   17.1250  -32.9230 C   0  0  0  0  0  0  0  0  0  0  0  0
   -5.8000   20.5140  -32.3510 C   0  0  0  0  0  0  0  0  0  0  0  0
   -6.0830   21.7680  -31.7950 C   0  0  0  0  0  0  0  0  0  0  0  0
   -5.2180   22.7370  -31.4180 N   0  0  0  0  0  0  0  0  0  0  0  0
   -3.7870   22.7200  -31.5600 C   0  0  0  0  0  0  0  0  0  0  0  0
   -3.0530   23.2820  -30.7060 O   0  0  0  0  0  0  0  0  0  0  0  0
   -3.1970   22.0780  -32.6430 O   0  0  0  0  0  0  0  0  0  0  0  0
   -3.4910   24.9250  -31.2150 H   0  0  0  0  0  0  0  0  0  0  0  0
   -3.8610   26.4380  -30.3230 H   0  0  0  0  0  0  0  0  0  0  0  0
   -8.1996   24.1053  -30.8600 H   0  0  0  0  0  0  0  0  0  0  0  0
   -9.4949   21.7384  -31.7886 H   0  0  0  0  0  0  0  0  0  0  0  0
   -9.0537   19.4597  -32.7498 H   0  0  0  0  0  0  0  0  0  0  0  0
   -5.0837   18.7106  -34.8476 H   0  0  0  0  0  0  0  0  0  0  0  0
   -5.2759   16.0720  -35.2366 H   0  0  0  0  0  0  0  0  0  0  0  0
   -7.9742   17.0041  -32.1372 H   0  0  0  0  0  0  0  0  0  0  0  0
   -4.7602   20.1944  -32.5140 H   0  0  0  0  0  0  0  0  0  0  0  0
  1  2  1  0
  2  3  2  0
  2  4  1  0
  4  5  2  0
  5  6  1  0
  6  7  2  0
  7  8  1  0
  8  9  2  0
  9 10  1  0
 10 11  1  0
 11 12  2  0
 12 13  1  0
 13 14  1  0
  9 15  1  0
 15 16  2  0
 16 17  1  0
 17 18  1  0
 18 19  2  0
 18 20  1  0
 17  4  1  0
 16  6  1  0
 14 10  2  0
  1 21  1  0
  1 22  1  0
  5 23  1  0
  7 24  1  0
  8 25  1  0
 11 26  1  0
 12 27  1  0
 14 28  1  0
 15 29  1  0
M  CHG  1  20  -1
M  END
>  <UniqueID>  (6) 
6

>  <SMILES>  (6) 
NC(=O)c1cc2ccc(-c3ccoc3)cc2n1C(=O)[O-]

>  <Energy>  (6) 
100.41786588866958

>  <Genealogy>  (6) 
NC(=O)c1cc2ccc(-c3ccoc3)cc2n1C(=O)[O-] (protonated)
NC(=O)c1cc2ccc(-c3ccoc3)cc2n1C(=O)[O-] (3D coordinates assigned)
NC(=O)c1cc2ccc(-c3ccoc3)cc2n1C(=O)[O-] (optimized conformer: 100.41786588866958 kcal/mol)

>  <smiles>  (6) 
NC(=O)c1cc2ccc(-c3ccoc3)cc2n1C(=O)O

>  <score_type>  (6) 
oracle

>  <origin>  (6) 
adg

>  <m_score__min__energy>  (6) 
-8.75

>  <m_primary>  (6) 
energy

$$$$
6:0
     RDKit          3D

 32 33  0  0  0  0  0  0  0  0999 V2000
   -6.5030   18.2680  -33.7620 C   0  0  0  0  0  0  0  0  0  0  0  0
   -6.7590   19.5740  -33.0720 C   0  0  0  0  0  0  0  0  0  0  0  0
   -8.0820   19.9510  -32.7360 C   0  0  0  0  0  0  0  0  0  0  0  0
   -8.3310   21.1480  -32.0440 C   0  0  0  0  0  0  0  0  0  0  0  0
   -7.2410   21.9420  -31.6990 C   0  0  0  0  0  0  0  0  0  0  0  0
   -7.1960   23.1290  -31.0040 C   0  0  0  0  0  0  0  0  0  0  0  0
   -5.8450   23.4630  -30.9300 C   0  0  0  0  0  0  0  0  0  0  0  0
   -5.3370   24.7210  -30.3400 C   0  0  0  0  0  0  0  0  0  0  0  0
   -5.7510   25.1350  -29.0360 N   0  0  0  0  0  0  0  0  0  0  0  0
   -4.5560   25.4570  -30.9980 O   0  0  0  0  0  0  0  0  0  0  0  0
   -5.0850   22.5180  -31.5540 N   0  0  0  0  0  0  0  0  0  0  0  0
   -3.6510   22.4620  -31.6300 C   0  0  0  0  0  0  0  0  0  0  0  0
   -3.0930   21.5970  -32.3580 O   0  0  0  0  0  0  0  0  0  0  0  0
   -2.8800   23.3670  -30.8900 O   0  0  0  0  0  0  0  0  0  0  0  0
   -2.0070   22.9810  -29.8300 C   0  0  0  0  0  0  0  0  0  0  0  0
   -1.7510   24.1490  -28.8810 C   0  0  0  0  0  0  0  0  0  0  0  0
   -2.3710   25.2960  -29.3440 F   0  0  0  0  0  0  0  0  0  0  0  0
   -0.3910   24.3770  -28.7680 F   0  0  0  0  0  0  0  0  0  0  0  0
   -5.9540   21.5940  -32.0190 C   0  0  0  0  0  0  0  0  0  0  0  0
   -5.6750   20.3970  -32.6910 C   0  0  0  0  0  0  0  0  0  0  0  0
   -6.3486   17.4801  -33.0101 H   0  0  0  0  0  0  0  0  0  0  0  0
   -7.3677   18.0100  -34.3911 H   0  0  0  0  0  0  0  0  0  0  0  0
   -5.6049   18.3555  -34.3911 H   0  0  0  0  0  0  0  0  0  0  0  0
   -8.9226   19.3005  -33.0195 H   0  0  0  0  0  0  0  0  0  0  0  0
   -9.3563   21.4487  -31.7827 H   0  0  0  0  0  0  0  0  0  0  0  0
   -8.0460   23.6942  -30.5939 H   0  0  0  0  0  0  0  0  0  0  0  0
   -5.4180   26.0430  -28.6450 H   0  0  0  0  0  0  0  0  0  0  0  0
   -6.3540   24.5260  -28.4400 H   0  0  0  0  0  0  0  0  0  0  0  0
   -2.4667   22.1547  -29.2680 H   0  0  0  0  0  0  0  0  0  0  0  0
   -1.0470   22.6642  -30.2637 H   0  0  0  0  0  0  0  0  0  0  0  0
   -2.1649   23.8912  -27.8950 H   0  0  0  0  0  0  0  0  0  0  0  0
   -4.6387   20.1050  -32.9164 H   0  0  0  0  0  0  0  0  0  0  0  0
  1  2  1  0
  2  3  2  0
  3  4  1  0
  4  5  2  0
  5  6  1  0
  6  7  2  0
  7  8  1  0
  8  9  1  0
  8 10  2  0
  7 11  1  0
 11 12  1  0
 12 13  2  0
 12 14  1  0
 14 15  1  0
 15 16  1  0
 16 17  1  0
 16 18  1  0
 11 19  1  0
 19 20  2  0
 20  2  1  0
 19  5  1  0
  1 21  1  0
  1 22  1  0
  1 23  1  0
  3 24  1  0
  4 25  1  0
  6 26  1  0
  9 27  1  0
  9 28  1  0
 15 29  1  0
 15 30  1  0
 16 31  1  0
 20 32  1  0
M  END
>  <UniqueID>  (7) 
7

>  <SMILES>  (7) 
Cc1ccc2cc(C(N)=O)n(C(=O)OCC(F)F)c2c1

>  <Energy>  (7) 
66.78236080230816

>  <Genealogy>  (7) 
Cc1ccc2cc(C(N)=O)n(C(=O)OCC(F)F)c2c1 (3D coordinates assigned)
Cc1ccc2cc(C(N)=O)n(C(=O)OCC(F)F)c2c1 (optimized conformer: 66.78236080230816 kcal/mol)

>  <smiles>  (7) 
Cc1ccc2cc(C(N)=O)n(C(=O)OCC(F)F)c2c1

>  <score_type>  (7) 
oracle

>  <origin>  (7) 
adg

>  <m_score__min__energy>  (7) 
-8.0399999999999991

>  <m_primary>  (7) 
energy

$$$$
7:0
     RDKit          3D

 51 52  0  0  0  0  0  0  0  0999 V2000
   -7.5570   17.8110  -32.5010 C   0  0  0  0  0  0  0  0  0  0  0  0
   -7.8720   19.0430  -31.7580 N   0  0  0  0  0  0  0  0  0  0  0  0
   -9.0220   19.7130  -32.3840 C   0  0  0  0  0  0  0  0  0  0  0  0
   -6.7060   19.9540  -31.7060 C   0  0  0  0  0  0  0  0  0  0  0  0
   -6.1500   20.2380  -33.1150 C   0  0  0  0  0  0  0  0  0  0  0  0
   -4.7900   19.5690  -33.3810 C   0  0  0  0  0  0  0  0  0  0  0  0
   -3.6590   20.2680  -32.6730 C   0  0  0  0  0  0  0  0  0  0  0  0
   -2.3690   19.6840  -32.6470 C   0  0  0  0  0  0  0  0  0  0  0  0
   -1.3170   20.2990  -31.9460 C   0  0  0  0  0  0  0  0  0  0  0  0
   -1.5900   21.4880  -31.2740 C   0  0  0  0  0  0  0  0  0  0  0  0
   -0.7600   22.2930  -30.5280 C   0  0  0  0  0  0  0  0  0  0  0  0
   -1.5620   23.3460  -30.0910 C   0  0  0  0  0  0  0  0  0  0  0  0
   -1.0870   24.4040  -29.1750 C   0  0  0  0  0  0  0  0  0  0  0  0
   -1.8420   25.5970  -28.9770 N   0  0  0  0  0  0  0  0  0  0  0  0
   -0.0230   24.2330  -28.5240 O   0  0  0  0  0  0  0  0  0  0  0  0
   -2.8350   23.2020  -30.5580 N   0  0  0  0  0  0  0  0  0  0  0  0
   -3.9410   24.1040  -30.4030 C   0  0  0  0  0  0  0  0  0  0  0  0
   -3.8510   25.2810  -30.8430 O   0  0  0  0  0  0  0  0  0  0  0  0
   -5.1160   23.6520  -29.7830 O   0  0  0  0  0  0  0  0  0  0  0  0
   -6.4580   23.8760  -30.2390 C   0  0  0  0  0  0  0  0  0  0  0  0
   -7.3890   22.7460  -29.7600 C   0  0  0  0  0  0  0  0  0  0  0  0
   -6.9710   25.2470  -29.7600 C   0  0  0  0  0  0  0  0  0  0  0  0
   -6.4220   23.8710  -31.7750 C   0  0  0  0  0  0  0  0  0  0  0  0
   -2.8360   22.0580  -31.2770 C   0  0  0  0  0  0  0  0  0  0  0  0
   -3.8940   21.4810  -31.9880 C   0  0  0  0  0  0  0  0  0  0  0  0
   -7.3490   16.9974  -31.7905 H   0  0  0  0  0  0  0  0  0  0  0  0
   -8.4135   17.5352  -33.1337 H   0  0  0  0  0  0  0  0  0  0  0  0
   -6.6732   17.9802  -33.1337 H   0  0  0  0  0  0  0  0  0  0  0  0
   -9.6901   20.1022  -31.6016 H   0  0  0  0  0  0  0  0  0  0  0  0
   -8.6659   20.5450  -33.0093 H   0  0  0  0  0  0  0  0  0  0  0  0
   -9.5701   18.9929  -33.0093 H   0  0  0  0  0  0  0  0  0  0  0  0
   -7.0145   20.9039  -31.2450 H   0  0  0  0  0  0  0  0  0  0  0  0
   -5.9155   19.4705  -31.1132 H   0  0  0  0  0  0  0  0  0  0  0  0
   -6.8725   19.8663  -33.8565 H   0  0  0  0  0  0  0  0  0  0  0  0
   -5.9981   21.3248  -33.1914 H   0  0  0  0  0  0  0  0  0  0  0  0
   -4.8347   18.5266  -33.0325 H   0  0  0  0  0  0  0  0  0  0  0  0
   -4.5945   19.6240  -34.4621 H   0  0  0  0  0  0  0  0  0  0  0  0
   -2.1883   18.7394  -33.1809 H   0  0  0  0  0  0  0  0  0  0  0  0
   -0.3106   19.8554  -31.9288 H   0  0  0  0  0  0  0  0  0  0  0  0
    0.3091   22.1384  -30.3206 H   0  0  0  0  0  0  0  0  0  0  0  0
   -2.8270   25.6710  -29.3150 H   0  0  0  0  0  0  0  0  0  0  0  0
   -7.4055   22.7259  -28.6603 H   0  0  0  0  0  0  0  0  0  0  0  0
   -8.4063   22.9237  -30.1388 H   0  0  0  0  0  0  0  0  0  0  0  0
   -7.0199   21.7815  -30.1388 H   0  0  0  0  0  0  0  0  0  0  0  0
   -6.9801   25.2713  -28.6603 H   0  0  0  0  0  0  0  0  0  0  0  0
   -6.3085   26.0392  -30.1388 H   0  0  0  0  0  0  0  0  0  0  0  0
   -7.9908   25.4097  -30.1388 H   0  0  0  0  0  0  0  0  0  0  0  0
   -5.3865   23.7272  -32.1170 H   0  0  0  0  0  0  0  0  0  0  0  0
   -7.0504   23.0515  -32.1538 H   0  0  0  0  0  0  0  0  0  0  0  0
   -6.8033   24.8307  -32.1538 H   0  0  0  0  0  0  0  0  0  0  0  0
   -4.8840   21.9599  -32.0130 H   0  0  0  0  0  0  0  0  0  0  0  0
  1  2  1  0
  2  3  1  0
  2  4  1  0
  4  5  1  0
  5  6  1  0
  6  7  1  0
  7  8  2  0
  8  9  1  0
  9 10  2  0
 10 11  1  0
 11 12  2  0
 12 13  1  0
 13 14  1  0
 13 15  2  0
 12 16  1  0
 16 17  1  0
 17 18  2  0
 17 19  1  0
 19 20  1  0
 20 21  1  0
 20 22  1  0
 20 23  1  0
 16 24  1  0
 24 25  2  0
 25  7  1  0
 24 10  1  0
  1 26  1  0
  1 27  1  0
  1 28  1  0
  3 29  1  0
  3 30  1  0
  3 31  1  0
  4 32  1  0
  4 33  1  0
  5 34  1  0
  5 35  1  0
  6 36  1  0
  6 37  1  0
  8 38  1  0
  9 39  1  0
 11 40  1  0
 14 41  1  0
 21 42  1  0
 21 43  1  0
 21 44  1  0
 22 45  1  0
 22 46  1  0
 22 47  1  0
 23 48  1  0
 23 49  1  0
 23 50  1  0
 25 51  1  0
M  CHG  1  14  -1
M  END
>  <UniqueID>  (8) 
8

>  <SMILES>  (8) 
CN(C)CCCc1ccc2cc(C([NH-])=O)n(C(=O)OC(C)(C)C)c2c1

>  <Energy>  (8) 
78.95153101347083

>  <Genealogy>  (8) 
CN(C)CCCc1ccc2cc(C([NH-])=O)n(C(=O)OC(C)(C)C)c2c1 (protonated)
CN(C)CCCc1ccc2cc(C([NH-])=O)n(C(=O)OC(C)(C)C)c2c1 (3D coordinates assigned)
CN(C)CCCc1ccc2cc(C([NH-])=O)n(C(=O)OC(C)(C)C)c2c1 (optimized conformer: 78.95153101347083 kcal/mol)

>  <smiles>  (8) 
CN(C)CCCc1ccc2cc(C(N)=O)n(C(=O)OC(C)(C)C)c2c1

>  <score_type>  (8) 
oracle

>  <origin>  (8) 
adg

>  <m_score__min__energy>  (8) 
-10.84

>  <m_primary>  (8) 
energy

$$$$
8:0
     RDKit          3D

 50 53  0  0  0  0  0  0  0  0999 V2000
   -5.8810   25.4940  -29.2430 N   0  0  0  0  0  0  0  0  0  0  0  0
   -5.5440   24.8410  -30.4700 C   0  0  0  0  0  0  0  0  0  0  0  0
   -4.6220   25.3190  -31.1810 O   0  0  0  0  0  0  0  0  0  0  0  0
   -6.2770   23.6330  -30.9150 C   0  0  0  0  0  0  0  0  0  0  0  0
   -7.6540   23.5810  -31.1320 C   0  0  0  0  0  0  0  0  0  0  0  0
   -7.9040   22.3050  -31.5840 C   0  0  0  0  0  0  0  0  0  0  0  0
   -9.1080   21.6960  -31.9260 C   0  0  0  0  0  0  0  0  0  0  0  0
   -9.0750   20.3470  -32.3180 C   0  0  0  0  0  0  0  0  0  0  0  0
   -7.8500   19.6370  -32.3580 C   0  0  0  0  0  0  0  0  0  0  0  0
   -7.8370   18.1710  -32.6990 C   0  0  0  0  0  0  0  0  0  0  0  0
   -6.4760   17.5430  -32.3900 C   0  0  0  0  0  0  0  0  0  0  0  0
   -5.9150   16.9900  -33.5680 O   0  0  0  0  0  0  0  0  0  0  0  0
   -5.5460   18.0040  -34.4920 C   0  0  1  0  0  0  0  0  0  0  0  0
   -4.5760   18.9990  -33.8180 C   0  0  0  0  0  0  0  0  0  0  0  0
   -3.1160   18.7260  -34.2000 C   0  0  0  0  0  0  0  0  0  0  0  0
   -2.8750   17.2260  -34.3460 C   0  0  0  0  0  0  0  0  0  0  0  0
   -3.8640   16.6080  -35.3590 C   0  0  0  0  0  0  0  0  0  0  0  0
   -4.9700   17.4470  -35.6650 O   0  0  0  0  0  0  0  0  0  0  0  0
   -6.6500   20.2850  -31.9960 C   0  0  0  0  0  0  0  0  0  0  0  0
   -6.7100   21.6350  -31.6300 C   0  0  0  0  0  0  0  0  0  0  0  0
   -5.7020   22.4380  -31.2290 N   0  0  0  0  0  0  0  0  0  0  0  0
   -4.3210   22.0720  -31.0880 C   0  0  0  0  0  0  0  0  0  0  0  0
   -3.7940   21.2880  -31.9230 O   0  0  0  0  0  0  0  0  0  0  0  0
   -3.5190   22.5930  -29.9710 C   0  0  0  0  0  0  0  0  0  0  0  0
   -3.4720   22.0720  -28.6930 C   0  0  0  0  0  0  0  0  0  0  0  0
   -2.5990   22.8800  -27.9950 C   0  0  0  0  0  0  0  0  0  0  0  0
   -2.1720   23.8430  -28.8870 C   0  0  0  0  0  0  0  0  0  0  0  0
   -2.7390   23.6460  -30.0550 O   0  0  0  0  0  0  0  0  0  0  0  0
   -5.3800   26.3660  -28.9610 H   0  0  0  0  0  0  0  0  0  0  0  0
   -6.5910   25.0970  -28.5900 H   0  0  0  0  0  0  0  0  0  0  0  0
   -8.3848   24.3881  -30.9752 H   0  0  0  0  0  0  0  0  0  0  0  0
  -10.0557   22.2533  -31.8905 H   0  0  0  0  0  0  0  0  0  0  0  0
  -10.0093   19.8376  -32.5964 H   0  0  0  0  0  0  0  0  0  0  0  0
   -8.6110   17.6585  -32.1088 H   0  0  0  0  0  0  0  0  0  0  0  0
   -8.0345   18.0620  -33.7756 H   0  0  0  0  0  0  0  0  0  0  0  0
   -5.8007   18.3155  -31.9936 H   0  0  0  0  0  0  0  0  0  0  0  0
   -6.6093   16.7440  -31.6458 H   0  0  0  0  0  0  0  0  0  0  0  0
   -6.4533   18.5453  -34.7982 H   0  0  0  0  0  0  0  0  0  0  0  0
   -4.8401   20.0199  -34.1312 H   0  0  0  0  0  0  0  0  0  0  0  0
   -4.6701   18.8802  -32.7285 H   0  0  0  0  0  0  0  0  0  0  0  0
   -2.8923   19.2236  -35.1552 H   0  0  0  0  0  0  0  0  0  0  0  0
   -2.4611   19.1168  -33.4073 H   0  0  0  0  0  0  0  0  0  0  0  0
   -1.8464   17.0585  -34.6980 H   0  0  0  0  0  0  0  0  0  0  0  0
   -3.0273   16.7473  -33.3674 H   0  0  0  0  0  0  0  0  0  0  0  0
   -3.3195   16.3979  -36.2914 H   0  0  0  0  0  0  0  0  0  0  0  0
   -4.2710   15.6974  -34.8951 H   0  0  0  0  0  0  0  0  0  0  0  0
   -5.6924   19.7437  -32.0012 H   0  0  0  0  0  0  0  0  0  0  0  0
   -4.0168   21.1959  -28.3115 H   0  0  0  0  0  0  0  0  0  0  0  0
   -2.3029   22.7777  -26.9406 H   0  0  0  0  0  0  0  0  0  0  0  0
   -1.4643   24.6525  -28.6548 H   0  0  0  0  0  0  0  0  0  0  0  0
  1  2  1  0
  2  3  2  0
  2  4  1  0
  4  5  2  0
  5  6  1  0
  6  7  2  0
  7  8  1  0
  8  9  2  0
  9 10  1  0
 10 11  1  0
 11 12  1  0
 12 13  1  0
 13 14  1  0
 14 15  1  0
 15 16  1  0
 16 17  1  0
 17 18  1  0
  9 19  1  0
 19 20  2  0
 20 21  1  0
 21 22  1  0
 22 23  2  0
 22 24  1  0
 24 25  2  0
 25 26  1  0
 26 27  2  0
 27 28  1  0
 21  4  1  0
 28 24  1  0
 20  6  1  0
 18 13  1  0
  1 29  1  0
  1 30  1  0
  5 31  1  0
  7 32  1  0
  8 33  1  0
 10 34  1  0
 10 35  1  0
 11 36  1  0
 11 37  1  0
 13 38  1  6
 14 39  1  0
 14 40  1  0
 15 41  1  0
 15 42  1  0
 16 43  1  0
 16 44  1  0
 17 45  1  0
 17 46  1  0
 19 47  1  0
 25 48  1  0
 26 49  1  0
 27 50  1  0
M  END
>  <UniqueID>  (9) 
9

>  <SMILES>  (9) 
NC(=O)c1cc2ccc(CCO[C@H]3CCCCO3)cc2n1C(=O)c1ccco1

>  <Energy>  (9) 
124.12055682117607

>  <Genealogy>  (9) 
NC(=O)c1cc2ccc(CCO[C@H]3CCCCO3)cc2n1C(=O)c1ccco1 (chirality)
NC(=O)c1cc2ccc(CCO[C@H]3CCCCO3)cc2n1C(=O)c1ccco1 (3D coordinates assigned)
NC(=O)c1cc2ccc(CCO[C@H]3CCCCO3)cc2n1C(=O)c1ccco1 (nonaromatic ring conformer: 124.12055682117607 kcal/mol)

>  <smiles>  (9) 
NC(=O)c1cc2ccc(CCOC3CCCCO3)cc2n1C(=O)c1ccco1

>  <score_type>  (9) 
oracle

>  <origin>  (9) 
adg

>  <m_score__min__energy>  (9) 
-9.7799999999999994

>  <m_primary>  (9) 
energy

$$$$
9:0
     RDKit          3D

 38 40  0  0  0  0  0  0  0  0999 V2000
   -6.6480   14.8190  -34.2190 C   0  0  0  0  0  0  0  0  0  0  0  0
   -6.2260   16.2110  -34.1460 N   0  0  0  0  0  0  0  0  0  0  0  0
   -6.8380   17.1880  -33.4500 C   0  0  0  0  0  0  0  0  0  0  0  0
   -6.0790   18.3450  -33.5630 C   0  0  0  0  0  0  0  0  0  0  0  0
   -6.3590   19.6740  -32.9640 C   0  0  0  0  0  0  0  0  0  0  0  0
   -7.6890   20.1730  -32.9110 C   0  0  0  0  0  0  0  0  0  0  0  0
   -7.9670   21.4240  -32.3370 C   0  0  0  0  0  0  0  0  0  0  0  0
   -6.9020   22.1620  -31.8310 C   0  0  0  0  0  0  0  0  0  0  0  0
   -6.8930   23.3860  -31.2030 C   0  0  0  0  0  0  0  0  0  0  0  0
   -5.5580   23.6360  -30.9000 C   0  0  0  0  0  0  0  0  0  0  0  0
   -5.0850   24.8980  -30.2920 C   0  0  0  0  0  0  0  0  0  0  0  0
   -3.9570   25.5900  -30.8190 N   0  0  0  0  0  0  0  0  0  0  0  0
   -5.7170   25.3980  -29.3220 O   0  0  0  0  0  0  0  0  0  0  0  0
   -4.7710   22.6030  -31.3160 N   0  0  0  0  0  0  0  0  0  0  0  0
   -3.3590   22.4340  -31.1230 C   0  0  0  0  0  0  0  0  0  0  0  0
   -2.6410   23.4240  -30.8150 O   0  0  0  0  0  0  0  0  0  0  0  0
   -2.7890   21.1630  -31.2530 O   0  0  0  0  0  0  0  0  0  0  0  0
   -1.6750   20.9030  -32.0980 C   0  0  0  0  0  0  0  0  0  0  0  0
   -2.1200   20.0680  -33.2520 C   0  0  0  0  0  0  0  0  0  0  0  0
   -2.7610   20.5880  -34.2020 O   0  0  0  0  0  0  0  0  0  0  0  0
   -1.8040   18.2940  -33.2570 S   0  0  0  0  0  0  0  0  0  0  0  0
   -5.6110   21.7100  -31.8880 C   0  0  0  0  0  0  0  0  0  0  0  0
   -5.3060   20.4580  -32.4350 C   0  0  0  0  0  0  0  0  0  0  0  0
   -4.9910   17.9820  -34.3470 C   0  0  0  0  0  0  0  0  0  0  0  0
   -5.1100   16.6830  -34.6760 N   0  0  0  0  0  0  0  0  0  0  0  0
   -6.7693   14.4188  -33.2016 H   0  0  0  0  0  0  0  0  0  0  0  0
   -7.6062   14.7540  -34.7553 H   0  0  0  0  0  0  0  0  0  0  0  0
   -5.8872   14.2328  -34.7553 H   0  0  0  0  0  0  0  0  0  0  0  0
   -7.7783   17.0867  -32.8882 H   0  0  0  0  0  0  0  0  0  0  0  0
   -8.5113   19.5711  -33.3251 H   0  0  0  0  0  0  0  0  0  0  0  0
   -8.9963   21.8089  -32.2889 H   0  0  0  0  0  0  0  0  0  0  0  0
   -7.7577   24.0304  -30.9863 H   0  0  0  0  0  0  0  0  0  0  0  0
   -2.9840   25.2990  -30.5730 H   0  0  0  0  0  0  0  0  0  0  0  0
   -1.2641   21.8538  -32.4684 H   0  0  0  0  0  0  0  0  0  0  0  0
   -0.8982   20.3680  -31.5320 H   0  0  0  0  0  0  0  0  0  0  0  0
   -4.2692   20.0910  -32.4533 H   0  0  0  0  0  0  0  0  0  0  0  0
   -4.1683   18.6468  -34.6488 H   0  0  0  0  0  0  0  0  0  0  0  0
   -4.4330   16.1270  -35.2440 H   0  0  0  0  0  0  0  0  0  0  0  0
  1  2  1  0
  2  3  1  0
  3  4  2  0
  4  5  1  0
  5  6  2  0
  6  7  1  0
  7  8  2  0
  8  9  1  0
  9 10  2  0
 10 11  1  0
 11 12  1  0
 11 13  2  0
 10 14  1  0
 14 15  1  0
 15 16  2  0
 15 17  1  0
 17 18  1  0
 18 19  1  0
 19 20  2  0
 19 21  1  0
 14 22  1  0
 22 23  2  0
  4 24  1  0
 24 25  2  0
 25  2  1  0
 23  5  1  0
 22  8  1  0
  1 26  1  0
  1 27  1  0
  1 28  1  0
  3 29  1  0
  6 30  1  0
  7 31  1  0
  9 32  1  0
 12 33  1  0
 18 34  1  0
 18 35  1  0
 23 36  1  0
 24 37  1  0
 25 38  1  0
M  CHG  3  12  -1  21  -1  25   1
M  END
>  <UniqueID>  (10) 
10

>  <SMILES>  (10) 
Cn1cc(-c2ccc3cc(C([NH-])=O)n(C(=O)OCC(=O)[S-])c3c2)c[nH+]1

>  <Energy>  (10) 
107.10758983087655

>  <Genealogy>  (10) 
Cn1cc(-c2ccc3cc(C([NH-])=O)n(C(=O)OCC(=O)[S-])c3c2)c[nH+]1 (protonated)
Cn1cc(-c2ccc3cc(C([NH-])=O)n(C(=O)OCC(=O)[S-])c3c2)c[nH+]1 (3D coordinates assigned)
Cn1cc(-c2ccc3cc(C([NH-])=O)n(C(=O)OCC(=O)[S-])c3c2)c[nH+]1 (optimized conformer: 107.10758983087655 kcal/mol)

>  <smiles>  (10) 
Cn1cc(-c2ccc3cc(C(N)=O)n(C(=O)OCC(=O)S)c3c2)cn1

>  <score_type>  (10) 
oracle

>  <origin>  (10) 
adg

>  <m_score__min__energy>  (10) 
-11.6

>  <m_primary>  (10) 
energy

$$$$
10:0
     RDKit          3D

 44 45  0  0  0  0  0  0  0  0999 V2000
   -9.4670   22.2960  -31.6000 C   0  0  0  0  0  0  0  0  0  0  0  0
   -8.1650   22.9890  -31.9910 C   0  0  0  0  0  0  0  0  0  0  0  0
   -7.1180   22.7580  -30.9440 C   0  0  0  0  0  0  0  0  0  0  0  0
   -7.4310   22.8220  -29.7250 O   0  0  0  0  0  0  0  0  0  0  0  0
   -5.7440   22.5740  -31.3160 N   0  0  0  0  0  0  0  0  0  0  0  0
   -4.6760   23.3490  -30.9830 C   0  0  0  0  0  0  0  0  0  0  0  0
   -4.7500   24.6360  -30.2550 C   0  0  0  0  0  0  0  0  0  0  0  0
   -5.4190   24.7300  -28.9960 N   0  0  0  0  0  0  0  0  0  0  0  0
   -4.2060   25.6650  -30.7370 O   0  0  0  0  0  0  0  0  0  0  0  0
   -3.5020   22.8010  -31.5010 C   0  0  0  0  0  0  0  0  0  0  0  0
   -3.8950   21.6590  -32.1650 C   0  0  0  0  0  0  0  0  0  0  0  0
   -3.1410   20.7200  -32.8600 C   0  0  0  0  0  0  0  0  0  0  0  0
   -3.8130   19.6280  -33.4320 C   0  0  0  0  0  0  0  0  0  0  0  0
   -5.2230   19.4840  -33.3030 C   0  0  0  0  0  0  0  0  0  0  0  0
   -5.8990   18.3500  -33.9000 N   0  0  0  0  0  0  0  0  0  0  0  0
   -5.3160   17.7040  -35.0820 C   0  0  0  0  0  0  0  0  0  0  0  0
   -7.1270   17.7900  -33.3060 C   0  0  0  0  0  0  0  0  0  0  0  0
   -7.1360   17.8980  -31.7700 C   0  0  0  0  0  0  0  0  0  0  0  0
   -8.3810   18.6080  -31.2190 C   0  0  0  0  0  0  0  0  0  0  0  0
   -9.3490   18.9710  -32.3060 C   0  0  0  0  0  0  0  0  0  0  0  0
   -9.1060   19.8930  -33.0670 O   0  0  0  0  0  0  0  0  0  0  0  0
   -5.9490   20.4650  -32.5820 C   0  0  0  0  0  0  0  0  0  0  0  0
   -5.2520   21.5460  -32.0370 C   0  0  0  0  0  0  0  0  0  0  0  0
   -9.5453   22.2543  -30.5036 H   0  0  0  0  0  0  0  0  0  0  0  0
  -10.3192   22.8599  -32.0073 H   0  0  0  0  0  0  0  0  0  0  0  0
   -9.4752   21.2742  -32.0073 H   0  0  0  0  0  0  0  0  0  0  0  0
   -7.8130   22.5847  -32.9515 H   0  0  0  0  0  0  0  0  0  0  0  0
   -8.3482   24.0699  -32.0815 H   0  0  0  0  0  0  0  0  0  0  0  0
   -5.4330   25.6360  -28.4770 H   0  0  0  0  0  0  0  0  0  0  0  0
   -5.9370   23.9180  -28.5920 H   0  0  0  0  0  0  0  0  0  0  0  0
   -2.4804   23.1963  -31.4008 H   0  0  0  0  0  0  0  0  0  0  0  0
   -2.0509   20.8294  -32.9587 H   0  0  0  0  0  0  0  0  0  0  0  0
   -3.2405   18.8716  -33.9888 H   0  0  0  0  0  0  0  0  0  0  0  0
   -4.6108   16.9226  -34.7624 H   0  0  0  0  0  0  0  0  0  0  0  0
   -6.1169   17.2509  -35.6847 H   0  0  0  0  0  0  0  0  0  0  0  0
   -4.7834   18.4544  -35.6847 H   0  0  0  0  0  0  0  0  0  0  0  0
   -7.9939   18.3377  -33.7041 H   0  0  0  0  0  0  0  0  0  0  0  0
   -7.1707   16.7226  -33.5682 H   0  0  0  0  0  0  0  0  0  0  0  0
   -7.0976   16.8828  -31.3483 H   0  0  0  0  0  0  0  0  0  0  0  0
   -6.2622   18.5002  -31.4803 H   0  0  0  0  0  0  0  0  0  0  0  0
   -8.8838   17.9396  -30.5045 H   0  0  0  0  0  0  0  0  0  0  0  0
   -8.0535   19.5381  -30.7316 H   0  0  0  0  0  0  0  0  0  0  0  0
  -10.2839   18.4022  -32.4176 H   0  0  0  0  0  0  0  0  0  0  0  0
   -7.0380   20.3769  -32.4544 H   0  0  0  0  0  0  0  0  0  0  0  0
  1  2  1  0
  2  3  1  0
  3  4  2  0
  3  5  1  0
  5  6  1  0
  6  7  1  0
  7  8  1  0
  7  9  2  0
  6 10  2  0
 10 11  1  0
 11 12  2  0
 12 13  1  0
 13 14  2  0
 14 15  1  0
 15 16  1  0
 15 17  1  0
 17 18  1  0
 18 19  1  0
 19 20  1  0
 20 21  2  0
 14 22  1  0
 22 23  2  0
 23  5  1  0
 23 11  1  0
  1 24  1  0
  1 25  1  0
  1 26  1  0
  2 27  1  0
  2 28  1  0
  8 29  1  0
  8 30  1  0
 10 31  1  0
 12 32  1  0
 13 33  1  0
 16 34  1  0
 16 35  1  0
 16 36  1  0
 17 37  1  0
 17 38  1  0
 18 39  1  0
 18 40  1  0
 19 41  1  0
 19 42  1  0
 20 43  1  0
 22 44  1  0
M  END
>  <UniqueID>  (11) 
11

>  <SMILES>  (11) 
CCC(=O)n1c(C(N)=O)cc2ccc(N(C)CCCC=O)cc21

>  <Energy>  (11) 
76.98967373755075

>  <Genealogy>  (11) 
CCC(=O)n1c(C(N)=O)cc2ccc(N(C)CCCC=O)cc21 (3D coordinates assigned)
CCC(=O)n1c(C(N)=O)cc2ccc(N(C)CCCC=O)cc21 (optimized conformer: 76.98967373755075 kcal/mol)

>  <smiles>  (11) 
CCC(=O)n1c(C(N)=O)cc2ccc(N(C)CCCC=O)cc21

>  <score_type>  (11) 
oracle

>  <origin>  (11) 
adg

>  <m_score__min__energy>  (11) 
-8.2899999999999991

>  <m_primary>  (11) 
energy

$$$$
11:0
     RDKit          3D

 26 27  0  0  0  0  0  0  0  0999 V2000
   -4.1730   25.5000  -30.6900 N   0  0  0  0  0  0  0  0  0  0  0  0
   -5.4730   24.9940  -30.3820 C   0  0  0  0  0  0  0  0  0  0  0  0
   -6.2040   25.6250  -29.5730 O   0  0  0  0  0  0  0  0  0  0  0  0
   -5.9480   23.7130  -30.9420 C   0  0  0  0  0  0  0  0  0  0  0  0
   -7.2940   23.4020  -31.1050 C   0  0  0  0  0  0  0  0  0  0  0  0
   -7.3120   22.1150  -31.5920 C   0  0  0  0  0  0  0  0  0  0  0  0
   -8.3900   21.3150  -31.9590 C   0  0  0  0  0  0  0  0  0  0  0  0
   -8.1170   20.0390  -32.4770 C   0  0  0  0  0  0  0  0  0  0  0  0
   -6.7800   19.5820  -32.6130 C   0  0  0  0  0  0  0  0  0  0  0  0
   -6.4980   18.2370  -33.2330 C   0  0  0  0  0  0  0  0  0  0  0  0
   -7.6190   17.4270  -33.1730 F   0  0  0  0  0  0  0  0  0  0  0  0
   -6.1380   18.3770  -34.5620 F   0  0  0  0  0  0  0  0  0  0  0  0
   -5.4650   17.6270  -32.5470 F   0  0  0  0  0  0  0  0  0  0  0  0
   -5.7110   20.4360  -32.2530 C   0  0  0  0  0  0  0  0  0  0  0  0
   -6.0140   21.6940  -31.7180 C   0  0  0  0  0  0  0  0  0  0  0  0
   -5.1610   22.6690  -31.3260 N   0  0  0  0  0  0  0  0  0  0  0  0
   -3.7270   22.6400  -31.4130 C   0  0  0  0  0  0  0  0  0  0  0  0
   -3.1650   22.0880  -32.3980 O   0  0  0  0  0  0  0  0  0  0  0  0
   -2.9540   23.2190  -30.4080 O   0  0  0  0  0  0  0  0  0  0  0  0
   -3.1020   22.6460  -28.4340 I   0  0  0  0  0  0  0  0  0  0  0  0
   -3.4810   24.9230  -31.2160 H   0  0  0  0  0  0  0  0  0  0  0  0
   -3.8690   26.4260  -30.3160 H   0  0  0  0  0  0  0  0  0  0  0  0
   -8.1590   24.0468  -30.8905 H   0  0  0  0  0  0  0  0  0  0  0  0
   -9.4245   21.6716  -31.8466 H   0  0  0  0  0  0  0  0  0  0  0  0
   -8.9485   19.3861  -32.7809 H   0  0  0  0  0  0  0  0  0  0  0  0
   -4.6666   20.1192  -32.3901 H   0  0  0  0  0  0  0  0  0  0  0  0
  1  2  1  0
  2  3  2  0
  2  4  1  0
  4  5  2  0
  5  6  1  0
  6  7  2  0
  7  8  1  0
  8  9  2  0
  9 10  1  0
 10 11  1  0
 10 12  1  0
 10 13  1  0
  9 14  1  0
 14 15  2  0
 15 16  1  0
 16 17  1  0
 17 18  2  0
 17 19  1  0
 19 20  1  0
 16  4  1  0
 15  6  1  0
  1 21  1  0
  1 22  1  0
  5 23  1  0
  7 24  1  0
  8 25  1  0
 14 26  1  0
M  END
>  <UniqueID>  (12) 
12

>  <SMILES>  (12) 
NC(=O)c1cc2ccc(C(F)(F)F)cc2n1C(=O)OI

>  <Energy>  (12) 
66.6250492141536

>  <Genealogy>  (12) 
NC(=O)c1cc2ccc(C(F)(F)F)cc2n1C(=O)OI (3D coordinates assigned)
NC(=O)c1cc2ccc(C(F)(F)F)cc2n1C(=O)OI (optimized conformer: 66.6250492141536 kcal/mol)

>  <smiles>  (12) 
NC(=O)c1cc2ccc(C(F)(F)F)cc2n1C(=O)OI

>  <score_type>  (12) 
oracle

>  <origin>  (12) 
adg

>  <m_score__min__energy>  (12) 
-8.1199999999999992

>  <m_primary>  (12) 
energy

$$$$
12:0
     RDKit          3D

 50 52  0  0  0  0  0  0  0  0999 V2000
   -1.7390   20.8800  -33.1330 C   0  0  0  0  0  0  0  0  0  0  0  0
   -3.0310   21.1540  -32.3480 C   0  0  0  0  0  0  0  0  0  0  0  0
   -3.8900   22.1610  -33.1380 C   0  0  0  0  0  0  0  0  0  0  0  0
   -2.6620   21.7210  -30.9640 C   0  0  0  0  0  0  0  0  0  0  0  0
   -3.7170   19.9020  -32.2130 O   0  0  0  0  0  0  0  0  0  0  0  0
   -4.5410   19.2960  -33.1730 C   0  0  0  0  0  0  0  0  0  0  0  0
   -4.0920   18.9930  -34.3120 O   0  0  0  0  0  0  0  0  0  0  0  0
   -5.9140   19.0210  -32.8540 N   0  0  0  0  0  0  0  0  0  0  0  0
   -6.5990   17.8600  -33.0530 C   0  0  0  0  0  0  0  0  0  0  0  0
   -6.0160   16.5790  -33.5000 C   0  0  0  0  0  0  0  0  0  0  0  0
   -4.6020   16.4000  -33.5910 N   0  0  0  0  0  0  0  0  0  0  0  0
   -6.7780   15.6080  -33.7530 O   0  0  0  0  0  0  0  0  0  0  0  0
   -7.9430   18.0200  -32.7320 C   0  0  0  0  0  0  0  0  0  0  0  0
   -8.0630   19.3240  -32.3080 C   0  0  0  0  0  0  0  0  0  0  0  0
   -9.1880   20.0290  -31.8880 C   0  0  0  0  0  0  0  0  0  0  0  0
   -9.0290   21.3830  -31.5520 C   0  0  0  0  0  0  0  0  0  0  0  0
   -7.7580   22.0050  -31.6410 C   0  0  0  0  0  0  0  0  0  0  0  0
   -7.6100   23.4690  -31.3310 C   0  0  0  0  0  0  0  0  0  0  0  0
   -7.0840   23.6650  -29.9080 C   0  0  0  0  0  0  0  0  0  0  0  0
   -5.6970   24.2280  -29.9330 C   0  0  0  0  0  0  0  0  0  0  0  0
   -5.1450   25.0480  -30.9020 C   0  0  0  0  0  0  0  0  0  0  0  0
   -3.8500   25.2710  -30.6050 N   0  0  0  0  0  0  0  0  0  0  0  0
   -3.5800   24.6110  -29.4900 N   0  0  0  0  0  0  0  0  0  0  0  0
   -2.0060   24.5990  -28.7230 S   0  0  0  0  0  0  0  0  0  0  0  0
   -2.3100   24.9480  -27.2720 O   0  0  0  0  0  0  0  0  0  0  0  0
   -1.2490   25.9950  -29.3340 O   0  0  0  0  0  0  0  0  0  0  0  0
   -4.6710   23.9580  -29.0540 C   0  0  0  0  0  0  0  0  0  0  0  0
   -6.6430   21.2620  -32.0850 C   0  0  0  0  0  0  0  0  0  0  0  0
   -6.8240   19.9080  -32.3930 C   0  0  0  0  0  0  0  0  0  0  0  0
   -0.9123   20.7047  -32.4288 H   0  0  0  0  0  0  0  0  0  0  0  0
   -1.8762   19.9910  -33.7661 H   0  0  0  0  0  0  0  0  0  0  0  0
   -1.5035   21.7482  -33.7661 H   0  0  0  0  0  0  0  0  0  0  0  0
   -4.4393   22.8049  -32.4354 H   0  0  0  0  0  0  0  0  0  0  0  0
   -3.2386   22.7812  -33.7712 H   0  0  0  0  0  0  0  0  0  0  0  0
   -4.6052   21.6155  -33.7712 H   0  0  0  0  0  0  0  0  0  0  0  0
   -3.0824   21.0750  -30.1792 H   0  0  0  0  0  0  0  0  0  0  0  0
   -1.5673   21.7565  -30.8623 H   0  0  0  0  0  0  0  0  0  0  0  0
   -3.0728   22.7363  -30.8623 H   0  0  0  0  0  0  0  0  0  0  0  0
   -3.9420   17.1230  -33.2290 H   0  0  0  0  0  0  0  0  0  0  0  0
   -4.2090   15.4990  -33.9440 H   0  0  0  0  0  0  0  0  0  0  0  0
   -8.7401   17.2652  -32.8021 H   0  0  0  0  0  0  0  0  0  0  0  0
  -10.1711   19.5401  -31.8215 H   0  0  0  0  0  0  0  0  0  0  0  0
   -9.8989   21.9668  -31.2165 H   0  0  0  0  0  0  0  0  0  0  0  0
   -6.9036   23.9202  -32.0434 H   0  0  0  0  0  0  0  0  0  0  0  0
   -8.5947   23.9519  -31.4159 H   0  0  0  0  0  0  0  0  0  0  0  0
   -7.7464   24.3590  -29.3699 H   0  0  0  0  0  0  0  0  0  0  0  0
   -7.0622   22.6896  -29.4000 H   0  0  0  0  0  0  0  0  0  0  0  0
   -5.6783   25.4527  -31.7748 H   0  0  0  0  0  0  0  0  0  0  0  0
   -4.7334   23.3231  -28.1579 H   0  0  0  0  0  0  0  0  0  0  0  0
   -5.6553   21.7354  -32.1867 H   0  0  0  0  0  0  0  0  0  0  0  0
  1  2  1  0
  2  3  1  0
  2  4  1  0
  2  5  1  0
  5  6  1  0
  6  7  2  0
  6  8  1  0
  8  9  1  0
  9 10  1  0
 10 11  1  0
 10 12  2  0
  9 13  2  0
 13 14  1  0
 14 15  2  0
 15 16  1  0
 16 17  2  0
 17 18  1  0
 18 19  1  0
 19 20  1  0
 20 21  1  0
 21 22  2  0
 22 23  1  0
 23 24  1  0
 24 25  2  0
 24 26  1  6
 23 27  1  0
 17 28  1  0
 28 29  2  0
 29  8  1  0
 29 14  1  0
 27 20  2  0
  1 30  1  0
  1 31  1  0
  1 32  1  0
  3 33  1  0
  3 34  1  0
  3 35  1  0
  4 36  1  0
  4 37  1  0
  4 38  1  0
 11 39  1  0
 11 40  1  0
 13 41  1  0
 15 42  1  0
 16 43  1  0
 18 44  1  0
 18 45  1  0
 19 46  1  0
 19 47  1  0
 21 48  1  0
 27 49  1  0
 28 50  1  0
M  CHG  1  26  -1
M  END
>  <UniqueID>  (13) 
13

>  <SMILES>  (13) 
CC(C)(C)OC(=O)n1c(C(N)=O)cc2ccc(CCc3cnn([S@](=O)[O-])c3)cc21

>  <Energy>  (13) 
112.55976119606265

>  <Genealogy>  (13) 
CC(C)(C)OC(=O)n1c(C(N)=O)cc2ccc(CCc3cnn(S(=O)[O-])c3)cc21 (protonated)
CC(C)(C)OC(=O)n1c(C(N)=O)cc2ccc(CCc3cnn([S@](=O)[O-])c3)cc21 (chirality)
CC(C)(C)OC(=O)n1c(C(N)=O)cc2ccc(CCc3cnn([S@](=O)[O-])c3)cc21 (3D coordinates assigned)
CC(C)(C)OC(=O)n1c(C(N)=O)cc2ccc(CCc3cnn([S@](=O)[O-])c3)cc21 (optimized conformer: 112.55976119606265 kcal/mol)

>  <smiles>  (13) 
CC(C)(C)OC(=O)n1c(C(N)=O)cc2ccc(CCc3cnn(S(=O)O)c3)cc21

>  <score_type>  (13) 
oracle

>  <origin>  (13) 
adg

>  <m_score__min__energy>  (13) 
-12.31

>  <m_primary>  (13) 
energy

$$$$
13:0
     RDKit          3D

 43 44  0  0  0  0  0  0  0  0999 V2000
   -9.4710   19.6810  -33.0780 C   0  0  0  0  0  0  0  0  0  0  0  0
   -9.3760   19.5690  -31.6130 N   0  0  0  0  0  0  0  0  0  0  0  0
   -8.3630   18.5560  -31.2670 C   0  0  0  0  0  0  0  0  0  0  0  0
   -9.0350   20.8850  -31.0270 C   0  0  0  0  0  0  0  0  0  0  0  0
   -9.0400   22.0140  -32.0760 C   0  0  0  0  0  0  0  0  0  0  0  0
   -8.0740   23.1660  -31.7540 C   0  0  0  0  0  0  0  0  0  0  0  0
   -7.0320   22.7630  -30.7470 C   0  0  0  0  0  0  0  0  0  0  0  0
   -7.3560   22.6450  -29.5350 O   0  0  0  0  0  0  0  0  0  0  0  0
   -5.6920   22.4450  -31.1600 N   0  0  0  0  0  0  0  0  0  0  0  0
   -4.5640   23.1920  -30.9960 C   0  0  0  0  0  0  0  0  0  0  0  0
   -4.4390   24.4050  -30.1640 C   0  0  0  0  0  0  0  0  0  0  0  0
   -5.2270   24.5840  -28.9850 N   0  0  0  0  0  0  0  0  0  0  0  0
   -3.5910   25.2840  -30.4750 O   0  0  0  0  0  0  0  0  0  0  0  0
   -3.5000   22.6300  -31.6990 C   0  0  0  0  0  0  0  0  0  0  0  0
   -4.0110   21.4980  -32.2900 C   0  0  0  0  0  0  0  0  0  0  0  0
   -3.4030   20.5790  -33.1400 C   0  0  0  0  0  0  0  0  0  0  0  0
   -4.1930   19.5380  -33.6580 C   0  0  0  0  0  0  0  0  0  0  0  0
   -5.5640   19.4310  -33.3120 C   0  0  0  0  0  0  0  0  0  0  0  0
   -6.4150   18.3530  -33.9180 C   0  0  0  0  0  0  0  0  0  0  0  0
   -6.0130   17.0460  -33.3870 C   0  0  0  0  0  0  0  0  0  0  0  0
   -5.6940   16.0150  -32.9690 N   0  0  0  0  0  0  0  0  0  0  0  0
   -6.1450   20.3820  -32.4450 C   0  0  0  0  0  0  0  0  0  0  0  0
   -5.3340   21.4060  -31.9430 C   0  0  0  0  0  0  0  0  0  0  0  0
  -10.1622   20.4958  -33.3394 H   0  0  0  0  0  0  0  0  0  0  0  0
   -8.4760   19.8964  -33.4946 H   0  0  0  0  0  0  0  0  0  0  0  0
   -9.8458   18.7344  -33.4946 H   0  0  0  0  0  0  0  0  0  0  0  0
   -8.2831   18.4761  -30.1728 H   0  0  0  0  0  0  0  0  0  0  0  0
   -8.6600   17.5828  -31.6850 H   0  0  0  0  0  0  0  0  0  0  0  0
   -7.3898   18.8530  -31.6850 H   0  0  0  0  0  0  0  0  0  0  0  0
   -9.7712   21.1253  -30.2458 H   0  0  0  0  0  0  0  0  0  0  0  0
   -8.0178   20.8150  -30.6143 H   0  0  0  0  0  0  0  0  0  0  0  0
   -8.7560   21.5850  -33.0483 H   0  0  0  0  0  0  0  0  0  0  0  0
  -10.0543   22.4396  -32.0831 H   0  0  0  0  0  0  0  0  0  0  0  0
   -7.5703   23.4767  -32.6812 H   0  0  0  0  0  0  0  0  0  0  0  0
   -8.6607   23.9912  -31.3240 H   0  0  0  0  0  0  0  0  0  0  0  0
   -5.1680   25.4760  -28.4470 H   0  0  0  0  0  0  0  0  0  0  0  0
   -5.8040   23.8060  -28.5960 H   0  0  0  0  0  0  0  0  0  0  0  0
   -2.4703   23.0108  -31.7668 H   0  0  0  0  0  0  0  0  0  0  0  0
   -2.3372   20.6645  -33.3985 H   0  0  0  0  0  0  0  0  0  0  0  0
   -3.7435   18.7995  -34.3381 H   0  0  0  0  0  0  0  0  0  0  0  0
   -7.4707   18.5387  -33.6708 H   0  0  0  0  0  0  0  0  0  0  0  0
   -6.2840   18.3575  -35.0102 H   0  0  0  0  0  0  0  0  0  0  0  0
   -7.2085   20.3195  -32.1710 H   0  0  0  0  0  0  0  0  0  0  0  0
  1  2  1  0
  2  3  1  0
  2  4  1  0
  4  5  1  0
  5  6  1  0
  6  7  1  0
  7  8  2  0
  7  9  1  0
  9 10  1  0
 10 11  1  0
 11 12  1  0
 11 13  2  0
 10 14  2  0
 14 15  1  0
 15 16  2  0
 16 17  1  0
 17 18  2  0
 18 19  1  0
 19 20  1  0
 20 21  3  0
 18 22  1  0
 22 23  2  0
 23  9  1  0
 23 15  1  0
  1 24  1  0
  1 25  1  0
  1 26  1  0
  3 27  1  0
  3 28  1  0
  3 29  1  0
  4 30  1  0
  4 31  1  0
  5 32  1  0
  5 33  1  0
  6 34  1  0
  6 35  1  0
 12 36  1  0
 12 37  1  0
 14 38  1  0
 16 39  1  0
 17 40  1  0
 19 41  1  0
 19 42  1  0
 22 43  1  0
M  END
>  <UniqueID>  (14) 
14

>  <SMILES>  (14) 
CN(C)CCCC(=O)n1c(C(N)=O)cc2ccc(CC#N)cc21

>  <Energy>  (14) 
74.52999935656663

>  <Genealogy>  (14) 
CN(C)CCCC(=O)n1c(C(N)=O)cc2ccc(CC#N)cc21 (3D coordinates assigned)
CN(C)CCCC(=O)n1c(C(N)=O)cc2ccc(CC#N)cc21 (optimized conformer: 74.52999935656663 kcal/mol)

>  <smiles>  (14) 
CN(C)CCCC(=O)n1c(C(N)=O)cc2ccc(CC#N)cc21

>  <score_type>  (14) 
oracle

>  <origin>  (14) 
adg

>  <m_score__min__energy>  (14) 
-9.0399999999999991

>  <m_primary>  (14) 
energy

$$$$
14:0
     RDKit          3D

 34 35  0  0  0  0  0  0  0  0999 V2000
   -1.2980   21.6160  -30.9450 C   0  0  0  0  0  0  0  0  0  0  0  0
   -1.1560   21.5330  -32.4610 C   0  0  0  0  0  0  0  0  0  0  0  0
   -2.4300   21.3510  -33.0750 O   0  0  0  0  0  0  0  0  0  0  0  0
   -3.2410   20.2310  -32.8530 C   0  0  0  0  0  0  0  0  0  0  0  0
   -2.7380   19.0740  -32.8410 O   0  0  0  0  0  0  0  0  0  0  0  0
   -4.6540   20.4010  -32.6600 N   0  0  0  0  0  0  0  0  0  0  0  0
   -5.6660   19.7570  -33.3090 C   0  0  0  0  0  0  0  0  0  0  0  0
   -5.5010   18.6330  -34.2580 C   0  0  0  0  0  0  0  0  0  0  0  0
   -4.6330   17.5400  -33.9510 N   0  0  0  0  0  0  0  0  0  0  0  0
   -6.1040   18.6450  -35.3640 O   0  0  0  0  0  0  0  0  0  0  0  0
   -6.9030   20.2370  -32.8810 C   0  0  0  0  0  0  0  0  0  0  0  0
   -6.6150   21.2010  -31.9420 C   0  0  0  0  0  0  0  0  0  0  0  0
   -7.4710   22.0040  -31.1930 C   0  0  0  0  0  0  0  0  0  0  0  0
   -6.8970   22.9310  -30.3070 C   0  0  0  0  0  0  0  0  0  0  0  0
   -5.4890   23.0500  -30.2000 C   0  0  0  0  0  0  0  0  0  0  0  0
   -4.8870   24.0330  -29.2350 C   0  0  0  0  0  0  0  0  0  0  0  0
   -3.9260   24.9290  -29.9480 C   0  0  0  0  0  0  0  0  0  0  0  0
   -4.1840   25.3370  -31.1110 O   0  0  0  0  0  0  0  0  0  0  0  0
   -2.7220   25.2740  -29.3490 O   0  0  0  0  0  0  0  0  0  0  0  0
   -4.6530   22.2100  -30.9680 C   0  0  0  0  0  0  0  0  0  0  0  0
   -5.2510   21.2810  -31.8270 C   0  0  0  0  0  0  0  0  0  0  0  0
   -0.4420   21.1157  -30.4686 H   0  0  0  0  0  0  0  0  0  0  0  0
   -1.3240   22.6715  -30.6364 H   0  0  0  0  0  0  0  0  0  0  0  0
   -2.2304   21.1207  -30.6364 H   0  0  0  0  0  0  0  0  0  0  0  0
   -0.7049   22.4646  -32.8334 H   0  0  0  0  0  0  0  0  0  0  0  0
   -0.5159   20.6740  -32.7108 H   0  0  0  0  0  0  0  0  0  0  0  0
   -4.1590   17.4660  -33.0250 H   0  0  0  0  0  0  0  0  0  0  0  0
   -4.4940   16.7720  -34.6450 H   0  0  0  0  0  0  0  0  0  0  0  0
   -7.8978   19.9139  -33.2215 H   0  0  0  0  0  0  0  0  0  0  0  0
   -8.5630   21.9153  -31.2919 H   0  0  0  0  0  0  0  0  0  0  0  0
   -7.5464   23.5702  -29.6908 H   0  0  0  0  0  0  0  0  0  0  0  0
   -5.6875   24.6404  -28.7875 H   0  0  0  0  0  0  0  0  0  0  0  0
   -4.3506   23.4828  -28.4479 H   0  0  0  0  0  0  0  0  0  0  0  0
   -3.5581   22.2841  -30.8928 H   0  0  0  0  0  0  0  0  0  0  0  0
  1  2  1  0
  2  3  1  0
  3  4  1  0
  4  5  2  0
  4  6  1  0
  6  7  1  0
  7  8  1  0
  8  9  1  0
  8 10  2  0
  7 11  2  0
 11 12  1  0
 12 13  2  0
 13 14  1  0
 14 15  2  0
 15 16  1  0
 16 17  1  0
 17 18  2  0
 17 19  1  0
 15 20  1  0
 20 21  2  0
 21  6  1  0
 21 12  1  0
  1 22  1  0
  1 23  1  0
  1 24  1  0
  2 25  1  0
  2 26  1  0
  9 27  1  0
  9 28  1  0
 11 29  1  0
 13 30  1  0
 14 31  1  0
 16 32  1  0
 16 33  1  0
 20 34  1  0
M  CHG  1  19  -1
M  END
>  <UniqueID>  (15) 
15

>  <SMILES>  (15) 
CCOC(=O)n1c(C(N)=O)cc2ccc(CC(=O)[O-])cc21

>  <Energy>  (15) 
67.05409981860652

>  <Genealogy>  (15) 
CCOC(=O)n1c(C(N)=O)cc2ccc(CC(=O)[O-])cc21 (protonated)
CCOC(=O)n1c(C(N)=O)cc2ccc(CC(=O)[O-])cc21 (3D coordinates assigned)
CCOC(=O)n1c(C(N)=O)cc2ccc(CC(=O)[O-])cc21 (optimized conformer: 67.05409981860652 kcal/mol)

>  <smiles>  (15) 
CCOC(=O)n1c(C(N)=O)cc2ccc(CC(=O)O)cc21

>  <score_type>  (15) 
oracle

>  <origin>  (15) 
adg

>  <m_score__min__energy>  (15) 
-9.1500000000000004

>  <m_primary>  (15) 
energy

$$$$
15:0
     RDKit          3D

 47 49  0  0  0  0  0  0  0  0999 V2000
   -2.5410   19.7670  -33.7220 C   0  0  0  0  0  0  0  0  0  0  0  0
   -2.2180   20.8380  -32.6830 C   0  0  0  0  0  0  0  0  0  0  0  0
   -3.1150   21.9430  -32.7890 O   0  0  0  0  0  0  0  0  0  0  0  0
   -3.6580   22.6170  -31.6850 C   0  0  0  0  0  0  0  0  0  0  0  0
   -2.8950   23.1850  -30.8610 O   0  0  0  0  0  0  0  0  0  0  0  0
   -5.0890   22.6210  -31.4820 N   0  0  0  0  0  0  0  0  0  0  0  0
   -5.8400   23.6350  -30.9540 C   0  0  0  0  0  0  0  0  0  0  0  0
   -5.3320   24.8330  -30.2660 C   0  0  0  0  0  0  0  0  0  0  0  0
   -5.8600   25.2520  -29.0070 N   0  0  0  0  0  0  0  0  0  0  0  0
   -4.4770   25.5580  -30.8450 O   0  0  0  0  0  0  0  0  0  0  0  0
   -7.1950   23.3550  -31.0640 C   0  0  0  0  0  0  0  0  0  0  0  0
   -7.2680   22.1160  -31.6540 C   0  0  0  0  0  0  0  0  0  0  0  0
   -8.3810   21.3570  -31.9910 C   0  0  0  0  0  0  0  0  0  0  0  0
   -8.1720   20.1080  -32.5840 C   0  0  0  0  0  0  0  0  0  0  0  0
   -6.8590   19.6300  -32.8290 C   0  0  0  0  0  0  0  0  0  0  0  0
   -6.6390   18.2710  -33.4750 C   0  0  0  0  0  0  0  0  0  0  0  0
   -5.7830   18.3800  -34.7680 C   0  0  0  0  0  0  0  0  0  0  0  0
   -4.6480   17.3480  -34.8070 C   0  0  0  0  0  0  0  0  0  0  0  0
   -5.1640   16.0090  -34.4700 N   0  0  0  0  0  0  0  0  0  0  0  0
   -4.1140   14.9960  -34.6750 C   0  0  0  0  0  0  0  0  0  0  0  0
   -5.7400   15.9210  -33.1010 C   0  0  0  0  0  0  0  0  0  0  0  0
   -6.0450   17.2870  -32.4540 C   0  0  0  0  0  0  0  0  0  0  0  0
   -5.7500   20.4400  -32.4920 C   0  0  0  0  0  0  0  0  0  0  0  0
   -5.9820   21.6850  -31.8880 C   0  0  0  0  0  0  0  0  0  0  0  0
   -2.8224   18.8341  -33.2116 H   0  0  0  0  0  0  0  0  0  0  0  0
   -3.3766   20.1070  -34.3515 H   0  0  0  0  0  0  0  0  0  0  0  0
   -1.6568   19.5883  -34.3515 H   0  0  0  0  0  0  0  0  0  0  0  0
   -2.3039   20.4006  -31.6774 H   0  0  0  0  0  0  0  0  0  0  0  0
   -1.1946   21.2001  -32.8607 H   0  0  0  0  0  0  0  0  0  0  0  0
   -5.5040   26.1180  -28.5460 H   0  0  0  0  0  0  0  0  0  0  0  0
   -6.6770   24.7590  -28.5860 H   0  0  0  0  0  0  0  0  0  0  0  0
   -8.0341   23.9911  -30.7458 H   0  0  0  0  0  0  0  0  0  0  0  0
   -9.3983   21.7278  -31.7969 H   0  0  0  0  0  0  0  0  0  0  0  0
   -9.0366   19.4883  -32.8640 H   0  0  0  0  0  0  0  0  0  0  0  0
   -7.6142   17.8726  -33.7915 H   0  0  0  0  0  0  0  0  0  0  0  0
   -6.4361   18.2199  -35.6385 H   0  0  0  0  0  0  0  0  0  0  0  0
   -5.3269   19.3809  -34.7849 H   0  0  0  0  0  0  0  0  0  0  0  0
   -4.2121   17.3256  -35.8167 H   0  0  0  0  0  0  0  0  0  0  0  0
   -3.8803   17.6317  -34.0720 H   0  0  0  0  0  0  0  0  0  0  0  0
   -3.7488   14.6437  -33.6990 H   0  0  0  0  0  0  0  0  0  0  0  0
   -4.5282   14.1476  -35.2395 H   0  0  0  0  0  0  0  0  0  0  0  0
   -3.2810   15.4404  -35.2395 H   0  0  0  0  0  0  0  0  0  0  0  0
   -6.6779   15.3491  -33.1576 H   0  0  0  0  0  0  0  0  0  0  0  0
   -4.9815   15.4349  -32.4698 H   0  0  0  0  0  0  0  0  0  0  0  0
   -6.7653   17.1424  -31.6353 H   0  0  0  0  0  0  0  0  0  0  0  0
   -5.1025   17.7086  -32.0746 H   0  0  0  0  0  0  0  0  0  0  0  0
   -4.7245   20.1004  -32.6995 H   0  0  0  0  0  0  0  0  0  0  0  0
  1  2  1  0
  2  3  1  0
  3  4  1  0
  4  5  2  0
  4  6  1  0
  6  7  1  0
  7  8  1  0
  8  9  1  0
  8 10  2  0
  7 11  2  0
 11 12  1  0
 12 13  2  0
 13 14  1  0
 14 15  2  0
 15 16  1  0
 16 17  1  0
 17 18  1  0
 18 19  1  0
 19 20  1  0
 19 21  1  0
 21 22  1  0
 15 23  1  0
 23 24  2  0
 24  6  1  0
 24 12  1  0
 22 16  1  0
  1 25  1  0
  1 26  1  0
  1 27  1  0
  2 28  1  0
  2 29  1  0
  9 30  1  0
  9 31  1  0
 11 32  1  0
 13 33  1  0
 14 34  1  0
 16 35  1  0
 17 36  1  0
 17 37  1  0
 18 38  1  0
 18 39  1  0
 20 40  1  0
 20 41  1  0
 20 42  1  0
 21 43  1  0
 21 44  1  0
 22 45  1  0
 22 46  1  0
 23 47  1  0
M  END
>  <UniqueID>  (16) 
16

>  <SMILES>  (16) 
CCOC(=O)n1c(C(N)=O)cc2ccc(C3CCN(C)CC3)cc21

>  <Energy>  (16) 
92.22544502474047

>  <Genealogy>  (16) 
CCOC(=O)n1c(C(N)=O)cc2ccc(C3CCN(C)CC3)cc21 (3D coordinates assigned)
CCOC(=O)n1c(C(N)=O)cc2ccc(C3CCN(C)CC3)cc21 (nonaromatic ring conformer: 92.22544502474047 kcal/mol)

>  <smiles>  (16) 
CCOC(=O)n1c(C(N)=O)cc2ccc(C3CCN(C)CC3)cc21

>  <score_type>  (16) 
oracle

>  <origin>  (16) 
adg

>  <m_score__min__energy>  (16) 
-9.5800000000000001

>  <m_primary>  (16) 
energy

$$$$
16:0
     RDKit          3D

 39 42  0  0  0  0  0  0  0  0999 V2000
   -5.0510   23.4600  -29.6750 C   0  0  0  0  0  0  0  0  0  0  0  0
   -3.8390   23.9740  -30.3870 C   0  0  0  0  0  0  0  0  0  0  0  0
   -3.8440   25.1500  -30.8390 O   0  0  0  0  0  0  0  0  0  0  0  0
   -2.6540   23.1710  -30.4990 N   0  0  0  0  0  0  0  0  0  0  0  0
   -1.4270   23.3980  -29.9500 C   0  0  0  0  0  0  0  0  0  0  0  0
   -1.0930   24.4750  -28.9960 C   0  0  0  0  0  0  0  0  0  0  0  0
   -1.8800   25.6630  -28.9600 N   0  0  0  0  0  0  0  0  0  0  0  0
   -0.0990   24.3710  -28.2300 O   0  0  0  0  0  0  0  0  0  0  0  0
   -0.5260   22.4110  -30.3450 C   0  0  0  0  0  0  0  0  0  0  0  0
   -1.2470   21.5600  -31.1520 C   0  0  0  0  0  0  0  0  0  0  0  0
   -0.8540   20.4010  -31.8150 C   0  0  0  0  0  0  0  0  0  0  0  0
   -1.8140   19.7250  -32.5870 C   0  0  0  0  0  0  0  0  0  0  0  0
   -3.1380   20.2250  -32.6930 C   0  0  0  0  0  0  0  0  0  0  0  0
   -4.1660   19.4740  -33.4910 C   0  0  0  0  0  0  0  0  0  0  0  0
   -5.5370   19.9120  -33.0930 C   0  0  0  0  0  0  0  0  0  0  0  0
   -5.9010   21.2150  -32.9980 N   0  0  0  0  0  0  0  0  0  0  0  0
   -7.1760   21.3310  -32.5470 C   0  0  0  0  0  0  0  0  0  0  0  0
   -7.8350   22.5450  -32.3500 C   0  0  0  0  0  0  0  0  0  0  0  0
   -9.1570   22.5250  -31.8710 C   0  0  0  0  0  0  0  0  0  0  0  0
   -9.7990   21.3000  -31.5950 C   0  0  0  0  0  0  0  0  0  0  0  0
   -9.1240   20.0860  -31.7960 C   0  0  0  0  0  0  0  0  0  0  0  0
   -7.8160   20.1320  -32.2730 C   0  0  0  0  0  0  0  0  0  0  0  0
   -6.7710   18.8610  -32.5960 S   0  0  0  0  0  0  0  0  0  0  0  0
   -3.5030   21.3980  -31.9960 C   0  0  0  0  0  0  0  0  0  0  0  0
   -2.5290   22.0420  -31.2260 C   0  0  0  0  0  0  0  0  0  0  0  0
   -4.8937   23.5267  -28.5883 H   0  0  0  0  0  0  0  0  0  0  0  0
   -5.9257   24.0646  -29.9567 H   0  0  0  0  0  0  0  0  0  0  0  0
   -5.2244   22.4109  -29.9567 H   0  0  0  0  0  0  0  0  0  0  0  0
   -2.8520   25.6740  -29.3390 H   0  0  0  0  0  0  0  0  0  0  0  0
    0.5360   22.3292  -30.0703 H   0  0  0  0  0  0  0  0  0  0  0  0
    0.1770   20.0255  -31.7370 H   0  0  0  0  0  0  0  0  0  0  0  0
   -1.5368   18.8000  -33.1139 H   0  0  0  0  0  0  0  0  0  0  0  0
   -4.0151   19.6754  -34.5618 H   0  0  0  0  0  0  0  0  0  0  0  0
   -4.0592   18.3965  -33.2969 H   0  0  0  0  0  0  0  0  0  0  0  0
   -7.3306   23.4986  -32.5651 H   0  0  0  0  0  0  0  0  0  0  0  0
   -9.6941   23.4714  -31.7105 H   0  0  0  0  0  0  0  0  0  0  0  0
  -10.8333   21.2960  -31.2206 H   0  0  0  0  0  0  0  0  0  0  0  0
   -9.6143   19.1247  -31.5827 H   0  0  0  0  0  0  0  0  0  0  0  0
   -4.5271   21.7949  -32.0572 H   0  0  0  0  0  0  0  0  0  0  0  0
  1  2  1  0
  2  3  2  0
  2  4  1  0
  4  5  1  0
  5  6  1  0
  6  7  1  0
  6  8  2  0
  5  9  2  0
  9 10  1  0
 10 11  2  0
 11 12  1  0
 12 13  2  0
 13 14  1  0
 14 15  1  0
 15 16  2  0
 16 17  1  0
 17 18  2  0
 18 19  1  0
 19 20  2  0
 20 21  1  0
 21 22  2  0
 22 23  1  0
 13 24  1  0
 24 25  2  0
 25  4  1  0
 25 10  1  0
 23 15  1  0
 22 17  1  0
  1 26  1  0
  1 27  1  0
  1 28  1  0
  7 29  1  0
  9 30  1  0
 11 31  1  0
 12 32  1  0
 14 33  1  0
 14 34  1  0
 18 35  1  0
 19 36  1  0
 20 37  1  0
 21 38  1  0
 24 39  1  0
M  CHG  1   7  -1
M  END
>  <UniqueID>  (17) 
17

>  <SMILES>  (17) 
CC(=O)n1c(C([NH-])=O)cc2ccc(Cc3nc4ccccc4s3)cc21

>  <Energy>  (17) 
114.21620958161807

>  <Genealogy>  (17) 
CC(=O)n1c(C([NH-])=O)cc2ccc(Cc3nc4ccccc4s3)cc21 (protonated)
CC(=O)n1c(C([NH-])=O)cc2ccc(Cc3nc4ccccc4s3)cc21 (3D coordinates assigned)
CC(=O)n1c(C([NH-])=O)cc2ccc(Cc3nc4ccccc4s3)cc21 (optimized conformer: 114.21620958161807 kcal/mol)

>  <smiles>  (17) 
CC(=O)n1c(C(N)=O)cc2ccc(Cc3nc4ccccc4s3)cc21

>  <score_type>  (17) 
oracle

>  <origin>  (17) 
adg

>  <m_score__min__energy>  (17) 
-11.94

>  <m_primary>  (17) 
energy

$$$$
17:0
     RDKit          3D

 37 39  0  0  0  0  0  0  0  0999 V2000
   -4.7200   24.0060  -28.6930 C   0  0  0  0  0  0  0  0  0  0  0  0
   -3.7160   24.3310  -29.7530 C   0  0  0  0  0  0  0  0  0  0  0  0
   -3.9200   25.3130  -30.5150 O   0  0  0  0  0  0  0  0  0  0  0  0
   -2.5630   23.4980  -29.9550 N   0  0  0  0  0  0  0  0  0  0  0  0
   -1.2990   23.6780  -29.4770 C   0  0  0  0  0  0  0  0  0  0  0  0
   -0.8140   24.8650  -28.7430 C   0  0  0  0  0  0  0  0  0  0  0  0
   -1.5990   26.0550  -28.7200 N   0  0  0  0  0  0  0  0  0  0  0  0
    0.2730   24.8310  -28.1100 O   0  0  0  0  0  0  0  0  0  0  0  0
   -0.4830   22.6130  -29.8490 C   0  0  0  0  0  0  0  0  0  0  0  0
   -1.2890   21.7730  -30.5840 C   0  0  0  0  0  0  0  0  0  0  0  0
   -0.9980   20.5590  -31.1970 C   0  0  0  0  0  0  0  0  0  0  0  0
   -2.0360   19.8990  -31.8770 C   0  0  0  0  0  0  0  0  0  0  0  0
   -3.3410   20.4570  -31.9310 C   0  0  0  0  0  0  0  0  0  0  0  0
   -4.4310   19.7470  -32.6470 C   0  0  0  0  0  0  0  0  0  0  0  0
   -4.1800   18.5430  -33.3280 C   0  0  0  0  0  0  0  0  0  0  0  0
   -5.1840   17.9010  -33.9780 N   0  0  0  0  0  0  0  0  0  0  0  0
   -6.4510   18.3880  -34.0020 C   0  0  0  0  0  0  0  0  0  0  0  0
   -6.7630   19.5810  -33.3440 C   0  0  0  0  0  0  0  0  0  0  0  0
   -8.0850   20.0500  -33.3950 O   0  0  0  0  0  0  0  0  0  0  0  0
   -8.9160   20.2610  -32.2560 C   0  0  0  0  0  0  0  0  0  0  0  0
  -10.2390   20.1710  -32.6410 F   0  0  0  0  0  0  0  0  0  0  0  0
   -8.6580   19.2970  -31.2980 F   0  0  0  0  0  0  0  0  0  0  0  0
   -5.7380   20.2620  -32.6630 C   0  0  0  0  0  0  0  0  0  0  0  0
   -3.5930   21.6950  -31.2950 C   0  0  0  0  0  0  0  0  0  0  0  0
   -2.5370   22.3330  -30.6350 C   0  0  0  0  0  0  0  0  0  0  0  0
   -4.2669   24.1527  -27.7015 H   0  0  0  0  0  0  0  0  0  0  0  0
   -5.5923   24.6676  -28.7990 H   0  0  0  0  0  0  0  0  0  0  0  0
   -5.0391   22.9587  -28.7990 H   0  0  0  0  0  0  0  0  0  0  0  0
   -2.6240   26.0260  -28.9200 H   0  0  0  0  0  0  0  0  0  0  0  0
    0.5808   22.4724  -29.6069 H   0  0  0  0  0  0  0  0  0  0  0  0
    0.0133   20.1287  -31.1511 H   0  0  0  0  0  0  0  0  0  0  0  0
   -1.8352   18.9382  -32.3736 H   0  0  0  0  0  0  0  0  0  0  0  0
   -3.1650   18.1191  -33.3342 H   0  0  0  0  0  0  0  0  0  0  0  0
   -7.2369   17.8403  -34.5427 H   0  0  0  0  0  0  0  0  0  0  0  0
   -8.7097   21.2560  -31.8348 H   0  0  0  0  0  0  0  0  0  0  0  0
   -5.9610   21.2035  -32.1398 H   0  0  0  0  0  0  0  0  0  0  0  0
   -4.5961   22.1458  -31.3187 H   0  0  0  0  0  0  0  0  0  0  0  0
  1  2  1  0
  2  3  2  0
  2  4  1  0
  4  5  1  0
  5  6  1  0
  6  7  1  0
  6  8  2  0
  5  9  2  0
  9 10  1  0
 10 11  2  0
 11 12  1  0
 12 13  2  0
 13 14  1  0
 14 15  2  0
 15 16  1  0
 16 17  2  0
 17 18  1  0
 18 19  1  0
 19 20  1  0
 20 21  1  0
 20 22  1  0
 18 23  2  0
 13 24  1  0
 24 25  2  0
 25  4  1  0
 25 10  1  0
 23 14  1  0
  1 26  1  0
  1 27  1  0
  1 28  1  0
  7 29  1  0
  9 30  1  0
 11 31  1  0
 12 32  1  0
 15 33  1  0
 17 34  1  0
 20 35  1  0
 23 36  1  0
 24 37  1  0
M  CHG  1   7  -1
M  END
>  <UniqueID>  (18) 
18

>  <SMILES>  (18) 
CC(=O)n1c(C([NH-])=O)cc2ccc(-c3cncc(OC(F)F)c3)cc21

>  <Energy>  (18) 
83.87516423039219

>  <Genealogy>  (18) 
CC(=O)n1c(C([NH-])=O)cc2ccc(-c3cncc(OC(F)F)c3)cc21 (protonated)
CC(=O)n1c(C([NH-])=O)cc2ccc(-c3cncc(OC(F)F)c3)cc21 (3D coordinates assigned)
CC(=O)n1c(C([NH-])=O)cc2ccc(-c3cncc(OC(F)F)c3)cc21 (optimized conformer: 83.87516423039219 kcal/mol)

>  <smiles>  (18) 
CC(=O)n1c(C(N)=O)cc2ccc(-c3cncc(OC(F)F)c3)cc21

>  <score_type>  (18) 
oracle

>  <origin>  (18) 
adg

>  <m_score__min__energy>  (18) 
-10.27

>  <m_primary>  (18) 
energy

$$$$
18:0
     RDKit          3D

 41 43  0  0  0  0  0  0  0  0999 V2000
   -3.8640   25.3000  -30.6360 N   0  0  0  0  0  0  0  0  0  0  0  0
   -5.2670   25.1420  -30.4330 C   0  0  0  0  0  0  0  0  0  0  0  0
   -5.9120   26.0530  -29.8510 O   0  0  0  0  0  0  0  0  0  0  0  0
   -5.9480   23.9240  -30.9170 C   0  0  0  0  0  0  0  0  0  0  0  0
   -7.3260   23.8230  -31.1100 C   0  0  0  0  0  0  0  0  0  0  0  0
   -7.5410   22.5270  -31.5270 C   0  0  0  0  0  0  0  0  0  0  0  0
   -8.7250   21.8740  -31.8580 C   0  0  0  0  0  0  0  0  0  0  0  0
   -8.6440   20.5270  -32.2530 C   0  0  0  0  0  0  0  0  0  0  0  0
   -7.3900   19.8680  -32.3230 C   0  0  0  0  0  0  0  0  0  0  0  0
   -7.3180   18.4160  -32.7190 C   0  0  0  0  0  0  0  0  0  0  0  0
   -6.2080   18.1770  -33.7460 C   0  0  0  0  0  0  0  0  0  0  0  0
   -6.0970   19.2640  -34.6260 O   0  0  0  0  0  0  0  0  0  0  0  0
   -6.2120   20.5620  -31.9730 C   0  0  0  0  0  0  0  0  0  0  0  0
   -6.3260   21.8970  -31.5760 C   0  0  0  0  0  0  0  0  0  0  0  0
   -5.3420   22.7390  -31.1980 N   0  0  0  0  0  0  0  0  0  0  0  0
   -3.9390   22.4450  -31.1550 C   0  0  0  0  0  0  0  0  0  0  0  0
   -3.3000   22.3880  -32.2410 O   0  0  0  0  0  0  0  0  0  0  0  0
   -3.2280   22.1150  -29.8540 C   0  0  0  0  0  0  0  0  0  0  0  0
   -4.0690   22.3880  -28.5970 C   0  0  0  0  0  0  0  0  0  0  0  0
   -3.5980   23.7260  -28.0680 C   0  0  0  0  0  0  0  0  0  0  0  0
   -2.1210   23.7770  -28.4010 C   0  0  0  0  0  0  0  0  0  0  0  0
   -1.9500   22.9600  -29.6770 C   0  0  0  0  0  0  0  0  0  0  0  0
   -3.4940   26.0400  -31.2730 H   0  0  0  0  0  0  0  0  0  0  0  0
   -8.0801   24.6099  -30.9611 H   0  0  0  0  0  0  0  0  0  0  0  0
   -9.6927   22.3950  -31.8120 H   0  0  0  0  0  0  0  0  0  0  0  0
   -9.5623   19.9788  -32.5103 H   0  0  0  0  0  0  0  0  0  0  0  0
   -7.1154   17.8095  -31.8239 H   0  0  0  0  0  0  0  0  0  0  0  0
   -8.2790   18.1302  -33.1716 H   0  0  0  0  0  0  0  0  0  0  0  0
   -5.2523   18.0419  -33.2184 H   0  0  0  0  0  0  0  0  0  0  0  0
   -6.4561   17.2775  -34.3285 H   0  0  0  0  0  0  0  0  0  0  0  0
   -7.0020   19.4190  -35.0010 H   0  0  0  0  0  0  0  0  0  0  0  0
   -5.2311   20.0657  -32.0116 H   0  0  0  0  0  0  0  0  0  0  0  0
   -3.0150   21.0393  -29.9409 H   0  0  0  0  0  0  0  0  0  0  0  0
   -5.1378   22.4322  -28.8534 H   0  0  0  0  0  0  0  0  0  0  0  0
   -3.9481   21.5914  -27.8482 H   0  0  0  0  0  0  0  0  0  0  0  0
   -4.1351   24.5488  -28.5625 H   0  0  0  0  0  0  0  0  0  0  0  0
   -3.7839   23.8342  -26.9892 H   0  0  0  0  0  0  0  0  0  0  0  0
   -1.8022   24.8166  -28.5671 H   0  0  0  0  0  0  0  0  0  0  0  0
   -1.5086   23.3756  -27.5802 H   0  0  0  0  0  0  0  0  0  0  0  0
   -1.8196   23.6307  -30.5390 H   0  0  0  0  0  0  0  0  0  0  0  0
   -1.0619   22.3144  -29.6105 H   0  0  0  0  0  0  0  0  0  0  0  0
  1  2  1  0
  2  3  2  0
  2  4  1  0
  4  5  2  0
  5  6  1  0
  6  7  2  0
  7  8  1  0
  8  9  2  0
  9 10  1  0
 10 11  1  0
 11 12  1  0
  9 13  1  0
 13 14  2  0
 14 15  1  0
 15 16  1  0
 16 17  2  0
 16 18  1  0
 18 19  1  0
 19 20  1  0
 20 21  1  0
 21 22  1  0
 15  4  1  0
 22 18  1  0
 14  6  1  0
  1 23  1  0
  5 24  1  0
  7 25  1  0
  8 26  1  0
 10 27  1  0
 10 28  1  0
 11 29  1  0
 11 30  1  0
 12 31  1  0
 13 32  1  0
 18 33  1  0
 19 34  1  0
 19 35  1  0
 20 36  1  0
 20 37  1  0
 21 38  1  0
 21 39  1  0
 22 40  1  0
 22 41  1  0
M  CHG  1   1  -1
M  END
>  <UniqueID>  (19) 
19

>  <SMILES>  (19) 
[NH-]C(=O)c1cc2ccc(CCO)cc2n1C(=O)C1CCCC1

>  <Energy>  (19) 
80.99795268722794

>  <Genealogy>  (19) 
[NH-]C(=O)c1cc2ccc(CCO)cc2n1C(=O)C1CCCC1 (protonated)
[NH-]C(=O)c1cc2ccc(CCO)cc2n1C(=O)C1CCCC1 (3D coordinates assigned)
[NH-]C(=O)c1cc2ccc(CCO)cc2n1C(=O)C1CCCC1 (nonaromatic ring conformer: 80.99795268722794 kcal/mol)

>  <smiles>  (19) 
NC(=O)c1cc2ccc(CCO)cc2n1C(=O)C1CCCC1

>  <score_type>  (19) 
oracle

>  <origin>  (19) 
adg

>  <m_score__min__energy>  (19) 
-11.17

>  <m_primary>  (19) 
energy

$$$$
19:0
     RDKit          3D

 48 51  0  0  0  0  0  0  0  0999 V2000
   -0.9860   25.8040  -28.9790 N   0  0  0  0  0  0  0  0  0  0  0  0
   -0.5590   24.4550  -28.7800 C   0  0  0  0  0  0  0  0  0  0  0  0
    0.3450   24.2120  -27.9380 O   0  0  0  0  0  0  0  0  0  0  0  0
   -1.1120   23.3530  -29.5890 C   0  0  0  0  0  0  0  0  0  0  0  0
   -0.4050   22.1940  -29.8980 C   0  0  0  0  0  0  0  0  0  0  0  0
   -1.2460   21.4580  -30.7020 C   0  0  0  0  0  0  0  0  0  0  0  0
   -1.0820   20.1900  -31.2520 C   0  0  0  0  0  0  0  0  0  0  0  0
   -2.1590   19.6360  -31.9650 C   0  0  0  0  0  0  0  0  0  0  0  0
   -3.3670   20.3560  -32.1120 C   0  0  0  0  0  0  0  0  0  0  0  0
   -4.4750   19.7640  -32.7920 N   0  0  0  0  0  0  0  0  0  0  0  0
   -4.9400   18.4060  -33.1360 C   0  0  0  0  0  0  0  0  0  0  0  0
   -6.1590   18.8470  -33.8880 C   0  0  0  0  0  0  0  0  0  0  0  0
   -6.1090   18.5760  -35.2680 O   0  0  0  0  0  0  0  0  0  0  0  0
   -5.6760   20.2160  -33.5180 C   0  0  0  0  0  0  0  0  0  0  0  0
   -3.4940   21.6440  -31.5560 C   0  0  0  0  0  0  0  0  0  0  0  0
   -2.4060   22.1700  -30.8540 C   0  0  0  0  0  0  0  0  0  0  0  0
   -2.3450   23.3300  -30.1650 N   0  0  0  0  0  0  0  0  0  0  0  0
   -3.4430   24.2320  -29.9550 C   0  0  0  0  0  0  0  0  0  0  0  0
   -3.5130   25.2890  -30.6370 O   0  0  0  0  0  0  0  0  0  0  0  0
   -4.5340   23.9300  -28.9570 C   0  0  0  0  0  0  0  0  0  0  0  0
   -5.8980   24.5290  -29.3440 C   0  0  0  0  0  0  0  0  0  0  0  0
   -6.6790   23.6540  -30.2950 C   0  0  0  0  0  0  0  0  0  0  0  0
   -6.5430   23.8140  -31.6850 C   0  0  0  0  0  0  0  0  0  0  0  0
   -7.2590   22.9930  -32.5630 C   0  0  0  0  0  0  0  0  0  0  0  0
   -8.1190   22.0130  -32.0620 C   0  0  0  0  0  0  0  0  0  0  0  0
   -8.2710   21.8560  -30.6820 C   0  0  0  0  0  0  0  0  0  0  0  0
   -7.5640   22.6790  -29.8010 C   0  0  0  0  0  0  0  0  0  0  0  0
   -1.6350   26.0540  -29.7550 H   0  0  0  0  0  0  0  0  0  0  0  0
   -0.5990   26.5690  -28.3830 H   0  0  0  0  0  0  0  0  0  0  0  0
    0.6095   21.9239  -29.5696 H   0  0  0  0  0  0  0  0  0  0  0  0
   -0.1380   19.6382  -31.1322 H   0  0  0  0  0  0  0  0  0  0  0  0
   -2.0615   18.6355  -32.4117 H   0  0  0  0  0  0  0  0  0  0  0  0
   -4.2250   17.8588  -33.7680 H   0  0  0  0  0  0  0  0  0  0  0  0
   -5.0893   17.7001  -32.3057 H   0  0  0  0  0  0  0  0  0  0  0  0
   -7.1751   18.4766  -33.6869 H   0  0  0  0  0  0  0  0  0  0  0  0
   -6.7460   19.1720  -35.7410 H   0  0  0  0  0  0  0  0  0  0  0  0
   -5.4348   20.8333  -34.3959 H   0  0  0  0  0  0  0  0  0  0  0  0
   -6.3771   20.8656  -32.9734 H   0  0  0  0  0  0  0  0  0  0  0  0
   -4.4240   22.2200  -31.6712 H   0  0  0  0  0  0  0  0  0  0  0  0
   -4.6422   22.8382  -28.8781 H   0  0  0  0  0  0  0  0  0  0  0  0
   -4.2369   24.3879  -28.0020 H   0  0  0  0  0  0  0  0  0  0  0  0
   -6.4917   24.6687  -28.4286 H   0  0  0  0  0  0  0  0  0  0  0  0
   -5.7046   25.4821  -29.8579 H   0  0  0  0  0  0  0  0  0  0  0  0
   -5.8708   24.5879  -32.0841 H   0  0  0  0  0  0  0  0  0  0  0  0
   -7.1445   23.1195  -33.6497 H   0  0  0  0  0  0  0  0  0  0  0  0
   -8.6767   21.3648  -32.7540 H   0  0  0  0  0  0  0  0  0  0  0  0
   -8.9481   21.0836  -30.2884 H   0  0  0  0  0  0  0  0  0  0  0  0
   -7.7005   22.5636  -28.7156 H   0  0  0  0  0  0  0  0  0  0  0  0
  1  2  1  0
  2  3  2  0
  2  4  1  0
  4  5  2  0
  5  6  1  0
  6  7  2  0
  7  8  1  0
  8  9  2  0
  9 10  1  0
 10 11  1  0
 11 12  1  0
 12 13  1  0
 12 14  1  0
  9 15  1  0
 15 16  2  0
 16 17  1  0
 17 18  1  0
 18 19  2  0
 18 20  1  0
 20 21  1  0
 21 22  1  0
 22 23  2  0
 23 24  1  0
 24 25  2  0
 25 26  1  0
 26 27  2  0
 17  4  1  0
 27 22  1  0
 16  6  1  0
 14 10  1  0
  1 28  1  0
  1 29  1  0
  5 30  1  0
  7 31  1  0
  8 32  1  0
 11 33  1  0
 11 34  1  0
 12 35  1  0
 13 36  1  0
 14 37  1  0
 14 38  1  0
 15 39  1  0
 20 40  1  0
 20 41  1  0
 21 42  1  0
 21 43  1  0
 23 44  1  0
 24 45  1  0
 25 46  1  0
 26 47  1  0
 27 48  1  0
M  END
>  <UniqueID>  (20) 
20

>  <SMILES>  (20) 
NC(=O)c1cc2ccc(N3CC(O)C3)cc2n1C(=O)CCc1ccccc1

>  <Energy>  (20) 
131.9298656396937

>  <Genealogy>  (20) 
NC(=O)c1cc2ccc(N3CC(O)C3)cc2n1C(=O)CCc1ccccc1 (3D coordinates assigned)
NC(=O)c1cc2ccc(N3CC(O)C3)cc2n1C(=O)CCc1ccccc1 (nonaromatic ring conformer: 131.9298656396937 kcal/mol)

>  <smiles>  (20) 
NC(=O)c1cc2ccc(N3CC(O)C3)cc2n1C(=O)CCc1ccccc1

>  <score_type>  (20) 
oracle

>  <origin>  (20) 
adg

>  <m_score__min__energy>  (20) 
-9.4700000000000006

>  <m_primary>  (20) 
energy

$$$$
20:0
     RDKit          3D

 33 35  0  0  0  0  0  0  0  0999 V2000
   -7.3200   18.2490  -31.6760 C   0  0  0  0  0  0  0  0  0  0  0  0
   -7.1900   19.0160  -32.9230 N   0  0  0  0  0  0  0  0  0  0  0  0
   -6.9350   20.4470  -32.6900 C   0  0  0  0  0  0  0  0  0  0  0  0
   -5.5900   20.4000  -33.4050 C   0  0  0  0  0  0  0  0  0  0  0  0
   -4.3470   20.7850  -32.6200 C   0  0  0  0  0  0  0  0  0  0  0  0
   -3.1760   19.9790  -32.5830 C   0  0  0  0  0  0  0  0  0  0  0  0
   -2.0450   20.3820  -31.8540 C   0  0  0  0  0  0  0  0  0  0  0  0
   -2.0990   21.5980  -31.1850 C   0  0  0  0  0  0  0  0  0  0  0  0
   -1.1590   22.2120  -30.3900 C   0  0  0  0  0  0  0  0  0  0  0  0
   -1.7480   23.4050  -29.9750 C   0  0  0  0  0  0  0  0  0  0  0  0
   -1.0430   24.4200  -29.1650 C   0  0  0  0  0  0  0  0  0  0  0  0
   -1.6060   25.7110  -28.9530 N   0  0  0  0  0  0  0  0  0  0  0  0
    0.0980   24.1590  -28.6950 O   0  0  0  0  0  0  0  0  0  0  0  0
   -3.0070   23.5190  -30.4870 N   0  0  0  0  0  0  0  0  0  0  0  0
   -3.9730   24.5530  -30.2320 C   0  0  0  0  0  0  0  0  0  0  0  0
   -3.8700   25.6720  -30.7990 O   0  0  0  0  0  0  0  0  0  0  0  0
   -5.0140   24.3350  -29.3390 O   0  0  0  0  0  0  0  0  0  0  0  0
   -3.2050   22.4050  -31.2270 C   0  0  0  0  0  0  0  0  0  0  0  0
   -4.3520   22.0190  -31.9290 C   0  0  0  0  0  0  0  0  0  0  0  0
   -5.8500   18.9050  -33.5210 C   0  0  0  0  0  0  0  0  0  0  0  0
   -7.2054   18.9252  -30.8160 H   0  0  0  0  0  0  0  0  0  0  0  0
   -8.3115   17.7740  -31.6394 H   0  0  0  0  0  0  0  0  0  0  0  0
   -6.5404   17.4738  -31.6394 H   0  0  0  0  0  0  0  0  0  0  0  0
   -7.6673   21.1074  -33.1774 H   0  0  0  0  0  0  0  0  0  0  0  0
   -6.9769   20.8339  -31.6611 H   0  0  0  0  0  0  0  0  0  0  0  0
   -5.3687   21.0561  -34.2597 H   0  0  0  0  0  0  0  0  0  0  0  0
   -3.1556   19.0266  -33.1330 H   0  0  0  0  0  0  0  0  0  0  0  0
   -1.1433   19.7532  -31.8141 H   0  0  0  0  0  0  0  0  0  0  0  0
   -0.1554   21.8402  -30.1358 H   0  0  0  0  0  0  0  0  0  0  0  0
   -2.6370   25.8620  -29.0040 H   0  0  0  0  0  0  0  0  0  0  0  0
   -5.2427   22.6644  -31.9433 H   0  0  0  0  0  0  0  0  0  0  0  0
   -5.8629   18.5424  -34.5594 H   0  0  0  0  0  0  0  0  0  0  0  0
   -5.1272   18.2046  -33.0772 H   0  0  0  0  0  0  0  0  0  0  0  0
  1  2  1  0
  2  3  1  0
  3  4  1  0
  4  5  1  0
  5  6  2  0
  6  7  1  0
  7  8  2  0
  8  9  1  0
  9 10  2  0
 10 11  1  0
 11 12  1  0
 11 13  2  0
 10 14  1  0
 14 15  1  0
 15 16  2  0
 15 17  1  0
 14 18  1  0
 18 19  2  0
  4 20  1  0
 20  2  1  0
 19  5  1  0
 18  8  1  0
  1 21  1  0
  1 22  1  0
  1 23  1  0
  3 24  1  0
  3 25  1  0
  4 26  1  0
  6 27  1  0
  7 28  1  0
  9 29  1  0
 12 30  1  0
 19 31  1  0
 20 32  1  0
 20 33  1  0
M  CHG  2  12  -1  17  -1
M  END
>  <UniqueID>  (21) 
21

>  <SMILES>  (21) 
CN1CC(c2ccc3cc(C([NH-])=O)n(C(=O)[O-])c3c2)C1

>  <Energy>  (21) 
147.92813744913374

>  <Genealogy>  (21) 
CN1CC(c2ccc3cc(C([NH-])=O)n(C(=O)[O-])c3c2)C1 (protonated)
CN1CC(c2ccc3cc(C([NH-])=O)n(C(=O)[O-])c3c2)C1 (3D coordinates assigned)
CN1CC(c2ccc3cc(C([NH-])=O)n(C(=O)[O-])c3c2)C1 (nonaromatic ring conformer: 147.92813744913374 kcal/mol)

>  <smiles>  (21) 
CN1CC(c2ccc3cc(C(N)=O)n(C(=O)O)c3c2)C1

>  <score_type>  (21) 
oracle

>  <origin>  (21) 
adg

>  <m_score__min__energy>  (21) 
-11.31

>  <m_primary>  (21) 
energy

$$$$
21:0
     RDKit          3D

 45 47  0  0  0  0  0  0  0  0999 V2000
   -4.6320   14.8490  -32.3830 C   0  0  0  0  0  0  0  0  0  0  0  0
   -5.0100   15.3590  -33.6550 O   0  0  0  0  0  0  0  0  0  0  0  0
   -6.3020   15.8230  -33.9300 C   0  0  0  0  0  0  0  0  0  0  0  0
   -7.2110   15.0010  -34.2360 O   0  0  0  0  0  0  0  0  0  0  0  0
   -6.6020   17.2310  -33.7580 N   0  0  1  0  0  0  0  0  0  0  0  0
   -6.9940   17.5940  -32.3680 C   0  0  0  0  0  0  0  0  0  0  0  0
   -7.9180   18.8290  -32.2290 C   0  0  0  0  0  0  0  0  0  0  0  0
   -7.1980   20.1740  -32.1220 C   0  0  0  0  0  0  0  0  0  0  0  0
   -5.9320   20.1500  -32.8550 N   0  0  0  0  0  0  0  0  0  0  0  0
   -4.7170   20.6150  -32.2360 C   0  0  0  0  0  0  0  0  0  0  0  0
   -3.5460   19.8150  -32.2800 C   0  0  0  0  0  0  0  0  0  0  0  0
   -2.3490   20.2620  -31.6970 C   0  0  0  0  0  0  0  0  0  0  0  0
   -2.3510   21.5050  -31.0720 C   0  0  0  0  0  0  0  0  0  0  0  0
   -1.3290   22.1870  -30.4550 C   0  0  0  0  0  0  0  0  0  0  0  0
   -1.8920   23.3850  -30.0220 C   0  0  0  0  0  0  0  0  0  0  0  0
   -1.1520   24.3880  -29.2280 C   0  0  0  0  0  0  0  0  0  0  0  0
   -1.6950   25.6850  -28.9930 N   0  0  0  0  0  0  0  0  0  0  0  0
   -0.0450   24.0810  -28.7100 O   0  0  0  0  0  0  0  0  0  0  0  0
   -3.2100   23.4460  -30.3680 N   0  0  0  0  0  0  0  0  0  0  0  0
   -4.1220   24.5410  -30.1790 C   0  0  0  0  0  0  0  0  0  0  0  0
   -3.9680   25.6160  -30.8180 O   0  0  0  0  0  0  0  0  0  0  0  0
   -5.1970   24.4160  -29.3080 O   0  0  0  0  0  0  0  0  0  0  0  0
   -3.4750   22.2870  -31.0080 C   0  0  0  0  0  0  0  0  0  0  0  0
   -4.6750   21.8760  -31.6000 C   0  0  0  0  0  0  0  0  0  0  0  0
   -5.9380   19.6670  -34.2390 C   0  0  0  0  0  0  0  0  0  0  0  0
   -5.6030   18.1630  -34.3450 C   0  0  0  0  0  0  0  0  0  0  0  0
   -5.0871   15.4630  -31.5918 H   0  0  0  0  0  0  0  0  0  0  0  0
   -4.9798   13.8099  -32.2865 H   0  0  0  0  0  0  0  0  0  0  0  0
   -3.5367   14.8795  -32.2865 H   0  0  0  0  0  0  0  0  0  0  0  0
   -7.4660   17.3810  -34.3330 H   0  0  0  0  0  0  0  0  0  0  0  0
   -7.5155   16.7311  -31.9282 H   0  0  0  0  0  0  0  0  0  0  0  0
   -6.0589   17.8612  -31.8540 H   0  0  0  0  0  0  0  0  0  0  0  0
   -8.5741   18.8638  -33.1112 H   0  0  0  0  0  0  0  0  0  0  0  0
   -8.4611   18.6980  -31.2814 H   0  0  0  0  0  0  0  0  0  0  0  0
   -7.8418   20.9612  -32.5414 H   0  0  0  0  0  0  0  0  0  0  0  0
   -6.9856   20.3748  -31.0615 H   0  0  0  0  0  0  0  0  0  0  0  0
   -3.5760   18.8338  -32.7763 H   0  0  0  0  0  0  0  0  0  0  0  0
   -1.4372   19.6477  -31.7334 H   0  0  0  0  0  0  0  0  0  0  0  0
   -0.2873   21.8565  -30.3299 H   0  0  0  0  0  0  0  0  0  0  0  0
   -2.7260   25.8490  -29.0260 H   0  0  0  0  0  0  0  0  0  0  0  0
   -5.5658   22.5206  -31.5707 H   0  0  0  0  0  0  0  0  0  0  0  0
   -6.9371   19.8363  -34.6668 H   0  0  0  0  0  0  0  0  0  0  0  0
   -5.1621   20.2205  -34.7882 H   0  0  0  0  0  0  0  0  0  0  0  0
   -5.4978   17.9157  -35.4117 H   0  0  0  0  0  0  0  0  0  0  0  0
   -4.6836   18.0213  -33.7580 H   0  0  0  0  0  0  0  0  0  0  0  0
  1  2  1  0
  2  3  1  0
  3  4  2  0
  3  5  1  0
  5  6  1  0
  6  7  1  0
  7  8  1  0
  8  9  1  0
  9 10  1  0
 10 11  2  0
 11 12  1  0
 12 13  2  0
 13 14  1  0
 14 15  2  0
 15 16  1  0
 16 17  1  0
 16 18  2  0
 15 19  1  0
 19 20  1  0
 20 21  2  0
 20 22  1  0
 19 23  1  0
 23 24  2  0
  9 25  1  0
 25 26  1  0
 26  5  1  0
 24 10  1  0
 23 13  1  0
  1 27  1  0
  1 28  1  0
  1 29  1  0
  5 30  1  6
  6 31  1  0
  6 32  1  0
  7 33  1  0
  7 34  1  0
  8 35  1  0
  8 36  1  0
 11 37  1  0
 12 38  1  0
 14 39  1  0
 17 40  1  0
 24 41  1  0
 25 42  1  0
 25 43  1  0
 26 44  1  0
 26 45  1  0
M  CHG  3   5   1  17  -1  22  -1
M  END
>  <UniqueID>  (22) 
22

>  <SMILES>  (22) 
COC(=O)[N@H+]1CCCN(c2ccc3cc(C([NH-])=O)n(C(=O)[O-])c3c2)CC1

>  <Energy>  (22) 
102.00486410624471

>  <Genealogy>  (22) 
COC(=O)[NH+]1CCCN(c2ccc3cc(C([NH-])=O)n(C(=O)[O-])c3c2)CC1 (protonated)
COC(=O)[N@H+]1CCCN(c2ccc3cc(C([NH-])=O)n(C(=O)[O-])c3c2)CC1 (chirality)
COC(=O)[N@H+]1CCCN(c2ccc3cc(C([NH-])=O)n(C(=O)[O-])c3c2)CC1 (3D coordinates assigned)
COC(=O)[N@H+]1CCCN(c2ccc3cc(C([NH-])=O)n(C(=O)[O-])c3c2)CC1 (nonaromatic ring conformer: 102.00486410624471 kcal/mol)

>  <smiles>  (22) 
COC(=O)N1CCCN(c2ccc3cc(C(N)=O)n(C(=O)O)c3c2)CC1

>  <score_type>  (22) 
oracle

>  <origin>  (22) 
adg

>  <m_score__min__energy>  (22) 
-8.9199999999999999

>  <m_primary>  (22) 
energy

$$$$
22:0
     RDKit          3D

 36 37  0  0  0  0  0  0  0  0999 V2000
   -8.6140   21.8900  -30.8080 C   0  0  0  0  0  0  0  0  0  0  0  0
   -9.3270   21.2250  -31.9760 C   0  0  0  0  0  0  0  0  0  0  0  0
   -8.9390   19.8590  -32.0550 O   0  0  0  0  0  0  0  0  0  0  0  0
   -7.7310   19.4520  -32.6310 C   0  0  0  0  0  0  0  0  0  0  0  0
   -7.3570   18.2500  -32.5620 O   0  0  0  0  0  0  0  0  0  0  0  0
   -6.9080   20.4470  -33.3840 C   0  0  0  0  0  0  0  0  0  0  0  0
   -5.6270   20.7120  -32.6440 C   0  0  0  0  0  0  0  0  0  0  0  0
   -4.5890   19.7450  -32.6440 C   0  0  0  0  0  0  0  0  0  0  0  0
   -3.3740   19.9990  -31.9870 C   0  0  0  0  0  0  0  0  0  0  0  0
   -3.2200   21.2280  -31.3530 C   0  0  0  0  0  0  0  0  0  0  0  0
   -2.1540   21.7340  -30.6420 C   0  0  0  0  0  0  0  0  0  0  0  0
   -2.5460   23.0120  -30.2480 C   0  0  0  0  0  0  0  0  0  0  0  0
   -1.6580   23.9550  -29.5380 C   0  0  0  0  0  0  0  0  0  0  0  0
   -2.0610   25.2990  -29.2940 N   0  0  0  0  0  0  0  0  0  0  0  0
   -0.5100   23.5790  -29.1770 O   0  0  0  0  0  0  0  0  0  0  0  0
   -3.8100   23.2800  -30.6870 N   0  0  0  0  0  0  0  0  0  0  0  0
   -4.6100   24.4470  -30.4340 C   0  0  0  0  0  0  0  0  0  0  0  0
   -5.9290   24.3350  -29.7370 C   0  0  0  0  0  0  0  0  0  0  0  0
   -4.2310   25.5700  -30.8600 O   0  0  0  0  0  0  0  0  0  0  0  0
   -4.2040   22.1820  -31.3650 C   0  0  0  0  0  0  0  0  0  0  0  0
   -5.4300   21.9520  -31.9980 C   0  0  0  0  0  0  0  0  0  0  0  0
   -9.0244   21.5072  -29.8619 H   0  0  0  0  0  0  0  0  0  0  0  0
   -7.5385   21.6650  -30.8588 H   0  0  0  0  0  0  0  0  0  0  0  0
   -8.7636   22.9786  -30.8588 H   0  0  0  0  0  0  0  0  0  0  0  0
  -10.4148   21.2887  -31.8254 H   0  0  0  0  0  0  0  0  0  0  0  0
   -9.0546   21.7373  -32.9105 H   0  0  0  0  0  0  0  0  0  0  0  0
   -6.6770   20.0486  -34.3830 H   0  0  0  0  0  0  0  0  0  0  0  0
   -7.4724   21.3862  -33.4810 H   0  0  0  0  0  0  0  0  0  0  0  0
   -4.7372   18.7869  -33.1637 H   0  0  0  0  0  0  0  0  0  0  0  0
   -2.5690   19.2495  -31.9740 H   0  0  0  0  0  0  0  0  0  0  0  0
   -1.1967   21.2352  -30.4303 H   0  0  0  0  0  0  0  0  0  0  0  0
   -3.0670   25.5750  -29.3310 H   0  0  0  0  0  0  0  0  0  0  0  0
   -5.7708   24.3484  -28.6485 H   0  0  0  0  0  0  0  0  0  0  0  0
   -6.5690   25.1820  -30.0250 H   0  0  0  0  0  0  0  0  0  0  0  0
   -6.4170   23.3922  -30.0250 H   0  0  0  0  0  0  0  0  0  0  0  0
   -6.2201   22.7173  -31.9927 H   0  0  0  0  0  0  0  0  0  0  0  0
  1  2  1  0
  2  3  1  0
  3  4  1  0
  4  5  2  0
  4  6  1  0
  6  7  1  0
  7  8  2  0
  8  9  1  0
  9 10  2  0
 10 11  1  0
 11 12  2  0
 12 13  1  0
 13 14  1  0
 13 15  2  0
 12 16  1  0
 16 17  1  0
 17 18  1  0
 17 19  2  0
 16 20  1  0
 20 21  2  0
 21  7  1  0
 20 10  1  0
  1 22  1  0
  1 23  1  0
  1 24  1  0
  2 25  1  0
  2 26  1  0
  6 27  1  0
  6 28  1  0
  8 29  1  0
  9 30  1  0
 11 31  1  0
 14 32  1  0
 18 33  1  0
 18 34  1  0
 18 35  1  0
 21 36  1  0
M  CHG  1  14  -1
M  END
>  <UniqueID>  (23) 
23

>  <SMILES>  (23) 
CCOC(=O)Cc1ccc2cc(C([NH-])=O)n(C(C)=O)c2c1

>  <Energy>  (23) 
67.88806728954592

>  <Genealogy>  (23) 
CCOC(=O)Cc1ccc2cc(C([NH-])=O)n(C(C)=O)c2c1 (protonated)
CCOC(=O)Cc1ccc2cc(C([NH-])=O)n(C(C)=O)c2c1 (3D coordinates assigned)
CCOC(=O)Cc1ccc2cc(C([NH-])=O)n(C(C)=O)c2c1 (optimized conformer: 67.88806728954592 kcal/mol)

>  <smiles>  (23) 
CCOC(=O)Cc1ccc2cc(C(N)=O)n(C(C)=O)c2c1

>  <score_type>  (23) 
oracle

>  <origin>  (23) 
adg

>  <m_score__min__energy>  (23) 
-10.07

>  <m_primary>  (23) 
energy

$$$$
23:0
     RDKit          3D

 30 31  0  0  0  0  0  0  0  0999 V2000
   -8.3700   20.9600  -32.0600 C   0  0  0  0  0  0  0  0  0  0  0  0
   -7.3900   19.8340  -31.9660 C   0  0  0  0  0  0  0  0  0  0  0  0
   -7.7660   18.7300  -31.4890 O   0  0  0  0  0  0  0  0  0  0  0  0
   -6.0330   19.9940  -32.4100 N   0  0  0  0  0  0  0  0  0  0  0  0
   -5.3810   19.2510  -33.3480 C   0  0  0  0  0  0  0  0  0  0  0  0
   -5.9980   18.1930  -34.1810 C   0  0  0  0  0  0  0  0  0  0  0  0
   -6.8370   17.1940  -33.5960 N   0  0  0  0  0  0  0  0  0  0  0  0
   -5.7720   18.1530  -35.4190 O   0  0  0  0  0  0  0  0  0  0  0  0
   -4.0570   19.6730  -33.4690 C   0  0  0  0  0  0  0  0  0  0  0  0
   -3.9170   20.7010  -32.5650 C   0  0  0  0  0  0  0  0  0  0  0  0
   -2.8040   21.4800  -32.2600 C   0  0  0  0  0  0  0  0  0  0  0  0
   -2.9380   22.4570  -31.2610 C   0  0  0  0  0  0  0  0  0  0  0  0
   -4.1680   22.6260  -30.5760 C   0  0  0  0  0  0  0  0  0  0  0  0
   -4.3060   23.6870  -29.5210 C   0  0  0  0  0  0  0  0  0  0  0  0
   -3.5720   24.9210  -29.9370 C   0  0  0  0  0  0  0  0  0  0  0  0
   -4.0180   25.6400  -30.8690 O   0  0  0  0  0  0  0  0  0  0  0  0
   -2.3670   25.2530  -29.3300 O   0  0  0  0  0  0  0  0  0  0  0  0
   -5.2790   21.8240  -30.9210 C   0  0  0  0  0  0  0  0  0  0  0  0
   -5.1230   20.8730  -31.9360 C   0  0  0  0  0  0  0  0  0  0  0  0
   -8.6530   21.2852  -31.0480 H   0  0  0  0  0  0  0  0  0  0  0  0
   -7.9114   21.8011  -32.6006 H   0  0  0  0  0  0  0  0  0  0  0  0
   -9.2663   20.6218  -32.6006 H   0  0  0  0  0  0  0  0  0  0  0  0
   -7.2330   16.4330  -34.1900 H   0  0  0  0  0  0  0  0  0  0  0  0
   -7.1020   17.2270  -32.5880 H   0  0  0  0  0  0  0  0  0  0  0  0
   -3.2878   19.2695  -34.1440 H   0  0  0  0  0  0  0  0  0  0  0  0
   -1.8489   21.3343  -32.7858 H   0  0  0  0  0  0  0  0  0  0  0  0
   -2.0806   23.0976  -31.0071 H   0  0  0  0  0  0  0  0  0  0  0  0
   -5.3707   23.9260  -29.3820 H   0  0  0  0  0  0  0  0  0  0  0  0
   -3.8805   23.3150  -28.5773 H   0  0  0  0  0  0  0  0  0  0  0  0
   -6.2428   21.9441  -30.4046 H   0  0  0  0  0  0  0  0  0  0  0  0
  1  2  1  0
  2  3  2  0
  2  4  1  0
  4  5  1  0
  5  6  1  0
  6  7  1  0
  6  8  2  0
  5  9  2  0
  9 10  1  0
 10 11  2  0
 11 12  1  0
 12 13  2  0
 13 14  1  0
 14 15  1  0
 15 16  2  0
 15 17  1  0
 13 18  1  0
 18 19  2  0
 19  4  1  0
 19 10  1  0
  1 20  1  0
  1 21  1  0
  1 22  1  0
  7 23  1  0
  7 24  1  0
  9 25  1  0
 11 26  1  0
 12 27  1  0
 14 28  1  0
 14 29  1  0
 18 30  1  0
M  CHG  1  17  -1
M  END
>  <UniqueID>  (24) 
24

>  <SMILES>  (24) 
CC(=O)n1c(C(N)=O)cc2ccc(CC(=O)[O-])cc21

>  <Energy>  (24) 
66.80927514454437

>  <Genealogy>  (24) 
CC(=O)n1c(C(N)=O)cc2ccc(CC(=O)[O-])cc21 (protonated)
CC(=O)n1c(C(N)=O)cc2ccc(CC(=O)[O-])cc21 (3D coordinates assigned)
CC(=O)n1c(C(N)=O)cc2ccc(CC(=O)[O-])cc21 (optimized conformer: 66.80927514454437 kcal/mol)

>  <smiles>  (24) 
CC(=O)n1c(C(N)=O)cc2ccc(CC(=O)O)cc21

>  <score_type>  (24) 
oracle

>  <origin>  (24) 
adg

>  <m_score__min__energy>  (24) 
-9.2100000000000009

>  <m_primary>  (24) 
energy

$$$$
24:0
     RDKit          3D

 39 41  0  0  0  0  0  0  0  0999 V2000
   -8.2880   18.2200  -31.4880 C   0  0  0  0  0  0  0  0  0  0  0  0
   -8.0650   18.6040  -32.8930 N   0  0  0  0  0  0  0  0  0  0  0  0
   -8.0330   20.0570  -33.0910 C   0  0  0  0  0  0  0  0  0  0  0  0
   -6.8300   20.7300  -32.4150 C   0  0  0  0  0  0  0  0  0  0  0  0
   -5.5840   19.9330  -32.4180 N   0  0  0  0  0  0  0  0  0  0  0  0
   -4.3680   20.5220  -31.8550 C   0  0  0  0  0  0  0  0  0  0  0  0
   -3.1120   19.8430  -31.9370 C   0  0  0  0  0  0  0  0  0  0  0  0
   -1.9430   20.3970  -31.3910 C   0  0  0  0  0  0  0  0  0  0  0  0
   -2.0310   21.6360  -30.7740 C   0  0  0  0  0  0  0  0  0  0  0  0
   -1.0610   22.3810  -30.1450 C   0  0  0  0  0  0  0  0  0  0  0  0
   -1.7090   23.5320  -29.7050 C   0  0  0  0  0  0  0  0  0  0  0  0
   -1.0120   24.6510  -29.0360 C   0  0  0  0  0  0  0  0  0  0  0  0
   -1.6160   25.9390  -28.9350 N   0  0  0  0  0  0  0  0  0  0  0  0
    0.1520   24.4820  -28.5860 O   0  0  0  0  0  0  0  0  0  0  0  0
   -3.0290   23.4960  -30.0430 N   0  0  0  0  0  0  0  0  0  0  0  0
   -4.0480   24.4500  -29.7070 C   0  0  0  0  0  0  0  0  0  0  0  0
   -4.2100   25.6330  -30.4870 N   0  0  0  0  0  0  0  0  0  0  0  0
   -4.8110   24.2420  -28.7260 O   0  0  0  0  0  0  0  0  0  0  0  0
   -3.2090   22.3270  -30.6990 C   0  0  0  0  0  0  0  0  0  0  0  0
   -4.3960   21.7950  -31.2140 C   0  0  0  0  0  0  0  0  0  0  0  0
   -5.5630   18.5090  -32.8240 C   0  0  0  0  0  0  0  0  0  0  0  0
   -6.8600   17.9990  -33.4680 C   0  0  0  0  0  0  0  0  0  0  0  0
   -7.8469   18.9796  -30.8258 H   0  0  0  0  0  0  0  0  0  0  0  0
   -9.3685   18.1479  -31.2946 H   0  0  0  0  0  0  0  0  0  0  0  0
   -7.8151   17.2458  -31.2946 H   0  0  0  0  0  0  0  0  0  0  0  0
   -7.9881   20.2624  -34.1707 H   0  0  0  0  0  0  0  0  0  0  0  0
   -8.9422   20.4711  -32.6307 H   0  0  0  0  0  0  0  0  0  0  0  0
   -6.6305   21.6769  -32.9380 H   0  0  0  0  0  0  0  0  0  0  0  0
   -7.1064   20.8639  -31.3588 H   0  0  0  0  0  0  0  0  0  0  0  0
   -3.0606   18.8654  -32.4387 H   0  0  0  0  0  0  0  0  0  0  0  0
   -0.9833   19.8628  -31.4510 H   0  0  0  0  0  0  0  0  0  0  0  0
    0.0005   22.1225  -30.0169 H   0  0  0  0  0  0  0  0  0  0  0  0
   -2.6540   26.0480  -28.9670 H   0  0  0  0  0  0  0  0  0  0  0  0
   -3.9120   26.5630  -30.1180 H   0  0  0  0  0  0  0  0  0  0  0  0
   -5.3401   22.3526  -31.1253 H   0  0  0  0  0  0  0  0  0  0  0  0
   -4.7460   18.3725  -33.5478 H   0  0  0  0  0  0  0  0  0  0  0  0
   -5.4293   17.9277  -31.8998 H   0  0  0  0  0  0  0  0  0  0  0  0
   -6.8313   18.2301  -34.5431 H   0  0  0  0  0  0  0  0  0  0  0  0
   -6.9154   16.9165  -33.2803 H   0  0  0  0  0  0  0  0  0  0  0  0
  1  2  1  0
  2  3  1  0
  3  4  1  0
  4  5  1  0
  5  6  1  0
  6  7  2  0
  7  8  1  0
  8  9  2  0
  9 10  1  0
 10 11  2  0
 11 12  1  0
 12 13  1  0
 12 14  2  0
 11 15  1  0
 15 16  1  0
 16 17  1  0
 16 18  2  0
 15 19  1  0
 19 20  2  0
  5 21  1  0
 21 22  1  0
 22  2  1  0
 20  6  1  0
 19  9  1  0
  1 23  1  0
  1 24  1  0
  1 25  1  0
  3 26  1  0
  3 27  1  0
  4 28  1  0
  4 29  1  0
  7 30  1  0
  8 31  1  0
 10 32  1  0
 13 33  1  0
 17 34  1  0
 20 35  1  0
 21 36  1  0
 21 37  1  0
 22 38  1  0
 22 39  1  0
M  CHG  2  13  -1  17  -1
M  END
>  <UniqueID>  (25) 
25

>  <SMILES>  (25) 
CN1CCN(c2ccc3cc(C([NH-])=O)n(C([NH-])=O)c3c2)CC1

>  <Energy>  (25) 
90.56101540567926

>  <Genealogy>  (25) 
CN1CCN(c2ccc3cc(C([NH-])=O)n(C([NH-])=O)c3c2)CC1 (protonated)
CN1CCN(c2ccc3cc(C([NH-])=O)n(C([NH-])=O)c3c2)CC1 (3D coordinates assigned)
CN1CCN(c2ccc3cc(C([NH-])=O)n(C([NH-])=O)c3c2)CC1 (nonaromatic ring conformer: 90.56101540567926 kcal/mol)

>  <smiles>  (25) 
CN1CCN(c2ccc3cc(C(N)=O)n(C(N)=O)c3c2)CC1

>  <score_type>  (25) 
oracle

>  <origin>  (25) 
adg

>  <m_score__min__energy>  (25) 
-11.289999999999999

>  <m_primary>  (25) 
energy

$$$$
25:0
     RDKit          3D

 32 33  0  0  0  0  0  0  0  0999 V2000
   -5.4550   16.8140  -33.6880 C   0  0  0  0  0  0  0  0  0  0  0  0
   -6.6990   17.5160  -33.1310 C   0  0  0  0  0  0  0  0  0  0  0  0
   -6.5780   17.6720  -31.6110 C   0  0  0  0  0  0  0  0  0  0  0  0
   -6.8640   18.8310  -33.7650 N   0  0  0  0  0  0  0  0  0  0  0  0
   -7.0410   20.0710  -33.0490 C   0  0  0  0  0  0  0  0  0  0  0  0
   -8.3280   20.5430  -32.6650 C   0  0  0  0  0  0  0  0  0  0  0  0
   -8.4680   21.7460  -31.9530 C   0  0  0  0  0  0  0  0  0  0  0  0
   -7.3170   22.4590  -31.6390 C   0  0  0  0  0  0  0  0  0  0  0  0
   -7.1670   23.6330  -30.9380 C   0  0  0  0  0  0  0  0  0  0  0  0
   -5.7960   23.8780  -30.9160 C   0  0  0  0  0  0  0  0  0  0  0  0
   -5.1990   25.0960  -30.3280 C   0  0  0  0  0  0  0  0  0  0  0  0
   -3.9830   25.6350  -30.8380 N   0  0  0  0  0  0  0  0  0  0  0  0
   -5.7970   25.6960  -29.3960 O   0  0  0  0  0  0  0  0  0  0  0  0
   -5.1230   22.8880  -31.5710 N   0  0  0  0  0  0  0  0  0  0  0  0
   -3.7020   22.7250  -31.7000 C   0  0  0  0  0  0  0  0  0  0  0  0
   -3.2120   22.2190  -32.7440 O   0  0  0  0  0  0  0  0  0  0  0  0
   -2.8520   23.1470  -30.6850 O   0  0  0  0  0  0  0  0  0  0  0  0
   -6.0700   22.0300  -32.0110 C   0  0  0  0  0  0  0  0  0  0  0  0
   -5.8980   20.8270  -32.7040 C   0  0  0  0  0  0  0  0  0  0  0  0
   -4.8294   16.4609  -32.8550 H   0  0  0  0  0  0  0  0  0  0  0  0
   -5.7630   15.9565  -34.3043 H   0  0  0  0  0  0  0  0  0  0  0  0
   -4.8802   17.5209  -34.3043 H   0  0  0  0  0  0  0  0  0  0  0  0
   -7.5843   16.9027  -33.3550 H   0  0  0  0  0  0  0  0  0  0  0  0
   -7.1794   16.8967  -31.1138 H   0  0  0  0  0  0  0  0  0  0  0  0
   -5.5242   17.5652  -31.3142 H   0  0  0  0  0  0  0  0  0  0  0  0
   -6.9436   18.6661  -31.3142 H   0  0  0  0  0  0  0  0  0  0  0  0
   -6.8640   18.8760  -34.8100 H   0  0  0  0  0  0  0  0  0  0  0  0
   -9.2225   19.9595  -32.9286 H   0  0  0  0  0  0  0  0  0  0  0  0
   -9.4604   22.1132  -31.6526 H   0  0  0  0  0  0  0  0  0  0  0  0
   -7.9613   24.2479  -30.4898 H   0  0  0  0  0  0  0  0  0  0  0  0
   -3.0570   25.2940  -30.4920 H   0  0  0  0  0  0  0  0  0  0  0  0
   -4.8915   20.4760  -32.9754 H   0  0  0  0  0  0  0  0  0  0  0  0
  1  2  1  0
  2  3  1  0
  2  4  1  0
  4  5  1  0
  5  6  2  0
  6  7  1  0
  7  8  2  0
  8  9  1  0
  9 10  2  0
 10 11  1  0
 11 12  1  0
 11 13  2  0
 10 14  1  0
 14 15  1  0
 15 16  2  0
 15 17  1  0
 14 18  1  0
 18 19  2  0
 19  5  1  0
 18  8  1  0
  1 20  1  0
  1 21  1  0
  1 22  1  0
  2 23  1  0
  3 24  1  0
  3 25  1  0
  3 26  1  0
  4 27  1  0
  6 28  1  0
  7 29  1  0
  9 30  1  0
 12 31  1  0
 19 32  1  0
M  CHG  2  12  -1  17  -1
M  END
>  <UniqueID>  (26) 
26

>  <SMILES>  (26) 
CC(C)Nc1ccc2cc(C([NH-])=O)n(C(=O)[O-])c2c1

>  <Energy>  (26) 
68.42583798830428

>  <Genealogy>  (26) 
CC(C)Nc1ccc2cc(C([NH-])=O)n(C(=O)[O-])c2c1 (protonated)
CC(C)Nc1ccc2cc(C([NH-])=O)n(C(=O)[O-])c2c1 (3D coordinates assigned)
CC(C)Nc1ccc2cc(C([NH-])=O)n(C(=O)[O-])c2c1 (optimized conformer: 68.42583798830428 kcal/mol)

>  <smiles>  (26) 
CC(C)Nc1ccc2cc(C(N)=O)n(C(=O)O)c2c1

>  <score_type>  (26) 
oracle

>  <origin>  (26) 
adg

>  <m_score__min__energy>  (26) 
-10.56

>  <m_primary>  (26) 
energy

$$$$
26:0
     RDKit          3D

 43 45  0  0  0  0  0  0  0  0999 V2000
   -3.2420   16.6010  -34.0060 C   0  0  0  0  0  0  0  0  0  0  0  0
   -4.5610   17.1450  -33.5450 C   0  0  0  0  0  0  0  0  0  0  0  0
   -5.2540   18.0810  -34.3290 C   0  0  0  0  0  0  0  0  0  0  0  0
   -6.5000   18.5620  -33.9170 C   0  0  0  0  0  0  0  0  0  0  0  0
   -7.0690   18.1030  -32.7240 C   0  0  0  0  0  0  0  0  0  0  0  0
   -8.6650   18.7240  -32.1960 S   0  0  0  0  0  0  0  0  0  0  0  0
   -8.4230   20.2430  -32.9770 O   0  0  0  0  0  0  0  0  0  0  0  0
   -8.3660   21.2240  -31.9730 C   0  0  0  0  0  0  0  0  0  0  0  0
   -7.3030   22.2560  -32.3410 C   0  0  0  0  0  0  0  0  0  0  0  0
   -5.9770   21.8960  -31.7270 C   0  0  0  0  0  0  0  0  0  0  0  0
   -5.4980   20.5640  -31.8010 C   0  0  0  0  0  0  0  0  0  0  0  0
   -4.2410   20.2260  -31.2770 C   0  0  0  0  0  0  0  0  0  0  0  0
   -3.4860   21.2370  -30.6860 C   0  0  0  0  0  0  0  0  0  0  0  0
   -2.2250   21.1920  -30.1410 C   0  0  0  0  0  0  0  0  0  0  0  0
   -1.9580   22.4940  -29.7250 C   0  0  0  0  0  0  0  0  0  0  0  0
   -0.7200   22.8820  -29.0210 C   0  0  0  0  0  0  0  0  0  0  0  0
   -0.0640   24.1170  -29.3080 N   0  0  0  0  0  0  0  0  0  0  0  0
   -0.2670   22.1390  -28.1100 O   0  0  0  0  0  0  0  0  0  0  0  0
   -3.0050   23.3170  -30.0130 N   0  0  0  0  0  0  0  0  0  0  0  0
   -3.0600   24.7450  -29.8540 C   0  0  0  0  0  0  0  0  0  0  0  0
   -2.3690   25.3170  -28.9700 O   0  0  0  0  0  0  0  0  0  0  0  0
   -3.8810   25.5100  -30.6730 O   0  0  0  0  0  0  0  0  0  0  0  0
   -3.9370   22.5300  -30.6000 C   0  0  0  0  0  0  0  0  0  0  0  0
   -5.1790   22.8980  -31.1330 C   0  0  0  0  0  0  0  0  0  0  0  0
   -6.3930   17.1520  -31.9500 C   0  0  0  0  0  0  0  0  0  0  0  0
   -5.1460   16.6710  -32.3610 C   0  0  0  0  0  0  0  0  0  0  0  0
   -2.6247   16.3464  -33.1319 H   0  0  0  0  0  0  0  0  0  0  0  0
   -3.4093   15.6985  -34.6122 H   0  0  0  0  0  0  0  0  0  0  0  0
   -2.7244   17.3591  -34.6122 H   0  0  0  0  0  0  0  0  0  0  0  0
   -4.8142   18.4376  -35.2721 H   0  0  0  0  0  0  0  0  0  0  0  0
   -7.0338   19.3021  -34.5313 H   0  0  0  0  0  0  0  0  0  0  0  0
   -9.3446   21.7186  -31.8856 H   0  0  0  0  0  0  0  0  0  0  0  0
   -8.1094   20.7551  -31.0116 H   0  0  0  0  0  0  0  0  0  0  0  0
   -7.1967   22.2905  -33.4353 H   0  0  0  0  0  0  0  0  0  0  0  0
   -7.6156   23.2382  -31.9568 H   0  0  0  0  0  0  0  0  0  0  0  0
   -6.1177   19.7878  -32.2738 H   0  0  0  0  0  0  0  0  0  0  0  0
   -3.8632   19.1943  -31.3311 H   0  0  0  0  0  0  0  0  0  0  0  0
   -1.5671   20.3149  -30.0523 H   0  0  0  0  0  0  0  0  0  0  0  0
   -0.5030   24.8280  -29.9330 H   0  0  0  0  0  0  0  0  0  0  0  0
    0.8300   24.3600  -28.8240 H   0  0  0  0  0  0  0  0  0  0  0  0
   -5.5241   23.9416  -31.0899 H   0  0  0  0  0  0  0  0  0  0  0  0
   -6.8437   16.7826  -31.0170 H   0  0  0  0  0  0  0  0  0  0  0  0
   -4.6217   15.9183  -31.7539 H   0  0  0  0  0  0  0  0  0  0  0  0
  1  2  1  0
  2  3  2  0
  3  4  1  0
  4  5  2  0
  5  6  1  0
  6  7  1  0
  7  8  1  0
  8  9  1  0
  9 10  1  0
 10 11  2  0
 11 12  1  0
 12 13  2  0
 13 14  1  0
 14 15  2  0
 15 16  1  0
 16 17  1  0
 16 18  2  0
 15 19  1  0
 19 20  1  0
 20 21  2  0
 20 22  1  0
 19 23  1  0
 23 24  2  0
  5 25  1  0
 25 26  2  0
 26  2  1  0
 24 10  1  0
 23 13  1  0
  1 27  1  0
  1 28  1  0
  1 29  1  0
  3 30  1  0
  4 31  1  0
  8 32  1  0
  8 33  1  0
  9 34  1  0
  9 35  1  0
 11 36  1  0
 12 37  1  0
 14 38  1  0
 17 39  1  0
 17 40  1  0
 24 41  1  0
 25 42  1  0
 26 43  1  0
M  CHG  1  22  -1
M  END
>  <UniqueID>  (27) 
27

>  <SMILES>  (27) 
Cc1ccc(SOCCc2ccc3cc(C(N)=O)n(C(=O)[O-])c3c2)cc1

>  <Energy>  (27) 
78.24482888728066

>  <Genealogy>  (27) 
Cc1ccc(SOCCc2ccc3cc(C(N)=O)n(C(=O)[O-])c3c2)cc1 (protonated)
Cc1ccc(SOCCc2ccc3cc(C(N)=O)n(C(=O)[O-])c3c2)cc1 (3D coordinates assigned)
Cc1ccc(SOCCc2ccc3cc(C(N)=O)n(C(=O)[O-])c3c2)cc1 (optimized conformer: 78.24482888728066 kcal/mol)

>  <smiles>  (27) 
Cc1ccc(SOCCc2ccc3cc(C(N)=O)n(C(=O)O)c3c2)cc1

>  <score_type>  (27) 
oracle

>  <origin>  (27) 
adg

>  <m_score__min__energy>  (27) 
-10.300000000000001

>  <m_primary>  (27) 
energy

$$$$
27:0
     RDKit          3D

 42 44  0  0  0  0  0  0  0  0999 V2000
   -2.8320   20.7860  -32.7800 C   0  0  0  0  0  0  0  0  0  0  0  0
   -3.4820   20.2430  -31.6510 O   0  0  0  0  0  0  0  0  0  0  0  0
   -3.5420   21.2010  -30.6130 C   0  0  0  0  0  0  0  0  0  0  0  0
   -4.1190   22.4990  -31.1070 C   0  0  0  0  0  0  0  0  0  0  0  0
   -3.3460   23.3980  -31.5310 O   0  0  0  0  0  0  0  0  0  0  0  0
   -5.5370   22.7350  -31.0820 N   0  0  0  0  0  0  0  0  0  0  0  0
   -6.1910   23.8840  -30.7590 C   0  0  0  0  0  0  0  0  0  0  0  0
   -5.5780   25.0860  -30.1610 C   0  0  0  0  0  0  0  0  0  0  0  0
   -4.2830   25.5320  -30.5640 N   0  0  0  0  0  0  0  0  0  0  0  0
   -6.1820   25.6970  -29.2400 O   0  0  0  0  0  0  0  0  0  0  0  0
   -7.5530   23.7650  -31.0270 C   0  0  0  0  0  0  0  0  0  0  0  0
   -7.7150   22.4900  -31.5200 C   0  0  0  0  0  0  0  0  0  0  0  0
   -8.8590   21.8400  -31.9700 C   0  0  0  0  0  0  0  0  0  0  0  0
   -8.7210   20.5340  -32.4710 C   0  0  0  0  0  0  0  0  0  0  0  0
   -7.4490   19.9070  -32.5310 C   0  0  0  0  0  0  0  0  0  0  0  0
   -7.3380   18.4900  -33.0720 C   0  0  0  0  0  0  0  0  0  0  0  0
   -6.1110   18.2880  -33.9690 C   0  0  0  0  0  0  0  0  0  0  0  0
   -5.1050   17.4500  -33.1810 C   0  0  0  0  0  0  0  0  0  0  0  0
   -5.7270   17.1490  -31.8220 C   0  0  0  0  0  0  0  0  0  0  0  0
   -7.2080   17.4640  -31.9460 C   0  0  0  0  0  0  0  0  0  0  0  0
   -6.3120   20.6020  -32.0520 C   0  0  0  0  0  0  0  0  0  0  0  0
   -6.4830   21.8910  -31.5440 C   0  0  0  0  0  0  0  0  0  0  0  0
   -2.0265   21.4589  -32.4509 H   0  0  0  0  0  0  0  0  0  0  0  0
   -2.4057   19.9719  -33.3845 H   0  0  0  0  0  0  0  0  0  0  0  0
   -3.5573   21.3504  -33.3845 H   0  0  0  0  0  0  0  0  0  0  0  0
   -4.1747   20.8123  -29.8015 H   0  0  0  0  0  0  0  0  0  0  0  0
   -2.5204   21.3882  -30.2508 H   0  0  0  0  0  0  0  0  0  0  0  0
   -3.8790   26.4050  -30.1570 H   0  0  0  0  0  0  0  0  0  0  0  0
   -3.6920   24.9640  -31.2100 H   0  0  0  0  0  0  0  0  0  0  0  0
   -8.3321   24.5268  -30.8768 H   0  0  0  0  0  0  0  0  0  0  0  0
   -9.8418   22.3328  -31.9350 H   0  0  0  0  0  0  0  0  0  0  0  0
   -9.6108   19.9905  -32.8213 H   0  0  0  0  0  0  0  0  0  0  0  0
   -8.2627   18.3433  -33.6494 H   0  0  0  0  0  0  0  0  0  0  0  0
   -6.4007   17.7607  -34.8899 H   0  0  0  0  0  0  0  0  0  0  0  0
   -5.6731   19.2561  -34.2537 H   0  0  0  0  0  0  0  0  0  0  0  0
   -4.8972   16.5113  -33.7155 H   0  0  0  0  0  0  0  0  0  0  0  0
   -4.1560   17.9934  -33.0618 H   0  0  0  0  0  0  0  0  0  0  0  0
   -5.5842   16.0890  -31.5651 H   0  0  0  0  0  0  0  0  0  0  0  0
   -5.2579   17.7489  -31.0282 H   0  0  0  0  0  0  0  0  0  0  0  0
   -7.7713   16.5526  -32.1949 H   0  0  0  0  0  0  0  0  0  0  0  0
   -7.6131   17.8553  -31.0011 H   0  0  0  0  0  0  0  0  0  0  0  0
   -5.3158   20.1364  -32.0796 H   0  0  0  0  0  0  0  0  0  0  0  0
  1  2  1  0
  2  3  1  0
  3  4  1  0
  4  5  2  0
  4  6  1  0
  6  7  1  0
  7  8  1  0
  8  9  1  0
  8 10  2  0
  7 11  2  0
 11 12  1  0
 12 13  2  0
 13 14  1  0
 14 15  2  0
 15 16  1  0
 16 17  1  0
 17 18  1  0
 18 19  1  0
 19 20  1  0
 15 21  1  0
 21 22  2  0
 22  6  1  0
 22 12  1  0
 20 16  1  0
  1 23  1  0
  1 24  1  0
  1 25  1  0
  3 26  1  0
  3 27  1  0
  9 28  1  0
  9 29  1  0
 11 30  1  0
 13 31  1  0
 14 32  1  0
 16 33  1  0
 17 34  1  0
 17 35  1  0
 18 36  1  0
 18 37  1  0
 19 38  1  0
 19 39  1  0
 20 40  1  0
 20 41  1  0
 21 42  1  0
M  END
>  <UniqueID>  (28) 
28

>  <SMILES>  (28) 
COCC(=O)n1c(C(N)=O)cc2ccc(C3CCCC3)cc21

>  <Energy>  (28) 
86.12832683550768

>  <Genealogy>  (28) 
COCC(=O)n1c(C(N)=O)cc2ccc(C3CCCC3)cc21 (3D coordinates assigned)
COCC(=O)n1c(C(N)=O)cc2ccc(C3CCCC3)cc21 (nonaromatic ring conformer: 86.12832683550768 kcal/mol)

>  <smiles>  (28) 
COCC(=O)n1c(C(N)=O)cc2ccc(C3CCCC3)cc21

>  <score_type>  (28) 
oracle

>  <origin>  (28) 
adg

>  <m_score__min__energy>  (28) 
-9.5

>  <m_primary>  (28) 
energy

$$$$
28:0
     RDKit          3D

 38 39  0  0  0  0  0  0  0  0999 V2000
   -7.3050   21.6200  -32.3240 C   0  0  0  0  0  0  0  0  0  0  0  0
   -6.7870   20.2170  -32.2740 C   0  0  0  0  0  0  0  0  0  0  0  0
   -7.5480   19.2950  -31.8760 O   0  0  0  0  0  0  0  0  0  0  0  0
   -5.4400   19.9100  -32.6720 N   0  0  0  0  0  0  0  0  0  0  0  0
   -5.0230   18.8510  -33.4230 C   0  0  0  0  0  0  0  0  0  0  0  0
   -5.9120   17.8620  -34.0740 C   0  0  0  0  0  0  0  0  0  0  0  0
   -6.8400   17.0920  -33.3050 N   0  0  0  0  0  0  0  0  0  0  0  0
   -5.8450   17.6730  -35.3170 O   0  0  0  0  0  0  0  0  0  0  0  0
   -3.6350   18.8680  -33.5570 C   0  0  0  0  0  0  0  0  0  0  0  0
   -3.2130   19.9740  -32.8550 C   0  0  0  0  0  0  0  0  0  0  0  0
   -1.9290   20.4660  -32.6470 C   0  0  0  0  0  0  0  0  0  0  0  0
   -1.7860   21.6180  -31.8580 C   0  0  0  0  0  0  0  0  0  0  0  0
   -2.9140   22.2560  -31.2840 C   0  0  0  0  0  0  0  0  0  0  0  0
   -2.7140   23.4360  -30.4770 N   0  0  0  0  0  0  0  0  0  0  0  0
   -3.1350   23.5670  -29.0760 C   0  0  2  0  0  0  0  0  0  0  0  0
   -4.5760   24.1100  -29.0040 C   0  0  0  0  0  0  0  0  0  0  0  0
   -4.9040   24.9520  -30.2000 C   0  0  0  0  0  0  0  0  0  0  0  0
   -6.0930   25.0370  -30.6060 O   0  0  0  0  0  0  0  0  0  0  0  0
   -3.9050   25.6770  -30.8370 O   0  0  0  0  0  0  0  0  0  0  0  0
   -2.1840   24.4700  -28.3320 C   0  0  0  0  0  0  0  0  0  0  0  0
   -1.6320   25.6120  -28.9820 N   0  0  0  0  0  0  0  0  0  0  0  0
   -1.8690   24.2190  -27.1370 O   0  0  0  0  0  0  0  0  0  0  0  0
   -4.2050   21.7170  -31.5150 C   0  0  0  0  0  0  0  0  0  0  0  0
   -4.3200   20.5840  -32.3270 C   0  0  0  0  0  0  0  0  0  0  0  0
   -7.4439   21.9963  -31.2997 H   0  0  0  0  0  0  0  0  0  0  0  0
   -6.5834   22.2586  -32.8545 H   0  0  0  0  0  0  0  0  0  0  0  0
   -8.2685   21.6364  -32.8545 H   0  0  0  0  0  0  0  0  0  0  0  0
   -6.9750   17.2600  -32.2850 H   0  0  0  0  0  0  0  0  0  0  0  0
   -7.4330   16.3710  -33.7720 H   0  0  0  0  0  0  0  0  0  0  0  0
   -3.0098   18.1495  -34.1073 H   0  0  0  0  0  0  0  0  0  0  0  0
   -1.0526   19.9678  -33.0872 H   0  0  0  0  0  0  0  0  0  0  0  0
   -0.7823   22.0324  -31.6823 H   0  0  0  0  0  0  0  0  0  0  0  0
   -2.2690   24.2630  -30.9380 H   0  0  0  0  0  0  0  0  0  0  0  0
   -3.1150   22.5755  -28.6001 H   0  0  0  0  0  0  0  0  0  0  0  0
   -5.2759   23.2626  -28.9602 H   0  0  0  0  0  0  0  0  0  0  0  0
   -4.6650   24.7369  -28.1045 H   0  0  0  0  0  0  0  0  0  0  0  0
   -1.6140   25.6800  -30.0230 H   0  0  0  0  0  0  0  0  0  0  0  0
   -5.0961   22.1796  -31.0656 H   0  0  0  0  0  0  0  0  0  0  0  0
  1  2  1  0
  2  3  2  0
  2  4  1  0
  4  5  1  0
  5  6  1  0
  6  7  1  0
  6  8  2  0
  5  9  2  0
  9 10  1  0
 10 11  2  0
 11 12  1  0
 12 13  2  0
 13 14  1  0
 14 15  1  0
 15 16  1  0
 16 17  1  0
 17 18  2  0
 17 19  1  0
 15 20  1  0
 20 21  1  0
 20 22  2  0
 13 23  1  0
 23 24  2  0
 24  4  1  0
 24 10  1  0
  1 25  1  0
  1 26  1  0
  1 27  1  0
  7 28  1  0
  7 29  1  0
  9 30  1  0
 11 31  1  0
 12 32  1  0
 14 33  1  0
 15 34  1  1
 16 35  1  0
 16 36  1  0
 21 37  1  0
 23 38  1  0
M  CHG  2  19  -1  21  -1
M  END
>  <UniqueID>  (29) 
29

>  <SMILES>  (29) 
CC(=O)n1c(C(N)=O)cc2ccc(N[C@H](CC(=O)[O-])C([NH-])=O)cc21

>  <Energy>  (29) 
73.65003956904994

>  <Genealogy>  (29) 
CC(=O)n1c(C(N)=O)cc2ccc(N[C@H](CC(=O)[O-])C([NH-])=O)cc21 (protonated)
CC(=O)n1c(C(N)=O)cc2ccc(N[C@H](CC(=O)[O-])C([NH-])=O)cc21 (3D coordinates assigned)
CC(=O)n1c(C(N)=O)cc2ccc(N[C@H](CC(=O)[O-])C([NH-])=O)cc21 (optimized conformer: 73.65003956904994 kcal/mol)

>  <smiles>  (29) 
CC(=O)n1c(C(N)=O)cc2ccc(N[C@H](CC(=O)O)C(N)=O)cc21

>  <score_type>  (29) 
oracle

>  <origin>  (29) 
adg

>  <m_score__min__energy>  (29) 
-11.24

>  <m_primary>  (29) 
energy

$$$$
29:0
     RDKit          3D

 42 44  0  0  0  0  0  0  0  0999 V2000
   -2.6800   17.8170  -33.7170 C   0  0  0  0  0  0  0  0  0  0  0  0
   -3.5590   16.7370  -33.1690 C   0  0  0  0  0  0  0  0  0  0  0  0
   -3.0330   15.6720  -32.7500 O   0  0  0  0  0  0  0  0  0  0  0  0
   -4.9850   16.9050  -33.0990 N   0  0  0  0  0  0  0  0  0  0  0  0
   -5.9340   16.0820  -33.6280 C   0  0  0  0  0  0  0  0  0  0  0  0
   -5.6870   14.7710  -34.2610 C   0  0  0  0  0  0  0  0  0  0  0  0
   -4.4300   14.4640  -34.8700 N   0  0  0  0  0  0  0  0  0  0  0  0
   -6.5840   13.8880  -34.2240 O   0  0  0  0  0  0  0  0  0  0  0  0
   -7.2030   16.6350  -33.4760 C   0  0  0  0  0  0  0  0  0  0  0  0
   -7.0020   17.8310  -32.8270 C   0  0  0  0  0  0  0  0  0  0  0  0
   -7.9190   18.8060  -32.4460 C   0  0  0  0  0  0  0  0  0  0  0  0
   -7.4270   19.9710  -31.8360 C   0  0  0  0  0  0  0  0  0  0  0  0
   -6.0340   20.1520  -31.6290 C   0  0  0  0  0  0  0  0  0  0  0  0
   -5.5370   21.3610  -31.0120 N   0  0  0  0  0  0  0  0  0  0  0  0
   -6.4760   22.4270  -30.6240 C   0  0  0  0  0  0  0  0  0  0  0  0
   -5.7740   23.7880  -30.6040 C   0  0  0  0  0  0  0  0  0  0  0  0
   -4.5610   23.7910  -29.6460 C   0  0  0  0  0  0  0  0  0  0  0  0
   -3.6060   24.8900  -30.0260 C   0  0  0  0  0  0  0  0  0  0  0  0
   -3.8760   25.6730  -30.9750 O   0  0  0  0  0  0  0  0  0  0  0  0
   -2.4270   25.0640  -29.3110 O   0  0  0  0  0  0  0  0  0  0  0  0
   -3.8390   22.4210  -29.5650 C   0  0  0  0  0  0  0  0  0  0  0  0
   -4.0920   21.5480  -30.8000 C   0  0  0  0  0  0  0  0  0  0  0  0
   -5.1350   19.1380  -32.0360 C   0  0  0  0  0  0  0  0  0  0  0  0
   -5.6560   17.9750  -32.6160 C   0  0  0  0  0  0  0  0  0  0  0  0
   -2.2249   18.3762  -32.8862 H   0  0  0  0  0  0  0  0  0  0  0  0
   -1.8879   17.3674  -34.3338 H   0  0  0  0  0  0  0  0  0  0  0  0
   -3.2811   18.5013  -34.3338 H   0  0  0  0  0  0  0  0  0  0  0  0
   -3.6050   15.0930  -34.7540 H   0  0  0  0  0  0  0  0  0  0  0  0
   -4.2950   13.5510  -35.3570 H   0  0  0  0  0  0  0  0  0  0  0  0
   -8.1614   16.2068  -33.8047 H   0  0  0  0  0  0  0  0  0  0  0  0
   -8.9968   18.6681  -32.6176 H   0  0  0  0  0  0  0  0  0  0  0  0
   -8.1298   20.7536  -31.5143 H   0  0  0  0  0  0  0  0  0  0  0  0
   -7.3044   22.4589  -31.3470 H   0  0  0  0  0  0  0  0  0  0  0  0
   -6.8572   22.2116  -29.6149 H   0  0  0  0  0  0  0  0  0  0  0  0
   -5.4263   24.0248  -31.6204 H   0  0  0  0  0  0  0  0  0  0  0  0
   -6.4937   24.5401  -30.2486 H   0  0  0  0  0  0  0  0  0  0  0  0
   -4.9499   23.9821  -28.6350 H   0  0  0  0  0  0  0  0  0  0  0  0
   -2.7571   22.5976  -29.4739 H   0  0  0  0  0  0  0  0  0  0  0  0
   -4.2373   21.8853  -28.6907 H   0  0  0  0  0  0  0  0  0  0  0  0
   -3.6567   22.0367  -31.6841 H   0  0  0  0  0  0  0  0  0  0  0  0
   -3.6254   20.5645  -30.6421 H   0  0  0  0  0  0  0  0  0  0  0  0
   -4.0504   19.2607  -31.8997 H   0  0  0  0  0  0  0  0  0  0  0  0
  1  2  1  0
  2  3  2  0
  2  4  1  0
  4  5  1  0
  5  6  1  0
  6  7  1  0
  6  8  2  0
  5  9  2  0
  9 10  1  0
 10 11  2  0
 11 12  1  0
 12 13  2  0
 13 14  1  0
 14 15  1  0
 15 16  1  0
 16 17  1  0
 17 18  1  0
 18 19  2  0
 18 20  1  0
 17 21  1  0
 21 22  1  0
 13 23  1  0
 23 24  2  0
 24  4  1  0
 24 10  1  0
 22 14  1  0
  1 25  1  0
  1 26  1  0
  1 27  1  0
  7 28  1  0
  7 29  1  0
  9 30  1  0
 11 31  1  0
 12 32  1  0
 15 33  1  0
 15 34  1  0
 16 35  1  0
 16 36  1  0
 17 37  1  0
 21 38  1  0
 21 39  1  0
 22 40  1  0
 22 41  1  0
 23 42  1  0
M  CHG  1  20  -1
M  END
>  <UniqueID>  (30) 
30

>  <SMILES>  (30) 
CC(=O)n1c(C(N)=O)cc2ccc(N3CCC(C(=O)[O-])CC3)cc21

>  <Energy>  (30) 
87.4944872396784

>  <Genealogy>  (30) 
CC(=O)n1c(C(N)=O)cc2ccc(N3CCC(C(=O)[O-])CC3)cc21 (protonated)
CC(=O)n1c(C(N)=O)cc2ccc(N3CCC(C(=O)[O-])CC3)cc21 (3D coordinates assigned)
CC(=O)n1c(C(N)=O)cc2ccc(N3CCC(C(=O)[O-])CC3)cc21 (nonaromatic ring conformer: 87.4944872396784 kcal/mol)

>  <smiles>  (30) 
CC(=O)n1c(C(N)=O)cc2ccc(N3CCC(C(=O)O)CC3)cc21

>  <score_type>  (30) 
oracle

>  <origin>  (30) 
adg

>  <m_score__min__energy>  (30) 
-9.6999999999999993

>  <m_primary>  (30) 
energy

$$$$
30:0
     RDKit          3D

 33 34  0  0  0  0  0  0  0  0999 V2000
   -2.3580   21.5620  -32.2160 C   0  0  0  0  0  0  0  0  0  0  0  0
   -3.1690   20.3170  -31.8760 C   0  0  0  0  0  0  0  0  0  0  0  0
   -4.0950   19.9730  -33.0040 C   0  0  0  0  0  0  0  0  0  0  0  0
   -3.6200   19.6630  -34.1290 O   0  0  0  0  0  0  0  0  0  0  0  0
   -5.5140   20.1040  -32.8440 N   0  0  0  0  0  0  0  0  0  0  0  0
   -6.4760   19.1720  -33.0900 C   0  0  0  0  0  0  0  0  0  0  0  0
   -6.2510   17.8430  -33.6940 C   0  0  0  0  0  0  0  0  0  0  0  0
   -5.6780   17.7410  -34.9960 N   0  0  0  0  0  0  0  0  0  0  0  0
   -6.5410   16.7920  -33.0620 O   0  0  0  0  0  0  0  0  0  0  0  0
   -7.7330   19.6710  -32.7520 C   0  0  0  0  0  0  0  0  0  0  0  0
   -7.5060   20.9500  -32.2920 C   0  0  0  0  0  0  0  0  0  0  0  0
   -8.4000   21.9080  -31.8220 C   0  0  0  0  0  0  0  0  0  0  0  0
   -7.8780   23.1440  -31.4000 C   0  0  0  0  0  0  0  0  0  0  0  0
   -6.4820   23.3920  -31.4440 C   0  0  0  0  0  0  0  0  0  0  0  0
   -5.9390   24.7260  -31.0160 C   0  0  0  0  0  0  0  0  0  0  0  0
   -4.7040   24.5390  -30.1950 C   0  0  0  0  0  0  0  0  0  0  0  0
   -3.5320   25.2970  -30.4860 N   0  0  0  0  0  0  0  0  0  0  0  0
   -4.6830   23.6820  -29.2700 O   0  0  0  0  0  0  0  0  0  0  0  0
   -5.6090   22.3990  -31.9400 C   0  0  0  0  0  0  0  0  0  0  0  0
   -6.1580   21.1850  -32.3600 C   0  0  0  0  0  0  0  0  0  0  0  0
   -2.0366   22.0553  -31.2868 H   0  0  0  0  0  0  0  0  0  0  0  0
   -1.4735   21.2744  -32.8033 H   0  0  0  0  0  0  0  0  0  0  0  0
   -2.9786   22.2548  -32.8033 H   0  0  0  0  0  0  0  0  0  0  0  0
   -2.4837   19.4748  -31.6998 H   0  0  0  0  0  0  0  0  0  0  0  0
   -3.7647   20.5146  -30.9726 H   0  0  0  0  0  0  0  0  0  0  0  0
   -4.8020   18.2550  -35.2380 H   0  0  0  0  0  0  0  0  0  0  0  0
   -8.7003   19.1538  -32.8349 H   0  0  0  0  0  0  0  0  0  0  0  0
   -9.4803   21.7048  -31.7819 H   0  0  0  0  0  0  0  0  0  0  0  0
   -8.5588   23.9258  -31.0323 H   0  0  0  0  0  0  0  0  0  0  0  0
   -5.6962   25.3229  -31.9075 H   0  0  0  0  0  0  0  0  0  0  0  0
   -6.6972   25.2461  -30.4121 H   0  0  0  0  0  0  0  0  0  0  0  0
   -3.5450   26.0440  -31.2140 H   0  0  0  0  0  0  0  0  0  0  0  0
   -4.5248   22.5768  -31.9942 H   0  0  0  0  0  0  0  0  0  0  0  0
  1  2  1  0
  2  3  1  0
  3  4  2  0
  3  5  1  0
  5  6  1  0
  6  7  1  0
  7  8  1  0
  7  9  2  0
  6 10  2  0
 10 11  1  0
 11 12  2  0
 12 13  1  0
 13 14  2  0
 14 15  1  0
 15 16  1  0
 16 17  1  0
 16 18  2  0
 14 19  1  0
 19 20  2  0
 20  5  1  0
 20 11  1  0
  1 21  1  0
  1 22  1  0
  1 23  1  0
  2 24  1  0
  2 25  1  0
  8 26  1  0
 10 27  1  0
 12 28  1  0
 13 29  1  0
 15 30  1  0
 15 31  1  0
 17 32  1  0
 19 33  1  0
M  CHG  2   8  -1  17  -1
M  END
>  <UniqueID>  (31) 
31

>  <SMILES>  (31) 
CCC(=O)n1c(C([NH-])=O)cc2ccc(CC([NH-])=O)cc21

>  <Energy>  (31) 
66.51476381587007

>  <Genealogy>  (31) 
CCC(=O)n1c(C([NH-])=O)cc2ccc(CC([NH-])=O)cc21 (protonated)
CCC(=O)n1c(C([NH-])=O)cc2ccc(CC([NH-])=O)cc21 (3D coordinates assigned)
CCC(=O)n1c(C([NH-])=O)cc2ccc(CC([NH-])=O)cc21 (optimized conformer: 66.51476381587007 kcal/mol)

>  <smiles>  (31) 
CCC(=O)n1c(C(N)=O)cc2ccc(CC(N)=O)cc21

>  <score_type>  (31) 
oracle

>  <origin>  (31) 
adg

>  <m_score__min__energy>  (31) 
-9.5600000000000005

>  <m_primary>  (31) 
energy

$$$$
31:0
     RDKit          3D

 31 32  0  0  0  0  0  0  0  0999 V2000
   -1.1430   21.1600  -33.7360 C   0  0  0  0  0  0  0  0  0  0  0  0
   -2.2620   20.4070  -34.1880 O   0  0  0  0  0  0  0  0  0  0  0  0
   -2.9350   19.4950  -33.3710 C   0  0  0  0  0  0  0  0  0  0  0  0
   -2.3500   18.9500  -32.3960 O   0  0  0  0  0  0  0  0  0  0  0  0
   -4.3780   19.2030  -33.6290 C   0  0  0  0  0  0  0  0  0  0  0  0
   -5.2350   20.2840  -33.0310 C   0  0  0  0  0  0  0  0  0  0  0  0
   -6.6480   20.1780  -33.0800 C   0  0  0  0  0  0  0  0  0  0  0  0
   -7.4590   21.1550  -32.4820 C   0  0  0  0  0  0  0  0  0  0  0  0
   -6.8320   22.2240  -31.8460 C   0  0  0  0  0  0  0  0  0  0  0  0
   -7.3760   23.2810  -31.1560 C   0  0  0  0  0  0  0  0  0  0  0  0
   -6.2890   24.0280  -30.7120 C   0  0  0  0  0  0  0  0  0  0  0  0
   -6.4270   25.2970  -29.9690 C   0  0  0  0  0  0  0  0  0  0  0  0
   -5.6320   26.4370  -30.2970 N   0  0  0  0  0  0  0  0  0  0  0  0
   -7.2990   25.3930  -29.0650 O   0  0  0  0  0  0  0  0  0  0  0  0
   -5.1170   23.4510  -31.0980 N   0  0  0  0  0  0  0  0  0  0  0  0
   -3.7840   23.8530  -30.7380 C   0  0  0  0  0  0  0  0  0  0  0  0
   -2.8670   22.9960  -30.6320 O   0  0  0  0  0  0  0  0  0  0  0  0
   -3.4900   25.1910  -30.5050 O   0  0  0  0  0  0  0  0  0  0  0  0
   -5.4660   22.3470  -31.7970 C   0  0  0  0  0  0  0  0  0  0  0  0
   -4.6340   21.3750  -32.3650 C   0  0  0  0  0  0  0  0  0  0  0  0
   -1.1280   21.1701  -32.6361 H   0  0  0  0  0  0  0  0  0  0  0  0
   -0.2164   20.7009  -34.1112 H   0  0  0  0  0  0  0  0  0  0  0  0
   -1.2193   22.1912  -34.1112 H   0  0  0  0  0  0  0  0  0  0  0  0
   -4.5524   19.1580  -34.7142 H   0  0  0  0  0  0  0  0  0  0  0  0
   -4.6396   18.2384  -33.1694 H   0  0  0  0  0  0  0  0  0  0  0  0
   -7.1129   19.3222  -33.5914 H   0  0  0  0  0  0  0  0  0  0  0  0
   -8.5559   21.0789  -32.5145 H   0  0  0  0  0  0  0  0  0  0  0  0
   -8.4429   23.4915  -30.9901 H   0  0  0  0  0  0  0  0  0  0  0  0
   -5.7160   27.3140  -29.7360 H   0  0  0  0  0  0  0  0  0  0  0  0
   -5.0250   26.4430  -31.1460 H   0  0  0  0  0  0  0  0  0  0  0  0
   -3.5395   21.4588  -32.2944 H   0  0  0  0  0  0  0  0  0  0  0  0
  1  2  1  0
  2  3  1  0
  3  4  2  0
  3  5  1  0
  5  6  1  0
  6  7  2  0
  7  8  1  0
  8  9  2  0
  9 10  1  0
 10 11  2  0
 11 12  1  0
 12 13  1  0
 12 14  2  0
 11 15  1  0
 15 16  1  0
 16 17  2  0
 16 18  1  0
 15 19  1  0
 19 20  2  0
 20  6  1  0
 19  9  1  0
  1 21  1  0
  1 22  1  0
  1 23  1  0
  5 24  1  0
  5 25  1  0
  7 26  1  0
  8 27  1  0
 10 28  1  0
 13 29  1  0
 13 30  1  0
 20 31  1  0
M  CHG  1  18  -1
M  END
>  <UniqueID>  (32) 
32

>  <SMILES>  (32) 
COC(=O)Cc1ccc2cc(C(N)=O)n(C(=O)[O-])c2c1

>  <Energy>  (32) 
67.20410627903802

>  <Genealogy>  (32) 
COC(=O)Cc1ccc2cc(C(N)=O)n(C(=O)[O-])c2c1 (protonated)
COC(=O)Cc1ccc2cc(C(N)=O)n(C(=O)[O-])c2c1 (3D coordinates assigned)
COC(=O)Cc1ccc2cc(C(N)=O)n(C(=O)[O-])c2c1 (optimized conformer: 67.20410627903802 kcal/mol)

>  <smiles>  (32) 
COC(=O)Cc1ccc2cc(C(N)=O)n(C(=O)O)c2c1

>  <score_type>  (32) 
oracle

>  <origin>  (32) 
adg

>  <m_score__min__energy>  (32) 
-8.4600000000000009

>  <m_primary>  (32) 
energy

$$$$
32:0
     RDKit          3D

 44 45  0  0  0  0  0  0  0  0999 V2000
   -4.9530   16.1540  -33.6460 C   0  0  0  0  0  0  0  0  0  0  0  0
   -5.3640   17.1690  -34.5540 O   0  0  0  0  0  0  0  0  0  0  0  0
   -6.0920   18.2920  -34.1510 C   0  0  0  0  0  0  0  0  0  0  0  0
   -6.1030   19.3400  -34.8520 O   0  0  0  0  0  0  0  0  0  0  0  0
   -6.8200   18.2640  -32.8450 C   0  0  0  0  0  0  0  0  0  0  0  0
   -7.0580   19.6660  -32.3590 C   0  0  0  0  0  0  0  0  0  0  0  0
   -8.3750   20.1860  -32.2880 C   0  0  0  0  0  0  0  0  0  0  0  0
   -8.6000   21.5080  -31.8710 C   0  0  0  0  0  0  0  0  0  0  0  0
   -7.4950   22.2850  -31.5340 C   0  0  0  0  0  0  0  0  0  0  0  0
   -7.4260   23.6040  -31.1470 C   0  0  0  0  0  0  0  0  0  0  0  0
   -6.0690   23.8650  -30.9730 C   0  0  0  0  0  0  0  0  0  0  0  0
   -5.5440   25.1630  -30.5030 C   0  0  0  0  0  0  0  0  0  0  0  0
   -4.2120   25.5780  -30.8100 N   0  0  0  0  0  0  0  0  0  0  0  0
   -6.2650   25.8930  -29.7720 O   0  0  0  0  0  0  0  0  0  0  0  0
   -5.3260   22.7580  -31.2530 N   0  0  0  0  0  0  0  0  0  0  0  0
   -3.8950   22.6560  -31.3230 C   0  0  0  0  0  0  0  0  0  0  0  0
   -3.1950   23.0130  -30.3370 O   0  0  0  0  0  0  0  0  0  0  0  0
   -3.2940   22.1700  -32.4930 O   0  0  0  0  0  0  0  0  0  0  0  0
   -2.4580   21.0100  -32.6030 C   0  0  0  0  0  0  0  0  0  0  0  0
   -2.2910   20.3300  -31.2300 C   0  0  0  0  0  0  0  0  0  0  0  0
   -3.1620   20.0350  -33.5590 C   0  0  0  0  0  0  0  0  0  0  0  0
   -1.0870   21.3850  -33.1970 C   0  0  0  0  0  0  0  0  0  0  0  0
   -6.2150   21.7960  -31.5890 C   0  0  0  0  0  0  0  0  0  0  0  0
   -5.9600   20.4870  -32.0160 C   0  0  0  0  0  0  0  0  0  0  0  0
   -5.0955   16.5060  -32.6136 H   0  0  0  0  0  0  0  0  0  0  0  0
   -5.5553   15.2485  -33.8111 H   0  0  0  0  0  0  0  0  0  0  0  0
   -3.8904   15.9227  -33.8111 H   0  0  0  0  0  0  0  0  0  0  0  0
   -7.7863   17.7554  -32.9775 H   0  0  0  0  0  0  0  0  0  0  0  0
   -6.2123   17.7234  -32.1044 H   0  0  0  0  0  0  0  0  0  0  0  0
   -9.2283   19.5482  -32.5620 H   0  0  0  0  0  0  0  0  0  0  0  0
   -9.6192   21.9175  -31.8124 H   0  0  0  0  0  0  0  0  0  0  0  0
   -8.2637   24.3028  -31.0054 H   0  0  0  0  0  0  0  0  0  0  0  0
   -3.8720   26.5170  -30.5050 H   0  0  0  0  0  0  0  0  0  0  0  0
   -3.5340   24.9250  -31.2610 H   0  0  0  0  0  0  0  0  0  0  0  0
   -2.4716   21.0655  -30.4322 H   0  0  0  0  0  0  0  0  0  0  0  0
   -3.0133   19.5054  -31.1389 H   0  0  0  0  0  0  0  0  0  0  0  0
   -1.2689   19.9338  -31.1389 H   0  0  0  0  0  0  0  0  0  0  0  0
   -3.7078   19.2791  -32.9753 H   0  0  0  0  0  0  0  0  0  0  0  0
   -3.8693   20.5897  -34.1931 H   0  0  0  0  0  0  0  0  0  0  0  0
   -2.4130   19.5381  -34.1931 H   0  0  0  0  0  0  0  0  0  0  0  0
   -0.3750   21.5798  -32.3815 H   0  0  0  0  0  0  0  0  0  0  0  0
   -0.7166   20.5552  -33.8168 H   0  0  0  0  0  0  0  0  0  0  0  0
   -1.1905   22.2878  -33.8168 H   0  0  0  0  0  0  0  0  0  0  0  0
   -4.9299   20.1069  -32.0828 H   0  0  0  0  0  0  0  0  0  0  0  0
  1  2  1  0
  2  3  1  0
  3  4  2  0
  3  5  1  0
  5  6  1  0
  6  7  2  0
  7  8  1  0
  8  9  2  0
  9 10  1  0
 10 11  2  0
 11 12  1  0
 12 13  1  0
 12 14  2  0
 11 15  1  0
 15 16  1  0
 16 17  2  0
 16 18  1  0
 18 19  1  0
 19 20  1  0
 19 21  1  0
 19 22  1  0
 15 23  1  0
 23 24  2  0
 24  6  1  0
 23  9  1  0
  1 25  1  0
  1 26  1  0
  1 27  1  0
  5 28  1  0
  5 29  1  0
  7 30  1  0
  8 31  1  0
 10 32  1  0
 13 33  1  0
 13 34  1  0
 20 35  1  0
 20 36  1  0
 20 37  1  0
 21 38  1  0
 21 39  1  0
 21 40  1  0
 22 41  1  0
 22 42  1  0
 22 43  1  0
 24 44  1  0
M  END
>  <UniqueID>  (33) 
33

>  <SMILES>  (33) 
COC(=O)Cc1ccc2cc(C(N)=O)n(C(=O)OC(C)(C)C)c2c1

>  <Energy>  (33) 
73.56978512759707

>  <Genealogy>  (33) 
COC(=O)Cc1ccc2cc(C(N)=O)n(C(=O)OC(C)(C)C)c2c1 (3D coordinates assigned)
COC(=O)Cc1ccc2cc(C(N)=O)n(C(=O)OC(C)(C)C)c2c1 (optimized conformer: 73.56978512759707 kcal/mol)

>  <smiles>  (33) 
COC(=O)Cc1ccc2cc(C(N)=O)n(C(=O)OC(C)(C)C)c2c1

>  <score_type>  (33) 
oracle

>  <origin>  (33) 
adg

>  <m_score__min__energy>  (33) 
-8.2799999999999994

>  <m_primary>  (33) 
energy

$$$$
33:0
     RDKit          3D

 43 45  0  0  0  0  0  0  0  0999 V2000
    0.1020   16.1120  -35.5580 C   0  0  0  0  0  0  0  0  0  0  0  0
   -1.1650   16.7410  -35.0760 C   0  0  0  0  0  0  0  0  0  0  0  0
   -1.1290   17.8990  -34.5790 O   0  0  0  0  0  0  0  0  0  0  0  0
   -2.4140   16.0530  -35.2460 N   0  0  0  0  0  0  0  0  0  0  0  0
   -3.6600   16.5170  -34.6860 C   0  0  0  0  0  0  0  0  0  0  0  0
   -4.3520   17.4860  -35.3310 N   0  0  0  0  0  0  0  0  0  0  0  0
   -5.4990   17.9880  -34.8240 C   0  0  0  0  0  0  0  0  0  0  0  0
   -6.1110   18.8810  -35.4700 O   0  0  0  0  0  0  0  0  0  0  0  0
   -5.9750   17.5370  -33.6250 N   0  0  0  0  0  0  0  0  0  0  0  0
   -7.2410   18.0700  -33.0800 C   0  0  0  0  0  0  0  0  0  0  0  0
   -7.0120   19.4120  -32.4340 C   0  0  0  0  0  0  0  0  0  0  0  0
   -8.0990   20.1250  -31.8680 C   0  0  0  0  0  0  0  0  0  0  0  0
   -7.8910   21.3580  -31.2270 C   0  0  0  0  0  0  0  0  0  0  0  0
   -6.5910   21.8500  -31.1640 C   0  0  0  0  0  0  0  0  0  0  0  0
   -6.1070   23.0020  -30.5900 C   0  0  0  0  0  0  0  0  0  0  0  0
   -4.7340   22.9840  -30.8270 C   0  0  0  0  0  0  0  0  0  0  0  0
   -3.8390   24.1020  -30.4620 C   0  0  0  0  0  0  0  0  0  0  0  0
   -4.1730   25.4460  -30.7980 N   0  0  0  0  0  0  0  0  0  0  0  0
   -2.7990   23.8720  -29.7900 O   0  0  0  0  0  0  0  0  0  0  0  0
   -4.3800   21.8560  -31.5060 N   0  0  0  0  0  0  0  0  0  0  0  0
   -3.0640   21.3940  -31.8550 C   0  0  0  0  0  0  0  0  0  0  0  0
   -2.8010   21.0140  -33.0260 O   0  0  0  0  0  0  0  0  0  0  0  0
   -5.5300   21.1780  -31.7130 C   0  0  0  0  0  0  0  0  0  0  0  0
   -5.7060   19.9440  -32.3500 C   0  0  0  0  0  0  0  0  0  0  0  0
   -5.2840   16.5540  -32.9620 C   0  0  0  0  0  0  0  0  0  0  0  0
   -5.7070   16.1370  -31.8460 O   0  0  0  0  0  0  0  0  0  0  0  0
   -4.1360   16.0230  -33.4980 N   0  0  0  0  0  0  0  0  0  0  0  0
   -3.4130   14.9460  -32.7980 C   0  0  0  0  0  0  0  0  0  0  0  0
    0.7125   15.8089  -34.6946 H   0  0  0  0  0  0  0  0  0  0  0  0
   -0.1363   15.2276  -36.1671 H   0  0  0  0  0  0  0  0  0  0  0  0
    0.6624   16.8365  -36.1671 H   0  0  0  0  0  0  0  0  0  0  0  0
   -2.3920   15.1510  -35.7720 H   0  0  0  0  0  0  0  0  0  0  0  0
   -7.9690   18.1808  -33.8971 H   0  0  0  0  0  0  0  0  0  0  0  0
   -7.6255   17.3708  -32.3228 H   0  0  0  0  0  0  0  0  0  0  0  0
   -9.1152   19.7088  -31.9313 H   0  0  0  0  0  0  0  0  0  0  0  0
   -8.7305   21.9173  -30.7883 H   0  0  0  0  0  0  0  0  0  0  0  0
   -6.6816   23.7738  -30.0570 H   0  0  0  0  0  0  0  0  0  0  0  0
   -3.4910   26.0600  -31.2970 H   0  0  0  0  0  0  0  0  0  0  0  0
   -2.2758   21.3723  -31.0880 H   0  0  0  0  0  0  0  0  0  0  0  0
   -4.8483   19.4018  -32.7748 H   0  0  0  0  0  0  0  0  0  0  0  0
   -3.5077   15.0870  -31.7112 H   0  0  0  0  0  0  0  0  0  0  0  0
   -3.8416   13.9730  -33.0802 H   0  0  0  0  0  0  0  0  0  0  0  0
   -2.3502   14.9742  -33.0802 H   0  0  0  0  0  0  0  0  0  0  0  0
  1  2  1  0
  2  3  2  0
  2  4  1  0
  4  5  1  0
  5  6  2  0
  6  7  1  0
  7  8  2  0
  7  9  1  0
  9 10  1  0
 10 11  1  0
 11 12  2  0
 12 13  1  0
 13 14  2  0
 14 15  1  0
 15 16  2  0
 16 17  1  0
 17 18  1  0
 17 19  2  0
 16 20  1  0
 20 21  1  0
 21 22  2  0
 20 23  1  0
 23 24  2  0
  9 25  1  0
 25 26  2  0
 25 27  1  0
 27 28  1  0
 27  5  1  0
 24 11  1  0
 23 14  1  0
  1 29  1  0
  1 30  1  0
  1 31  1  0
  4 32  1  0
 10 33  1  0
 10 34  1  0
 12 35  1  0
 13 36  1  0
 15 37  1  0
 18 38  1  0
 21 39  1  0
 24 40  1  0
 28 41  1  0
 28 42  1  0
 28 43  1  0
M  CHG  1  18  -1
M  END
>  <UniqueID>  (34) 
34

>  <SMILES>  (34) 
CC(=O)Nc1nc(=O)n(Cc2ccc3cc(C([NH-])=O)n(C=O)c3c2)c(=O)n1C

>  <Energy>  (34) 
91.04507501752151

>  <Genealogy>  (34) 
CC(=O)Nc1nc(=O)n(Cc2ccc3cc(C([NH-])=O)n(C=O)c3c2)c(=O)n1C (protonated)
CC(=O)Nc1nc(=O)n(Cc2ccc3cc(C([NH-])=O)n(C=O)c3c2)c(=O)n1C (3D coordinates assigned)
CC(=O)Nc1nc(=O)n(Cc2ccc3cc(C([NH-])=O)n(C=O)c3c2)c(=O)n1C (optimized conformer: 91.04507501752151 kcal/mol)

>  <smiles>  (34) 
CC(=O)Nc1nc(=O)n(Cc2ccc3cc(C(N)=O)n(C=O)c3c2)c(=O)n1C

>  <score_type>  (34) 
oracle

>  <origin>  (34) 
adg

>  <m_score__min__energy>  (34) 
-10.699999999999999

>  <m_primary>  (34) 
energy

$$$$
34:0
     RDKit          3D

 28 29  0  0  0  0  0  0  0  0999 V2000
   -3.3290   22.8580  -28.8870 C   0  0  0  0  0  0  0  0  0  0  0  0
   -2.9750   23.1390  -30.2360 O   0  0  0  0  0  0  0  0  0  0  0  0
   -3.7380   22.7000  -31.3230 C   0  0  0  0  0  0  0  0  0  0  0  0
   -3.1800   22.1310  -32.3020 O   0  0  0  0  0  0  0  0  0  0  0  0
   -5.1560   22.9210  -31.3360 N   0  0  0  0  0  0  0  0  0  0  0  0
   -5.8380   24.0150  -30.8900 C   0  0  0  0  0  0  0  0  0  0  0  0
   -5.2410   25.2880  -30.4370 C   0  0  0  0  0  0  0  0  0  0  0  0
   -3.9290   25.6680  -30.8440 N   0  0  0  0  0  0  0  0  0  0  0  0
   -5.9170   26.0740  -29.7210 O   0  0  0  0  0  0  0  0  0  0  0  0
   -7.2120   23.8070  -30.9890 C   0  0  0  0  0  0  0  0  0  0  0  0
   -7.3540   22.5470  -31.5250 C   0  0  0  0  0  0  0  0  0  0  0  0
   -8.5050   21.8250  -31.8220 C   0  0  0  0  0  0  0  0  0  0  0  0
   -8.3550   20.5260  -32.3370 C   0  0  0  0  0  0  0  0  0  0  0  0
   -7.0650   19.9800  -32.5470 C   0  0  0  0  0  0  0  0  0  0  0  0
   -6.9180   18.5740  -33.0460 C   0  0  0  0  0  0  0  0  0  0  0  0
   -5.9180   20.7350  -32.2180 C   0  0  0  0  0  0  0  0  0  0  0  0
   -6.0980   22.0340  -31.7250 C   0  0  0  0  0  0  0  0  0  0  0  0
   -2.6500   23.3970  -28.2099 H   0  0  0  0  0  0  0  0  0  0  0  0
   -4.3637   23.1833  -28.7041 H   0  0  0  0  0  0  0  0  0  0  0  0
   -3.2469   21.7764  -28.7041 H   0  0  0  0  0  0  0  0  0  0  0  0
   -3.0860   25.3020  -30.3490 H   0  0  0  0  0  0  0  0  0  0  0  0
   -8.0138   24.5025  -30.7000 H   0  0  0  0  0  0  0  0  0  0  0  0
   -9.5030   22.2578  -31.6587 H   0  0  0  0  0  0  0  0  0  0  0  0
   -9.2464   19.9286  -32.5789 H   0  0  0  0  0  0  0  0  0  0  0  0
   -6.8462   17.8868  -32.1901 H   0  0  0  0  0  0  0  0  0  0  0  0
   -7.7933   18.3084  -33.6570 H   0  0  0  0  0  0  0  0  0  0  0  0
   -6.0067   18.4952  -33.6570 H   0  0  0  0  0  0  0  0  0  0  0  0
   -4.9096   20.3143  -32.3454 H   0  0  0  0  0  0  0  0  0  0  0  0
  1  2  1  0
  2  3  1  0
  3  4  2  0
  3  5  1  0
  5  6  1  0
  6  7  1  0
  7  8  1  0
  7  9  2  0
  6 10  2  0
 10 11  1  0
 11 12  2  0
 12 13  1  0
 13 14  2  0
 14 15  1  0
 14 16  1  0
 16 17  2  0
 17  5  1  0
 17 11  1  0
  1 18  1  0
  1 19  1  0
  1 20  1  0
  8 21  1  0
 10 22  1  0
 12 23  1  0
 13 24  1  0
 15 25  1  0
 15 26  1  0
 15 27  1  0
 16 28  1  0
M  CHG  1   8  -1
M  END
>  <UniqueID>  (35) 
35

>  <SMILES>  (35) 
COC(=O)n1c(C([NH-])=O)cc2ccc(C)cc21

>  <Energy>  (35) 
64.91020286622899

>  <Genealogy>  (35) 
COC(=O)n1c(C([NH-])=O)cc2ccc(C)cc21 (protonated)
COC(=O)n1c(C([NH-])=O)cc2ccc(C)cc21 (3D coordinates assigned)
COC(=O)n1c(C([NH-])=O)cc2ccc(C)cc21 (optimized conformer: 64.91020286622899 kcal/mol)

>  <smiles>  (35) 
COC(=O)n1c(C(N)=O)cc2ccc(C)cc21

>  <score_type>  (35) 
oracle

>  <origin>  (35) 
adg

>  <m_score__min__energy>  (35) 
-9

>  <m_primary>  (35) 
energy

$$$$
35:0
     RDKit          3D

 36 38  0  0  0  0  0  0  0  0999 V2000
   -2.0740   25.2780  -29.2190 N   0  0  0  0  0  0  0  0  0  0  0  0
   -3.5320   24.5280  -29.7630 S   0  0  0  0  0  0  0  0  0  0  0  0
   -4.1570   25.3650  -30.8430 O   0  0  0  0  0  0  0  0  0  0  0  0
   -4.4960   24.4120  -28.6160 O   0  0  0  0  0  0  0  0  0  0  0  0
   -3.1740   22.9320  -30.3930 C   0  0  0  0  0  0  0  0  0  0  0  0
   -3.6930   22.3890  -31.5570 C   0  0  0  0  0  0  0  0  0  0  0  0
   -3.2140   21.0940  -31.8190 C   0  0  0  0  0  0  0  0  0  0  0  0
   -3.6100   20.3100  -33.0050 C   0  0  0  0  0  0  0  0  0  0  0  0
   -2.9330   20.3960  -34.0660 O   0  0  0  0  0  0  0  0  0  0  0  0
   -4.7460   19.4310  -32.9650 N   0  0  0  0  0  0  0  0  0  0  0  0
   -4.7990   18.1340  -33.3770 C   0  0  0  0  0  0  0  0  0  0  0  0
   -3.6470   17.3180  -33.8120 C   0  0  0  0  0  0  0  0  0  0  0  0
   -2.8210   17.7220  -34.9060 N   0  0  0  0  0  0  0  0  0  0  0  0
   -3.3600   16.2680  -33.1800 O   0  0  0  0  0  0  0  0  0  0  0  0
   -6.1090   17.6610  -33.3340 C   0  0  0  0  0  0  0  0  0  0  0  0
   -6.8630   18.7190  -32.8780 C   0  0  0  0  0  0  0  0  0  0  0  0
   -8.2370   18.8200  -32.6800 C   0  0  0  0  0  0  0  0  0  0  0  0
   -8.7510   20.0580  -32.2540 C   0  0  0  0  0  0  0  0  0  0  0  0
   -7.8900   21.1640  -32.0310 C   0  0  0  0  0  0  0  0  0  0  0  0
   -8.4610   22.5010  -31.6360 C   0  0  0  0  0  0  0  0  0  0  0  0
   -7.9940   22.8440  -30.3810 F   0  0  0  0  0  0  0  0  0  0  0  0
   -9.8450   22.4490  -31.6020 F   0  0  0  0  0  0  0  0  0  0  0  0
   -8.0870   23.4800  -32.5390 F   0  0  0  0  0  0  0  0  0  0  0  0
   -6.5050   21.0270  -32.2730 C   0  0  0  0  0  0  0  0  0  0  0  0
   -6.0170   19.7770  -32.6700 C   0  0  0  0  0  0  0  0  0  0  0  0
   -2.3070   20.6370  -30.8620 C   0  0  0  0  0  0  0  0  0  0  0  0
   -2.1150   21.8320  -29.6940 S   0  0  0  0  0  0  0  0  0  0  0  0
   -1.6070   25.6820  -30.0610 H   0  0  0  0  0  0  0  0  0  0  0  0
   -4.4056   22.9164  -32.2082 H   0  0  0  0  0  0  0  0  0  0  0  0
   -2.9020   18.6750  -35.3240 H   0  0  0  0  0  0  0  0  0  0  0  0
   -2.0490   17.1010  -35.2330 H   0  0  0  0  0  0  0  0  0  0  0  0
   -6.4649   16.6564  -33.6063 H   0  0  0  0  0  0  0  0  0  0  0  0
   -8.8998   17.9590  -32.8512 H   0  0  0  0  0  0  0  0  0  0  0  0
   -9.8332   20.1703  -32.0918 H   0  0  0  0  0  0  0  0  0  0  0  0
   -5.8255   21.8835  -32.1521 H   0  0  0  0  0  0  0  0  0  0  0  0
   -1.8024   19.6596  -30.8701 H   0  0  0  0  0  0  0  0  0  0  0  0
  1  2  1  0
  2  3  2  0
  2  4  2  0
  2  5  1  0
  5  6  2  0
  6  7  1  0
  7  8  1  0
  8  9  2  0
  8 10  1  0
 10 11  1  0
 11 12  1  0
 12 13  1  0
 12 14  2  0
 11 15  2  0
 15 16  1  0
 16 17  2  0
 17 18  1  0
 18 19  2  0
 19 20  1  0
 20 21  1  0
 20 22  1  0
 20 23  1  0
 19 24  1  0
 24 25  2  0
  7 26  2  0
 26 27  1  0
 27  5  1  0
 25 10  1  0
 25 16  1  0
  1 28  1  0
  6 29  1  0
 13 30  1  0
 13 31  1  0
 15 32  1  0
 17 33  1  0
 18 34  1  0
 24 35  1  0
 26 36  1  0
M  CHG  1   1  -1
M  END
>  <UniqueID>  (36) 
36

>  <SMILES>  (36) 
[NH-]S(=O)(=O)c1cc(C(=O)n2c(C(N)=O)cc3ccc(C(F)(F)F)cc32)cs1

>  <Energy>  (36) 
104.75384222691412

>  <Genealogy>  (36) 
[NH-]S(=O)(=O)c1cc(C(=O)n2c(C(N)=O)cc3ccc(C(F)(F)F)cc32)cs1 (protonated)
[NH-]S(=O)(=O)c1cc(C(=O)n2c(C(N)=O)cc3ccc(C(F)(F)F)cc32)cs1 (3D coordinates assigned)
[NH-]S(=O)(=O)c1cc(C(=O)n2c(C(N)=O)cc3ccc(C(F)(F)F)cc32)cs1 (optimized conformer: 104.75384222691412 kcal/mol)

>  <smiles>  (36) 
NC(=O)c1cc2ccc(C(F)(F)F)cc2n1C(=O)c1csc(S(N)(=O)=O)c1

>  <score_type>  (36) 
oracle

>  <origin>  (36) 
adg

>  <m_score__min__energy>  (36) 
-12.32

>  <m_primary>  (36) 
energy

$$$$
36:0
     RDKit          3D

 39 41  0  0  0  0  0  0  0  0999 V2000
   -3.4940   21.1860  -33.1590 C   0  0  0  0  0  0  0  0  0  0  0  0
   -3.4220   22.0930  -32.0660 O   0  0  0  0  0  0  0  0  0  0  0  0
   -4.3070   22.0420  -30.9840 C   0  0  0  0  0  0  0  0  0  0  0  0
   -3.9010   21.6670  -29.8500 O   0  0  0  0  0  0  0  0  0  0  0  0
   -5.6810   22.4230  -31.1690 N   0  0  0  0  0  0  0  0  0  0  0  0
   -6.2500   23.6260  -30.8760 C   0  0  0  0  0  0  0  0  0  0  0  0
   -5.5290   24.8460  -30.4630 C   0  0  0  0  0  0  0  0  0  0  0  0
   -5.8560   25.5220  -29.2470 N   0  0  0  0  0  0  0  0  0  0  0  0
   -4.5720   25.2680  -31.1650 O   0  0  0  0  0  0  0  0  0  0  0  0
   -7.6280   23.5790  -31.0670 C   0  0  0  0  0  0  0  0  0  0  0  0
   -7.8900   22.3010  -31.5050 C   0  0  0  0  0  0  0  0  0  0  0  0
   -9.1010   21.7030  -31.8400 C   0  0  0  0  0  0  0  0  0  0  0  0
   -9.0840   20.3550  -32.2310 C   0  0  0  0  0  0  0  0  0  0  0  0
   -7.8680   19.6280  -32.2630 C   0  0  0  0  0  0  0  0  0  0  0  0
   -7.8560   18.1900  -32.7080 C   0  0  0  0  0  0  0  0  0  0  0  0
   -6.4830   17.8050  -33.1920 C   0  0  0  0  0  0  0  0  0  0  0  0
   -6.0770   18.1490  -34.4930 C   0  0  0  0  0  0  0  0  0  0  0  0
   -4.8170   17.7650  -34.9640 C   0  0  0  0  0  0  0  0  0  0  0  0
   -3.9580   17.0300  -34.1450 C   0  0  0  0  0  0  0  0  0  0  0  0
   -4.3570   16.6730  -32.8540 C   0  0  0  0  0  0  0  0  0  0  0  0
   -5.6140   17.0540  -32.3760 C   0  0  0  0  0  0  0  0  0  0  0  0
   -5.9840   16.6900  -31.1220 F   0  0  0  0  0  0  0  0  0  0  0  0
   -6.6570   20.2700  -31.9210 C   0  0  0  0  0  0  0  0  0  0  0  0
   -6.7000   21.6210  -31.5560 C   0  0  0  0  0  0  0  0  0  0  0  0
   -3.5756   20.1576  -32.7773 H   0  0  0  0  0  0  0  0  0  0  0  0
   -4.3764   21.4205  -33.7726 H   0  0  0  0  0  0  0  0  0  0  0  0
   -2.5857   21.2784  -33.7726 H   0  0  0  0  0  0  0  0  0  0  0  0
   -6.5270   25.1080  -28.5620 H   0  0  0  0  0  0  0  0  0  0  0  0
   -5.3640   26.4060  -28.9900 H   0  0  0  0  0  0  0  0  0  0  0  0
   -8.3527   24.3901  -30.9029 H   0  0  0  0  0  0  0  0  0  0  0  0
  -10.0431   22.2695  -31.7996 H   0  0  0  0  0  0  0  0  0  0  0  0
  -10.0234   19.8583  -32.5152 H   0  0  0  0  0  0  0  0  0  0  0  0
   -8.1365   17.5457  -31.8617 H   0  0  0  0  0  0  0  0  0  0  0  0
   -8.5744   18.0639  -33.5314 H   0  0  0  0  0  0  0  0  0  0  0  0
   -6.7532   18.7228  -35.1438 H   0  0  0  0  0  0  0  0  0  0  0  0
   -4.5027   18.0425  -35.9809 H   0  0  0  0  0  0  0  0  0  0  0  0
   -2.9664   16.7316  -34.5160 H   0  0  0  0  0  0  0  0  0  0  0  0
   -3.6798   16.0904  -32.2122 H   0  0  0  0  0  0  0  0  0  0  0  0
   -5.7035   19.7219  -31.9410 H   0  0  0  0  0  0  0  0  0  0  0  0
  1  2  1  0
  2  3  1  0
  3  4  2  0
  3  5  1  0
  5  6  1  0
  6  7  1  0
  7  8  1  0
  7  9  2  0
  6 10  2  0
 10 11  1  0
 11 12  2  0
 12 13  1  0
 13 14  2  0
 14 15  1  0
 15 16  1  0
 16 17  2  0
 17 18  1  0
 18 19  2  0
 19 20  1  0
 20 21  2  0
 21 22  1  0
 14 23  1  0
 23 24  2  0
 24  5  1  0
 24 11  1  0
 21 16  1  0
  1 25  1  0
  1 26  1  0
  1 27  1  0
  8 28  1  0
  8 29  1  0
 10 30  1  0
 12 31  1  0
 13 32  1  0
 15 33  1  0
 15 34  1  0
 17 35  1  0
 18 36  1  0
 19 37  1  0
 20 38  1  0
 23 39  1  0
M  END
>  <UniqueID>  (37) 
37

>  <SMILES>  (37) 
COC(=O)n1c(C(N)=O)cc2ccc(Cc3ccccc3F)cc21

>  <Energy>  (37) 
77.71339563783324

>  <Genealogy>  (37) 
COC(=O)n1c(C(N)=O)cc2ccc(Cc3ccccc3F)cc21 (3D coordinates assigned)
COC(=O)n1c(C(N)=O)cc2ccc(Cc3ccccc3F)cc21 (optimized conformer: 77.71339563783324 kcal/mol)

>  <smiles>  (37) 
COC(=O)n1c(C(N)=O)cc2ccc(Cc3ccccc3F)cc21

>  <score_type>  (37) 
oracle

>  <origin>  (37) 
adg

>  <m_score__min__energy>  (37) 
-9.3300000000000001

>  <m_primary>  (37) 
energy

$$$$
37:0
     RDKit          3D

 36 38  0  0  0  0  0  0  0  0999 V2000
    4.0090   20.7950  -38.5450 N   0  0  0  0  0  0  0  0  0  0  0  0
    3.4200   19.6140  -38.0100 C   0  0  0  0  0  0  0  0  0  0  0  0
    3.9140   18.4920  -38.3000 O   0  0  0  0  0  0  0  0  0  0  0  0
    2.2770   19.6900  -37.0760 C   0  0  0  0  0  0  0  0  0  0  0  0
    1.4400   18.6110  -36.8010 C   0  0  0  0  0  0  0  0  0  0  0  0
    0.5770   19.0580  -35.8270 C   0  0  0  0  0  0  0  0  0  0  0  0
   -0.4730   18.4010  -35.1940 C   0  0  0  0  0  0  0  0  0  0  0  0
   -1.2220   19.1180  -34.2450 C   0  0  0  0  0  0  0  0  0  0  0  0
   -0.9200   20.4740  -33.9540 C   0  0  0  0  0  0  0  0  0  0  0  0
   -1.7270   21.2250  -32.9580 C   0  0  0  0  0  0  0  0  0  0  0  0
   -3.0750   21.5330  -33.2170 C   0  0  0  0  0  0  0  0  0  0  0  0
   -3.8330   22.2410  -32.2810 C   0  0  0  0  0  0  0  0  0  0  0  0
   -3.2620   22.6450  -31.0650 C   0  0  0  0  0  0  0  0  0  0  0  0
   -4.0690   23.4350  -30.0730 C   0  0  0  0  0  0  0  0  0  0  0  0
   -3.6510   24.8710  -30.0970 C   0  0  0  0  0  0  0  0  0  0  0  0
   -4.2520   25.6940  -30.8360 O   0  0  0  0  0  0  0  0  0  0  0  0
   -2.5650   25.2910  -29.3390 O   0  0  0  0  0  0  0  0  0  0  0  0
   -1.9150   22.3510  -30.8080 C   0  0  0  0  0  0  0  0  0  0  0  0
   -1.1550   21.6430  -31.7440 C   0  0  0  0  0  0  0  0  0  0  0  0
    0.1560   21.1050  -34.6230 C   0  0  0  0  0  0  0  0  0  0  0  0
    0.8970   20.3610  -35.5480 C   0  0  0  0  0  0  0  0  0  0  0  0
    1.9380   20.7670  -36.3100 N   0  0  0  0  0  0  0  0  0  0  0  0
    2.4940   22.0900  -36.3600 C   0  0  0  0  0  0  0  0  0  0  0  0
    3.6650   22.3050  -35.9510 O   0  0  0  0  0  0  0  0  0  0  0  0
    1.7340   23.1520  -36.8350 O   0  0  0  0  0  0  0  0  0  0  0  0
    4.0460   21.6770  -37.9870 H   0  0  0  0  0  0  0  0  0  0  0  0
    1.4639   17.6135  -37.2641 H   0  0  0  0  0  0  0  0  0  0  0  0
   -0.7099   17.3528  -35.4288 H   0  0  0  0  0  0  0  0  0  0  0  0
   -2.0525   18.6221  -33.7213 H   0  0  0  0  0  0  0  0  0  0  0  0
   -3.5357   21.2140  -34.1636 H   0  0  0  0  0  0  0  0  0  0  0  0
   -4.8837   22.4831  -32.4988 H   0  0  0  0  0  0  0  0  0  0  0  0
   -5.1357   23.3623  -30.3317 H   0  0  0  0  0  0  0  0  0  0  0  0
   -3.8994   23.0277  -29.0654 H   0  0  0  0  0  0  0  0  0  0  0  0
   -1.4539   22.6792  -29.8648 H   0  0  0  0  0  0  0  0  0  0  0  0
   -0.1014   21.4114  -31.5287 H   0  0  0  0  0  0  0  0  0  0  0  0
    0.4043   22.1572  -34.4202 H   0  0  0  0  0  0  0  0  0  0  0  0
  1  2  1  0
  2  3  2  0
  2  4  1  0
  4  5  2  0
  5  6  1  0
  6  7  2  0
  7  8  1  0
  8  9  2  0
  9 10  1  0
 10 11  2  0
 11 12  1  0
 12 13  2  0
 13 14  1  0
 14 15  1  0
 15 16  2  0
 15 17  1  0
 13 18  1  0
 18 19  2  0
  9 20  1  0
 20 21  2  0
 21 22  1  0
 22 23  1  0
 23 24  2  0
 23 25  1  0
 22  4  1  0
 21  6  1  0
 19 10  1  0
  1 26  1  0
  5 27  1  0
  7 28  1  0
  8 29  1  0
 11 30  1  0
 12 31  1  0
 14 32  1  0
 14 33  1  0
 18 34  1  0
 19 35  1  0
 20 36  1  0
M  CHG  3   1  -1  17  -1  25  -1
M  END
>  <UniqueID>  (38) 
38

>  <SMILES>  (38) 
[NH-]C(=O)c1cc2ccc(-c3ccc(CC(=O)[O-])cc3)cc2n1C(=O)[O-]

>  <Energy>  (38) 
82.25343960535076

>  <Genealogy>  (38) 
[NH-]C(=O)c1cc2ccc(-c3ccc(CC(=O)[O-])cc3)cc2n1C(=O)[O-] (protonated)
[NH-]C(=O)c1cc2ccc(-c3ccc(CC(=O)[O-])cc3)cc2n1C(=O)[O-] (3D coordinates assigned)
[NH-]C(=O)c1cc2ccc(-c3ccc(CC(=O)[O-])cc3)cc2n1C(=O)[O-] (optimized conformer: 82.25343960535076 kcal/mol)

>  <smiles>  (38) 
NC(=O)c1cc2ccc(-c3ccc(CC(=O)O)cc3)cc2n1C(=O)O

>  <score_type>  (38) 
oracle

>  <origin>  (38) 
adg

>  <m_score__min__energy>  (38) 
-10.74

>  <m_primary>  (38) 
energy

$$$$
38:0
     RDKit          3D

 49 51  0  0  0  0  0  0  0  0999 V2000
   -1.5040   25.1730  -27.9740 C   0  0  0  0  0  0  0  0  0  0  0  0
   -2.5990   24.3500  -28.5130 N   0  0  0  0  0  0  0  0  0  0  0  0
   -3.7050   24.2390  -27.5540 C   0  0  0  0  0  0  0  0  0  0  0  0
   -2.1390   23.0380  -29.0260 C   0  0  0  0  0  0  0  0  0  0  0  0
   -3.1110   21.8670  -28.7770 C   0  0  0  0  0  0  0  0  0  0  0  0
   -3.6910   21.4270  -30.0040 O   0  0  0  0  0  0  0  0  0  0  0  0
   -4.1110   22.3230  -30.9930 C   0  0  0  0  0  0  0  0  0  0  0  0
   -3.2820   22.7810  -31.8260 O   0  0  0  0  0  0  0  0  0  0  0  0
   -5.4890   22.7250  -31.0630 N   0  0  0  0  0  0  0  0  0  0  0  0
   -5.9980   23.9830  -30.9250 C   0  0  0  0  0  0  0  0  0  0  0  0
   -5.2460   25.1820  -30.4990 C   0  0  0  0  0  0  0  0  0  0  0  0
   -3.8690   25.3400  -30.8280 N   0  0  0  0  0  0  0  0  0  0  0  0
   -5.8160   26.0570  -29.7940 O   0  0  0  0  0  0  0  0  0  0  0  0
   -7.3690   23.9860  -31.1660 C   0  0  0  0  0  0  0  0  0  0  0  0
   -7.6920   22.6790  -31.4490 C   0  0  0  0  0  0  0  0  0  0  0  0
   -8.9200   22.1120  -31.7770 C   0  0  0  0  0  0  0  0  0  0  0  0
   -8.9580   20.7350  -32.0510 C   0  0  0  0  0  0  0  0  0  0  0  0
   -7.7750   19.9570  -31.9990 C   0  0  0  0  0  0  0  0  0  0  0  0
   -7.8350   18.4770  -32.2770 C   0  0  0  0  0  0  0  0  0  0  0  0
   -6.5630   18.0140  -32.8590 N   0  0  0  0  0  0  0  0  0  0  0  0
   -6.1920   18.5000  -34.0840 C   0  0  0  0  0  0  0  0  0  0  0  0
   -4.9880   18.1100  -34.6730 C   0  0  0  0  0  0  0  0  0  0  0  0
   -4.1550   17.2190  -34.0010 C   0  0  0  0  0  0  0  0  0  0  0  0
   -4.5300   16.7320  -32.7520 C   0  0  0  0  0  0  0  0  0  0  0  0
   -5.7430   17.1390  -32.1860 C   0  0  0  0  0  0  0  0  0  0  0  0
   -6.0660   16.6920  -31.0510 O   0  0  0  0  0  0  0  0  0  0  0  0
   -6.5460   20.5690  -31.6630 C   0  0  0  0  0  0  0  0  0  0  0  0
   -6.5410   21.9370  -31.3790 C   0  0  0  0  0  0  0  0  0  0  0  0
   -1.5348   25.1498  -26.8747 H   0  0  0  0  0  0  0  0  0  0  0  0
   -0.5398   24.7741  -28.3223 H   0  0  0  0  0  0  0  0  0  0  0  0
   -1.6191   26.2100  -28.3223 H   0  0  0  0  0  0  0  0  0  0  0  0
   -3.3072   24.2789  -26.5292 H   0  0  0  0  0  0  0  0  0  0  0  0
   -4.4080   25.0711  -27.7071 H   0  0  0  0  0  0  0  0  0  0  0  0
   -4.2286   23.2838  -27.7071 H   0  0  0  0  0  0  0  0  0  0  0  0
   -1.9857   23.1301  -30.1114 H   0  0  0  0  0  0  0  0  0  0  0  0
   -1.2178   22.7970  -28.4753 H   0  0  0  0  0  0  0  0  0  0  0  0
   -2.5615   21.0325  -28.3170 H   0  0  0  0  0  0  0  0  0  0  0  0
   -3.9140   22.2086  -28.1073 H   0  0  0  0  0  0  0  0  0  0  0  0
   -3.1760   24.5890  -30.6160 H   0  0  0  0  0  0  0  0  0  0  0  0
   -8.0495   24.8498  -31.1364 H   0  0  0  0  0  0  0  0  0  0  0  0
   -9.8331   22.7238  -31.8203 H   0  0  0  0  0  0  0  0  0  0  0  0
   -9.9145   20.2564  -32.3082 H   0  0  0  0  0  0  0  0  0  0  0  0
   -8.0209   17.9383  -31.3361 H   0  0  0  0  0  0  0  0  0  0  0  0
   -8.6480   18.2798  -32.9912 H   0  0  0  0  0  0  0  0  0  0  0  0
   -6.8507   19.2064  -34.6105 H   0  0  0  0  0  0  0  0  0  0  0  0
   -4.6998   18.5030  -35.6592 H   0  0  0  0  0  0  0  0  0  0  0  0
   -3.2048   16.9014  -34.4552 H   0  0  0  0  0  0  0  0  0  0  0  0
   -3.8760   16.0308  -32.2129 H   0  0  0  0  0  0  0  0  0  0  0  0
   -5.6161   19.9825  -31.6260 H   0  0  0  0  0  0  0  0  0  0  0  0
  1  2  1  0
  2  3  1  0
  2  4  1  0
  4  5  1  0
  5  6  1  0
  6  7  1  0
  7  8  2  0
  7  9  1  0
  9 10  1  0
 10 11  1  0
 11 12  1  0
 11 13  2  0
 10 14  2  0
 14 15  1  0
 15 16  2  0
 16 17  1  0
 17 18  2  0
 18 19  1  0
 19 20  1  0
 20 21  1  0
 21 22  2  0
 22 23  1  0
 23 24  2  0
 24 25  1  0
 25 26  2  0
 18 27  1  0
 27 28  2  0
 28  9  1  0
 28 15  1  0
 25 20  1  0
  1 29  1  0
  1 30  1  0
  1 31  1  0
  3 32  1  0
  3 33  1  0
  3 34  1  0
  4 35  1  0
  4 36  1  0
  5 37  1  0
  5 38  1  0
 12 39  1  0
 14 40  1  0
 16 41  1  0
 17 42  1  0
 19 43  1  0
 19 44  1  0
 21 45  1  0
 22 46  1  0
 23 47  1  0
 24 48  1  0
 27 49  1  0
M  CHG  1  12  -1
M  END
>  <UniqueID>  (39) 
39

>  <SMILES>  (39) 
CN(C)CCOC(=O)n1c(C([NH-])=O)cc2ccc(Cn3ccccc3=O)cc21

>  <Energy>  (39) 
91.91048850490493

>  <Genealogy>  (39) 
CN(C)CCOC(=O)n1c(C([NH-])=O)cc2ccc(Cn3ccccc3=O)cc21 (protonated)
CN(C)CCOC(=O)n1c(C([NH-])=O)cc2ccc(Cn3ccccc3=O)cc21 (3D coordinates assigned)
CN(C)CCOC(=O)n1c(C([NH-])=O)cc2ccc(Cn3ccccc3=O)cc21 (optimized conformer: 91.91048850490493 kcal/mol)

>  <smiles>  (39) 
CN(C)CCOC(=O)n1c(C(N)=O)cc2ccc(Cn3ccccc3=O)cc21

>  <score_type>  (39) 
oracle

>  <origin>  (39) 
adg

>  <m_score__min__energy>  (39) 
-11.029999999999999

>  <m_primary>  (39) 
energy

$$$$
39:0
     RDKit          3D

 38 39  0  0  0  0  0  0  0  0999 V2000
   -9.0420   21.9060  -31.0220 C   0  0  0  0  0  0  0  0  0  0  0  0
   -8.1190   22.9640  -31.6130 C   0  0  0  0  0  0  0  0  0  0  0  0
   -6.9700   23.1460  -30.7880 O   0  0  0  0  0  0  0  0  0  0  0  0
   -5.7420   23.6150  -31.2700 C   0  0  0  0  0  0  0  0  0  0  0  0
   -5.5990   24.8300  -31.5760 O   0  0  0  0  0  0  0  0  0  0  0  0
   -4.6320   22.7120  -31.3860 N   0  0  0  0  0  0  0  0  0  0  0  0
   -3.3930   22.8320  -30.8270 C   0  0  0  0  0  0  0  0  0  0  0  0
   -2.8760   24.0130  -30.1060 C   0  0  0  0  0  0  0  0  0  0  0  0
   -3.4910   25.2900  -30.2510 N   0  0  0  0  0  0  0  0  0  0  0  0
   -1.8450   23.9040  -29.3880 O   0  0  0  0  0  0  0  0  0  0  0  0
   -2.6240   21.7030  -31.0990 C   0  0  0  0  0  0  0  0  0  0  0  0
   -3.4320   20.8850  -31.8560 C   0  0  0  0  0  0  0  0  0  0  0  0
   -3.1790   19.6250  -32.3930 C   0  0  0  0  0  0  0  0  0  0  0  0
   -4.2100   18.9950  -33.1090 C   0  0  0  0  0  0  0  0  0  0  0  0
   -5.4720   19.6260  -33.2700 C   0  0  0  0  0  0  0  0  0  0  0  0
   -6.5340   18.9590  -33.9830 N   0  0  0  0  0  0  0  0  0  0  0  0
   -7.2370   17.9840  -33.1290 C   0  0  0  0  0  0  0  0  0  0  0  0
   -8.4350   18.5930  -32.3880 C   0  0  0  0  0  0  0  0  0  0  0  0
   -8.8740   19.7500  -33.0450 O   0  0  0  0  0  0  0  0  0  0  0  0
   -5.6880   20.9050  -32.7080 C   0  0  0  0  0  0  0  0  0  0  0  0
   -4.6380   21.5170  -32.0150 C   0  0  0  0  0  0  0  0  0  0  0  0
   -8.9997   21.9545  -29.9239 H   0  0  0  0  0  0  0  0  0  0  0  0
  -10.0732   22.0902  -31.3577 H   0  0  0  0  0  0  0  0  0  0  0  0
   -8.7196   20.9093  -31.3577 H   0  0  0  0  0  0  0  0  0  0  0  0
   -7.7974   22.6440  -32.6151 H   0  0  0  0  0  0  0  0  0  0  0  0
   -8.6655   23.9166  -31.6746 H   0  0  0  0  0  0  0  0  0  0  0  0
   -3.6140   25.7250  -31.1920 H   0  0  0  0  0  0  0  0  0  0  0  0
   -1.5906   21.5067  -30.7773 H   0  0  0  0  0  0  0  0  0  0  0  0
   -2.2015   19.1382  -32.2604 H   0  0  0  0  0  0  0  0  0  0  0  0
   -4.0381   18.0020  -33.5499 H   0  0  0  0  0  0  0  0  0  0  0  0
   -7.2240   19.6760  -34.3050 H   0  0  0  0  0  0  0  0  0  0  0  0
   -6.1650   18.4870  -34.8420 H   0  0  0  0  0  0  0  0  0  0  0  0
   -7.5978   17.1595  -33.7615 H   0  0  0  0  0  0  0  0  0  0  0  0
   -6.5220   17.6349  -32.3694 H   0  0  0  0  0  0  0  0  0  0  0  0
   -9.2543   17.8596  -32.3576 H   0  0  0  0  0  0  0  0  0  0  0  0
   -8.1278   18.8562  -31.3651 H   0  0  0  0  0  0  0  0  0  0  0  0
   -9.4100   19.4400  -33.8200 H   0  0  0  0  0  0  0  0  0  0  0  0
   -6.6605   21.4081  -32.8133 H   0  0  0  0  0  0  0  0  0  0  0  0
  1  2  1  0
  2  3  1  0
  3  4  1  0
  4  5  2  0
  4  6  1  0
  6  7  1  0
  7  8  1  0
  8  9  1  0
  8 10  2  0
  7 11  2  0
 11 12  1  0
 12 13  2  0
 13 14  1  0
 14 15  2  0
 15 16  1  0
 16 17  1  0
 17 18  1  0
 18 19  1  0
 15 20  1  0
 20 21  2  0
 21  6  1  0
 21 12  1  0
  1 22  1  0
  1 23  1  0
  1 24  1  0
  2 25  1  0
  2 26  1  0
  9 27  1  0
 11 28  1  0
 13 29  1  0
 14 30  1  0
 16 31  1  0
 16 32  1  0
 17 33  1  0
 17 34  1  0
 18 35  1  0
 18 36  1  0
 19 37  1  0
 20 38  1  0
M  CHG  2   9  -1  16   1
M  END
>  <UniqueID>  (40) 
40

>  <SMILES>  (40) 
CCOC(=O)n1c(C([NH-])=O)cc2ccc([NH2+]CCO)cc21

>  <Energy>  (40) 
72.31208023062882

>  <Genealogy>  (40) 
CCOC(=O)n1c(C([NH-])=O)cc2ccc([NH2+]CCO)cc21 (protonated)
CCOC(=O)n1c(C([NH-])=O)cc2ccc([NH2+]CCO)cc21 (3D coordinates assigned)
CCOC(=O)n1c(C([NH-])=O)cc2ccc([NH2+]CCO)cc21 (optimized conformer: 72.31208023062882 kcal/mol)

>  <smiles>  (40) 
CCOC(=O)n1c(C(N)=O)cc2ccc(NCCO)cc21

>  <score_type>  (40) 
oracle

>  <origin>  (40) 
adg

>  <m_score__min__energy>  (40) 
-8.75

>  <m_primary>  (40) 
energy

$$$$
40:0
     RDKit          3D

 51 53  0  0  0  0  0  0  0  0999 V2000
   -2.6960   21.0260  -29.3790 C   0  0  0  0  0  0  0  0  0  0  0  0
   -2.6780   22.5520  -29.2010 C   0  0  0  0  0  0  0  0  0  0  0  0
   -1.3280   22.9650  -28.5850 C   0  0  0  0  0  0  0  0  0  0  0  0
   -3.8440   22.9610  -28.2820 C   0  0  0  0  0  0  0  0  0  0  0  0
   -2.8340   23.1310  -30.5050 O   0  0  0  0  0  0  0  0  0  0  0  0
   -3.6610   22.6550  -31.5330 C   0  0  0  0  0  0  0  0  0  0  0  0
   -3.1760   22.0760  -32.5410 O   0  0  0  0  0  0  0  0  0  0  0  0
   -5.0840   22.8060  -31.4170 N   0  0  0  0  0  0  0  0  0  0  0  0
   -5.7820   23.9050  -31.0130 C   0  0  0  0  0  0  0  0  0  0  0  0
   -5.2030   25.1480  -30.4590 C   0  0  0  0  0  0  0  0  0  0  0  0
   -3.9030   25.5870  -30.8450 N   0  0  0  0  0  0  0  0  0  0  0  0
   -5.8460   25.8060  -29.5990 O   0  0  0  0  0  0  0  0  0  0  0  0
   -7.1520   23.6760  -31.1120 C   0  0  0  0  0  0  0  0  0  0  0  0
   -7.2740   22.3880  -31.5820 C   0  0  0  0  0  0  0  0  0  0  0  0
   -8.4130   21.6430  -31.8650 C   0  0  0  0  0  0  0  0  0  0  0  0
   -8.2420   20.3400  -32.3600 C   0  0  0  0  0  0  0  0  0  0  0  0
   -6.9410   19.8080  -32.5830 C   0  0  0  0  0  0  0  0  0  0  0  0
   -6.7420   18.3880  -33.0940 C   0  0  0  0  0  0  0  0  0  0  0  0
   -6.1200   18.3900  -34.5090 C   0  0  0  0  0  0  0  0  0  0  0  0
   -4.5950   18.5540  -34.4840 C   0  0  0  0  0  0  0  0  0  0  0  0
   -3.9630   17.6810  -33.4840 N   0  0  0  0  0  0  0  0  0  0  0  0
   -2.5280   17.6880  -33.3630 C   0  0  0  0  0  0  0  0  0  0  0  0
   -1.9430   16.8930  -32.5800 O   0  0  0  0  0  0  0  0  0  0  0  0
   -1.7660   18.5770  -34.1150 O   0  0  0  0  0  0  0  0  0  0  0  0
   -4.7870   16.7490  -32.7010 C   0  0  0  0  0  0  0  0  0  0  0  0
   -5.9800   17.4850  -32.0790 C   0  0  0  0  0  0  0  0  0  0  0  0
   -5.8110   20.5980  -32.2700 C   0  0  0  0  0  0  0  0  0  0  0  0
   -6.0120   21.8860  -31.7590 C   0  0  0  0  0  0  0  0  0  0  0  0
   -2.7017   20.5417  -28.3914 H   0  0  0  0  0  0  0  0  0  0  0  0
   -3.5977   20.7325  -29.9365 H   0  0  0  0  0  0  0  0  0  0  0  0
   -1.8015   20.7113  -29.9365 H   0  0  0  0  0  0  0  0  0  0  0  0
   -1.4032   22.9420  -27.4878 H   0  0  0  0  0  0  0  0  0  0  0  0
   -0.5456   22.2651  -28.9136 H   0  0  0  0  0  0  0  0  0  0  0  0
   -1.0711   23.9828  -28.9136 H   0  0  0  0  0  0  0  0  0  0  0  0
   -3.5376   22.8535  -27.2310 H   0  0  0  0  0  0  0  0  0  0  0  0
   -4.1164   24.0083  -28.4793 H   0  0  0  0  0  0  0  0  0  0  0  0
   -4.7109   22.3133  -28.4793 H   0  0  0  0  0  0  0  0  0  0  0  0
   -3.0550   25.2800  -30.3200 H   0  0  0  0  0  0  0  0  0  0  0  0
   -7.9644   24.3759  -30.8667 H   0  0  0  0  0  0  0  0  0  0  0  0
   -9.4178   22.0615  -31.7060 H   0  0  0  0  0  0  0  0  0  0  0  0
   -9.1256   19.7222  -32.5783 H   0  0  0  0  0  0  0  0  0  0  0  0
   -7.7355   17.9252  -33.1878 H   0  0  0  0  0  0  0  0  0  0  0  0
   -6.3636   17.4374  -35.0021 H   0  0  0  0  0  0  0  0  0  0  0  0
   -6.5380   19.2486  -35.0549 H   0  0  0  0  0  0  0  0  0  0  0  0
   -4.1947   18.3037  -35.4775 H   0  0  0  0  0  0  0  0  0  0  0  0
   -4.3700   19.5966  -34.2152 H   0  0  0  0  0  0  0  0  0  0  0  0
   -5.1574   15.9504  -33.3606 H   0  0  0  0  0  0  0  0  0  0  0  0
   -4.1731   16.3191  -31.8958 H   0  0  0  0  0  0  0  0  0  0  0  0
   -6.6821   16.7380  -31.6802 H   0  0  0  0  0  0  0  0  0  0  0  0
   -5.5835   18.1421  -31.2910 H   0  0  0  0  0  0  0  0  0  0  0  0
   -4.7940   20.2084  -32.4249 H   0  0  0  0  0  0  0  0  0  0  0  0
  1  2  1  0
  2  3  1  0
  2  4  1  0
  2  5  1  0
  5  6  1  0
  6  7  2  0
  6  8  1  0
  8  9  1  0
  9 10  1  0
 10 11  1  0
 10 12  2  0
  9 13  2  0
 13 14  1  0
 14 15  2  0
 15 16  1  0
 16 17  2  0
 17 18  1  0
 18 19  1  0
 19 20  1  0
 20 21  1  0
 21 22  1  0
 22 23  2  0
 22 24  1  0
 21 25  1  0
 25 26  1  0
 17 27  1  0
 27 28  2  0
 28  8  1  0
 28 14  1  0
 26 18  1  0
  1 29  1  0
  1 30  1  0
  1 31  1  0
  3 32  1  0
  3 33  1  0
  3 34  1  0
  4 35  1  0
  4 36  1  0
  4 37  1  0
 11 38  1  0
 13 39  1  0
 15 40  1  0
 16 41  1  0
 18 42  1  0
 19 43  1  0
 19 44  1  0
 20 45  1  0
 20 46  1  0
 25 47  1  0
 25 48  1  0
 26 49  1  0
 26 50  1  0
 27 51  1  0
M  CHG  2  11  -1  24  -1
M  END
>  <UniqueID>  (41) 
41

>  <SMILES>  (41) 
CC(C)(C)OC(=O)n1c(C([NH-])=O)cc2ccc(C3CCN(C(=O)[O-])CC3)cc21

>  <Energy>  (41) 
90.13122002226066

>  <Genealogy>  (41) 
CC(C)(C)OC(=O)n1c(C([NH-])=O)cc2ccc(C3CCN(C(=O)[O-])CC3)cc21 (protonated)
CC(C)(C)OC(=O)n1c(C([NH-])=O)cc2ccc(C3CCN(C(=O)[O-])CC3)cc21 (3D coordinates assigned)
CC(C)(C)OC(=O)n1c(C([NH-])=O)cc2ccc(C3CCN(C(=O)[O-])CC3)cc21 (nonaromatic ring conformer: 90.13122002226066 kcal/mol)

>  <smiles>  (41) 
CC(C)(C)OC(=O)n1c(C(N)=O)cc2ccc(C3CCN(C(=O)O)CC3)cc21

>  <score_type>  (41) 
oracle

>  <origin>  (41) 
adg

>  <m_score__min__energy>  (41) 
-11.65

>  <m_primary>  (41) 
energy

$$$$
41:0
     RDKit          3D

 50 52  0  0  0  0  0  0  0  0999 V2000
   -4.5640   18.8890  -33.9480 C   0  0  0  0  0  0  0  0  0  0  0  0
   -5.9820   18.8920  -34.0710 O   0  0  0  0  0  0  0  0  0  0  0  0
   -6.7920   17.9290  -33.4590 C   0  0  0  0  0  0  0  0  0  0  0  0
   -6.8730   16.7610  -33.9320 O   0  0  0  0  0  0  0  0  0  0  0  0
   -7.5920   18.3000  -32.2510 C   0  0  0  0  0  0  0  0  0  0  0  0
   -7.5740   19.7900  -32.0560 C   0  0  0  0  0  0  0  0  0  0  0  0
   -8.7710   20.5380  -32.2000 C   0  0  0  0  0  0  0  0  0  0  0  0
   -8.7800   21.9260  -31.9690 C   0  0  0  0  0  0  0  0  0  0  0  0
   -7.5850   22.5320  -31.5920 C   0  0  0  0  0  0  0  0  0  0  0  0
   -7.3080   23.8520  -31.3090 C   0  0  0  0  0  0  0  0  0  0  0  0
   -5.9510   23.8850  -30.9890 C   0  0  0  0  0  0  0  0  0  0  0  0
   -5.2300   25.1110  -30.5840 C   0  0  0  0  0  0  0  0  0  0  0  0
   -3.8600   25.3060  -30.9280 N   0  0  0  0  0  0  0  0  0  0  0  0
   -5.8270   25.9930  -29.9110 O   0  0  0  0  0  0  0  0  0  0  0  0
   -5.4160   22.6340  -31.0640 N   0  0  0  0  0  0  0  0  0  0  0  0
   -4.0400   22.2620  -30.8770 C   0  0  0  0  0  0  0  0  0  0  0  0
   -3.6290   21.2050  -31.4330 O   0  0  0  0  0  0  0  0  0  0  0  0
   -3.1650   22.9970  -29.9750 N   0  0  0  0  0  0  0  0  0  0  0  0
   -3.7390   23.0150  -28.6080 C   0  0  0  0  0  0  0  0  0  0  0  0
   -2.7570   23.5080  -27.5150 C   0  0  0  0  0  0  0  0  0  0  0  0
   -1.4870   24.0250  -28.0530 N   0  0  0  0  0  0  0  0  0  0  0  0
   -0.7210   25.0050  -27.3160 C   0  0  0  0  0  0  0  0  0  0  0  0
   -1.0660   25.3830  -25.9070 C   0  0  0  0  0  0  0  0  0  0  0  0
    0.2580   25.5780  -27.8690 O   0  0  0  0  0  0  0  0  0  0  0  0
   -0.8580   23.4000  -29.2240 C   0  0  0  0  0  0  0  0  0  0  0  0
   -1.8030   22.4270  -29.9280 C   0  0  0  0  0  0  0  0  0  0  0  0
   -6.4240   21.8200  -31.4400 C   0  0  0  0  0  0  0  0  0  0  0  0
   -6.3810   20.4410  -31.6700 C   0  0  0  0  0  0  0  0  0  0  0  0
   -4.2883   18.8884  -32.8831 H   0  0  0  0  0  0  0  0  0  0  0  0
   -4.1558   17.9900  -34.4329 H   0  0  0  0  0  0  0  0  0  0  0  0
   -4.1520   19.7863  -34.4329 H   0  0  0  0  0  0  0  0  0  0  0  0
   -8.6306   17.9634  -32.3852 H   0  0  0  0  0  0  0  0  0  0  0  0
   -7.1526   17.8162  -31.3662 H   0  0  0  0  0  0  0  0  0  0  0  0
   -9.7002   20.0284  -32.4948 H   0  0  0  0  0  0  0  0  0  0  0  0
   -9.7027   22.5139  -32.0828 H   0  0  0  0  0  0  0  0  0  0  0  0
   -8.0086   24.6997  -31.3309 H   0  0  0  0  0  0  0  0  0  0  0  0
   -3.1100   25.2720  -30.2020 H   0  0  0  0  0  0  0  0  0  0  0  0
   -3.1160   23.9820  -30.3270 H   0  0  0  0  0  0  0  0  0  0  0  0
   -4.6153   23.6799  -28.6102 H   0  0  0  0  0  0  0  0  0  0  0  0
   -3.9950   21.9748  -28.3581 H   0  0  0  0  0  0  0  0  0  0  0  0
   -3.2461   24.3117  -26.9450 H   0  0  0  0  0  0  0  0  0  0  0  0
   -2.5112   22.6393  -26.8866 H   0  0  0  0  0  0  0  0  0  0  0  0
   -0.4933   24.7555  -25.2083 H   0  0  0  0  0  0  0  0  0  0  0  0
   -0.8156   26.4409  -25.7394 H   0  0  0  0  0  0  0  0  0  0  0  0
   -2.1423   25.2300  -25.7394 H   0  0  0  0  0  0  0  0  0  0  0  0
   -0.5659   24.1881  -29.9336 H   0  0  0  0  0  0  0  0  0  0  0  0
    0.0186   22.8329  -28.8777 H   0  0  0  0  0  0  0  0  0  0  0  0
   -1.4462   22.2489  -30.9532 H   0  0  0  0  0  0  0  0  0  0  0  0
   -1.8259   21.4776  -29.3730 H   0  0  0  0  0  0  0  0  0  0  0  0
   -5.4431   19.8782  -31.5534 H   0  0  0  0  0  0  0  0  0  0  0  0
  1  2  1  0
  2  3  1  0
  3  4  2  0
  3  5  1  0
  5  6  1  0
  6  7  2  0
  7  8  1  0
  8  9  2  0
  9 10  1  0
 10 11  2  0
 11 12  1  0
 12 13  1  0
 12 14  2  0
 11 15  1  0
 15 16  1  0
 16 17  2  0
 16 18  1  0
 18 19  1  0
 19 20  1  0
 20 21  1  0
 21 22  1  0
 22 23  1  0
 22 24  2  0
 21 25  1  0
 25 26  1  0
 15 27  1  0
 27 28  2  0
 28  6  1  0
 27  9  1  0
 26 18  1  0
  1 29  1  0
  1 30  1  0
  1 31  1  0
  5 32  1  0
  5 33  1  0
  7 34  1  0
  8 35  1  0
 10 36  1  0
 13 37  1  0
 18 38  1  0
 19 39  1  0
 19 40  1  0
 20 41  1  0
 20 42  1  0
 23 43  1  0
 23 44  1  0
 23 45  1  0
 25 46  1  0
 25 47  1  0
 26 48  1  0
 26 49  1  0
 28 50  1  0
M  CHG  2  13  -1  18   1
M  END
>  <UniqueID>  (42) 
42

>  <SMILES>  (42) 
COC(=O)Cc1ccc2cc(C([NH-])=O)n(C(=O)[NH+]3CCN(C(C)=O)CC3)c2c1

>  <Energy>  (42) 
96.39429759845598

>  <Genealogy>  (42) 
COC(=O)Cc1ccc2cc(C([NH-])=O)n(C(=O)[NH+]3CCN(C(C)=O)CC3)c2c1 (protonated)
COC(=O)Cc1ccc2cc(C([NH-])=O)n(C(=O)[NH+]3CCN(C(C)=O)CC3)c2c1 (3D coordinates assigned)
COC(=O)Cc1ccc2cc(C([NH-])=O)n(C(=O)[NH+]3CCN(C(C)=O)CC3)c2c1 (nonaromatic ring conformer: 96.39429759845598 kcal/mol)

>  <smiles>  (42) 
COC(=O)Cc1ccc2cc(C(N)=O)n(C(=O)N3CCN(C(C)=O)CC3)c2c1

>  <score_type>  (42) 
oracle

>  <origin>  (42) 
adg

>  <m_score__min__energy>  (42) 
-10.83

>  <m_primary>  (42) 
energy

$$$$
42:0
     RDKit          3D

 31 32  0  0  0  0  0  0  0  0999 V2000
   -1.6120   25.6850  -28.9750 N   0  0  0  0  0  0  0  0  0  0  0  0
   -1.0420   24.3960  -29.1860 C   0  0  0  0  0  0  0  0  0  0  0  0
    0.1020   24.1430  -28.7210 O   0  0  0  0  0  0  0  0  0  0  0  0
   -1.7470   23.3750  -29.9910 C   0  0  0  0  0  0  0  0  0  0  0  0
   -1.1540   22.1850  -30.4050 C   0  0  0  0  0  0  0  0  0  0  0  0
   -2.0930   21.5670  -31.1980 C   0  0  0  0  0  0  0  0  0  0  0  0
   -2.0360   20.3480  -31.8670 C   0  0  0  0  0  0  0  0  0  0  0  0
   -3.1670   19.9420  -32.5940 C   0  0  0  0  0  0  0  0  0  0  0  0
   -4.3300   20.7510  -32.6310 C   0  0  0  0  0  0  0  0  0  0  0  0
   -5.5360   20.3130  -33.4220 C   0  0  0  0  0  0  0  0  0  0  0  0
   -6.5880   19.6230  -32.5380 C   0  0  0  0  0  0  0  0  0  0  0  0
   -7.8250   20.4910  -32.2750 C   0  0  0  0  0  0  0  0  0  0  0  0
   -8.9010   20.0780  -33.0730 O   0  0  0  0  0  0  0  0  0  0  0  0
   -4.3500   21.9830  -31.9390 C   0  0  0  0  0  0  0  0  0  0  0  0
   -3.2030   22.3720  -31.2380 C   0  0  0  0  0  0  0  0  0  0  0  0
   -3.0070   23.4860  -30.4990 N   0  0  0  0  0  0  0  0  0  0  0  0
   -3.9750   24.5140  -30.2320 C   0  0  0  0  0  0  0  0  0  0  0  0
   -3.8710   25.6450  -30.7750 O   0  0  0  0  0  0  0  0  0  0  0  0
   -5.0530   24.2590  -29.3920 O   0  0  0  0  0  0  0  0  0  0  0  0
   -2.6460   25.8240  -28.9890 H   0  0  0  0  0  0  0  0  0  0  0  0
   -0.1486   21.8174  -30.1518 H   0  0  0  0  0  0  0  0  0  0  0  0
   -1.1327   19.7216  -31.8276 H   0  0  0  0  0  0  0  0  0  0  0  0
   -3.1500   18.9871  -33.1398 H   0  0  0  0  0  0  0  0  0  0  0  0
   -5.9921   21.1968  -33.8919 H   0  0  0  0  0  0  0  0  0  0  0  0
   -5.2003   19.5877  -34.1778 H   0  0  0  0  0  0  0  0  0  0  0  0
   -6.9109   18.6977  -33.0376 H   0  0  0  0  0  0  0  0  0  0  0  0
   -6.1159   19.4260  -31.5642 H   0  0  0  0  0  0  0  0  0  0  0  0
   -8.1077   20.4046  -31.2155 H   0  0  0  0  0  0  0  0  0  0  0  0
   -7.5825   21.5350  -32.5224 H   0  0  0  0  0  0  0  0  0  0  0  0
   -8.5180   19.7430  -33.9250 H   0  0  0  0  0  0  0  0  0  0  0  0
   -5.2459   22.6211  -31.9511 H   0  0  0  0  0  0  0  0  0  0  0  0
  1  2  1  0
  2  3  2  0
  2  4  1  0
  4  5  2  0
  5  6  1  0
  6  7  2  0
  7  8  1  0
  8  9  2  0
  9 10  1  0
 10 11  1  0
 11 12  1  0
 12 13  1  0
  9 14  1  0
 14 15  2  0
 15 16  1  0
 16 17  1  0
 17 18  2  0
 17 19  1  0
 16  4  1  0
 15  6  1  0
  1 20  1  0
  5 21  1  0
  7 22  1  0
  8 23  1  0
 10 24  1  0
 10 25  1  0
 11 26  1  0
 11 27  1  0
 12 28  1  0
 12 29  1  0
 13 30  1  0
 14 31  1  0
M  CHG  2   1  -1  19  -1
M  END
>  <UniqueID>  (43) 
43

>  <SMILES>  (43) 
[NH-]C(=O)c1cc2ccc(CCCO)cc2n1C(=O)[O-]

>  <Energy>  (43) 
67.05881901737295

>  <Genealogy>  (43) 
[NH-]C(=O)c1cc2ccc(CCCO)cc2n1C(=O)[O-] (protonated)
[NH-]C(=O)c1cc2ccc(CCCO)cc2n1C(=O)[O-] (3D coordinates assigned)
[NH-]C(=O)c1cc2ccc(CCCO)cc2n1C(=O)[O-] (optimized conformer: 67.05881901737295 kcal/mol)

>  <smiles>  (43) 
NC(=O)c1cc2ccc(CCCO)cc2n1C(=O)O

>  <score_type>  (43) 
oracle

>  <origin>  (43) 
adg

>  <m_score__min__energy>  (43) 
-10.52

>  <m_primary>  (43) 
energy

$$$$
43:0
     RDKit          3D

 46 48  0  0  0  0  0  0  0  0999 V2000
   -6.8760   15.6790  -34.1590 C   0  0  0  0  0  0  0  0  0  0  0  0
   -5.7490   16.5450  -33.7770 N   0  0  0  0  0  0  0  0  0  0  0  0
   -5.9750   17.1180  -32.4250 C   0  0  0  0  0  0  0  0  0  0  0  0
   -5.1810   18.4120  -32.2060 C   0  0  0  0  0  0  0  0  0  0  0  0
   -5.6080   19.5120  -33.2140 C   0  0  0  0  0  0  0  0  0  0  0  0
   -6.6070   20.4520  -32.6550 N   0  0  0  0  0  0  0  0  0  0  0  0
   -8.0380   20.2010  -32.8460 C   0  0  0  0  0  0  0  0  0  0  0  0
   -6.2360   21.5240  -31.7730 C   0  0  0  0  0  0  0  0  0  0  0  0
   -7.1960   22.4870  -31.3740 C   0  0  0  0  0  0  0  0  0  0  0  0
   -6.8380   23.5350  -30.5090 C   0  0  0  0  0  0  0  0  0  0  0  0
   -5.5160   23.6010  -30.0750 C   0  0  0  0  0  0  0  0  0  0  0  0
   -4.8920   24.5240  -29.2650 C   0  0  0  0  0  0  0  0  0  0  0  0
   -3.5610   24.1190  -29.1980 C   0  0  0  0  0  0  0  0  0  0  0  0
   -2.5380   24.8030  -28.3760 C   0  0  0  0  0  0  0  0  0  0  0  0
   -1.6160   25.7200  -28.9610 N   0  0  0  0  0  0  0  0  0  0  0  0
   -2.4520   24.5450  -27.1460 O   0  0  0  0  0  0  0  0  0  0  0  0
   -3.3680   22.9910  -29.9390 N   0  0  0  0  0  0  0  0  0  0  0  0
   -2.1290   22.3090  -30.1990 C   0  0  0  0  0  0  0  0  0  0  0  0
   -0.8960   23.0280  -30.2090 N   0  0  0  0  0  0  0  0  0  0  0  0
   -2.1270   21.0660  -30.4140 O   0  0  0  0  0  0  0  0  0  0  0  0
   -4.5730   22.6880  -30.4700 C   0  0  0  0  0  0  0  0  0  0  0  0
   -4.8980   21.6460  -31.3460 C   0  0  0  0  0  0  0  0  0  0  0  0
   -6.1210   18.9110  -34.5440 C   0  0  0  0  0  0  0  0  0  0  0  0
   -5.4620   17.5530  -34.8320 C   0  0  0  0  0  0  0  0  0  0  0  0
   -7.3702   15.2992  -33.2526 H   0  0  0  0  0  0  0  0  0  0  0  0
   -7.5973   16.2574  -34.7549 H   0  0  0  0  0  0  0  0  0  0  0  0
   -6.5028   14.8331  -34.7549 H   0  0  0  0  0  0  0  0  0  0  0  0
   -7.0468   17.3353  -32.3066 H   0  0  0  0  0  0  0  0  0  0  0  0
   -5.6326   16.3812  -31.6835 H   0  0  0  0  0  0  0  0  0  0  0  0
   -5.3607   18.7740  -31.1829 H   0  0  0  0  0  0  0  0  0  0  0  0
   -4.1136   18.1951  -32.3598 H   0  0  0  0  0  0  0  0  0  0  0  0
   -4.6955   20.0897  -33.4227 H   0  0  0  0  0  0  0  0  0  0  0  0
   -8.5292   20.1148  -31.8656 H   0  0  0  0  0  0  0  0  0  0  0  0
   -8.4847   21.0345  -33.4079 H   0  0  0  0  0  0  0  0  0  0  0  0
   -8.1743   19.2652  -33.4079 H   0  0  0  0  0  0  0  0  0  0  0  0
   -8.2292   22.4136  -31.7442 H   0  0  0  0  0  0  0  0  0  0  0  0
   -7.5790   24.2804  -30.1845 H   0  0  0  0  0  0  0  0  0  0  0  0
   -5.3484   25.3965  -28.7747 H   0  0  0  0  0  0  0  0  0  0  0  0
   -1.3870   25.6720  -29.9790 H   0  0  0  0  0  0  0  0  0  0  0  0
   -0.8850   24.0670  -30.1110 H   0  0  0  0  0  0  0  0  0  0  0  0
    0.0100   22.5160  -30.3170 H   0  0  0  0  0  0  0  0  0  0  0  0
   -4.1289   20.9401  -31.6926 H   0  0  0  0  0  0  0  0  0  0  0  0
   -7.2105   18.7743  -34.4791 H   0  0  0  0  0  0  0  0  0  0  0  0
   -5.8643   19.6024  -35.3601 H   0  0  0  0  0  0  0  0  0  0  0  0
   -5.8396   17.1746  -35.7934 H   0  0  0  0  0  0  0  0  0  0  0  0
   -4.3734   17.7088  -34.8578 H   0  0  0  0  0  0  0  0  0  0  0  0
  1  2  1  0
  2  3  1  0
  3  4  1  0
  4  5  1  0
  5  6  1  0
  6  7  1  0
  6  8  1  0
  8  9  2  0
  9 10  1  0
 10 11  2  0
 11 12  1  0
 12 13  2  0
 13 14  1  0
 14 15  1  0
 14 16  2  0
 13 17  1  0
 17 18  1  0
 18 19  1  0
 18 20  2  0
 17 21  1  0
 21 22  2  0
  5 23  1  0
 23 24  1  0
 24  2  1  0
 22  8  1  0
 21 11  1  0
  1 25  1  0
  1 26  1  0
  1 27  1  0
  3 28  1  0
  3 29  1  0
  4 30  1  0
  4 31  1  0
  5 32  1  0
  7 33  1  0
  7 34  1  0
  7 35  1  0
  9 36  1  0
 10 37  1  0
 12 38  1  0
 15 39  1  0
 19 40  1  0
 19 41  1  0
 22 42  1  0
 23 43  1  0
 23 44  1  0
 24 45  1  0
 24 46  1  0
M  CHG  1  15  -1
M  END
>  <UniqueID>  (44) 
44

>  <SMILES>  (44) 
CN1CCC(N(C)c2ccc3cc(C([NH-])=O)n(C(N)=O)c3c2)CC1

>  <Energy>  (44) 
98.62259823160569

>  <Genealogy>  (44) 
CN1CCC(N(C)c2ccc3cc(C([NH-])=O)n(C(N)=O)c3c2)CC1 (protonated)
CN1CCC(N(C)c2ccc3cc(C([NH-])=O)n(C(N)=O)c3c2)CC1 (3D coordinates assigned)
CN1CCC(N(C)c2ccc3cc(C([NH-])=O)n(C(N)=O)c3c2)CC1 (nonaromatic ring conformer: 98.62259823160569 kcal/mol)

>  <smiles>  (44) 
CN1CCC(N(C)c2ccc3cc(C(N)=O)n(C(N)=O)c3c2)CC1

>  <score_type>  (44) 
oracle

>  <origin>  (44) 
adg

>  <m_score__min__energy>  (44) 
-11.029999999999999

>  <m_primary>  (44) 
energy

$$$$
44:0
     RDKit          3D

 45 47  0  0  0  0  0  0  0  0999 V2000
   -4.1770   24.5370  -26.9990 C   0  0  0  0  0  0  0  0  0  0  0  0
   -4.0640   23.2200  -27.7660 C   0  0  0  0  0  0  0  0  0  0  0  0
   -2.6090   22.8540  -28.1050 C   0  0  0  0  0  0  0  0  0  0  0  0
   -2.4250   22.2230  -29.4920 C   0  0  0  0  0  0  0  0  0  0  0  0
   -2.8850   23.1290  -30.5400 N   0  0  0  0  0  0  0  0  0  0  0  0
   -3.8090   22.7650  -31.5720 C   0  0  0  0  0  0  0  0  0  0  0  0
   -3.3930   22.2620  -32.6500 O   0  0  0  0  0  0  0  0  0  0  0  0
   -5.2160   22.9560  -31.3670 N   0  0  0  0  0  0  0  0  0  0  0  0
   -5.8570   24.0800  -30.9380 C   0  0  0  0  0  0  0  0  0  0  0  0
   -5.2080   25.3120  -30.4400 C   0  0  0  0  0  0  0  0  0  0  0  0
   -3.8850   25.6600  -30.8400 N   0  0  0  0  0  0  0  0  0  0  0  0
   -5.8160   26.0470  -29.6160 O   0  0  0  0  0  0  0  0  0  0  0  0
   -7.2380   23.8960  -30.9680 C   0  0  0  0  0  0  0  0  0  0  0  0
   -7.4250   22.6120  -31.4290 C   0  0  0  0  0  0  0  0  0  0  0  0
   -8.6010   21.9130  -31.6810 C   0  0  0  0  0  0  0  0  0  0  0  0
   -8.4960   20.6120  -32.2030 C   0  0  0  0  0  0  0  0  0  0  0  0
   -7.2270   20.0350  -32.4660 C   0  0  0  0  0  0  0  0  0  0  0  0
   -7.1410   18.6450  -33.0720 C   0  0  2  0  0  0  0  0  0  0  0  0
   -6.6900   17.5860  -32.0860 C   0  0  0  0  0  0  0  0  0  0  0  0
   -5.4190   17.0340  -32.7030 C   0  0  0  0  0  0  0  0  0  0  0  0
   -5.4140   17.3480  -34.0730 O   0  0  0  0  0  0  0  0  0  0  0  0
   -6.1120   18.5620  -34.1970 C   0  0  0  0  0  0  0  0  0  0  0  0
   -6.0540   20.7810  -32.1950 C   0  0  0  0  0  0  0  0  0  0  0  0
   -6.1900   22.0670  -31.6620 C   0  0  0  0  0  0  0  0  0  0  0  0
   -4.1596   24.3344  -25.9180 H   0  0  0  0  0  0  0  0  0  0  0  0
   -3.3315   25.1891  -27.2635 H   0  0  0  0  0  0  0  0  0  0  0  0
   -5.1212   25.0355  -27.2635 H   0  0  0  0  0  0  0  0  0  0  0  0
   -4.4950   22.4163  -27.1509 H   0  0  0  0  0  0  0  0  0  0  0  0
   -4.6063   23.3406  -28.7154 H   0  0  0  0  0  0  0  0  0  0  0  0
   -2.0033   23.7712  -28.0603 H   0  0  0  0  0  0  0  0  0  0  0  0
   -2.2940   22.0986  -27.3701 H   0  0  0  0  0  0  0  0  0  0  0  0
   -1.3589   22.0021  -29.6489 H   0  0  0  0  0  0  0  0  0  0  0  0
   -3.0193   21.2986  -29.5399 H   0  0  0  0  0  0  0  0  0  0  0  0
   -3.0540   25.2850  -30.3310 H   0  0  0  0  0  0  0  0  0  0  0  0
   -8.0139   24.6221  -30.6838 H   0  0  0  0  0  0  0  0  0  0  0  0
   -9.5833   22.3646  -31.4780 H   0  0  0  0  0  0  0  0  0  0  0  0
   -9.4089   20.0343  -32.4101 H   0  0  0  0  0  0  0  0  0  0  0  0
   -8.1675   18.4631  -33.4229 H   0  0  0  0  0  0  0  0  0  0  0  0
   -6.4863   18.0298  -31.1003 H   0  0  0  0  0  0  0  0  0  0  0  0
   -7.4518   16.8108  -31.9167 H   0  0  0  0  0  0  0  0  0  0  0  0
   -4.5431   17.4870  -32.2155 H   0  0  0  0  0  0  0  0  0  0  0  0
   -5.3774   15.9433  -32.5667 H   0  0  0  0  0  0  0  0  0  0  0  0
   -5.4087   19.4042  -34.1197 H   0  0  0  0  0  0  0  0  0  0  0  0
   -6.6160   18.6095  -35.1736 H   0  0  0  0  0  0  0  0  0  0  0  0
   -5.0590   20.3588  -32.3990 H   0  0  0  0  0  0  0  0  0  0  0  0
  1  2  1  0
  2  3  1  0
  3  4  1  0
  4  5  1  0
  5  6  1  0
  6  7  2  0
  6  8  1  0
  8  9  1  0
  9 10  1  0
 10 11  1  0
 10 12  2  0
  9 13  2  0
 13 14  1  0
 14 15  2  0
 15 16  1  0
 16 17  2  0
 17 18  1  0
 18 19  1  0
 19 20  1  0
 20 21  1  0
 21 22  1  0
 17 23  1  0
 23 24  2  0
 24  8  1  0
 24 14  1  0
 22 18  1  0
  1 25  1  0
  1 26  1  0
  1 27  1  0
  2 28  1  0
  2 29  1  0
  3 30  1  0
  3 31  1  0
  4 32  1  0
  4 33  1  0
 11 34  1  0
 13 35  1  0
 15 36  1  0
 16 37  1  0
 18 38  1  6
 19 39  1  0
 19 40  1  0
 20 41  1  0
 20 42  1  0
 22 43  1  0
 22 44  1  0
 23 45  1  0
M  CHG  2   5  -1  11  -1
M  END
>  <UniqueID>  (45) 
45

>  <SMILES>  (45) 
CCCC[N-]C(=O)n1c(C([NH-])=O)cc2ccc([C@@H]3CCOC3)cc21

>  <Energy>  (45) 
79.74838369680752

>  <Genealogy>  (45) 
CCCC[N-]C(=O)n1c(C([NH-])=O)cc2ccc(C3CCOC3)cc21 (protonated)
CCCC[N-]C(=O)n1c(C([NH-])=O)cc2ccc([C@@H]3CCOC3)cc21 (chirality)
CCCC[N-]C(=O)n1c(C([NH-])=O)cc2ccc([C@@H]3CCOC3)cc21 (3D coordinates assigned)
CCCC[N-]C(=O)n1c(C([NH-])=O)cc2ccc([C@@H]3CCOC3)cc21 (nonaromatic ring conformer: 79.74838369680752 kcal/mol)

>  <smiles>  (45) 
CCCCNC(=O)n1c(C(N)=O)cc2ccc(C3CCOC3)cc21

>  <score_type>  (45) 
oracle

>  <origin>  (45) 
adg

>  <m_score__min__energy>  (45) 
-11.76

>  <m_primary>  (45) 
energy

$$$$
45:0
     RDKit          3D

 36 37  0  0  0  0  0  0  0  0999 V2000
   -2.7610   24.8630  -27.9450 C   0  0  0  0  0  0  0  0  0  0  0  0
   -2.1030   25.0330  -29.1820 O   0  0  0  0  0  0  0  0  0  0  0  0
   -1.1220   24.0270  -29.3650 C   0  0  0  0  0  0  0  0  0  0  0  0
   -1.6690   22.9080  -30.2500 C   0  0  0  0  0  0  0  0  0  0  0  0
   -3.0900   22.9730  -30.2830 O   0  0  0  0  0  0  0  0  0  0  0  0
   -3.8400   22.6700  -31.4210 C   0  0  0  0  0  0  0  0  0  0  0  0
   -3.2630   22.3080  -32.4820 O   0  0  0  0  0  0  0  0  0  0  0  0
   -5.2770   22.7400  -31.3730 N   0  0  0  0  0  0  0  0  0  0  0  0
   -6.0400   23.8160  -31.0290 C   0  0  0  0  0  0  0  0  0  0  0  0
   -5.5380   25.0890  -30.4760 C   0  0  0  0  0  0  0  0  0  0  0  0
   -4.2030   25.5270  -30.7310 N   0  0  0  0  0  0  0  0  0  0  0  0
   -6.2920   25.7870  -29.7480 O   0  0  0  0  0  0  0  0  0  0  0  0
   -7.3920   23.5440  -31.2190 C   0  0  0  0  0  0  0  0  0  0  0  0
   -7.4400   22.2420  -31.6590 C   0  0  0  0  0  0  0  0  0  0  0  0
   -8.5360   21.4440  -31.9620 C   0  0  0  0  0  0  0  0  0  0  0  0
   -8.2970   20.1240  -32.3800 C   0  0  0  0  0  0  0  0  0  0  0  0
   -6.9720   19.6360  -32.5110 C   0  0  0  0  0  0  0  0  0  0  0  0
   -6.7460   18.2080  -32.9410 C   0  0  0  0  0  0  0  0  0  0  0  0
   -5.6870   17.6750  -32.2290 F   0  0  0  0  0  0  0  0  0  0  0  0
   -7.8770   17.4500  -32.6960 F   0  0  0  0  0  0  0  0  0  0  0  0
   -6.4580   18.1320  -34.2960 F   0  0  0  0  0  0  0  0  0  0  0  0
   -5.8830   20.4750  -32.1810 C   0  0  0  0  0  0  0  0  0  0  0  0
   -6.1520   21.7780  -31.7500 C   0  0  0  0  0  0  0  0  0  0  0  0
   -2.0519   25.0462  -27.1243 H   0  0  0  0  0  0  0  0  0  0  0  0
   -3.5966   25.5747  -27.8733 H   0  0  0  0  0  0  0  0  0  0  0  0
   -3.1473   23.8356  -27.8733 H   0  0  0  0  0  0  0  0  0  0  0  0
   -0.2352   24.4677  -29.8438 H   0  0  0  0  0  0  0  0  0  0  0  0
   -0.8517   23.6081  -28.3845 H   0  0  0  0  0  0  0  0  0  0  0  0
   -1.2741   23.0227  -31.2702 H   0  0  0  0  0  0  0  0  0  0  0  0
   -1.3585   21.9354  -29.8405 H   0  0  0  0  0  0  0  0  0  0  0  0
   -3.8610   26.4360  -30.3450 H   0  0  0  0  0  0  0  0  0  0  0  0
   -3.5210   24.9040  -31.2180 H   0  0  0  0  0  0  0  0  0  0  0  0
   -8.2400   24.2246  -31.0528 H   0  0  0  0  0  0  0  0  0  0  0  0
   -9.5610   21.8341  -31.8772 H   0  0  0  0  0  0  0  0  0  0  0  0
   -9.1460   19.4627  -32.6078 H   0  0  0  0  0  0  0  0  0  0  0  0
   -4.8480   20.1113  -32.2614 H   0  0  0  0  0  0  0  0  0  0  0  0
  1  2  1  0
  2  3  1  0
  3  4  1  0
  4  5  1  0
  5  6  1  0
  6  7  2  0
  6  8  1  0
  8  9  1  0
  9 10  1  0
 10 11  1  0
 10 12  2  0
  9 13  2  0
 13 14  1  0
 14 15  2  0
 15 16  1  0
 16 17  2  0
 17 18  1  0
 18 19  1  0
 18 20  1  0
 18 21  1  0
 17 22  1  0
 22 23  2  0
 23  8  1  0
 23 14  1  0
  1 24  1  0
  1 25  1  0
  1 26  1  0
  3 27  1  0
  3 28  1  0
  4 29  1  0
  4 30  1  0
 11 31  1  0
 11 32  1  0
 13 33  1  0
 15 34  1  0
 16 35  1  0
 22 36  1  0
M  END
>  <UniqueID>  (46) 
46

>  <SMILES>  (46) 
COCCOC(=O)n1c(C(N)=O)cc2ccc(C(F)(F)F)cc21

>  <Energy>  (46) 
74.22705077703168

>  <Genealogy>  (46) 
COCCOC(=O)n1c(C(N)=O)cc2ccc(C(F)(F)F)cc21 (3D coordinates assigned)
COCCOC(=O)n1c(C(N)=O)cc2ccc(C(F)(F)F)cc21 (optimized conformer: 74.22705077703168 kcal/mol)

>  <smiles>  (46) 
COCCOC(=O)n1c(C(N)=O)cc2ccc(C(F)(F)F)cc21

>  <score_type>  (46) 
oracle

>  <origin>  (46) 
adg

>  <m_score__min__energy>  (46) 
-8.3499999999999996

>  <m_primary>  (46) 
energy

$$$$
46:0
     RDKit          3D

 46 48  0  0  0  0  0  0  0  0999 V2000
   -3.5680   21.1580  -30.4870 C   0  0  0  0  0  0  0  0  0  0  0  0
   -4.0390   22.4960  -30.9600 C   0  0  0  0  0  0  0  0  0  0  0  0
   -3.1880   23.3840  -31.2340 O   0  0  0  0  0  0  0  0  0  0  0  0
   -5.4400   22.7750  -31.1240 N   0  0  0  0  0  0  0  0  0  0  0  0
   -6.1100   23.8860  -30.7050 C   0  0  0  0  0  0  0  0  0  0  0  0
   -5.4960   25.0950  -30.1210 C   0  0  0  0  0  0  0  0  0  0  0  0
   -4.3080   25.6660  -30.6700 N   0  0  0  0  0  0  0  0  0  0  0  0
   -6.0570   25.6620  -29.1460 O   0  0  0  0  0  0  0  0  0  0  0  0
   -7.4780   23.7460  -30.9230 C   0  0  0  0  0  0  0  0  0  0  0  0
   -7.6290   22.5050  -31.4970 C   0  0  0  0  0  0  0  0  0  0  0  0
   -8.7840   21.8420  -31.9020 C   0  0  0  0  0  0  0  0  0  0  0  0
   -8.6510   20.5450  -32.4240 C   0  0  0  0  0  0  0  0  0  0  0  0
   -7.3770   19.9310  -32.5120 C   0  0  0  0  0  0  0  0  0  0  0  0
   -7.2400   18.5420  -33.0860 C   0  0  0  0  0  0  0  0  0  0  0  0
   -5.7590   18.1380  -33.2660 C   0  0  0  0  0  0  0  0  0  0  0  0
   -5.3240   17.1260  -32.1740 C   0  0  0  0  0  0  0  0  0  0  0  0
   -5.3630   15.6870  -32.7000 C   0  0  0  0  0  0  0  0  0  0  0  0
   -4.4170   15.4890  -33.8250 N   0  0  0  0  0  0  0  0  0  0  0  0
   -4.7820   14.2900  -34.5940 C   0  0  0  0  0  0  0  0  0  0  0  0
   -4.2630   16.6740  -34.7110 C   0  0  0  0  0  0  0  0  0  0  0  0
   -5.4930   17.5920  -34.6910 C   0  0  0  0  0  0  0  0  0  0  0  0
   -6.2270   20.6330  -32.0890 C   0  0  0  0  0  0  0  0  0  0  0  0
   -6.3850   21.9350  -31.6020 C   0  0  0  0  0  0  0  0  0  0  0  0
   -3.5614   21.1394  -29.3872 H   0  0  0  0  0  0  0  0  0  0  0  0
   -4.2452   20.3769  -30.8629 H   0  0  0  0  0  0  0  0  0  0  0  0
   -2.5508   20.9734  -30.8629 H   0  0  0  0  0  0  0  0  0  0  0  0
   -3.9240   25.3410  -31.5850 H   0  0  0  0  0  0  0  0  0  0  0  0
   -3.8620   26.4900  -30.2090 H   0  0  0  0  0  0  0  0  0  0  0  0
   -8.2692   24.4727  -30.6867 H   0  0  0  0  0  0  0  0  0  0  0  0
   -9.7712   22.3196  -31.8158 H   0  0  0  0  0  0  0  0  0  0  0  0
   -9.5434   20.0012  -32.7674 H   0  0  0  0  0  0  0  0  0  0  0  0
   -7.7240   17.8262  -32.4052 H   0  0  0  0  0  0  0  0  0  0  0  0
   -7.7194   18.5327  -34.0760 H   0  0  0  0  0  0  0  0  0  0  0  0
   -5.1439   19.0419  -33.1451 H   0  0  0  0  0  0  0  0  0  0  0  0
   -4.2985   17.3628  -31.8543 H   0  0  0  0  0  0  0  0  0  0  0  0
   -6.0237   17.2055  -31.3289 H   0  0  0  0  0  0  0  0  0  0  0  0
   -5.0940   15.0013  -31.8830 H   0  0  0  0  0  0  0  0  0  0  0  0
   -6.3798   15.4831  -33.0667 H   0  0  0  0  0  0  0  0  0  0  0  0
   -5.0310   13.4722  -33.9018 H   0  0  0  0  0  0  0  0  0  0  0  0
   -5.6533   14.5120  -35.2277 H   0  0  0  0  0  0  0  0  0  0  0  0
   -3.9348   13.9889  -35.2277 H   0  0  0  0  0  0  0  0  0  0  0  0
   -3.3877   17.2510  -34.3780 H   0  0  0  0  0  0  0  0  0  0  0  0
   -4.1398   16.3058  -35.7402 H   0  0  0  0  0  0  0  0  0  0  0  0
   -5.3212   18.4375  -35.3733 H   0  0  0  0  0  0  0  0  0  0  0  0
   -6.3692   17.0087  -35.0106 H   0  0  0  0  0  0  0  0  0  0  0  0
   -5.2316   20.1676  -32.1411 H   0  0  0  0  0  0  0  0  0  0  0  0
  1  2  1  0
  2  3  2  0
  2  4  1  0
  4  5  1  0
  5  6  1  0
  6  7  1  0
  6  8  2  0
  5  9  2  0
  9 10  1  0
 10 11  2  0
 11 12  1  0
 12 13  2  0
 13 14  1  0
 14 15  1  0
 15 16  1  0
 16 17  1  0
 17 18  1  0
 18 19  1  0
 18 20  1  0
 20 21  1  0
 13 22  1  0
 22 23  2  0
 23  4  1  0
 23 10  1  0
 21 15  1  0
  1 24  1  0
  1 25  1  0
  1 26  1  0
  7 27  1  0
  7 28  1  0
  9 29  1  0
 11 30  1  0
 12 31  1  0
 14 32  1  0
 14 33  1  0
 15 34  1  0
 16 35  1  0
 16 36  1  0
 17 37  1  0
 17 38  1  0
 19 39  1  0
 19 40  1  0
 19 41  1  0
 20 42  1  0
 20 43  1  0
 21 44  1  0
 21 45  1  0
 22 46  1  0
M  END
>  <UniqueID>  (47) 
47

>  <SMILES>  (47) 
CC(=O)n1c(C(N)=O)cc2ccc(CC3CCN(C)CC3)cc21

>  <Energy>  (47) 
91.4064549312273

>  <Genealogy>  (47) 
CC(=O)n1c(C(N)=O)cc2ccc(CC3CCN(C)CC3)cc21 (3D coordinates assigned)
CC(=O)n1c(C(N)=O)cc2ccc(CC3CCN(C)CC3)cc21 (nonaromatic ring conformer: 91.4064549312273 kcal/mol)

>  <smiles>  (47) 
CC(=O)n1c(C(N)=O)cc2ccc(CC3CCN(C)CC3)cc21

>  <score_type>  (47) 
oracle

>  <origin>  (47) 
adg

>  <m_score__min__energy>  (47) 
-9.6199999999999992

>  <m_primary>  (47) 
energy

$$$$
47:0
     RDKit          3D

 40 42  0  0  0  0  0  0  0  0999 V2000
   -3.6320   22.3140  -28.8910 C   0  0  0  0  0  0  0  0  0  0  0  0
   -2.8610   22.5160  -30.1220 N   0  0  0  0  0  0  0  0  0  0  0  0
   -1.4050   22.6690  -30.0720 C   0  0  0  0  0  0  0  0  0  0  0  0
   -3.5230   22.4770  -31.4000 C   0  0  0  0  0  0  0  0  0  0  0  0
   -2.8520   22.2950  -32.4540 O   0  0  0  0  0  0  0  0  0  0  0  0
   -4.9470   22.6270  -31.4960 N   0  0  0  0  0  0  0  0  0  0  0  0
   -5.7140   23.6160  -30.9620 C   0  0  0  0  0  0  0  0  0  0  0  0
   -5.2100   24.8310  -30.2870 C   0  0  0  0  0  0  0  0  0  0  0  0
   -5.7320   25.2560  -29.0260 N   0  0  0  0  0  0  0  0  0  0  0  0
   -4.2720   25.4850  -30.8150 O   0  0  0  0  0  0  0  0  0  0  0  0
   -7.0670   23.3220  -31.1180 C   0  0  0  0  0  0  0  0  0  0  0  0
   -7.1030   22.1080  -31.7660 C   0  0  0  0  0  0  0  0  0  0  0  0
   -8.1880   21.3250  -32.1420 C   0  0  0  0  0  0  0  0  0  0  0  0
   -7.9260   20.0820  -32.7460 C   0  0  0  0  0  0  0  0  0  0  0  0
   -6.5920   19.6360  -32.9520 C   0  0  0  0  0  0  0  0  0  0  0  0
   -6.3270   18.3160  -33.5800 C   0  0  0  0  0  0  0  0  0  0  0  0
   -5.3970   18.0150  -34.5670 C   0  0  0  0  0  0  0  0  0  0  0  0
   -5.4800   16.7070  -34.8780 N   0  0  0  0  0  0  0  0  0  0  0  0
   -6.4180   16.1740  -34.1150 N   0  0  0  0  0  0  0  0  0  0  0  0
   -6.8490   14.7850  -34.2090 C   0  0  0  0  0  0  0  0  0  0  0  0
   -6.9650   17.1140  -33.3240 C   0  0  0  0  0  0  0  0  0  0  0  0
   -5.5180   20.4640  -32.5440 C   0  0  0  0  0  0  0  0  0  0  0  0
   -5.8110   21.7050  -31.9720 C   0  0  0  0  0  0  0  0  0  0  0  0
   -2.9826   22.4841  -28.0196 H   0  0  0  0  0  0  0  0  0  0  0  0
   -4.4735   23.0220  -28.8650 H   0  0  0  0  0  0  0  0  0  0  0  0
   -4.0182   21.2844  -28.8650 H   0  0  0  0  0  0  0  0  0  0  0  0
   -1.0758   22.7036  -29.0230 H   0  0  0  0  0  0  0  0  0  0  0  0
   -0.9291   21.8159  -30.5777 H   0  0  0  0  0  0  0  0  0  0  0  0
   -1.1168   23.6024  -30.5777 H   0  0  0  0  0  0  0  0  0  0  0  0
   -6.3580   24.6440  -28.4620 H   0  0  0  0  0  0  0  0  0  0  0  0
   -5.4030   26.1520  -28.6020 H   0  0  0  0  0  0  0  0  0  0  0  0
   -7.9238   23.9303  -30.7927 H   0  0  0  0  0  0  0  0  0  0  0  0
   -9.2197   21.6668  -31.9725 H   0  0  0  0  0  0  0  0  0  0  0  0
   -8.7654   19.4459  -33.0635 H   0  0  0  0  0  0  0  0  0  0  0  0
   -4.7006   18.7335  -35.0239 H   0  0  0  0  0  0  0  0  0  0  0  0
   -6.9773   14.3717  -33.1977 H   0  0  0  0  0  0  0  0  0  0  0  0
   -7.8053   14.7336  -34.7501 H   0  0  0  0  0  0  0  0  0  0  0  0
   -6.0897   14.2013  -34.7501 H   0  0  0  0  0  0  0  0  0  0  0  0
   -7.7777   16.9556  -32.5998 H   0  0  0  0  0  0  0  0  0  0  0  0
   -4.4757   20.1374  -32.6745 H   0  0  0  0  0  0  0  0  0  0  0  0
  1  2  1  0
  2  3  1  0
  2  4  1  0
  4  5  2  0
  4  6  1  0
  6  7  1  0
  7  8  1  0
  8  9  1  0
  8 10  2  0
  7 11  2  0
 11 12  1  0
 12 13  2  0
 13 14  1  0
 14 15  2  0
 15 16  1  0
 16 17  1  0
 17 18  2  0
 18 19  1  0
 19 20  1  0
 19 21  1  0
 15 22  1  0
 22 23  2  0
 23  6  1  0
 23 12  1  0
 21 16  2  0
  1 24  1  0
  1 25  1  0
  1 26  1  0
  3 27  1  0
  3 28  1  0
  3 29  1  0
  9 30  1  0
  9 31  1  0
 11 32  1  0
 13 33  1  0
 14 34  1  0
 17 35  1  0
 20 36  1  0
 20 37  1  0
 20 38  1  0
 21 39  1  0
 22 40  1  0
M  END
>  <UniqueID>  (48) 
48

>  <SMILES>  (48) 
CN(C)C(=O)n1c(C(N)=O)cc2ccc(-c3cnn(C)c3)cc21

>  <Energy>  (48) 
110.75763205043299

>  <Genealogy>  (48) 
CN(C)C(=O)n1c(C(N)=O)cc2ccc(-c3cnn(C)c3)cc21 (3D coordinates assigned)
CN(C)C(=O)n1c(C(N)=O)cc2ccc(-c3cnn(C)c3)cc21 (optimized conformer: 110.75763205043299 kcal/mol)

>  <smiles>  (48) 
CN(C)C(=O)n1c(C(N)=O)cc2ccc(-c3cnn(C)c3)cc21

>  <score_type>  (48) 
oracle

>  <origin>  (48) 
adg

>  <m_score__min__energy>  (48) 
-9.2799999999999994

>  <m_primary>  (48) 
energy

$$$$
48:0
     RDKit          3D

 33 35  0  0  0  0  0  0  0  0999 V2000
   -1.6160   26.0380  -28.8800 N   0  0  0  0  0  0  0  0  0  0  0  0
   -0.9060   24.8030  -28.9250 C   0  0  0  0  0  0  0  0  0  0  0  0
    0.1700   24.6870  -28.2810 O   0  0  0  0  0  0  0  0  0  0  0  0
   -1.4440   23.6430  -29.6660 C   0  0  0  0  0  0  0  0  0  0  0  0
   -0.6740   22.5350  -30.0150 C   0  0  0  0  0  0  0  0  0  0  0  0
   -1.5500   21.6530  -30.6040 C   0  0  0  0  0  0  0  0  0  0  0  0
   -1.3210   20.3920  -31.1430 C   0  0  0  0  0  0  0  0  0  0  0  0
   -2.4090   19.7110  -31.7130 C   0  0  0  0  0  0  0  0  0  0  0  0
   -3.7000   20.3030  -31.7510 C   0  0  0  0  0  0  0  0  0  0  0  0
   -4.8560   19.5920  -32.3560 C   0  0  0  0  0  0  0  0  0  0  0  0
   -4.6930   18.6760  -33.4100 C   0  0  0  0  0  0  0  0  0  0  0  0
   -5.8130   18.0380  -33.9470 C   0  0  0  0  0  0  0  0  0  0  0  0
   -7.0830   18.3160  -33.4420 C   0  0  0  0  0  0  0  0  0  0  0  0
   -7.2200   19.2400  -32.4000 C   0  0  0  0  0  0  0  0  0  0  0  0
   -8.5760   19.5620  -31.8440 C   0  0  0  0  0  0  0  0  0  0  0  0
   -9.1430   18.4200  -31.3090 F   0  0  0  0  0  0  0  0  0  0  0  0
   -9.4070   20.0490  -32.8390 F   0  0  0  0  0  0  0  0  0  0  0  0
   -8.4570   20.5190  -30.8530 F   0  0  0  0  0  0  0  0  0  0  0  0
   -6.1130   19.8480  -31.8920 N   0  0  0  0  0  0  0  0  0  0  0  0
   -3.8910   21.5850  -31.1810 C   0  0  0  0  0  0  0  0  0  0  0  0
   -2.7930   22.2310  -30.6030 C   0  0  0  0  0  0  0  0  0  0  0  0
   -2.7440   23.4560  -30.0340 N   0  0  0  0  0  0  0  0  0  0  0  0
   -3.8330   24.3880  -29.9280 C   0  0  0  0  0  0  0  0  0  0  0  0
   -3.8580   25.4200  -30.6490 O   0  0  0  0  0  0  0  0  0  0  0  0
   -4.8810   24.1460  -29.0490 O   0  0  0  0  0  0  0  0  0  0  0  0
   -2.6570   26.0620  -28.9450 H   0  0  0  0  0  0  0  0  0  0  0  0
    0.4051   22.3954  -29.8537 H   0  0  0  0  0  0  0  0  0  0  0  0
   -0.3178   19.9413  -31.1236 H   0  0  0  0  0  0  0  0  0  0  0  0
   -2.2597   18.7064  -32.1354 H   0  0  0  0  0  0  0  0  0  0  0  0
   -3.6902   18.4634  -33.8089 H   0  0  0  0  0  0  0  0  0  0  0  0
   -5.6936   17.3161  -34.7684 H   0  0  0  0  0  0  0  0  0  0  0  0
   -7.9685   17.8138  -33.8588 H   0  0  0  0  0  0  0  0  0  0  0  0
   -4.8817   22.0628  -31.1924 H   0  0  0  0  0  0  0  0  0  0  0  0
  1  2  1  0
  2  3  2  0
  2  4  1  0
  4  5  2  0
  5  6  1  0
  6  7  2  0
  7  8  1  0
  8  9  2  0
  9 10  1  0
 10 11  2  0
 11 12  1  0
 12 13  2  0
 13 14  1  0
 14 15  1  0
 15 16  1  0
 15 17  1  0
 15 18  1  0
 14 19  2  0
  9 20  1  0
 20 21  2  0
 21 22  1  0
 22 23  1  0
 23 24  2  0
 23 25  1  0
 22  4  1  0
 21  6  1  0
 19 10  1  0
  1 26  1  0
  5 27  1  0
  7 28  1  0
  8 29  1  0
 11 30  1  0
 12 31  1  0
 13 32  1  0
 20 33  1  0
M  CHG  2   1  -1  25  -1
M  END
>  <UniqueID>  (49) 
49

>  <SMILES>  (49) 
[NH-]C(=O)c1cc2ccc(-c3cccc(C(F)(F)F)n3)cc2n1C(=O)[O-]

>  <Energy>  (49) 
79.72762807200418

>  <Genealogy>  (49) 
[NH-]C(=O)c1cc2ccc(-c3cccc(C(F)(F)F)n3)cc2n1C(=O)[O-] (protonated)
[NH-]C(=O)c1cc2ccc(-c3cccc(C(F)(F)F)n3)cc2n1C(=O)[O-] (3D coordinates assigned)
[NH-]C(=O)c1cc2ccc(-c3cccc(C(F)(F)F)n3)cc2n1C(=O)[O-] (optimized conformer: 79.72762807200418 kcal/mol)

>  <smiles>  (49) 
NC(=O)c1cc2ccc(-c3cccc(C(F)(F)F)n3)cc2n1C(=O)O

>  <score_type>  (49) 
oracle

>  <origin>  (49) 
adg

>  <m_score__min__energy>  (49) 
-11.44

>  <m_primary>  (49) 
energy

$$$$
49:0
     RDKit          3D

 45 48  0  0  0  0  0  0  0  0999 V2000
   -4.2290   25.6060  -30.8210 N   0  0  0  0  0  0  0  0  0  0  0  0
   -5.5870   25.2430  -30.5650 C   0  0  0  0  0  0  0  0  0  0  0  0
   -6.3060   26.0010  -29.8600 O   0  0  0  0  0  0  0  0  0  0  0  0
   -6.1450   23.9680  -31.0570 C   0  0  0  0  0  0  0  0  0  0  0  0
   -7.5090   23.7410  -31.2200 C   0  0  0  0  0  0  0  0  0  0  0  0
   -7.6120   22.4310  -31.6270 C   0  0  0  0  0  0  0  0  0  0  0  0
   -8.7380   21.6830  -31.9530 C   0  0  0  0  0  0  0  0  0  0  0  0
   -8.5490   20.3610  -32.3860 C   0  0  0  0  0  0  0  0  0  0  0  0
   -7.2430   19.8110  -32.4940 C   0  0  0  0  0  0  0  0  0  0  0  0
   -7.0350   18.3900  -32.9870 C   0  0  2  0  0  0  0  0  0  0  0  0
   -6.4820   17.4750  -31.9010 C   0  0  0  0  0  0  0  0  0  0  0  0
   -5.4110   16.6610  -32.6000 C   0  0  0  0  0  0  0  0  0  0  0  0
   -4.9120   17.4590  -33.7150 N   0  0  0  0  0  0  0  0  0  0  0  0
   -6.0310   18.2980  -34.1440 C   0  0  0  0  0  0  0  0  0  0  0  0
   -6.1230   20.6070  -32.1600 C   0  0  0  0  0  0  0  0  0  0  0  0
   -6.3440   21.9150  -31.7090 C   0  0  0  0  0  0  0  0  0  0  0  0
   -5.4300   22.8490  -31.3640 N   0  0  0  0  0  0  0  0  0  0  0  0
   -4.0010   22.7110  -31.4320 C   0  0  0  0  0  0  0  0  0  0  0  0
   -3.3000   22.9420  -30.4090 O   0  0  0  0  0  0  0  0  0  0  0  0
   -3.4040   22.2730  -32.6200 O   0  0  0  0  0  0  0  0  0  0  0  0
   -2.6420   21.1040  -32.7630 C   0  0  0  0  0  0  0  0  0  0  0  0
   -1.6510   20.8330  -31.8110 C   0  0  0  0  0  0  0  0  0  0  0  0
   -0.8750   19.6740  -31.9060 C   0  0  0  0  0  0  0  0  0  0  0  0
   -1.0920   18.7690  -32.9490 C   0  0  0  0  0  0  0  0  0  0  0  0
   -2.0910   19.0200  -33.8920 C   0  0  0  0  0  0  0  0  0  0  0  0
   -2.8700   20.1790  -33.8010 C   0  0  0  0  0  0  0  0  0  0  0  0
   -3.5630   24.9280  -31.2510 H   0  0  0  0  0  0  0  0  0  0  0  0
   -3.8640   26.5300  -30.4990 H   0  0  0  0  0  0  0  0  0  0  0  0
   -8.3289   24.4562  -31.0580 H   0  0  0  0  0  0  0  0  0  0  0  0
   -9.7468   22.1143  -31.8740 H   0  0  0  0  0  0  0  0  0  0  0  0
   -9.4219   19.7437  -32.6447 H   0  0  0  0  0  0  0  0  0  0  0  0
   -8.0385   18.0759  -33.3101 H   0  0  0  0  0  0  0  0  0  0  0  0
   -6.0484   18.0643  -31.0796 H   0  0  0  0  0  0  0  0  0  0  0  0
   -7.2609   16.8424  -31.4502 H   0  0  0  0  0  0  0  0  0  0  0  0
   -4.5915   16.4390  -31.9006 H   0  0  0  0  0  0  0  0  0  0  0  0
   -5.8227   15.7066  -32.9601 H   0  0  0  0  0  0  0  0  0  0  0  0
   -4.1620   18.0900  -33.3440 H   0  0  0  0  0  0  0  0  0  0  0  0
   -5.6654   19.3033  -34.4001 H   0  0  0  0  0  0  0  0  0  0  0  0
   -6.5136   17.8619  -35.0310 H   0  0  0  0  0  0  0  0  0  0  0  0
   -5.1019   20.2085  -32.2521 H   0  0  0  0  0  0  0  0  0  0  0  0
   -1.4821   21.5370  -30.9828 H   0  0  0  0  0  0  0  0  0  0  0  0
   -0.0927   19.4740  -31.1590 H   0  0  0  0  0  0  0  0  0  0  0  0
   -0.4768   17.8605  -33.0269 H   0  0  0  0  0  0  0  0  0  0  0  0
   -2.2661   18.3044  -34.7089 H   0  0  0  0  0  0  0  0  0  0  0  0
   -3.6616   20.3681  -34.5410 H   0  0  0  0  0  0  0  0  0  0  0  0
  1  2  1  0
  2  3  2  0
  2  4  1  0
  4  5  2  0
  5  6  1  0
  6  7  2  0
  7  8  1  0
  8  9  2  0
  9 10  1  0
 10 11  1  0
 11 12  1  0
 12 13  1  0
 13 14  1  0
  9 15  1  0
 15 16  2  0
 16 17  1  0
 17 18  1  0
 18 19  2  0
 18 20  1  0
 20 21  1  0
 21 22  2  0
 22 23  1  0
 23 24  2  0
 24 25  1  0
 25 26  2  0
 17  4  1  0
 26 21  1  0
 16  6  1  0
 14 10  1  0
  1 27  1  0
  1 28  1  0
  5 29  1  0
  7 30  1  0
  8 31  1  0
 10 32  1  6
 11 33  1  0
 11 34  1  0
 12 35  1  0
 12 36  1  0
 13 37  1  0
 14 38  1  0
 14 39  1  0
 15 40  1  0
 22 41  1  0
 23 42  1  0
 24 43  1  0
 25 44  1  0
 26 45  1  0
M  END
>  <UniqueID>  (50) 
50

>  <SMILES>  (50) 
NC(=O)c1cc2ccc([C@@H]3CCNC3)cc2n1C(=O)Oc1ccccc1

>  <Energy>  (50) 
94.33186309187347

>  <Genealogy>  (50) 
NC(=O)c1cc2ccc([C@@H]3CCNC3)cc2n1C(=O)Oc1ccccc1 (chirality)
NC(=O)c1cc2ccc([C@@H]3CCNC3)cc2n1C(=O)Oc1ccccc1 (3D coordinates assigned)
NC(=O)c1cc2ccc([C@@H]3CCNC3)cc2n1C(=O)Oc1ccccc1 (nonaromatic ring conformer: 94.33186309187347 kcal/mol)

>  <smiles>  (50) 
NC(=O)c1cc2ccc(C3CCNC3)cc2n1C(=O)Oc1ccccc1

>  <score_type>  (50) 
oracle

>  <origin>  (50) 
adg

>  <m_score__min__energy>  (50) 
-9.8100000000000005

>  <m_primary>  (50) 
energy

$$$$
50:0
     RDKit          3D

 58 61  0  0  0  0  0  0  0  0999 V2000
    0.7210   17.5280  -28.7240 C   0  0  0  0  0  0  0  0  0  0  0  0
   -0.0910   17.7190  -27.4490 C   0  0  0  0  0  0  0  0  0  0  0  0
   -0.1730   19.1010  -27.1050 O   0  0  0  0  0  0  0  0  0  0  0  0
   -1.3820   19.7740  -26.8880 C   0  0  0  0  0  0  0  0  0  0  0  0
   -1.8980   19.7940  -25.7360 O   0  0  0  0  0  0  0  0  0  0  0  0
   -2.0570   20.4560  -28.0150 C   0  0  0  0  0  0  0  0  0  0  0  0
   -3.1170   21.3480  -27.7820 C   0  0  0  0  0  0  0  0  0  0  0  0
   -3.7540   21.9870  -28.8510 C   0  0  0  0  0  0  0  0  0  0  0  0
   -3.3470   21.7440  -30.1740 C   0  0  0  0  0  0  0  0  0  0  0  0
   -4.0280   22.4210  -31.3040 C   0  0  0  0  0  0  0  0  0  0  0  0
   -3.3890   22.6800  -32.3600 O   0  0  0  0  0  0  0  0  0  0  0  0
   -5.4220   22.7600  -31.2340 N   0  0  0  0  0  0  0  0  0  0  0  0
   -5.9820   23.9350  -30.8270 C   0  0  0  0  0  0  0  0  0  0  0  0
   -5.2420   25.1510  -30.4330 C   0  0  0  0  0  0  0  0  0  0  0  0
   -3.8640   25.2850  -30.7760 N   0  0  0  0  0  0  0  0  0  0  0  0
   -5.8080   26.0670  -29.7820 O   0  0  0  0  0  0  0  0  0  0  0  0
   -7.3720   23.8520  -30.8800 C   0  0  0  0  0  0  0  0  0  0  0  0
   -7.6460   22.5860  -31.3460 C   0  0  0  0  0  0  0  0  0  0  0  0
   -8.8660   21.9630  -31.5890 C   0  0  0  0  0  0  0  0  0  0  0  0
   -8.8460   20.6380  -32.0590 C   0  0  0  0  0  0  0  0  0  0  0  0
   -7.6140   19.9600  -32.2760 C   0  0  0  0  0  0  0  0  0  0  0  0
   -7.5720   18.5270  -32.7760 C   0  0  2  0  0  0  0  0  0  0  0  0
   -6.9200   17.5360  -31.8100 C   0  0  0  0  0  0  0  0  0  0  0  0
   -5.8230   17.2620  -32.8360 C   0  0  1  0  0  0  0  0  0  0  0  0
   -5.8420   15.8640  -33.2960 N   0  0  0  0  0  0  0  0  0  0  0  0
   -4.4170   15.5110  -34.2270 S   0  0  0  0  0  0  0  0  0  0  0  0
   -2.9900   15.4570  -33.1640 C   0  0  0  0  0  0  0  0  0  0  0  0
   -4.2100   16.5550  -35.2890 O   0  0  0  0  0  0  0  0  0  0  0  0
   -4.5820   14.1700  -34.8840 O   0  0  0  0  0  0  0  0  0  0  0  0
   -6.4790   18.2500  -33.8080 C   0  0  0  0  0  0  0  0  0  0  0  0
   -6.3990   20.6320  -32.0150 C   0  0  0  0  0  0  0  0  0  0  0  0
   -6.4510   21.9500  -31.5560 C   0  0  0  0  0  0  0  0  0  0  0  0
   -2.2770   20.8610  -30.4040 C   0  0  0  0  0  0  0  0  0  0  0  0
   -1.6420   20.2210  -29.3360 C   0  0  0  0  0  0  0  0  0  0  0  0
    1.7612   17.2833  -28.4630 H   0  0  0  0  0  0  0  0  0  0  0  0
    0.2884   16.7071  -29.3147 H   0  0  0  0  0  0  0  0  0  0  0  0
    0.6997   18.4557  -29.3147 H   0  0  0  0  0  0  0  0  0  0  0  0
   -1.1061   17.3250  -27.6051 H   0  0  0  0  0  0  0  0  0  0  0  0
    0.4062   17.1797  -26.6293 H   0  0  0  0  0  0  0  0  0  0  0  0
   -3.4484   21.5453  -26.7518 H   0  0  0  0  0  0  0  0  0  0  0  0
   -4.5806   22.6857  -28.6544 H   0  0  0  0  0  0  0  0  0  0  0  0
   -3.3290   24.4780  -31.1680 H   0  0  0  0  0  0  0  0  0  0  0  0
   -8.0970   24.6330  -30.6072 H   0  0  0  0  0  0  0  0  0  0  0  0
   -9.8162   22.4904  -31.4188 H   0  0  0  0  0  0  0  0  0  0  0  0
   -9.7946   20.1191  -32.2615 H   0  0  0  0  0  0  0  0  0  0  0  0
   -8.6322   18.4177  -33.0479 H   0  0  0  0  0  0  0  0  0  0  0  0
   -6.5584   17.9906  -30.8759 H   0  0  0  0  0  0  0  0  0  0  0  0
   -7.5038   16.7072  -31.3830 H   0  0  0  0  0  0  0  0  0  0  0  0
   -4.7585   17.3777  -32.5840 H   0  0  0  0  0  0  0  0  0  0  0  0
   -6.6750   15.6910  -33.9060 H   0  0  0  0  0  0  0  0  0  0  0  0
   -3.3149   15.4693  -32.1132 H   0  0  0  0  0  0  0  0  0  0  0  0
   -2.4206   14.5367  -33.3610 H   0  0  0  0  0  0  0  0  0  0  0  0
   -2.3527   16.3317  -33.3610 H   0  0  0  0  0  0  0  0  0  0  0  0
   -5.8564   19.1240  -34.0501 H   0  0  0  0  0  0  0  0  0  0  0  0
   -6.7406   17.9389  -34.8301 H   0  0  0  0  0  0  0  0  0  0  0  0
   -5.4334   20.1283  -32.1699 H   0  0  0  0  0  0  0  0  0  0  0  0
   -1.9370   20.6724  -31.4330 H   0  0  0  0  0  0  0  0  0  0  0  0
   -0.8106   19.5278  -29.5316 H   0  0  0  0  0  0  0  0  0  0  0  0
  1  2  1  0
  2  3  1  0
  3  4  1  0
  4  5  2  0
  4  6  1  0
  6  7  2  0
  7  8  1  0
  8  9  2  0
  9 10  1  0
 10 11  2  0
 10 12  1  0
 12 13  1  0
 13 14  1  0
 14 15  1  0
 14 16  2  0
 13 17  2  0
 17 18  1  0
 18 19  2  0
 19 20  1  0
 20 21  2  0
 21 22  1  0
 22 23  1  0
 23 24  1  0
 24 25  1  0
 25 26  1  0
 26 27  1  0
 26 28  2  0
 26 29  2  0
 24 30  1  0
 21 31  1  0
 31 32  2  0
  9 33  1  0
 33 34  2  0
 34  6  1  0
 32 12  1  0
 32 18  1  0
 30 22  1  0
  1 35  1  0
  1 36  1  0
  1 37  1  0
  2 38  1  0
  2 39  1  0
  7 40  1  0
  8 41  1  0
 15 42  1  0
 17 43  1  0
 19 44  1  0
 20 45  1  0
 22 46  1  6
 23 47  1  0
 23 48  1  0
 24 49  1  1
 25 50  1  0
 27 51  1  0
 27 52  1  0
 27 53  1  0
 30 54  1  0
 30 55  1  0
 31 56  1  0
 33 57  1  0
 34 58  1  0
M  CHG  1  15  -1
M  END
>  <UniqueID>  (51) 
51

>  <SMILES>  (51) 
CCOC(=O)c1ccc(C(=O)n2c(C([NH-])=O)cc3ccc(C4CC(NS(C)(=O)=O)C4)cc32)cc1

>  <Energy>  (51) 
155.373712950008

>  <Genealogy>  (51) 
CCOC(=O)c1ccc(C(=O)n2c(C([NH-])=O)cc3ccc(C4CC(NS(C)(=O)=O)C4)cc32)cc1 (protonated)
CCOC(=O)c1ccc(C(=O)n2c(C([NH-])=O)cc3ccc(C4CC(NS(C)(=O)=O)C4)cc32)cc1 (3D coordinates assigned)
CCOC(=O)c1ccc(C(=O)n2c(C([NH-])=O)cc3ccc(C4CC(NS(C)(=O)=O)C4)cc32)cc1 (nonaromatic ring conformer: 155.373712950008 kcal/mol)

>  <smiles>  (51) 
CCOC(=O)c1ccc(C(=O)n2c(C(N)=O)cc3ccc(C4CC(NS(C)(=O)=O)C4)cc32)cc1

>  <score_type>  (51) 
oracle

>  <origin>  (51) 
adg

>  <m_score__min__energy>  (51) 
-13.109999999999999

>  <m_primary>  (51) 
energy

$$$$
51:0
     RDKit          3D

 40 42  0  0  0  0  0  0  0  0999 V2000
   -4.2430   25.6730  -30.5670 N   0  0  0  0  0  0  0  0  0  0  0  0
   -5.5510   25.1790  -30.2930 C   0  0  0  0  0  0  0  0  0  0  0  0
   -6.3530   25.8890  -29.6280 O   0  0  0  0  0  0  0  0  0  0  0  0
   -5.9950   23.8720  -30.8190 C   0  0  0  0  0  0  0  0  0  0  0  0
   -7.3240   23.5730  -31.1150 C   0  0  0  0  0  0  0  0  0  0  0  0
   -7.3000   22.3170  -31.6750 C   0  0  0  0  0  0  0  0  0  0  0  0
   -8.3390   21.5320  -32.1610 C   0  0  0  0  0  0  0  0  0  0  0  0
   -8.0220   20.2650  -32.6800 C   0  0  0  0  0  0  0  0  0  0  0  0
   -6.6790   19.8030  -32.7020 C   0  0  0  0  0  0  0  0  0  0  0  0
   -6.3550   18.4600  -33.2470 C   0  0  0  0  0  0  0  0  0  0  0  0
   -7.1560   17.3470  -32.9400 C   0  0  0  0  0  0  0  0  0  0  0  0
   -6.8530   16.1220  -33.4490 N   0  0  0  0  0  0  0  0  0  0  0  0
   -5.7790   15.9260  -34.2580 C   0  0  0  0  0  0  0  0  0  0  0  0
   -4.9490   17.0020  -34.5930 C   0  0  0  0  0  0  0  0  0  0  0  0
   -3.8120   16.8040  -35.4400 N   0  0  0  0  0  0  0  0  0  0  0  0
   -5.2430   18.2730  -34.0850 C   0  0  0  0  0  0  0  0  0  0  0  0
   -5.6510   20.6340  -32.1970 C   0  0  0  0  0  0  0  0  0  0  0  0
   -5.9970   21.8920  -31.6960 C   0  0  0  0  0  0  0  0  0  0  0  0
   -5.1850   22.8320  -31.1670 N   0  0  0  0  0  0  0  0  0  0  0  0
   -3.7690   22.7050  -30.9650 C   0  0  0  0  0  0  0  0  0  0  0  0
   -2.9910   22.7530  -31.9550 O   0  0  0  0  0  0  0  0  0  0  0  0
   -3.2080   22.4320  -29.5960 C   0  0  0  0  0  0  0  0  0  0  0  0
   -2.9660   23.7270  -28.8130 C   0  0  0  0  0  0  0  0  0  0  0  0
   -1.6540   24.3550  -29.1780 C   0  0  0  0  0  0  0  0  0  0  0  0
   -1.5710   25.6000  -29.3390 O   0  0  0  0  0  0  0  0  0  0  0  0
   -0.5260   23.5620  -29.3480 O   0  0  0  0  0  0  0  0  0  0  0  0
   -3.5060   25.6780  -29.8280 H   0  0  0  0  0  0  0  0  0  0  0  0
   -8.2052   24.2072  -30.9382 H   0  0  0  0  0  0  0  0  0  0  0  0
   -9.3783   21.8917  -32.1400 H   0  0  0  0  0  0  0  0  0  0  0  0
   -8.8238   19.6232  -33.0740 H   0  0  0  0  0  0  0  0  0  0  0  0
   -8.0318   17.4666  -32.2853 H   0  0  0  0  0  0  0  0  0  0  0  0
   -5.5618   14.9213  -34.6498 H   0  0  0  0  0  0  0  0  0  0  0  0
   -3.9220   16.7440  -36.4770 H   0  0  0  0  0  0  0  0  0  0  0  0
   -2.8540   16.7170  -35.0350 H   0  0  0  0  0  0  0  0  0  0  0  0
   -4.6011   19.1282  -34.3429 H   0  0  0  0  0  0  0  0  0  0  0  0
   -4.6037   20.2976  -32.1987 H   0  0  0  0  0  0  0  0  0  0  0  0
   -3.9195   21.8058  -29.0378 H   0  0  0  0  0  0  0  0  0  0  0  0
   -2.2422   21.9197  -29.7175 H   0  0  0  0  0  0  0  0  0  0  0  0
   -3.7762   24.4365  -29.0371 H   0  0  0  0  0  0  0  0  0  0  0  0
   -2.9441   23.4822  -27.7408 H   0  0  0  0  0  0  0  0  0  0  0  0
  1  2  1  0
  2  3  2  0
  2  4  1  0
  4  5  2  0
  5  6  1  0
  6  7  2  0
  7  8  1  0
  8  9  2  0
  9 10  1  0
 10 11  2  0
 11 12  1  0
 12 13  2  0
 13 14  1  0
 14 15  1  0
 14 16  2  0
  9 17  1  0
 17 18  2  0
 18 19  1  0
 19 20  1  0
 20 21  2  0
 20 22  1  0
 22 23  1  0
 23 24  1  0
 24 25  2  0
 24 26  1  0
 19  4  1  0
 18  6  1  0
 16 10  1  0
  1 27  1  0
  5 28  1  0
  7 29  1  0
  8 30  1  0
 11 31  1  0
 13 32  1  0
 15 33  1  0
 15 34  1  0
 16 35  1  0
 17 36  1  0
 22 37  1  0
 22 38  1  0
 23 39  1  0
 23 40  1  0
M  CHG  2   1  -1  26  -1
M  END
>  <UniqueID>  (52) 
52

>  <SMILES>  (52) 
[NH-]C(=O)c1cc2ccc(-c3cncc(N)c3)cc2n1C(=O)CCC(=O)[O-]

>  <Energy>  (52) 
83.07651566613514

>  <Genealogy>  (52) 
[NH-]C(=O)c1cc2ccc(-c3cncc(N)c3)cc2n1C(=O)CCC(=O)[O-] (protonated)
[NH-]C(=O)c1cc2ccc(-c3cncc(N)c3)cc2n1C(=O)CCC(=O)[O-] (3D coordinates assigned)
[NH-]C(=O)c1cc2ccc(-c3cncc(N)c3)cc2n1C(=O)CCC(=O)[O-] (optimized conformer: 83.07651566613514 kcal/mol)

>  <smiles>  (52) 
NC(=O)c1cc2ccc(-c3cncc(N)c3)cc2n1C(=O)CCC(=O)O

>  <score_type>  (52) 
oracle

>  <origin>  (52) 
adg

>  <m_score__min__energy>  (52) 
-13.35

>  <m_primary>  (52) 
energy

$$$$
52:0
     RDKit          3D

 35 36  0  0  0  0  0  0  0  0999 V2000
   -3.8730   23.3280  -28.0680 C   0  0  0  0  0  0  0  0  0  0  0  0
   -3.0370   22.4970  -29.0330 C   0  0  0  0  0  0  0  0  0  0  0  0
   -2.9700   23.1250  -30.3110 O   0  0  0  0  0  0  0  0  0  0  0  0
   -3.7480   22.7300  -31.4070 C   0  0  0  0  0  0  0  0  0  0  0  0
   -3.2110   22.1710  -32.4020 O   0  0  0  0  0  0  0  0  0  0  0  0
   -5.1670   22.9460  -31.3890 N   0  0  0  0  0  0  0  0  0  0  0  0
   -5.8380   24.0310  -30.9060 C   0  0  0  0  0  0  0  0  0  0  0  0
   -5.2280   25.3000  -30.4580 C   0  0  0  0  0  0  0  0  0  0  0  0
   -3.9100   25.6630  -30.8610 N   0  0  0  0  0  0  0  0  0  0  0  0
   -5.8980   26.0970  -29.7490 O   0  0  0  0  0  0  0  0  0  0  0  0
   -7.2140   23.8190  -30.9620 C   0  0  0  0  0  0  0  0  0  0  0  0
   -7.3680   22.5640  -31.5060 C   0  0  0  0  0  0  0  0  0  0  0  0
   -8.5260   21.8390  -31.7690 C   0  0  0  0  0  0  0  0  0  0  0  0
   -8.3880   20.5460  -32.2990 C   0  0  0  0  0  0  0  0  0  0  0  0
   -7.1020   20.0060  -32.5570 C   0  0  0  0  0  0  0  0  0  0  0  0
   -6.9650   18.6000  -33.0790 C   0  0  0  0  0  0  0  0  0  0  0  0
   -5.7520   18.4830  -34.0040 C   0  0  0  0  0  0  0  0  0  0  0  0
   -6.0950   18.8740  -35.3050 O   0  0  0  0  0  0  0  0  0  0  0  0
   -5.9490   20.7670  -32.2650 C   0  0  0  0  0  0  0  0  0  0  0  0
   -6.1170   22.0580  -31.7540 C   0  0  0  0  0  0  0  0  0  0  0  0
   -3.6083   23.0649  -27.0333 H   0  0  0  0  0  0  0  0  0  0  0  0
   -3.6740   24.3966  -28.2370 H   0  0  0  0  0  0  0  0  0  0  0  0
   -4.9404   23.1226  -28.2370 H   0  0  0  0  0  0  0  0  0  0  0  0
   -2.0193   22.3901  -28.6294 H   0  0  0  0  0  0  0  0  0  0  0  0
   -3.5074   21.5094  -29.1484 H   0  0  0  0  0  0  0  0  0  0  0  0
   -3.0740   25.2940  -30.3570 H   0  0  0  0  0  0  0  0  0  0  0  0
   -8.0085   24.5082  -30.6399 H   0  0  0  0  0  0  0  0  0  0  0  0
   -9.5197   22.2658  -31.5678 H   0  0  0  0  0  0  0  0  0  0  0  0
   -9.2847   19.9469  -32.5159 H   0  0  0  0  0  0  0  0  0  0  0  0
   -6.8405   17.9104  -32.2311 H   0  0  0  0  0  0  0  0  0  0  0  0
   -7.8705   18.3442  -33.6487 H   0  0  0  0  0  0  0  0  0  0  0  0
   -4.9463   19.1320  -33.6302 H   0  0  0  0  0  0  0  0  0  0  0  0
   -5.4141   17.4363  -34.0215 H   0  0  0  0  0  0  0  0  0  0  0  0
   -6.9610   19.3550  -35.2380 H   0  0  0  0  0  0  0  0  0  0  0  0
   -4.9435   20.3547  -32.4352 H   0  0  0  0  0  0  0  0  0  0  0  0
  1  2  1  0
  2  3  1  0
  3  4  1  0
  4  5  2  0
  4  6  1  0
  6  7  1  0
  7  8  1  0
  8  9  1  0
  8 10  2  0
  7 11  2  0
 11 12  1  0
 12 13  2  0
 13 14  1  0
 14 15  2  0
 15 16  1  0
 16 17  1  0
 17 18  1  0
 15 19  1  0
 19 20  2  0
 20  6  1  0
 20 12  1  0
  1 21  1  0
  1 22  1  0
  1 23  1  0
  2 24  1  0
  2 25  1  0
  9 26  1  0
 11 27  1  0
 13 28  1  0
 14 29  1  0
 16 30  1  0
 16 31  1  0
 17 32  1  0
 17 33  1  0
 18 34  1  0
 19 35  1  0
M  CHG  1   9  -1
M  END
>  <UniqueID>  (53) 
53

>  <SMILES>  (53) 
CCOC(=O)n1c(C([NH-])=O)cc2ccc(CCO)cc21

>  <Energy>  (53) 
67.24282674794144

>  <Genealogy>  (53) 
CCOC(=O)n1c(C([NH-])=O)cc2ccc(CCO)cc21 (protonated)
CCOC(=O)n1c(C([NH-])=O)cc2ccc(CCO)cc21 (3D coordinates assigned)
CCOC(=O)n1c(C([NH-])=O)cc2ccc(CCO)cc21 (optimized conformer: 67.24282674794144 kcal/mol)

>  <smiles>  (53) 
CCOC(=O)n1c(C(N)=O)cc2ccc(CCO)cc21

>  <score_type>  (53) 
oracle

>  <origin>  (53) 
adg

>  <m_score__min__energy>  (53) 
-9.75

>  <m_primary>  (53) 
energy

$$$$
53:0
     RDKit          3D

 38 40  0  0  0  0  0  0  0  0999 V2000
   -3.4800   13.7880  -32.5980 C   0  0  0  0  0  0  0  0  0  0  0  0
   -4.1050   13.9000  -33.8700 O   0  0  0  0  0  0  0  0  0  0  0  0
   -4.0490   15.0690  -34.6380 C   0  0  0  0  0  0  0  0  0  0  0  0
   -3.4990   15.0510  -35.7740 O   0  0  0  0  0  0  0  0  0  0  0  0
   -4.6340   16.3240  -34.1160 C   0  0  0  0  0  0  0  0  0  0  0  0
   -5.5940   16.2970  -33.0900 C   0  0  0  0  0  0  0  0  0  0  0  0
   -6.1430   17.4850  -32.6000 C   0  0  0  0  0  0  0  0  0  0  0  0
   -5.7420   18.7260  -33.1230 C   0  0  0  0  0  0  0  0  0  0  0  0
   -6.3250   19.9890  -32.6010 C   0  0  0  0  0  0  0  0  0  0  0  0
   -7.7240   20.2160  -32.6740 C   0  0  0  0  0  0  0  0  0  0  0  0
   -8.2840   21.4120  -32.1960 C   0  0  0  0  0  0  0  0  0  0  0  0
   -7.4290   22.3590  -31.6440 C   0  0  0  0  0  0  0  0  0  0  0  0
   -7.7050   23.6040  -31.1300 C   0  0  0  0  0  0  0  0  0  0  0  0
   -6.4740   24.1180  -30.7240 C   0  0  0  0  0  0  0  0  0  0  0  0
   -6.3120   25.4130  -30.0260 C   0  0  0  0  0  0  0  0  0  0  0  0
   -5.3400   26.3620  -30.4660 N   0  0  0  0  0  0  0  0  0  0  0  0
   -7.0540   25.7030  -29.0510 O   0  0  0  0  0  0  0  0  0  0  0  0
   -5.4760   23.2240  -30.9810 N   0  0  0  0  0  0  0  0  0  0  0  0
   -4.0660   23.4000  -30.7670 C   0  0  0  0  0  0  0  0  0  0  0  0
   -3.3270   22.4050  -30.5440 O   0  0  0  0  0  0  0  0  0  0  0  0
   -3.5040   24.6700  -30.7920 O   0  0  0  0  0  0  0  0  0  0  0  0
   -6.0780   22.1530  -31.5440 C   0  0  0  0  0  0  0  0  0  0  0  0
   -5.4890   20.9800  -32.0300 C   0  0  0  0  0  0  0  0  0  0  0  0
   -4.7810   18.7530  -34.1480 C   0  0  0  0  0  0  0  0  0  0  0  0
   -4.2330   17.5640  -34.6400 C   0  0  0  0  0  0  0  0  0  0  0  0
   -4.2322   13.9228  -31.8067 H   0  0  0  0  0  0  0  0  0  0  0  0
   -3.0205   12.7932  -32.5015 H   0  0  0  0  0  0  0  0  0  0  0  0
   -2.7037   14.5613  -32.5015 H   0  0  0  0  0  0  0  0  0  0  0  0
   -5.9159   15.3330  -32.6692 H   0  0  0  0  0  0  0  0  0  0  0  0
   -6.8953   17.4483  -31.7983 H   0  0  0  0  0  0  0  0  0  0  0  0
   -8.3775   19.4461  -33.1101 H   0  0  0  0  0  0  0  0  0  0  0  0
   -9.3671   21.5940  -32.2566 H   0  0  0  0  0  0  0  0  0  0  0  0
   -8.6883   24.0912  -31.0550 H   0  0  0  0  0  0  0  0  0  0  0  0
   -5.2610   27.2890  -29.9910 H   0  0  0  0  0  0  0  0  0  0  0  0
   -4.6690   26.1370  -31.2340 H   0  0  0  0  0  0  0  0  0  0  0  0
   -4.4008   20.8309  -31.9699 H   0  0  0  0  0  0  0  0  0  0  0  0
   -4.4571   19.7172  -34.5668 H   0  0  0  0  0  0  0  0  0  0  0  0
   -3.4824   17.6002  -35.4433 H   0  0  0  0  0  0  0  0  0  0  0  0
  1  2  1  0
  2  3  1  0
  3  4  2  0
  3  5  1  0
  5  6  2  0
  6  7  1  0
  7  8  2  0
  8  9  1  0
  9 10  2  0
 10 11  1  0
 11 12  2  0
 12 13  1  0
 13 14  2  0
 14 15  1  0
 15 16  1  0
 15 17  2  0
 14 18  1  0
 18 19  1  0
 19 20  2  0
 19 21  1  0
 18 22  1  0
 22 23  2  0
  8 24  1  0
 24 25  2  0
 25  5  1  0
 23  9  1  0
 22 12  1  0
  1 26  1  0
  1 27  1  0
  1 28  1  0
  6 29  1  0
  7 30  1  0
 10 31  1  0
 11 32  1  0
 13 33  1  0
 16 34  1  0
 16 35  1  0
 23 36  1  0
 24 37  1  0
 25 38  1  0
M  CHG  1  21  -1
M  END
>  <UniqueID>  (54) 
54

>  <SMILES>  (54) 
COC(=O)c1ccc(-c2ccc3cc(C(N)=O)n(C(=O)[O-])c3c2)cc1

>  <Energy>  (54) 
83.58170978631775

>  <Genealogy>  (54) 
COC(=O)c1ccc(-c2ccc3cc(C(N)=O)n(C(=O)[O-])c3c2)cc1 (protonated)
COC(=O)c1ccc(-c2ccc3cc(C(N)=O)n(C(=O)[O-])c3c2)cc1 (3D coordinates assigned)
COC(=O)c1ccc(-c2ccc3cc(C(N)=O)n(C(=O)[O-])c3c2)cc1 (optimized conformer: 83.58170978631775 kcal/mol)

>  <smiles>  (54) 
COC(=O)c1ccc(-c2ccc3cc(C(N)=O)n(C(=O)O)c3c2)cc1

>  <score_type>  (54) 
oracle

>  <origin>  (54) 
adg

>  <m_score__min__energy>  (54) 
-9.2400000000000002

>  <m_primary>  (54) 
energy

$$$$
54:0
     RDKit          3D

 44 46  0  0  0  0  0  0  0  0999 V2000
   -5.1520   19.4460  -33.9390 C   0  0  0  0  0  0  0  0  0  0  0  0
   -5.2470   19.9530  -32.5660 N   0  0  0  0  0  0  0  0  0  0  0  0
   -6.4990   19.7680  -31.8140 C   0  0  0  0  0  0  0  0  0  0  0  0
   -7.6530   20.6400  -32.3590 C   0  0  0  0  0  0  0  0  0  0  0  0
   -7.7020   22.0470  -31.8940 N   0  0  0  0  0  0  0  0  0  0  0  0
   -7.5130   22.3060  -30.4670 C   0  0  0  0  0  0  0  0  0  0  0  0
   -7.2010   23.7850  -30.3640 C   0  0  0  0  0  0  0  0  0  0  0  0
   -6.4910   24.1140  -31.6670 C   0  0  0  0  0  0  0  0  0  0  0  0
   -6.8600   22.9900  -32.6330 C   0  0  0  0  0  0  0  0  0  0  0  0
   -4.0750   20.5170  -31.9390 C   0  0  0  0  0  0  0  0  0  0  0  0
   -2.8570   19.7870  -31.9120 C   0  0  0  0  0  0  0  0  0  0  0  0
   -1.7080   20.3260  -31.3130 C   0  0  0  0  0  0  0  0  0  0  0  0
   -1.8000   21.5910  -30.7450 C   0  0  0  0  0  0  0  0  0  0  0  0
   -0.8520   22.3330  -30.0780 C   0  0  0  0  0  0  0  0  0  0  0  0
   -1.4970   23.5110  -29.7080 C   0  0  0  0  0  0  0  0  0  0  0  0
   -0.8110   24.6350  -29.0370 C   0  0  0  0  0  0  0  0  0  0  0  0
   -1.4140   25.9240  -28.9620 N   0  0  0  0  0  0  0  0  0  0  0  0
    0.3460   24.4680  -28.5680 O   0  0  0  0  0  0  0  0  0  0  0  0
   -2.7970   23.4940  -30.1210 N   0  0  0  0  0  0  0  0  0  0  0  0
   -3.8150   24.4750  -29.8700 C   0  0  0  0  0  0  0  0  0  0  0  0
   -3.8600   25.5350  -30.5510 O   0  0  0  0  0  0  0  0  0  0  0  0
   -4.7460   24.2790  -28.8570 O   0  0  0  0  0  0  0  0  0  0  0  0
   -2.9650   22.3130  -30.7570 C   0  0  0  0  0  0  0  0  0  0  0  0
   -4.1310   21.7920  -31.3280 C   0  0  0  0  0  0  0  0  0  0  0  0
   -4.9494   18.3650  -33.9175 H   0  0  0  0  0  0  0  0  0  0  0  0
   -6.1004   19.6310  -34.4646 H   0  0  0  0  0  0  0  0  0  0  0  0
   -4.3349   19.9618  -34.4646 H   0  0  0  0  0  0  0  0  0  0  0  0
   -6.7956   18.7107  -31.8779 H   0  0  0  0  0  0  0  0  0  0  0  0
   -6.3119   20.0742  -30.7742 H   0  0  0  0  0  0  0  0  0  0  0  0
   -7.5706   20.6542  -33.4558 H   0  0  0  0  0  0  0  0  0  0  0  0
   -8.5727   20.1761  -31.9731 H   0  0  0  0  0  0  0  0  0  0  0  0
   -8.4294   22.0662  -29.9077 H   0  0  0  0  0  0  0  0  0  0  0  0
   -6.7084   21.6878  -30.0423 H   0  0  0  0  0  0  0  0  0  0  0  0
   -8.1262   24.3719  -30.2660 H   0  0  0  0  0  0  0  0  0  0  0  0
   -6.5891   24.0237  -29.4816 H   0  0  0  0  0  0  0  0  0  0  0  0
   -6.8347   25.0834  -32.0571 H   0  0  0  0  0  0  0  0  0  0  0  0
   -5.4024   24.1898  -31.5286 H   0  0  0  0  0  0  0  0  0  0  0  0
   -7.4135   23.3971  -33.4920 H   0  0  0  0  0  0  0  0  0  0  0  0
   -5.9578   22.4917  -33.0172 H   0  0  0  0  0  0  0  0  0  0  0  0
   -2.8137   18.7862  -32.3665 H   0  0  0  0  0  0  0  0  0  0  0  0
   -0.7627   19.7639  -31.2937 H   0  0  0  0  0  0  0  0  0  0  0  0
    0.1935   22.0548  -29.8792 H   0  0  0  0  0  0  0  0  0  0  0  0
   -2.4530   26.0310  -28.9630 H   0  0  0  0  0  0  0  0  0  0  0  0
   -5.0717   22.3616  -31.3025 H   0  0  0  0  0  0  0  0  0  0  0  0
  1  2  1  0
  2  3  1  0
  3  4  1  0
  4  5  1  0
  5  6  1  0
  6  7  1  0
  7  8  1  0
  8  9  1  0
  2 10  1  0
 10 11  2  0
 11 12  1  0
 12 13  2  0
 13 14  1  0
 14 15  2  0
 15 16  1  0
 16 17  1  0
 16 18  2  0
 15 19  1  0
 19 20  1  0
 20 21  2  0
 20 22  1  0
 19 23  1  0
 23 24  2  0
  9  5  1  0
 24 10  1  0
 23 13  1  0
  1 25  1  0
  1 26  1  0
  1 27  1  0
  3 28  1  0
  3 29  1  0
  4 30  1  0
  4 31  1  0
  6 32  1  0
  6 33  1  0
  7 34  1  0
  7 35  1  0
  8 36  1  0
  8 37  1  0
  9 38  1  0
  9 39  1  0
 11 40  1  0
 12 41  1  0
 14 42  1  0
 17 43  1  0
 24 44  1  0
M  CHG  2  17  -1  22  -1
M  END
>  <UniqueID>  (55) 
55

>  <SMILES>  (55) 
CN(CCN1CCCC1)c1ccc2cc(C([NH-])=O)n(C(=O)[O-])c2c1

>  <Energy>  (55) 
94.43944754196401

>  <Genealogy>  (55) 
CN(CCN1CCCC1)c1ccc2cc(C([NH-])=O)n(C(=O)[O-])c2c1 (protonated)
CN(CCN1CCCC1)c1ccc2cc(C([NH-])=O)n(C(=O)[O-])c2c1 (3D coordinates assigned)
CN(CCN1CCCC1)c1ccc2cc(C([NH-])=O)n(C(=O)[O-])c2c1 (nonaromatic ring conformer: 94.43944754196401 kcal/mol)

>  <smiles>  (55) 
CN(CCN1CCCC1)c1ccc2cc(C(N)=O)n(C(=O)O)c2c1

>  <score_type>  (55) 
oracle

>  <origin>  (55) 
adg

>  <m_score__min__energy>  (55) 
-11.94

>  <m_primary>  (55) 
energy

$$$$
55:0
     RDKit          3D

 34 36  0  0  0  0  0  0  0  0999 V2000
   -1.4210   26.0350  -28.9690 N   0  0  0  0  0  0  0  0  0  0  0  0
   -0.8000   24.7510  -28.9510 C   0  0  0  0  0  0  0  0  0  0  0  0
    0.2610   24.5890  -28.2950 O   0  0  0  0  0  0  0  0  0  0  0  0
   -1.4300   23.6200  -29.6640 C   0  0  0  0  0  0  0  0  0  0  0  0
   -0.7420   22.4650  -30.0290 C   0  0  0  0  0  0  0  0  0  0  0  0
   -1.6490   21.7130  -30.7420 C   0  0  0  0  0  0  0  0  0  0  0  0
   -1.5030   20.4650  -31.3280 C   0  0  0  0  0  0  0  0  0  0  0  0
   -2.6140   19.9050  -31.9800 C   0  0  0  0  0  0  0  0  0  0  0  0
   -3.8650   20.5920  -32.0400 C   0  0  0  0  0  0  0  0  0  0  0  0
   -5.0200   19.9980  -32.7120 N   0  0  0  0  0  0  0  0  0  0  0  0
   -4.8020   18.9580  -33.7400 C   0  0  0  0  0  0  0  0  0  0  0  0
   -6.0920   18.4850  -34.4170 C   0  0  0  0  0  0  0  0  0  0  0  0
   -7.1480   18.4050  -33.4910 O   0  0  0  0  0  0  0  0  0  0  0  0
   -7.4920   19.7120  -33.0980 C   0  0  0  0  0  0  0  0  0  0  0  0
   -6.3810   20.3400  -32.2510 C   0  0  0  0  0  0  0  0  0  0  0  0
   -3.9580   21.8680  -31.4130 C   0  0  0  0  0  0  0  0  0  0  0  0
   -2.8270   22.4050  -30.7880 C   0  0  0  0  0  0  0  0  0  0  0  0
   -2.7120   23.5800  -30.1280 N   0  0  0  0  0  0  0  0  0  0  0  0
   -3.7560   24.5430  -29.9060 C   0  0  0  0  0  0  0  0  0  0  0  0
   -4.5570   24.4020  -28.9450 O   0  0  0  0  0  0  0  0  0  0  0  0
   -3.8760   25.6510  -30.7360 O   0  0  0  0  0  0  0  0  0  0  0  0
   -0.9730   26.8410  -29.4590 H   0  0  0  0  0  0  0  0  0  0  0  0
    0.3023   22.2085  -29.7973 H   0  0  0  0  0  0  0  0  0  0  0  0
   -0.5438   19.9283  -31.2836 H   0  0  0  0  0  0  0  0  0  0  0  0
   -2.5187   18.9170  -32.4542 H   0  0  0  0  0  0  0  0  0  0  0  0
   -4.1338   19.3670  -34.5122 H   0  0  0  0  0  0  0  0  0  0  0  0
   -4.3672   18.0860  -33.2295 H   0  0  0  0  0  0  0  0  0  0  0  0
   -6.3631   19.1964  -35.2110 H   0  0  0  0  0  0  0  0  0  0  0  0
   -5.9194   17.4838  -34.8386 H   0  0  0  0  0  0  0  0  0  0  0  0
   -7.6517   20.3274  -33.9956 H   0  0  0  0  0  0  0  0  0  0  0  0
   -8.4103   19.6665  -32.4941 H   0  0  0  0  0  0  0  0  0  0  0  0
   -6.4947   21.4336  -32.2841 H   0  0  0  0  0  0  0  0  0  0  0  0
   -6.4865   19.9387  -31.2323 H   0  0  0  0  0  0  0  0  0  0  0  0
   -4.9071   22.4241  -31.4201 H   0  0  0  0  0  0  0  0  0  0  0  0
  1  2  1  0
  2  3  2  0
  2  4  1  0
  4  5  2  0
  5  6  1  0
  6  7  2  0
  7  8  1  0
  8  9  2  0
  9 10  1  0
 10 11  1  0
 11 12  1  0
 12 13  1  0
 13 14  1  0
 14 15  1  0
  9 16  1  0
 16 17  2  0
 17 18  1  0
 18 19  1  0
 19 20  2  0
 19 21  1  0
 18  4  1  0
 17  6  1  0
 15 10  1  0
  1 22  1  0
  5 23  1  0
  7 24  1  0
  8 25  1  0
 11 26  1  0
 11 27  1  0
 12 28  1  0
 12 29  1  0
 14 30  1  0
 14 31  1  0
 15 32  1  0
 15 33  1  0
 16 34  1  0
M  CHG  2   1  -1  21  -1
M  END
>  <UniqueID>  (56) 
56

>  <SMILES>  (56) 
[NH-]C(=O)c1cc2ccc(N3CCOCC3)cc2n1C(=O)[O-]

>  <Energy>  (56) 
82.8787298684865

>  <Genealogy>  (56) 
[NH-]C(=O)c1cc2ccc(N3CCOCC3)cc2n1C(=O)[O-] (protonated)
[NH-]C(=O)c1cc2ccc(N3CCOCC3)cc2n1C(=O)[O-] (3D coordinates assigned)
[NH-]C(=O)c1cc2ccc(N3CCOCC3)cc2n1C(=O)[O-] (nonaromatic ring conformer: 82.8787298684865 kcal/mol)

>  <smiles>  (56) 
NC(=O)c1cc2ccc(N3CCOCC3)cc2n1C(=O)O

>  <score_type>  (56) 
oracle

>  <origin>  (56) 
adg

>  <m_score__min__energy>  (56) 
-10.970000000000001

>  <m_primary>  (56) 
energy

$$$$
56:0
     RDKit          3D

 62 63  0  0  0  0  0  0  0  0999 V2000
   -2.5480   24.9140  -26.7880 C   0  0  0  0  0  0  0  0  0  0  0  0
   -1.4520   25.0340  -27.8630 C   0  0  0  0  0  0  0  0  0  0  0  0
   -0.5580   26.2380  -27.5290 C   0  0  0  0  0  0  0  0  0  0  0  0
   -0.5810   23.7620  -27.8970 C   0  0  0  0  0  0  0  0  0  0  0  0
   -2.0330   25.2820  -29.1530 O   0  0  0  0  0  0  0  0  0  0  0  0
   -3.1580   24.6430  -29.6930 C   0  0  0  0  0  0  0  0  0  0  0  0
   -3.5460   23.5270  -29.2560 O   0  0  0  0  0  0  0  0  0  0  0  0
   -3.8690   25.2850  -30.7540 N   0  0  0  0  0  0  0  0  0  0  0  0
   -5.3260   25.3360  -30.8400 C   0  0  0  0  0  0  0  0  0  0  0  0
   -5.8990   24.0460  -31.4420 C   0  0  0  0  0  0  0  0  0  0  0  0
   -7.3410   23.7640  -30.9930 C   0  0  0  0  0  0  0  0  0  0  0  0
   -8.0650   22.9720  -31.9900 N   0  0  0  0  0  0  0  0  0  0  0  0
   -7.9940   21.5380  -32.1100 C   0  0  0  0  0  0  0  0  0  0  0  0
   -9.1020   20.7040  -31.7970 C   0  0  0  0  0  0  0  0  0  0  0  0
   -9.0000   19.3070  -31.9020 C   0  0  0  0  0  0  0  0  0  0  0  0
   -7.7880   18.7690  -32.3230 C   0  0  0  0  0  0  0  0  0  0  0  0
   -7.4110   17.4560  -32.4850 C   0  0  0  0  0  0  0  0  0  0  0  0
   -6.0860   17.5020  -32.9140 C   0  0  0  0  0  0  0  0  0  0  0  0
   -5.2990   16.3090  -33.3000 C   0  0  0  0  0  0  0  0  0  0  0  0
   -4.5080   16.3100  -34.4900 N   0  0  0  0  0  0  0  0  0  0  0  0
   -5.2970   15.2860  -32.5660 O   0  0  0  0  0  0  0  0  0  0  0  0
   -5.6620   18.7940  -33.0090 N   0  0  0  0  0  0  0  0  0  0  0  0
   -4.3550   19.2680  -33.3700 C   0  0  0  0  0  0  0  0  0  0  0  0
   -3.9290   19.0920  -34.5440 O   0  0  0  0  0  0  0  0  0  0  0  0
   -3.5640   19.9080  -32.4040 O   0  0  0  0  0  0  0  0  0  0  0  0
   -2.9040   21.1730  -32.5440 C   0  0  0  0  0  0  0  0  0  0  0  0
   -1.6770   21.0440  -33.4650 C   0  0  0  0  0  0  0  0  0  0  0  0
   -2.4320   21.5940  -31.1440 C   0  0  0  0  0  0  0  0  0  0  0  0
   -3.8800   22.2380  -33.0820 C   0  0  0  0  0  0  0  0  0  0  0  0
   -6.7150   19.5570  -32.6430 C   0  0  0  0  0  0  0  0  0  0  0  0
   -6.7810   20.9490  -32.5290 C   0  0  0  0  0  0  0  0  0  0  0  0
   -2.0893   24.9642  -25.7895 H   0  0  0  0  0  0  0  0  0  0  0  0
   -3.2666   25.7388  -26.9033 H   0  0  0  0  0  0  0  0  0  0  0  0
   -3.0711   23.9532  -26.9033 H   0  0  0  0  0  0  0  0  0  0  0  0
   -0.4791   26.3443  -26.4370 H   0  0  0  0  0  0  0  0  0  0  0  0
    0.4437   26.0804  -27.9554 H   0  0  0  0  0  0  0  0  0  0  0  0
   -0.9985   27.1513  -27.9554 H   0  0  0  0  0  0  0  0  0  0  0  0
   -0.3610   23.4407  -26.8682 H   0  0  0  0  0  0  0  0  0  0  0  0
   -1.1214   22.9615  -28.4235 H   0  0  0  0  0  0  0  0  0  0  0  0
    0.3607   23.9764  -28.4235 H   0  0  0  0  0  0  0  0  0  0  0  0
   -5.7392   25.4734  -29.8298 H   0  0  0  0  0  0  0  0  0  0  0  0
   -5.6041   26.1755  -31.4941 H   0  0  0  0  0  0  0  0  0  0  0  0
   -5.8839   24.1337  -32.5384 H   0  0  0  0  0  0  0  0  0  0  0  0
   -5.2749   23.2120  -31.0887 H   0  0  0  0  0  0  0  0  0  0  0  0
   -7.3183   23.2097  -30.0431 H   0  0  0  0  0  0  0  0  0  0  0  0
   -7.8604   24.7259  -30.8708 H   0  0  0  0  0  0  0  0  0  0  0  0
   -8.6940   23.4940  -32.6430 H   0  0  0  0  0  0  0  0  0  0  0  0
  -10.0491   21.1575  -31.4692 H   0  0  0  0  0  0  0  0  0  0  0  0
   -9.8535   18.6573  -31.6585 H   0  0  0  0  0  0  0  0  0  0  0  0
   -8.0252   16.5599  -32.3125 H   0  0  0  0  0  0  0  0  0  0  0  0
   -4.5290   17.1140  -35.1560 H   0  0  0  0  0  0  0  0  0  0  0  0
   -3.9210   15.4800  -34.7300 H   0  0  0  0  0  0  0  0  0  0  0  0
   -0.7678   20.9484  -32.8533 H   0  0  0  0  0  0  0  0  0  0  0  0
   -1.7872   20.1525  -34.0999 H   0  0  0  0  0  0  0  0  0  0  0  0
   -1.5994   21.9389  -34.0999 H   0  0  0  0  0  0  0  0  0  0  0  0
   -3.0247   21.0654  -30.3829 H   0  0  0  0  0  0  0  0  0  0  0  0
   -1.3688   21.3388  -31.0233 H   0  0  0  0  0  0  0  0  0  0  0  0
   -2.5645   22.6793  -31.0233 H   0  0  0  0  0  0  0  0  0  0  0  0
   -4.3567   22.7582  -32.2381 H   0  0  0  0  0  0  0  0  0  0  0  0
   -3.3277   22.9647  -33.6959 H   0  0  0  0  0  0  0  0  0  0  0  0
   -4.6520   21.7511  -33.6959 H   0  0  0  0  0  0  0  0  0  0  0  0
   -5.9053   21.5729  -32.7611 H   0  0  0  0  0  0  0  0  0  0  0  0
  1  2  1  0
  2  3  1  0
  2  4  1  0
  2  5  1  0
  5  6  1  0
  6  7  2  0
  6  8  1  0
  8  9  1  0
  9 10  1  0
 10 11  1  0
 11 12  1  0
 12 13  1  0
 13 14  2  0
 14 15  1  0
 15 16  2  0
 16 17  1  0
 17 18  2  0
 18 19  1  0
 19 20  1  0
 19 21  2  0
 18 22  1  0
 22 23  1  0
 23 24  2  0
 23 25  1  0
 25 26  1  0
 26 27  1  0
 26 28  1  0
 26 29  1  0
 22 30  1  0
 30 31  2  0
 31 13  1  0
 30 16  1  0
  1 32  1  0
  1 33  1  0
  1 34  1  0
  3 35  1  0
  3 36  1  0
  3 37  1  0
  4 38  1  0
  4 39  1  0
  4 40  1  0
  9 41  1  0
  9 42  1  0
 10 43  1  0
 10 44  1  0
 11 45  1  0
 11 46  1  0
 12 47  1  0
 14 48  1  0
 15 49  1  0
 17 50  1  0
 20 51  1  0
 20 52  1  0
 27 53  1  0
 27 54  1  0
 27 55  1  0
 28 56  1  0
 28 57  1  0
 28 58  1  0
 29 59  1  0
 29 60  1  0
 29 61  1  0
 31 62  1  0
M  CHG  1   8  -1
M  END
>  <UniqueID>  (57) 
57

>  <SMILES>  (57) 
CC(C)(C)OC(=O)[N-]CCCNc1ccc2cc(C(N)=O)n(C(=O)OC(C)(C)C)c2c1

>  <Energy>  (57) 
84.49250117217575

>  <Genealogy>  (57) 
CC(C)(C)OC(=O)[N-]CCCNc1ccc2cc(C(N)=O)n(C(=O)OC(C)(C)C)c2c1 (protonated)
CC(C)(C)OC(=O)[N-]CCCNc1ccc2cc(C(N)=O)n(C(=O)OC(C)(C)C)c2c1 (3D coordinates assigned)
CC(C)(C)OC(=O)[N-]CCCNc1ccc2cc(C(N)=O)n(C(=O)OC(C)(C)C)c2c1 (optimized conformer: 84.49250117217575 kcal/mol)

>  <smiles>  (57) 
CC(C)(C)OC(=O)NCCCNc1ccc2cc(C(N)=O)n(C(=O)OC(C)(C)C)c2c1

>  <score_type>  (57) 
oracle

>  <origin>  (57) 
adg

>  <m_score__min__energy>  (57) 
-10.529999999999999

>  <m_primary>  (57) 
energy

$$$$
57:0
     RDKit          3D

 39 42  0  0  0  0  0  0  0  0999 V2000
   -1.5460   26.0440  -28.8940 N   0  0  0  0  0  0  0  0  0  0  0  0
   -0.8240   24.8130  -28.8640 C   0  0  0  0  0  0  0  0  0  0  0  0
    0.2460   24.7420  -28.2050 O   0  0  0  0  0  0  0  0  0  0  0  0
   -1.3620   23.6300  -29.5680 C   0  0  0  0  0  0  0  0  0  0  0  0
   -0.5920   22.5170  -29.8950 C   0  0  0  0  0  0  0  0  0  0  0  0
   -1.4290   21.6940  -30.6130 C   0  0  0  0  0  0  0  0  0  0  0  0
   -1.1870   20.4470  -31.1710 C   0  0  0  0  0  0  0  0  0  0  0  0
   -2.2430   19.8050  -31.8360 C   0  0  0  0  0  0  0  0  0  0  0  0
   -3.5360   20.4050  -31.9370 C   0  0  0  0  0  0  0  0  0  0  0  0
   -4.6310   19.7240  -32.6230 N   0  0  0  0  0  0  0  0  0  0  0  0
   -5.9390   20.4120  -32.7680 C   0  0  0  0  0  0  0  0  0  0  0  0
   -7.0090   19.5400  -33.4660 C   0  0  2  0  0  0  0  0  0  0  0  0
   -7.5100   18.4350  -32.5330 C   0  0  0  0  0  0  0  0  0  0  0  0
   -6.5910   17.2610  -32.8330 C   0  0  0  0  0  0  0  0  0  0  0  0
   -5.6480   17.7980  -33.9120 C   0  0  2  0  0  0  0  0  0  0  0  0
   -4.3790   18.4150  -33.2780 C   0  0  0  0  0  0  0  0  0  0  0  0
   -6.4070   18.8390  -34.5920 N   0  0  0  0  0  0  0  0  0  0  0  0
   -3.7270   21.6820  -31.3370 C   0  0  0  0  0  0  0  0  0  0  0  0
   -2.6490   22.3050  -30.6980 C   0  0  0  0  0  0  0  0  0  0  0  0
   -2.6270   23.4960  -30.0590 N   0  0  0  0  0  0  0  0  0  0  0  0
   -3.7370   24.3920  -29.8790 C   0  0  0  0  0  0  0  0  0  0  0  0
   -4.5940   24.1700  -28.9840 O   0  0  0  0  0  0  0  0  0  0  0  0
   -3.8610   25.5240  -30.6740 O   0  0  0  0  0  0  0  0  0  0  0  0
   -2.5870   26.0530  -28.9670 H   0  0  0  0  0  0  0  0  0  0  0  0
    0.4611   22.3345  -29.6348 H   0  0  0  0  0  0  0  0  0  0  0  0
   -0.1962   19.9753  -31.0944 H   0  0  0  0  0  0  0  0  0  0  0  0
   -2.0715   18.8177  -32.2897 H   0  0  0  0  0  0  0  0  0  0  0  0
   -5.7900   21.3257  -33.3621 H   0  0  0  0  0  0  0  0  0  0  0  0
   -6.3067   20.6345  -31.7554 H   0  0  0  0  0  0  0  0  0  0  0  0
   -7.8259   20.2117  -33.7683 H   0  0  0  0  0  0  0  0  0  0  0  0
   -8.5567   18.1797  -32.7549 H   0  0  0  0  0  0  0  0  0  0  0  0
   -7.4891   18.7312  -31.4738 H   0  0  0  0  0  0  0  0  0  0  0  0
   -7.1648   16.4006  -33.2077 H   0  0  0  0  0  0  0  0  0  0  0  0
   -6.0553   16.9030  -31.9414 H   0  0  0  0  0  0  0  0  0  0  0  0
   -5.3159   16.9990  -34.5912 H   0  0  0  0  0  0  0  0  0  0  0  0
   -3.6273   18.5582  -34.0682 H   0  0  0  0  0  0  0  0  0  0  0  0
   -4.0314   17.7206  -32.4990 H   0  0  0  0  0  0  0  0  0  0  0  0
   -5.7790   19.4710  -35.1450 H   0  0  0  0  0  0  0  0  0  0  0  0
   -4.7105   22.1732  -31.3753 H   0  0  0  0  0  0  0  0  0  0  0  0
  1  2  1  0
  2  3  2  0
  2  4  1  0
  4  5  2  0
  5  6  1  0
  6  7  2  0
  7  8  1  0
  8  9  2  0
  9 10  1  0
 10 11  1  0
 11 12  1  0
 12 13  1  0
 13 14  1  0
 14 15  1  0
 15 16  1  0
 15 17  1  0
  9 18  1  0
 18 19  2  0
 19 20  1  0
 20 21  1  0
 21 22  2  0
 21 23  1  0
 20  4  1  0
 19  6  1  0
 16 10  1  0
 17 12  1  0
  1 24  1  0
  5 25  1  0
  7 26  1  0
  8 27  1  0
 11 28  1  0
 11 29  1  0
 12 30  1  6
 13 31  1  0
 13 32  1  0
 14 33  1  0
 14 34  1  0
 15 35  1  6
 16 36  1  0
 16 37  1  0
 17 38  1  0
 18 39  1  0
M  CHG  2   1  -1  23  -1
M  END
>  <UniqueID>  (58) 
58

>  <SMILES>  (58) 
[NH-]C(=O)c1cc2ccc(N3C[C@H]4CC[C@@H](C3)N4)cc2n1C(=O)[O-]

>  <Energy>  (58) 
94.20714495799331

>  <Genealogy>  (58) 
[NH-]C(=O)c1cc2ccc(N3CC4CCC(C3)N4)cc2n1C(=O)[O-] (protonated)
[NH-]C(=O)c1cc2ccc(N3C[C@H]4CC[C@@H](C3)N4)cc2n1C(=O)[O-] (chirality)
[NH-]C(=O)c1cc2ccc(N3C[C@H]4CC[C@@H](C3)N4)cc2n1C(=O)[O-] (3D coordinates assigned)
[NH-]C(=O)c1cc2ccc(N3C[C@H]4CC[C@@H](C3)N4)cc2n1C(=O)[O-] (nonaromatic ring conformer: 94.20714495799331 kcal/mol)

>  <smiles>  (58) 
NC(=O)c1cc2ccc(N3CC4CCC(C3)N4)cc2n1C(=O)O

>  <score_type>  (58) 
oracle

>  <origin>  (58) 
adg

>  <m_score__min__energy>  (58) 
-11.9

>  <m_primary>  (58) 
energy

$$$$
58:0
     RDKit          3D

 42 43  0  0  0  0  0  0  0  0999 V2000
   -3.0770   23.1230  -28.9620 C   0  0  0  0  0  0  0  0  0  0  0  0
   -3.2160   22.4960  -30.3390 C   0  0  0  0  0  0  0  0  0  0  0  0
   -3.8850   23.4030  -31.2080 O   0  0  0  0  0  0  0  0  0  0  0  0
   -4.6310   24.4890  -30.7390 C   0  0  0  0  0  0  0  0  0  0  0  0
   -4.1850   25.6640  -30.8420 O   0  0  0  0  0  0  0  0  0  0  0  0
   -6.0190   24.2470  -30.2070 C   0  0  1  0  0  0  0  0  0  0  0  0
   -6.4050   25.3290  -29.2990 N   0  0  0  0  0  0  0  0  0  0  0  0
   -7.0290   24.1470  -31.3680 C   0  0  0  0  0  0  0  0  0  0  0  0
   -7.3950   22.7130  -31.6600 C   0  0  0  0  0  0  0  0  0  0  0  0
   -8.6060   22.1740  -31.1590 C   0  0  0  0  0  0  0  0  0  0  0  0
   -8.9080   20.8130  -31.3280 C   0  0  0  0  0  0  0  0  0  0  0  0
   -7.9800   20.0170  -31.9960 C   0  0  0  0  0  0  0  0  0  0  0  0
   -7.9770   18.6590  -32.2120 C   0  0  0  0  0  0  0  0  0  0  0  0
   -6.7730   18.3930  -32.8580 C   0  0  0  0  0  0  0  0  0  0  0  0
   -6.3570   17.0400  -33.2840 C   0  0  0  0  0  0  0  0  0  0  0  0
   -4.9920   16.6250  -33.2080 N   0  0  0  0  0  0  0  0  0  0  0  0
   -7.2140   16.2520  -33.7640 O   0  0  0  0  0  0  0  0  0  0  0  0
   -6.0570   19.5380  -33.0340 N   0  0  0  0  0  0  0  0  0  0  0  0
   -4.7020   19.6460  -33.5040 C   0  0  0  0  0  0  0  0  0  0  0  0
   -3.7540   20.6380  -32.9080 C   0  0  0  0  0  0  0  0  0  0  0  0
   -4.3030   18.9030  -34.4400 O   0  0  0  0  0  0  0  0  0  0  0  0
   -6.8100   20.5260  -32.5000 C   0  0  0  0  0  0  0  0  0  0  0  0
   -6.4830   21.8760  -32.3400 C   0  0  0  0  0  0  0  0  0  0  0  0
   -3.2469   22.3567  -28.1913 H   0  0  0  0  0  0  0  0  0  0  0  0
   -2.0649   23.5387  -28.8489 H   0  0  0  0  0  0  0  0  0  0  0  0
   -3.8186   23.9275  -28.8489 H   0  0  0  0  0  0  0  0  0  0  0  0
   -2.2175   22.2711  -30.7420 H   0  0  0  0  0  0  0  0  0  0  0  0
   -3.7981   21.5659  -30.2613 H   0  0  0  0  0  0  0  0  0  0  0  0
   -6.0225   23.2964  -29.6535 H   0  0  0  0  0  0  0  0  0  0  0  0
   -5.6200   26.0200  -29.2590 H   0  0  0  0  0  0  0  0  0  0  0  0
   -6.4870   24.9350  -28.3330 H   0  0  0  0  0  0  0  0  0  0  0  0
   -7.9403   24.7006  -31.0977 H   0  0  0  0  0  0  0  0  0  0  0  0
   -6.5636   24.5747  -32.2683 H   0  0  0  0  0  0  0  0  0  0  0  0
   -9.3165   22.8282  -30.6325 H   0  0  0  0  0  0  0  0  0  0  0  0
   -9.8478   20.3887  -30.9450 H   0  0  0  0  0  0  0  0  0  0  0  0
   -8.7590   17.9371  -31.9338 H   0  0  0  0  0  0  0  0  0  0  0  0
   -4.2300   17.3050  -32.9930 H   0  0  0  0  0  0  0  0  0  0  0  0
   -4.7270   15.6480  -33.4650 H   0  0  0  0  0  0  0  0  0  0  0  0
   -3.8071   20.5824  -31.8107 H   0  0  0  0  0  0  0  0  0  0  0  0
   -2.7296   20.4100  -33.2375 H   0  0  0  0  0  0  0  0  0  0  0  0
   -4.0282   21.6510  -33.2375 H   0  0  0  0  0  0  0  0  0  0  0  0
   -5.5376   22.2768  -32.7345 H   0  0  0  0  0  0  0  0  0  0  0  0
  1  2  1  0
  2  3  1  0
  3  4  1  0
  4  5  2  0
  4  6  1  0
  6  7  1  0
  6  8  1  0
  8  9  1  0
  9 10  2  0
 10 11  1  0
 11 12  2  0
 12 13  1  0
 13 14  2  0
 14 15  1  0
 15 16  1  0
 15 17  2  0
 14 18  1  0
 18 19  1  0
 19 20  1  0
 19 21  2  0
 18 22  1  0
 22 23  2  0
 23  9  1  0
 22 12  1  0
  1 24  1  0
  1 25  1  0
  1 26  1  0
  2 27  1  0
  2 28  1  0
  6 29  1  1
  7 30  1  0
  7 31  1  0
  8 32  1  0
  8 33  1  0
 10 34  1  0
 11 35  1  0
 13 36  1  0
 16 37  1  0
 16 38  1  0
 20 39  1  0
 20 40  1  0
 20 41  1  0
 23 42  1  0
M  END
>  <UniqueID>  (59) 
59

>  <SMILES>  (59) 
CCOC(=O)[C@@H](N)Cc1ccc2cc(C(N)=O)n(C(C)=O)c2c1

>  <Energy>  (59) 
70.03405808924009

>  <Genealogy>  (59) 
CCOC(=O)[C@@H](N)Cc1ccc2cc(C(N)=O)n(C(C)=O)c2c1 (chirality)
CCOC(=O)[C@@H](N)Cc1ccc2cc(C(N)=O)n(C(C)=O)c2c1 (3D coordinates assigned)
CCOC(=O)[C@@H](N)Cc1ccc2cc(C(N)=O)n(C(C)=O)c2c1 (optimized conformer: 70.03405808924009 kcal/mol)

>  <smiles>  (59) 
CCOC(=O)C(N)Cc1ccc2cc(C(N)=O)n(C(C)=O)c2c1

>  <score_type>  (59) 
oracle

>  <origin>  (59) 
adg

>  <m_score__min__energy>  (59) 
-8.5199999999999996

>  <m_primary>  (59) 
energy

$$$$
59:0
     RDKit          3D

 66 70  0  0  0  0  0  0  0  0999 V2000
   -3.4400   21.3980  -29.9050 C   0  0  0  0  0  0  0  0  0  0  0  0
   -3.8770   22.4760  -30.8460 C   0  0  0  0  0  0  0  0  0  0  0  0
   -3.0140   23.0550  -31.5600 O   0  0  0  0  0  0  0  0  0  0  0  0
   -5.2450   22.9080  -30.8930 N   0  0  0  0  0  0  0  0  0  0  0  0
   -5.7330   24.1780  -30.8040 C   0  0  0  0  0  0  0  0  0  0  0  0
   -4.9460   25.3840  -30.4760 C   0  0  0  0  0  0  0  0  0  0  0  0
   -3.5700   25.2840  -30.1200 N   0  0  0  0  0  0  0  0  0  0  0  0
   -5.5070   26.5130  -30.4680 O   0  0  0  0  0  0  0  0  0  0  0  0
   -7.1140   24.1840  -30.9830 C   0  0  0  0  0  0  0  0  0  0  0  0
   -7.4640   22.8640  -31.1680 C   0  0  0  0  0  0  0  0  0  0  0  0
   -8.7120   22.2910  -31.3950 C   0  0  0  0  0  0  0  0  0  0  0  0
   -8.7730   20.8980  -31.5690 C   0  0  0  0  0  0  0  0  0  0  0  0
   -7.5960   20.1100  -31.5110 C   0  0  0  0  0  0  0  0  0  0  0  0
   -7.6700   18.6240  -31.7370 C   0  0  0  0  0  0  0  0  0  0  0  0
   -7.1800   18.2640  -33.1430 C   0  0  0  0  0  0  0  0  0  0  0  0
   -5.7970   17.7890  -33.1080 N   0  0  0  0  0  0  0  0  0  0  0  0
   -5.1340   17.3360  -34.2990 C   0  0  0  0  0  0  0  0  0  0  0  0
   -5.7230   17.4210  -35.4100 O   0  0  0  0  0  0  0  0  0  0  0  0
   -3.7880   16.8290  -34.2450 N   0  0  0  0  0  0  0  0  0  0  0  0
   -3.3190   16.0180  -33.1150 C   0  0  0  0  0  0  0  0  0  0  0  0
   -1.9820   16.5500  -32.5650 C   0  0  0  0  0  0  0  0  0  0  0  0
   -1.0260   17.1620  -33.6550 C   0  0  0  0  0  0  0  0  0  0  0  0
   -1.4480   16.6680  -35.0710 C   0  0  0  0  0  0  0  0  0  0  0  0
   -2.9050   17.0280  -35.4010 C   0  0  0  0  0  0  0  0  0  0  0  0
    0.4110   16.6430  -33.3530 C   0  0  0  0  0  0  0  0  0  0  0  0
    1.4350   17.3140  -34.2130 C   0  0  0  0  0  0  0  0  0  0  0  0
    2.4470   16.6840  -34.6170 O   0  0  0  0  0  0  0  0  0  0  0  0
    1.2900   18.6960  -34.5160 N   0  0  0  0  0  0  0  0  0  0  0  0
    0.1110   19.4130  -34.1330 C   0  0  0  0  0  0  0  0  0  0  0  0
    0.0900   20.8180  -34.2470 C   0  0  0  0  0  0  0  0  0  0  0  0
    1.2950   21.5610  -34.7560 C   0  0  0  0  0  0  0  0  0  0  0  0
   -1.0560   21.5260  -33.8630 C   0  0  0  0  0  0  0  0  0  0  0  0
   -2.1750   20.8480  -33.3910 C   0  0  0  0  0  0  0  0  0  0  0  0
   -2.1670   19.4580  -33.2900 C   0  0  0  0  0  0  0  0  0  0  0  0
   -1.0230   18.7100  -33.6440 C   0  0  0  0  0  0  0  0  0  0  0  0
   -6.3460   20.7310  -31.2930 C   0  0  0  0  0  0  0  0  0  0  0  0
   -6.3180   22.1170  -31.1080 C   0  0  0  0  0  0  0  0  0  0  0  0
   -3.5780   21.7383  -28.8681 H   0  0  0  0  0  0  0  0  0  0  0  0
   -4.0427   20.4942  -30.0775 H   0  0  0  0  0  0  0  0  0  0  0  0
   -2.3780   21.1690  -30.0775 H   0  0  0  0  0  0  0  0  0  0  0  0
   -2.8380   25.1120  -30.8460 H   0  0  0  0  0  0  0  0  0  0  0  0
   -7.7833   25.0569  -30.9778 H   0  0  0  0  0  0  0  0  0  0  0  0
   -9.6212   22.9087  -31.4368 H   0  0  0  0  0  0  0  0  0  0  0  0
   -9.7438   20.4141  -31.7520 H   0  0  0  0  0  0  0  0  0  0  0  0
   -7.0397   18.1141  -30.9936 H   0  0  0  0  0  0  0  0  0  0  0  0
   -8.7171   18.3029  -31.6349 H   0  0  0  0  0  0  0  0  0  0  0  0
   -7.8223   17.4725  -33.5566 H   0  0  0  0  0  0  0  0  0  0  0  0
   -7.2264   19.1647  -33.7727 H   0  0  0  0  0  0  0  0  0  0  0  0
   -5.2590   17.8480  -32.2130 H   0  0  0  0  0  0  0  0  0  0  0  0
   -4.0733   16.0472  -32.3148 H   0  0  0  0  0  0  0  0  0  0  0  0
   -3.1658   14.9868  -33.4660 H   0  0  0  0  0  0  0  0  0  0  0  0
   -2.2022   17.3317  -31.8231 H   0  0  0  0  0  0  0  0  0  0  0  0
   -1.4542   15.6859  -32.1351 H   0  0  0  0  0  0  0  0  0  0  0  0
   -0.7898   17.1336  -35.8193 H   0  0  0  0  0  0  0  0  0  0  0  0
   -1.3592   15.5717  -35.0866 H   0  0  0  0  0  0  0  0  0  0  0  0
   -2.9509   18.0835  -35.7073 H   0  0  0  0  0  0  0  0  0  0  0  0
   -3.2466   16.3675  -36.2115 H   0  0  0  0  0  0  0  0  0  0  0  0
    0.6470   16.8417  -32.2972 H   0  0  0  0  0  0  0  0  0  0  0  0
    0.4376   15.5644  -33.5672 H   0  0  0  0  0  0  0  0  0  0  0  0
    1.8874   21.9263  -33.9041 H   0  0  0  0  0  0  0  0  0  0  0  0
    1.9107   20.8855  -35.3680 H   0  0  0  0  0  0  0  0  0  0  0  0
    0.9680   22.4145  -35.3680 H   0  0  0  0  0  0  0  0  0  0  0  0
   -1.0711   22.6235  -33.9351 H   0  0  0  0  0  0  0  0  0  0  0  0
   -3.0718   21.4124  -33.0956 H   0  0  0  0  0  0  0  0  0  0  0  0
   -3.0654   18.9358  -32.9291 H   0  0  0  0  0  0  0  0  0  0  0  0
   -5.4187   20.1398  -31.2694 H   0  0  0  0  0  0  0  0  0  0  0  0
  1  2  1  0
  2  3  2  0
  2  4  1  0
  4  5  1  0
  5  6  1  0
  6  7  1  0
  6  8  2  0
  5  9  2  0
  9 10  1  0
 10 11  2  0
 11 12  1  0
 12 13  2  0
 13 14  1  0
 14 15  1  0
 15 16  1  0
 16 17  1  0
 17 18  2  0
 17 19  1  0
 19 20  1  0
 20 21  1  0
 21 22  1  0
 22 23  1  0
 23 24  1  0
 22 25  1  0
 25 26  1  0
 26 27  2  0
 26 28  1  0
 28 29  1  0
 29 30  2  0
 30 31  1  0
 30 32  1  0
 32 33  2  0
 33 34  1  0
 34 35  2  0
 13 36  1  0
 36 37  2  0
 37  4  1  0
 37 10  1  0
 24 19  1  0
 35 29  1  0
 35 22  1  0
  1 38  1  0
  1 39  1  0
  1 40  1  0
  7 41  1  0
  9 42  1  0
 11 43  1  0
 12 44  1  0
 14 45  1  0
 14 46  1  0
 15 47  1  0
 15 48  1  0
 16 49  1  0
 20 50  1  0
 20 51  1  0
 21 52  1  0
 21 53  1  0
 23 54  1  0
 23 55  1  0
 24 56  1  0
 24 57  1  0
 25 58  1  0
 25 59  1  0
 31 60  1  0
 31 61  1  0
 31 62  1  0
 32 63  1  0
 33 64  1  0
 34 65  1  0
 36 66  1  0
M  CHG  2   7  -1  28  -1
M  END
>  <UniqueID>  (60) 
60

>  <SMILES>  (60) 
CC(=O)n1c(C([NH-])=O)cc2ccc(CCNC(=O)N3CCC4(CC3)CC(=O)[N-]c3c(C)cccc34)cc21

>  <Energy>  (60) 
116.90202409946463

>  <Genealogy>  (60) 
CC(=O)n1c(C([NH-])=O)cc2ccc(CCNC(=O)N3CCC4(CC3)CC(=O)[N-]c3c(C)cccc34)cc21 (protonated)
CC(=O)n1c(C([NH-])=O)cc2ccc(CCNC(=O)N3CCC4(CC3)CC(=O)[N-]c3c(C)cccc34)cc21 (3D coordinates assigned)
CC(=O)n1c(C([NH-])=O)cc2ccc(CCNC(=O)N3CCC4(CC3)CC(=O)[N-]c3c(C)cccc34)cc21 (nonaromatic ring conformer: 116.90202409946463 kcal/mol)

>  <smiles>  (60) 
CC(=O)n1c(C(N)=O)cc2ccc(CCNC(=O)N3CCC4(CC3)CC(=O)Nc3c(C)cccc34)cc21

>  <score_type>  (60) 
oracle

>  <origin>  (60) 
adg

>  <m_score__min__energy>  (60) 
-13.369999999999999

>  <m_primary>  (60) 
energy

$$$$
60:0
     RDKit          3D

 25 26  0  0  0  0  0  0  0  0999 V2000
   -5.4620   26.5010  -30.4660 N   0  0  0  0  0  0  0  0  0  0  0  0
   -6.3310   25.4600  -30.0160 C   0  0  0  0  0  0  0  0  0  0  0  0
   -7.0710   25.6670  -29.0180 O   0  0  0  0  0  0  0  0  0  0  0  0
   -6.3390   24.1410  -30.6850 C   0  0  0  0  0  0  0  0  0  0  0  0
   -7.5000   23.4750  -31.0740 C   0  0  0  0  0  0  0  0  0  0  0  0
   -7.0710   22.3510  -31.7400 C   0  0  0  0  0  0  0  0  0  0  0  0
   -7.8050   21.3310  -32.3370 C   0  0  0  0  0  0  0  0  0  0  0  0
   -7.1000   20.2760  -32.9400 C   0  0  0  0  0  0  0  0  0  0  0  0
   -5.6840   20.2520  -32.9200 C   0  0  0  0  0  0  0  0  0  0  0  0
   -4.9410   19.1310  -33.5860 C   0  0  0  0  0  0  0  0  0  0  0  0
   -5.3580   17.5870  -32.8040 Cl  0  0  0  0  0  0  0  0  0  0  0  0
   -4.9710   21.3120  -32.3160 C   0  0  0  0  0  0  0  0  0  0  0  0
   -5.6990   22.3590  -31.7390 C   0  0  0  0  0  0  0  0  0  0  0  0
   -5.2340   23.4540  -31.0950 N   0  0  0  0  0  0  0  0  0  0  0  0
   -3.8580   23.7760  -30.8310 C   0  0  0  0  0  0  0  0  0  0  0  0
   -2.9750   22.8780  -30.8630 O   0  0  0  0  0  0  0  0  0  0  0  0
   -3.4890   25.0790  -30.5200 O   0  0  0  0  0  0  0  0  0  0  0  0
   -5.4350   27.4150  -29.9610 H   0  0  0  0  0  0  0  0  0  0  0  0
   -4.8730   26.3860  -31.3190 H   0  0  0  0  0  0  0  0  0  0  0  0
   -8.5394   23.7833  -30.8877 H   0  0  0  0  0  0  0  0  0  0  0  0
   -8.9048   21.3500  -32.3369 H   0  0  0  0  0  0  0  0  0  0  0  0
   -7.6524   19.4617  -33.4318 H   0  0  0  0  0  0  0  0  0  0  0  0
   -5.2189   19.0891  -34.6495 H   0  0  0  0  0  0  0  0  0  0  0  0
   -3.8589   19.3056  -33.4937 H   0  0  0  0  0  0  0  0  0  0  0  0
   -3.8711   21.3143  -32.2997 H   0  0  0  0  0  0  0  0  0  0  0  0
  1  2  1  0
  2  3  2  0
  2  4  1  0
  4  5  2  0
  5  6  1  0
  6  7  2  0
  7  8  1  0
  8  9  2  0
  9 10  1  0
 10 11  1  0
  9 12  1  0
 12 13  2  0
 13 14  1  0
 14 15  1  0
 15 16  2  0
 15 17  1  0
 14  4  1  0
 13  6  1  0
  1 18  1  0
  1 19  1  0
  5 20  1  0
  7 21  1  0
  8 22  1  0
 10 23  1  0
 10 24  1  0
 12 25  1  0
M  CHG  1  17  -1
M  END
>  <UniqueID>  (61) 
61

>  <SMILES>  (61) 
NC(=O)c1cc2ccc(CCl)cc2n1C(=O)[O-]

>  <Energy>  (61) 
63.67910258358844

>  <Genealogy>  (61) 
NC(=O)c1cc2ccc(CCl)cc2n1C(=O)[O-] (protonated)
NC(=O)c1cc2ccc(CCl)cc2n1C(=O)[O-] (3D coordinates assigned)
NC(=O)c1cc2ccc(CCl)cc2n1C(=O)[O-] (optimized conformer: 63.67910258358844 kcal/mol)

>  <smiles>  (61) 
NC(=O)c1cc2ccc(CCl)cc2n1C(=O)O

>  <score_type>  (61) 
oracle

>  <origin>  (61) 
adg

>  <m_score__min__energy>  (61) 
-8.25

>  <m_primary>  (61) 
energy

$$$$
61:0
     RDKit          3D

 45 46  0  0  0  0  0  0  0  0999 V2000
   -4.5970   14.3210  -31.9060 C   0  0  0  0  0  0  0  0  0  0  0  0
   -4.1980   15.5280  -32.7380 C   0  0  0  0  0  0  0  0  0  0  0  0
   -4.9770   15.5640  -33.9300 O   0  0  0  0  0  0  0  0  0  0  0  0
   -6.2540   16.1290  -33.9780 C   0  0  0  0  0  0  0  0  0  0  0  0
   -7.2270   15.4910  -34.4630 O   0  0  0  0  0  0  0  0  0  0  0  0
   -6.4580   17.4540  -33.4690 C   0  0  0  0  0  0  0  0  0  0  0  0
   -6.6260   18.5680  -33.0400 C   0  0  0  0  0  0  0  0  0  0  0  0
   -6.8230   19.8990  -32.5290 C   0  0  0  0  0  0  0  0  0  0  0  0
   -8.1340   20.4000  -32.3530 C   0  0  0  0  0  0  0  0  0  0  0  0
   -8.3380   21.6930  -31.8430 C   0  0  0  0  0  0  0  0  0  0  0  0
   -7.2160   22.4560  -31.5290 C   0  0  0  0  0  0  0  0  0  0  0  0
   -7.1250   23.7230  -31.0020 C   0  0  0  0  0  0  0  0  0  0  0  0
   -5.7610   23.9800  -30.8880 C   0  0  0  0  0  0  0  0  0  0  0  0
   -5.2100   25.2780  -30.4400 C   0  0  0  0  0  0  0  0  0  0  0  0
   -3.9000   25.6670  -30.8410 N   0  0  0  0  0  0  0  0  0  0  0  0
   -5.8720   26.0300  -29.6780 O   0  0  0  0  0  0  0  0  0  0  0  0
   -5.0350   22.9090  -31.3200 N   0  0  0  0  0  0  0  0  0  0  0  0
   -3.6080   22.7470  -31.3170 C   0  0  0  0  0  0  0  0  0  0  0  0
   -3.0440   22.1660  -32.2830 O   0  0  0  0  0  0  0  0  0  0  0  0
   -2.8600   23.2640  -30.2500 O   0  0  0  0  0  0  0  0  0  0  0  0
   -2.7310   22.6890  -28.9420 C   0  0  0  0  0  0  0  0  0  0  0  0
   -3.7020   23.3650  -27.9550 C   0  0  0  0  0  0  0  0  0  0  0  0
   -1.2800   22.8020  -28.4410 C   0  0  0  0  0  0  0  0  0  0  0  0
   -3.1020   21.2030  -29.0630 C   0  0  0  0  0  0  0  0  0  0  0  0
   -5.9400   21.9860  -31.7120 C   0  0  0  0  0  0  0  0  0  0  0  0
   -5.7080   20.6940  -32.2010 C   0  0  0  0  0  0  0  0  0  0  0  0
   -4.5150   14.5689  -30.8374 H   0  0  0  0  0  0  0  0  0  0  0  0
   -5.6352   14.0420  -32.1391 H   0  0  0  0  0  0  0  0  0  0  0  0
   -3.9297   13.4782  -32.1391 H   0  0  0  0  0  0  0  0  0  0  0  0
   -4.3728   16.4464  -32.1583 H   0  0  0  0  0  0  0  0  0  0  0  0
   -3.1320   15.4556  -32.9997 H   0  0  0  0  0  0  0  0  0  0  0  0
   -8.9988   19.7736  -32.6170 H   0  0  0  0  0  0  0  0  0  0  0  0
   -9.3530   22.0907  -31.6961 H   0  0  0  0  0  0  0  0  0  0  0  0
   -7.9542   24.3920  -30.7284 H   0  0  0  0  0  0  0  0  0  0  0  0
   -3.0560   25.3050  -30.3440 H   0  0  0  0  0  0  0  0  0  0  0  0
   -3.3878   23.1463  -26.9238 H   0  0  0  0  0  0  0  0  0  0  0  0
   -3.6925   24.4528  -28.1183 H   0  0  0  0  0  0  0  0  0  0  0  0
   -4.7189   22.9786  -28.1183 H   0  0  0  0  0  0  0  0  0  0  0  0
   -1.2709   22.8027  -27.3410 H   0  0  0  0  0  0  0  0  0  0  0  0
   -0.6963   21.9466  -28.8120 H   0  0  0  0  0  0  0  0  0  0  0  0
   -0.8358   23.7375  -28.8120 H   0  0  0  0  0  0  0  0  0  0  0  0
   -3.2103   20.7691  -28.0580 H   0  0  0  0  0  0  0  0  0  0  0  0
   -4.0520   21.1055  -29.6088 H   0  0  0  0  0  0  0  0  0  0  0  0
   -2.3093   20.6704  -29.6088 H   0  0  0  0  0  0  0  0  0  0  0  0
   -4.6842   20.3114  -32.3252 H   0  0  0  0  0  0  0  0  0  0  0  0
  1  2  1  0
  2  3  1  0
  3  4  1  0
  4  5  2  0
  4  6  1  0
  6  7  3  0
  7  8  1  0
  8  9  2  0
  9 10  1  0
 10 11  2  0
 11 12  1  0
 12 13  2  0
 13 14  1  0
 14 15  1  0
 14 16  2  0
 13 17  1  0
 17 18  1  0
 18 19  2  0
 18 20  1  0
 20 21  1  0
 21 22  1  0
 21 23  1  0
 21 24  1  0
 17 25  1  0
 25 26  2  0
 26  8  1  0
 25 11  1  0
  1 27  1  0
  1 28  1  0
  1 29  1  0
  2 30  1  0
  2 31  1  0
  9 32  1  0
 10 33  1  0
 12 34  1  0
 15 35  1  0
 22 36  1  0
 22 37  1  0
 22 38  1  0
 23 39  1  0
 23 40  1  0
 23 41  1  0
 24 42  1  0
 24 43  1  0
 24 44  1  0
 26 45  1  0
M  CHG  1  15  -1
M  END
>  <UniqueID>  (62) 
62

>  <SMILES>  (62) 
CCOC(=O)C#Cc1ccc2cc(C([NH-])=O)n(C(=O)OC(C)(C)C)c2c1

>  <Energy>  (62) 
69.20077341244959

>  <Genealogy>  (62) 
CCOC(=O)C#Cc1ccc2cc(C([NH-])=O)n(C(=O)OC(C)(C)C)c2c1 (protonated)
CCOC(=O)C#Cc1ccc2cc(C([NH-])=O)n(C(=O)OC(C)(C)C)c2c1 (3D coordinates assigned)
CCOC(=O)C#Cc1ccc2cc(C([NH-])=O)n(C(=O)OC(C)(C)C)c2c1 (optimized conformer: 69.20077341244959 kcal/mol)

>  <smiles>  (62) 
CCOC(=O)C#Cc1ccc2cc(C(N)=O)n(C(=O)OC(C)(C)C)c2c1

>  <score_type>  (62) 
oracle

>  <origin>  (62) 
adg

>  <m_score__min__energy>  (62) 
-10.6

>  <m_primary>  (62) 
energy

$$$$
62:0
     RDKit          3D

 31 33  0  0  0  0  0  0  0  0999 V2000
   -1.6120   26.0370  -28.9180 N   0  0  0  0  0  0  0  0  0  0  0  0
   -0.8570   24.8360  -28.7860 C   0  0  0  0  0  0  0  0  0  0  0  0
    0.1960   24.8420  -28.0930 O   0  0  0  0  0  0  0  0  0  0  0  0
   -1.2570   23.6040  -29.4950 C   0  0  0  0  0  0  0  0  0  0  0  0
   -0.3860   22.5460  -29.7440 C   0  0  0  0  0  0  0  0  0  0  0  0
   -1.1060   21.6490  -30.4970 C   0  0  0  0  0  0  0  0  0  0  0  0
   -0.7320   20.4140  -31.0160 C   0  0  0  0  0  0  0  0  0  0  0  0
   -1.6920   19.6830  -31.7360 C   0  0  0  0  0  0  0  0  0  0  0  0
   -3.0050   20.1900  -31.9180 C   0  0  0  0  0  0  0  0  0  0  0  0
   -4.0140   19.4020  -32.6700 C   0  0  0  0  0  0  0  0  0  0  0  0
   -3.6500   18.7000  -33.8340 C   0  0  0  0  0  0  0  0  0  0  0  0
   -4.6020   17.9590  -34.5410 C   0  0  0  0  0  0  0  0  0  0  0  0
   -5.9250   17.9090  -34.0970 C   0  0  0  0  0  0  0  0  0  0  0  0
   -6.8390   17.1860  -34.7910 F   0  0  0  0  0  0  0  0  0  0  0  0
   -6.3000   18.6010  -32.9400 C   0  0  0  0  0  0  0  0  0  0  0  0
   -7.9600   18.5400  -32.3700 Cl  0  0  0  0  0  0  0  0  0  0  0  0
   -5.3510   19.3450  -32.2310 C   0  0  0  0  0  0  0  0  0  0  0  0
   -3.3450   21.4510  -31.3730 C   0  0  0  0  0  0  0  0  0  0  0  0
   -2.3630   22.1650  -30.6770 C   0  0  0  0  0  0  0  0  0  0  0  0
   -2.4730   23.3660  -30.0650 N   0  0  0  0  0  0  0  0  0  0  0  0
   -3.6630   24.1630  -29.9560 C   0  0  0  0  0  0  0  0  0  0  0  0
   -4.5890   23.8220  -29.1730 O   0  0  0  0  0  0  0  0  0  0  0  0
   -3.7930   25.3340  -30.6930 O   0  0  0  0  0  0  0  0  0  0  0  0
   -2.6550   26.0120  -28.9600 H   0  0  0  0  0  0  0  0  0  0  0  0
    0.6572   22.4487  -29.4090 H   0  0  0  0  0  0  0  0  0  0  0  0
    0.2847   20.0213  -30.8673 H   0  0  0  0  0  0  0  0  0  0  0  0
   -1.4226   18.7060  -32.1637 H   0  0  0  0  0  0  0  0  0  0  0  0
   -2.6098   18.7344  -34.1900 H   0  0  0  0  0  0  0  0  0  0  0  0
   -4.3078   17.4137  -35.4499 H   0  0  0  0  0  0  0  0  0  0  0  0
   -5.6513   19.8897  -31.3237 H   0  0  0  0  0  0  0  0  0  0  0  0
   -4.3586   21.8608  -31.4938 H   0  0  0  0  0  0  0  0  0  0  0  0
  1  2  1  0
  2  3  2  0
  2  4  1  0
  4  5  2  0
  5  6  1  0
  6  7  2  0
  7  8  1  0
  8  9  2  0
  9 10  1  0
 10 11  2  0
 11 12  1  0
 12 13  2  0
 13 14  1  0
 13 15  1  0
 15 16  1  0
 15 17  2  0
  9 18  1  0
 18 19  2  0
 19 20  1  0
 20 21  1  0
 21 22  2  0
 21 23  1  0
 20  4  1  0
 19  6  1  0
 17 10  1  0
  1 24  1  0
  5 25  1  0
  7 26  1  0
  8 27  1  0
 11 28  1  0
 12 29  1  0
 17 30  1  0
 18 31  1  0
M  CHG  2   1  -1  23  -1
M  END
>  <UniqueID>  (63) 
63

>  <SMILES>  (63) 
[NH-]C(=O)c1cc2ccc(-c3ccc(F)c(Cl)c3)cc2n1C(=O)[O-]

>  <Energy>  (63) 
79.4162727487099

>  <Genealogy>  (63) 
[NH-]C(=O)c1cc2ccc(-c3ccc(F)c(Cl)c3)cc2n1C(=O)[O-] (protonated)
[NH-]C(=O)c1cc2ccc(-c3ccc(F)c(Cl)c3)cc2n1C(=O)[O-] (3D coordinates assigned)
[NH-]C(=O)c1cc2ccc(-c3ccc(F)c(Cl)c3)cc2n1C(=O)[O-] (optimized conformer: 79.4162727487099 kcal/mol)

>  <smiles>  (63) 
NC(=O)c1cc2ccc(-c3ccc(F)c(Cl)c3)cc2n1C(=O)O

>  <score_type>  (63) 
oracle

>  <origin>  (63) 
adg

>  <m_score__min__energy>  (63) 
-11.68

>  <m_primary>  (63) 
energy

$$$$
63:0
     RDKit          3D

 48 50  0  0  0  0  0  0  0  0999 V2000
   -4.2190   22.6840  -27.8810 C   0  0  0  0  0  0  0  0  0  0  0  0
   -2.9960   23.5840  -28.0510 C   0  0  0  0  0  0  0  0  0  0  0  0
   -2.0970   23.1490  -29.2130 C   0  0  0  0  0  0  0  0  0  0  0  0
   -2.6500   23.5480  -30.4670 O   0  0  0  0  0  0  0  0  0  0  0  0
   -3.3080   22.6740  -31.3400 C   0  0  0  0  0  0  0  0  0  0  0  0
   -2.6480   21.9050  -32.0930 O   0  0  0  0  0  0  0  0  0  0  0  0
   -4.7430   22.6660  -31.3920 N   0  0  0  0  0  0  0  0  0  0  0  0
   -5.5910   23.6670  -31.0240 C   0  0  0  0  0  0  0  0  0  0  0  0
   -5.1940   24.9180  -30.3390 C   0  0  0  0  0  0  0  0  0  0  0  0
   -5.7660   25.2760  -29.0800 N   0  0  0  0  0  0  0  0  0  0  0  0
   -4.3220   25.6690  -30.8510 O   0  0  0  0  0  0  0  0  0  0  0  0
   -6.9100   23.3140  -31.3040 C   0  0  0  0  0  0  0  0  0  0  0  0
   -6.8410   22.0580  -31.8620 C   0  0  0  0  0  0  0  0  0  0  0  0
   -7.8560   21.2260  -32.3220 C   0  0  0  0  0  0  0  0  0  0  0  0
   -7.4930   19.9860  -32.8710 C   0  0  0  0  0  0  0  0  0  0  0  0
   -6.1260   19.6120  -32.9930 C   0  0  0  0  0  0  0  0  0  0  0  0
   -5.7490   18.2400  -33.5340 C   0  0  0  0  0  0  0  0  0  0  0  0
   -6.6120   17.1690  -32.9120 C   0  0  0  0  0  0  0  0  0  0  0  0
   -6.8450   17.1890  -31.6720 O   0  0  0  0  0  0  0  0  0  0  0  0
   -7.2270   16.2160  -33.7300 O   0  0  0  0  0  0  0  0  0  0  0  0
   -6.5440   15.0670  -34.2150 C   0  0  0  0  0  0  0  0  0  0  0  0
   -5.6860   18.1470  -35.0730 C   0  0  0  0  0  0  0  0  0  0  0  0
   -4.2100   17.7870  -35.0030 C   0  0  0  0  0  0  0  0  0  0  0  0
   -4.2400   17.9160  -33.4890 C   0  0  0  0  0  0  0  0  0  0  0  0
   -5.1300   20.4690  -32.4650 C   0  0  0  0  0  0  0  0  0  0  0  0
   -5.5230   21.6910  -31.9070 C   0  0  0  0  0  0  0  0  0  0  0  0
   -4.4195   22.5364  -26.8096 H   0  0  0  0  0  0  0  0  0  0  0  0
   -5.0913   23.1572  -28.3555 H   0  0  0  0  0  0  0  0  0  0  0  0
   -4.0266   21.7104  -28.3555 H   0  0  0  0  0  0  0  0  0  0  0  0
   -3.3393   24.6122  -28.2378 H   0  0  0  0  0  0  0  0  0  0  0  0
   -2.4019   23.5141  -27.1279 H   0  0  0  0  0  0  0  0  0  0  0  0
   -1.1062   23.6118  -29.0936 H   0  0  0  0  0  0  0  0  0  0  0  0
   -2.0151   22.0521  -29.2001 H   0  0  0  0  0  0  0  0  0  0  0  0
   -5.4500   26.1400  -28.5880 H   0  0  0  0  0  0  0  0  0  0  0  0
   -6.5330   24.7110  -28.6520 H   0  0  0  0  0  0  0  0  0  0  0  0
   -7.8141   23.9124  -31.1183 H   0  0  0  0  0  0  0  0  0  0  0  0
   -8.9111   21.5303  -32.2576 H   0  0  0  0  0  0  0  0  0  0  0  0
   -8.2769   19.2936  -33.2117 H   0  0  0  0  0  0  0  0  0  0  0  0
   -6.1871   14.4666  -33.3652 H   0  0  0  0  0  0  0  0  0  0  0  0
   -7.2303   14.4638  -34.8275 H   0  0  0  0  0  0  0  0  0  0  0  0
   -5.6862   15.3817  -34.8275 H   0  0  0  0  0  0  0  0  0  0  0  0
   -6.3197   17.3555  -35.4996 H   0  0  0  0  0  0  0  0  0  0  0  0
   -6.0198   18.9929  -35.6919 H   0  0  0  0  0  0  0  0  0  0  0  0
   -3.9791   16.7729  -35.3613 H   0  0  0  0  0  0  0  0  0  0  0  0
   -3.4737   18.3534  -35.5922 H   0  0  0  0  0  0  0  0  0  0  0  0
   -3.9982   16.9847  -32.9559 H   0  0  0  0  0  0  0  0  0  0  0  0
   -3.5435   18.5974  -32.9785 H   0  0  0  0  0  0  0  0  0  0  0  0
   -4.0690   20.1802  -32.4928 H   0  0  0  0  0  0  0  0  0  0  0  0
  1  2  1  0
  2  3  1  0
  3  4  1  0
  4  5  1  0
  5  6  2  0
  5  7  1  0
  7  8  1  0
  8  9  1  0
  9 10  1  0
  9 11  2  0
  8 12  2  0
 12 13  1  0
 13 14  2  0
 14 15  1  0
 15 16  2  0
 16 17  1  0
 17 18  1  0
 18 19  2  0
 18 20  1  0
 20 21  1  0
 17 22  1  0
 22 23  1  0
 23 24  1  0
 16 25  1  0
 25 26  2  0
 26  7  1  0
 26 13  1  0
 24 17  1  0
  1 27  1  0
  1 28  1  0
  1 29  1  0
  2 30  1  0
  2 31  1  0
  3 32  1  0
  3 33  1  0
 10 34  1  0
 10 35  1  0
 12 36  1  0
 14 37  1  0
 15 38  1  0
 21 39  1  0
 21 40  1  0
 21 41  1  0
 22 42  1  0
 22 43  1  0
 23 44  1  0
 23 45  1  0
 24 46  1  0
 24 47  1  0
 25 48  1  0
M  END
>  <UniqueID>  (64) 
64

>  <SMILES>  (64) 
CCCOC(=O)n1c(C(N)=O)cc2ccc(C3(C(=O)OC)CCC3)cc21

>  <Energy>  (64) 
143.6279003841468

>  <Genealogy>  (64) 
CCCOC(=O)n1c(C(N)=O)cc2ccc(C3(C(=O)OC)CCC3)cc21 (3D coordinates assigned)
CCCOC(=O)n1c(C(N)=O)cc2ccc(C3(C(=O)OC)CCC3)cc21 (nonaromatic ring conformer: 143.6279003841468 kcal/mol)

>  <smiles>  (64) 
CCCOC(=O)n1c(C(N)=O)cc2ccc(C3(C(=O)OC)CCC3)cc21

>  <score_type>  (64) 
oracle

>  <origin>  (64) 
adg

>  <m_score__min__energy>  (64) 
-9.1099999999999994

>  <m_primary>  (64) 
energy

$$$$
64:0
     RDKit          3D

 32 34  0  0  0  0  0  0  0  0999 V2000
   -5.3380   26.4490  -30.4690 N   0  0  0  0  0  0  0  0  0  0  0  0
   -6.2810   25.4660  -30.0390 C   0  0  0  0  0  0  0  0  0  0  0  0
   -6.9710   25.6830  -29.0070 O   0  0  0  0  0  0  0  0  0  0  0  0
   -6.4130   24.1750  -30.7420 C   0  0  0  0  0  0  0  0  0  0  0  0
   -7.6360   23.6470  -31.1480 C   0  0  0  0  0  0  0  0  0  0  0  0
   -7.3370   22.4220  -31.6990 C   0  0  0  0  0  0  0  0  0  0  0  0
   -8.1760   21.4760  -32.2770 C   0  0  0  0  0  0  0  0  0  0  0  0
   -7.5940   20.3130  -32.8060 C   0  0  0  0  0  0  0  0  0  0  0  0
   -6.1890   20.1190  -32.7590 C   0  0  0  0  0  0  0  0  0  0  0  0
   -5.5810   18.8910  -33.3360 C   0  0  0  0  0  0  0  0  0  0  0  0
   -4.2260   18.8720  -33.7120 C   0  0  0  0  0  0  0  0  0  0  0  0
   -3.6570   17.7150  -34.2540 C   0  0  0  0  0  0  0  0  0  0  0  0
   -2.3480   17.7060  -34.6100 F   0  0  0  0  0  0  0  0  0  0  0  0
   -4.4340   16.5670  -34.4250 C   0  0  0  0  0  0  0  0  0  0  0  0
   -5.7810   16.5730  -34.0540 C   0  0  0  0  0  0  0  0  0  0  0  0
   -6.5340   15.4580  -34.2250 F   0  0  0  0  0  0  0  0  0  0  0  0
   -6.3540   17.7270  -33.5120 C   0  0  0  0  0  0  0  0  0  0  0  0
   -5.3690   21.1080  -32.1640 C   0  0  0  0  0  0  0  0  0  0  0  0
   -5.9800   22.2470  -31.6240 C   0  0  0  0  0  0  0  0  0  0  0  0
   -5.3950   23.3180  -31.0410 N   0  0  0  0  0  0  0  0  0  0  0  0
   -3.9850   23.5490  -30.8840 C   0  0  0  0  0  0  0  0  0  0  0  0
   -3.1810   22.5800  -30.8520 O   0  0  0  0  0  0  0  0  0  0  0  0
   -3.4910   24.8430  -30.7670 O   0  0  0  0  0  0  0  0  0  0  0  0
   -5.2850   27.3720  -29.9820 H   0  0  0  0  0  0  0  0  0  0  0  0
   -4.6360   26.2350  -31.2110 H   0  0  0  0  0  0  0  0  0  0  0  0
   -8.6288   24.1102  -31.0493 H   0  0  0  0  0  0  0  0  0  0  0  0
   -9.2638   21.6341  -32.3186 H   0  0  0  0  0  0  0  0  0  0  0  0
   -8.2343   19.5435  -33.2620 H   0  0  0  0  0  0  0  0  0  0  0  0
   -3.6095   19.7732  -33.5789 H   0  0  0  0  0  0  0  0  0  0  0  0
   -3.9853   15.6579  -34.8519 H   0  0  0  0  0  0  0  0  0  0  0  0
   -7.4149   17.7260  -33.2212 H   0  0  0  0  0  0  0  0  0  0  0  0
   -4.2766   20.9847  -32.1266 H   0  0  0  0  0  0  0  0  0  0  0  0
  1  2  1  0
  2  3  2  0
  2  4  1  0
  4  5  2  0
  5  6  1  0
  6  7  2  0
  7  8  1  0
  8  9  2  0
  9 10  1  0
 10 11  2  0
 11 12  1  0
 12 13  1  0
 12 14  2  0
 14 15  1  0
 15 16  1  0
 15 17  2  0
  9 18  1  0
 18 19  2  0
 19 20  1  0
 20 21  1  0
 21 22  2  0
 21 23  1  0
 20  4  1  0
 19  6  1  0
 17 10  1  0
  1 24  1  0
  1 25  1  0
  5 26  1  0
  7 27  1  0
  8 28  1  0
 11 29  1  0
 14 30  1  0
 17 31  1  0
 18 32  1  0
M  CHG  1  23  -1
M  END
>  <UniqueID>  (65) 
65

>  <SMILES>  (65) 
NC(=O)c1cc2ccc(-c3cc(F)cc(F)c3)cc2n1C(=O)[O-]

>  <Energy>  (65) 
80.42023656304495

>  <Genealogy>  (65) 
NC(=O)c1cc2ccc(-c3cc(F)cc(F)c3)cc2n1C(=O)[O-] (protonated)
NC(=O)c1cc2ccc(-c3cc(F)cc(F)c3)cc2n1C(=O)[O-] (3D coordinates assigned)
NC(=O)c1cc2ccc(-c3cc(F)cc(F)c3)cc2n1C(=O)[O-] (optimized conformer: 80.42023656304495 kcal/mol)

>  <smiles>  (65) 
NC(=O)c1cc2ccc(-c3cc(F)cc(F)c3)cc2n1C(=O)O

>  <score_type>  (65) 
oracle

>  <origin>  (65) 
adg

>  <m_score__min__energy>  (65) 
-9.4100000000000001

>  <m_primary>  (65) 
energy

$$$$
65:0
     RDKit          3D

 45 47  0  0  0  0  0  0  0  0999 V2000
   -3.1210   25.0300  -30.5920 H   0  0  0  0  0  0  0  0  0  0  0  0
   -3.9340   25.6460  -30.8160 N   0  0  0  0  0  0  0  0  0  0  0  0
   -5.2610   25.2670  -30.4570 C   0  0  0  0  0  0  0  0  0  0  0  0
   -5.9610   26.0520  -29.7670 O   0  0  0  0  0  0  0  0  0  0  0  0
   -5.7860   23.9500  -30.8710 C   0  0  0  0  0  0  0  0  0  0  0  0
   -7.1150   23.7240  -31.2250 C   0  0  0  0  0  0  0  0  0  0  0  0
   -7.9448   24.4455  -31.1952 H   0  0  0  0  0  0  0  0  0  0  0  0
   -7.1690   22.4060  -31.6200 C   0  0  0  0  0  0  0  0  0  0  0  0
   -8.2470   21.6440  -32.0580 C   0  0  0  0  0  0  0  0  0  0  0  0
   -9.2495   22.0853  -32.1586 H   0  0  0  0  0  0  0  0  0  0  0  0
   -8.0160   20.2930  -32.3680 C   0  0  0  0  0  0  0  0  0  0  0  0
   -8.8489   19.6658  -32.7187 H   0  0  0  0  0  0  0  0  0  0  0  0
   -6.7210   19.7280  -32.2340 C   0  0  0  0  0  0  0  0  0  0  0  0
   -6.5190   18.2940  -32.5410 C   0  0  0  0  0  0  0  0  0  0  0  0
   -7.1780   17.6370  -33.4630 O   0  0  0  0  0  0  0  0  0  0  0  0
   -6.7370   16.4000  -33.4420 C   0  0  0  0  0  0  0  0  0  0  0  0
   -7.2220   15.3350  -34.3640 C   0  0  0  0  0  0  0  0  0  0  0  0
   -7.6074   14.4888  -33.7763 H   0  0  0  0  0  0  0  0  0  0  0  0
   -8.0257   15.7372  -34.9982 H   0  0  0  0  0  0  0  0  0  0  0  0
   -6.3910   14.9927  -34.9982 H   0  0  0  0  0  0  0  0  0  0  0  0
   -5.7740   16.2020  -32.5180 N   0  0  0  0  0  0  0  0  0  0  0  0
   -5.6390   17.4120  -31.9420 C   0  0  0  0  0  0  0  0  0  0  0  0
   -4.9419   17.6583  -31.1275 H   0  0  0  0  0  0  0  0  0  0  0  0
   -5.6490   20.5400  -31.7950 C   0  0  0  0  0  0  0  0  0  0  0  0
   -4.6350   20.1266  -31.6906 H   0  0  0  0  0  0  0  0  0  0  0  0
   -5.9100   21.8810  -31.4970 C   0  0  0  0  0  0  0  0  0  0  0  0
   -5.0550   22.8080  -31.0180 N   0  0  0  0  0  0  0  0  0  0  0  0
   -3.6540   22.6110  -30.7710 C   0  0  0  0  0  0  0  0  0  0  0  0
   -2.8170   23.0500  -31.6040 O   0  0  0  0  0  0  0  0  0  0  0  0
   -3.1480   21.9520  -29.5490 C   0  0  0  0  0  0  0  0  0  0  0  0
   -3.6626   21.0350  -29.2262 H   0  0  0  0  0  0  0  0  0  0  0  0
   -2.1180   22.3700  -28.7970 C   0  0  0  0  0  0  0  0  0  0  0  0
   -1.8269   21.7339  -27.9481 H   0  0  0  0  0  0  0  0  0  0  0  0
   -1.3240   23.6340  -29.0120 C   0  0  0  0  0  0  0  0  0  0  0  0
   -0.4231   23.5995  -28.3818 H   0  0  0  0  0  0  0  0  0  0  0  0
   -1.0602   23.6936  -30.0782 H   0  0  0  0  0  0  0  0  0  0  0  0
   -2.1040   24.8410  -28.6650 N   0  0  0  0  0  0  0  0  0  0  0  0
   -1.2020   25.8820  -28.1450 C   0  0  0  0  0  0  0  0  0  0  0  0
   -1.2172   25.8644  -27.0452 H   0  0  0  0  0  0  0  0  0  0  0  0
   -0.1786   25.6915  -28.5006 H   0  0  0  0  0  0  0  0  0  0  0  0
   -1.5362   26.8678  -28.5006 H   0  0  0  0  0  0  0  0  0  0  0  0
   -3.1320   24.5390  -27.6550 C   0  0  0  0  0  0  0  0  0  0  0  0
   -2.7055   24.6643  -26.6488 H   0  0  0  0  0  0  0  0  0  0  0  0
   -3.9824   25.2253  -27.7808 H   0  0  0  0  0  0  0  0  0  0  0  0
   -3.4761   23.5018  -27.7808 H   0  0  0  0  0  0  0  0  0  0  0  0
  1  2  1  0
  2  3  1  0
  3  4  2  0
  3  5  1  0
  5  6  2  0
  6  7  1  0
  6  8  1  0
  8  9  2  0
  9 10  1  0
  9 11  1  0
 11 12  1  0
 11 13  2  0
 13 14  1  0
 14 15  1  0
 15 16  1  0
 16 17  1  0
 17 18  1  0
 17 19  1  0
 17 20  1  0
 16 21  2  0
 21 22  1  0
 22 23  1  0
 13 24  1  0
 24 25  1  0
 24 26  2  0
 26 27  1  0
 27 28  1  0
 28 29  2  0
 28 30  1  0
 30 31  1  0
 30 32  2  0
 32 33  1  0
 32 34  1  0
 34 35  1  0
 34 36  1  0
 34 37  1  0
 37 38  1  0
 38 39  1  0
 38 40  1  0
 38 41  1  0
 37 42  1  0
 42 43  1  0
 42 44  1  0
 42 45  1  0
 27  5  1  0
 26  8  1  0
 22 14  2  0
M  CHG  1   2  -1
M  END
>  <UniqueID>  (66) 
66

>  <SMILES>  (66) 
Cc1ncc(-c2ccc3cc(C([NH-])=O)n(C(=O)/C=C\CN(C)C)c3c2)o1

>  <Energy>  (66) 
114.27956331151654

>  <Genealogy>  (66) 
Cc1ncc(-c2ccc3cc(C([NH-])=O)n(C(=O)C=CCN(C)C)c3c2)o1 (protonated)
Cc1ncc(-c2ccc3cc(C([NH-])=O)n(C(=O)/C=C\CN(C)C)c3c2)o1 (cis-trans isomerization)
Cc1ncc(-c2ccc3cc(C([NH-])=O)n(C(=O)/C=C\CN(C)C)c3c2)o1 (3D coordinates assigned)
Cc1ncc(-c2ccc3cc(C([NH-])=O)n(C(=O)/C=C\CN(C)C)c3c2)o1 (optimized conformer: 114.27956331151654 kcal/mol)

>  <smiles>  (66) 
Cc1ncc(-c2ccc3cc(C(N)=O)n(C(=O)C=CCN(C)C)c3c2)o1

>  <score_type>  (66) 
oracle

>  <origin>  (66) 
adg

>  <m_score__min__energy>  (66) 
-10.92

>  <m_primary>  (66) 
energy

$$$$
66:0
     RDKit          3D

 27 28  0  0  0  0  0  0  0  0999 V2000
   -2.0030   25.3050  -29.3470 N   0  0  0  0  0  0  0  0  0  0  0  0
   -1.7610   23.9000  -29.3260 C   0  0  0  0  0  0  0  0  0  0  0  0
   -1.0300   23.4120  -28.4220 O   0  0  0  0  0  0  0  0  0  0  0  0
   -2.4000   23.0030  -30.3110 C   0  0  0  0  0  0  0  0  0  0  0  0
   -1.7610   21.8980  -30.8680 C   0  0  0  0  0  0  0  0  0  0  0  0
   -2.7130   21.2800  -31.6470 C   0  0  0  0  0  0  0  0  0  0  0  0
   -2.6210   20.1350  -32.4330 C   0  0  0  0  0  0  0  0  0  0  0  0
   -3.7600   19.7370  -33.1510 C   0  0  0  0  0  0  0  0  0  0  0  0
   -4.9560   20.4950  -33.0860 C   0  0  0  0  0  0  0  0  0  0  0  0
   -6.1750   20.0470  -33.8440 C   0  0  0  0  0  0  0  0  0  0  0  0
   -6.0530   18.6000  -34.2020 C   0  0  0  0  0  0  0  0  0  0  0  0
   -5.7110   18.2630  -35.3660 O   0  0  0  0  0  0  0  0  0  0  0  0
   -6.3640   17.6240  -33.2650 O   0  0  0  0  0  0  0  0  0  0  0  0
   -5.0150   21.6460  -32.2700 C   0  0  0  0  0  0  0  0  0  0  0  0
   -3.8700   22.0090  -31.5510 C   0  0  0  0  0  0  0  0  0  0  0  0
   -3.6940   23.0730  -30.7360 N   0  0  0  0  0  0  0  0  0  0  0  0
   -4.6550   24.1060  -30.4690 C   0  0  0  0  0  0  0  0  0  0  0  0
   -4.3800   25.4560  -30.8370 N   0  0  0  0  0  0  0  0  0  0  0  0
   -5.7600   23.8210  -29.9350 O   0  0  0  0  0  0  0  0  0  0  0  0
   -2.9760   25.6820  -29.3220 H   0  0  0  0  0  0  0  0  0  0  0  0
   -0.7172   21.5854  -30.7174 H   0  0  0  0  0  0  0  0  0  0  0  0
   -1.6851   19.5598  -32.4899 H   0  0  0  0  0  0  0  0  0  0  0  0
   -3.7239   18.8283  -33.7699 H   0  0  0  0  0  0  0  0  0  0  0  0
   -7.0673   20.1931  -33.2176 H   0  0  0  0  0  0  0  0  0  0  0  0
   -6.2645   20.6403  -34.7660 H   0  0  0  0  0  0  0  0  0  0  0  0
   -5.9370   22.2420  -32.2011 H   0  0  0  0  0  0  0  0  0  0  0  0
   -3.8890   26.1020  -30.1800 H   0  0  0  0  0  0  0  0  0  0  0  0
  1  2  1  0
  2  3  2  0
  2  4  1  0
  4  5  2  0
  5  6  1  0
  6  7  2  0
  7  8  1  0
  8  9  2  0
  9 10  1  0
 10 11  1  0
 11 12  2  0
 11 13  1  0
  9 14  1  0
 14 15  2  0
 15 16  1  0
 16 17  1  0
 17 18  1  0
 17 19  2  0
 16  4  1  0
 15  6  1  0
  1 20  1  0
  5 21  1  0
  7 22  1  0
  8 23  1  0
 10 24  1  0
 10 25  1  0
 14 26  1  0
 18 27  1  0
M  CHG  3   1  -1  13  -1  18  -1
M  END
>  <UniqueID>  (67) 
67

>  <SMILES>  (67) 
[NH-]C(=O)c1cc2ccc(CC(=O)[O-])cc2n1C([NH-])=O

>  <Energy>  (67) 
65.34996636955796

>  <Genealogy>  (67) 
[NH-]C(=O)c1cc2ccc(CC(=O)[O-])cc2n1C([NH-])=O (protonated)
[NH-]C(=O)c1cc2ccc(CC(=O)[O-])cc2n1C([NH-])=O (3D coordinates assigned)
[NH-]C(=O)c1cc2ccc(CC(=O)[O-])cc2n1C([NH-])=O (optimized conformer: 65.34996636955796 kcal/mol)

>  <smiles>  (67) 
NC(=O)c1cc2ccc(CC(=O)O)cc2n1C(N)=O

>  <score_type>  (67) 
oracle

>  <origin>  (67) 
adg

>  <m_score__min__energy>  (67) 
-9.5500000000000007

>  <m_primary>  (67) 
energy

$$$$
67:0
     RDKit          3D

 31 32  0  0  0  0  0  0  0  0999 V2000
   -2.6460   20.7230  -32.4110 C   0  0  0  0  0  0  0  0  0  0  0  0
   -3.1850   21.9340  -32.5420 C   0  0  0  0  0  0  0  0  0  0  0  0
   -3.7820   22.6690  -31.4100 C   0  0  0  0  0  0  0  0  0  0  0  0
   -3.0230   23.1280  -30.5150 O   0  0  0  0  0  0  0  0  0  0  0  0
   -5.1990   22.8770  -31.3080 N   0  0  0  0  0  0  0  0  0  0  0  0
   -5.8460   24.0140  -30.9310 C   0  0  0  0  0  0  0  0  0  0  0  0
   -5.2010   25.2500  -30.4410 C   0  0  0  0  0  0  0  0  0  0  0  0
   -3.8700   25.5640  -30.8440 N   0  0  0  0  0  0  0  0  0  0  0  0
   -5.8190   26.0410  -29.6810 O   0  0  0  0  0  0  0  0  0  0  0  0
   -7.2270   23.8440  -31.0300 C   0  0  0  0  0  0  0  0  0  0  0  0
   -7.4040   22.5580  -31.4920 C   0  0  0  0  0  0  0  0  0  0  0  0
   -8.5730   21.8660  -31.7960 C   0  0  0  0  0  0  0  0  0  0  0  0
   -8.4520   20.5540  -32.2870 C   0  0  0  0  0  0  0  0  0  0  0  0
   -7.1760   19.9620  -32.4610 C   0  0  0  0  0  0  0  0  0  0  0  0
   -7.0580   18.5740  -33.0270 C   0  0  0  0  0  0  0  0  0  0  0  0
   -6.0370   18.5370  -34.1600 C   0  0  0  0  0  0  0  0  0  0  0  0
   -6.0110   20.7010  -32.1560 C   0  0  0  0  0  0  0  0  0  0  0  0
   -6.1630   21.9990  -31.6560 C   0  0  0  0  0  0  0  0  0  0  0  0
   -2.2132   20.2160  -33.2860 H   0  0  0  0  0  0  0  0  0  0  0  0
   -2.6337   20.2299  -31.4278 H   0  0  0  0  0  0  0  0  0  0  0  0
   -3.1852   22.4060  -33.5356 H   0  0  0  0  0  0  0  0  0  0  0  0
   -3.0520   25.2800  -30.2610 H   0  0  0  0  0  0  0  0  0  0  0  0
   -8.0085   24.5801  -30.7902 H   0  0  0  0  0  0  0  0  0  0  0  0
   -9.5601   22.3309  -31.6565 H   0  0  0  0  0  0  0  0  0  0  0  0
   -9.3568   19.9813  -32.5386 H   0  0  0  0  0  0  0  0  0  0  0  0
   -6.7385   17.8856  -32.2307 H   0  0  0  0  0  0  0  0  0  0  0  0
   -8.0377   18.2704  -33.4246 H   0  0  0  0  0  0  0  0  0  0  0  0
   -5.0219   18.5002  -33.7378 H   0  0  0  0  0  0  0  0  0  0  0  0
   -6.2090   17.6445  -34.7796 H   0  0  0  0  0  0  0  0  0  0  0  0
   -6.1439   19.4396  -34.7796 H   0  0  0  0  0  0  0  0  0  0  0  0
   -5.0114   20.2676  -32.3075 H   0  0  0  0  0  0  0  0  0  0  0  0
  1  2  2  0
  2  3  1  0
  3  4  2  0
  3  5  1  0
  5  6  1  0
  6  7  1  0
  7  8  1  0
  7  9  2  0
  6 10  2  0
 10 11  1  0
 11 12  2  0
 12 13  1  0
 13 14  2  0
 14 15  1  0
 15 16  1  0
 14 17  1  0
 17 18  2  0
 18  5  1  0
 18 11  1  0
  1 19  1  0
  1 20  1  0
  2 21  1  0
  8 22  1  0
 10 23  1  0
 12 24  1  0
 13 25  1  0
 15 26  1  0
 15 27  1  0
 16 28  1  0
 16 29  1  0
 16 30  1  0
 17 31  1  0
M  CHG  1   8  -1
M  END
>  <UniqueID>  (68) 
68

>  <SMILES>  (68) 
C=CC(=O)n1c(C([NH-])=O)cc2ccc(CC)cc21

>  <Energy>  (68) 
65.98937926408279

>  <Genealogy>  (68) 
C=CC(=O)n1c(C([NH-])=O)cc2ccc(CC)cc21 (protonated)
C=CC(=O)n1c(C([NH-])=O)cc2ccc(CC)cc21 (3D coordinates assigned)
C=CC(=O)n1c(C([NH-])=O)cc2ccc(CC)cc21 (optimized conformer: 65.98937926408279 kcal/mol)

>  <smiles>  (68) 
C=CC(=O)n1c(C(N)=O)cc2ccc(CC)cc21

>  <score_type>  (68) 
oracle

>  <origin>  (68) 
adg

>  <m_score__min__energy>  (68) 
-10

>  <m_primary>  (68) 
energy

$$$$
68:0
     RDKit          3D

 78 81  0  0  0  0  0  0  0  0999 V2000
   -8.8960   20.9490  -31.0480 C   0  0  0  0  0  0  0  0  0  0  0  0
   -8.6020   20.3260  -32.3490 N   0  0  0  0  0  0  0  0  0  0  0  0
   -7.2410   20.6920  -32.8040 C   0  0  0  0  0  0  0  0  0  0  0  0
   -6.6950   19.6640  -33.8000 C   0  0  0  0  0  0  0  0  0  0  0  0
   -6.5310   18.3380  -33.1620 N   0  0  0  0  0  0  0  0  0  0  0  0
   -6.4650   17.2690  -34.1820 C   0  0  0  0  0  0  0  0  0  0  0  0
   -6.4180   15.8950  -33.5130 C   0  0  0  0  0  0  0  0  0  0  0  0
   -5.0280   15.4740  -33.3610 N   0  0  0  0  0  0  0  0  0  0  0  0
   -3.9990   15.6860  -34.3350 C   0  0  0  0  0  0  0  0  0  0  0  0
   -3.9280   14.9020  -35.3190 O   0  0  0  0  0  0  0  0  0  0  0  0
   -2.9970   16.7650  -34.1970 C   0  0  0  0  0  0  0  0  0  0  0  0
   -1.7040   16.6120  -34.7190 C   0  0  0  0  0  0  0  0  0  0  0  0
   -0.7710   17.6450  -34.6140 C   0  0  0  0  0  0  0  0  0  0  0  0
    0.4660   17.4770  -35.1480 F   0  0  0  0  0  0  0  0  0  0  0  0
   -1.1170   18.8580  -33.9980 C   0  0  0  0  0  0  0  0  0  0  0  0
   -0.1600   19.9300  -33.9640 N   0  0  0  0  0  0  0  0  0  0  0  0
    0.8250   19.9740  -32.8840 C   0  0  0  0  0  0  0  0  0  0  0  0
   -0.3370   21.0930  -34.8350 C   0  0  0  0  0  0  0  0  0  0  0  0
   -2.4220   19.0280  -33.4780 C   0  0  0  0  0  0  0  0  0  0  0  0
   -2.8350   20.2850  -32.8120 C   0  0  0  0  0  0  0  0  0  0  0  0
   -3.9690   21.0040  -33.2680 C   0  0  0  0  0  0  0  0  0  0  0  0
   -4.3650   22.1950  -32.6370 C   0  0  0  0  0  0  0  0  0  0  0  0
   -3.6100   22.6410  -31.5550 C   0  0  0  0  0  0  0  0  0  0  0  0
   -3.7520   23.7720  -30.7820 C   0  0  0  0  0  0  0  0  0  0  0  0
   -2.7100   23.7190  -29.8580 C   0  0  0  0  0  0  0  0  0  0  0  0
   -2.5360   24.7070  -28.7720 C   0  0  0  0  0  0  0  0  0  0  0  0
   -1.6250   25.7950  -28.9110 N   0  0  0  0  0  0  0  0  0  0  0  0
   -3.1640   24.5620  -27.6910 O   0  0  0  0  0  0  0  0  0  0  0  0
   -1.9500   22.6070  -30.0570 N   0  0  0  0  0  0  0  0  0  0  0  0
   -0.7390   22.2280  -29.3860 C   0  0  0  0  0  0  0  0  0  0  0  0
    0.2260   23.0370  -29.3340 O   0  0  0  0  0  0  0  0  0  0  0  0
   -0.6370   20.9470  -28.8230 O   0  0  0  0  0  0  0  0  0  0  0  0
   -1.3650   20.4540  -27.6910 C   0  0  0  0  0  0  0  0  0  0  0  0
   -2.8820   20.4850  -27.9640 C   0  0  0  0  0  0  0  0  0  0  0  0
   -0.9280   18.9980  -27.4710 C   0  0  0  0  0  0  0  0  0  0  0  0
   -1.0210   21.2710  -26.4300 C   0  0  0  0  0  0  0  0  0  0  0  0
   -2.5150   21.9550  -31.0980 C   0  0  0  0  0  0  0  0  0  0  0  0
   -2.0880   20.7770  -31.7190 C   0  0  0  0  0  0  0  0  0  0  0  0
   -3.3520   17.9800  -33.5940 C   0  0  0  0  0  0  0  0  0  0  0  0
   -7.5490   18.0570  -32.1150 C   0  0  0  0  0  0  0  0  0  0  0  0
   -8.8440   18.8630  -32.3180 C   0  0  0  0  0  0  0  0  0  0  0  0
   -8.5781   20.2753  -30.2387 H   0  0  0  0  0  0  0  0  0  0  0  0
   -8.3526   21.9019  -30.9666 H   0  0  0  0  0  0  0  0  0  0  0  0
   -9.9770   21.1353  -30.9666 H   0  0  0  0  0  0  0  0  0  0  0  0
   -7.2782   21.6780  -33.2902 H   0  0  0  0  0  0  0  0  0  0  0  0
   -6.5756   20.7163  -31.9284 H   0  0  0  0  0  0  0  0  0  0  0  0
   -7.3961   19.5729  -34.6427 H   0  0  0  0  0  0  0  0  0  0  0  0
   -5.7105   20.0067  -34.1511 H   0  0  0  0  0  0  0  0  0  0  0  0
   -7.3544   17.3279  -34.8266 H   0  0  0  0  0  0  0  0  0  0  0  0
   -5.5531   17.4047  -34.7821 H   0  0  0  0  0  0  0  0  0  0  0  0
   -6.8938   15.9530  -32.5229 H   0  0  0  0  0  0  0  0  0  0  0  0
   -6.9556   15.1654  -34.1365 H   0  0  0  0  0  0  0  0  0  0  0  0
   -1.4232   15.6710  -35.2147 H   0  0  0  0  0  0  0  0  0  0  0  0
    0.3068   19.9509  -31.9140 H   0  0  0  0  0  0  0  0  0  0  0  0
    1.4946   19.1049  -32.9628 H   0  0  0  0  0  0  0  0  0  0  0  0
    1.4145   20.8994  -32.9628 H   0  0  0  0  0  0  0  0  0  0  0  0
   -0.4742   21.9944  -34.2197 H   0  0  0  0  0  0  0  0  0  0  0  0
    0.5530   21.2144  -35.4699 H   0  0  0  0  0  0  0  0  0  0  0  0
   -1.2228   20.9442  -35.4699 H   0  0  0  0  0  0  0  0  0  0  0  0
   -4.5449   20.6250  -34.1252 H   0  0  0  0  0  0  0  0  0  0  0  0
   -5.2434   22.7574  -32.9864 H   0  0  0  0  0  0  0  0  0  0  0  0
   -4.5232   24.5509  -30.8742 H   0  0  0  0  0  0  0  0  0  0  0  0
   -1.2130   26.0360  -29.8390 H   0  0  0  0  0  0  0  0  0  0  0  0
   -3.4264   20.4961  -27.0082 H   0  0  0  0  0  0  0  0  0  0  0  0
   -3.1326   21.3885  -28.5393 H   0  0  0  0  0  0  0  0  0  0  0  0
   -3.1693   19.5925  -28.5393 H   0  0  0  0  0  0  0  0  0  0  0  0
   -0.8664   18.7927  -26.3921 H   0  0  0  0  0  0  0  0  0  0  0  0
   -1.6626   18.3211  -27.9317 H   0  0  0  0  0  0  0  0  0  0  0  0
    0.0579   18.8375  -27.9317 H   0  0  0  0  0  0  0  0  0  0  0  0
   -1.2684   20.6834  -25.5336 H   0  0  0  0  0  0  0  0  0  0  0  0
    0.0532   21.5078  -26.4283 H   0  0  0  0  0  0  0  0  0  0  0  0
   -1.6023   22.2048  -26.4283 H   0  0  0  0  0  0  0  0  0  0  0  0
   -1.1919   20.2464  -31.3647 H   0  0  0  0  0  0  0  0  0  0  0  0
   -4.3725   18.1152  -33.2062 H   0  0  0  0  0  0  0  0  0  0  0  0
   -7.7936   16.9848  -32.1401 H   0  0  0  0  0  0  0  0  0  0  0  0
   -7.1208   18.3526  -31.1458 H   0  0  0  0  0  0  0  0  0  0  0  0
   -9.3022   18.5607  -33.2713 H   0  0  0  0  0  0  0  0  0  0  0  0
   -9.5071   18.6513  -31.4662 H   0  0  0  0  0  0  0  0  0  0  0  0
  1  2  1  0
  2  3  1  0
  3  4  1  0
  4  5  1  0
  5  6  1  0
  6  7  1  0
  7  8  1  0
  8  9  1  0
  9 10  2  0
  9 11  1  0
 11 12  2  0
 12 13  1  0
 13 14  1  0
 13 15  2  0
 15 16  1  0
 16 17  1  0
 16 18  1  0
 15 19  1  0
 19 20  1  0
 20 21  2  0
 21 22  1  0
 22 23  2  0
 23 24  1  0
 24 25  2  0
 25 26  1  0
 26 27  1  0
 26 28  2  0
 25 29  1  0
 29 30  1  0
 30 31  2  0
 30 32  1  0
 32 33  1  0
 33 34  1  0
 33 35  1  0
 33 36  1  0
 29 37  1  0
 37 38  2  0
 19 39  2  0
  5 40  1  0
 40 41  1  0
 41  2  1  0
 39 11  1  0
 38 20  1  0
 37 23  1  0
  1 42  1  0
  1 43  1  0
  1 44  1  0
  3 45  1  0
  3 46  1  0
  4 47  1  0
  4 48  1  0
  6 49  1  0
  6 50  1  0
  7 51  1  0
  7 52  1  0
 12 53  1  0
 17 54  1  0
 17 55  1  0
 17 56  1  0
 18 57  1  0
 18 58  1  0
 18 59  1  0
 21 60  1  0
 22 61  1  0
 24 62  1  0
 27 63  1  0
 34 64  1  0
 34 65  1  0
 34 66  1  0
 35 67  1  0
 35 68  1  0
 35 69  1  0
 36 70  1  0
 36 71  1  0
 36 72  1  0
 38 73  1  0
 39 74  1  0
 40 75  1  0
 40 76  1  0
 41 77  1  0
 41 78  1  0
M  CHG  2   8  -1  27  -1
M  END
>  <UniqueID>  (69) 
69

>  <SMILES>  (69) 
CN1CCN(CC[N-]C(=O)c2cc(F)c(N(C)C)c(-c3ccc4cc(C([NH-])=O)n(C(=O)OC(C)(C)C)c4c3)c2)CC1

>  <Energy>  (69) 
139.72661797211066

>  <Genealogy>  (69) 
CN1CCN(CC[N-]C(=O)c2cc(F)c(N(C)C)c(-c3ccc4cc(C([NH-])=O)n(C(=O)OC(C)(C)C)c4c3)c2)CC1 (protonated)
CN1CCN(CC[N-]C(=O)c2cc(F)c(N(C)C)c(-c3ccc4cc(C([NH-])=O)n(C(=O)OC(C)(C)C)c4c3)c2)CC1 (3D coordinates assigned)
CN1CCN(CC[N-]C(=O)c2cc(F)c(N(C)C)c(-c3ccc4cc(C([NH-])=O)n(C(=O)OC(C)(C)C)c4c3)c2)CC1 (nonaromatic ring conformer: 139.72661797211066 kcal/mol)

>  <smiles>  (69) 
CN1CCN(CCNC(=O)c2cc(F)c(N(C)C)c(-c3ccc4cc(C(N)=O)n(C(=O)OC(C)(C)C)c4c3)c2)CC1

>  <score_type>  (69) 
oracle

>  <origin>  (69) 
adg

>  <m_score__min__energy>  (69) 
-11.84

>  <m_primary>  (69) 
energy

$$$$
69:0
     RDKit          3D

 29 30  0  0  0  0  0  0  0  0999 V2000
   -9.2770   21.9460  -31.9610 C   0  0  0  0  0  0  0  0  0  0  0  0
   -8.3350   22.8860  -31.9100 C   0  0  0  0  0  0  0  0  0  0  0  0
   -7.2230   22.8510  -30.9420 C   0  0  0  0  0  0  0  0  0  0  0  0
   -7.4720   23.0450  -29.7220 O   0  0  0  0  0  0  0  0  0  0  0  0
   -5.8690   22.6020  -31.3550 N   0  0  0  0  0  0  0  0  0  0  0  0
   -4.7660   23.3410  -31.0520 C   0  0  0  0  0  0  0  0  0  0  0  0
   -4.7770   24.6320  -30.3270 C   0  0  0  0  0  0  0  0  0  0  0  0
   -5.3870   24.7490  -29.0400 N   0  0  0  0  0  0  0  0  0  0  0  0
   -4.2320   25.6470  -30.8390 O   0  0  0  0  0  0  0  0  0  0  0  0
   -3.6210   22.7310  -31.5670 C   0  0  0  0  0  0  0  0  0  0  0  0
   -4.0640   21.5840  -32.1880 C   0  0  0  0  0  0  0  0  0  0  0  0
   -3.3510   20.5850  -32.8420 C   0  0  0  0  0  0  0  0  0  0  0  0
   -4.0690   19.4920  -33.3570 C   0  0  0  0  0  0  0  0  0  0  0  0
   -5.4800   19.4210  -33.2210 C   0  0  0  0  0  0  0  0  0  0  0  0
   -6.2320   18.2160  -33.7250 C   0  0  0  0  0  0  0  0  0  0  0  0
   -7.5720   18.3020  -33.3880 F   0  0  0  0  0  0  0  0  0  0  0  0
   -5.7210   17.0550  -33.1710 F   0  0  0  0  0  0  0  0  0  0  0  0
   -6.1160   18.1490  -35.1000 F   0  0  0  0  0  0  0  0  0  0  0  0
   -6.1640   20.4450  -32.5250 C   0  0  0  0  0  0  0  0  0  0  0  0
   -5.4240   21.5280  -32.0400 C   0  0  0  0  0  0  0  0  0  0  0  0
  -10.0863   22.0181  -32.7025 H   0  0  0  0  0  0  0  0  0  0  0  0
   -9.2457   21.0975  -31.2616 H   0  0  0  0  0  0  0  0  0  0  0  0
   -8.3887   23.7243  -32.6202 H   0  0  0  0  0  0  0  0  0  0  0  0
   -5.3540   25.6590  -28.5270 H   0  0  0  0  0  0  0  0  0  0  0  0
   -5.9070   23.9570  -28.6050 H   0  0  0  0  0  0  0  0  0  0  0  0
   -2.5840   23.0903  -31.4927 H   0  0  0  0  0  0  0  0  0  0  0  0
   -2.2584   20.6483  -32.9528 H   0  0  0  0  0  0  0  0  0  0  0  0
   -3.5311   18.6821  -33.8715 H   0  0  0  0  0  0  0  0  0  0  0  0
   -7.2515   20.3908  -32.3690 H   0  0  0  0  0  0  0  0  0  0  0  0
  1  2  2  0
  2  3  1  0
  3  4  2  0
  3  5  1  0
  5  6  1  0
  6  7  1  0
  7  8  1  0
  7  9  2  0
  6 10  2  0
 10 11  1  0
 11 12  2  0
 12 13  1  0
 13 14  2  0
 14 15  1  0
 15 16  1  0
 15 17  1  0
 15 18  1  0
 14 19  1  0
 19 20  2  0
 20  5  1  0
 20 11  1  0
  1 21  1  0
  1 22  1  0
  2 23  1  0
  8 24  1  0
  8 25  1  0
 10 26  1  0
 12 27  1  0
 13 28  1  0
 19 29  1  0
M  END
>  <UniqueID>  (70) 
70

>  <SMILES>  (70) 
C=CC(=O)n1c(C(N)=O)cc2ccc(C(F)(F)F)cc21

>  <Energy>  (70) 
68.21939188263246

>  <Genealogy>  (70) 
C=CC(=O)n1c(C(N)=O)cc2ccc(C(F)(F)F)cc21 (3D coordinates assigned)
C=CC(=O)n1c(C(N)=O)cc2ccc(C(F)(F)F)cc21 (optimized conformer: 68.21939188263246 kcal/mol)

>  <smiles>  (70) 
C=CC(=O)n1c(C(N)=O)cc2ccc(C(F)(F)F)cc21

>  <score_type>  (70) 
oracle

>  <origin>  (70) 
adg

>  <m_score__min__energy>  (70) 
-7.4299999999999997

>  <m_primary>  (70) 
energy

$$$$
70:0
     RDKit          3D

 31 32  0  0  0  0  0  0  0  0999 V2000
   -3.7950   25.1790  -30.4270 N   0  0  0  0  0  0  0  0  0  0  0  0
   -5.2010   25.2460  -30.6510 C   0  0  0  0  0  0  0  0  0  0  0  0
   -5.7950   26.3490  -30.5170 O   0  0  0  0  0  0  0  0  0  0  0  0
   -5.9760   24.0330  -30.9890 C   0  0  0  0  0  0  0  0  0  0  0  0
   -7.3130   23.8540  -30.6380 C   0  0  0  0  0  0  0  0  0  0  0  0
   -7.6270   22.5760  -31.0440 C   0  0  0  0  0  0  0  0  0  0  0  0
   -8.8280   21.8780  -30.9560 C   0  0  0  0  0  0  0  0  0  0  0  0
   -8.8730   20.5770  -31.4840 C   0  0  0  0  0  0  0  0  0  0  0  0
   -7.7250   20.0000  -32.0830 C   0  0  0  0  0  0  0  0  0  0  0  0
   -7.7990   18.6240  -32.6870 C   0  0  0  0  0  0  0  0  0  0  0  0
   -6.4020   18.0070  -32.7920 C   0  0  0  0  0  0  0  0  0  0  0  0
   -5.7650   18.3720  -34.0950 C   0  0  0  0  0  0  0  0  0  0  0  0
   -5.8330   17.5860  -35.0770 O   0  0  0  0  0  0  0  0  0  0  0  0
   -5.0520   19.5590  -34.2120 O   0  0  0  0  0  0  0  0  0  0  0  0
   -6.5270   20.7440  -32.1650 C   0  0  0  0  0  0  0  0  0  0  0  0
   -6.5080   22.0320  -31.6180 C   0  0  0  0  0  0  0  0  0  0  0  0
   -5.4870   22.9160  -31.5970 N   0  0  0  0  0  0  0  0  0  0  0  0
   -4.1890   22.7230  -32.1810 C   0  0  0  0  0  0  0  0  0  0  0  0
   -4.0560   22.0910  -33.4540 N   0  0  0  0  0  0  0  0  0  0  0  0
   -3.1570   23.0810  -31.5530 O   0  0  0  0  0  0  0  0  0  0  0  0
   -3.1210   25.2410  -31.2210 H   0  0  0  0  0  0  0  0  0  0  0  0
   -7.9758   24.5787  -30.1425 H   0  0  0  0  0  0  0  0  0  0  0  0
   -9.7142   22.3310  -30.4876 H   0  0  0  0  0  0  0  0  0  0  0  0
   -9.8083   20.0003  -31.4321 H   0  0  0  0  0  0  0  0  0  0  0  0
   -8.4303   17.9841  -32.0529 H   0  0  0  0  0  0  0  0  0  0  0  0
   -8.2295   18.7019  -33.6962 H   0  0  0  0  0  0  0  0  0  0  0  0
   -5.7782   18.3809  -31.9667 H   0  0  0  0  0  0  0  0  0  0  0  0
   -6.4912   16.9122  -32.7339 H   0  0  0  0  0  0  0  0  0  0  0  0
   -5.6324   20.3220  -32.6462 H   0  0  0  0  0  0  0  0  0  0  0  0
   -3.1120   21.9630  -33.8830 H   0  0  0  0  0  0  0  0  0  0  0  0
   -4.8940   21.7190  -33.9530 H   0  0  0  0  0  0  0  0  0  0  0  0
  1  2  1  0
  2  3  2  0
  2  4  1  0
  4  5  2  0
  5  6  1  0
  6  7  2  0
  7  8  1  0
  8  9  2  0
  9 10  1  0
 10 11  1  0
 11 12  1  0
 12 13  2  0
 12 14  1  0
  9 15  1  0
 15 16  2  0
 16 17  1  0
 17 18  1  0
 18 19  1  0
 18 20  2  0
 17  4  1  0
 16  6  1  0
  1 21  1  0
  5 22  1  0
  7 23  1  0
  8 24  1  0
 10 25  1  0
 10 26  1  0
 11 27  1  0
 11 28  1  0
 15 29  1  0
 19 30  1  0
 19 31  1  0
M  CHG  2   1  -1  14  -1
M  END
>  <UniqueID>  (71) 
71

>  <SMILES>  (71) 
[NH-]C(=O)c1cc2ccc(CCC(=O)[O-])cc2n1C(N)=O

>  <Energy>  (71) 
66.04322580001029

>  <Genealogy>  (71) 
[NH-]C(=O)c1cc2ccc(CCC(=O)[O-])cc2n1C(N)=O (protonated)
[NH-]C(=O)c1cc2ccc(CCC(=O)[O-])cc2n1C(N)=O (3D coordinates assigned)
[NH-]C(=O)c1cc2ccc(CCC(=O)[O-])cc2n1C(N)=O (optimized conformer: 66.04322580001029 kcal/mol)

>  <smiles>  (71) 
NC(=O)c1cc2ccc(CCC(=O)O)cc2n1C(N)=O

>  <score_type>  (71) 
oracle

>  <origin>  (71) 
adg

>  <m_score__min__energy>  (71) 
-10.56

>  <m_primary>  (71) 
energy

$$$$
71:0
     RDKit          3D

 50 53  0  0  0  0  0  0  0  0999 V2000
   -8.5230   21.3490  -32.0070 C   0  0  0  0  0  0  0  0  0  0  0  0
   -8.7460   20.0740  -31.4160 O   0  0  0  0  0  0  0  0  0  0  0  0
   -8.2600   18.8870  -31.9750 C   0  0  0  0  0  0  0  0  0  0  0  0
   -8.9820   17.8500  -31.9770 O   0  0  0  0  0  0  0  0  0  0  0  0
   -6.9020   18.8490  -32.5620 C   0  0  0  0  0  0  0  0  0  0  0  0
   -6.6730   18.1800  -33.7730 C   0  0  0  0  0  0  0  0  0  0  0  0
   -5.3940   18.1340  -34.3270 C   0  0  0  0  0  0  0  0  0  0  0  0
   -4.3090   18.7490  -33.6810 C   0  0  0  0  0  0  0  0  0  0  0  0
   -2.9420   18.6510  -34.3040 C   0  0  0  0  0  0  0  0  0  0  0  0
   -4.5350   19.4570  -32.4760 C   0  0  0  0  0  0  0  0  0  0  0  0
   -3.4460   20.1680  -31.7680 C   0  0  0  0  0  0  0  0  0  0  0  0
   -2.1650   19.5740  -31.6410 C   0  0  0  0  0  0  0  0  0  0  0  0
   -1.1190   20.2540  -30.9950 C   0  0  0  0  0  0  0  0  0  0  0  0
   -1.3830   21.5250  -30.4900 C   0  0  0  0  0  0  0  0  0  0  0  0
   -0.5520   22.4200  -29.8520 C   0  0  0  0  0  0  0  0  0  0  0  0
   -1.3420   23.5400  -29.5990 C   0  0  0  0  0  0  0  0  0  0  0  0
   -0.8660   24.7370  -28.8770 C   0  0  0  0  0  0  0  0  0  0  0  0
   -1.6040   25.9550  -28.9540 N   0  0  0  0  0  0  0  0  0  0  0  0
    0.2030   24.7040  -28.2130 O   0  0  0  0  0  0  0  0  0  0  0  0
   -2.6070   23.3450  -30.0650 N   0  0  0  0  0  0  0  0  0  0  0  0
   -3.7020   24.2720  -30.0830 C   0  0  0  0  0  0  0  0  0  0  0  0
   -3.6370   25.2880  -30.8280 O   0  0  0  0  0  0  0  0  0  0  0  0
   -4.9360   24.0510  -29.2390 C   0  0  0  0  0  0  0  0  0  0  0  0
   -5.8770   22.9940  -29.8160 C   0  0  0  0  0  0  0  0  0  0  0  0
   -6.9710   24.0410  -29.9610 C   0  0  0  0  0  0  0  0  0  0  0  0
   -6.0360   25.1040  -29.4060 C   0  0  0  0  0  0  0  0  0  0  0  0
   -2.6170   22.1100  -30.6030 C   0  0  0  0  0  0  0  0  0  0  0  0
   -3.6730   21.4620  -31.2500 C   0  0  0  0  0  0  0  0  0  0  0  0
   -5.8260   19.4850  -31.9200 C   0  0  0  0  0  0  0  0  0  0  0  0
   -8.3913   22.1019  -31.2159 H   0  0  0  0  0  0  0  0  0  0  0  0
   -7.6179   21.3107  -32.6310 H   0  0  0  0  0  0  0  0  0  0  0  0
   -9.3874   21.6201  -32.6310 H   0  0  0  0  0  0  0  0  0  0  0  0
   -7.5094   17.6873  -34.2904 H   0  0  0  0  0  0  0  0  0  0  0  0
   -5.2331   17.6101  -35.2808 H   0  0  0  0  0  0  0  0  0  0  0  0
   -2.1810   18.5964  -33.5116 H   0  0  0  0  0  0  0  0  0  0  0  0
   -2.8873   17.7466  -34.9278 H   0  0  0  0  0  0  0  0  0  0  0  0
   -2.7589   19.5383  -34.9278 H   0  0  0  0  0  0  0  0  0  0  0  0
   -1.9881   18.5695  -32.0529 H   0  0  0  0  0  0  0  0  0  0  0  0
   -0.1236   19.7974  -30.8914 H   0  0  0  0  0  0  0  0  0  0  0  0
    0.5088   22.2803  -29.5968 H   0  0  0  0  0  0  0  0  0  0  0  0
   -2.6470   25.9480  -28.9980 H   0  0  0  0  0  0  0  0  0  0  0  0
   -4.4516   23.9180  -28.2604 H   0  0  0  0  0  0  0  0  0  0  0  0
   -5.5379   22.5646  -30.7703 H   0  0  0  0  0  0  0  0  0  0  0  0
   -6.0700   22.0619  -29.2647 H   0  0  0  0  0  0  0  0  0  0  0  0
   -7.2859   24.2193  -30.9998 H   0  0  0  0  0  0  0  0  0  0  0  0
   -7.9586   23.8781  -29.5048 H   0  0  0  0  0  0  0  0  0  0  0  0
   -5.7886   25.9021  -30.1215 H   0  0  0  0  0  0  0  0  0  0  0  0
   -6.3448   25.7260  -28.5529 H   0  0  0  0  0  0  0  0  0  0  0  0
   -4.6549   21.9471  -31.3530 H   0  0  0  0  0  0  0  0  0  0  0  0
   -5.9961   20.0119  -30.9695 H   0  0  0  0  0  0  0  0  0  0  0  0
  1  2  1  0
  2  3  1  0
  3  4  2  0
  3  5  1  0
  5  6  2  0
  6  7  1  0
  7  8  2  0
  8  9  1  0
  8 10  1  0
 10 11  1  0
 11 12  2  0
 12 13  1  0
 13 14  2  0
 14 15  1  0
 15 16  2  0
 16 17  1  0
 17 18  1  0
 17 19  2  0
 16 20  1  0
 20 21  1  0
 21 22  2  0
 21 23  1  0
 23 24  1  0
 24 25  1  0
 25 26  1  0
 20 27  1  0
 27 28  2  0
 10 29  2  0
 29  5  1  0
 28 11  1  0
 27 14  1  0
 26 23  1  0
  1 30  1  0
  1 31  1  0
  1 32  1  0
  6 33  1  0
  7 34  1  0
  9 35  1  0
  9 36  1  0
  9 37  1  0
 12 38  1  0
 13 39  1  0
 15 40  1  0
 18 41  1  0
 23 42  1  0
 24 43  1  0
 24 44  1  0
 25 45  1  0
 25 46  1  0
 26 47  1  0
 26 48  1  0
 28 49  1  0
 29 50  1  0
M  CHG  1  18  -1
M  END
>  <UniqueID>  (72) 
72

>  <SMILES>  (72) 
COC(=O)c1ccc(C)c(-c2ccc3cc(C([NH-])=O)n(C(=O)C4CCC4)c3c2)c1

>  <Energy>  (72) 
157.9907507544577

>  <Genealogy>  (72) 
COC(=O)c1ccc(C)c(-c2ccc3cc(C([NH-])=O)n(C(=O)C4CCC4)c3c2)c1 (protonated)
COC(=O)c1ccc(C)c(-c2ccc3cc(C([NH-])=O)n(C(=O)C4CCC4)c3c2)c1 (3D coordinates assigned)
COC(=O)c1ccc(C)c(-c2ccc3cc(C([NH-])=O)n(C(=O)C4CCC4)c3c2)c1 (nonaromatic ring conformer: 157.9907507544577 kcal/mol)

>  <smiles>  (72) 
COC(=O)c1ccc(C)c(-c2ccc3cc(C(N)=O)n(C(=O)C4CCC4)c3c2)c1

>  <score_type>  (72) 
oracle

>  <origin>  (72) 
adg

>  <m_score__min__energy>  (72) 
-12.57

>  <m_primary>  (72) 
energy

$$$$
72:0
     RDKit          3D

 32 33  0  0  0  0  0  0  0  0999 V2000
   -8.5720   20.6030  -32.3040 C   0  0  0  0  0  0  0  0  0  0  0  0
   -7.4960   19.6290  -31.9460 C   0  0  0  0  0  0  0  0  0  0  0  0
   -7.7850   18.6200  -31.2500 O   0  0  0  0  0  0  0  0  0  0  0  0
   -6.1460   19.8240  -32.3960 N   0  0  0  0  0  0  0  0  0  0  0  0
   -5.5020   19.1680  -33.4020 C   0  0  0  0  0  0  0  0  0  0  0  0
   -6.0300   18.0170  -34.1650 C   0  0  0  0  0  0  0  0  0  0  0  0
   -6.8590   17.0390  -33.5420 N   0  0  0  0  0  0  0  0  0  0  0  0
   -5.7180   17.8760  -35.3780 O   0  0  0  0  0  0  0  0  0  0  0  0
   -4.2240   19.6940  -33.5880 C   0  0  0  0  0  0  0  0  0  0  0  0
   -4.1050   20.7000  -32.6570 C   0  0  0  0  0  0  0  0  0  0  0  0
   -3.0470   21.5680  -32.4080 C   0  0  0  0  0  0  0  0  0  0  0  0
   -3.2110   22.5370  -31.4020 C   0  0  0  0  0  0  0  0  0  0  0  0
   -4.4240   22.6260  -30.6710 C   0  0  0  0  0  0  0  0  0  0  0  0
   -4.5840   23.6910  -29.6050 C   0  0  1  0  0  0  0  0  0  0  0  0
   -4.1860   23.1550  -28.2250 C   0  0  0  0  0  0  0  0  0  0  0  0
   -3.8010   24.9250  -29.9670 C   0  0  0  0  0  0  0  0  0  0  0  0
   -4.1980   25.6660  -30.9050 O   0  0  0  0  0  0  0  0  0  0  0  0
   -2.6130   25.2300  -29.3140 O   0  0  0  0  0  0  0  0  0  0  0  0
   -5.4780   21.7270  -30.9610 C   0  0  0  0  0  0  0  0  0  0  0  0
   -5.2780   20.7610  -31.9520 C   0  0  0  0  0  0  0  0  0  0  0  0
   -9.0201   21.0086  -31.3849 H   0  0  0  0  0  0  0  0  0  0  0  0
   -8.1411   21.4244  -32.8953 H   0  0  0  0  0  0  0  0  0  0  0  0
   -9.3466   20.0927  -32.8953 H   0  0  0  0  0  0  0  0  0  0  0  0
   -7.0250   17.0530  -32.5110 H   0  0  0  0  0  0  0  0  0  0  0  0
   -3.4711   19.3729  -34.3228 H   0  0  0  0  0  0  0  0  0  0  0  0
   -2.1104   21.4986  -32.9806 H   0  0  0  0  0  0  0  0  0  0  0  0
   -2.3896   23.2339  -31.1793 H   0  0  0  0  0  0  0  0  0  0  0  0
   -5.6466   23.9705  -29.5525 H   0  0  0  0  0  0  0  0  0  0  0  0
   -4.6474   23.7763  -27.4433 H   0  0  0  0  0  0  0  0  0  0  0  0
   -4.5336   22.1166  -28.1207 H   0  0  0  0  0  0  0  0  0  0  0  0
   -3.0914   23.1875  -28.1207 H   0  0  0  0  0  0  0  0  0  0  0  0
   -6.4332   21.7869  -30.4189 H   0  0  0  0  0  0  0  0  0  0  0  0
  1  2  1  0
  2  3  2  0
  2  4  1  0
  4  5  1  0
  5  6  1  0
  6  7  1  0
  6  8  2  0
  5  9  2  0
  9 10  1  0
 10 11  2  0
 11 12  1  0
 12 13  2  0
 13 14  1  0
 14 15  1  0
 14 16  1  0
 16 17  2  0
 16 18  1  0
 13 19  1  0
 19 20  2  0
 20  4  1  0
 20 10  1  0
  1 21  1  0
  1 22  1  0
  1 23  1  0
  7 24  1  0
  9 25  1  0
 11 26  1  0
 12 27  1  0
 14 28  1  1
 15 29  1  0
 15 30  1  0
 15 31  1  0
 19 32  1  0
M  CHG  2   7  -1  18  -1
M  END
>  <UniqueID>  (73) 
73

>  <SMILES>  (73) 
CC(=O)n1c(C([NH-])=O)cc2ccc([C@@H](C)C(=O)[O-])cc21

>  <Energy>  (73) 
69.28914324485966

>  <Genealogy>  (73) 
CC(=O)n1c(C([NH-])=O)cc2ccc(C(C)C(=O)[O-])cc21 (protonated)
CC(=O)n1c(C([NH-])=O)cc2ccc([C@@H](C)C(=O)[O-])cc21 (chirality)
CC(=O)n1c(C([NH-])=O)cc2ccc([C@@H](C)C(=O)[O-])cc21 (3D coordinates assigned)
CC(=O)n1c(C([NH-])=O)cc2ccc([C@@H](C)C(=O)[O-])cc21 (optimized conformer: 69.28914324485966 kcal/mol)

>  <smiles>  (73) 
CC(=O)n1c(C(N)=O)cc2ccc(C(C)C(=O)O)cc21

>  <score_type>  (73) 
oracle

>  <origin>  (73) 
adg

>  <m_score__min__energy>  (73) 
-10.16

>  <m_primary>  (73) 
energy

$$$$
73:0
     RDKit          3D

 51 54  0  0  0  0  0  0  0  0999 V2000
   -4.2420   20.3280  -31.9980 C   0  0  0  0  0  0  0  0  0  0  0  0
   -5.6570   20.2580  -31.5170 C   0  0  0  0  0  0  0  0  0  0  0  0
   -6.1720   19.1320  -31.2830 O   0  0  0  0  0  0  0  0  0  0  0  0
   -6.4150   21.4540  -31.2710 N   0  0  0  0  0  0  0  0  0  0  0  0
   -7.6660   21.7620  -31.7160 C   0  0  0  0  0  0  0  0  0  0  0  0
   -8.5710   20.8370  -32.4330 C   0  0  0  0  0  0  0  0  0  0  0  0
   -8.0490   19.7600  -33.2140 N   0  0  0  0  0  0  0  0  0  0  0  0
   -9.8180   21.0090  -32.3840 O   0  0  0  0  0  0  0  0  0  0  0  0
   -8.0240   23.0470  -31.3100 C   0  0  0  0  0  0  0  0  0  0  0  0
   -6.9470   23.5170  -30.5940 C   0  0  0  0  0  0  0  0  0  0  0  0
   -6.7560   24.7420  -29.9620 C   0  0  0  0  0  0  0  0  0  0  0  0
   -5.5320   24.9620  -29.3090 C   0  0  0  0  0  0  0  0  0  0  0  0
   -4.5210   23.9630  -29.2990 C   0  0  0  0  0  0  0  0  0  0  0  0
   -3.2290   24.2110  -28.6100 C   0  0  0  0  0  0  0  0  0  0  0  0
   -3.1390   24.1650  -27.2100 C   0  0  0  0  0  0  0  0  0  0  0  0
   -1.9180   24.3960  -26.5750 C   0  0  0  0  0  0  0  0  0  0  0  0
   -0.7800   24.6620  -27.3460 C   0  0  0  0  0  0  0  0  0  0  0  0
    0.5600   24.9050  -26.6990 C   0  0  0  0  0  0  0  0  0  0  0  0
    0.6350   26.1900  -25.9700 N   0  0  0  0  0  0  0  0  0  0  0  0
    0.8100   26.0850  -24.5060 C   0  0  0  0  0  0  0  0  0  0  0  0
   -0.5240   26.1220  -23.7200 C   0  0  0  0  0  0  0  0  0  0  0  0
   -1.6130   26.8360  -24.4060 N   0  0  0  0  0  0  0  0  0  0  0  0
   -1.1040   27.8730  -25.3040 C   0  0  0  0  0  0  0  0  0  0  0  0
   -0.2930   27.2430  -26.4430 C   0  0  0  0  0  0  0  0  0  0  0  0
   -0.8870   24.7180  -28.7010 N   0  0  0  0  0  0  0  0  0  0  0  0
   -2.0670   24.5030  -29.3430 C   0  0  0  0  0  0  0  0  0  0  0  0
   -4.7580   22.7300  -29.9520 C   0  0  0  0  0  0  0  0  0  0  0  0
   -5.9910   22.5360  -30.5840 C   0  0  0  0  0  0  0  0  0  0  0  0
   -3.5622   20.3616  -31.1338 H   0  0  0  0  0  0  0  0  0  0  0  0
   -4.0173   19.4399  -32.6069 H   0  0  0  0  0  0  0  0  0  0  0  0
   -4.1061   21.2340  -32.6069 H   0  0  0  0  0  0  0  0  0  0  0  0
   -7.0280   19.5490  -33.2330 H   0  0  0  0  0  0  0  0  0  0  0  0
   -8.6970   19.1370  -33.7450 H   0  0  0  0  0  0  0  0  0  0  0  0
   -8.9672   23.5733  -31.5180 H   0  0  0  0  0  0  0  0  0  0  0  0
   -7.5394   25.5142  -29.9735 H   0  0  0  0  0  0  0  0  0  0  0  0
   -5.3535   25.9200  -28.7987 H   0  0  0  0  0  0  0  0  0  0  0  0
   -4.0350   23.9459  -26.6107 H   0  0  0  0  0  0  0  0  0  0  0  0
   -1.8502   24.3693  -25.4774 H   0  0  0  0  0  0  0  0  0  0  0  0
    0.7575   24.0888  -25.9885 H   0  0  0  0  0  0  0  0  0  0  0  0
    1.3078   24.9442  -27.5048 H   0  0  0  0  0  0  0  0  0  0  0  0
    1.3190   25.1356  -24.2834 H   0  0  0  0  0  0  0  0  0  0  0  0
    1.3978   26.9584  -24.1870 H   0  0  0  0  0  0  0  0  0  0  0  0
   -0.8488   25.0859  -23.5442 H   0  0  0  0  0  0  0  0  0  0  0  0
   -0.3250   26.6723  -22.7885 H   0  0  0  0  0  0  0  0  0  0  0  0
   -2.1750   26.1520  -24.9640 H   0  0  0  0  0  0  0  0  0  0  0  0
   -1.9507   28.4325  -25.7283 H   0  0  0  0  0  0  0  0  0  0  0  0
   -0.4514   28.5502  -24.7334 H   0  0  0  0  0  0  0  0  0  0  0  0
   -0.9909   26.7975  -27.1672 H   0  0  0  0  0  0  0  0  0  0  0  0
    0.3133   28.0395  -26.8990 H   0  0  0  0  0  0  0  0  0  0  0  0
   -2.1113   24.5581  -30.4407 H   0  0  0  0  0  0  0  0  0  0  0  0
   -3.9904   21.9422  -29.9624 H   0  0  0  0  0  0  0  0  0  0  0  0
  1  2  1  0
  2  3  2  0
  2  4  1  0
  4  5  1  0
  5  6  1  0
  6  7  1  0
  6  8  2  0
  5  9  2  0
  9 10  1  0
 10 11  2  0
 11 12  1  0
 12 13  2  0
 13 14  1  0
 14 15  2  0
 15 16  1  0
 16 17  2  0
 17 18  1  0
 18 19  1  0
 19 20  1  0
 20 21  1  0
 21 22  1  0
 22 23  1  0
 23 24  1  0
 17 25  1  0
 25 26  2  0
 13 27  1  0
 27 28  2  0
 28  4  1  0
 28 10  1  0
 26 14  1  0
 24 19  1  0
  1 29  1  0
  1 30  1  0
  1 31  1  0
  7 32  1  0
  7 33  1  0
  9 34  1  0
 11 35  1  0
 12 36  1  0
 15 37  1  0
 16 38  1  0
 18 39  1  0
 18 40  1  0
 20 41  1  0
 20 42  1  0
 21 43  1  0
 21 44  1  0
 22 45  1  0
 23 46  1  0
 23 47  1  0
 24 48  1  0
 24 49  1  0
 26 50  1  0
 27 51  1  0
M  END
>  <UniqueID>  (74) 
74

>  <SMILES>  (74) 
CC(=O)n1c(C(N)=O)cc2ccc(-c3ccc(CN4CCNCC4)nc3)cc21

>  <Energy>  (74) 
112.0807688811653

>  <Genealogy>  (74) 
CC(=O)n1c(C(N)=O)cc2ccc(-c3ccc(CN4CCNCC4)nc3)cc21 (3D coordinates assigned)
CC(=O)n1c(C(N)=O)cc2ccc(-c3ccc(CN4CCNCC4)nc3)cc21 (nonaromatic ring conformer: 112.0807688811653 kcal/mol)

>  <smiles>  (74) 
CC(=O)n1c(C(N)=O)cc2ccc(-c3ccc(CN4CCNCC4)nc3)cc21

>  <score_type>  (74) 
oracle

>  <origin>  (74) 
adg

>  <m_score__min__energy>  (74) 
-9.25

>  <m_primary>  (74) 
energy

$$$$
74:0
     RDKit          3D

 50 52  0  0  0  0  0  0  0  0999 V2000
   -0.6890   20.9300  -32.0010 C   0  0  0  0  0  0  0  0  0  0  0  0
   -1.3310   21.1910  -33.3000 N   0  0  0  0  0  0  0  0  0  0  0  0
   -0.3000   21.2580  -34.3520 C   0  0  0  0  0  0  0  0  0  0  0  0
   -2.3300   20.1360  -33.5820 C   0  0  0  0  0  0  0  0  0  0  0  0
   -3.6460   20.3810  -32.8360 C   0  0  0  0  0  0  0  0  0  0  0  0
   -3.5680   21.5980  -32.1040 O   0  0  0  0  0  0  0  0  0  0  0  0
   -4.3440   21.8690  -30.9760 C   0  0  0  0  0  0  0  0  0  0  0  0
   -3.8450   21.7700  -29.8210 O   0  0  0  0  0  0  0  0  0  0  0  0
   -5.7180   22.2590  -31.1370 N   0  0  0  0  0  0  0  0  0  0  0  0
   -6.2770   23.4750  -30.8750 C   0  0  0  0  0  0  0  0  0  0  0  0
   -5.5450   24.6950  -30.4840 C   0  0  0  0  0  0  0  0  0  0  0  0
   -5.8670   25.3950  -29.2820 N   0  0  0  0  0  0  0  0  0  0  0  0
   -4.5850   25.0950  -31.1960 O   0  0  0  0  0  0  0  0  0  0  0  0
   -7.6510   23.4430  -31.0990 C   0  0  0  0  0  0  0  0  0  0  0  0
   -7.9190   22.1630  -31.5290 C   0  0  0  0  0  0  0  0  0  0  0  0
   -9.1250   21.5810  -31.9090 C   0  0  0  0  0  0  0  0  0  0  0  0
   -9.1100   20.2300  -32.3000 C   0  0  0  0  0  0  0  0  0  0  0  0
   -7.9030   19.4880  -32.2850 C   0  0  0  0  0  0  0  0  0  0  0  0
   -7.8890   18.0430  -32.7080 C   0  0  0  0  0  0  0  0  0  0  0  0
   -6.5380   17.6680  -33.2580 C   0  0  0  0  0  0  0  0  0  0  0  0
   -5.6620   16.8610  -32.5100 C   0  0  0  0  0  0  0  0  0  0  0  0
   -4.3970   16.5410  -33.0110 C   0  0  0  0  0  0  0  0  0  0  0  0
   -3.9890   17.0380  -34.2520 C   0  0  0  0  0  0  0  0  0  0  0  0
   -4.8510   17.8460  -35.0000 C   0  0  0  0  0  0  0  0  0  0  0  0
   -6.1220   18.1600  -34.5080 C   0  0  0  0  0  0  0  0  0  0  0  0
   -6.7010   20.1120  -31.8880 C   0  0  0  0  0  0  0  0  0  0  0  0
   -6.7370   21.4670  -31.5360 C   0  0  0  0  0  0  0  0  0  0  0  0
   -1.3768   21.2096  -31.1893 H   0  0  0  0  0  0  0  0  0  0  0  0
   -0.4435   19.8607  -31.9216 H   0  0  0  0  0  0  0  0  0  0  0  0
    0.2330   21.5247  -31.9216 H   0  0  0  0  0  0  0  0  0  0  0  0
    0.6947   21.3226  -33.8869 H   0  0  0  0  0  0  0  0  0  0  0  0
   -0.3546   20.3544  -34.9769 H   0  0  0  0  0  0  0  0  0  0  0  0
   -0.4710   22.1469  -34.9769 H   0  0  0  0  0  0  0  0  0  0  0  0
   -2.5322   20.1175  -34.6631 H   0  0  0  0  0  0  0  0  0  0  0  0
   -1.9175   19.1756  -33.2392 H   0  0  0  0  0  0  0  0  0  0  0  0
   -4.4704   20.4440  -33.5616 H   0  0  0  0  0  0  0  0  0  0  0  0
   -3.8272   19.5498  -32.1386 H   0  0  0  0  0  0  0  0  0  0  0  0
   -5.3640   26.2770  -29.0390 H   0  0  0  0  0  0  0  0  0  0  0  0
   -6.5340   24.9950  -28.5880 H   0  0  0  0  0  0  0  0  0  0  0  0
   -8.3689   24.2650  -30.9617 H   0  0  0  0  0  0  0  0  0  0  0  0
  -10.0605   22.1596  -31.9037 H   0  0  0  0  0  0  0  0  0  0  0  0
  -10.0439   19.7450  -32.6204 H   0  0  0  0  0  0  0  0  0  0  0  0
   -8.1145   17.4088  -31.8380 H   0  0  0  0  0  0  0  0  0  0  0  0
   -8.6463   17.8942  -33.4918 H   0  0  0  0  0  0  0  0  0  0  0  0
   -5.9738   16.4800  -31.5263 H   0  0  0  0  0  0  0  0  0  0  0  0
   -3.7219   15.8973  -32.4280 H   0  0  0  0  0  0  0  0  0  0  0  0
   -2.9894   16.7934  -34.6405 H   0  0  0  0  0  0  0  0  0  0  0  0
   -4.5289   18.2353  -35.9771 H   0  0  0  0  0  0  0  0  0  0  0  0
   -6.7982   18.7937  -35.1006 H   0  0  0  0  0  0  0  0  0  0  0  0
   -5.7577   19.5471  -31.8558 H   0  0  0  0  0  0  0  0  0  0  0  0
  1  2  1  0
  2  3  1  0
  2  4  1  0
  4  5  1  0
  5  6  1  0
  6  7  1  0
  7  8  2  0
  7  9  1  0
  9 10  1  0
 10 11  1  0
 11 12  1  0
 11 13  2  0
 10 14  2  0
 14 15  1  0
 15 16  2  0
 16 17  1  0
 17 18  2  0
 18 19  1  0
 19 20  1  0
 20 21  2  0
 21 22  1  0
 22 23  2  0
 23 24  1  0
 24 25  2  0
 18 26  1  0
 26 27  2  0
 27  9  1  0
 27 15  1  0
 25 20  1  0
  1 28  1  0
  1 29  1  0
  1 30  1  0
  3 31  1  0
  3 32  1  0
  3 33  1  0
  4 34  1  0
  4 35  1  0
  5 36  1  0
  5 37  1  0
 12 38  1  0
 12 39  1  0
 14 40  1  0
 16 41  1  0
 17 42  1  0
 19 43  1  0
 19 44  1  0
 21 45  1  0
 22 46  1  0
 23 47  1  0
 24 48  1  0
 25 49  1  0
 26 50  1  0
M  END
>  <UniqueID>  (75) 
75

>  <SMILES>  (75) 
CN(C)CCOC(=O)n1c(C(N)=O)cc2ccc(Cc3ccccc3)cc21

>  <Energy>  (75) 
84.97268853367268

>  <Genealogy>  (75) 
CN(C)CCOC(=O)n1c(C(N)=O)cc2ccc(Cc3ccccc3)cc21 (3D coordinates assigned)
CN(C)CCOC(=O)n1c(C(N)=O)cc2ccc(Cc3ccccc3)cc21 (optimized conformer: 84.97268853367268 kcal/mol)

>  <smiles>  (75) 
CN(C)CCOC(=O)n1c(C(N)=O)cc2ccc(Cc3ccccc3)cc21

>  <score_type>  (75) 
oracle

>  <origin>  (75) 
adg

>  <m_score__min__energy>  (75) 
-9.3699999999999992

>  <m_primary>  (75) 
energy

$$$$
75:0
     RDKit          3D

 45 47  0  0  0  0  0  0  0  0999 V2000
   -2.2320   20.2580  -33.7450 C   0  0  0  0  0  0  0  0  0  0  0  0
   -2.0840   21.0100  -32.4330 C   0  0  0  0  0  0  0  0  0  0  0  0
   -2.8100   22.2320  -32.5020 O   0  0  0  0  0  0  0  0  0  0  0  0
   -3.4980   22.7680  -31.4100 C   0  0  0  0  0  0  0  0  0  0  0  0
   -2.8700   23.1320  -30.3790 O   0  0  0  0  0  0  0  0  0  0  0  0
   -4.9300   22.8750  -31.4540 N   0  0  0  0  0  0  0  0  0  0  0  0
   -5.7100   23.8970  -30.9970 C   0  0  0  0  0  0  0  0  0  0  0  0
   -5.2270   25.1900  -30.4710 C   0  0  0  0  0  0  0  0  0  0  0  0
   -3.9400   25.6740  -30.8500 N   0  0  0  0  0  0  0  0  0  0  0  0
   -5.9220   25.8580  -29.6620 O   0  0  0  0  0  0  0  0  0  0  0  0
   -7.0580   23.5940  -31.1700 C   0  0  0  0  0  0  0  0  0  0  0  0
   -7.0810   22.3510  -31.7590 C   0  0  0  0  0  0  0  0  0  0  0  0
   -8.1570   21.5650  -32.1420 C   0  0  0  0  0  0  0  0  0  0  0  0
   -7.8930   20.3070  -32.7050 C   0  0  0  0  0  0  0  0  0  0  0  0
   -6.5550   19.8340  -32.8810 C   0  0  0  0  0  0  0  0  0  0  0  0
   -6.2870   18.5190  -33.4640 N   0  0  0  0  0  0  0  0  0  0  0  0
   -5.0580   18.3320  -34.2660 C   0  0  0  0  0  0  0  0  0  0  0  0
   -4.9100   16.9480  -34.9120 C   0  0  0  0  0  0  0  0  0  0  0  0
   -5.4270   15.8640  -34.0700 N   0  0  0  0  0  0  0  0  0  0  0  0
   -4.6550   15.6790  -32.8300 C   0  0  0  0  0  0  0  0  0  0  0  0
   -6.8600   16.0670  -33.8270 C   0  0  0  0  0  0  0  0  0  0  0  0
   -7.1690   17.3860  -33.1050 C   0  0  0  0  0  0  0  0  0  0  0  0
   -5.4900   20.6810  -32.4570 C   0  0  0  0  0  0  0  0  0  0  0  0
   -5.7870   21.9380  -31.9200 C   0  0  0  0  0  0  0  0  0  0  0  0
   -2.4406   19.1979  -33.5385 H   0  0  0  0  0  0  0  0  0  0  0  0
   -3.0625   20.6893  -34.3232 H   0  0  0  0  0  0  0  0  0  0  0  0
   -1.3000   20.3424  -34.3232 H   0  0  0  0  0  0  0  0  0  0  0  0
   -2.4790   20.3947  -31.6112 H   0  0  0  0  0  0  0  0  0  0  0  0
   -1.0206   21.2251  -32.2517 H   0  0  0  0  0  0  0  0  0  0  0  0
   -3.0720   25.2810  -30.4240 H   0  0  0  0  0  0  0  0  0  0  0  0
   -7.9217   24.2168  -30.8941 H   0  0  0  0  0  0  0  0  0  0  0  0
   -9.1901   21.9181  -32.0081 H   0  0  0  0  0  0  0  0  0  0  0  0
   -8.7339   19.6706  -33.0179 H   0  0  0  0  0  0  0  0  0  0  0  0
   -5.0559   19.0850  -35.0679 H   0  0  0  0  0  0  0  0  0  0  0  0
   -4.2154   18.4367  -33.5666 H   0  0  0  0  0  0  0  0  0  0  0  0
   -5.4605   16.9451  -35.8643 H   0  0  0  0  0  0  0  0  0  0  0  0
   -3.8350   16.7666  -35.0584 H   0  0  0  0  0  0  0  0  0  0  0  0
   -5.3121   15.8365  -31.9620 H   0  0  0  0  0  0  0  0  0  0  0  0
   -4.2474   14.6577  -32.8008 H   0  0  0  0  0  0  0  0  0  0  0  0
   -3.8287   16.4046  -32.8008 H   0  0  0  0  0  0  0  0  0  0  0  0
   -7.3823   16.0674  -34.7951 H   0  0  0  0  0  0  0  0  0  0  0  0
   -7.2005   15.2493  -33.1748 H   0  0  0  0  0  0  0  0  0  0  0  0
   -8.2043   17.6709  -33.3438 H   0  0  0  0  0  0  0  0  0  0  0  0
   -7.0033   17.1957  -32.0343 H   0  0  0  0  0  0  0  0  0  0  0  0
   -4.4453   20.3496  -32.5511 H   0  0  0  0  0  0  0  0  0  0  0  0
  1  2  1  0
  2  3  1  0
  3  4  1  0
  4  5  2  0
  4  6  1  0
  6  7  1  0
  7  8  1  0
  8  9  1  0
  8 10  2  0
  7 11  2  0
 11 12  1  0
 12 13  2  0
 13 14  1  0
 14 15  2  0
 15 16  1  0
 16 17  1  0
 17 18  1  0
 18 19  1  0
 19 20  1  0
 19 21  1  0
 21 22  1  0
 15 23  1  0
 23 24  2  0
 24  6  1  0
 24 12  1  0
 22 16  1  0
  1 25  1  0
  1 26  1  0
  1 27  1  0
  2 28  1  0
  2 29  1  0
  9 30  1  0
 11 31  1  0
 13 32  1  0
 14 33  1  0
 17 34  1  0
 17 35  1  0
 18 36  1  0
 18 37  1  0
 20 38  1  0
 20 39  1  0
 20 40  1  0
 21 41  1  0
 21 42  1  0
 22 43  1  0
 22 44  1  0
 23 45  1  0
M  CHG  1   9  -1
M  END
>  <UniqueID>  (76) 
76

>  <SMILES>  (76) 
CCOC(=O)n1c(C([NH-])=O)cc2ccc(N3CCN(C)CC3)cc21

>  <Energy>  (76) 
90.26403272162439

>  <Genealogy>  (76) 
CCOC(=O)n1c(C([NH-])=O)cc2ccc(N3CCN(C)CC3)cc21 (protonated)
CCOC(=O)n1c(C([NH-])=O)cc2ccc(N3CCN(C)CC3)cc21 (3D coordinates assigned)
CCOC(=O)n1c(C([NH-])=O)cc2ccc(N3CCN(C)CC3)cc21 (nonaromatic ring conformer: 90.26403272162439 kcal/mol)

>  <smiles>  (76) 
CCOC(=O)n1c(C(N)=O)cc2ccc(N3CCN(C)CC3)cc21

>  <score_type>  (76) 
oracle

>  <origin>  (76) 
adg

>  <m_score__min__energy>  (76) 
-10.279999999999999

>  <m_primary>  (76) 
energy

$$$$
76:0
     RDKit          3D

 51 52  0  0  0  0  0  0  0  0999 V2000
   -1.5840   23.9770  -28.7390 C   0  0  0  0  0  0  0  0  0  0  0  0
   -2.8320   23.4340  -29.2860 N   0  0  0  0  0  0  0  0  0  0  0  0
   -4.1230   23.9660  -28.8120 C   0  0  0  0  0  0  0  0  0  0  0  0
   -4.7010   24.9870  -29.8150 C   0  0  1  0  0  0  0  0  0  0  0  0
   -3.7610   25.2800  -30.8180 O   0  0  0  0  0  0  0  0  0  0  0  0
   -6.0110   24.4900  -30.4410 C   0  0  0  0  0  0  0  0  0  0  0  0
   -5.9000   24.4740  -31.8380 O   0  0  0  0  0  0  0  0  0  0  0  0
   -2.7800   22.3580  -30.2520 C   0  0  0  0  0  0  0  0  0  0  0  0
   -1.5700   21.6450  -30.4660 C   0  0  0  0  0  0  0  0  0  0  0  0
   -1.5060   20.5960  -31.3980 C   0  0  0  0  0  0  0  0  0  0  0  0
   -2.6630   20.2710  -32.0960 C   0  0  0  0  0  0  0  0  0  0  0  0
   -2.8710   19.3200  -33.0680 C   0  0  0  0  0  0  0  0  0  0  0  0
   -4.2130   19.4420  -33.4200 C   0  0  0  0  0  0  0  0  0  0  0  0
   -4.8820   18.5560  -34.3920 C   0  0  0  0  0  0  0  0  0  0  0  0
   -6.1070   18.9370  -35.0210 N   0  0  0  0  0  0  0  0  0  0  0  0
   -4.3930   17.4190  -34.6320 O   0  0  0  0  0  0  0  0  0  0  0  0
   -4.8080   20.4390  -32.7060 N   0  0  0  0  0  0  0  0  0  0  0  0
   -6.1470   20.9390  -32.8490 C   0  0  0  0  0  0  0  0  0  0  0  0
   -6.3630   22.1780  -32.7660 O   0  0  0  0  0  0  0  0  0  0  0  0
   -7.1990   20.0400  -33.0760 O   0  0  0  0  0  0  0  0  0  0  0  0
   -8.1230   19.5440  -32.0970 C   0  0  0  0  0  0  0  0  0  0  0  0
   -9.4990   19.2750  -32.7360 C   0  0  0  0  0  0  0  0  0  0  0  0
   -8.2800   20.6360  -31.0290 C   0  0  0  0  0  0  0  0  0  0  0  0
   -7.5720   18.2680  -31.4330 C   0  0  0  0  0  0  0  0  0  0  0  0
   -3.8460   20.9350  -31.8960 C   0  0  0  0  0  0  0  0  0  0  0  0
   -3.9320   22.0020  -30.9940 C   0  0  0  0  0  0  0  0  0  0  0  0
   -1.6267   23.9584  -27.6400 H   0  0  0  0  0  0  0  0  0  0  0  0
   -0.7364   23.3663  -29.0834 H   0  0  0  0  0  0  0  0  0  0  0  0
   -1.4530   25.0135  -29.0834 H   0  0  0  0  0  0  0  0  0  0  0  0
   -4.8337   23.1346  -28.6948 H   0  0  0  0  0  0  0  0  0  0  0  0
   -3.9615   24.4728  -27.8491 H   0  0  0  0  0  0  0  0  0  0  0  0
   -4.9257   25.9074  -29.2561 H   0  0  0  0  0  0  0  0  0  0  0  0
   -4.2570   25.6520  -31.5950 H   0  0  0  0  0  0  0  0  0  0  0  0
   -6.2235   23.4725  -30.0810 H   0  0  0  0  0  0  0  0  0  0  0  0
   -6.8284   25.1669  -30.1519 H   0  0  0  0  0  0  0  0  0  0  0  0
   -5.1370   23.8760  -32.0480 H   0  0  0  0  0  0  0  0  0  0  0  0
   -0.6710   21.9181  -29.8940 H   0  0  0  0  0  0  0  0  0  0  0  0
   -0.5679   20.0480  -31.5703 H   0  0  0  0  0  0  0  0  0  0  0  0
   -2.1346   18.6140  -33.4794 H   0  0  0  0  0  0  0  0  0  0  0  0
   -6.6260   19.7910  -34.7180 H   0  0  0  0  0  0  0  0  0  0  0  0
   -6.5440   18.3150  -35.7360 H   0  0  0  0  0  0  0  0  0  0  0  0
  -10.2486   19.1285  -31.9444 H   0  0  0  0  0  0  0  0  0  0  0  0
   -9.7877   20.1337  -33.3599 H   0  0  0  0  0  0  0  0  0  0  0  0
   -9.4431   18.3708  -33.3599 H   0  0  0  0  0  0  0  0  0  0  0  0
   -8.2148   20.1828  -30.0288 H   0  0  0  0  0  0  0  0  0  0  0  0
   -7.4798   21.3816  -31.1465 H   0  0  0  0  0  0  0  0  0  0  0  0
   -9.2578   21.1259  -31.1465 H   0  0  0  0  0  0  0  0  0  0  0  0
   -7.6181   18.3747  -30.3392 H   0  0  0  0  0  0  0  0  0  0  0  0
   -8.1768   17.4030  -31.7428 H   0  0  0  0  0  0  0  0  0  0  0  0
   -6.5277   18.1151  -31.7428 H   0  0  0  0  0  0  0  0  0  0  0  0
   -4.8754   22.5526  -30.8643 H   0  0  0  0  0  0  0  0  0  0  0  0
  1  2  1  0
  2  3  1  0
  3  4  1  0
  4  5  1  0
  4  6  1  0
  6  7  1  0
  2  8  1  0
  8  9  2  0
  9 10  1  0
 10 11  2  0
 11 12  1  0
 12 13  2  0
 13 14  1  0
 14 15  1  0
 14 16  2  0
 13 17  1  0
 17 18  1  0
 18 19  2  0
 18 20  1  0
 20 21  1  0
 21 22  1  0
 21 23  1  0
 21 24  1  0
 17 25  1  0
 25 26  2  0
 26  8  1  0
 25 11  1  0
  1 27  1  0
  1 28  1  0
  1 29  1  0
  3 30  1  0
  3 31  1  0
  4 32  1  1
  5 33  1  0
  6 34  1  0
  6 35  1  0
  7 36  1  0
  9 37  1  0
 10 38  1  0
 12 39  1  0
 15 40  1  0
 15 41  1  0
 22 42  1  0
 22 43  1  0
 22 44  1  0
 23 45  1  0
 23 46  1  0
 23 47  1  0
 24 48  1  0
 24 49  1  0
 24 50  1  0
 26 51  1  0
M  END
>  <UniqueID>  (77) 
77

>  <SMILES>  (77) 
CN(C[C@@H](O)CO)c1ccc2cc(C(N)=O)n(C(=O)OC(C)(C)C)c2c1

>  <Energy>  (77) 
82.61516031555536

>  <Genealogy>  (77) 
CN(C[C@@H](O)CO)c1ccc2cc(C(N)=O)n(C(=O)OC(C)(C)C)c2c1 (chirality)
CN(C[C@@H](O)CO)c1ccc2cc(C(N)=O)n(C(=O)OC(C)(C)C)c2c1 (3D coordinates assigned)
CN(C[C@@H](O)CO)c1ccc2cc(C(N)=O)n(C(=O)OC(C)(C)C)c2c1 (optimized conformer: 82.61516031555536 kcal/mol)

>  <smiles>  (77) 
CN(CC(O)CO)c1ccc2cc(C(N)=O)n(C(=O)OC(C)(C)C)c2c1

>  <score_type>  (77) 
oracle

>  <origin>  (77) 
adg

>  <m_score__min__energy>  (77) 
-8.9100000000000001

>  <m_primary>  (77) 
energy

$$$$
77:0
     RDKit          3D

 33 35  0  0  0  0  0  0  0  0999 V2000
   -6.4460   25.7500  -29.2730 N   0  0  0  0  0  0  0  0  0  0  0  0
   -5.6600   25.1460  -30.3320 C   0  0  0  0  0  0  0  0  0  0  0  0
   -4.6960   25.8370  -30.7160 O   0  0  0  0  0  0  0  0  0  0  0  0
   -6.0330   23.8420  -30.8440 C   0  0  0  0  0  0  0  0  0  0  0  0
   -7.3670   23.4760  -31.0310 C   0  0  0  0  0  0  0  0  0  0  0  0
   -7.4270   22.1950  -31.5230 C   0  0  0  0  0  0  0  0  0  0  0  0
   -8.5130   21.4160  -31.8590 C   0  0  0  0  0  0  0  0  0  0  0  0
   -8.2510   20.1480  -32.3360 C   0  0  0  0  0  0  0  0  0  0  0  0
   -6.9780   19.6590  -32.4780 C   0  0  0  0  0  0  0  0  0  0  0  0
   -6.6380   18.3470  -32.9870 C   0  0  0  0  0  0  0  0  0  0  0  0
   -7.5850   17.3080  -32.9820 C   0  0  0  0  0  0  0  0  0  0  0  0
   -6.9540   16.2550  -33.5180 N   0  0  0  0  0  0  0  0  0  0  0  0
   -5.7240   16.5580  -33.8440 N   0  0  0  0  0  0  0  0  0  0  0  0
   -5.4690   17.8650  -33.5320 C   0  0  0  0  0  0  0  0  0  0  0  0
   -4.1850   18.5770  -33.7440 C   0  0  0  0  0  0  0  0  0  0  0  0
   -3.5140   17.8970  -34.7680 F   0  0  0  0  0  0  0  0  0  0  0  0
   -3.3610   18.5880  -32.6560 F   0  0  0  0  0  0  0  0  0  0  0  0
   -4.3310   19.8590  -34.2270 F   0  0  0  0  0  0  0  0  0  0  0  0
   -5.9180   20.5020  -32.1180 C   0  0  0  0  0  0  0  0  0  0  0  0
   -6.1190   21.7750  -31.6380 C   0  0  0  0  0  0  0  0  0  0  0  0
   -5.3060   22.7920  -31.2200 N   0  0  0  0  0  0  0  0  0  0  0  0
   -3.8980   22.6970  -31.2060 C   0  0  0  0  0  0  0  0  0  0  0  0
   -3.3860   21.5310  -31.3050 O   0  0  0  0  0  0  0  0  0  0  0  0
   -3.0070   23.7280  -31.0970 O   0  0  0  0  0  0  0  0  0  0  0  0
   -6.8620   25.1050  -28.5660 H   0  0  0  0  0  0  0  0  0  0  0  0
   -6.5800   26.7940  -29.2380 H   0  0  0  0  0  0  0  0  0  0  0  0
   -8.2364   24.1151  -30.8172 H   0  0  0  0  0  0  0  0  0  0  0  0
   -9.5425   21.7883  -31.7518 H   0  0  0  0  0  0  0  0  0  0  0  0
   -9.0979   19.5033  -32.6136 H   0  0  0  0  0  0  0  0  0  0  0  0
   -8.6216   17.3506  -32.6164 H   0  0  0  0  0  0  0  0  0  0  0  0
   -5.0610   15.8790  -34.2770 H   0  0  0  0  0  0  0  0  0  0  0  0
   -4.8875   20.1320  -32.2232 H   0  0  0  0  0  0  0  0  0  0  0  0
   -3.1440   24.6160  -31.5920 H   0  0  0  0  0  0  0  0  0  0  0  0
  1  2  1  0
  2  3  2  0
  2  4  1  0
  4  5  2  0
  5  6  1  0
  6  7  2  0
  7  8  1  0
  8  9  2  0
  9 10  1  0
 10 11  1  0
 11 12  2  0
 12 13  1  0
 13 14  1  0
 14 15  1  0
 15 16  1  0
 15 17  1  0
 15 18  1  0
  9 19  1  0
 19 20  2  0
 20 21  1  0
 21 22  1  0
 22 23  2  0
 22 24  1  0
 21  4  1  0
 20  6  1  0
 14 10  2  0
  1 25  1  0
  1 26  1  0
  5 27  1  0
  7 28  1  0
  8 29  1  0
 11 30  1  0
 13 31  1  0
 19 32  1  0
 24 33  1  0
M  END
>  <smiles>  (78) 
NC(=O)c1cc2ccc(-c3cn[nH]c3C(F)(F)F)cc2n1C(=O)O

>  <score_type>  (78) 
oracle

>  <origin>  (78) 
adg

>  <m_score__min__energy>  (78) 
-8.1999999999999993

>  <m_primary>  (78) 
energy

$$$$
78:0
     RDKit          3D

 33 35  0  0  0  0  0  0  0  0999 V2000
   -1.5950   25.7460  -28.6480 N   0  0  0  0  0  0  0  0  0  0  0  0
   -0.9870   24.4850  -28.9130 C   0  0  0  0  0  0  0  0  0  0  0  0
    0.0390   24.1480  -28.2660 O   0  0  0  0  0  0  0  0  0  0  0  0
   -1.5760   23.5460  -29.8910 C   0  0  0  0  0  0  0  0  0  0  0  0
   -0.8850   22.4570  -30.4170 C   0  0  0  0  0  0  0  0  0  0  0  0
   -1.7950   21.7930  -31.2070 C   0  0  0  0  0  0  0  0  0  0  0  0
   -1.6420   20.6450  -31.9770 C   0  0  0  0  0  0  0  0  0  0  0  0
   -2.7460   20.1970  -32.7190 C   0  0  0  0  0  0  0  0  0  0  0  0
   -3.9780   20.9060  -32.6910 C   0  0  0  0  0  0  0  0  0  0  0  0
   -5.1200   20.4750  -33.4570 N   0  0  0  0  0  0  0  0  0  0  0  0
   -5.6370   19.1060  -33.4710 C   0  0  0  0  0  0  0  0  0  0  0  0
   -6.9820   19.0440  -32.8110 C   0  0  0  0  0  0  0  0  0  0  0  0
   -7.8930   20.0740  -32.7030 C   0  0  0  0  0  0  0  0  0  0  0  0
   -8.9530   19.5520  -31.9900 C   0  0  0  0  0  0  0  0  0  0  0  0
   -8.7060   18.2990  -31.6770 O   0  0  0  0  0  0  0  0  0  0  0  0
   -7.5280   17.9640  -32.1510 C   0  0  0  0  0  0  0  0  0  0  0  0
   -4.0910   22.0660  -31.8920 C   0  0  0  0  0  0  0  0  0  0  0  0
   -2.9800   22.4790  -31.1480 C   0  0  0  0  0  0  0  0  0  0  0  0
   -2.8630   23.5610  -30.3460 N   0  0  0  0  0  0  0  0  0  0  0  0
   -3.8700   24.5580  -30.1100 C   0  0  0  0  0  0  0  0  0  0  0  0
   -3.8630   25.6370  -30.7590 O   0  0  0  0  0  0  0  0  0  0  0  0
   -4.8770   24.3290  -29.1810 O   0  0  0  0  0  0  0  0  0  0  0  0
   -2.5650   25.9540  -28.9730 H   0  0  0  0  0  0  0  0  0  0  0  0
    0.1659   22.1853  -30.2386 H   0  0  0  0  0  0  0  0  0  0  0  0
   -0.6844   20.1043  -32.0037 H   0  0  0  0  0  0  0  0  0  0  0  0
   -2.6569   19.2863  -33.3295 H   0  0  0  0  0  0  0  0  0  0  0  0
   -5.6060   21.1720  -34.0650 H   0  0  0  0  0  0  0  0  0  0  0  0
   -5.7292   18.7648  -34.5127 H   0  0  0  0  0  0  0  0  0  0  0  0
   -4.9405   18.4578  -32.9190 H   0  0  0  0  0  0  0  0  0  0  0  0
   -7.7953   21.0949  -33.1008 H   0  0  0  0  0  0  0  0  0  0  0  0
   -9.8677   20.1018  -31.7234 H   0  0  0  0  0  0  0  0  0  0  0  0
   -7.0526   16.9784  -32.0392 H   0  0  0  0  0  0  0  0  0  0  0  0
   -5.0330   22.6328  -31.8556 H   0  0  0  0  0  0  0  0  0  0  0  0
  1  2  1  0
  2  3  2  0
  2  4  1  0
  4  5  2  0
  5  6  1  0
  6  7  2  0
  7  8  1  0
  8  9  2  0
  9 10  1  0
 10 11  1  0
 11 12  1  0
 12 13  1  0
 13 14  2  0
 14 15  1  0
 15 16  1  0
  9 17  1  0
 17 18  2  0
 18 19  1  0
 19 20  1  0
 20 21  2  0
 20 22  1  0
 19  4  1  0
 18  6  1  0
 16 12  2  0
  1 23  1  0
  5 24  1  0
  7 25  1  0
  8 26  1  0
 10 27  1  0
 11 28  1  0
 11 29  1  0
 13 30  1  0
 14 31  1  0
 16 32  1  0
 17 33  1  0
M  CHG  2   1  -1  22  -1
M  END
>  <UniqueID>  (79) 
78

>  <SMILES>  (79) 
[NH-]C(=O)c1cc2ccc(NCc3ccoc3)cc2n1C(=O)[O-]

>  <Energy>  (79) 
100.38555834300101

>  <Genealogy>  (79) 
[NH-]C(=O)c1cc2ccc(NCc3ccoc3)cc2n1C(=O)[O-] (protonated)
[NH-]C(=O)c1cc2ccc(NCc3ccoc3)cc2n1C(=O)[O-] (3D coordinates assigned)
[NH-]C(=O)c1cc2ccc(NCc3ccoc3)cc2n1C(=O)[O-] (optimized conformer: 100.38555834300101 kcal/mol)

>  <smiles>  (79) 
NC(=O)c1cc2ccc(NCc3ccoc3)cc2n1C(=O)O

>  <score_type>  (79) 
oracle

>  <origin>  (79) 
adg

>  <m_score__min__energy>  (79) 
-11

>  <m_primary>  (79) 
energy

$$$$
79:0
     RDKit          3D

 41 43  0  0  0  0  0  0  0  0999 V2000
   -4.9770   24.5500  -28.6890 C   0  0  0  0  0  0  0  0  0  0  0  0
   -4.0610   24.5710  -29.8720 C   0  0  0  0  0  0  0  0  0  0  0  0
   -4.0340   25.5900  -30.6120 O   0  0  0  0  0  0  0  0  0  0  0  0
   -3.1600   23.4820  -30.1250 N   0  0  0  0  0  0  0  0  0  0  0  0
   -1.8100   23.4440  -29.9450 C   0  0  0  0  0  0  0  0  0  0  0  0
   -0.9930   24.4890  -29.2940 C   0  0  0  0  0  0  0  0  0  0  0  0
   -1.5460   25.7670  -28.9890 N   0  0  0  0  0  0  0  0  0  0  0  0
    0.1970   24.2370  -28.9660 O   0  0  0  0  0  0  0  0  0  0  0  0
   -1.2930   22.2300  -30.3920 C   0  0  0  0  0  0  0  0  0  0  0  0
   -2.3790   21.5150  -30.8460 C   0  0  0  0  0  0  0  0  0  0  0  0
   -2.4460   20.2420  -31.4050 C   0  0  0  0  0  0  0  0  0  0  0  0
   -3.7060   19.7640  -31.8000 C   0  0  0  0  0  0  0  0  0  0  0  0
   -4.8700   20.5570  -31.6290 C   0  0  0  0  0  0  0  0  0  0  0  0
   -6.1930   20.0460  -32.0560 C   0  0  0  0  0  0  0  0  0  0  0  0
   -6.2910   18.7500  -32.5860 C   0  0  0  0  0  0  0  0  0  0  0  0
   -7.5370   18.2200  -32.9210 C   0  0  0  0  0  0  0  0  0  0  0  0
   -8.6810   18.9880  -32.7220 C   0  0  0  0  0  0  0  0  0  0  0  0
   -8.5770   20.2470  -32.2250 N   0  0  0  0  0  0  0  0  0  0  0  0
   -7.3780   20.8030  -31.8960 C   0  0  0  0  0  0  0  0  0  0  0  0
   -7.3460   22.1630  -31.4310 N   0  0  0  0  0  0  0  0  0  0  0  0
   -7.7010   22.4460  -30.0410 C   0  0  0  0  0  0  0  0  0  0  0  0
   -7.3440   23.2550  -32.4070 C   0  0  0  0  0  0  0  0  0  0  0  0
   -4.7590   21.8490  -31.0670 C   0  0  0  0  0  0  0  0  0  0  0  0
   -3.4930   22.2930  -30.6720 C   0  0  0  0  0  0  0  0  0  0  0  0
   -4.3817   24.5636  -27.7641 H   0  0  0  0  0  0  0  0  0  0  0  0
   -5.6319   25.4334  -28.7166 H   0  0  0  0  0  0  0  0  0  0  0  0
   -5.5907   23.6375  -28.7166 H   0  0  0  0  0  0  0  0  0  0  0  0
   -2.5800   25.9210  -29.0010 H   0  0  0  0  0  0  0  0  0  0  0  0
   -0.2405   21.9103  -30.3840 H   0  0  0  0  0  0  0  0  0  0  0  0
   -1.5410   19.6300  -31.5332 H   0  0  0  0  0  0  0  0  0  0  0  0
   -3.7915   18.7627  -32.2474 H   0  0  0  0  0  0  0  0  0  0  0  0
   -5.3817   18.1500  -32.7378 H   0  0  0  0  0  0  0  0  0  0  0  0
   -7.6149   17.2052  -33.3383 H   0  0  0  0  0  0  0  0  0  0  0  0
   -9.6702   18.5743  -32.9677 H   0  0  0  0  0  0  0  0  0  0  0  0
   -7.0191   21.9024  -29.3705 H   0  0  0  0  0  0  0  0  0  0  0  0
   -7.6156   23.5265  -29.8534 H   0  0  0  0  0  0  0  0  0  0  0  0
   -8.7353   22.1219  -29.8534 H   0  0  0  0  0  0  0  0  0  0  0  0
   -7.3422   24.2195  -31.8781 H   0  0  0  0  0  0  0  0  0  0  0  0
   -6.4460   23.1812  -33.0380 H   0  0  0  0  0  0  0  0  0  0  0  0
   -8.2423   23.1845  -33.0380 H   0  0  0  0  0  0  0  0  0  0  0  0
   -5.6453   22.4887  -30.9435 H   0  0  0  0  0  0  0  0  0  0  0  0
  1  2  1  0
  2  3  2  0
  2  4  1  0
  4  5  1  0
  5  6  1  0
  6  7  1  0
  6  8  2  0
  5  9  2  0
  9 10  1  0
 10 11  2  0
 11 12  1  0
 12 13  2  0
 13 14  1  0
 14 15  2  0
 15 16  1  0
 16 17  2  0
 17 18  1  0
 18 19  2  0
 19 20  1  0
 20 21  1  0
 20 22  1  0
 13 23  1  0
 23 24  2  0
 24  4  1  0
 24 10  1  0
 19 14  1  0
  1 25  1  0
  1 26  1  0
  1 27  1  0
  7 28  1  0
  9 29  1  0
 11 30  1  0
 12 31  1  0
 15 32  1  0
 16 33  1  0
 17 34  1  0
 21 35  1  0
 21 36  1  0
 21 37  1  0
 22 38  1  0
 22 39  1  0
 22 40  1  0
 23 41  1  0
M  CHG  1   7  -1
M  END
>  <UniqueID>  (80) 
79

>  <SMILES>  (80) 
CC(=O)n1c(C([NH-])=O)cc2ccc(-c3cccnc3N(C)C)cc21

>  <Energy>  (80) 
91.86131673101679

>  <Genealogy>  (80) 
CC(=O)n1c(C([NH-])=O)cc2ccc(-c3cccnc3N(C)C)cc21 (protonated)
CC(=O)n1c(C([NH-])=O)cc2ccc(-c3cccnc3N(C)C)cc21 (3D coordinates assigned)
CC(=O)n1c(C([NH-])=O)cc2ccc(-c3cccnc3N(C)C)cc21 (optimized conformer: 91.86131673101679 kcal/mol)

>  <smiles>  (80) 
CC(=O)n1c(C(N)=O)cc2ccc(-c3cccnc3N(C)C)cc21

>  <score_type>  (80) 
oracle

>  <origin>  (80) 
adg

>  <m_score__min__energy>  (80) 
-10.710000000000001

>  <m_primary>  (80) 
energy

$$$$
80:0
     RDKit          3D

 37 38  0  0  0  0  0  0  0  0999 V2000
   -2.1940   21.6770  -31.3730 C   0  0  0  0  0  0  0  0  0  0  0  0
   -2.0690   21.5360  -32.8850 C   0  0  0  0  0  0  0  0  0  0  0  0
   -3.3250   21.1870  -33.4630 O   0  0  0  0  0  0  0  0  0  0  0  0
   -3.9900   19.9850  -33.1930 C   0  0  0  0  0  0  0  0  0  0  0  0
   -3.3610   18.8920  -33.2090 O   0  0  0  0  0  0  0  0  0  0  0  0
   -5.3970   19.9980  -32.9020 N   0  0  0  0  0  0  0  0  0  0  0  0
   -6.3530   19.1580  -33.3920 C   0  0  0  0  0  0  0  0  0  0  0  0
   -6.1080   17.9520  -34.2070 C   0  0  0  0  0  0  0  0  0  0  0  0
   -5.0100   17.8840  -35.1190 N   0  0  0  0  0  0  0  0  0  0  0  0
   -6.8460   16.9420  -34.0560 O   0  0  0  0  0  0  0  0  0  0  0  0
   -7.6200   19.5600  -32.9790 C   0  0  0  0  0  0  0  0  0  0  0  0
   -7.4110   20.6740  -32.2000 C   0  0  0  0  0  0  0  0  0  0  0  0
   -8.3280   21.4940  -31.5470 C   0  0  0  0  0  0  0  0  0  0  0  0
   -7.8350   22.6060  -30.8470 C   0  0  0  0  0  0  0  0  0  0  0  0
   -6.4450   22.8800  -30.8110 C   0  0  0  0  0  0  0  0  0  0  0  0
   -5.9350   24.1030  -30.1000 C   0  0  0  0  0  0  0  0  0  0  0  0
   -4.5310   23.8540  -29.5430 C   0  0  0  0  0  0  0  0  0  0  0  0
   -3.5870   24.9190  -30.0070 C   0  0  0  0  0  0  0  0  0  0  0  0
   -3.9040   25.6740  -30.9620 O   0  0  0  0  0  0  0  0  0  0  0  0
   -2.3770   25.1080  -29.3510 O   0  0  0  0  0  0  0  0  0  0  0  0
   -5.5450   22.0340  -31.4970 C   0  0  0  0  0  0  0  0  0  0  0  0
   -6.0610   20.9200  -32.1700 C   0  0  0  0  0  0  0  0  0  0  0  0
   -1.5414   20.9408  -30.8809 H   0  0  0  0  0  0  0  0  0  0  0  0
   -1.8934   22.6918  -31.0733 H   0  0  0  0  0  0  0  0  0  0  0  0
   -3.2375   21.5002  -31.0733 H   0  0  0  0  0  0  0  0  0  0  0  0
   -1.7287   22.4918  -33.3101 H   0  0  0  0  0  0  0  0  0  0  0  0
   -1.3432   20.7400  -33.1077 H   0  0  0  0  0  0  0  0  0  0  0  0
   -4.8760   17.0380  -35.7160 H   0  0  0  0  0  0  0  0  0  0  0  0
   -4.2800   18.6300  -35.1420 H   0  0  0  0  0  0  0  0  0  0  0  0
   -8.5828   19.0876  -33.2235 H   0  0  0  0  0  0  0  0  0  0  0  0
   -9.4058   21.2767  -31.5789 H   0  0  0  0  0  0  0  0  0  0  0  0
   -8.5348   23.2719  -30.3208 H   0  0  0  0  0  0  0  0  0  0  0  0
   -5.8996   24.9445  -30.8076 H   0  0  0  0  0  0  0  0  0  0  0  0
   -6.6121   24.3371  -29.2653 H   0  0  0  0  0  0  0  0  0  0  0  0
   -4.5713   23.8597  -28.4438 H   0  0  0  0  0  0  0  0  0  0  0  0
   -4.1726   22.8787  -29.9040 H   0  0  0  0  0  0  0  0  0  0  0  0
   -4.4655   22.2454  -31.5022 H   0  0  0  0  0  0  0  0  0  0  0  0
  1  2  1  0
  2  3  1  0
  3  4  1  0
  4  5  2  0
  4  6  1  0
  6  7  1  0
  7  8  1  0
  8  9  1  0
  8 10  2  0
  7 11  2  0
 11 12  1  0
 12 13  2  0
 13 14  1  0
 14 15  2  0
 15 16  1  0
 16 17  1  0
 17 18  1  0
 18 19  2  0
 18 20  1  0
 15 21  1  0
 21 22  2  0
 22  6  1  0
 22 12  1  0
  1 23  1  0
  1 24  1  0
  1 25  1  0
  2 26  1  0
  2 27  1  0
  9 28  1  0
  9 29  1  0
 11 30  1  0
 13 31  1  0
 14 32  1  0
 16 33  1  0
 16 34  1  0
 17 35  1  0
 17 36  1  0
 21 37  1  0
M  CHG  1  20  -1
M  END
>  <UniqueID>  (81) 
80

>  <SMILES>  (81) 
CCOC(=O)n1c(C(N)=O)cc2ccc(CCC(=O)[O-])cc21

>  <Energy>  (81) 
68.42840579426614

>  <Genealogy>  (81) 
CCOC(=O)n1c(C(N)=O)cc2ccc(CCC(=O)[O-])cc21 (protonated)
CCOC(=O)n1c(C(N)=O)cc2ccc(CCC(=O)[O-])cc21 (3D coordinates assigned)
CCOC(=O)n1c(C(N)=O)cc2ccc(CCC(=O)[O-])cc21 (optimized conformer: 68.42840579426614 kcal/mol)

>  <smiles>  (81) 
CCOC(=O)n1c(C(N)=O)cc2ccc(CCC(=O)O)cc21

>  <score_type>  (81) 
oracle

>  <origin>  (81) 
adg

>  <m_score__min__energy>  (81) 
-9.8200000000000003

>  <m_primary>  (81) 
energy

$$$$
81:0
     RDKit          3D

 36 38  0  0  0  0  0  0  0  0999 V2000
   -3.8340   25.2940  -30.5670 N   0  0  0  0  0  0  0  0  0  0  0  0
   -5.2260   25.0430  -30.3830 C   0  0  0  0  0  0  0  0  0  0  0  0
   -5.9140   25.8550  -29.7090 O   0  0  0  0  0  0  0  0  0  0  0  0
   -5.8570   23.8210  -30.9230 C   0  0  0  0  0  0  0  0  0  0  0  0
   -7.2250   23.7090  -31.1670 C   0  0  0  0  0  0  0  0  0  0  0  0
   -7.4160   22.4090  -31.5770 C   0  0  0  0  0  0  0  0  0  0  0  0
   -8.5840   21.7520  -31.9560 C   0  0  0  0  0  0  0  0  0  0  0  0
   -8.4830   20.4110  -32.3600 C   0  0  0  0  0  0  0  0  0  0  0  0
   -7.2250   19.7590  -32.3950 C   0  0  0  0  0  0  0  0  0  0  0  0
   -7.1310   18.3180  -32.8110 C   0  0  0  0  0  0  0  0  0  0  0  0
   -6.0910   18.1460  -33.8750 C   0  0  0  0  0  0  0  0  0  0  0  0
   -6.0430   18.9130  -34.8240 O   0  0  0  0  0  0  0  0  0  0  0  0
   -6.0630   20.4550  -31.9940 C   0  0  0  0  0  0  0  0  0  0  0  0
   -6.1950   21.7850  -31.5770 C   0  0  0  0  0  0  0  0  0  0  0  0
   -5.2280   22.6400  -31.1790 N   0  0  0  0  0  0  0  0  0  0  0  0
   -3.8200   22.3600  -31.1290 C   0  0  0  0  0  0  0  0  0  0  0  0
   -3.1500   22.3250  -32.1960 O   0  0  0  0  0  0  0  0  0  0  0  0
   -3.1820   22.1540  -29.8620 N   0  0  0  0  0  0  0  0  0  0  0  0
   -2.4920   23.1420  -29.0830 C   0  0  0  0  0  0  0  0  0  0  0  0
   -3.0590   23.7270  -27.9370 C   0  0  0  0  0  0  0  0  0  0  0  0
   -2.3530   24.7030  -27.2320 C   0  0  0  0  0  0  0  0  0  0  0  0
   -1.0920   25.0980  -27.6850 C   0  0  0  0  0  0  0  0  0  0  0  0
   -0.5680   24.5400  -28.8080 N   0  0  0  0  0  0  0  0  0  0  0  0
   -1.2370   23.5880  -29.5110 C   0  0  0  0  0  0  0  0  0  0  0  0
   -3.5060   26.0430  -31.2150 H   0  0  0  0  0  0  0  0  0  0  0  0
   -7.9890   24.4926  -31.0556 H   0  0  0  0  0  0  0  0  0  0  0  0
   -9.5555   22.2676  -31.9394 H   0  0  0  0  0  0  0  0  0  0  0  0
   -9.3896   19.8608  -32.6523 H   0  0  0  0  0  0  0  0  0  0  0  0
   -6.8603   17.7061  -31.9379 H   0  0  0  0  0  0  0  0  0  0  0  0
   -8.1049   17.9988  -33.2105 H   0  0  0  0  0  0  0  0  0  0  0  0
   -5.3652   17.3228  -33.8010 H   0  0  0  0  0  0  0  0  0  0  0  0
   -5.0787   19.9641  -32.0090 H   0  0  0  0  0  0  0  0  0  0  0  0
   -4.0576   23.4159  -27.5965 H   0  0  0  0  0  0  0  0  0  0  0  0
   -2.7855   25.1569  -26.3282 H   0  0  0  0  0  0  0  0  0  0  0  0
   -0.5232   25.8606  -27.1328 H   0  0  0  0  0  0  0  0  0  0  0  0
   -0.7886   23.1656  -30.4223 H   0  0  0  0  0  0  0  0  0  0  0  0
  1  2  1  0
  2  3  2  0
  2  4  1  0
  4  5  2  0
  5  6  1  0
  6  7  2  0
  7  8  1  0
  8  9  2  0
  9 10  1  0
 10 11  1  0
 11 12  2  0
  9 13  1  0
 13 14  2  0
 14 15  1  0
 15 16  1  0
 16 17  2  0
 16 18  1  0
 18 19  1  0
 19 20  2  0
 20 21  1  0
 21 22  2  0
 22 23  1  0
 23 24  2  0
 15  4  1  0
 24 19  1  0
 14  6  1  0
  1 25  1  0
  5 26  1  0
  7 27  1  0
  8 28  1  0
 10 29  1  0
 10 30  1  0
 11 31  1  0
 13 32  1  0
 20 33  1  0
 21 34  1  0
 22 35  1  0
 24 36  1  0
M  CHG  2   1  -1  18  -1
M  END
>  <UniqueID>  (82) 
81

>  <SMILES>  (82) 
[NH-]C(=O)c1cc2ccc(CC=O)cc2n1C(=O)[N-]c1cccnc1

>  <Energy>  (82) 
80.5000056043952

>  <Genealogy>  (82) 
[NH-]C(=O)c1cc2ccc(CC=O)cc2n1C(=O)[N-]c1cccnc1 (protonated)
[NH-]C(=O)c1cc2ccc(CC=O)cc2n1C(=O)[N-]c1cccnc1 (3D coordinates assigned)
[NH-]C(=O)c1cc2ccc(CC=O)cc2n1C(=O)[N-]c1cccnc1 (optimized conformer: 80.5000056043952 kcal/mol)

>  <smiles>  (82) 
NC(=O)c1cc2ccc(CC=O)cc2n1C(=O)Nc1cccnc1

>  <score_type>  (82) 
oracle

>  <origin>  (82) 
adg

>  <m_score__min__energy>  (82) 
-11.52

>  <m_primary>  (82) 
energy

$$$$
82:0
     RDKit          3D

 31 33  0  0  0  0  0  0  0  0999 V2000
   -4.2230   25.5380  -30.6380 N   0  0  0  0  0  0  0  0  0  0  0  0
   -5.5400   25.0800  -30.3290 C   0  0  0  0  0  0  0  0  0  0  0  0
   -6.2260   25.7030  -29.4730 O   0  0  0  0  0  0  0  0  0  0  0  0
   -6.0890   23.8550  -30.9440 C   0  0  0  0  0  0  0  0  0  0  0  0
   -7.4510   23.5810  -31.0170 C   0  0  0  0  0  0  0  0  0  0  0  0
   -7.5390   22.3340  -31.5930 C   0  0  0  0  0  0  0  0  0  0  0  0
   -8.6610   21.5770  -31.9150 C   0  0  0  0  0  0  0  0  0  0  0  0
   -8.4610   20.3360  -32.5420 C   0  0  0  0  0  0  0  0  0  0  0  0
   -7.1500   19.8780  -32.8440 C   0  0  0  0  0  0  0  0  0  0  0  0
   -6.9290   18.6150  -33.4960 N   0  0  0  0  0  0  0  0  0  0  0  0
   -6.8870   17.3430  -32.7780 C   0  0  0  0  0  0  0  0  0  0  0  0
   -5.4930   16.9300  -32.3370 C   0  0  0  0  0  0  0  0  0  0  0  0
   -6.4770   17.4870  -31.3220 C   0  0  0  0  0  0  0  0  0  0  0  0
   -6.0380   20.6790  -32.5020 C   0  0  0  0  0  0  0  0  0  0  0  0
   -6.2640   21.9020  -31.8580 C   0  0  0  0  0  0  0  0  0  0  0  0
   -5.3600   22.8280  -31.4670 N   0  0  0  0  0  0  0  0  0  0  0  0
   -3.9380   22.7820  -31.6720 C   0  0  0  0  0  0  0  0  0  0  0  0
   -3.4620   22.2550  -32.7120 O   0  0  0  0  0  0  0  0  0  0  0  0
   -3.0710   23.3170  -30.7270 O   0  0  0  0  0  0  0  0  0  0  0  0
   -3.8660   26.4270  -30.2220 H   0  0  0  0  0  0  0  0  0  0  0  0
   -3.5710   24.9570  -31.2100 H   0  0  0  0  0  0  0  0  0  0  0  0
   -8.2801   24.2234  -30.6854 H   0  0  0  0  0  0  0  0  0  0  0  0
   -9.6740   21.9393  -31.6856 H   0  0  0  0  0  0  0  0  0  0  0  0
   -9.3286   19.7119  -32.8021 H   0  0  0  0  0  0  0  0  0  0  0  0
   -6.8770   18.5890  -34.5390 H   0  0  0  0  0  0  0  0  0  0  0  0
   -7.7103   16.8503  -33.3160 H   0  0  0  0  0  0  0  0  0  0  0  0
   -5.2178   15.8654  -32.3093 H   0  0  0  0  0  0  0  0  0  0  0  0
   -4.4702   17.1863  -32.6504 H   0  0  0  0  0  0  0  0  0  0  0  0
   -6.9142   16.8256  -30.5595 H   0  0  0  0  0  0  0  0  0  0  0  0
   -6.4617   18.3135  -30.5963 H   0  0  0  0  0  0  0  0  0  0  0  0
   -5.0153   20.3489  -32.7367 H   0  0  0  0  0  0  0  0  0  0  0  0
  1  2  1  0
  2  3  2  0
  2  4  1  0
  4  5  2  0
  5  6  1  0
  6  7  2  0
  7  8  1  0
  8  9  2  0
  9 10  1  0
 10 11  1  0
 11 12  1  0
 12 13  1  0
  9 14  1  0
 14 15  2  0
 15 16  1  0
 16 17  1  0
 17 18  2  0
 17 19  1  0
 16  4  1  0
 15  6  1  0
 13 11  1  0
  1 20  1  0
  1 21  1  0
  5 22  1  0
  7 23  1  0
  8 24  1  0
 10 25  1  0
 11 26  1  0
 12 27  1  0
 12 28  1  0
 13 29  1  0
 13 30  1  0
 14 31  1  0
M  CHG  1  19  -1
M  END
>  <UniqueID>  (83) 
82

>  <SMILES>  (83) 
NC(=O)c1cc2ccc(NC3CC3)cc2n1C(=O)[O-]

>  <Energy>  (83) 
336.4980175942063

>  <Genealogy>  (83) 
NC(=O)c1cc2ccc(NC3CC3)cc2n1C(=O)[O-] (protonated)
NC(=O)c1cc2ccc(NC3CC3)cc2n1C(=O)[O-] (3D coordinates assigned)
NC(=O)c1cc2ccc(NC3CC3)cc2n1C(=O)[O-] (nonaromatic ring conformer: 336.4980175942063 kcal/mol)

>  <smiles>  (83) 
NC(=O)c1cc2ccc(NC3CC3)cc2n1C(=O)O

>  <score_type>  (83) 
oracle

>  <origin>  (83) 
adg

>  <m_score__min__energy>  (83) 
-8.5

>  <m_primary>  (83) 
energy

$$$$
83:0
     RDKit          3D

 37 38  0  0  0  0  0  0  0  0999 V2000
   -1.3220   25.1980  -29.2660 N   0  0  0  0  0  0  0  0  0  0  0  0
   -1.1850   23.7770  -29.2970 C   0  0  0  0  0  0  0  0  0  0  0  0
   -0.2290   23.2360  -28.6810 O   0  0  0  0  0  0  0  0  0  0  0  0
   -2.1030   22.9380  -30.0940 C   0  0  0  0  0  0  0  0  0  0  0  0
   -1.7650   21.6730  -30.5670 C   0  0  0  0  0  0  0  0  0  0  0  0
   -2.8470   21.2640  -31.3110 C   0  0  0  0  0  0  0  0  0  0  0  0
   -3.0510   20.0800  -32.0130 C   0  0  0  0  0  0  0  0  0  0  0  0
   -4.2770   19.9120  -32.6800 C   0  0  0  0  0  0  0  0  0  0  0  0
   -5.2740   20.9170  -32.6190 C   0  0  0  0  0  0  0  0  0  0  0  0
   -6.5670   20.7400  -33.3700 C   0  0  0  0  0  0  0  0  0  0  0  0
   -7.7780   20.6120  -32.4300 C   0  0  0  0  0  0  0  0  0  0  0  0
   -8.6770   19.4000  -32.7490 C   0  0  0  0  0  0  0  0  0  0  0  0
   -8.4830   18.2490  -31.7500 C   0  0  0  0  0  0  0  0  0  0  0  0
   -7.1490   17.5420  -31.9780 C   0  0  0  0  0  0  0  0  0  0  0  0
   -6.3190   17.7570  -30.8940 F   0  0  0  0  0  0  0  0  0  0  0  0
   -5.0320   22.1050  -31.8930 C   0  0  0  0  0  0  0  0  0  0  0  0
   -3.7920   22.2570  -31.2610 C   0  0  0  0  0  0  0  0  0  0  0  0
   -3.3490   23.2940  -30.5130 N   0  0  0  0  0  0  0  0  0  0  0  0
   -4.0900   24.4700  -30.1430 C   0  0  0  0  0  0  0  0  0  0  0  0
   -4.9080   24.4360  -29.1860 O   0  0  0  0  0  0  0  0  0  0  0  0
   -3.9060   25.6610  -30.8370 O   0  0  0  0  0  0  0  0  0  0  0  0
   -0.6870   25.7730  -28.6700 H   0  0  0  0  0  0  0  0  0  0  0  0
   -1.9960   25.6880  -29.8950 H   0  0  0  0  0  0  0  0  0  0  0  0
   -0.8322   21.1192  -30.3847 H   0  0  0  0  0  0  0  0  0  0  0  0
   -2.2766   19.2994  -32.0450 H   0  0  0  0  0  0  0  0  0  0  0  0
   -4.4639   18.9925  -33.2542 H   0  0  0  0  0  0  0  0  0  0  0  0
   -6.7179   21.6115  -34.0240 H   0  0  0  0  0  0  0  0  0  0  0  0
   -6.4930   19.8086  -33.9506 H   0  0  0  0  0  0  0  0  0  0  0  0
   -7.4094   20.5105  -31.3986 H   0  0  0  0  0  0  0  0  0  0  0  0
   -8.3910   21.5152  -32.5661 H   0  0  0  0  0  0  0  0  0  0  0  0
   -9.7284   19.7218  -32.7176 H   0  0  0  0  0  0  0  0  0  0  0  0
   -8.3991   19.0292  -33.7466 H   0  0  0  0  0  0  0  0  0  0  0  0
   -8.5050   18.6534  -30.7273 H   0  0  0  0  0  0  0  0  0  0  0  0
   -9.2939   17.5201  -31.8951 H   0  0  0  0  0  0  0  0  0  0  0  0
   -7.3226   16.4624  -32.0977 H   0  0  0  0  0  0  0  0  0  0  0  0
   -6.6744   17.9416  -32.8863 H   0  0  0  0  0  0  0  0  0  0  0  0
   -5.7988   22.8908  -31.8261 H   0  0  0  0  0  0  0  0  0  0  0  0
  1  2  1  0
  2  3  2  0
  2  4  1  0
  4  5  2  0
  5  6  1  0
  6  7  2  0
  7  8  1  0
  8  9  2  0
  9 10  1  0
 10 11  1  0
 11 12  1  0
 12 13  1  0
 13 14  1  0
 14 15  1  0
  9 16  1  0
 16 17  2  0
 17 18  1  0
 18 19  1  0
 19 20  2  0
 19 21  1  0
 18  4  1  0
 17  6  1  0
  1 22  1  0
  1 23  1  0
  5 24  1  0
  7 25  1  0
  8 26  1  0
 10 27  1  0
 10 28  1  0
 11 29  1  0
 11 30  1  0
 12 31  1  0
 12 32  1  0
 13 33  1  0
 13 34  1  0
 14 35  1  0
 14 36  1  0
 16 37  1  0
M  CHG  1  21  -1
M  END
>  <UniqueID>  (84) 
83

>  <SMILES>  (84) 
NC(=O)c1cc2ccc(CCCCCF)cc2n1C(=O)[O-]

>  <Energy>  (84) 
69.2513819700371

>  <Genealogy>  (84) 
NC(=O)c1cc2ccc(CCCCCF)cc2n1C(=O)[O-] (protonated)
NC(=O)c1cc2ccc(CCCCCF)cc2n1C(=O)[O-] (3D coordinates assigned)
NC(=O)c1cc2ccc(CCCCCF)cc2n1C(=O)[O-] (optimized conformer: 69.2513819700371 kcal/mol)

>  <smiles>  (84) 
NC(=O)c1cc2ccc(CCCCCF)cc2n1C(=O)O

>  <score_type>  (84) 
oracle

>  <origin>  (84) 
adg

>  <m_score__min__energy>  (84) 
-8.5299999999999994

>  <m_primary>  (84) 
energy

$$$$
84:0
     RDKit          3D

 59 63  0  0  0  0  0  0  0  0999 V2000
   -0.9190   21.0270  -27.6420 C   0  0  0  0  0  0  0  0  0  0  0  0
   -0.1020   21.9160  -28.2040 C   0  0  0  0  0  0  0  0  0  0  0  0
   -0.5940   23.1520  -28.8420 C   0  0  0  0  0  0  0  0  0  0  0  0
    0.1280   24.1870  -28.8650 O   0  0  0  0  0  0  0  0  0  0  0  0
   -1.8880   23.1790  -29.4680 N   0  0  0  0  0  0  0  0  0  0  0  0
   -3.0610   23.5940  -28.9140 C   0  0  0  0  0  0  0  0  0  0  0  0
   -3.2090   24.2710  -27.6100 C   0  0  0  0  0  0  0  0  0  0  0  0
   -2.1270   24.9960  -27.0210 N   0  0  0  0  0  0  0  0  0  0  0  0
   -4.3250   24.2490  -27.0250 O   0  0  0  0  0  0  0  0  0  0  0  0
   -4.1330   23.3020  -29.7560 C   0  0  0  0  0  0  0  0  0  0  0  0
   -3.5750   22.6910  -30.8560 C   0  0  0  0  0  0  0  0  0  0  0  0
   -4.1840   22.1550  -31.9860 C   0  0  0  0  0  0  0  0  0  0  0  0
   -3.3680   21.5170  -32.9350 C   0  0  0  0  0  0  0  0  0  0  0  0
   -1.9690   21.4120  -32.7310 C   0  0  0  0  0  0  0  0  0  0  0  0
   -1.1180   20.7270  -33.7350 C   0  0  0  0  0  0  0  0  0  0  0  0
   -0.4700   21.5100  -34.7080 C   0  0  0  0  0  0  0  0  0  0  0  0
    0.4190   20.9290  -35.6140 C   0  0  0  0  0  0  0  0  0  0  0  0
    0.6790   19.5600  -35.5580 C   0  0  0  0  0  0  0  0  0  0  0  0
    1.5490   19.0010  -36.4340 F   0  0  0  0  0  0  0  0  0  0  0  0
    0.0370   18.7640  -34.6080 C   0  0  0  0  0  0  0  0  0  0  0  0
   -0.8790   19.3260  -33.7020 C   0  0  0  0  0  0  0  0  0  0  0  0
   -1.5840   18.4230  -32.7660 C   0  0  0  0  0  0  0  0  0  0  0  0
   -1.1960   18.3160  -31.5710 O   0  0  0  0  0  0  0  0  0  0  0  0
   -2.6950   17.6990  -33.2150 O   0  0  0  0  0  0  0  0  0  0  0  0
   -3.9530   18.3060  -33.5040 C   0  0  1  0  0  0  0  0  0  0  0  0
   -4.3590   18.0990  -34.9500 C   0  0  0  0  0  0  0  0  0  0  0  0
   -5.7630   18.0270  -35.0100 O   0  0  0  0  0  0  0  0  0  0  0  0
   -6.2080   17.5990  -33.7380 C   0  0  1  0  0  0  0  0  0  0  0  0
   -5.0620   17.6250  -32.7490 C   0  0  2  0  0  0  0  0  0  0  0  0
   -5.4270   18.3700  -31.6070 O   0  0  0  0  0  0  0  0  0  0  0  0
   -6.8180   18.5690  -31.6820 C   0  0  0  0  0  0  0  0  0  0  0  0
   -7.2300   18.5450  -33.1420 C   0  0  1  0  0  0  0  0  0  0  0  0
   -7.0930   19.8530  -33.6770 O   0  0  0  0  0  0  0  0  0  0  0  0
   -7.2720   20.8190  -32.6650 C   0  0  0  0  0  0  0  0  0  0  0  0
   -1.3850   21.9840  -31.5780 C   0  0  0  0  0  0  0  0  0  0  0  0
   -2.2200   22.6260  -30.6570 C   0  0  0  0  0  0  0  0  0  0  0  0
   -0.5077   20.1187  -27.1775 H   0  0  0  0  0  0  0  0  0  0  0  0
   -2.0051   21.2011  -27.6423 H   0  0  0  0  0  0  0  0  0  0  0  0
    0.9806   21.7214  -28.1921 H   0  0  0  0  0  0  0  0  0  0  0  0
   -1.2530   25.1920  -27.5570 H   0  0  0  0  0  0  0  0  0  0  0  0
   -2.2380   25.4240  -26.0760 H   0  0  0  0  0  0  0  0  0  0  0  0
   -5.1977   23.5145  -29.5791 H   0  0  0  0  0  0  0  0  0  0  0  0
   -5.2718   22.2285  -32.1321 H   0  0  0  0  0  0  0  0  0  0  0  0
   -3.8189   21.0948  -33.8452 H   0  0  0  0  0  0  0  0  0  0  0  0
   -0.6660   22.5914  -34.7553 H   0  0  0  0  0  0  0  0  0  0  0  0
    0.9151   21.5518  -36.3730 H   0  0  0  0  0  0  0  0  0  0  0  0
    0.2501   17.6856  -34.5679 H   0  0  0  0  0  0  0  0  0  0  0  0
   -3.8245   19.3669  -33.2433 H   0  0  0  0  0  0  0  0  0  0  0  0
   -4.0036   18.9424  -35.5603 H   0  0  0  0  0  0  0  0  0  0  0  0
   -3.9155   17.1703  -35.3384 H   0  0  0  0  0  0  0  0  0  0  0  0
   -6.6300   16.5953  -33.8943 H   0  0  0  0  0  0  0  0  0  0  0  0
   -4.7732   16.6261  -32.3902 H   0  0  0  0  0  0  0  0  0  0  0  0
   -7.3374   17.7672  -31.1367 H   0  0  0  0  0  0  0  0  0  0  0  0
   -7.0851   19.5361  -31.2310 H   0  0  0  0  0  0  0  0  0  0  0  0
   -8.2677   18.2340  -33.3331 H   0  0  0  0  0  0  0  0  0  0  0  0
   -7.1830   20.3385  -31.6795 H   0  0  0  0  0  0  0  0  0  0  0  0
   -6.5032   21.5996  -32.7631 H   0  0  0  0  0  0  0  0  0  0  0  0
   -8.2694   21.2723  -32.7631 H   0  0  0  0  0  0  0  0  0  0  0  0
   -0.2997   21.9258  -31.4087 H   0  0  0  0  0  0  0  0  0  0  0  0
  1  2  2  0
  2  3  1  0
  3  4  2  0
  3  5  1  0
  5  6  1  0
  6  7  1  0
  7  8  1  0
  7  9  2  0
  6 10  2  0
 10 11  1  0
 11 12  2  0
 12 13  1  0
 13 14  2  0
 14 15  1  0
 15 16  2  0
 16 17  1  0
 17 18  2  0
 18 19  1  0
 18 20  1  0
 20 21  2  0
 21 22  1  0
 22 23  2  0
 22 24  1  0
 24 25  1  0
 25 26  1  0
 26 27  1  0
 27 28  1  0
 28 29  1  0
 29 30  1  0
 30 31  1  0
 31 32  1  0
 32 33  1  0
 33 34  1  0
 14 35  1  0
 35 36  2  0
 36  5  1  0
 36 11  1  0
 21 15  1  0
 29 25  1  0
 32 28  1  0
  1 37  1  0
  1 38  1  0
  2 39  1  0
  8 40  1  0
  8 41  1  0
 10 42  1  0
 12 43  1  0
 13 44  1  0
 16 45  1  0
 17 46  1  0
 20 47  1  0
 25 48  1  1
 26 49  1  0
 26 50  1  0
 28 51  1  6
 29 52  1  1
 31 53  1  0
 31 54  1  0
 32 55  1  1
 34 56  1  0
 34 57  1  0
 34 58  1  0
 35 59  1  0
M  END
>  <UniqueID>  (85) 
84

>  <SMILES>  (85) 
C=CC(=O)n1c(C(N)=O)cc2ccc(-c3ccc(F)cc3C(=O)O[C@H]3CO[C@H]4[C@@H]3OC[C@H]4OC)cc21

>  <Energy>  (85) 
114.99384692717632

>  <Genealogy>  (85) 
C=CC(=O)n1c(C(N)=O)cc2ccc(-c3ccc(F)cc3C(=O)O[C@H]3CO[C@H]4[C@@H]3OC[C@H]4OC)cc21 (chirality)
C=CC(=O)n1c(C(N)=O)cc2ccc(-c3ccc(F)cc3C(=O)O[C@H]3CO[C@H]4[C@@H]3OC[C@H]4OC)cc21 (3D coordinates assigned)
C=CC(=O)n1c(C(N)=O)cc2ccc(-c3ccc(F)cc3C(=O)O[C@H]3CO[C@H]4[C@@H]3OC[C@H]4OC)cc21 (nonaromatic ring conformer: 114.99384692717632 kcal/mol)

>  <smiles>  (85) 
C=CC(=O)n1c(C(N)=O)cc2ccc(-c3ccc(F)cc3C(=O)O[C@H]3CO[C@H]4C3OC[C@H]4OC)cc21

>  <score_type>  (85) 
oracle

>  <origin>  (85) 
adg

>  <m_score__min__energy>  (85) 
-10.65

>  <m_primary>  (85) 
energy

$$$$
85:0
     RDKit          3D

 45 47  0  0  0  0  0  0  0  0999 V2000
   -4.7320   25.4200  -30.8030 C   0  0  0  0  0  0  0  0  0  0  0  0
   -5.9020   24.6700  -30.1530 C   0  0  0  0  0  0  0  0  0  0  0  0
   -6.7930   25.6320  -29.3550 C   0  0  0  0  0  0  0  0  0  0  0  0
   -5.4250   23.4680  -29.3070 C   0  0  0  0  0  0  0  0  0  0  0  0
   -3.9760   23.5490  -28.8990 C   0  0  0  0  0  0  0  0  0  0  0  0
   -3.6580   24.2040  -27.8710 O   0  0  0  0  0  0  0  0  0  0  0  0
   -2.9490   22.9460  -29.7010 N   0  0  0  0  0  0  0  0  0  0  0  0
   -1.6190   23.2430  -29.7300 C   0  0  0  0  0  0  0  0  0  0  0  0
   -0.9760   24.3920  -29.0620 C   0  0  0  0  0  0  0  0  0  0  0  0
   -1.6350   25.6530  -28.9810 N   0  0  0  0  0  0  0  0  0  0  0  0
    0.1890   24.2730  -28.5960 O   0  0  0  0  0  0  0  0  0  0  0  0
   -0.9420   22.3640  -30.5730 C   0  0  0  0  0  0  0  0  0  0  0  0
   -1.9100   21.5260  -31.0800 C   0  0  0  0  0  0  0  0  0  0  0  0
   -1.7990   20.4560  -31.9630 C   0  0  0  0  0  0  0  0  0  0  0  0
   -2.9700   19.7510  -32.2930 C   0  0  0  0  0  0  0  0  0  0  0  0
   -4.2220   20.1310  -31.7460 C   0  0  0  0  0  0  0  0  0  0  0  0
   -5.4480   19.3630  -32.0700 C   0  0  0  0  0  0  0  0  0  0  0  0
   -5.3930   17.9590  -32.0350 C   0  0  0  0  0  0  0  0  0  0  0  0
   -6.5190   17.1970  -32.3460 C   0  0  0  0  0  0  0  0  0  0  0  0
   -7.7160   17.8230  -32.6900 C   0  0  0  0  0  0  0  0  0  0  0  0
   -7.8030   19.2180  -32.7200 C   0  0  0  0  0  0  0  0  0  0  0  0
   -9.0280   19.7970  -33.0590 O   0  0  0  0  0  0  0  0  0  0  0  0
   -6.6690   20.0010  -32.4050 C   0  0  0  0  0  0  0  0  0  0  0  0
   -6.7750   21.4430  -32.3820 C   0  0  0  0  0  0  0  0  0  0  0  0
   -6.8600   22.5960  -32.3610 N   0  0  0  0  0  0  0  0  0  0  0  0
   -4.2930   21.2220  -30.8520 C   0  0  0  0  0  0  0  0  0  0  0  0
   -3.1120   21.9040  -30.5430 C   0  0  0  0  0  0  0  0  0  0  0  0
   -4.0825   25.8364  -30.0189 H   0  0  0  0  0  0  0  0  0  0  0  0
   -4.1526   24.7246  -31.4281 H   0  0  0  0  0  0  0  0  0  0  0  0
   -5.1220   26.2368  -31.4281 H   0  0  0  0  0  0  0  0  0  0  0  0
   -6.5175   24.2464  -30.9603 H   0  0  0  0  0  0  0  0  0  0  0  0
   -6.6395   25.4662  -28.2785 H   0  0  0  0  0  0  0  0  0  0  0  0
   -6.5301   26.6699  -29.6073 H   0  0  0  0  0  0  0  0  0  0  0  0
   -7.8480   25.4493  -29.6073 H   0  0  0  0  0  0  0  0  0  0  0  0
   -6.0397   23.4191  -28.3961 H   0  0  0  0  0  0  0  0  0  0  0  0
   -5.5317   22.5713  -29.9351 H   0  0  0  0  0  0  0  0  0  0  0  0
   -2.6730   25.7230  -29.0650 H   0  0  0  0  0  0  0  0  0  0  0  0
    0.1366   22.3438  -30.7879 H   0  0  0  0  0  0  0  0  0  0  0  0
   -0.8259   20.1708  -32.3893 H   0  0  0  0  0  0  0  0  0  0  0  0
   -2.9144   18.8958  -32.9826 H   0  0  0  0  0  0  0  0  0  0  0  0
   -4.4538   17.4568  -31.7599 H   0  0  0  0  0  0  0  0  0  0  0  0
   -6.4623   16.0988  -32.3197 H   0  0  0  0  0  0  0  0  0  0  0  0
   -8.5982   17.2152  -32.9396 H   0  0  0  0  0  0  0  0  0  0  0  0
   -9.4570   19.6840  -33.9690 H   0  0  0  0  0  0  0  0  0  0  0  0
   -5.2529   21.5275  -30.4100 H   0  0  0  0  0  0  0  0  0  0  0  0
  1  2  1  0
  2  3  1  0
  2  4  1  0
  4  5  1  0
  5  6  2  0
  5  7  1  0
  7  8  1  0
  8  9  1  0
  9 10  1  0
  9 11  2  0
  8 12  2  0
 12 13  1  0
 13 14  2  0
 14 15  1  0
 15 16  2  0
 16 17  1  0
 17 18  2  0
 18 19  1  0
 19 20  2  0
 20 21  1  0
 21 22  1  0
 21 23  2  0
 23 24  1  0
 24 25  3  0
 16 26  1  0
 26 27  2  0
 27  7  1  0
 27 13  1  0
 23 17  1  0
  1 28  1  0
  1 29  1  0
  1 30  1  0
  2 31  1  0
  3 32  1  0
  3 33  1  0
  3 34  1  0
  4 35  1  0
  4 36  1  0
 10 37  1  0
 12 38  1  0
 14 39  1  0
 15 40  1  0
 18 41  1  0
 19 42  1  0
 20 43  1  0
 22 44  1  0
 26 45  1  0
M  CHG  1  10  -1
M  END
>  <UniqueID>  (86) 
85

>  <SMILES>  (86) 
CC(C)CC(=O)n1c(C([NH-])=O)cc2ccc(-c3cccc(O)c3C#N)cc21

>  <Energy>  (86) 
88.85021391353008

>  <Genealogy>  (86) 
CC(C)CC(=O)n1c(C([NH-])=O)cc2ccc(-c3cccc(O)c3C#N)cc21 (protonated)
CC(C)CC(=O)n1c(C([NH-])=O)cc2ccc(-c3cccc(O)c3C#N)cc21 (3D coordinates assigned)
CC(C)CC(=O)n1c(C([NH-])=O)cc2ccc(-c3cccc(O)c3C#N)cc21 (optimized conformer: 88.85021391353008 kcal/mol)

>  <smiles>  (86) 
CC(C)CC(=O)n1c(C(N)=O)cc2ccc(-c3cccc(O)c3C#N)cc21

>  <score_type>  (86) 
oracle

>  <origin>  (86) 
adg

>  <m_score__min__energy>  (86) 
-11.85

>  <m_primary>  (86) 
energy

$$$$
86:0
     RDKit          3D

 56 59  0  0  0  0  0  0  0  0999 V2000
   -3.9310   23.4790  -27.6160 C   0  0  0  0  0  0  0  0  0  0  0  0
   -2.9920   22.5080  -28.3220 C   0  0  0  0  0  0  0  0  0  0  0  0
   -3.0920   22.6410  -29.7390 O   0  0  0  0  0  0  0  0  0  0  0  0
   -3.8700   23.6170  -30.3700 C   0  0  0  0  0  0  0  0  0  0  0  0
   -3.4560   24.8040  -30.4700 O   0  0  0  0  0  0  0  0  0  0  0  0
   -5.1650   23.2710  -30.8780 N   0  0  0  0  0  0  0  0  0  0  0  0
   -6.3000   24.0250  -30.8510 C   0  0  0  0  0  0  0  0  0  0  0  0
   -6.4410   25.3380  -30.1770 C   0  0  0  0  0  0  0  0  0  0  0  0
   -5.5460   26.4150  -30.4700 N   0  0  0  0  0  0  0  0  0  0  0  0
   -7.3700   25.5290  -29.3500 O   0  0  0  0  0  0  0  0  0  0  0  0
   -7.3410   23.3550  -31.4970 C   0  0  0  0  0  0  0  0  0  0  0  0
   -6.7970   22.1670  -31.9330 C   0  0  0  0  0  0  0  0  0  0  0  0
   -7.3720   21.1340  -32.6670 C   0  0  0  0  0  0  0  0  0  0  0  0
   -6.5540   20.0510  -33.0300 C   0  0  0  0  0  0  0  0  0  0  0  0
   -5.1850   20.0320  -32.6670 C   0  0  0  0  0  0  0  0  0  0  0  0
   -4.3190   18.9170  -33.0990 C   0  0  0  0  0  0  0  0  0  0  0  0
   -4.6380   17.5690  -32.7910 C   0  0  0  0  0  0  0  0  0  0  0  0
   -5.8860   17.2130  -32.0040 C   0  0  0  0  0  0  0  0  0  0  0  0
   -5.7310   15.9760  -31.4070 F   0  0  0  0  0  0  0  0  0  0  0  0
   -6.9760   17.1760  -32.8530 F   0  0  0  0  0  0  0  0  0  0  0  0
   -6.1450   18.1380  -31.0070 F   0  0  0  0  0  0  0  0  0  0  0  0
   -3.7650   16.5540  -33.2240 C   0  0  0  0  0  0  0  0  0  0  0  0
   -2.6190   16.8580  -33.9570 C   0  0  0  0  0  0  0  0  0  0  0  0
   -2.3080   18.1900  -34.2710 C   0  0  0  0  0  0  0  0  0  0  0  0
   -1.1640   18.5470  -35.0050 O   0  0  0  0  0  0  0  0  0  0  0  0
    0.0620   19.0210  -34.4480 C   0  0  0  0  0  0  0  0  0  0  0  0
   -0.1590   19.6160  -33.0820 C   0  0  0  0  0  0  0  0  0  0  0  0
   -0.1300   18.7970  -31.9410 C   0  0  0  0  0  0  0  0  0  0  0  0
   -0.3470   19.3480  -30.6740 C   0  0  0  0  0  0  0  0  0  0  0  0
   -0.6060   20.7140  -30.5380 C   0  0  0  0  0  0  0  0  0  0  0  0
   -0.6520   21.5330  -31.6680 C   0  0  0  0  0  0  0  0  0  0  0  0
   -0.4350   20.9870  -32.9370 C   0  0  0  0  0  0  0  0  0  0  0  0
   -3.1630   19.2110  -33.8410 C   0  0  0  0  0  0  0  0  0  0  0  0
   -2.8610   20.5000  -34.1450 F   0  0  0  0  0  0  0  0  0  0  0  0
   -4.6410   21.0850  -31.9030 C   0  0  0  0  0  0  0  0  0  0  0  0
   -5.4830   22.1430  -31.5460 C   0  0  0  0  0  0  0  0  0  0  0  0
   -3.8229   23.3673  -26.5270 H   0  0  0  0  0  0  0  0  0  0  0  0
   -3.6782   24.5096  -27.9057 H   0  0  0  0  0  0  0  0  0  0  0  0
   -4.9695   23.2609  -27.9057 H   0  0  0  0  0  0  0  0  0  0  0  0
   -1.9576   22.7185  -28.0128 H   0  0  0  0  0  0  0  0  0  0  0  0
   -3.2751   21.4818  -28.0449 H   0  0  0  0  0  0  0  0  0  0  0  0
   -5.6780   27.3450  -30.0160 H   0  0  0  0  0  0  0  0  0  0  0  0
   -4.7320   26.2910  -31.1110 H   0  0  0  0  0  0  0  0  0  0  0  0
   -8.3763   23.7024  -31.6296 H   0  0  0  0  0  0  0  0  0  0  0  0
   -8.4335   21.1644  -32.9539 H   0  0  0  0  0  0  0  0  0  0  0  0
   -6.9796   19.2120  -33.6000 H   0  0  0  0  0  0  0  0  0  0  0  0
   -3.9902   15.5052  -32.9805 H   0  0  0  0  0  0  0  0  0  0  0  0
   -1.9538   16.0483  -34.2916 H   0  0  0  0  0  0  0  0  0  0  0  0
    0.7674   18.1811  -34.3645 H   0  0  0  0  0  0  0  0  0  0  0  0
    0.4678   19.8016  -35.1083 H   0  0  0  0  0  0  0  0  0  0  0  0
    0.0639   17.7192  -32.0444 H   0  0  0  0  0  0  0  0  0  0  0  0
   -0.3137   18.7043  -29.7826 H   0  0  0  0  0  0  0  0  0  0  0  0
   -0.7738   21.1448  -29.5399 H   0  0  0  0  0  0  0  0  0  0  0  0
   -0.8590   22.6079  -31.5600 H   0  0  0  0  0  0  0  0  0  0  0  0
   -0.4805   21.6332  -33.8260 H   0  0  0  0  0  0  0  0  0  0  0  0
   -3.5846   21.0745  -31.5966 H   0  0  0  0  0  0  0  0  0  0  0  0
  1  2  1  0
  2  3  1  0
  3  4  1  0
  4  5  2  0
  4  6  1  0
  6  7  1  0
  7  8  1  0
  8  9  1  0
  8 10  2  0
  7 11  2  0
 11 12  1  0
 12 13  2  0
 13 14  1  0
 14 15  2  0
 15 16  1  0
 16 17  2  0
 17 18  1  0
 18 19  1  0
 18 20  1  0
 18 21  1  0
 17 22  1  0
 22 23  2  0
 23 24  1  0
 24 25  1  0
 25 26  1  0
 26 27  1  0
 27 28  2  0
 28 29  1  0
 29 30  2  0
 30 31  1  0
 31 32  2  0
 24 33  2  0
 33 34  1  0
 15 35  1  0
 35 36  2  0
 36  6  1  0
 36 12  1  0
 33 16  1  0
 32 27  1  0
  1 37  1  0
  1 38  1  0
  1 39  1  0
  2 40  1  0
  2 41  1  0
  9 42  1  0
  9 43  1  0
 11 44  1  0
 13 45  1  0
 14 46  1  0
 22 47  1  0
 23 48  1  0
 26 49  1  0
 26 50  1  0
 28 51  1  0
 29 52  1  0
 30 53  1  0
 31 54  1  0
 32 55  1  0
 35 56  1  0
M  END
>  <UniqueID>  (87) 
86

>  <SMILES>  (87) 
CCOC(=O)n1c(C(N)=O)cc2ccc(-c3c(C(F)(F)F)ccc(OCc4ccccc4)c3F)cc21

>  <Energy>  (87) 
105.74108364165181

>  <Genealogy>  (87) 
CCOC(=O)n1c(C(N)=O)cc2ccc(-c3c(C(F)(F)F)ccc(OCc4ccccc4)c3F)cc21 (3D coordinates assigned)
CCOC(=O)n1c(C(N)=O)cc2ccc(-c3c(C(F)(F)F)ccc(OCc4ccccc4)c3F)cc21 (optimized conformer: 105.74108364165181 kcal/mol)

>  <smiles>  (87) 
CCOC(=O)n1c(C(N)=O)cc2ccc(-c3c(C(F)(F)F)ccc(OCc4ccccc4)c3F)cc21

>  <score_type>  (87) 
oracle

>  <origin>  (87) 
adg

>  <m_score__min__energy>  (87) 
-9.0299999999999994

>  <m_primary>  (87) 
energy

$$$$
87:0
     RDKit          3D

 34 36  0  0  0  0  0  0  0  0999 V2000
   -6.8630   18.0140  -33.4000 C   0  0  0  0  0  0  0  0  0  0  0  0
   -7.0890   19.3720  -32.8040 C   0  0  0  0  0  0  0  0  0  0  0  0
   -8.4090   19.8400  -32.5840 C   0  0  0  0  0  0  0  0  0  0  0  0
   -8.6340   21.1020  -32.0090 C   0  0  0  0  0  0  0  0  0  0  0  0
   -7.5250   21.8680  -31.6600 C   0  0  0  0  0  0  0  0  0  0  0  0
   -7.4600   23.1100  -31.0740 C   0  0  0  0  0  0  0  0  0  0  0  0
   -6.1020   23.3870  -30.9500 C   0  0  0  0  0  0  0  0  0  0  0  0
   -5.5810   24.6690  -30.4350 C   0  0  0  0  0  0  0  0  0  0  0  0
   -5.6770   25.0050  -29.0520 N   0  0  0  0  0  0  0  0  0  0  0  0
   -4.9890   25.4560  -31.2190 O   0  0  0  0  0  0  0  0  0  0  0  0
   -5.3530   22.3510  -31.4240 N   0  0  0  0  0  0  0  0  0  0  0  0
   -3.9230   22.2080  -31.3680 C   0  0  0  0  0  0  0  0  0  0  0  0
   -3.2410   22.2880  -32.4250 O   0  0  0  0  0  0  0  0  0  0  0  0
   -3.2800   21.9660  -30.1100 N   0  0  0  0  0  0  0  0  0  0  0  0
   -3.4340   22.7750  -28.9410 C   0  0  0  0  0  0  0  0  0  0  0  0
   -4.5000   22.7360  -28.1150 N   0  0  0  0  0  0  0  0  0  0  0  0
   -4.2370   23.6450  -27.1910 N   0  0  0  0  0  0  0  0  0  0  0  0
   -3.0630   24.1960  -27.4510 N   0  0  0  0  0  0  0  0  0  0  0  0
   -2.4700   25.2740  -26.6750 C   0  0  0  0  0  0  0  0  0  0  0  0
   -2.5290   23.6910  -28.5500 N   0  0  0  0  0  0  0  0  0  0  0  0
   -6.2410   21.4290  -31.8610 C   0  0  0  0  0  0  0  0  0  0  0  0
   -5.9890   20.1660  -32.4140 C   0  0  0  0  0  0  0  0  0  0  0  0
   -6.7401   17.2756  -32.5939 H   0  0  0  0  0  0  0  0  0  0  0  0
   -7.7275   17.7379  -34.0215 H   0  0  0  0  0  0  0  0  0  0  0  0
   -5.9556   18.0327  -34.0215 H   0  0  0  0  0  0  0  0  0  0  0  0
   -9.2649   19.2093  -32.8661 H   0  0  0  0  0  0  0  0  0  0  0  0
   -9.6554   21.4736  -31.8397 H   0  0  0  0  0  0  0  0  0  0  0  0
   -8.3019   23.7485  -30.7684 H   0  0  0  0  0  0  0  0  0  0  0  0
   -5.9920   24.3020  -28.3470 H   0  0  0  0  0  0  0  0  0  0  0  0
   -5.3460   25.9370  -28.7140 H   0  0  0  0  0  0  0  0  0  0  0  0
   -2.5872   25.0610  -25.6022 H   0  0  0  0  0  0  0  0  0  0  0  0
   -1.4003   25.3552  -26.9180 H   0  0  0  0  0  0  0  0  0  0  0  0
   -2.9741   26.2210  -26.9180 H   0  0  0  0  0  0  0  0  0  0  0  0
   -4.9587   19.8022  -32.5410 H   0  0  0  0  0  0  0  0  0  0  0  0
  1  2  1  0
  2  3  2  0
  3  4  1  0
  4  5  2  0
  5  6  1  0
  6  7  2  0
  7  8  1  0
  8  9  1  0
  8 10  2  0
  7 11  1  0
 11 12  1  0
 12 13  2  0
 12 14  1  0
 14 15  1  0
 15 16  1  0
 16 17  2  0
 17 18  1  0
 18 19  1  0
 18 20  1  0
 11 21  1  0
 21 22  2  0
 22  2  1  0
 21  5  1  0
 20 15  2  0
  1 23  1  0
  1 24  1  0
  1 25  1  0
  3 26  1  0
  4 27  1  0
  6 28  1  0
  9 29  1  0
  9 30  1  0
 19 31  1  0
 19 32  1  0
 19 33  1  0
 22 34  1  0
M  CHG  1  14  -1
M  END
>  <UniqueID>  (88) 
87

>  <SMILES>  (88) 
Cc1ccc2cc(C(N)=O)n(C(=O)[N-]c3nnn(C)n3)c2c1

>  <Energy>  (88) 
113.17694148782648

>  <Genealogy>  (88) 
Cc1ccc2cc(C(N)=O)n(C(=O)[N-]c3nnn(C)n3)c2c1 (protonated)
Cc1ccc2cc(C(N)=O)n(C(=O)[N-]c3nnn(C)n3)c2c1 (3D coordinates assigned)
Cc1ccc2cc(C(N)=O)n(C(=O)[N-]c3nnn(C)n3)c2c1 (optimized conformer: 113.17694148782648 kcal/mol)

>  <smiles>  (88) 
Cc1ccc2cc(C(N)=O)n(C(=O)Nc3nnn(C)n3)c2c1

>  <score_type>  (88) 
oracle

>  <origin>  (88) 
adg

>  <m_score__min__energy>  (88) 
-9.8000000000000007

>  <m_primary>  (88) 
energy

$$$$
88:0
     RDKit          3D

 34 36  0  0  0  0  0  0  0  0999 V2000
   -6.6600   23.9420  -30.8510 C   0  0  0  0  0  0  0  0  0  0  0  0
   -5.9420   25.2860  -30.8430 C   0  0  0  0  0  0  0  0  0  0  0  0
   -4.5290   25.1020  -30.7970 O   0  0  0  0  0  0  0  0  0  0  0  0
   -3.8760   24.4010  -29.7760 C   0  0  0  0  0  0  0  0  0  0  0  0
   -4.1980   24.5830  -28.5700 O   0  0  0  0  0  0  0  0  0  0  0  0
   -2.8220   23.4840  -30.1040 N   0  0  0  0  0  0  0  0  0  0  0  0
   -1.5140   23.5470  -29.7250 C   0  0  0  0  0  0  0  0  0  0  0  0
   -0.8640   24.6800  -29.0350 C   0  0  0  0  0  0  0  0  0  0  0  0
   -1.5080   25.9480  -28.9410 N   0  0  0  0  0  0  0  0  0  0  0  0
    0.2960   24.5410  -28.5640 O   0  0  0  0  0  0  0  0  0  0  0  0
   -0.8260   22.4120  -30.1520 C   0  0  0  0  0  0  0  0  0  0  0  0
   -1.7590   21.6490  -30.8170 C   0  0  0  0  0  0  0  0  0  0  0  0
   -1.6240   20.4110  -31.4340 C   0  0  0  0  0  0  0  0  0  0  0  0
   -2.7670   19.8360  -32.0170 C   0  0  0  0  0  0  0  0  0  0  0  0
   -4.0200   20.5030  -31.9670 C   0  0  0  0  0  0  0  0  0  0  0  0
   -5.2340   19.9020  -32.5660 C   0  0  0  0  0  0  0  0  0  0  0  0
   -5.3170   19.0620  -33.6600 C   0  0  0  0  0  0  0  0  0  0  0  0
   -6.6090   18.7460  -33.8720 N   0  0  0  0  0  0  0  0  0  0  0  0
   -7.2570   19.4120  -32.8940 C   0  0  0  0  0  0  0  0  0  0  0  0
   -8.9950   19.3640  -32.6850 Cl  0  0  0  0  0  0  0  0  0  0  0  0
   -6.4500   20.0970  -32.1190 O   0  0  0  0  0  0  0  0  0  0  0  0
   -4.1130   21.7610  -31.3280 C   0  0  0  0  0  0  0  0  0  0  0  0
   -2.9540   22.3160  -30.7730 C   0  0  0  0  0  0  0  0  0  0  0  0
   -6.8353   23.6138  -29.8158 H   0  0  0  0  0  0  0  0  0  0  0  0
   -7.6237   24.0442  -31.3715 H   0  0  0  0  0  0  0  0  0  0  0  0
   -6.0393   23.1978  -31.3715 H   0  0  0  0  0  0  0  0  0  0  0  0
   -6.2044   25.8410  -31.7557 H   0  0  0  0  0  0  0  0  0  0  0  0
   -6.2547   25.8488  -29.9511 H   0  0  0  0  0  0  0  0  0  0  0  0
   -2.5490   26.0250  -28.9670 H   0  0  0  0  0  0  0  0  0  0  0  0
    0.2364   22.1764  -29.9916 H   0  0  0  0  0  0  0  0  0  0  0  0
   -0.6522   19.8965  -31.4653 H   0  0  0  0  0  0  0  0  0  0  0  0
   -2.6900   18.8593  -32.5171 H   0  0  0  0  0  0  0  0  0  0  0  0
   -4.4658   18.7086  -34.2605 H   0  0  0  0  0  0  0  0  0  0  0  0
   -5.0747   22.2916  -31.2684 H   0  0  0  0  0  0  0  0  0  0  0  0
  1  2  1  0
  2  3  1  0
  3  4  1  0
  4  5  2  0
  4  6  1  0
  6  7  1  0
  7  8  1  0
  8  9  1  0
  8 10  2  0
  7 11  2  0
 11 12  1  0
 12 13  2  0
 13 14  1  0
 14 15  2  0
 15 16  1  0
 16 17  2  0
 17 18  1  0
 18 19  2  0
 19 20  1  0
 19 21  1  0
 15 22  1  0
 22 23  2  0
 23  6  1  0
 23 12  1  0
 21 16  1  0
  1 24  1  0
  1 25  1  0
  1 26  1  0
  2 27  1  0
  2 28  1  0
  9 29  1  0
 11 30  1  0
 13 31  1  0
 14 32  1  0
 17 33  1  0
 22 34  1  0
M  CHG  1   9  -1
M  END
>  <UniqueID>  (89) 
88

>  <SMILES>  (89) 
CCOC(=O)n1c(C([NH-])=O)cc2ccc(-c3cnc(Cl)o3)cc21

>  <Energy>  (89) 
102.31490513023188

>  <Genealogy>  (89) 
CCOC(=O)n1c(C([NH-])=O)cc2ccc(-c3cnc(Cl)o3)cc21 (protonated)
CCOC(=O)n1c(C([NH-])=O)cc2ccc(-c3cnc(Cl)o3)cc21 (3D coordinates assigned)
CCOC(=O)n1c(C([NH-])=O)cc2ccc(-c3cnc(Cl)o3)cc21 (optimized conformer: 102.31490513023188 kcal/mol)

>  <smiles>  (89) 
CCOC(=O)n1c(C(N)=O)cc2ccc(-c3cnc(Cl)o3)cc21

>  <score_type>  (89) 
oracle

>  <origin>  (89) 
adg

>  <m_score__min__energy>  (89) 
-10.029999999999999

>  <m_primary>  (89) 
energy

$$$$
89:0
     RDKit          3D

 31 32  0  0  0  0  0  0  0  0999 V2000
   -3.3660   23.6310  -28.0750 C   0  0  0  0  0  0  0  0  0  0  0  0
   -2.7810   23.3280  -29.3230 O   0  0  0  0  0  0  0  0  0  0  0  0
   -3.3320   22.1340  -29.8460 C   0  0  0  0  0  0  0  0  0  0  0  0
   -4.0500   22.3830  -31.1440 C   0  0  0  0  0  0  0  0  0  0  0  0
   -3.4110   22.2820  -32.2260 O   0  0  0  0  0  0  0  0  0  0  0  0
   -5.4380   22.7550  -31.1720 N   0  0  0  0  0  0  0  0  0  0  0  0
   -5.9760   23.9610  -30.8320 C   0  0  0  0  0  0  0  0  0  0  0  0
   -5.2170   25.1660  -30.4350 C   0  0  0  0  0  0  0  0  0  0  0  0
   -3.8670   25.3260  -30.8640 N   0  0  0  0  0  0  0  0  0  0  0  0
   -5.7410   26.0480  -29.7050 O   0  0  0  0  0  0  0  0  0  0  0  0
   -7.3630   23.9290  -30.9620 C   0  0  0  0  0  0  0  0  0  0  0  0
   -7.6600   22.6550  -31.3920 C   0  0  0  0  0  0  0  0  0  0  0  0
   -8.8900   22.0710  -31.6780 C   0  0  0  0  0  0  0  0  0  0  0  0
   -8.9020   20.7270  -32.0850 C   0  0  0  0  0  0  0  0  0  0  0  0
   -7.6940   19.9910  -32.1790 C   0  0  0  0  0  0  0  0  0  0  0  0
   -7.7170   18.5640  -32.6400 C   0  0  0  0  0  0  0  0  0  0  0  0
   -8.7260   17.8840  -31.9850 F   0  0  0  0  0  0  0  0  0  0  0  0
   -6.4640   20.6210  -31.8930 C   0  0  0  0  0  0  0  0  0  0  0  0
   -6.4800   21.9660  -31.5080 C   0  0  0  0  0  0  0  0  0  0  0  0
   -2.7036   23.2879  -27.2666 H   0  0  0  0  0  0  0  0  0  0  0  0
   -3.5121   24.7182  -27.9928 H   0  0  0  0  0  0  0  0  0  0  0  0
   -4.3383   23.1231  -27.9928 H   0  0  0  0  0  0  0  0  0  0  0  0
   -2.5209   21.4112  -30.0187 H   0  0  0  0  0  0  0  0  0  0  0  0
   -4.0577   21.7404  -29.1191 H   0  0  0  0  0  0  0  0  0  0  0  0
   -3.0770   25.2730  -30.1830 H   0  0  0  0  0  0  0  0  0  0  0  0
   -8.0704   24.7476  -30.7633 H   0  0  0  0  0  0  0  0  0  0  0  0
   -9.8244   22.6444  -31.5881 H   0  0  0  0  0  0  0  0  0  0  0  0
   -9.8571   20.2410  -32.3331 H   0  0  0  0  0  0  0  0  0  0  0  0
   -7.8975   18.5320  -33.7246 H   0  0  0  0  0  0  0  0  0  0  0  0
   -6.7500   18.0906  -32.4149 H   0  0  0  0  0  0  0  0  0  0  0  0
   -5.5161   20.0683  -31.9708 H   0  0  0  0  0  0  0  0  0  0  0  0
  1  2  1  0
  2  3  1  0
  3  4  1  0
  4  5  2  0
  4  6  1  0
  6  7  1  0
  7  8  1  0
  8  9  1  0
  8 10  2  0
  7 11  2  0
 11 12  1  0
 12 13  2  0
 13 14  1  0
 14 15  2  0
 15 16  1  0
 16 17  1  0
 15 18  1  0
 18 19  2  0
 19  6  1  0
 19 12  1  0
  1 20  1  0
  1 21  1  0
  1 22  1  0
  3 23  1  0
  3 24  1  0
  9 25  1  0
 11 26  1  0
 13 27  1  0
 14 28  1  0
 16 29  1  0
 16 30  1  0
 18 31  1  0
M  CHG  1   9  -1
M  END
>  <UniqueID>  (90) 
89

>  <SMILES>  (90) 
COCC(=O)n1c(C([NH-])=O)cc2ccc(CF)cc21

>  <Energy>  (90) 
70.93938889866493

>  <Genealogy>  (90) 
COCC(=O)n1c(C([NH-])=O)cc2ccc(CF)cc21 (protonated)
COCC(=O)n1c(C([NH-])=O)cc2ccc(CF)cc21 (3D coordinates assigned)
COCC(=O)n1c(C([NH-])=O)cc2ccc(CF)cc21 (optimized conformer: 70.93938889866493 kcal/mol)

>  <smiles>  (90) 
COCC(=O)n1c(C(N)=O)cc2ccc(CF)cc21

>  <score_type>  (90) 
oracle

>  <origin>  (90) 
adg

>  <m_score__min__energy>  (90) 
-8.7300000000000004

>  <m_primary>  (90) 
energy

$$$$
90:0
     RDKit          3D

 59 60  0  0  0  0  0  0  0  0999 V2000
   -3.8500   22.7660  -28.5570 C   0  0  0  0  0  0  0  0  0  0  0  0
   -2.7990   22.4380  -29.6090 C   0  0  0  0  0  0  0  0  0  0  0  0
   -3.0820   23.1450  -30.8100 O   0  0  0  0  0  0  0  0  0  0  0  0
   -4.0210   22.6940  -31.7410 C   0  0  0  0  0  0  0  0  0  0  0  0
   -3.6510   22.0400  -32.7570 O   0  0  0  0  0  0  0  0  0  0  0  0
   -5.4120   22.9920  -31.5530 N   0  0  0  0  0  0  0  0  0  0  0  0
   -5.9570   24.1180  -31.0120 C   0  0  0  0  0  0  0  0  0  0  0  0
   -5.2050   25.2740  -30.4850 C   0  0  0  0  0  0  0  0  0  0  0  0
   -3.8730   25.5440  -30.9140 N   0  0  0  0  0  0  0  0  0  0  0  0
   -5.7370   26.0100  -29.6140 O   0  0  0  0  0  0  0  0  0  0  0  0
   -7.3320   23.9650  -30.8490 C   0  0  0  0  0  0  0  0  0  0  0  0
   -7.6140   22.6960  -31.3010 C   0  0  0  0  0  0  0  0  0  0  0  0
   -8.8200   22.0050  -31.3330 C   0  0  0  0  0  0  0  0  0  0  0  0
   -8.8020   20.6720  -31.7810 C   0  0  0  0  0  0  0  0  0  0  0  0
   -7.5840   20.0520  -32.1620 C   0  0  0  0  0  0  0  0  0  0  0  0
   -7.5630   18.5890  -32.5310 C   0  0  0  0  0  0  0  0  0  0  0  0
   -6.1440   18.0790  -32.8440 C   0  0  0  0  0  0  0  0  0  0  0  0
   -5.6240   18.5240  -34.2200 C   0  0  0  0  0  0  0  0  0  0  0  0
   -4.4500   19.3890  -34.0900 N   0  0  0  0  0  0  0  0  0  0  0  0
   -3.1060   18.8890  -34.1990 C   0  0  0  0  0  0  0  0  0  0  0  0
   -2.8980   17.6540  -34.3300 O   0  0  0  0  0  0  0  0  0  0  0  0
   -2.0050   19.7570  -34.2070 O   0  0  0  0  0  0  0  0  0  0  0  0
   -0.9760   19.7650  -33.2120 C   0  0  0  0  0  0  0  0  0  0  0  0
   -0.0910   21.0000  -33.3820 C   0  0  0  0  0  0  0  0  0  0  0  0
    0.8800   20.7300  -34.3730 O   0  0  0  0  0  0  0  0  0  0  0  0
    1.4400   21.9270  -34.8800 C   0  0  0  0  0  0  0  0  0  0  0  0
    0.6470   22.4060  -36.0960 C   0  0  0  0  0  0  0  0  0  0  0  0
    1.3570   23.4450  -36.7340 O   0  0  0  0  0  0  0  0  0  0  0  0
    0.9820   24.6840  -36.1660 C   0  0  0  0  0  0  0  0  0  0  0  0
   -6.3840   20.7980  -32.1450 C   0  0  0  0  0  0  0  0  0  0  0  0
   -6.4370   22.1260  -31.7060 C   0  0  0  0  0  0  0  0  0  0  0  0
   -3.4191   22.6315  -27.5539 H   0  0  0  0  0  0  0  0  0  0  0  0
   -4.1775   23.8091  -28.6786 H   0  0  0  0  0  0  0  0  0  0  0  0
   -4.7126   22.0943  -28.6786 H   0  0  0  0  0  0  0  0  0  0  0  0
   -1.8063   22.7321  -29.2375 H   0  0  0  0  0  0  0  0  0  0  0  0
   -2.8136   21.3570  -29.8121 H   0  0  0  0  0  0  0  0  0  0  0  0
   -3.0540   25.2700  -30.3260 H   0  0  0  0  0  0  0  0  0  0  0  0
   -8.0416   24.7019  -30.4449 H   0  0  0  0  0  0  0  0  0  0  0  0
   -9.7581   22.4854  -31.0180 H   0  0  0  0  0  0  0  0  0  0  0  0
   -9.7423   20.1040  -31.8366 H   0  0  0  0  0  0  0  0  0  0  0  0
   -7.9692   18.0075  -31.6903 H   0  0  0  0  0  0  0  0  0  0  0  0
   -8.1702   18.4652  -33.4398 H   0  0  0  0  0  0  0  0  0  0  0  0
   -5.4587   18.4601  -32.0726 H   0  0  0  0  0  0  0  0  0  0  0  0
   -6.1894   16.9800  -32.8544 H   0  0  0  0  0  0  0  0  0  0  0  0
   -5.3501   17.6335  -34.8048 H   0  0  0  0  0  0  0  0  0  0  0  0
   -6.4195   19.0915  -34.7252 H   0  0  0  0  0  0  0  0  0  0  0  0
   -4.6160   20.3980  -33.8770 H   0  0  0  0  0  0  0  0  0  0  0  0
   -1.4360   19.7817  -32.2129 H   0  0  0  0  0  0  0  0  0  0  0  0
   -0.3589   18.8614  -33.3247 H   0  0  0  0  0  0  0  0  0  0  0  0
   -0.7072   21.8570  -33.6916 H   0  0  0  0  0  0  0  0  0  0  0  0
    0.4034   21.2403  -32.4292 H   0  0  0  0  0  0  0  0  0  0  0  0
    1.4110   22.7012  -34.0991 H   0  0  0  0  0  0  0  0  0  0  0  0
    2.4807   21.7373  -35.1816 H   0  0  0  0  0  0  0  0  0  0  0  0
    0.5090   21.5701  -36.7976 H   0  0  0  0  0  0  0  0  0  0  0  0
   -0.3372   22.7758  -35.7726 H   0  0  0  0  0  0  0  0  0  0  0  0
    1.0054   24.6065  -35.0690 H   0  0  0  0  0  0  0  0  0  0  0  0
    1.6840   25.4650  -36.4935 H   0  0  0  0  0  0  0  0  0  0  0  0
   -0.0353   24.9446  -36.4935 H   0  0  0  0  0  0  0  0  0  0  0  0
   -5.4340   20.3473  -32.4680 H   0  0  0  0  0  0  0  0  0  0  0  0
  1  2  1  0
  2  3  1  0
  3  4  1  0
  4  5  2  0
  4  6  1  0
  6  7  1  0
  7  8  1  0
  8  9  1  0
  8 10  2  0
  7 11  2  0
 11 12  1  0
 12 13  2  0
 13 14  1  0
 14 15  2  0
 15 16  1  0
 16 17  1  0
 17 18  1  0
 18 19  1  0
 19 20  1  0
 20 21  2  0
 20 22  1  0
 22 23  1  0
 23 24  1  0
 24 25  1  0
 25 26  1  0
 26 27  1  0
 27 28  1  0
 28 29  1  0
 15 30  1  0
 30 31  2  0
 31  6  1  0
 31 12  1  0
  1 32  1  0
  1 33  1  0
  1 34  1  0
  2 35  1  0
  2 36  1  0
  9 37  1  0
 11 38  1  0
 13 39  1  0
 14 40  1  0
 16 41  1  0
 16 42  1  0
 17 43  1  0
 17 44  1  0
 18 45  1  0
 18 46  1  0
 19 47  1  0
 23 48  1  0
 23 49  1  0
 24 50  1  0
 24 51  1  0
 26 52  1  0
 26 53  1  0
 27 54  1  0
 27 55  1  0
 29 56  1  0
 29 57  1  0
 29 58  1  0
 30 59  1  0
M  CHG  1   9  -1
M  END
>  <UniqueID>  (91) 
90

>  <SMILES>  (91) 
CCOC(=O)n1c(C([NH-])=O)cc2ccc(CCCNC(=O)OCCOCCOC)cc21

>  <Energy>  (91) 
88.8922860830169

>  <Genealogy>  (91) 
CCOC(=O)n1c(C([NH-])=O)cc2ccc(CCCNC(=O)OCCOCCOC)cc21 (protonated)
CCOC(=O)n1c(C([NH-])=O)cc2ccc(CCCNC(=O)OCCOCCOC)cc21 (3D coordinates assigned)
CCOC(=O)n1c(C([NH-])=O)cc2ccc(CCCNC(=O)OCCOCCOC)cc21 (optimized conformer: 88.8922860830169 kcal/mol)

>  <smiles>  (91) 
CCOC(=O)n1c(C(N)=O)cc2ccc(CCCNC(=O)OCCOCCOC)cc21

>  <score_type>  (91) 
oracle

>  <origin>  (91) 
adg

>  <m_score__min__energy>  (91) 
-9.5800000000000001

>  <m_primary>  (91) 
energy

$$$$
91:0
     RDKit          3D

 60 63  0  0  0  0  0  0  0  0999 V2000
   -6.4820   24.4600  -30.5700 C   0  0  0  0  0  0  0  0  0  0  0  0
   -7.2500   23.1760  -30.2590 C   0  0  0  0  0  0  0  0  0  0  0  0
   -7.6020   22.4190  -31.5150 C   0  0  0  0  0  0  0  0  0  0  0  0
   -8.4460   22.9060  -32.3180 O   0  0  0  0  0  0  0  0  0  0  0  0
   -6.9790   21.1570  -31.8210 N   0  0  0  0  0  0  0  0  0  0  0  0
   -7.6030   19.9770  -32.0980 C   0  0  0  0  0  0  0  0  0  0  0  0
   -9.0600   19.7280  -32.0350 C   0  0  0  0  0  0  0  0  0  0  0  0
  -10.0040   20.7640  -32.3080 N   0  0  0  0  0  0  0  0  0  0  0  0
   -9.4840   18.5870  -31.7020 O   0  0  0  0  0  0  0  0  0  0  0  0
   -6.6720   19.0040  -32.4630 C   0  0  0  0  0  0  0  0  0  0  0  0
   -5.4450   19.6230  -32.3920 C   0  0  0  0  0  0  0  0  0  0  0  0
   -4.1660   19.1230  -32.6320 C   0  0  0  0  0  0  0  0  0  0  0  0
   -3.0770   20.0000  -32.4990 C   0  0  0  0  0  0  0  0  0  0  0  0
   -3.2870   21.3600  -32.1640 C   0  0  0  0  0  0  0  0  0  0  0  0
   -2.1230   22.3010  -31.9970 C   0  0  0  0  0  0  0  0  0  0  0  0
   -1.4550   22.1140  -30.6640 C   0  0  0  0  0  0  0  0  0  0  0  0
   -0.2020   21.9910  -30.5930 O   0  0  0  0  0  0  0  0  0  0  0  0
   -2.2370   22.0690  -29.4600 N   0  0  0  0  0  0  0  0  0  0  0  0
   -3.2140   23.1390  -29.1760 C   0  0  2  0  0  0  0  0  0  0  0  0
   -2.7590   24.4770  -29.7160 C   0  0  0  0  0  0  0  0  0  0  0  0
   -1.6780   24.9840  -29.3150 O   0  0  0  0  0  0  0  0  0  0  0  0
   -3.5540   25.1860  -30.6050 O   0  0  0  0  0  0  0  0  0  0  0  0
   -3.5070   23.2370  -27.6570 C   0  0  0  0  0  0  0  0  0  0  0  0
   -2.2630   22.9290  -26.8030 C   0  0  0  0  0  0  0  0  0  0  0  0
   -1.5930   21.5620  -27.1340 C   0  0  2  0  0  0  0  0  0  0  0  0
   -0.0560   21.7110  -27.1370 C   0  0  0  0  0  0  0  0  0  0  0  0
    0.6440   20.3970  -27.4810 C   0  0  0  0  0  0  0  0  0  0  0  0
    0.2000   19.8790  -28.8520 C   0  0  0  0  0  0  0  0  0  0  0  0
   -1.3230   19.7240  -28.9350 C   0  0  0  0  0  0  0  0  0  0  0  0
   -2.1130   20.9780  -28.4700 C   0  0  2  0  0  0  0  0  0  0  0  0
   -4.5970   21.8320  -31.9330 C   0  0  0  0  0  0  0  0  0  0  0  0
   -5.6600   20.9260  -32.0180 C   0  0  0  0  0  0  0  0  0  0  0  0
   -6.1894   24.9492  -29.6292 H   0  0  0  0  0  0  0  0  0  0  0  0
   -5.5811   24.2165  -31.1523 H   0  0  0  0  0  0  0  0  0  0  0  0
   -7.1227   25.1386  -31.1523 H   0  0  0  0  0  0  0  0  0  0  0  0
   -6.6271   22.5342  -29.6186 H   0  0  0  0  0  0  0  0  0  0  0  0
   -8.1858   23.4506  -29.7503 H   0  0  0  0  0  0  0  0  0  0  0  0
  -11.0240   20.5410  -32.3420 H   0  0  0  0  0  0  0  0  0  0  0  0
   -9.7110   21.7700  -32.2720 H   0  0  0  0  0  0  0  0  0  0  0  0
   -6.8759   17.9612  -32.7477 H   0  0  0  0  0  0  0  0  0  0  0  0
   -4.0140   18.0716  -32.9174 H   0  0  0  0  0  0  0  0  0  0  0  0
   -2.0538   19.6280  -32.6561 H   0  0  0  0  0  0  0  0  0  0  0  0
   -1.3903   22.1093  -32.7947 H   0  0  0  0  0  0  0  0  0  0  0  0
   -2.5003   23.3327  -32.0539 H   0  0  0  0  0  0  0  0  0  0  0  0
   -4.1460   22.8704  -29.6949 H   0  0  0  0  0  0  0  0  0  0  0  0
   -3.8505   24.2565  -27.4276 H   0  0  0  0  0  0  0  0  0  0  0  0
   -4.2771   22.4904  -27.4130 H   0  0  0  0  0  0  0  0  0  0  0  0
   -1.5234   23.7263  -26.9682 H   0  0  0  0  0  0  0  0  0  0  0  0
   -2.5991   22.8750  -25.7570 H   0  0  0  0  0  0  0  0  0  0  0  0
   -1.8692   20.8435  -26.3482 H   0  0  0  0  0  0  0  0  0  0  0  0
    0.2261   22.4697  -27.8819 H   0  0  0  0  0  0  0  0  0  0  0  0
    0.2591   22.0103  -26.1265 H   0  0  0  0  0  0  0  0  0  0  0  0
    1.7315   20.5618  -27.4941 H   0  0  0  0  0  0  0  0  0  0  0  0
    0.3758   19.6485  -26.7208 H   0  0  0  0  0  0  0  0  0  0  0  0
    0.5284   20.5896  -29.6248 H   0  0  0  0  0  0  0  0  0  0  0  0
    0.6538   18.8891  -29.0074 H   0  0  0  0  0  0  0  0  0  0  0  0
   -1.5926   19.5136  -29.9805 H   0  0  0  0  0  0  0  0  0  0  0  0
   -1.5967   18.9052  -28.2534 H   0  0  0  0  0  0  0  0  0  0  0  0
   -3.1242   20.5686  -28.3291 H   0  0  0  0  0  0  0  0  0  0  0  0
   -4.7784   22.8897  -31.6913 H   0  0  0  0  0  0  0  0  0  0  0  0
  1  2  1  0
  2  3  1  0
  3  4  2  0
  3  5  1  0
  5  6  1  0
  6  7  1  0
  7  8  1  0
  7  9  2  0
  6 10  2  0
 10 11  1  0
 11 12  2  0
 12 13  1  0
 13 14  2  0
 14 15  1  0
 15 16  1  0
 16 17  2  0
 16 18  1  0
 18 19  1  0
 19 20  1  0
 20 21  2  0
 20 22  1  0
 19 23  1  0
 23 24  1  0
 24 25  1  0
 25 26  1  0
 26 27  1  0
 27 28  1  0
 28 29  1  0
 29 30  1  0
 14 31  1  0
 31 32  2  0
 32  5  1  0
 32 11  1  0
 30 18  1  0
 30 25  1  0
  1 33  1  0
  1 34  1  0
  1 35  1  0
  2 36  1  0
  2 37  1  0
  8 38  1  0
  8 39  1  0
 10 40  1  0
 12 41  1  0
 13 42  1  0
 15 43  1  0
 15 44  1  0
 19 45  1  6
 23 46  1  0
 23 47  1  0
 24 48  1  0
 24 49  1  0
 25 50  1  1
 26 51  1  0
 26 52  1  0
 27 53  1  0
 27 54  1  0
 28 55  1  0
 28 56  1  0
 29 57  1  0
 29 58  1  0
 30 59  1  1
 31 60  1  0
M  CHG  1  22  -1
M  END
>  <UniqueID>  (92) 
91

>  <SMILES>  (92) 
CCC(=O)n1c(C(N)=O)cc2ccc(CC(=O)N3[C@H](C(=O)[O-])CC[C@@H]4CCCC[C@@H]43)cc21

>  <Energy>  (92) 
110.80472113499822

>  <Genealogy>  (92) 
CCC(=O)n1c(C(N)=O)cc2ccc(CC(=O)N3[C@H](C(=O)[O-])CC[C@@H]4CCCC[C@@H]43)cc21 (protonated)
CCC(=O)n1c(C(N)=O)cc2ccc(CC(=O)N3[C@H](C(=O)[O-])CC[C@@H]4CCCC[C@@H]43)cc21 (3D coordinates assigned)
CCC(=O)n1c(C(N)=O)cc2ccc(CC(=O)N3[C@H](C(=O)[O-])CC[C@@H]4CCCC[C@@H]43)cc21 (nonaromatic ring conformer: 110.80472113499822 kcal/mol)

>  <smiles>  (92) 
CCC(=O)n1c(C(N)=O)cc2ccc(CC(=O)N3[C@H](C(=O)O)CC[C@@H]4CCCC[C@@H]43)cc21

>  <score_type>  (92) 
oracle

>  <origin>  (92) 
adg

>  <m_score__min__energy>  (92) 
-11.76

>  <m_primary>  (92) 
energy

$$$$
92:0
     RDKit          3D

 51 55  0  0  0  0  0  0  0  0999 V2000
   -3.8290   23.4110  -27.9890 C   0  0  0  0  0  0  0  0  0  0  0  0
   -2.8940   22.5520  -28.8320 C   0  0  0  0  0  0  0  0  0  0  0  0
   -2.6640   23.1600  -30.1020 O   0  0  0  0  0  0  0  0  0  0  0  0
   -3.2550   22.7130  -31.2890 C   0  0  0  0  0  0  0  0  0  0  0  0
   -2.5420   22.2600  -32.2260 O   0  0  0  0  0  0  0  0  0  0  0  0
   -4.6830   22.7440  -31.4280 N   0  0  0  0  0  0  0  0  0  0  0  0
   -5.5250   23.7910  -31.1960 C   0  0  0  0  0  0  0  0  0  0  0  0
   -5.1540   25.0900  -30.5980 C   0  0  0  0  0  0  0  0  0  0  0  0
   -3.8690   25.6630  -30.8260 N   0  0  0  0  0  0  0  0  0  0  0  0
   -5.9650   25.6800  -29.8350 O   0  0  0  0  0  0  0  0  0  0  0  0
   -6.8370   23.4430  -31.5190 C   0  0  0  0  0  0  0  0  0  0  0  0
   -6.7710   22.1390  -31.9510 C   0  0  0  0  0  0  0  0  0  0  0  0
   -7.7850   21.2840  -32.3750 C   0  0  0  0  0  0  0  0  0  0  0  0
   -7.4290   19.9830  -32.7640 C   0  0  0  0  0  0  0  0  0  0  0  0
   -6.0710   19.5670  -32.7600 C   0  0  0  0  0  0  0  0  0  0  0  0
   -5.7080   18.1270  -33.0980 C   0  0  0  0  0  0  0  0  0  0  0  0
   -4.4030   17.9640  -33.7810 N   0  0  0  0  0  0  0  0  0  0  0  0
   -4.1750   17.3820  -34.9950 C   0  0  0  0  0  0  0  0  0  0  0  0
   -2.8680   17.4050  -35.3570 N   0  0  0  0  0  0  0  0  0  0  0  0
   -2.2550   18.0230  -34.3350 C   0  0  0  0  0  0  0  0  0  0  0  0
   -0.9110   18.3370  -34.1570 C   0  0  0  0  0  0  0  0  0  0  0  0
    0.1250   17.9930  -35.1780 C   0  0  0  0  0  0  0  0  0  0  0  0
   -0.5670   18.9940  -33.0090 N   0  0  0  0  0  0  0  0  0  0  0  0
   -1.5060   19.3280  -32.0660 C   0  0  0  0  0  0  0  0  0  0  0  0
   -2.8210   19.0110  -32.2560 N   0  0  0  0  0  0  0  0  0  0  0  0
   -3.1700   18.3600  -33.3940 C   0  0  0  0  0  0  0  0  0  0  0  0
   -6.8240   17.3200  -33.7530 C   0  0  0  0  0  0  0  0  0  0  0  0
   -6.9090   16.4220  -32.6730 O   0  0  0  0  0  0  0  0  0  0  0  0
   -5.9200   17.1290  -31.9650 C   0  0  0  0  0  0  0  0  0  0  0  0
   -5.0750   20.4580  -32.2920 C   0  0  0  0  0  0  0  0  0  0  0  0
   -5.4620   21.7410  -31.8890 C   0  0  0  0  0  0  0  0  0  0  0  0
   -3.6315   23.2296  -26.9222 H   0  0  0  0  0  0  0  0  0  0  0  0
   -3.6575   24.4731  -28.2182 H   0  0  0  0  0  0  0  0  0  0  0  0
   -4.8728   23.1503  -28.2182 H   0  0  0  0  0  0  0  0  0  0  0  0
   -1.9345   22.4385  -28.3062 H   0  0  0  0  0  0  0  0  0  0  0  0
   -3.3601   21.5680  -28.9885 H   0  0  0  0  0  0  0  0  0  0  0  0
   -3.0170   25.2720  -30.3640 H   0  0  0  0  0  0  0  0  0  0  0  0
   -7.7331   24.0766  -31.4441 H   0  0  0  0  0  0  0  0  0  0  0  0
   -8.8327   21.6178  -32.4042 H   0  0  0  0  0  0  0  0  0  0  0  0
   -8.2122   19.2764  -33.0760 H   0  0  0  0  0  0  0  0  0  0  0  0
   -4.9689   16.9403  -35.6151 H   0  0  0  0  0  0  0  0  0  0  0  0
   -2.4430   17.0310  -36.2350 H   0  0  0  0  0  0  0  0  0  0  0  0
    1.0515   17.6854  -34.6710 H   0  0  0  0  0  0  0  0  0  0  0  0
   -0.2400   17.1679  -35.8072 H   0  0  0  0  0  0  0  0  0  0  0  0
    0.3260   18.8726  -35.8072 H   0  0  0  0  0  0  0  0  0  0  0  0
   -1.1978   19.8546  -31.1508 H   0  0  0  0  0  0  0  0  0  0  0  0
   -7.7455   17.8988  -33.9139 H   0  0  0  0  0  0  0  0  0  0  0  0
   -6.6639   16.9184  -34.7645 H   0  0  0  0  0  0  0  0  0  0  0  0
   -6.2919   17.5916  -31.0389 H   0  0  0  0  0  0  0  0  0  0  0  0
   -5.0514   16.5777  -31.5756 H   0  0  0  0  0  0  0  0  0  0  0  0
   -4.0204   20.1485  -32.2462 H   0  0  0  0  0  0  0  0  0  0  0  0
  1  2  1  0
  2  3  1  0
  3  4  1  0
  4  5  2  0
  4  6  1  0
  6  7  1  0
  7  8  1  0
  8  9  1  0
  8 10  2  0
  7 11  2  0
 11 12  1  0
 12 13  2  0
 13 14  1  0
 14 15  2  0
 15 16  1  0
 16 17  1  0
 17 18  1  0
 18 19  2  0
 19 20  1  0
 20 21  2  0
 21 22  1  0
 21 23  1  0
 23 24  2  0
 24 25  1  0
 25 26  2  0
 16 27  1  0
 27 28  1  0
 28 29  1  0
 15 30  1  0
 30 31  2  0
 31  6  1  0
 31 12  1  0
 29 16  1  0
 26 17  1  0
 26 20  1  0
  1 32  1  0
  1 33  1  0
  1 34  1  0
  2 35  1  0
  2 36  1  0
  9 37  1  0
 11 38  1  0
 13 39  1  0
 14 40  1  0
 18 41  1  0
 19 42  1  0
 22 43  1  0
 22 44  1  0
 22 45  1  0
 24 46  1  0
 27 47  1  0
 27 48  1  0
 29 49  1  0
 29 50  1  0
 30 51  1  0
M  CHG  2   9  -1  19   1
M  END
>  <UniqueID>  (93) 
92

>  <SMILES>  (93) 
CCOC(=O)n1c(C([NH-])=O)cc2ccc(C3(n4c[nH+]c5c(C)ncnc54)COC3)cc21

>  <Energy>  (93) 
202.6072931802832

>  <Genealogy>  (93) 
CCOC(=O)n1c(C([NH-])=O)cc2ccc(C3(n4c[nH+]c5c(C)ncnc54)COC3)cc21 (protonated)
CCOC(=O)n1c(C([NH-])=O)cc2ccc(C3(n4c[nH+]c5c(C)ncnc54)COC3)cc21 (3D coordinates assigned)
CCOC(=O)n1c(C([NH-])=O)cc2ccc(C3(n4c[nH+]c5c(C)ncnc54)COC3)cc21 (nonaromatic ring conformer: 202.6072931802832 kcal/mol)

>  <smiles>  (93) 
CCOC(=O)n1c(C(N)=O)cc2ccc(C3(n4cnc5c(C)ncnc54)COC3)cc21

>  <score_type>  (93) 
oracle

>  <origin>  (93) 
adg

>  <m_score__min__energy>  (93) 
-11.02

>  <m_primary>  (93) 
energy

$$$$
93:0
     RDKit          3D

 45 46  0  0  0  0  0  0  0  0999 V2000
   -1.9640   21.5800  -32.1110 C   0  0  0  0  0  0  0  0  0  0  0  0
   -3.2170   22.2080  -31.8700 O   0  0  0  0  0  0  0  0  0  0  0  0
   -4.1670   21.6860  -30.9890 C   0  0  0  0  0  0  0  0  0  0  0  0
   -3.8330   20.8250  -30.1290 O   0  0  0  0  0  0  0  0  0  0  0  0
   -5.5290   22.1400  -31.0570 N   0  0  0  0  0  0  0  0  0  0  0  0
   -6.0060   23.3940  -30.8150 C   0  0  0  0  0  0  0  0  0  0  0  0
   -5.2090   24.5350  -30.3110 C   0  0  0  0  0  0  0  0  0  0  0  0
   -5.2410   24.8920  -28.9270 N   0  0  0  0  0  0  0  0  0  0  0  0
   -4.4690   25.1870  -31.0940 O   0  0  0  0  0  0  0  0  0  0  0  0
   -7.3860   23.4350  -31.0050 C   0  0  0  0  0  0  0  0  0  0  0  0
   -7.7430   22.1590  -31.3720 C   0  0  0  0  0  0  0  0  0  0  0  0
   -8.9960   21.6270  -31.6640 C   0  0  0  0  0  0  0  0  0  0  0  0
   -9.0710   20.2670  -32.0090 C   0  0  0  0  0  0  0  0  0  0  0  0
   -7.8980   19.4750  -32.0790 C   0  0  0  0  0  0  0  0  0  0  0  0
   -7.9940   18.0040  -32.3880 C   0  0  0  0  0  0  0  0  0  0  0  0
   -6.9740   17.6110  -33.4560 C   0  0  0  0  0  0  0  0  0  0  0  0
   -5.6780   17.5920  -32.8800 O   0  0  0  0  0  0  0  0  0  0  0  0
   -4.6210   17.9080  -33.7810 C   0  0  0  0  0  0  0  0  0  0  0  0
   -3.5280   16.8520  -33.5440 C   0  0  0  0  0  0  0  0  0  0  0  0
   -5.0860   17.7840  -35.2510 C   0  0  0  0  0  0  0  0  0  0  0  0
   -4.0030   19.3020  -33.5140 C   0  0  0  0  0  0  0  0  0  0  0  0
   -6.6440   20.0490  -31.7750 C   0  0  0  0  0  0  0  0  0  0  0  0
   -6.6030   21.3970  -31.4020 C   0  0  0  0  0  0  0  0  0  0  0  0
   -1.4838   21.3393  -31.1510 H   0  0  0  0  0  0  0  0  0  0  0  0
   -2.1219   20.6545  -32.6842 H   0  0  0  0  0  0  0  0  0  0  0  0
   -1.3171   22.2604  -32.6842 H   0  0  0  0  0  0  0  0  0  0  0  0
   -5.8820   24.4130  -28.2580 H   0  0  0  0  0  0  0  0  0  0  0  0
   -4.6460   25.6740  -28.5750 H   0  0  0  0  0  0  0  0  0  0  0  0
   -8.0494   24.3044  -30.8864 H   0  0  0  0  0  0  0  0  0  0  0  0
   -9.9000   22.2525  -31.6258 H   0  0  0  0  0  0  0  0  0  0  0  0
  -10.0490   19.8130  -32.2267 H   0  0  0  0  0  0  0  0  0  0  0  0
   -7.7976   17.4285  -31.4714 H   0  0  0  0  0  0  0  0  0  0  0  0
   -9.0041   17.7860  -32.7651 H   0  0  0  0  0  0  0  0  0  0  0  0
   -7.2173   16.6120  -33.8470 H   0  0  0  0  0  0  0  0  0  0  0  0
   -7.0015   18.3404  -34.2789 H   0  0  0  0  0  0  0  0  0  0  0  0
   -3.3824   16.7113  -32.4628 H   0  0  0  0  0  0  0  0  0  0  0  0
   -3.8340   15.8988  -33.9999 H   0  0  0  0  0  0  0  0  0  0  0  0
   -2.5859   17.1907  -33.9999 H   0  0  0  0  0  0  0  0  0  0  0  0
   -6.1486   17.5006  -35.2768 H   0  0  0  0  0  0  0  0  0  0  0  0
   -4.9515   18.7494  -35.7608 H   0  0  0  0  0  0  0  0  0  0  0  0
   -4.4886   17.0138  -35.7608 H   0  0  0  0  0  0  0  0  0  0  0  0
   -3.9291   19.4687  -32.4292 H   0  0  0  0  0  0  0  0  0  0  0  0
   -2.9993   19.3499  -33.9615 H   0  0  0  0  0  0  0  0  0  0  0  0
   -4.6414   20.0779  -33.9615 H   0  0  0  0  0  0  0  0  0  0  0  0
   -5.7223   19.4512  -31.8301 H   0  0  0  0  0  0  0  0  0  0  0  0
  1  2  1  0
  2  3  1  0
  3  4  2  0
  3  5  1  0
  5  6  1  0
  6  7  1  0
  7  8  1  0
  7  9  2  0
  6 10  2  0
 10 11  1  0
 11 12  2  0
 12 13  1  0
 13 14  2  0
 14 15  1  0
 15 16  1  0
 16 17  1  0
 17 18  1  0
 18 19  1  0
 18 20  1  0
 18 21  1  0
 14 22  1  0
 22 23  2  0
 23  5  1  0
 23 11  1  0
  1 24  1  0
  1 25  1  0
  1 26  1  0
  8 27  1  0
  8 28  1  0
 10 29  1  0
 12 30  1  0
 13 31  1  0
 15 32  1  0
 15 33  1  0
 16 34  1  0
 16 35  1  0
 19 36  1  0
 19 37  1  0
 19 38  1  0
 20 39  1  0
 20 40  1  0
 20 41  1  0
 21 42  1  0
 21 43  1  0
 21 44  1  0
 22 45  1  0
M  END
>  <UniqueID>  (94) 
93

>  <SMILES>  (94) 
COC(=O)n1c(C(N)=O)cc2ccc(CCOC(C)(C)C)cc21

>  <Energy>  (94) 
79.501462129107

>  <Genealogy>  (94) 
COC(=O)n1c(C(N)=O)cc2ccc(CCOC(C)(C)C)cc21 (3D coordinates assigned)
COC(=O)n1c(C(N)=O)cc2ccc(CCOC(C)(C)C)cc21 (optimized conformer: 79.501462129107 kcal/mol)

>  <smiles>  (94) 
COC(=O)n1c(C(N)=O)cc2ccc(CCOC(C)(C)C)cc21

>  <score_type>  (94) 
oracle

>  <origin>  (94) 
adg

>  <m_score__min__energy>  (94) 
-8.5899999999999999

>  <m_primary>  (94) 
energy

$$$$
94:0
     RDKit          3D

 50 53  0  0  0  0  0  0  0  0999 V2000
   -3.4240   24.9270  -26.3700 C   0  0  0  0  0  0  0  0  0  0  0  0
   -3.2580   24.5410  -27.7800 N   0  0  1  0  0  0  0  0  0  0  0  0
   -1.8650   24.7090  -28.2370 C   0  0  0  0  0  0  0  0  0  0  0  0
   -1.4900   23.4780  -29.0690 C   0  0  0  0  0  0  0  0  0  0  0  0
   -2.4560   22.3800  -28.6480 C   0  0  2  0  0  0  0  0  0  0  0  0
   -2.9520   21.6900  -29.7960 O   0  0  0  0  0  0  0  0  0  0  0  0
   -3.4320   22.3410  -30.9380 C   0  0  0  0  0  0  0  0  0  0  0  0
   -2.6300   22.8040  -31.7930 O   0  0  0  0  0  0  0  0  0  0  0  0
   -4.8480   22.5020  -31.1220 N   0  0  0  0  0  0  0  0  0  0  0  0
   -5.6010   23.6020  -30.8410 C   0  0  0  0  0  0  0  0  0  0  0  0
   -5.1340   24.8170  -30.1400 C   0  0  0  0  0  0  0  0  0  0  0  0
   -3.8630   25.3780  -30.4630 N   0  0  0  0  0  0  0  0  0  0  0  0
   -5.8610   25.3880  -29.2860 O   0  0  0  0  0  0  0  0  0  0  0  0
   -6.9220   23.4020  -31.2330 C   0  0  0  0  0  0  0  0  0  0  0  0
   -6.9550   22.1320  -31.7640 C   0  0  0  0  0  0  0  0  0  0  0  0
   -8.0140   21.4240  -32.3120 C   0  0  0  0  0  0  0  0  0  0  0  0
   -7.7610   20.1350  -32.8100 C   0  0  0  0  0  0  0  0  0  0  0  0
   -6.4520   19.5650  -32.7700 C   0  0  0  0  0  0  0  0  0  0  0  0
   -6.1960   18.2280  -33.3030 N   0  0  0  0  0  0  0  0  0  0  0  0
   -4.8460   17.8960  -33.8050 C   0  0  0  0  0  0  0  0  0  0  0  0
   -4.7400   16.4870  -34.3980 C   0  0  0  0  0  0  0  0  0  0  0  0
   -5.5080   15.5690  -33.6570 O   0  0  0  0  0  0  0  0  0  0  0  0
   -6.8690   15.8650  -33.8580 C   0  0  0  0  0  0  0  0  0  0  0  0
   -7.2450   17.1930  -33.1940 C   0  0  0  0  0  0  0  0  0  0  0  0
   -5.4040   20.3380  -32.1920 C   0  0  0  0  0  0  0  0  0  0  0  0
   -5.6940   21.6100  -31.6860 C   0  0  0  0  0  0  0  0  0  0  0  0
   -3.5310   23.1480  -27.9720 C   0  0  0  0  0  0  0  0  0  0  0  0
   -4.5890   22.6390  -27.6300 O   0  0  0  0  0  0  0  0  0  0  0  0
   -3.0727   24.1101  -25.7224 H   0  0  0  0  0  0  0  0  0  0  0  0
   -2.8366   25.8346  -26.1667 H   0  0  0  0  0  0  0  0  0  0  0  0
   -4.4868   25.1249  -26.1667 H   0  0  0  0  0  0  0  0  0  0  0  0
   -3.9070   25.1020  -28.3820 H   0  0  0  0  0  0  0  0  0  0  0  0
   -1.7808   25.6163  -28.8532 H   0  0  0  0  0  0  0  0  0  0  0  0
   -1.1887   24.8093  -27.3753 H   0  0  0  0  0  0  0  0  0  0  0  0
   -1.5998   23.6935  -30.1421 H   0  0  0  0  0  0  0  0  0  0  0  0
   -0.4439   23.1813  -28.9024 H   0  0  0  0  0  0  0  0  0  0  0  0
   -2.0084   21.6055  -28.0078 H   0  0  0  0  0  0  0  0  0  0  0  0
   -3.0830   24.7750  -30.8070 H   0  0  0  0  0  0  0  0  0  0  0  0
   -7.7603   24.1079  -31.1386 H   0  0  0  0  0  0  0  0  0  0  0  0
   -9.0233   21.8593  -32.3555 H   0  0  0  0  0  0  0  0  0  0  0  0
   -8.5889   19.5521  -33.2400 H   0  0  0  0  0  0  0  0  0  0  0  0
   -4.5771   18.6228  -34.5857 H   0  0  0  0  0  0  0  0  0  0  0  0
   -4.1634   17.9349  -32.9433 H   0  0  0  0  0  0  0  0  0  0  0  0
   -5.1038   16.5052  -35.4359 H   0  0  0  0  0  0  0  0  0  0  0  0
   -3.6870   16.1708  -34.3643 H   0  0  0  0  0  0  0  0  0  0  0  0
   -7.0666   15.9340  -34.9379 H   0  0  0  0  0  0  0  0  0  0  0  0
   -7.4726   15.0638  -33.4066 H   0  0  0  0  0  0  0  0  0  0  0  0
   -8.1598   17.5737  -33.6717 H   0  0  0  0  0  0  0  0  0  0  0  0
   -7.3858   16.9888  -32.1223 H   0  0  0  0  0  0  0  0  0  0  0  0
   -4.3797   19.9399  -32.1441 H   0  0  0  0  0  0  0  0  0  0  0  0
  1  2  1  0
  2  3  1  0
  3  4  1  0
  4  5  1  0
  5  6  1  0
  6  7  1  0
  7  8  2  0
  7  9  1  0
  9 10  1  0
 10 11  1  0
 11 12  1  0
 11 13  2  0
 10 14  2  0
 14 15  1  0
 15 16  2  0
 16 17  1  0
 17 18  2  0
 18 19  1  0
 19 20  1  0
 20 21  1  0
 21 22  1  0
 22 23  1  0
 23 24  1  0
 18 25  1  0
 25 26  2  0
  5 27  1  0
 27 28  2  0
 27  2  1  0
 26  9  1  0
 26 15  1  0
 24 19  1  0
  1 29  1  0
  1 30  1  0
  1 31  1  0
  2 32  1  6
  3 33  1  0
  3 34  1  0
  4 35  1  0
  4 36  1  0
  5 37  1  1
 12 38  1  0
 14 39  1  0
 16 40  1  0
 17 41  1  0
 20 42  1  0
 20 43  1  0
 21 44  1  0
 21 45  1  0
 23 46  1  0
 23 47  1  0
 24 48  1  0
 24 49  1  0
 25 50  1  0
M  CHG  2   2   1  12  -1
M  END
>  <UniqueID>  (95) 
94

>  <SMILES>  (95) 
C[N@H+]1CC[C@H](OC(=O)n2c(C([NH-])=O)cc3ccc(N4CCOCC4)cc32)C1=O

>  <Energy>  (95) 
100.6705323099302

>  <Genealogy>  (95) 
C[NH+]1CCC(OC(=O)n2c(C([NH-])=O)cc3ccc(N4CCOCC4)cc32)C1=O (protonated)
C[N@H+]1CC[C@H](OC(=O)n2c(C([NH-])=O)cc3ccc(N4CCOCC4)cc32)C1=O (chirality)
C[N@H+]1CC[C@H](OC(=O)n2c(C([NH-])=O)cc3ccc(N4CCOCC4)cc32)C1=O (3D coordinates assigned)
C[N@H+]1CC[C@H](OC(=O)n2c(C([NH-])=O)cc3ccc(N4CCOCC4)cc32)C1=O (nonaromatic ring conformer: 100.6705323099302 kcal/mol)

>  <smiles>  (95) 
CN1CCC(OC(=O)n2c(C(N)=O)cc3ccc(N4CCOCC4)cc32)C1=O

>  <score_type>  (95) 
oracle

>  <origin>  (95) 
adg

>  <m_score__min__energy>  (95) 
-10.109999999999999

>  <m_primary>  (95) 
energy

$$$$
95:0
     RDKit          3D

 31 33  0  0  0  0  0  0  0  0999 V2000
   -5.3120   26.3810  -30.4680 N   0  0  0  0  0  0  0  0  0  0  0  0
   -6.2490   25.3970  -30.0260 C   0  0  0  0  0  0  0  0  0  0  0  0
   -6.9090   25.6020  -28.9720 O   0  0  0  0  0  0  0  0  0  0  0  0
   -6.4100   24.1170  -30.7450 C   0  0  0  0  0  0  0  0  0  0  0  0
   -7.6470   23.6030  -31.1220 C   0  0  0  0  0  0  0  0  0  0  0  0
   -7.3710   22.3860  -31.7000 C   0  0  0  0  0  0  0  0  0  0  0  0
   -8.2330   21.4510  -32.2620 C   0  0  0  0  0  0  0  0  0  0  0  0
   -7.6740   20.2920  -32.8230 C   0  0  0  0  0  0  0  0  0  0  0  0
   -6.2670   20.0920  -32.8310 C   0  0  0  0  0  0  0  0  0  0  0  0
   -5.6660   18.8720  -33.4290 C   0  0  0  0  0  0  0  0  0  0  0  0
   -4.3190   18.8310  -33.8310 C   0  0  0  0  0  0  0  0  0  0  0  0
   -3.8000   17.6580  -34.3830 C   0  0  0  0  0  0  0  0  0  0  0  0
   -4.6160   16.5370  -34.5290 C   0  0  0  0  0  0  0  0  0  0  0  0
   -5.9460   16.6040  -34.1120 C   0  0  0  0  0  0  0  0  0  0  0  0
   -6.7540   15.5230  -34.2390 F   0  0  0  0  0  0  0  0  0  0  0  0
   -6.4340   17.7540  -33.5770 N   0  0  0  0  0  0  0  0  0  0  0  0
   -5.4270   21.0660  -32.2410 C   0  0  0  0  0  0  0  0  0  0  0  0
   -6.0130   22.2020  -31.6680 C   0  0  0  0  0  0  0  0  0  0  0  0
   -5.4060   23.2610  -31.0860 N   0  0  0  0  0  0  0  0  0  0  0  0
   -3.9910   23.4820  -30.9670 C   0  0  0  0  0  0  0  0  0  0  0  0
   -3.1860   22.5180  -31.0710 O   0  0  0  0  0  0  0  0  0  0  0  0
   -3.4930   24.7570  -30.7350 O   0  0  0  0  0  0  0  0  0  0  0  0
   -5.2410   27.2960  -29.9700 H   0  0  0  0  0  0  0  0  0  0  0  0
   -4.6330   26.1730  -31.2320 H   0  0  0  0  0  0  0  0  0  0  0  0
   -8.6338   24.0699  -30.9867 H   0  0  0  0  0  0  0  0  0  0  0  0
   -9.3208   21.6146  -32.2669 H   0  0  0  0  0  0  0  0  0  0  0  0
   -8.3334   19.5288  -33.2620 H   0  0  0  0  0  0  0  0  0  0  0  0
   -3.6784   19.7172  -33.7114 H   0  0  0  0  0  0  0  0  0  0  0  0
   -2.7481   17.6185  -34.7024 H   0  0  0  0  0  0  0  0  0  0  0  0
   -4.2162   15.6109  -34.9676 H   0  0  0  0  0  0  0  0  0  0  0  0
   -4.3350   20.9336  -32.2325 H   0  0  0  0  0  0  0  0  0  0  0  0
  1  2  1  0
  2  3  2  0
  2  4  1  0
  4  5  2  0
  5  6  1  0
  6  7  2  0
  7  8  1  0
  8  9  2  0
  9 10  1  0
 10 11  2  0
 11 12  1  0
 12 13  2  0
 13 14  1  0
 14 15  1  0
 14 16  2  0
  9 17  1  0
 17 18  2  0
 18 19  1  0
 19 20  1  0
 20 21  2  0
 20 22  1  0
 19  4  1  0
 18  6  1  0
 16 10  1  0
  1 23  1  0
  1 24  1  0
  5 25  1  0
  7 26  1  0
  8 27  1  0
 11 28  1  0
 12 29  1  0
 13 30  1  0
 17 31  1  0
M  CHG  1  22  -1
M  END
>  <UniqueID>  (96) 
95

>  <SMILES>  (96) 
NC(=O)c1cc2ccc(-c3cccc(F)n3)cc2n1C(=O)[O-]

>  <Energy>  (96) 
78.82780104734836

>  <Genealogy>  (96) 
NC(=O)c1cc2ccc(-c3cccc(F)n3)cc2n1C(=O)[O-] (protonated)
NC(=O)c1cc2ccc(-c3cccc(F)n3)cc2n1C(=O)[O-] (3D coordinates assigned)
NC(=O)c1cc2ccc(-c3cccc(F)n3)cc2n1C(=O)[O-] (optimized conformer: 78.82780104734836 kcal/mol)

>  <smiles>  (96) 
NC(=O)c1cc2ccc(-c3cccc(F)n3)cc2n1C(=O)O

>  <score_type>  (96) 
oracle

>  <origin>  (96) 
adg

>  <m_score__min__energy>  (96) 
-9.1899999999999995

>  <m_primary>  (96) 
energy

$$$$
96:0
     RDKit          3D

 39 40  0  0  0  0  0  0  0  0999 V2000
   -8.2360   18.7480  -31.4870 C   0  0  0  0  0  0  0  0  0  0  0  0
   -7.4270   19.8510  -32.0320 N   0  0  2  0  0  0  0  0  0  0  0  0
   -8.2130   21.0750  -32.3320 C   0  0  0  0  0  0  0  0  0  0  0  0
   -8.0650   22.2290  -31.3150 C   0  0  0  0  0  0  0  0  0  0  0  0
   -7.0120   21.9880  -30.4210 O   0  0  0  0  0  0  0  0  0  0  0  0
   -6.6400   19.4100  -33.1700 C   0  0  0  0  0  0  0  0  0  0  0  0
   -6.8000   18.2930  -33.6440 O   0  0  0  0  0  0  0  0  0  0  0  0
   -5.6130   20.3210  -33.7920 C   0  0  0  0  0  0  0  0  0  0  0  0
   -4.5650   20.6880  -32.7800 C   0  0  0  0  0  0  0  0  0  0  0  0
   -3.4660   19.8230  -32.5550 C   0  0  0  0  0  0  0  0  0  0  0  0
   -2.4430   20.1810  -31.6610 C   0  0  0  0  0  0  0  0  0  0  0  0
   -2.5470   21.4070  -31.0090 C   0  0  0  0  0  0  0  0  0  0  0  0
   -1.6840   22.0140  -30.1270 C   0  0  0  0  0  0  0  0  0  0  0  0
   -2.2760   23.2370  -29.8130 C   0  0  0  0  0  0  0  0  0  0  0  0
   -1.7140   24.1790  -28.8230 C   0  0  0  0  0  0  0  0  0  0  0  0
   -1.8170   25.5880  -29.0110 N   0  0  0  0  0  0  0  0  0  0  0  0
   -1.1780   23.7340  -27.7730 O   0  0  0  0  0  0  0  0  0  0  0  0
   -3.4550   23.3830  -30.4830 N   0  0  0  0  0  0  0  0  0  0  0  0
   -4.3200   24.5300  -30.5060 C   0  0  0  0  0  0  0  0  0  0  0  0
   -3.8660   25.6630  -30.8160 O   0  0  0  0  0  0  0  0  0  0  0  0
   -5.6710   24.3960  -30.2120 O   0  0  0  0  0  0  0  0  0  0  0  0
   -3.6080   22.2520  -31.2080 C   0  0  0  0  0  0  0  0  0  0  0  0
   -4.6320   21.9290  -32.1050 C   0  0  0  0  0  0  0  0  0  0  0  0
   -8.2104   18.7829  -30.3878 H   0  0  0  0  0  0  0  0  0  0  0  0
   -9.2752   18.8498  -31.8330 H   0  0  0  0  0  0  0  0  0  0  0  0
   -7.8267   17.7874  -31.8330 H   0  0  0  0  0  0  0  0  0  0  0  0
   -6.7600   20.1200  -31.2690 H   0  0  0  0  0  0  0  0  0  0  0  0
   -7.8951   21.4486  -33.3165 H   0  0  0  0  0  0  0  0  0  0  0  0
   -9.2696   20.7717  -32.2916 H   0  0  0  0  0  0  0  0  0  0  0  0
   -7.8657   23.1635  -31.8599 H   0  0  0  0  0  0  0  0  0  0  0  0
   -8.9989   22.3061  -30.7389 H   0  0  0  0  0  0  0  0  0  0  0  0
   -6.5320   22.8490  -30.3050 H   0  0  0  0  0  0  0  0  0  0  0  0
   -5.1359   19.8062  -34.6389 H   0  0  0  0  0  0  0  0  0  0  0  0
   -6.1108   21.2374  -34.1420 H   0  0  0  0  0  0  0  0  0  0  0  0
   -3.4130   18.8610  -33.0858 H   0  0  0  0  0  0  0  0  0  0  0  0
   -1.5869   19.5139  -31.4818 H   0  0  0  0  0  0  0  0  0  0  0  0
   -0.7294   21.6188  -29.7494 H   0  0  0  0  0  0  0  0  0  0  0  0
   -2.7450   26.0660  -28.9850 H   0  0  0  0  0  0  0  0  0  0  0  0
   -5.4677   22.6224  -32.2807 H   0  0  0  0  0  0  0  0  0  0  0  0
  1  2  1  0
  2  3  1  0
  3  4  1  0
  4  5  1  0
  2  6  1  0
  6  7  2  0
  6  8  1  0
  8  9  1  0
  9 10  2  0
 10 11  1  0
 11 12  2  0
 12 13  1  0
 13 14  2  0
 14 15  1  0
 15 16  1  0
 15 17  2  0
 14 18  1  0
 18 19  1  0
 19 20  2  0
 19 21  1  0
 18 22  1  0
 22 23  2  0
 23  9  1  0
 22 12  1  0
  1 24  1  0
  1 25  1  0
  1 26  1  0
  2 27  1  1
  3 28  1  0
  3 29  1  0
  4 30  1  0
  4 31  1  0
  5 32  1  0
  8 33  1  0
  8 34  1  0
 10 35  1  0
 11 36  1  0
 13 37  1  0
 16 38  1  0
 23 39  1  0
M  CHG  3   2   1  16  -1  21  -1
M  END
>  <UniqueID>  (97) 
96

>  <SMILES>  (97) 
C[N@H+](CCO)C(=O)Cc1ccc2cc(C([NH-])=O)n(C(=O)[O-])c2c1

>  <Energy>  (97) 
80.41437765560566

>  <Genealogy>  (97) 
C[NH+](CCO)C(=O)Cc1ccc2cc(C([NH-])=O)n(C(=O)[O-])c2c1 (protonated)
C[N@H+](CCO)C(=O)Cc1ccc2cc(C([NH-])=O)n(C(=O)[O-])c2c1 (chirality)
C[N@H+](CCO)C(=O)Cc1ccc2cc(C([NH-])=O)n(C(=O)[O-])c2c1 (3D coordinates assigned)
C[N@H+](CCO)C(=O)Cc1ccc2cc(C([NH-])=O)n(C(=O)[O-])c2c1 (optimized conformer: 80.41437765560566 kcal/mol)

>  <smiles>  (97) 
CN(CCO)C(=O)Cc1ccc2cc(C(N)=O)n(C(=O)O)c2c1

>  <score_type>  (97) 
oracle

>  <origin>  (97) 
adg

>  <m_score__min__energy>  (97) 
-9.9000000000000004

>  <m_primary>  (97) 
energy

$$$$
97:0
     RDKit          3D

 35 37  0  0  0  0  0  0  0  0999 V2000
   -9.3990   22.0120  -31.9330 C   0  0  0  0  0  0  0  0  0  0  0  0
   -8.3680   22.9930  -31.9360 O   0  0  0  0  0  0  0  0  0  0  0  0
   -7.3390   23.0090  -30.9910 C   0  0  0  0  0  0  0  0  0  0  0  0
   -7.5880   23.2870  -29.7870 O   0  0  0  0  0  0  0  0  0  0  0  0
   -5.9900   22.7220  -31.3990 N   0  0  0  0  0  0  0  0  0  0  0  0
   -4.8580   23.3990  -31.0510 C   0  0  0  0  0  0  0  0  0  0  0  0
   -4.8170   24.6740  -30.3030 C   0  0  0  0  0  0  0  0  0  0  0  0
   -5.4090   24.7800  -29.0060 N   0  0  0  0  0  0  0  0  0  0  0  0
   -4.2280   25.6760  -30.7910 O   0  0  0  0  0  0  0  0  0  0  0  0
   -3.7330   22.7730  -31.5810 C   0  0  0  0  0  0  0  0  0  0  0  0
   -4.2120   21.6840  -32.2720 C   0  0  0  0  0  0  0  0  0  0  0  0
   -3.5280   20.7070  -32.9880 C   0  0  0  0  0  0  0  0  0  0  0  0
   -4.2760   19.6780  -33.5830 C   0  0  0  0  0  0  0  0  0  0  0  0
   -5.6900   19.6400  -33.4490 C   0  0  0  0  0  0  0  0  0  0  0  0
   -6.4710   18.5870  -34.0440 N   0  0  0  0  0  0  0  0  0  0  0  0
   -6.9780   17.4450  -33.2880 C   0  0  0  0  0  0  0  0  0  0  0  0
   -6.4770   17.3830  -31.8550 C   0  0  0  0  0  0  0  0  0  0  0  0
   -7.8980   17.8410  -32.1450 C   0  0  0  0  0  0  0  0  0  0  0  0
   -6.3460   20.6510  -32.7140 C   0  0  0  0  0  0  0  0  0  0  0  0
   -5.5770   21.6750  -32.1470 C   0  0  0  0  0  0  0  0  0  0  0  0
   -9.6630   21.7608  -30.8951 H   0  0  0  0  0  0  0  0  0  0  0  0
  -10.2845   22.4092  -32.4508 H   0  0  0  0  0  0  0  0  0  0  0  0
   -9.0463   21.1078  -32.4508 H   0  0  0  0  0  0  0  0  0  0  0  0
   -5.3410   25.6740  -28.4710 H   0  0  0  0  0  0  0  0  0  0  0  0
   -5.9510   23.9910  -28.5920 H   0  0  0  0  0  0  0  0  0  0  0  0
   -2.6835   23.0834  -31.4706 H   0  0  0  0  0  0  0  0  0  0  0  0
   -2.4328   20.7394  -33.0854 H   0  0  0  0  0  0  0  0  0  0  0  0
   -3.7622   18.8938  -34.1584 H   0  0  0  0  0  0  0  0  0  0  0  0
   -6.7610   18.6800  -35.0450 H   0  0  0  0  0  0  0  0  0  0  0  0
   -7.0289   16.7330  -34.1250 H   0  0  0  0  0  0  0  0  0  0  0  0
   -6.3001   16.4088  -31.3758 H   0  0  0  0  0  0  0  0  0  0  0  0
   -5.6189   17.8059  -31.3119 H   0  0  0  0  0  0  0  0  0  0  0  0
   -8.7490   17.1981  -31.8757 H   0  0  0  0  0  0  0  0  0  0  0  0
   -8.4937   18.7323  -31.8988 H   0  0  0  0  0  0  0  0  0  0  0  0
   -7.4388   20.6349  -32.5892 H   0  0  0  0  0  0  0  0  0  0  0  0
  1  2  1  0
  2  3  1  0
  3  4  2  0
  3  5  1  0
  5  6  1  0
  6  7  1  0
  7  8  1  0
  7  9  2  0
  6 10  2  0
 10 11  1  0
 11 12  2  0
 12 13  1  0
 13 14  2  0
 14 15  1  0
 15 16  1  0
 16 17  1  0
 17 18  1  0
 14 19  1  0
 19 20  2  0
 20  5  1  0
 20 11  1  0
 18 16  1  0
  1 21  1  0
  1 22  1  0
  1 23  1  0
  8 24  1  0
  8 25  1  0
 10 26  1  0
 12 27  1  0
 13 28  1  0
 15 29  1  0
 16 30  1  0
 17 31  1  0
 17 32  1  0
 18 33  1  0
 18 34  1  0
 19 35  1  0
M  END
>  <UniqueID>  (98) 
97

>  <SMILES>  (98) 
COC(=O)n1c(C(N)=O)cc2ccc(NC3CC3)cc21

>  <Energy>  (98) 
336.6847437402856

>  <Genealogy>  (98) 
COC(=O)n1c(C(N)=O)cc2ccc(NC3CC3)cc21 (3D coordinates assigned)
COC(=O)n1c(C(N)=O)cc2ccc(NC3CC3)cc21 (nonaromatic ring conformer: 336.6847437402856 kcal/mol)

>  <smiles>  (98) 
COC(=O)n1c(C(N)=O)cc2ccc(NC3CC3)cc21

>  <score_type>  (98) 
oracle

>  <origin>  (98) 
adg

>  <m_score__min__energy>  (98) 
-8.5

>  <m_primary>  (98) 
energy

$$$$
98:0
     RDKit          3D

 49 51  0  0  0  0  0  0  0  0999 V2000
   -6.3250   25.6720  -29.5370 C   0  0  0  0  0  0  0  0  0  0  0  0
   -5.6540   25.4500  -30.8870 C   0  0  0  0  0  0  0  0  0  0  0  0
   -4.3070   25.0150  -30.7130 O   0  0  0  0  0  0  0  0  0  0  0  0
   -3.9570   23.8590  -30.0060 C   0  0  0  0  0  0  0  0  0  0  0  0
   -4.6620   23.4640  -29.0370 O   0  0  0  0  0  0  0  0  0  0  0  0
   -2.7790   23.1270  -30.3780 N   0  0  0  0  0  0  0  0  0  0  0  0
   -1.5040   23.3180  -29.9340 C   0  0  0  0  0  0  0  0  0  0  0  0
   -1.0350   24.4440  -29.1010 C   0  0  0  0  0  0  0  0  0  0  0  0
   -1.8180   25.6280  -28.9600 N   0  0  0  0  0  0  0  0  0  0  0  0
    0.0920   24.3800  -28.5420 O   0  0  0  0  0  0  0  0  0  0  0  0
   -0.6570   22.3370  -30.4440 C   0  0  0  0  0  0  0  0  0  0  0  0
   -1.4570   21.5350  -31.2270 C   0  0  0  0  0  0  0  0  0  0  0  0
   -1.1380   20.4000  -31.9640 C   0  0  0  0  0  0  0  0  0  0  0  0
   -2.1730   19.7490  -32.6560 C   0  0  0  0  0  0  0  0  0  0  0  0
   -3.5080   20.2350  -32.5910 C   0  0  0  0  0  0  0  0  0  0  0  0
   -4.5900   19.5790  -33.2830 N   0  0  0  0  0  0  0  0  0  0  0  0
   -5.5940   18.7310  -32.6410 C   0  0  0  0  0  0  0  0  0  0  0  0
   -6.4460   19.5630  -31.6580 C   0  0  0  0  0  0  0  0  0  0  0  0
   -7.1570   20.7030  -32.2790 N   0  0  0  0  0  0  0  0  0  0  0  0
   -7.0080   21.9660  -31.5290 C   0  0  0  0  0  0  0  0  0  0  0  0
   -8.0630   22.9880  -31.9810 C   0  0  0  0  0  0  0  0  0  0  0  0
   -9.4060   22.5550  -31.7980 O   0  0  0  0  0  0  0  0  0  0  0  0
   -9.5660   21.1420  -31.8110 C   0  0  0  0  0  0  0  0  0  0  0  0
   -8.5450   20.4130  -32.7010 C   0  0  0  0  0  0  0  0  0  0  0  0
   -3.7870   21.3950  -31.8350 C   0  0  0  0  0  0  0  0  0  0  0  0
   -2.7330   22.0330  -31.1720 C   0  0  0  0  0  0  0  0  0  0  0  0
   -5.6142   25.4368  -28.7311 H   0  0  0  0  0  0  0  0  0  0  0  0
   -6.6405   26.7224  -29.4527 H   0  0  0  0  0  0  0  0  0  0  0  0
   -7.2047   25.0170  -29.4527 H   0  0  0  0  0  0  0  0  0  0  0  0
   -6.2117   24.6843  -31.4462 H   0  0  0  0  0  0  0  0  0  0  0  0
   -5.6509   26.3999  -31.4417 H   0  0  0  0  0  0  0  0  0  0  0  0
   -2.8000   25.6660  -29.3130 H   0  0  0  0  0  0  0  0  0  0  0  0
    0.4219   22.2264  -30.2603 H   0  0  0  0  0  0  0  0  0  0  0  0
   -0.1055   20.0228  -32.0041 H   0  0  0  0  0  0  0  0  0  0  0  0
   -1.9484   18.8538  -33.2545 H   0  0  0  0  0  0  0  0  0  0  0  0
   -4.6630   19.7020  -34.3190 H   0  0  0  0  0  0  0  0  0  0  0  0
   -6.2484   18.2964  -33.4110 H   0  0  0  0  0  0  0  0  0  0  0  0
   -5.0845   17.9302  -32.0850 H   0  0  0  0  0  0  0  0  0  0  0  0
   -7.1943   18.8975  -31.2028 H   0  0  0  0  0  0  0  0  0  0  0  0
   -5.7488   19.9908  -30.9225 H   0  0  0  0  0  0  0  0  0  0  0  0
   -7.1345   21.7662  -30.4547 H   0  0  0  0  0  0  0  0  0  0  0  0
   -6.0069   22.3788  -31.7226 H   0  0  0  0  0  0  0  0  0  0  0  0
   -7.9167   23.9135  -31.4048 H   0  0  0  0  0  0  0  0  0  0  0  0
   -7.9209   23.1341  -33.0620 H   0  0  0  0  0  0  0  0  0  0  0  0
   -9.4571   20.7705  -30.7814 H   0  0  0  0  0  0  0  0  0  0  0  0
  -10.5625   20.9348  -32.2283 H   0  0  0  0  0  0  0  0  0  0  0  0
   -8.7206   19.3292  -32.6333 H   0  0  0  0  0  0  0  0  0  0  0  0
   -8.6732   20.7653  -33.7351 H   0  0  0  0  0  0  0  0  0  0  0  0
   -4.8120   21.7887  -31.7688 H   0  0  0  0  0  0  0  0  0  0  0  0
  1  2  1  0
  2  3  1  0
  3  4  1  0
  4  5  2  0
  4  6  1  0
  6  7  1  0
  7  8  1  0
  8  9  1  0
  8 10  2  0
  7 11  2  0
 11 12  1  0
 12 13  2  0
 13 14  1  0
 14 15  2  0
 15 16  1  0
 16 17  1  0
 17 18  1  0
 18 19  1  0
 19 20  1  0
 20 21  1  0
 21 22  1  0
 22 23  1  0
 23 24  1  0
 15 25  1  0
 25 26  2  0
 26  6  1  0
 26 12  1  0
 24 19  1  0
  1 27  1  0
  1 28  1  0
  1 29  1  0
  2 30  1  0
  2 31  1  0
  9 32  1  0
 11 33  1  0
 13 34  1  0
 14 35  1  0
 16 36  1  0
 17 37  1  0
 17 38  1  0
 18 39  1  0
 18 40  1  0
 20 41  1  0
 20 42  1  0
 21 43  1  0
 21 44  1  0
 23 45  1  0
 23 46  1  0
 24 47  1  0
 24 48  1  0
 25 49  1  0
M  CHG  1   9  -1
M  END
>  <UniqueID>  (99) 
98

>  <SMILES>  (99) 
CCOC(=O)n1c(C([NH-])=O)cc2ccc(NCCN3CCOCC3)cc21

>  <Energy>  (99) 
100.43444067106243

>  <Genealogy>  (99) 
CCOC(=O)n1c(C([NH-])=O)cc2ccc(NCCN3CCOCC3)cc21 (protonated)
CCOC(=O)n1c(C([NH-])=O)cc2ccc(NCCN3CCOCC3)cc21 (3D coordinates assigned)
CCOC(=O)n1c(C([NH-])=O)cc2ccc(NCCN3CCOCC3)cc21 (nonaromatic ring conformer: 100.43444067106243 kcal/mol)

>  <smiles>  (99) 
CCOC(=O)n1c(C(N)=O)cc2ccc(NCCN3CCOCC3)cc21

>  <score_type>  (99) 
oracle

>  <origin>  (99) 
adg

>  <m_score__min__energy>  (99) 
-10.82

>  <m_primary>  (99) 
energy

$$$$
