0:0
     RDKit          3D

 42 43  0  0  0  0  0  0  0  0999 V2000
   -4.2110   25.5160  -30.7110 N   0  0  0  0  0  0  0  0  0  0  0  0
   -5.5180   25.0530  -30.3640 C   0  0  0  0  0  0  0  0  0  0  0  0
   -6.2320   25.7530  -29.5980 O   0  0  0  0  0  0  0  0  0  0  0  0
   -6.0430   23.7830  -30.9120 C   0  0  0  0  0  0  0  0  0  0  0  0
   -7.3880   23.5430  -31.1940 C   0  0  0  0  0  0  0  0  0  0  0  0
   -7.4500   22.2250  -31.5880 C   0  0  0  0  0  0  0  0  0  0  0  0
   -8.5390   21.4580  -31.9920 C   0  0  0  0  0  0  0  0  0  0  0  0
   -8.3040   20.1230  -32.3640 C   0  0  0  0  0  0  0  0  0  0  0  0
   -6.9930   19.5840  -32.3280 C   0  0  0  0  0  0  0  0  0  0  0  0
   -6.7430   18.1590  -32.7320 C   0  0  0  0  0  0  0  0  0  0  0  0
   -6.0000   17.5210  -31.7540 F   0  0  0  0  0  0  0  0  0  0  0  0
   -6.0480   18.1280  -33.9270 F   0  0  0  0  0  0  0  0  0  0  0  0
   -5.9130   20.3920  -31.9080 C   0  0  0  0  0  0  0  0  0  0  0  0
   -6.1800   21.7140  -31.5360 C   0  0  0  0  0  0  0  0  0  0  0  0
   -5.3070   22.6560  -31.1280 N   0  0  0  0  0  0  0  0  0  0  0  0
   -3.8850   22.4960  -31.0130 C   0  0  0  0  0  0  0  0  0  0  0  0
   -3.1150   23.3070  -31.5960 O   0  0  0  0  0  0  0  0  0  0  0  0
   -3.3020   21.4270  -30.1340 C   0  0  0  0  0  0  0  0  0  0  0  0
   -2.2330   21.9860  -29.2290 C   0  0  0  0  0  0  0  0  0  0  0  0
   -1.0490   22.0860  -29.6510 O   0  0  0  0  0  0  0  0  0  0  0  0
   -2.5390   22.4900  -27.9250 N   0  0  0  0  0  0  0  0  0  0  0  0
   -3.0470   23.8310  -27.6530 C   0  0  0  0  0  0  0  0  0  0  0  0
   -2.0790   24.8810  -28.2210 C   0  0  2  0  0  0  0  0  0  0  0  0
   -2.1760   24.9390  -29.6230 O   0  0  0  0  0  0  0  0  0  0  0  0
   -0.6250   24.6020  -27.8000 C   0  0  0  0  0  0  0  0  0  0  0  0
    0.1530   24.2240  -28.9050 O   0  0  0  0  0  0  0  0  0  0  0  0
   -3.5650   24.9390  -31.2920 H   0  0  0  0  0  0  0  0  0  0  0  0
   -3.8660   26.4300  -30.3420 H   0  0  0  0  0  0  0  0  0  0  0  0
   -8.2224   24.2557  -31.1178 H   0  0  0  0  0  0  0  0  0  0  0  0
   -9.5529   21.8837  -32.0193 H   0  0  0  0  0  0  0  0  0  0  0  0
   -9.1446   19.4908  -32.6859 H   0  0  0  0  0  0  0  0  0  0  0  0
   -7.7076   17.6449  -32.8550 H   0  0  0  0  0  0  0  0  0  0  0  0
   -4.8888   19.9922  -31.8743 H   0  0  0  0  0  0  0  0  0  0  0  0
   -4.1031   20.9935  -29.5174 H   0  0  0  0  0  0  0  0  0  0  0  0
   -2.8470   20.6586  -30.7763 H   0  0  0  0  0  0  0  0  0  0  0  0
   -4.0332   23.9504  -28.1254 H   0  0  0  0  0  0  0  0  0  0  0  0
   -3.1368   23.9711  -26.5657 H   0  0  0  0  0  0  0  0  0  0  0  0
   -2.3701   25.8556  -27.8023 H   0  0  0  0  0  0  0  0  0  0  0  0
   -1.7880   24.0990  -29.9860 H   0  0  0  0  0  0  0  0  0  0  0  0
   -0.1983   25.5124  -27.3538 H   0  0  0  0  0  0  0  0  0  0  0  0
   -0.6224   23.7787  -27.0705 H   0  0  0  0  0  0  0  0  0  0  0  0
   -0.4240   23.6550  -29.4770 H   0  0  0  0  0  0  0  0  0  0  0  0
  1  2  1  0
  2  3  2  0
  2  4  1  0
  4  5  2  0
  5  6  1  0
  6  7  2  0
  7  8  1  0
  8  9  2  0
  9 10  1  0
 10 11  1  0
 10 12  1  0
  9 13  1  0
 13 14  2  0
 14 15  1  0
 15 16  1  0
 16 17  2  0
 16 18  1  0
 18 19  1  0
 19 20  2  0
 19 21  1  0
 21 22  1  0
 22 23  1  0
 23 24  1  0
 23 25  1  0
 25 26  1  0
 15  4  1  0
 14  6  1  0
  1 27  1  0
  1 28  1  0
  5 29  1  0
  7 30  1  0
  8 31  1  0
 10 32  1  0
 13 33  1  0
 18 34  1  0
 18 35  1  0
 22 36  1  0
 22 37  1  0
 23 38  1  1
 24 39  1  0
 25 40  1  0
 25 41  1  0
 26 42  1  0
M  CHG  1  21  -1
M  END
>  <UniqueID>  (1) 
1

>  <SMILES>  (1) 
NC(=O)c1cc2ccc(C(F)F)cc2n1C(=O)CC(=O)[N-]C[C@H](O)CO

>  <Energy>  (1) 
75.44857243962085

>  <Genealogy>  (1) 
NC(=O)c1cc2ccc(C(F)F)cc2n1C(=O)CC(=O)[N-]CC(O)CO (protonated)
NC(=O)c1cc2ccc(C(F)F)cc2n1C(=O)CC(=O)[N-]C[C@H](O)CO (chirality)
NC(=O)c1cc2ccc(C(F)F)cc2n1C(=O)CC(=O)[N-]C[C@H](O)CO (3D coordinates assigned)
NC(=O)c1cc2ccc(C(F)F)cc2n1C(=O)CC(=O)[N-]C[C@H](O)CO (optimized conformer: 75.44857243962085 kcal/mol)

>  <smiles>  (1) 
NC(=O)c1cc2ccc(C(F)F)cc2n1C(=O)CC(=O)NCC(O)CO

>  <score_type>  (1) 
oracle

>  <origin>  (1) 
adg

>  <m_score__min__energy>  (1) 
-9.8100000000000005

>  <m_primary>  (1) 
energy

$$$$
1:0
     RDKit          3D

 49 51  0  0  0  0  0  0  0  0999 V2000
   -2.1220   14.9060  -33.4430 C   0  0  0  0  0  0  0  0  0  0  0  0
   -2.9770   15.8970  -34.0000 O   0  0  0  0  0  0  0  0  0  0  0  0
   -2.8480   17.2740  -33.7700 C   0  0  0  0  0  0  0  0  0  0  0  0
   -1.6470   17.7480  -33.2320 C   0  0  0  0  0  0  0  0  0  0  0  0
   -1.4640   19.1120  -32.9920 C   0  0  0  0  0  0  0  0  0  0  0  0
   -2.4930   20.0220  -33.2710 C   0  0  0  0  0  0  0  0  0  0  0  0
   -2.2790   21.4930  -33.0610 C   0  0  0  0  0  0  0  0  0  0  0  0
   -3.5690   22.1520  -32.8770 N   0  0  0  0  0  0  0  0  0  0  0  0
   -4.0950   22.4700  -31.5810 C   0  0  0  0  0  0  0  0  0  0  0  0
   -3.3440   22.4670  -30.5680 O   0  0  0  0  0  0  0  0  0  0  0  0
   -5.4880   22.7810  -31.4300 N   0  0  0  0  0  0  0  0  0  0  0  0
   -6.0400   23.9170  -30.9180 C   0  0  0  0  0  0  0  0  0  0  0  0
   -5.2990   25.1270  -30.5100 C   0  0  0  0  0  0  0  0  0  0  0  0
   -3.8950   25.2110  -30.7390 N   0  0  0  0  0  0  0  0  0  0  0  0
   -5.8890   26.0830  -29.9390 O   0  0  0  0  0  0  0  0  0  0  0  0
   -7.4280   23.8060  -30.8770 C   0  0  0  0  0  0  0  0  0  0  0  0
   -7.7100   22.5560  -31.3810 C   0  0  0  0  0  0  0  0  0  0  0  0
   -8.9310   21.9130  -31.5470 C   0  0  0  0  0  0  0  0  0  0  0  0
   -8.9230   20.6050  -32.0610 C   0  0  0  0  0  0  0  0  0  0  0  0
   -7.7040   19.9620  -32.3940 C   0  0  0  0  0  0  0  0  0  0  0  0
   -7.7430   18.6220  -32.9200 N   0  0  0  0  0  0  0  0  0  0  0  0
   -7.1030   17.4810  -32.2620 C   0  0  0  0  0  0  0  0  0  0  0  0
   -6.5040   16.5230  -33.2960 C   0  0  0  0  0  0  0  0  0  0  0  0
   -6.8050   16.9530  -34.5950 O   0  0  0  0  0  0  0  0  0  0  0  0
   -6.4790   20.6500  -32.2050 C   0  0  0  0  0  0  0  0  0  0  0  0
   -6.5210   21.9580  -31.7070 C   0  0  0  0  0  0  0  0  0  0  0  0
   -3.6960   19.5530  -33.8210 C   0  0  0  0  0  0  0  0  0  0  0  0
   -3.8760   18.1900  -34.0660 C   0  0  0  0  0  0  0  0  0  0  0  0
   -2.1669   14.9580  -32.3451 H   0  0  0  0  0  0  0  0  0  0  0  0
   -2.4490   13.9101  -33.7766 H   0  0  0  0  0  0  0  0  0  0  0  0
   -1.0889   15.0835  -33.7766 H   0  0  0  0  0  0  0  0  0  0  0  0
   -0.8390   17.0400  -32.9956 H   0  0  0  0  0  0  0  0  0  0  0  0
   -0.5090   19.4732  -32.5826 H   0  0  0  0  0  0  0  0  0  0  0  0
   -1.6570   21.6490  -32.1673 H   0  0  0  0  0  0  0  0  0  0  0  0
   -1.7723   21.9186  -33.9397 H   0  0  0  0  0  0  0  0  0  0  0  0
   -4.1960   22.2460  -33.7090 H   0  0  0  0  0  0  0  0  0  0  0  0
   -3.4830   26.0180  -31.2590 H   0  0  0  0  0  0  0  0  0  0  0  0
   -8.1465   24.5576  -30.5181 H   0  0  0  0  0  0  0  0  0  0  0  0
   -9.8750   22.4127  -31.2840 H   0  0  0  0  0  0  0  0  0  0  0  0
   -9.8748   20.0732  -32.2068 H   0  0  0  0  0  0  0  0  0  0  0  0
   -8.2470   18.4650  -33.8230 H   0  0  0  0  0  0  0  0  0  0  0  0
   -6.3019   17.8474  -31.6031 H   0  0  0  0  0  0  0  0  0  0  0  0
   -7.8617   16.9398  -31.6777 H   0  0  0  0  0  0  0  0  0  0  0  0
   -5.4118   16.4904  -33.1694 H   0  0  0  0  0  0  0  0  0  0  0  0
   -6.9332   15.5217  -33.1441 H   0  0  0  0  0  0  0  0  0  0  0  0
   -6.7430   17.9430  -34.5880 H   0  0  0  0  0  0  0  0  0  0  0  0
   -5.5193   20.1683  -32.4436 H   0  0  0  0  0  0  0  0  0  0  0  0
   -4.5015   20.2629  -34.0604 H   0  0  0  0  0  0  0  0  0  0  0  0
   -4.8244   17.8304  -34.4918 H   0  0  0  0  0  0  0  0  0  0  0  0
  1  2  1  0
  2  3  1  0
  3  4  2  0
  4  5  1  0
  5  6  2  0
  6  7  1  0
  7  8  1  0
  8  9  1  0
  9 10  2  0
  9 11  1  0
 11 12  1  0
 12 13  1  0
 13 14  1  0
 13 15  2  0
 12 16  2  0
 16 17  1  0
 17 18  2  0
 18 19  1  0
 19 20  2  0
 20 21  1  0
 21 22  1  0
 22 23  1  0
 23 24  1  0
 20 25  1  0
 25 26  2  0
  6 27  1  0
 27 28  2  0
 28  3  1  0
 26 11  1  0
 26 17  1  0
  1 29  1  0
  1 30  1  0
  1 31  1  0
  4 32  1  0
  5 33  1  0
  7 34  1  0
  7 35  1  0
  8 36  1  0
 14 37  1  0
 16 38  1  0
 18 39  1  0
 19 40  1  0
 21 41  1  0
 22 42  1  0
 22 43  1  0
 23 44  1  0
 23 45  1  0
 24 46  1  0
 25 47  1  0
 27 48  1  0
 28 49  1  0
M  CHG  1  14  -1
M  END
>  <UniqueID>  (2) 
2

>  <SMILES>  (2) 
COc1ccc(CNC(=O)n2c(C([NH-])=O)cc3ccc(NCCO)cc32)cc1

>  <Energy>  (2) 
80.35237965743804

>  <Genealogy>  (2) 
COc1ccc(CNC(=O)n2c(C([NH-])=O)cc3ccc(NCCO)cc32)cc1 (protonated)
COc1ccc(CNC(=O)n2c(C([NH-])=O)cc3ccc(NCCO)cc32)cc1 (3D coordinates assigned)
COc1ccc(CNC(=O)n2c(C([NH-])=O)cc3ccc(NCCO)cc32)cc1 (optimized conformer: 80.35237965743804 kcal/mol)

>  <smiles>  (2) 
COc1ccc(CNC(=O)n2c(C(N)=O)cc3ccc(NCCO)cc32)cc1

>  <score_type>  (2) 
oracle

>  <origin>  (2) 
adg

>  <m_score__min__energy>  (2) 
-10.69

>  <m_primary>  (2) 
energy

$$$$
2:0
     RDKit          3D

 39 40  0  0  0  0  0  0  0  0999 V2000
   -3.9800   25.6620  -30.8440 N   0  0  0  0  0  0  0  0  0  0  0  0
   -5.3170   25.3180  -30.4880 C   0  0  0  0  0  0  0  0  0  0  0  0
   -6.0060   26.1300  -29.8190 O   0  0  0  0  0  0  0  0  0  0  0  0
   -5.8900   24.0290  -30.9310 C   0  0  0  0  0  0  0  0  0  0  0  0
   -7.2160   23.8640  -31.3290 C   0  0  0  0  0  0  0  0  0  0  0  0
   -7.3510   22.5210  -31.5980 C   0  0  0  0  0  0  0  0  0  0  0  0
   -8.4550   21.8010  -32.0460 C   0  0  0  0  0  0  0  0  0  0  0  0
   -8.2950   20.4230  -32.2720 C   0  0  0  0  0  0  0  0  0  0  0  0
   -7.0390   19.7920  -32.0660 C   0  0  0  0  0  0  0  0  0  0  0  0
   -6.8890   18.3070  -32.2830 C   0  0  0  0  0  0  0  0  0  0  0  0
   -6.1520   17.7350  -31.2600 F   0  0  0  0  0  0  0  0  0  0  0  0
   -8.1430   17.7240  -32.3170 F   0  0  0  0  0  0  0  0  0  0  0  0
   -6.2380   18.0510  -33.4780 F   0  0  0  0  0  0  0  0  0  0  0  0
   -5.9510   20.5540  -31.5810 C   0  0  0  0  0  0  0  0  0  0  0  0
   -6.1420   21.9220  -31.3620 C   0  0  0  0  0  0  0  0  0  0  0  0
   -5.2340   22.8340  -30.9550 N   0  0  0  0  0  0  0  0  0  0  0  0
   -3.8430   22.5830  -30.7070 C   0  0  0  0  0  0  0  0  0  0  0  0
   -2.9700   23.3340  -31.2180 O   0  0  0  0  0  0  0  0  0  0  0  0
   -3.4240   21.4930  -29.7580 C   0  0  0  0  0  0  0  0  0  0  0  0
   -3.6200   21.8850  -28.4130 O   0  0  0  0  0  0  0  0  0  0  0  0
   -2.4270   22.3900  -27.8380 C   0  0  0  0  0  0  0  0  0  0  0  0
   -2.5420   23.9150  -27.6790 C   0  0  2  0  0  0  0  0  0  0  0  0
   -3.6700   24.3930  -28.3700 O   0  0  0  0  0  0  0  0  0  0  0  0
   -1.2750   24.6450  -28.1590 C   0  0  0  0  0  0  0  0  0  0  0  0
   -1.5370   25.3790  -29.3290 O   0  0  0  0  0  0  0  0  0  0  0  0
   -3.1680   25.2910  -30.3010 H   0  0  0  0  0  0  0  0  0  0  0  0
   -7.9896   24.6417  -31.4106 H   0  0  0  0  0  0  0  0  0  0  0  0
   -9.4226   22.2952  -32.2178 H   0  0  0  0  0  0  0  0  0  0  0  0
   -9.1534   19.8255  -32.6128 H   0  0  0  0  0  0  0  0  0  0  0  0
   -4.9778   20.0821  -31.3808 H   0  0  0  0  0  0  0  0  0  0  0  0
   -4.0213   20.5916  -29.9601 H   0  0  0  0  0  0  0  0  0  0  0  0
   -2.3536   21.2900  -29.9101 H   0  0  0  0  0  0  0  0  0  0  0  0
   -2.2714   21.9289  -26.8515 H   0  0  0  0  0  0  0  0  0  0  0  0
   -1.5749   22.1521  -28.4917 H   0  0  0  0  0  0  0  0  0  0  0  0
   -2.6558   24.1254  -26.6053 H   0  0  0  0  0  0  0  0  0  0  0  0
   -3.4760   24.3320  -29.3430 H   0  0  0  0  0  0  0  0  0  0  0  0
   -0.9337   25.3320  -27.3707 H   0  0  0  0  0  0  0  0  0  0  0  0
   -0.4978   23.8978  -28.3772 H   0  0  0  0  0  0  0  0  0  0  0  0
   -2.1490   24.8230  -29.8820 H   0  0  0  0  0  0  0  0  0  0  0  0
  1  2  1  0
  2  3  2  0
  2  4  1  0
  4  5  2  0
  5  6  1  0
  6  7  2  0
  7  8  1  0
  8  9  2  0
  9 10  1  0
 10 11  1  0
 10 12  1  0
 10 13  1  0
  9 14  1  0
 14 15  2  0
 15 16  1  0
 16 17  1  0
 17 18  2  0
 17 19  1  0
 19 20  1  0
 20 21  1  0
 21 22  1  0
 22 23  1  0
 22 24  1  0
 24 25  1  0
 16  4  1  0
 15  6  1  0
  1 26  1  0
  5 27  1  0
  7 28  1  0
  8 29  1  0
 14 30  1  0
 19 31  1  0
 19 32  1  0
 21 33  1  0
 21 34  1  0
 22 35  1  1
 23 36  1  0
 24 37  1  0
 24 38  1  0
 25 39  1  0
M  CHG  1   1  -1
M  END
>  <UniqueID>  (3) 
3

>  <SMILES>  (3) 
[NH-]C(=O)c1cc2ccc(C(F)(F)F)cc2n1C(=O)COC[C@H](O)CO

>  <Energy>  (3) 
78.39517892578465

>  <Genealogy>  (3) 
[NH-]C(=O)c1cc2ccc(C(F)(F)F)cc2n1C(=O)COCC(O)CO (protonated)
[NH-]C(=O)c1cc2ccc(C(F)(F)F)cc2n1C(=O)COC[C@H](O)CO (chirality)
[NH-]C(=O)c1cc2ccc(C(F)(F)F)cc2n1C(=O)COC[C@H](O)CO (3D coordinates assigned)
[NH-]C(=O)c1cc2ccc(C(F)(F)F)cc2n1C(=O)COC[C@H](O)CO (optimized conformer: 78.39517892578465 kcal/mol)

>  <smiles>  (3) 
NC(=O)c1cc2ccc(C(F)(F)F)cc2n1C(=O)COCC(O)CO

>  <score_type>  (3) 
oracle

>  <origin>  (3) 
adg

>  <m_score__min__energy>  (3) 
-9.3499999999999996

>  <m_primary>  (3) 
energy

$$$$
3:0
     RDKit          3D

 41 42  0  0  0  0  0  0  0  0999 V2000
   -9.4170   19.4240  -32.5030 C   0  0  0  0  0  0  0  0  0  0  0  0
   -8.4510   18.6570  -31.8200 O   0  0  0  0  0  0  0  0  0  0  0  0
   -7.2340   18.6840  -32.5400 C   0  0  0  0  0  0  0  0  0  0  0  0
   -6.3180   19.7820  -31.9740 C   0  0  2  0  0  0  0  0  0  0  0  0
   -6.6390   21.1440  -32.5980 C   0  0  0  0  0  0  0  0  0  0  0  0
   -4.9130   19.4330  -32.2080 N   0  0  0  0  0  0  0  0  0  0  0  0
   -4.3670   19.3340  -33.5300 C   0  0  0  0  0  0  0  0  0  0  0  0
   -5.1230   19.1300  -34.5180 O   0  0  0  0  0  0  0  0  0  0  0  0
   -2.9050   19.5660  -33.7530 C   0  0  0  0  0  0  0  0  0  0  0  0
   -2.3130   20.1910  -32.5200 C   0  0  0  0  0  0  0  0  0  0  0  0
   -1.1780   19.6090  -31.9040 C   0  0  0  0  0  0  0  0  0  0  0  0
   -0.5680   20.2270  -30.8000 C   0  0  0  0  0  0  0  0  0  0  0  0
   -1.1010   21.4320  -30.3500 C   0  0  0  0  0  0  0  0  0  0  0  0
   -0.7010   22.2440  -29.3150 C   0  0  0  0  0  0  0  0  0  0  0  0
   -1.5770   23.3280  -29.3350 C   0  0  0  0  0  0  0  0  0  0  0  0
   -1.4430   24.4970  -28.4410 C   0  0  0  0  0  0  0  0  0  0  0  0
   -1.1830   25.7860  -28.9930 N   0  0  0  0  0  0  0  0  0  0  0  0
   -1.5940   24.3780  -27.1960 O   0  0  0  0  0  0  0  0  0  0  0  0
   -2.4880   23.1870  -30.3410 N   0  0  0  0  0  0  0  0  0  0  0  0
   -3.5780   24.0630  -30.6750 C   0  0  0  0  0  0  0  0  0  0  0  0
   -3.4930   25.2990  -30.4490 O   0  0  0  0  0  0  0  0  0  0  0  0
   -4.7440   23.5510  -31.2310 O   0  0  0  0  0  0  0  0  0  0  0  0
   -2.1830   22.0210  -30.9510 C   0  0  0  0  0  0  0  0  0  0  0  0
   -2.8260   21.4140  -32.0350 C   0  0  0  0  0  0  0  0  0  0  0  0
  -10.0617   19.9359  -31.7733 H   0  0  0  0  0  0  0  0  0  0  0  0
   -8.9130   20.1707  -33.1343 H   0  0  0  0  0  0  0  0  0  0  0  0
  -10.0300   18.7639  -33.1343 H   0  0  0  0  0  0  0  0  0  0  0  0
   -6.7340   17.7084  -32.4488 H   0  0  0  0  0  0  0  0  0  0  0  0
   -7.4432   18.8958  -33.5990 H   0  0  0  0  0  0  0  0  0  0  0  0
   -6.4952   19.8550  -30.8908 H   0  0  0  0  0  0  0  0  0  0  0  0
   -6.8127   21.8811  -31.8001 H   0  0  0  0  0  0  0  0  0  0  0  0
   -5.7932   21.4704  -33.2209 H   0  0  0  0  0  0  0  0  0  0  0  0
   -7.5416   21.0584  -33.2209 H   0  0  0  0  0  0  0  0  0  0  0  0
   -4.2560   19.3890  -31.3960 H   0  0  0  0  0  0  0  0  0  0  0  0
   -2.4064   18.6067  -33.9555 H   0  0  0  0  0  0  0  0  0  0  0  0
   -2.7629   20.2364  -34.6134 H   0  0  0  0  0  0  0  0  0  0  0  0
   -0.7706   18.6645  -32.2938 H   0  0  0  0  0  0  0  0  0  0  0  0
    0.3038   19.7730  -30.3062 H   0  0  0  0  0  0  0  0  0  0  0  0
    0.1335   22.0741  -28.6187 H   0  0  0  0  0  0  0  0  0  0  0  0
   -1.2370   25.9500  -30.0230 H   0  0  0  0  0  0  0  0  0  0  0  0
   -3.7094   21.8779  -32.4981 H   0  0  0  0  0  0  0  0  0  0  0  0
  1  2  1  0
  2  3  1  0
  3  4  1  0
  4  5  1  0
  4  6  1  0
  6  7  1  0
  7  8  2  0
  7  9  1  0
  9 10  1  0
 10 11  2  0
 11 12  1  0
 12 13  2  0
 13 14  1  0
 14 15  2  0
 15 16  1  0
 16 17  1  0
 16 18  2  0
 15 19  1  0
 19 20  1  0
 20 21  2  0
 20 22  1  0
 19 23  1  0
 23 24  2  0
 24 10  1  0
 23 13  1  0
  1 25  1  0
  1 26  1  0
  1 27  1  0
  3 28  1  0
  3 29  1  0
  4 30  1  1
  5 31  1  0
  5 32  1  0
  5 33  1  0
  6 34  1  0
  9 35  1  0
  9 36  1  0
 11 37  1  0
 12 38  1  0
 14 39  1  0
 17 40  1  0
 24 41  1  0
M  CHG  2  17  -1  22  -1
M  END
>  <UniqueID>  (4) 
4

>  <SMILES>  (4) 
COC[C@H](C)NC(=O)Cc1ccc2cc(C([NH-])=O)n(C(=O)[O-])c2c1

>  <Energy>  (4) 
70.69925247304921

>  <Genealogy>  (4) 
COCC(C)NC(=O)Cc1ccc2cc(C([NH-])=O)n(C(=O)[O-])c2c1 (protonated)
COC[C@H](C)NC(=O)Cc1ccc2cc(C([NH-])=O)n(C(=O)[O-])c2c1 (chirality)
COC[C@H](C)NC(=O)Cc1ccc2cc(C([NH-])=O)n(C(=O)[O-])c2c1 (3D coordinates assigned)
COC[C@H](C)NC(=O)Cc1ccc2cc(C([NH-])=O)n(C(=O)[O-])c2c1 (optimized conformer: 70.69925247304921 kcal/mol)

>  <smiles>  (4) 
COCC(C)NC(=O)Cc1ccc2cc(C(N)=O)n(C(=O)O)c2c1

>  <score_type>  (4) 
oracle

>  <origin>  (4) 
adg

>  <m_score__min__energy>  (4) 
-10.960000000000001

>  <m_primary>  (4) 
energy

$$$$
4:0
     RDKit          3D

 44 47  0  0  0  0  0  0  0  0999 V2000
   -6.0650   22.7950  -32.6290 N   0  0  0  0  0  0  0  0  0  0  0  0
   -5.2200   21.6480  -32.7270 C   0  0  0  0  0  0  0  0  0  0  0  0
   -5.5330   20.7190  -33.5180 O   0  0  0  0  0  0  0  0  0  0  0  0
   -4.0160   21.5050  -31.8820 C   0  0  0  0  0  0  0  0  0  0  0  0
   -2.8670   20.8310  -32.2890 C   0  0  0  0  0  0  0  0  0  0  0  0
   -2.0030   20.9070  -31.2200 C   0  0  0  0  0  0  0  0  0  0  0  0
   -0.7090   20.4150  -31.0770 C   0  0  0  0  0  0  0  0  0  0  0  0
   -0.0380   20.6690  -29.8680 C   0  0  0  0  0  0  0  0  0  0  0  0
   -0.6600   21.4210  -28.8420 C   0  0  0  0  0  0  0  0  0  0  0  0
    0.0660   21.6980  -27.5500 C   0  0  0  0  0  0  0  0  0  0  0  0
   -0.3760   22.9700  -26.9800 N   0  0  0  0  0  0  0  0  0  0  0  0
   -0.8130   23.1130  -25.7330 N   0  0  0  0  0  0  0  0  0  0  0  0
   -0.9460   24.4450  -25.5570 C   0  0  0  0  0  0  0  0  0  0  0  0
   -0.5710   25.1390  -26.6170 N   0  0  0  0  0  0  0  0  0  0  0  0
   -0.1680   24.2020  -27.4860 C   0  0  0  0  0  0  0  0  0  0  0  0
    0.4260   24.4440  -28.5700 O   0  0  0  0  0  0  0  0  0  0  0  0
   -0.0750   26.4550  -26.2920 C   0  0  0  0  0  0  0  0  0  0  0  0
   -0.3690   26.5870  -24.7770 C   0  0  0  0  0  0  0  0  0  0  0  0
   -0.8610   25.1990  -24.2910 C   0  0  0  0  0  0  0  0  0  0  0  0
   -1.9640   21.9260  -29.0370 C   0  0  0  0  0  0  0  0  0  0  0  0
   -2.6270   21.6170  -30.2280 C   0  0  0  0  0  0  0  0  0  0  0  0
   -3.8690   21.9840  -30.6150 N   0  0  0  0  0  0  0  0  0  0  0  0
   -4.7960   22.8040  -29.8830 C   0  0  0  0  0  0  0  0  0  0  0  0
   -6.0230   22.5170  -29.8960 O   0  0  0  0  0  0  0  0  0  0  0  0
   -4.3040   23.9170  -28.9990 C   0  0  0  0  0  0  0  0  0  0  0  0
   -3.5020   24.9150  -29.7770 C   0  0  0  0  0  0  0  0  0  0  0  0
   -3.9630   25.4040  -30.8410 O   0  0  0  0  0  0  0  0  0  0  0  0
   -2.2440   25.3030  -29.3310 O   0  0  0  0  0  0  0  0  0  0  0  0
   -5.9550   23.4860  -31.8540 H   0  0  0  0  0  0  0  0  0  0  0  0
   -6.8760   22.9050  -33.2790 H   0  0  0  0  0  0  0  0  0  0  0  0
   -2.6881   20.3422  -33.2581 H   0  0  0  0  0  0  0  0  0  0  0  0
   -0.2264   19.8452  -31.8847 H   0  0  0  0  0  0  0  0  0  0  0  0
    0.9798   20.2799  -29.7176 H   0  0  0  0  0  0  0  0  0  0  0  0
   -0.1436   20.8883  -26.8356 H   0  0  0  0  0  0  0  0  0  0  0  0
    1.1459   21.7534  -27.7521 H   0  0  0  0  0  0  0  0  0  0  0  0
    1.0043   26.5289  -26.4912 H   0  0  0  0  0  0  0  0  0  0  0  0
   -0.5437   27.2499  -26.8907 H   0  0  0  0  0  0  0  0  0  0  0  0
    0.5457   26.8742  -24.2378 H   0  0  0  0  0  0  0  0  0  0  0  0
   -1.1272   27.3615  -24.5891 H   0  0  0  0  0  0  0  0  0  0  0  0
   -0.1402   24.7389  -23.5991 H   0  0  0  0  0  0  0  0  0  0  0  0
   -1.8069   25.2342  -23.7306 H   0  0  0  0  0  0  0  0  0  0  0  0
   -2.4470   22.5483  -28.2693 H   0  0  0  0  0  0  0  0  0  0  0  0
   -5.1689   24.4255  -28.5480 H   0  0  0  0  0  0  0  0  0  0  0  0
   -3.6587   23.4833  -28.2209 H   0  0  0  0  0  0  0  0  0  0  0  0
  1  2  1  0
  2  3  2  0
  2  4  1  0
  4  5  2  0
  5  6  1  0
  6  7  2  0
  7  8  1  0
  8  9  2  0
  9 10  1  0
 10 11  1  0
 11 12  1  0
 12 13  2  0
 13 14  1  0
 14 15  1  0
 15 16  2  0
 14 17  1  0
 17 18  1  0
 18 19  1  0
  9 20  1  0
 20 21  2  0
 21 22  1  0
 22 23  1  0
 23 24  2  0
 23 25  1  0
 25 26  1  0
 26 27  2  0
 26 28  1  0
 22  4  1  0
 21  6  1  0
 15 11  1  0
 19 13  1  0
  1 29  1  0
  1 30  1  0
  5 31  1  0
  7 32  1  0
  8 33  1  0
 10 34  1  0
 10 35  1  0
 17 36  1  0
 17 37  1  0
 18 38  1  0
 18 39  1  0
 19 40  1  0
 19 41  1  0
 20 42  1  0
 25 43  1  0
 25 44  1  0
M  CHG  1  28  -1
M  END
>  <UniqueID>  (5) 
5

>  <SMILES>  (5) 
NC(=O)c1cc2ccc(Cn3nc4n(c3=O)CCC4)cc2n1C(=O)CC(=O)[O-]

>  <Energy>  (5) 
144.0692027111133

>  <Genealogy>  (5) 
NC(=O)c1cc2ccc(Cn3nc4n(c3=O)CCC4)cc2n1C(=O)CC(=O)[O-] (protonated)
NC(=O)c1cc2ccc(Cn3nc4n(c3=O)CCC4)cc2n1C(=O)CC(=O)[O-] (3D coordinates assigned)
NC(=O)c1cc2ccc(Cn3nc4n(c3=O)CCC4)cc2n1C(=O)CC(=O)[O-] (nonaromatic ring conformer: 144.0692027111133 kcal/mol)

>  <smiles>  (5) 
NC(=O)c1cc2ccc(Cn3nc4n(c3=O)CCC4)cc2n1C(=O)CC(=O)O

>  <score_type>  (5) 
oracle

>  <origin>  (5) 
adg

>  <m_score__min__energy>  (5) 
-11.710000000000001

>  <m_primary>  (5) 
energy

$$$$
5:0
     RDKit          3D

 53 54  0  0  0  0  0  0  0  0999 V2000
   -3.8580   16.2470  -33.0580 C   0  0  0  0  0  0  0  0  0  0  0  0
   -4.0700   16.9670  -34.3990 C   0  0  0  0  0  0  0  0  0  0  0  0
   -3.7950   18.4720  -34.2070 C   0  0  0  0  0  0  0  0  0  0  0  0
   -3.1070   16.3660  -35.4420 C   0  0  0  0  0  0  0  0  0  0  0  0
   -5.4320   16.7440  -34.7890 O   0  0  0  0  0  0  0  0  0  0  0  0
   -6.4890   16.3870  -33.9410 C   0  0  0  0  0  0  0  0  0  0  0  0
   -6.8870   15.1930  -33.8530 O   0  0  0  0  0  0  0  0  0  0  0  0
   -7.1200   17.4360  -33.0830 C   0  0  0  0  0  0  0  0  0  0  0  0
   -6.8740   18.7630  -33.6490 N   0  0  0  0  0  0  0  0  0  0  0  0
   -7.0560   19.9950  -32.9240 C   0  0  0  0  0  0  0  0  0  0  0  0
   -8.3510   20.4860  -32.6000 C   0  0  0  0  0  0  0  0  0  0  0  0
   -8.5060   21.7130  -31.9360 C   0  0  0  0  0  0  0  0  0  0  0  0
   -7.3580   22.4200  -31.5900 C   0  0  0  0  0  0  0  0  0  0  0  0
   -7.2230   23.6470  -30.9810 C   0  0  0  0  0  0  0  0  0  0  0  0
   -5.8500   23.8720  -30.9060 C   0  0  0  0  0  0  0  0  0  0  0  0
   -5.2500   25.0560  -30.2590 C   0  0  0  0  0  0  0  0  0  0  0  0
   -4.0950   25.6680  -30.8280 N   0  0  0  0  0  0  0  0  0  0  0  0
   -5.7650   25.5540  -29.2230 O   0  0  0  0  0  0  0  0  0  0  0  0
   -5.1650   22.8250  -31.4480 N   0  0  0  0  0  0  0  0  0  0  0  0
   -3.7470   22.7080  -31.6370 C   0  0  0  0  0  0  0  0  0  0  0  0
   -3.2960   22.2540  -32.7250 O   0  0  0  0  0  0  0  0  0  0  0  0
   -2.8750   23.1170  -30.6220 O   0  0  0  0  0  0  0  0  0  0  0  0
   -2.9080   22.5990  -29.2920 C   0  0  0  0  0  0  0  0  0  0  0  0
   -2.7170   23.7110  -28.2490 C   0  0  1  0  0  0  0  0  0  0  0  0
   -2.6620   24.9590  -28.8920 O   0  0  0  0  0  0  0  0  0  0  0  0
   -3.8500   23.7010  -27.2120 C   0  0  0  0  0  0  0  0  0  0  0  0
   -4.1830   25.0150  -26.8590 O   0  0  0  0  0  0  0  0  0  0  0  0
   -6.1030   21.9460  -31.8610 C   0  0  0  0  0  0  0  0  0  0  0  0
   -5.9160   20.7350  -32.5390 C   0  0  0  0  0  0  0  0  0  0  0  0
   -4.0630   16.9433  -32.2315 H   0  0  0  0  0  0  0  0  0  0  0  0
   -4.5412   15.3875  -32.9913 H   0  0  0  0  0  0  0  0  0  0  0  0
   -2.8180   15.8948  -32.9913 H   0  0  0  0  0  0  0  0  0  0  0  0
   -3.7528   18.7028  -33.1323 H   0  0  0  0  0  0  0  0  0  0  0  0
   -2.8345   18.7320  -34.6759 H   0  0  0  0  0  0  0  0  0  0  0  0
   -4.6015   19.0548  -34.6759 H   0  0  0  0  0  0  0  0  0  0  0  0
   -2.2827   15.8515  -34.9264 H   0  0  0  0  0  0  0  0  0  0  0  0
   -3.6511   15.6469  -36.0719 H   0  0  0  0  0  0  0  0  0  0  0  0
   -2.7001   17.1707  -36.0719 H   0  0  0  0  0  0  0  0  0  0  0  0
   -8.2043   17.2585  -33.0294 H   0  0  0  0  0  0  0  0  0  0  0  0
   -6.6828   17.3877  -32.0748 H   0  0  0  0  0  0  0  0  0  0  0  0
   -6.6520   18.8130  -34.6690 H   0  0  0  0  0  0  0  0  0  0  0  0
   -9.2400   19.8983  -32.8725 H   0  0  0  0  0  0  0  0  0  0  0  0
   -9.5056   22.1044  -31.6961 H   0  0  0  0  0  0  0  0  0  0  0  0
   -8.0277   24.3090  -30.6286 H   0  0  0  0  0  0  0  0  0  0  0  0
   -3.1400   25.2850  -30.6470 H   0  0  0  0  0  0  0  0  0  0  0  0
   -3.8799   22.1127  -29.1219 H   0  0  0  0  0  0  0  0  0  0  0  0
   -2.0845   21.8780  -29.1822 H   0  0  0  0  0  0  0  0  0  0  0  0
   -1.7707   23.5292  -27.7185 H   0  0  0  0  0  0  0  0  0  0  0  0
   -3.5900   25.3110  -28.9240 H   0  0  0  0  0  0  0  0  0  0  0  0
   -4.7325   23.2033  -27.6404 H   0  0  0  0  0  0  0  0  0  0  0  0
   -3.5164   23.1580  -26.3154 H   0  0  0  0  0  0  0  0  0  0  0  0
   -4.3990   25.4820  -27.7090 H   0  0  0  0  0  0  0  0  0  0  0  0
   -4.9042   20.3683  -32.7666 H   0  0  0  0  0  0  0  0  0  0  0  0
  1  2  1  0
  2  3  1  0
  2  4  1  0
  2  5  1  0
  5  6  1  0
  6  7  2  0
  6  8  1  0
  8  9  1  0
  9 10  1  0
 10 11  2  0
 11 12  1  0
 12 13  2  0
 13 14  1  0
 14 15  2  0
 15 16  1  0
 16 17  1  0
 16 18  2  0
 15 19  1  0
 19 20  1  0
 20 21  2  0
 20 22  1  0
 22 23  1  0
 23 24  1  0
 24 25  1  0
 24 26  1  0
 26 27  1  0
 19 28  1  0
 28 29  2  0
 29 10  1  0
 28 13  1  0
  1 30  1  0
  1 31  1  0
  1 32  1  0
  3 33  1  0
  3 34  1  0
  3 35  1  0
  4 36  1  0
  4 37  1  0
  4 38  1  0
  8 39  1  0
  8 40  1  0
  9 41  1  0
 11 42  1  0
 12 43  1  0
 14 44  1  0
 17 45  1  0
 23 46  1  0
 23 47  1  0
 24 48  1  1
 25 49  1  0
 26 50  1  0
 26 51  1  0
 27 52  1  0
 29 53  1  0
M  CHG  1  17  -1
M  END
>  <UniqueID>  (6) 
6

>  <SMILES>  (6) 
CC(C)(C)OC(=O)CNc1ccc2cc(C([NH-])=O)n(C(=O)OC[C@@H](O)CO)c2c1

>  <Energy>  (6) 
79.77041272216744

>  <Genealogy>  (6) 
CC(C)(C)OC(=O)CNc1ccc2cc(C([NH-])=O)n(C(=O)OCC(O)CO)c2c1 (protonated)
CC(C)(C)OC(=O)CNc1ccc2cc(C([NH-])=O)n(C(=O)OC[C@@H](O)CO)c2c1 (chirality)
CC(C)(C)OC(=O)CNc1ccc2cc(C([NH-])=O)n(C(=O)OC[C@@H](O)CO)c2c1 (3D coordinates assigned)
CC(C)(C)OC(=O)CNc1ccc2cc(C([NH-])=O)n(C(=O)OC[C@@H](O)CO)c2c1 (optimized conformer: 79.77041272216744 kcal/mol)

>  <smiles>  (6) 
CC(C)(C)OC(=O)CNc1ccc2cc(C(N)=O)n(C(=O)OCC(O)CO)c2c1

>  <score_type>  (6) 
oracle

>  <origin>  (6) 
adg

>  <m_score__min__energy>  (6) 
-10.34

>  <m_primary>  (6) 
energy

$$$$
6:0
     RDKit          3D

 42 43  0  0  0  0  0  0  0  0999 V2000
   -3.3160   19.3370  -32.8000 C   0  0  0  0  0  0  0  0  0  0  0  0
   -3.0740   20.6820  -32.0860 C   0  0  1  0  0  0  0  0  0  0  0  0
   -3.3660   20.5210  -30.7170 O   0  0  0  0  0  0  0  0  0  0  0  0
   -1.6300   21.1110  -32.2600 C   0  0  0  0  0  0  0  0  0  0  0  0
   -1.1300   21.1890  -33.4170 O   0  0  0  0  0  0  0  0  0  0  0  0
   -0.8370   21.3580  -31.1340 O   0  0  0  0  0  0  0  0  0  0  0  0
   -0.1340   20.3270  -30.4490 C   0  0  0  0  0  0  0  0  0  0  0  0
   -0.5380   20.3140  -28.9820 C   0  0  0  0  0  0  0  0  0  0  0  0
   -1.5900   21.2130  -28.7690 O   0  0  0  0  0  0  0  0  0  0  0  0
   -4.0180   21.7400  -32.6370 C   0  0  0  0  0  0  0  0  0  0  0  0
   -3.8640   22.1420  -33.8220 O   0  0  0  0  0  0  0  0  0  0  0  0
   -5.1170   22.2600  -31.8660 N   0  0  0  0  0  0  0  0  0  0  0  0
   -5.0790   23.2730  -30.9550 C   0  0  0  0  0  0  0  0  0  0  0  0
   -3.8930   24.0810  -30.6070 C   0  0  0  0  0  0  0  0  0  0  0  0
   -2.6790   23.4710  -30.1700 N   0  0  0  0  0  0  0  0  0  0  0  0
   -3.9400   25.3330  -30.7330 O   0  0  0  0  0  0  0  0  0  0  0  0
   -6.3010   23.3880  -30.2970 C   0  0  0  0  0  0  0  0  0  0  0  0
   -7.0940   22.3940  -30.8240 C   0  0  0  0  0  0  0  0  0  0  0  0
   -8.3900   22.0140  -30.4910 C   0  0  0  0  0  0  0  0  0  0  0  0
   -8.9310   20.8880  -31.1320 C   0  0  0  0  0  0  0  0  0  0  0  0
   -8.1650   20.1570  -32.0740 C   0  0  0  0  0  0  0  0  0  0  0  0
   -8.7280   18.9200  -32.7150 C   0  0  0  0  0  0  0  0  0  0  0  0
   -7.7000   18.1000  -33.1460 F   0  0  0  0  0  0  0  0  0  0  0  0
   -9.5030   18.2360  -31.7980 F   0  0  0  0  0  0  0  0  0  0  0  0
   -6.8470   20.5650  -32.3720 C   0  0  0  0  0  0  0  0  0  0  0  0
   -6.3480   21.7140  -31.7510 C   0  0  0  0  0  0  0  0  0  0  0  0
   -3.4586   18.5445  -32.0506 H   0  0  0  0  0  0  0  0  0  0  0  0
   -4.2150   19.4125  -33.4294 H   0  0  0  0  0  0  0  0  0  0  0  0
   -2.4471   19.0944  -33.4294 H   0  0  0  0  0  0  0  0  0  0  0  0
   -2.5160   20.3330  -30.2380 H   0  0  0  0  0  0  0  0  0  0  0  0
   -0.3772   19.3552  -30.9033 H   0  0  0  0  0  0  0  0  0  0  0  0
    0.9476   20.5120  -30.5261 H   0  0  0  0  0  0  0  0  0  0  0  0
   -0.8619   19.3008  -28.7019 H   0  0  0  0  0  0  0  0  0  0  0  0
    0.3235   20.6126  -28.3667 H   0  0  0  0  0  0  0  0  0  0  0  0
   -1.8110   21.5920  -29.6590 H   0  0  0  0  0  0  0  0  0  0  0  0
   -1.8840   24.0630  -29.8440 H   0  0  0  0  0  0  0  0  0  0  0  0
   -2.5160   22.4520  -30.3070 H   0  0  0  0  0  0  0  0  0  0  0  0
   -6.5744   24.1181  -29.5210 H   0  0  0  0  0  0  0  0  0  0  0  0
   -8.9731   22.5783  -29.7483 H   0  0  0  0  0  0  0  0  0  0  0  0
   -9.9585   20.5704  -30.9010 H   0  0  0  0  0  0  0  0  0  0  0  0
   -9.3446   19.2128  -33.5776 H   0  0  0  0  0  0  0  0  0  0  0  0
   -6.2266   19.9920  -33.0768 H   0  0  0  0  0  0  0  0  0  0  0  0
  1  2  1  0
  2  3  1  1
  2  4  1  0
  4  5  2  0
  4  6  1  0
  6  7  1  0
  7  8  1  0
  8  9  1  0
  2 10  1  0
 10 11  2  0
 10 12  1  0
 12 13  1  0
 13 14  1  0
 14 15  1  0
 14 16  2  0
 13 17  2  0
 17 18  1  0
 18 19  2  0
 19 20  1  0
 20 21  2  0
 21 22  1  0
 22 23  1  0
 22 24  1  0
 21 25  1  0
 25 26  2  0
 26 12  1  0
 26 18  1  0
  1 27  1  0
  1 28  1  0
  1 29  1  0
  3 30  1  0
  7 31  1  0
  7 32  1  0
  8 33  1  0
  8 34  1  0
  9 35  1  0
 15 36  1  0
 15 37  1  0
 17 38  1  0
 19 39  1  0
 20 40  1  0
 22 41  1  0
 25 42  1  0
M  END
>  <UniqueID>  (7) 
7

>  <SMILES>  (7) 
C[C@@](O)(C(=O)OCCO)C(=O)n1c(C(N)=O)cc2ccc(C(F)F)cc21

>  <Energy>  (7) 
77.47053563277011

>  <Genealogy>  (7) 
C[C@@](O)(C(=O)OCCO)C(=O)n1c(C(N)=O)cc2ccc(C(F)F)cc21 (3D coordinates assigned)
C[C@@](O)(C(=O)OCCO)C(=O)n1c(C(N)=O)cc2ccc(C(F)F)cc21 (optimized conformer: 77.47053563277011 kcal/mol)

>  <smiles>  (7) 
C[C@@](O)(C(=O)OCCO)C(=O)n1c(C(N)=O)cc2ccc(C(F)F)cc21

>  <score_type>  (7) 
oracle

>  <origin>  (7) 
adg

>  <m_score__min__energy>  (7) 
-8.2599999999999998

>  <m_primary>  (7) 
energy

$$$$
7:0
     RDKit          3D

 42 43  0  0  0  0  0  0  0  0999 V2000
   -1.2040   25.9740  -27.5780 C   0  0  0  0  0  0  0  0  0  0  0  0
   -2.2630   24.9610  -27.4930 N   0  0  0  0  0  0  0  0  0  0  0  0
   -3.1890   24.9690  -26.3550 C   0  0  0  0  0  0  0  0  0  0  0  0
   -2.3860   23.9890  -28.5550 C   0  0  0  0  0  0  0  0  0  0  0  0
   -1.6540   24.0900  -29.5780 O   0  0  0  0  0  0  0  0  0  0  0  0
   -3.4020   22.8750  -28.5170 C   0  0  0  0  0  0  0  0  0  0  0  0
   -3.2950   22.0370  -29.7190 N   0  0  0  0  0  0  0  0  0  0  0  0
   -2.6800   20.7090  -29.6380 C   0  0  0  0  0  0  0  0  0  0  0  0
   -3.8000   22.5040  -30.9880 C   0  0  0  0  0  0  0  0  0  0  0  0
   -3.0140   22.6780  -31.9590 O   0  0  0  0  0  0  0  0  0  0  0  0
   -5.1970   22.7680  -31.1670 N   0  0  0  0  0  0  0  0  0  0  0  0
   -5.8540   23.9460  -30.9950 C   0  0  0  0  0  0  0  0  0  0  0  0
   -5.2400   25.2220  -30.5720 C   0  0  0  0  0  0  0  0  0  0  0  0
   -3.8670   25.5010  -30.8360 N   0  0  0  0  0  0  0  0  0  0  0  0
   -5.9360   26.0790  -29.9620 O   0  0  0  0  0  0  0  0  0  0  0  0
   -7.2130   23.7860  -31.2660 C   0  0  0  0  0  0  0  0  0  0  0  0
   -7.3630   22.4600  -31.6130 C   0  0  0  0  0  0  0  0  0  0  0  0
   -8.5030   21.7430  -31.9630 C   0  0  0  0  0  0  0  0  0  0  0  0
   -8.3540   20.3790  -32.2720 C   0  0  0  0  0  0  0  0  0  0  0  0
   -7.0790   19.7620  -32.2150 C   0  0  0  0  0  0  0  0  0  0  0  0
   -6.9270   18.3130  -32.5720 C   0  0  0  0  0  0  0  0  0  0  0  0
   -8.1160   17.6510  -32.3320 F   0  0  0  0  0  0  0  0  0  0  0  0
   -5.9440   20.5230  -31.8630 C   0  0  0  0  0  0  0  0  0  0  0  0
   -6.1270   21.8740  -31.5560 C   0  0  0  0  0  0  0  0  0  0  0  0
   -0.8961   26.2685  -26.5639 H   0  0  0  0  0  0  0  0  0  0  0  0
   -0.3403   25.5573  -28.1169 H   0  0  0  0  0  0  0  0  0  0  0  0
   -1.5820   26.8553  -28.1169 H   0  0  0  0  0  0  0  0  0  0  0  0
   -2.6160   24.9641  -25.4160 H   0  0  0  0  0  0  0  0  0  0  0  0
   -3.8149   25.8726  -26.3979 H   0  0  0  0  0  0  0  0  0  0  0  0
   -3.8304   24.0764  -26.3979 H   0  0  0  0  0  0  0  0  0  0  0  0
   -3.2248   22.2542  -27.6264 H   0  0  0  0  0  0  0  0  0  0  0  0
   -4.4096   23.3148  -28.4796 H   0  0  0  0  0  0  0  0  0  0  0  0
   -2.5502   20.4288  -28.5822 H   0  0  0  0  0  0  0  0  0  0  0  0
   -3.3291   19.9734  -30.1355 H   0  0  0  0  0  0  0  0  0  0  0  0
   -1.6991   20.7282  -30.1355 H   0  0  0  0  0  0  0  0  0  0  0  0
   -3.1820   24.7280  -30.9820 H   0  0  0  0  0  0  0  0  0  0  0  0
   -7.9983   24.5545  -31.2139 H   0  0  0  0  0  0  0  0  0  0  0  0
   -9.4898   22.2278  -31.9970 H   0  0  0  0  0  0  0  0  0  0  0  0
   -9.2344   19.7859  -32.5604 H   0  0  0  0  0  0  0  0  0  0  0  0
   -6.6662   18.2234  -33.6369 H   0  0  0  0  0  0  0  0  0  0  0  0
   -6.1295   17.8668  -31.9597 H   0  0  0  0  0  0  0  0  0  0  0  0
   -4.9440   20.0659  -31.8312 H   0  0  0  0  0  0  0  0  0  0  0  0
  1  2  1  0
  2  3  1  0
  2  4  1  0
  4  5  2  0
  4  6  1  0
  6  7  1  0
  7  8  1  0
  7  9  1  0
  9 10  2  0
  9 11  1  0
 11 12  1  0
 12 13  1  0
 13 14  1  0
 13 15  2  0
 12 16  2  0
 16 17  1  0
 17 18  2  0
 18 19  1  0
 19 20  2  0
 20 21  1  0
 21 22  1  0
 20 23  1  0
 23 24  2  0
 24 11  1  0
 24 17  1  0
  1 25  1  0
  1 26  1  0
  1 27  1  0
  3 28  1  0
  3 29  1  0
  3 30  1  0
  6 31  1  0
  6 32  1  0
  8 33  1  0
  8 34  1  0
  8 35  1  0
 14 36  1  0
 16 37  1  0
 18 38  1  0
 19 39  1  0
 21 40  1  0
 21 41  1  0
 23 42  1  0
M  CHG  1  14  -1
M  END
>  <UniqueID>  (8) 
8

>  <SMILES>  (8) 
CN(C)C(=O)CN(C)C(=O)n1c(C([NH-])=O)cc2ccc(CF)cc21

>  <Energy>  (8) 
72.88243880963881

>  <Genealogy>  (8) 
CN(C)C(=O)CN(C)C(=O)n1c(C([NH-])=O)cc2ccc(CF)cc21 (protonated)
CN(C)C(=O)CN(C)C(=O)n1c(C([NH-])=O)cc2ccc(CF)cc21 (3D coordinates assigned)
CN(C)C(=O)CN(C)C(=O)n1c(C([NH-])=O)cc2ccc(CF)cc21 (optimized conformer: 72.88243880963881 kcal/mol)

>  <smiles>  (8) 
CN(C)C(=O)CN(C)C(=O)n1c(C(N)=O)cc2ccc(CF)cc21

>  <score_type>  (8) 
oracle

>  <origin>  (8) 
adg

>  <m_score__min__energy>  (8) 
-10.07

>  <m_primary>  (8) 
energy

$$$$
8:0
     RDKit          3D

 35 36  0  0  0  0  0  0  0  0999 V2000
   -4.5030   25.6630  -30.8190 N   0  0  0  0  0  0  0  0  0  0  0  0
   -5.7940   25.1920  -30.4360 C   0  0  0  0  0  0  0  0  0  0  0  0
   -6.5230   25.9170  -29.7080 O   0  0  0  0  0  0  0  0  0  0  0  0
   -6.2550   23.8610  -30.8840 C   0  0  0  0  0  0  0  0  0  0  0  0
   -7.5530   23.5980  -31.3200 C   0  0  0  0  0  0  0  0  0  0  0  0
   -7.5580   22.2660  -31.6720 C   0  0  0  0  0  0  0  0  0  0  0  0
   -8.5910   21.4720  -32.1600 C   0  0  0  0  0  0  0  0  0  0  0  0
   -8.3150   20.1170  -32.4120 C   0  0  0  0  0  0  0  0  0  0  0  0
   -7.0280   19.5810  -32.1550 C   0  0  0  0  0  0  0  0  0  0  0  0
   -6.7390   18.1350  -32.4480 C   0  0  0  0  0  0  0  0  0  0  0  0
   -6.0940   17.9840  -33.8270 C   0  0  0  0  0  0  0  0  0  0  0  0
   -6.0840   19.2150  -34.4950 O   0  0  0  0  0  0  0  0  0  0  0  0
   -6.0030   20.4220  -31.6670 C   0  0  0  0  0  0  0  0  0  0  0  0
   -6.3010   21.7710  -31.4480 C   0  0  0  0  0  0  0  0  0  0  0  0
   -5.4890   22.7380  -30.9710 N   0  0  0  0  0  0  0  0  0  0  0  0
   -4.1080   22.5890  -30.6090 C   0  0  0  0  0  0  0  0  0  0  0  0
   -3.2730   22.2070  -31.4730 O   0  0  0  0  0  0  0  0  0  0  0  0
   -3.6580   22.8280  -29.2000 C   0  0  0  0  0  0  0  0  0  0  0  0
   -2.0270   23.6310  -29.1930 P   0  0  2  0  0  0  0  0  0  0  0  0
   -1.3310   23.3530  -27.8810 O   0  0  0  0  0  0  0  0  0  0  0  0
   -2.2280   25.3000  -29.3760 O   0  0  0  0  0  0  0  0  0  0  0  0
   -1.0870   23.0350  -30.4670 O   0  0  0  0  0  0  0  0  0  0  0  0
   -3.8480   26.0660  -30.1120 H   0  0  0  0  0  0  0  0  0  0  0  0
   -8.3947   24.3043  -31.3719 H   0  0  0  0  0  0  0  0  0  0  0  0
   -9.5915   21.8911  -32.3427 H   0  0  0  0  0  0  0  0  0  0  0  0
   -9.1058   19.4658  -32.8128 H   0  0  0  0  0  0  0  0  0  0  0  0
   -6.0536   17.7410  -31.6831 H   0  0  0  0  0  0  0  0  0  0  0  0
   -7.6854   17.5744  -32.4356 H   0  0  0  0  0  0  0  0  0  0  0  0
   -5.0603   17.6274  -33.7073 H   0  0  0  0  0  0  0  0  0  0  0  0
   -6.6755   17.2606  -34.4174 H   0  0  0  0  0  0  0  0  0  0  0  0
   -6.9410   19.2740  -34.9950 H   0  0  0  0  0  0  0  0  0  0  0  0
   -4.9968   20.0262  -31.4645 H   0  0  0  0  0  0  0  0  0  0  0  0
   -4.3854   23.4773  -28.6909 H   0  0  0  0  0  0  0  0  0  0  0  0
   -3.5867   21.8633  -28.6762 H   0  0  0  0  0  0  0  0  0  0  0  0
   -1.7350   22.6010  -31.0770 H   0  0  0  0  0  0  0  0  0  0  0  0
  1  2  1  0
  2  3  2  0
  2  4  1  0
  4  5  2  0
  5  6  1  0
  6  7  2  0
  7  8  1  0
  8  9  2  0
  9 10  1  0
 10 11  1  0
 11 12  1  0
  9 13  1  0
 13 14  2  0
 14 15  1  0
 15 16  1  0
 16 17  2  0
 16 18  1  0
 18 19  1  0
 19 20  2  0
 19 21  1  6
 19 22  1  0
 15  4  1  0
 14  6  1  0
  1 23  1  0
  5 24  1  0
  7 25  1  0
  8 26  1  0
 10 27  1  0
 10 28  1  0
 11 29  1  0
 11 30  1  0
 12 31  1  0
 13 32  1  0
 18 33  1  0
 18 34  1  0
 22 35  1  0
M  CHG  2   1  -1  21  -1
M  END
>  <UniqueID>  (9) 
9

>  <SMILES>  (9) 
[NH-]C(=O)c1cc2ccc(CCO)cc2n1C(=O)C[P@](=O)([O-])O

>  <Energy>  (9) 
64.8886393929308

>  <Genealogy>  (9) 
[NH-]C(=O)c1cc2ccc(CCO)cc2n1C(=O)CP(=O)([O-])O (protonated)
[NH-]C(=O)c1cc2ccc(CCO)cc2n1C(=O)C[P@](=O)([O-])O (chirality)
[NH-]C(=O)c1cc2ccc(CCO)cc2n1C(=O)C[P@](=O)([O-])O (3D coordinates assigned)
[NH-]C(=O)c1cc2ccc(CCO)cc2n1C(=O)C[P@](=O)([O-])O (optimized conformer: 64.8886393929308 kcal/mol)

>  <smiles>  (9) 
NC(=O)c1cc2ccc(CCO)cc2n1C(=O)CP(=O)(O)O

>  <score_type>  (9) 
oracle

>  <origin>  (9) 
adg

>  <m_score__min__energy>  (9) 
-11.82

>  <m_primary>  (9) 
energy

$$$$
9:0
     RDKit          3D

 49 51  0  0  0  0  0  0  0  0999 V2000
   -1.9200   20.3960  -26.7080 C   0  0  0  0  0  0  0  0  0  0  0  0
   -2.0490   21.6190  -27.5110 N   0  0  0  0  0  0  0  0  0  0  0  0
   -2.9330   21.5820  -28.6540 C   0  0  0  0  0  0  0  0  0  0  0  0
   -4.0360   22.1920  -28.6000 O   0  0  0  0  0  0  0  0  0  0  0  0
   -2.5810   20.8120  -29.9020 C   0  0  0  0  0  0  0  0  0  0  0  0
   -3.7390   20.8050  -30.9060 C   0  0  0  0  0  0  0  0  0  0  0  0
   -4.0940   22.2060  -31.3180 C   0  0  0  0  0  0  0  0  0  0  0  0
   -3.1960   22.9760  -31.7530 O   0  0  0  0  0  0  0  0  0  0  0  0
   -5.4510   22.6710  -31.2420 N   0  0  0  0  0  0  0  0  0  0  0  0
   -5.8960   23.9020  -30.8620 C   0  0  0  0  0  0  0  0  0  0  0  0
   -5.0300   25.0490  -30.5010 C   0  0  0  0  0  0  0  0  0  0  0  0
   -3.7200   24.8420  -29.9650 N   0  0  0  0  0  0  0  0  0  0  0  0
   -5.4510   26.2270  -30.6490 O   0  0  0  0  0  0  0  0  0  0  0  0
   -7.2890   23.9520  -30.9340 C   0  0  0  0  0  0  0  0  0  0  0  0
   -7.6800   22.7090  -31.3770 C   0  0  0  0  0  0  0  0  0  0  0  0
   -8.9520   22.1990  -31.6210 C   0  0  0  0  0  0  0  0  0  0  0  0
   -9.0580   20.8600  -32.0380 C   0  0  0  0  0  0  0  0  0  0  0  0
   -7.8960   20.0620  -32.2050 C   0  0  0  0  0  0  0  0  0  0  0  0
   -8.0160   18.6170  -32.5910 C   0  0  0  0  0  0  0  0  0  0  0  0
   -9.1510   18.0790  -32.0170 F   0  0  0  0  0  0  0  0  0  0  0  0
   -6.9080   17.9200  -32.1470 F   0  0  0  0  0  0  0  0  0  0  0  0
   -6.6220   20.6190  -31.9620 C   0  0  0  0  0  0  0  0  0  0  0  0
   -6.5490   21.9560  -31.5550 C   0  0  0  0  0  0  0  0  0  0  0  0
   -1.3650   22.8720  -27.1170 C   0  0  1  0  0  0  0  0  0  0  0  0
   -0.1100   23.1010  -27.9340 C   0  0  0  0  0  0  0  0  0  0  0  0
   -0.3320   24.4680  -28.5560 C   0  0  0  0  0  0  0  0  0  0  0  0
   -1.7100   24.7470  -28.5390 O   0  0  0  0  0  0  0  0  0  0  0  0
   -2.2180   24.1110  -27.3930 C   0  0  0  0  0  0  0  0  0  0  0  0
   -1.9473   20.6546  -25.6392 H   0  0  0  0  0  0  0  0  0  0  0  0
   -2.7512   19.7145  -26.9417 H   0  0  0  0  0  0  0  0  0  0  0  0
   -0.9649   19.9030  -26.9417 H   0  0  0  0  0  0  0  0  0  0  0  0
   -1.7029   21.2778  -30.3731 H   0  0  0  0  0  0  0  0  0  0  0  0
   -2.3676   19.7716  -29.6157 H   0  0  0  0  0  0  0  0  0  0  0  0
   -3.4415   20.2314  -31.7962 H   0  0  0  0  0  0  0  0  0  0  0  0
   -4.6167   20.3435  -30.4300 H   0  0  0  0  0  0  0  0  0  0  0  0
   -3.3420   23.8870  -29.7820 H   0  0  0  0  0  0  0  0  0  0  0  0
   -3.1060   25.6620  -29.7560 H   0  0  0  0  0  0  0  0  0  0  0  0
   -7.9380   24.8055  -30.6883 H   0  0  0  0  0  0  0  0  0  0  0  0
   -9.8475   22.8245  -31.4915 H   0  0  0  0  0  0  0  0  0  0  0  0
  -10.0497   20.4275  -32.2364 H   0  0  0  0  0  0  0  0  0  0  0  0
   -8.0818   18.5407  -33.6864 H   0  0  0  0  0  0  0  0  0  0  0  0
   -5.7098   20.0175  -32.0893 H   0  0  0  0  0  0  0  0  0  0  0  0
   -1.1569   22.7466  -26.0442 H   0  0  0  0  0  0  0  0  0  0  0  0
    0.7823   23.1027  -27.2907 H   0  0  0  0  0  0  0  0  0  0  0  0
    0.0614   22.3139  -28.6830 H   0  0  0  0  0  0  0  0  0  0  0  0
    0.2084   25.2314  -27.9770 H   0  0  0  0  0  0  0  0  0  0  0  0
    0.0418   24.4767  -29.5905 H   0  0  0  0  0  0  0  0  0  0  0  0
   -2.1685   24.7962  -26.5339 H   0  0  0  0  0  0  0  0  0  0  0  0
   -3.2675   23.8223  -27.5521 H   0  0  0  0  0  0  0  0  0  0  0  0
  1  2  1  0
  2  3  1  0
  3  4  2  0
  3  5  1  0
  5  6  1  0
  6  7  1  0
  7  8  2  0
  7  9  1  0
  9 10  1  0
 10 11  1  0
 11 12  1  0
 11 13  2  0
 10 14  2  0
 14 15  1  0
 15 16  2  0
 16 17  1  0
 17 18  2  0
 18 19  1  0
 19 20  1  0
 19 21  1  0
 18 22  1  0
 22 23  2  0
  2 24  1  0
 24 25  1  0
 25 26  1  0
 26 27  1  0
 27 28  1  0
 23  9  1  0
 28 24  1  0
 23 15  1  0
  1 29  1  0
  1 30  1  0
  1 31  1  0
  5 32  1  0
  5 33  1  0
  6 34  1  0
  6 35  1  0
 12 36  1  0
 12 37  1  0
 14 38  1  0
 16 39  1  0
 17 40  1  0
 19 41  1  0
 22 42  1  0
 24 43  1  1
 25 44  1  0
 25 45  1  0
 26 46  1  0
 26 47  1  0
 28 48  1  0
 28 49  1  0
M  END
>  <UniqueID>  (10) 
10

>  <SMILES>  (10) 
CN(C(=O)CCC(=O)n1c(C(N)=O)cc2ccc(C(F)F)cc21)[C@H]1CCOC1

>  <Energy>  (10) 
88.93112466872103

>  <Genealogy>  (10) 
CN(C(=O)CCC(=O)n1c(C(N)=O)cc2ccc(C(F)F)cc21)[C@H]1CCOC1 (chirality)
CN(C(=O)CCC(=O)n1c(C(N)=O)cc2ccc(C(F)F)cc21)[C@H]1CCOC1 (3D coordinates assigned)
CN(C(=O)CCC(=O)n1c(C(N)=O)cc2ccc(C(F)F)cc21)[C@H]1CCOC1 (nonaromatic ring conformer: 88.93112466872103 kcal/mol)

>  <smiles>  (10) 
CN(C(=O)CCC(=O)n1c(C(N)=O)cc2ccc(C(F)F)cc21)C1CCOC1

>  <score_type>  (10) 
oracle

>  <origin>  (10) 
adg

>  <m_score__min__energy>  (10) 
-9.8200000000000003

>  <m_primary>  (10) 
energy

$$$$
10:0
     RDKit          3D

 46 47  0  0  0  0  0  0  0  0999 V2000
   -6.1120   16.4120  -33.5730 C   0  0  0  0  0  0  0  0  0  0  0  0
   -6.5260   17.4750  -34.4010 O   0  0  0  0  0  0  0  0  0  0  0  0
   -5.3900   18.1280  -34.9280 C   0  0  0  0  0  0  0  0  0  0  0  0
   -4.5210   18.6570  -33.7830 C   0  0  1  0  0  0  0  0  0  0  0  0
   -3.0670   18.8360  -34.2360 C   0  0  0  0  0  0  0  0  0  0  0  0
   -5.0510   19.9090  -33.3460 O   0  0  0  0  0  0  0  0  0  0  0  0
   -5.5640   20.1290  -32.0630 C   0  0  0  0  0  0  0  0  0  0  0  0
   -5.2640   19.3540  -31.1140 O   0  0  0  0  0  0  0  0  0  0  0  0
   -6.4410   21.2420  -31.8290 N   0  0  0  0  0  0  0  0  0  0  0  0
   -7.7990   21.2670  -31.9350 C   0  0  0  0  0  0  0  0  0  0  0  0
   -8.6450   20.1810  -32.4680 C   0  0  0  0  0  0  0  0  0  0  0  0
   -8.0720   19.0450  -33.1160 N   0  0  0  0  0  0  0  0  0  0  0  0
   -9.8990   20.2820  -32.3960 O   0  0  0  0  0  0  0  0  0  0  0  0
   -8.3020   22.4940  -31.5120 C   0  0  0  0  0  0  0  0  0  0  0  0
   -7.2000   23.2330  -31.1510 C   0  0  0  0  0  0  0  0  0  0  0  0
   -7.1180   24.5250  -30.6440 C   0  0  0  0  0  0  0  0  0  0  0  0
   -5.8480   25.0290  -30.3200 C   0  0  0  0  0  0  0  0  0  0  0  0
   -4.6810   24.2320  -30.4950 C   0  0  0  0  0  0  0  0  0  0  0  0
   -3.3660   24.7140  -30.1520 N   0  0  0  0  0  0  0  0  0  0  0  0
   -2.4060   23.9900  -29.3090 C   0  0  2  0  0  0  0  0  0  0  0  0
   -3.0570   23.5920  -27.9820 C   0  0  0  0  0  0  0  0  0  0  0  0
   -1.1870   24.8360  -29.0520 C   0  0  0  0  0  0  0  0  0  0  0  0
   -0.1160   24.3120  -28.6470 O   0  0  0  0  0  0  0  0  0  0  0  0
   -1.2330   26.2050  -29.2820 O   0  0  0  0  0  0  0  0  0  0  0  0
   -4.8130   22.9210  -31.0100 C   0  0  0  0  0  0  0  0  0  0  0  0
   -6.0890   22.4560  -31.3480 C   0  0  0  0  0  0  0  0  0  0  0  0
   -6.2254   16.7032  -32.5183 H   0  0  0  0  0  0  0  0  0  0  0  0
   -6.7307   15.5257  -33.7773 H   0  0  0  0  0  0  0  0  0  0  0  0
   -5.0569   16.1776  -33.7773 H   0  0  0  0  0  0  0  0  0  0  0  0
   -4.8066   17.4169  -35.5314 H   0  0  0  0  0  0  0  0  0  0  0  0
   -5.7133   18.9693  -35.5586 H   0  0  0  0  0  0  0  0  0  0  0  0
   -4.5319   17.9306  -32.9570 H   0  0  0  0  0  0  0  0  0  0  0  0
   -2.4152   18.9162  -33.3535 H   0  0  0  0  0  0  0  0  0  0  0  0
   -2.7616   17.9687  -34.8397 H   0  0  0  0  0  0  0  0  0  0  0  0
   -2.9811   19.7515  -34.8397 H   0  0  0  0  0  0  0  0  0  0  0  0
   -8.6820   18.2610  -33.4370 H   0  0  0  0  0  0  0  0  0  0  0  0
   -7.0560   19.0170  -33.3570 H   0  0  0  0  0  0  0  0  0  0  0  0
   -9.3562   22.8059  -31.4745 H   0  0  0  0  0  0  0  0  0  0  0  0
   -8.0221   25.1350  -30.5008 H   0  0  0  0  0  0  0  0  0  0  0  0
   -5.7535   26.0518  -29.9263 H   0  0  0  0  0  0  0  0  0  0  0  0
   -3.1040   25.6710  -30.4860 H   0  0  0  0  0  0  0  0  0  0  0  0
   -2.0968   23.0781  -29.8408 H   0  0  0  0  0  0  0  0  0  0  0  0
   -2.4459   23.9656  -27.1472 H   0  0  0  0  0  0  0  0  0  0  0  0
   -4.0650   24.0285  -27.9226 H   0  0  0  0  0  0  0  0  0  0  0  0
   -3.1280   22.4959  -27.9226 H   0  0  0  0  0  0  0  0  0  0  0  0
   -3.9294   22.2793  -31.1423 H   0  0  0  0  0  0  0  0  0  0  0  0
  1  2  1  0
  2  3  1  0
  3  4  1  0
  4  5  1  0
  4  6  1  0
  6  7  1  0
  7  8  2  0
  7  9  1  0
  9 10  1  0
 10 11  1  0
 11 12  1  0
 11 13  2  0
 10 14  2  0
 14 15  1  0
 15 16  2  0
 16 17  1  0
 17 18  2  0
 18 19  1  0
 19 20  1  0
 20 21  1  0
 20 22  1  0
 22 23  2  0
 22 24  1  0
 18 25  1  0
 25 26  2  0
 26  9  1  0
 26 15  1  0
  1 27  1  0
  1 28  1  0
  1 29  1  0
  3 30  1  0
  3 31  1  0
  4 32  1  1
  5 33  1  0
  5 34  1  0
  5 35  1  0
 12 36  1  0
 12 37  1  0
 14 38  1  0
 16 39  1  0
 17 40  1  0
 19 41  1  0
 20 42  1  6
 21 43  1  0
 21 44  1  0
 21 45  1  0
 25 46  1  0
M  CHG  1  24  -1
M  END
>  <UniqueID>  (11) 
11

>  <SMILES>  (11) 
COC[C@@H](C)OC(=O)n1c(C(N)=O)cc2ccc(N[C@H](C)C(=O)[O-])cc21

>  <Energy>  (11) 
78.95896205087467

>  <Genealogy>  (11) 
COCC(C)OC(=O)n1c(C(N)=O)cc2ccc(NC(C)C(=O)[O-])cc21 (protonated)
COC[C@@H](C)OC(=O)n1c(C(N)=O)cc2ccc(N[C@H](C)C(=O)[O-])cc21 (chirality)
COC[C@@H](C)OC(=O)n1c(C(N)=O)cc2ccc(N[C@H](C)C(=O)[O-])cc21 (3D coordinates assigned)
COC[C@@H](C)OC(=O)n1c(C(N)=O)cc2ccc(N[C@H](C)C(=O)[O-])cc21 (optimized conformer: 78.95896205087467 kcal/mol)

>  <smiles>  (11) 
COCC(C)OC(=O)n1c(C(N)=O)cc2ccc(NC(C)C(=O)O)cc21

>  <score_type>  (11) 
oracle

>  <origin>  (11) 
adg

>  <m_score__min__energy>  (11) 
-10.19

>  <m_primary>  (11) 
energy

$$$$
11:0
     RDKit          3D

 38 39  0  0  0  0  0  0  0  0999 V2000
   -3.9000   25.5390  -30.9410 N   0  0  0  0  0  0  0  0  0  0  0  0
   -5.2110   25.2100  -30.4920 C   0  0  0  0  0  0  0  0  0  0  0  0
   -5.8500   26.0370  -29.7880 O   0  0  0  0  0  0  0  0  0  0  0  0
   -5.8470   23.9340  -30.8790 C   0  0  0  0  0  0  0  0  0  0  0  0
   -7.2260   23.7540  -30.9680 C   0  0  0  0  0  0  0  0  0  0  0  0
   -7.3980   22.4700  -31.4350 C   0  0  0  0  0  0  0  0  0  0  0  0
   -8.5650   21.7640  -31.7120 C   0  0  0  0  0  0  0  0  0  0  0  0
   -8.4400   20.4420  -32.1740 C   0  0  0  0  0  0  0  0  0  0  0  0
   -7.1620   19.8510  -32.3370 C   0  0  0  0  0  0  0  0  0  0  0  0
   -7.0430   18.4430  -32.8580 C   0  0  0  0  0  0  0  0  0  0  0  0
   -5.9160   18.3200  -33.8870 C   0  0  0  0  0  0  0  0  0  0  0  0
   -6.1150   19.2120  -34.9500 O   0  0  0  0  0  0  0  0  0  0  0  0
   -6.0000   20.6030  -32.0540 C   0  0  0  0  0  0  0  0  0  0  0  0
   -6.1550   21.9190  -31.6080 C   0  0  0  0  0  0  0  0  0  0  0  0
   -5.1940   22.8020  -31.2680 N   0  0  0  0  0  0  0  0  0  0  0  0
   -3.7830   22.5400  -31.2510 C   0  0  0  0  0  0  0  0  0  0  0  0
   -3.1720   22.3660  -32.3400 O   0  0  0  0  0  0  0  0  0  0  0  0
   -3.0590   22.3510  -29.9470 C   0  0  0  0  0  0  0  0  0  0  0  0
   -3.1800   23.5550  -29.1080 N   0  0  0  0  0  0  0  0  0  0  0  0
   -4.3190   23.4430  -28.3840 F   0  0  0  0  0  0  0  0  0  0  0  0
   -2.0620   23.6650  -28.1600 C   0  0  0  0  0  0  0  0  0  0  0  0
   -1.1170   24.7280  -28.6160 C   0  0  0  0  0  0  0  0  0  0  0  0
    0.1140   24.4790  -28.7160 O   0  0  0  0  0  0  0  0  0  0  0  0
   -1.5970   25.9810  -28.9750 O   0  0  0  0  0  0  0  0  0  0  0  0
   -3.0600   25.3010  -30.3680 H   0  0  0  0  0  0  0  0  0  0  0  0
   -8.0108   24.4831  -30.7182 H   0  0  0  0  0  0  0  0  0  0  0  0
   -9.5538   22.2257  -31.5738 H   0  0  0  0  0  0  0  0  0  0  0  0
   -9.3431   19.8605  -32.4113 H   0  0  0  0  0  0  0  0  0  0  0  0
   -6.8340   17.7666  -32.0161 H   0  0  0  0  0  0  0  0  0  0  0  0
   -7.9901   18.1750  -33.3491 H   0  0  0  0  0  0  0  0  0  0  0  0
   -4.9562   18.5472  -33.4000 H   0  0  0  0  0  0  0  0  0  0  0  0
   -5.9099   17.2939  -34.2833 H   0  0  0  0  0  0  0  0  0  0  0  0
   -7.0920   19.3780  -35.0060 H   0  0  0  0  0  0  0  0  0  0  0  0
   -4.9992   20.1645  -32.1812 H   0  0  0  0  0  0  0  0  0  0  0  0
   -3.4938   21.4931  -29.4131 H   0  0  0  0  0  0  0  0  0  0  0  0
   -1.9943   22.1695  -30.1555 H   0  0  0  0  0  0  0  0  0  0  0  0
   -2.4512   23.9245  -27.1644 H   0  0  0  0  0  0  0  0  0  0  0  0
   -1.5310   22.7029  -28.1102 H   0  0  0  0  0  0  0  0  0  0  0  0
  1  2  1  0
  2  3  2  0
  2  4  1  0
  4  5  2  0
  5  6  1  0
  6  7  2  0
  7  8  1  0
  8  9  2  0
  9 10  1  0
 10 11  1  0
 11 12  1  0
  9 13  1  0
 13 14  2  0
 14 15  1  0
 15 16  1  0
 16 17  2  0
 16 18  1  0
 18 19  1  0
 19 20  1  0
 19 21  1  0
 21 22  1  0
 22 23  2  0
 22 24  1  0
 15  4  1  0
 14  6  1  0
  1 25  1  0
  5 26  1  0
  7 27  1  0
  8 28  1  0
 10 29  1  0
 10 30  1  0
 11 31  1  0
 11 32  1  0
 12 33  1  0
 13 34  1  0
 18 35  1  0
 18 36  1  0
 21 37  1  0
 21 38  1  0
M  CHG  2   1  -1  24  -1
M  END
>  <UniqueID>  (12) 
12

>  <SMILES>  (12) 
[NH-]C(=O)c1cc2ccc(CCO)cc2n1C(=O)CN(F)CC(=O)[O-]

>  <Energy>  (12) 
74.83943926763236

>  <Genealogy>  (12) 
[NH-]C(=O)c1cc2ccc(CCO)cc2n1C(=O)CN(F)CC(=O)[O-] (protonated)
[NH-]C(=O)c1cc2ccc(CCO)cc2n1C(=O)CN(F)CC(=O)[O-] (3D coordinates assigned)
[NH-]C(=O)c1cc2ccc(CCO)cc2n1C(=O)CN(F)CC(=O)[O-] (optimized conformer: 74.83943926763236 kcal/mol)

>  <smiles>  (12) 
NC(=O)c1cc2ccc(CCO)cc2n1C(=O)CN(F)CC(=O)O

>  <score_type>  (12) 
oracle

>  <origin>  (12) 
adg

>  <m_score__min__energy>  (12) 
-12.6

>  <m_primary>  (12) 
energy

$$$$
12:0
     RDKit          3D

 49 50  0  0  0  0  0  0  0  0999 V2000
    0.6420   20.4720  -28.1930 C   0  0  0  0  0  0  0  0  0  0  0  0
   -0.5950   21.2280  -28.4250 N   0  0  0  0  0  0  0  0  0  0  0  0
   -1.5480   21.4210  -27.3210 C   0  0  0  0  0  0  0  0  0  0  0  0
   -1.5090   22.8680  -26.8310 C   0  0  0  0  0  0  0  0  0  0  0  0
   -1.9010   23.7250  -27.8770 O   0  0  0  0  0  0  0  0  0  0  0  0
   -0.8770   25.0730  -27.9020 S   0  0  0  0  0  0  0  0  0  0  0  0
   -0.8920   25.8960  -26.3220 C   0  0  0  0  0  0  0  0  0  0  0  0
    0.5230   24.6040  -28.1810 O   0  0  0  0  0  0  0  0  0  0  0  0
   -1.2860   26.0360  -28.9800 O   0  0  0  0  0  0  0  0  0  0  0  0
   -0.8930   21.6860  -29.7600 C   0  0  0  0  0  0  0  0  0  0  0  0
   -0.5560   22.8500  -30.1070 O   0  0  0  0  0  0  0  0  0  0  0  0
   -1.6000   20.7920  -30.7460 C   0  0  0  0  0  0  0  0  0  0  0  0
   -3.0540   20.9160  -30.6580 N   0  0  0  0  0  0  0  0  0  0  0  0
   -3.8710   21.4710  -31.6890 C   0  0  0  0  0  0  0  0  0  0  0  0
   -3.5420   21.3220  -32.8970 O   0  0  0  0  0  0  0  0  0  0  0  0
   -5.0690   22.1990  -31.3570 N   0  0  0  0  0  0  0  0  0  0  0  0
   -5.1690   23.5070  -30.9860 C   0  0  0  0  0  0  0  0  0  0  0  0
   -4.0440   24.4020  -30.6570 C   0  0  0  0  0  0  0  0  0  0  0  0
   -2.8270   23.8880  -30.1190 N   0  0  0  0  0  0  0  0  0  0  0  0
   -4.1790   25.6470  -30.7930 O   0  0  0  0  0  0  0  0  0  0  0  0
   -6.5010   23.8920  -30.8830 C   0  0  0  0  0  0  0  0  0  0  0  0
   -7.2280   22.7660  -31.1840 C   0  0  0  0  0  0  0  0  0  0  0  0
   -8.6050   22.5860  -31.2450 C   0  0  0  0  0  0  0  0  0  0  0  0
   -9.0880   21.3210  -31.6120 C   0  0  0  0  0  0  0  0  0  0  0  0
   -8.1920   20.2610  -31.9060 C   0  0  0  0  0  0  0  0  0  0  0  0
   -8.7300   18.9220  -32.3440 C   0  0  0  0  0  0  0  0  0  0  0  0
   -9.0700   18.1560  -31.2430 F   0  0  0  0  0  0  0  0  0  0  0  0
   -9.8570   19.1150  -33.1230 F   0  0  0  0  0  0  0  0  0  0  0  0
   -7.7880   18.2260  -33.0820 F   0  0  0  0  0  0  0  0  0  0  0  0
   -6.7980   20.4940  -31.8660 C   0  0  0  0  0  0  0  0  0  0  0  0
   -6.3430   21.7580  -31.4680 C   0  0  0  0  0  0  0  0  0  0  0  0
    0.8111   20.3687  -27.1110 H   0  0  0  0  0  0  0  0  0  0  0  0
    0.5525   19.4741  -28.6471 H   0  0  0  0  0  0  0  0  0  0  0  0
    1.4892   21.0068  -28.6471 H   0  0  0  0  0  0  0  0  0  0  0  0
   -2.5631   21.1846  -27.6728 H   0  0  0  0  0  0  0  0  0  0  0  0
   -1.2715   20.7552  -26.4902 H   0  0  0  0  0  0  0  0  0  0  0  0
   -2.1974   22.9867  -25.9813 H   0  0  0  0  0  0  0  0  0  0  0  0
   -0.4874   23.1209  -26.5111 H   0  0  0  0  0  0  0  0  0  0  0  0
   -0.8783   25.1458  -25.5177 H   0  0  0  0  0  0  0  0  0  0  0  0
   -0.0055   26.5416  -26.2364 H   0  0  0  0  0  0  0  0  0  0  0  0
   -1.8015   26.5088  -26.2364 H   0  0  0  0  0  0  0  0  0  0  0  0
   -1.2819   21.0646  -31.7631 H   0  0  0  0  0  0  0  0  0  0  0  0
   -1.3344   19.7510  -30.5097 H   0  0  0  0  0  0  0  0  0  0  0  0
   -2.7650   22.8960  -29.7940 H   0  0  0  0  0  0  0  0  0  0  0  0
   -2.0170   24.5240  -29.9380 H   0  0  0  0  0  0  0  0  0  0  0  0
   -6.8897   24.8861  -30.6172 H   0  0  0  0  0  0  0  0  0  0  0  0
   -9.2951   23.4105  -31.0126 H   0  0  0  0  0  0  0  0  0  0  0  0
  -10.1728   21.1492  -31.6724 H   0  0  0  0  0  0  0  0  0  0  0  0
   -6.0870   19.7011  -32.1411 H   0  0  0  0  0  0  0  0  0  0  0  0
  1  2  1  0
  2  3  1  0
  3  4  1  0
  4  5  1  0
  5  6  1  0
  6  7  1  0
  6  8  2  0
  6  9  2  0
  2 10  1  0
 10 11  2  0
 10 12  1  0
 12 13  1  0
 13 14  1  0
 14 15  2  0
 14 16  1  0
 16 17  1  0
 17 18  1  0
 18 19  1  0
 18 20  2  0
 17 21  2  0
 21 22  1  0
 22 23  2  0
 23 24  1  0
 24 25  2  0
 25 26  1  0
 26 27  1  0
 26 28  1  0
 26 29  1  0
 25 30  1  0
 30 31  2  0
 31 16  1  0
 31 22  1  0
  1 32  1  0
  1 33  1  0
  1 34  1  0
  3 35  1  0
  3 36  1  0
  4 37  1  0
  4 38  1  0
  7 39  1  0
  7 40  1  0
  7 41  1  0
 12 42  1  0
 12 43  1  0
 19 44  1  0
 19 45  1  0
 21 46  1  0
 23 47  1  0
 24 48  1  0
 30 49  1  0
M  CHG  1  13  -1
M  END
>  <UniqueID>  (13) 
13

>  <SMILES>  (13) 
CN(CCOS(C)(=O)=O)C(=O)C[N-]C(=O)n1c(C(N)=O)cc2ccc(C(F)(F)F)cc21

>  <Energy>  (13) 
81.73395574990792

>  <Genealogy>  (13) 
CN(CCOS(C)(=O)=O)C(=O)C[N-]C(=O)n1c(C(N)=O)cc2ccc(C(F)(F)F)cc21 (protonated)
CN(CCOS(C)(=O)=O)C(=O)C[N-]C(=O)n1c(C(N)=O)cc2ccc(C(F)(F)F)cc21 (3D coordinates assigned)
CN(CCOS(C)(=O)=O)C(=O)C[N-]C(=O)n1c(C(N)=O)cc2ccc(C(F)(F)F)cc21 (optimized conformer: 81.73395574990792 kcal/mol)

>  <smiles>  (13) 
CN(CCOS(C)(=O)=O)C(=O)CNC(=O)n1c(C(N)=O)cc2ccc(C(F)(F)F)cc21

>  <score_type>  (13) 
oracle

>  <origin>  (13) 
adg

>  <m_score__min__energy>  (13) 
-9.4600000000000009

>  <m_primary>  (13) 
energy

$$$$
13:0
     RDKit          3D

 37 38  0  0  0  0  0  0  0  0999 V2000
   -2.6880   20.4220  -30.0060 C   0  0  0  0  0  0  0  0  0  0  0  0
   -3.2340   21.6310  -29.8190 C   0  0  0  0  0  0  0  0  0  0  0  0
   -3.3550   22.1890  -28.4510 C   0  0  0  0  0  0  0  0  0  0  0  0
   -3.7790   21.4680  -27.5050 O   0  0  0  0  0  0  0  0  0  0  0  0
   -3.0040   23.5210  -28.2090 O   0  0  0  0  0  0  0  0  0  0  0  0
   -1.7920   23.8910  -27.5630 C   0  0  0  0  0  0  0  0  0  0  0  0
   -0.9680   24.7260  -28.4860 C   0  0  0  0  0  0  0  0  0  0  0  0
    0.2810   24.5710  -28.5400 O   0  0  0  0  0  0  0  0  0  0  0  0
   -1.5820   25.6510  -29.3220 O   0  0  0  0  0  0  0  0  0  0  0  0
   -3.7240   22.4060  -30.9890 C   0  0  0  0  0  0  0  0  0  0  0  0
   -2.8990   22.8670  -31.8250 O   0  0  0  0  0  0  0  0  0  0  0  0
   -5.1280   22.6390  -31.1940 N   0  0  0  0  0  0  0  0  0  0  0  0
   -5.8240   23.7730  -30.9050 C   0  0  0  0  0  0  0  0  0  0  0  0
   -5.2370   25.0550  -30.4670 C   0  0  0  0  0  0  0  0  0  0  0  0
   -3.8660   25.1480  -30.0800 N   0  0  0  0  0  0  0  0  0  0  0  0
   -5.9480   26.0960  -30.4760 O   0  0  0  0  0  0  0  0  0  0  0  0
   -7.1890   23.5730  -31.0970 C   0  0  0  0  0  0  0  0  0  0  0  0
   -7.3100   22.2710  -31.5250 C   0  0  0  0  0  0  0  0  0  0  0  0
   -8.4460   21.5360  -31.8460 C   0  0  0  0  0  0  0  0  0  0  0  0
   -8.2770   20.1910  -32.2170 C   0  0  0  0  0  0  0  0  0  0  0  0
   -6.9840   19.6080  -32.2660 C   0  0  0  0  0  0  0  0  0  0  0  0
   -6.8160   18.1500  -32.6070 C   0  0  0  0  0  0  0  0  0  0  0  0
   -5.8300   17.5790  -31.8200 F   0  0  0  0  0  0  0  0  0  0  0  0
   -6.4550   17.9930  -33.9340 F   0  0  0  0  0  0  0  0  0  0  0  0
   -8.0090   17.4900  -32.3840 F   0  0  0  0  0  0  0  0  0  0  0  0
   -5.8570   20.3830  -31.9070 C   0  0  0  0  0  0  0  0  0  0  0  0
   -6.0520   21.7260  -31.5680 C   0  0  0  0  0  0  0  0  0  0  0  0
   -2.5992   20.0098  -31.0220 H   0  0  0  0  0  0  0  0  0  0  0  0
   -2.3285   19.8415  -29.1436 H   0  0  0  0  0  0  0  0  0  0  0  0
   -2.0223   24.4674  -26.6549 H   0  0  0  0  0  0  0  0  0  0  0  0
   -1.2312   22.9846  -27.2911 H   0  0  0  0  0  0  0  0  0  0  0  0
   -3.4820   26.0550  -29.7330 H   0  0  0  0  0  0  0  0  0  0  0  0
   -3.2020   24.3610  -30.2470 H   0  0  0  0  0  0  0  0  0  0  0  0
   -7.9983   24.3013  -30.9398 H   0  0  0  0  0  0  0  0  0  0  0  0
   -9.4459   21.9931  -31.8106 H   0  0  0  0  0  0  0  0  0  0  0  0
   -9.1574   19.5830  -32.4724 H   0  0  0  0  0  0  0  0  0  0  0  0
   -4.8502   19.9400  -31.8946 H   0  0  0  0  0  0  0  0  0  0  0  0
  1  2  2  0
  2  3  1  0
  3  4  2  0
  3  5  1  0
  5  6  1  0
  6  7  1  0
  7  8  2  0
  7  9  1  0
  2 10  1  0
 10 11  2  0
 10 12  1  0
 12 13  1  0
 13 14  1  0
 14 15  1  0
 14 16  2  0
 13 17  2  0
 17 18  1  0
 18 19  2  0
 19 20  1  0
 20 21  2  0
 21 22  1  0
 22 23  1  0
 22 24  1  0
 22 25  1  0
 21 26  1  0
 26 27  2  0
 27 12  1  0
 27 18  1  0
  1 28  1  0
  1 29  1  0
  6 30  1  0
  6 31  1  0
 15 32  1  0
 15 33  1  0
 17 34  1  0
 19 35  1  0
 20 36  1  0
 26 37  1  0
M  CHG  1   9  -1
M  END
>  <UniqueID>  (14) 
14

>  <SMILES>  (14) 
C=C(C(=O)OCC(=O)[O-])C(=O)n1c(C(N)=O)cc2ccc(C(F)(F)F)cc21

>  <Energy>  (14) 
74.30962286325007

>  <Genealogy>  (14) 
C=C(C(=O)OCC(=O)[O-])C(=O)n1c(C(N)=O)cc2ccc(C(F)(F)F)cc21 (protonated)
C=C(C(=O)OCC(=O)[O-])C(=O)n1c(C(N)=O)cc2ccc(C(F)(F)F)cc21 (3D coordinates assigned)
C=C(C(=O)OCC(=O)[O-])C(=O)n1c(C(N)=O)cc2ccc(C(F)(F)F)cc21 (optimized conformer: 74.30962286325007 kcal/mol)

>  <smiles>  (14) 
C=C(C(=O)OCC(=O)O)C(=O)n1c(C(N)=O)cc2ccc(C(F)(F)F)cc21

>  <score_type>  (14) 
oracle

>  <origin>  (14) 
adg

>  <m_score__min__energy>  (14) 
-10.65

>  <m_primary>  (14) 
energy

$$$$
14:0
     RDKit          3D

 45 47  0  0  0  0  0  0  0  0999 V2000
   -1.3340   21.2520  -29.1390 C   0  0  0  0  0  0  0  0  0  0  0  0
   -2.2260   22.2140  -28.8970 C   0  0  0  0  0  0  0  0  0  0  0  0
   -1.8650   23.3670  -27.9920 C   0  0  0  0  0  0  0  0  0  0  0  0
   -1.4680   24.5620  -28.8030 C   0  0  0  0  0  0  0  0  0  0  0  0
   -2.3500   25.2770  -29.3490 O   0  0  0  0  0  0  0  0  0  0  0  0
   -0.1290   24.9090  -28.9210 O   0  0  0  0  0  0  0  0  0  0  0  0
   -3.5080   22.0780  -29.4460 O   0  0  0  0  0  0  0  0  0  0  0  0
   -3.8790   22.5030  -30.7270 C   0  0  0  0  0  0  0  0  0  0  0  0
   -3.0050   22.7010  -31.6140 O   0  0  0  0  0  0  0  0  0  0  0  0
   -5.2710   22.6580  -31.0480 N   0  0  0  0  0  0  0  0  0  0  0  0
   -5.9890   23.8160  -31.0780 C   0  0  0  0  0  0  0  0  0  0  0  0
   -5.5190   25.1370  -30.6150 C   0  0  0  0  0  0  0  0  0  0  0  0
   -4.1730   25.5620  -30.8320 N   0  0  0  0  0  0  0  0  0  0  0  0
   -6.3040   25.8800  -29.9680 O   0  0  0  0  0  0  0  0  0  0  0  0
   -7.2730   23.5870  -31.5670 C   0  0  0  0  0  0  0  0  0  0  0  0
   -7.3250   22.2380  -31.8290 C   0  0  0  0  0  0  0  0  0  0  0  0
   -8.3630   21.4690  -32.3480 C   0  0  0  0  0  0  0  0  0  0  0  0
   -8.1270   20.1000  -32.5550 C   0  0  0  0  0  0  0  0  0  0  0  0
   -6.8640   19.5270  -32.2570 C   0  0  0  0  0  0  0  0  0  0  0  0
   -6.6380   18.1230  -32.4810 N   0  0  0  0  0  0  0  0  0  0  0  0
   -6.8560   17.5510  -33.8150 C   0  0  0  0  0  0  0  0  0  0  0  0
   -6.2860   16.1350  -33.8870 C   0  0  0  0  0  0  0  0  0  0  0  0
   -5.0770   16.0780  -33.1600 O   0  0  0  0  0  0  0  0  0  0  0  0
   -5.3440   16.1170  -31.7670 C   0  0  0  0  0  0  0  0  0  0  0  0
   -6.3340   17.2320  -31.3540 C   0  0  0  0  0  0  0  0  0  0  0  0
   -5.8370   20.3430  -31.7270 C   0  0  0  0  0  0  0  0  0  0  0  0
   -6.1060   21.6980  -31.5110 C   0  0  0  0  0  0  0  0  0  0  0  0
   -1.5966   20.4116  -29.7984 H   0  0  0  0  0  0  0  0  0  0  0  0
   -0.3358   21.2991  -28.6791 H   0  0  0  0  0  0  0  0  0  0  0  0
   -2.7339   23.6244  -27.3685 H   0  0  0  0  0  0  0  0  0  0  0  0
   -1.0183   23.0700  -27.3557 H   0  0  0  0  0  0  0  0  0  0  0  0
   -3.4550   24.9070  -31.2140 H   0  0  0  0  0  0  0  0  0  0  0  0
   -3.8710   26.5170  -30.5360 H   0  0  0  0  0  0  0  0  0  0  0  0
   -8.0739   24.3268  -31.7125 H   0  0  0  0  0  0  0  0  0  0  0  0
   -9.3373   21.9194  -32.5884 H   0  0  0  0  0  0  0  0  0  0  0  0
   -8.9315   19.4642  -32.9531 H   0  0  0  0  0  0  0  0  0  0  0  0
   -7.9356   17.5182  -34.0233 H   0  0  0  0  0  0  0  0  0  0  0  0
   -6.3462   18.1792  -34.5603 H   0  0  0  0  0  0  0  0  0  0  0  0
   -7.0079   15.4265  -33.4546 H   0  0  0  0  0  0  0  0  0  0  0  0
   -6.0958   15.8687  -34.9372 H   0  0  0  0  0  0  0  0  0  0  0  0
   -5.7685   15.1474  -31.4676 H   0  0  0  0  0  0  0  0  0  0  0  0
   -4.3901   16.3314  -31.2629 H   0  0  0  0  0  0  0  0  0  0  0  0
   -7.2676   16.7692  -31.0017 H   0  0  0  0  0  0  0  0  0  0  0  0
   -5.8692   17.8295  -30.5559 H   0  0  0  0  0  0  0  0  0  0  0  0
   -4.8492   19.9210  -31.4902 H   0  0  0  0  0  0  0  0  0  0  0  0
  1  2  2  0
  2  3  1  0
  3  4  1  0
  4  5  2  0
  4  6  1  0
  2  7  1  0
  7  8  1  0
  8  9  2  0
  8 10  1  0
 10 11  1  0
 11 12  1  0
 12 13  1  0
 12 14  2  0
 11 15  2  0
 15 16  1  0
 16 17  2  0
 17 18  1  0
 18 19  2  0
 19 20  1  0
 20 21  1  0
 21 22  1  0
 22 23  1  0
 23 24  1  0
 24 25  1  0
 19 26  1  0
 26 27  2  0
 27 10  1  0
 27 16  1  0
 25 20  1  0
  1 28  1  0
  1 29  1  0
  3 30  1  0
  3 31  1  0
 13 32  1  0
 13 33  1  0
 15 34  1  0
 17 35  1  0
 18 36  1  0
 21 37  1  0
 21 38  1  0
 22 39  1  0
 22 40  1  0
 24 41  1  0
 24 42  1  0
 25 43  1  0
 25 44  1  0
 26 45  1  0
M  CHG  1   6  -1
M  END
>  <UniqueID>  (15) 
15

>  <SMILES>  (15) 
C=C(CC(=O)[O-])OC(=O)n1c(C(N)=O)cc2ccc(N3CCOCC3)cc21

>  <Energy>  (15) 
98.05223575051234

>  <Genealogy>  (15) 
C=C(CC(=O)[O-])OC(=O)n1c(C(N)=O)cc2ccc(N3CCOCC3)cc21 (protonated)
C=C(CC(=O)[O-])OC(=O)n1c(C(N)=O)cc2ccc(N3CCOCC3)cc21 (3D coordinates assigned)
C=C(CC(=O)[O-])OC(=O)n1c(C(N)=O)cc2ccc(N3CCOCC3)cc21 (nonaromatic ring conformer: 98.05223575051234 kcal/mol)

>  <smiles>  (15) 
C=C(CC(=O)O)OC(=O)n1c(C(N)=O)cc2ccc(N3CCOCC3)cc21

>  <score_type>  (15) 
oracle

>  <origin>  (15) 
adg

>  <m_score__min__energy>  (15) 
-11.41

>  <m_primary>  (15) 
energy

$$$$
15:0
     RDKit          3D

 47 48  0  0  0  0  0  0  0  0999 V2000
   -6.3700   18.6120  -31.6090 C   0  0  0  0  0  0  0  0  0  0  0  0
   -6.4520   19.8690  -32.3620 N   0  0  0  0  0  0  0  0  0  0  0  0
   -5.3720   20.2030  -33.3020 C   0  0  0  0  0  0  0  0  0  0  0  0
   -4.1440   19.3290  -33.0310 C   0  0  0  0  0  0  0  0  0  0  0  0
   -3.1050   20.1010  -32.2650 C   0  0  0  0  0  0  0  0  0  0  0  0
   -1.8020   19.5690  -32.1050 C   0  0  0  0  0  0  0  0  0  0  0  0
   -0.8270   20.2690  -31.3750 C   0  0  0  0  0  0  0  0  0  0  0  0
   -1.1910   21.4850  -30.8030 C   0  0  0  0  0  0  0  0  0  0  0  0
   -0.4420   22.3750  -30.0670 C   0  0  0  0  0  0  0  0  0  0  0  0
   -1.3100   23.4200  -29.7560 C   0  0  0  0  0  0  0  0  0  0  0  0
   -0.9310   24.5600  -28.8950 C   0  0  0  0  0  0  0  0  0  0  0  0
   -1.6290   25.8000  -28.9680 N   0  0  0  0  0  0  0  0  0  0  0  0
   -0.0110   24.4200  -28.0470 O   0  0  0  0  0  0  0  0  0  0  0  0
   -2.5460   23.1890  -30.2870 N   0  0  0  0  0  0  0  0  0  0  0  0
   -3.6910   24.0570  -30.2670 C   0  0  0  0  0  0  0  0  0  0  0  0
   -3.5760   25.2690  -30.5910 O   0  0  0  0  0  0  0  0  0  0  0  0
   -4.9400   23.5640  -29.9130 O   0  0  0  0  0  0  0  0  0  0  0  0
   -2.4560   22.0000  -30.9230 C   0  0  0  0  0  0  0  0  0  0  0  0
   -3.4400   21.3330  -31.6610 C   0  0  0  0  0  0  0  0  0  0  0  0
   -7.5280   20.8150  -32.1390 C   0  0  0  0  0  0  0  0  0  0  0  0
   -8.6430   20.6230  -32.7030 O   0  0  0  0  0  0  0  0  0  0  0  0
   -7.3310   22.0160  -31.3460 N   0  0  2  0  0  0  0  0  0  0  0  0
   -8.1050   21.9250  -30.0920 C   0  0  0  0  0  0  0  0  0  0  0  0
   -7.7260   23.1950  -32.1540 C   0  0  0  0  0  0  0  0  0  0  0  0
   -6.5500   24.1390  -32.4600 C   0  0  0  0  0  0  0  0  0  0  0  0
   -5.3290   23.4510  -32.4360 O   0  0  0  0  0  0  0  0  0  0  0  0
   -6.3842   18.8289  -30.5307 H   0  0  0  0  0  0  0  0  0  0  0  0
   -7.2284   17.9740  -31.8660 H   0  0  0  0  0  0  0  0  0  0  0  0
   -5.4360   18.0909  -31.8660 H   0  0  0  0  0  0  0  0  0  0  0  0
   -5.7202   20.0309  -34.3311 H   0  0  0  0  0  0  0  0  0  0  0  0
   -5.0960   21.2596  -33.1700 H   0  0  0  0  0  0  0  0  0  0  0  0
   -4.4480   18.4502  -32.4433 H   0  0  0  0  0  0  0  0  0  0  0  0
   -3.7140   19.0126  -33.9928 H   0  0  0  0  0  0  0  0  0  0  0  0
   -1.5511   18.5980  -32.5569 H   0  0  0  0  0  0  0  0  0  0  0  0
    0.1912   19.8692  -31.2591 H   0  0  0  0  0  0  0  0  0  0  0  0
    0.6169   22.2813  -29.7843 H   0  0  0  0  0  0  0  0  0  0  0  0
   -2.6730   25.8290  -28.9660 H   0  0  0  0  0  0  0  0  0  0  0  0
   -4.4491   21.7575  -31.7681 H   0  0  0  0  0  0  0  0  0  0  0  0
   -6.3280   22.0970  -31.0720 H   0  0  0  0  0  0  0  0  0  0  0  0
   -7.4224   22.0053  -29.2332 H   0  0  0  0  0  0  0  0  0  0  0  0
   -8.8395   22.7430  -30.0543 H   0  0  0  0  0  0  0  0  0  0  0  0
   -8.6298   20.9590  -30.0543 H   0  0  0  0  0  0  0  0  0  0  0  0
   -8.1478   22.8412  -33.1063 H   0  0  0  0  0  0  0  0  0  0  0  0
   -8.4594   23.7652  -31.5650 H   0  0  0  0  0  0  0  0  0  0  0  0
   -6.6939   24.5800  -33.4574 H   0  0  0  0  0  0  0  0  0  0  0  0
   -6.5232   24.9236  -31.6895 H   0  0  0  0  0  0  0  0  0  0  0  0
   -4.6670   24.0620  -32.0200 H   0  0  0  0  0  0  0  0  0  0  0  0
  1  2  1  0
  2  3  1  0
  3  4  1  0
  4  5  1  0
  5  6  2  0
  6  7  1  0
  7  8  2  0
  8  9  1  0
  9 10  2  0
 10 11  1  0
 11 12  1  0
 11 13  2  0
 10 14  1  0
 14 15  1  0
 15 16  2  0
 15 17  1  0
 14 18  1  0
 18 19  2  0
  2 20  1  0
 20 21  2  0
 20 22  1  0
 22 23  1  0
 22 24  1  0
 24 25  1  0
 25 26  1  0
 19  5  1  0
 18  8  1  0
  1 27  1  0
  1 28  1  0
  1 29  1  0
  3 30  1  0
  3 31  1  0
  4 32  1  0
  4 33  1  0
  6 34  1  0
  7 35  1  0
  9 36  1  0
 12 37  1  0
 19 38  1  0
 22 39  1  1
 23 40  1  0
 23 41  1  0
 23 42  1  0
 24 43  1  0
 24 44  1  0
 25 45  1  0
 25 46  1  0
 26 47  1  0
M  CHG  3  12  -1  17  -1  22   1
M  END
>  <UniqueID>  (16) 
16

>  <SMILES>  (16) 
CN(CCc1ccc2cc(C([NH-])=O)n(C(=O)[O-])c2c1)C(=O)[N@H+](C)CCO

>  <Energy>  (16) 
84.08036538703901

>  <Genealogy>  (16) 
CN(CCc1ccc2cc(C([NH-])=O)n(C(=O)[O-])c2c1)C(=O)[NH+](C)CCO (protonated)
CN(CCc1ccc2cc(C([NH-])=O)n(C(=O)[O-])c2c1)C(=O)[N@H+](C)CCO (chirality)
CN(CCc1ccc2cc(C([NH-])=O)n(C(=O)[O-])c2c1)C(=O)[N@H+](C)CCO (3D coordinates assigned)
CN(CCc1ccc2cc(C([NH-])=O)n(C(=O)[O-])c2c1)C(=O)[N@H+](C)CCO (optimized conformer: 84.08036538703901 kcal/mol)

>  <smiles>  (16) 
CN(CCO)C(=O)N(C)CCc1ccc2cc(C(N)=O)n(C(=O)O)c2c1

>  <score_type>  (16) 
oracle

>  <origin>  (16) 
adg

>  <m_score__min__energy>  (16) 
-10.029999999999999

>  <m_primary>  (16) 
energy

$$$$
16:0
     RDKit          3D

 43 44  0  0  0  0  0  0  0  0999 V2000
   -7.1100   18.3240  -32.6640 C   0  0  0  0  0  0  0  0  0  0  0  0
   -7.3050   19.7440  -32.2270 C   0  0  0  0  0  0  0  0  0  0  0  0
   -8.5940   20.3310  -32.2750 C   0  0  0  0  0  0  0  0  0  0  0  0
   -8.7840   21.6730  -31.8970 C   0  0  0  0  0  0  0  0  0  0  0  0
   -7.6670   22.4000  -31.4940 C   0  0  0  0  0  0  0  0  0  0  0  0
   -7.5640   23.7050  -31.0650 C   0  0  0  0  0  0  0  0  0  0  0  0
   -6.2090   23.9000  -30.7840 C   0  0  0  0  0  0  0  0  0  0  0  0
   -5.6110   25.1730  -30.3100 C   0  0  0  0  0  0  0  0  0  0  0  0
   -4.2640   25.5260  -30.6310 N   0  0  0  0  0  0  0  0  0  0  0  0
   -6.2930   25.9650  -29.6070 O   0  0  0  0  0  0  0  0  0  0  0  0
   -5.5120   22.7580  -31.0390 N   0  0  0  0  0  0  0  0  0  0  0  0
   -4.1050   22.5420  -30.8840 C   0  0  0  0  0  0  0  0  0  0  0  0
   -3.2960   23.2080  -31.5870 O   0  0  0  0  0  0  0  0  0  0  0  0
   -3.6110   21.5590  -29.8600 C   0  0  0  0  0  0  0  0  0  0  0  0
   -2.2720   21.9650  -29.2980 C   0  0  0  0  0  0  0  0  0  0  0  0
   -1.3090   22.0790  -30.1050 O   0  0  0  0  0  0  0  0  0  0  0  0
   -2.0690   22.2860  -27.9000 N   0  0  0  0  0  0  0  0  0  0  0  0
   -1.2720   21.3640  -27.0830 C   0  0  0  0  0  0  0  0  0  0  0  0
   -2.7020   23.4510  -27.2550 C   0  0  0  0  0  0  0  0  0  0  0  0
   -1.7770   24.6760  -27.2610 C   0  0  0  0  0  0  0  0  0  0  0  0
   -1.7560   25.3400  -28.6020 C   0  0  0  0  0  0  0  0  0  0  0  0
   -2.3340   24.8030  -29.5830 O   0  0  0  0  0  0  0  0  0  0  0  0
   -1.1420   26.5760  -28.7570 O   0  0  0  0  0  0  0  0  0  0  0  0
   -6.4140   21.8510  -31.4680 C   0  0  0  0  0  0  0  0  0  0  0  0
   -6.1940   20.5180  -31.8290 C   0  0  0  0  0  0  0  0  0  0  0  0
   -7.0211   17.6769  -31.7789 H   0  0  0  0  0  0  0  0  0  0  0  0
   -7.9727   18.0042  -33.2669 H   0  0  0  0  0  0  0  0  0  0  0  0
   -6.1931   18.2485  -33.2669 H   0  0  0  0  0  0  0  0  0  0  0  0
   -9.4535   19.7323  -32.6107 H   0  0  0  0  0  0  0  0  0  0  0  0
   -9.7830   22.1330  -31.9192 H   0  0  0  0  0  0  0  0  0  0  0  0
   -8.3771   24.4390  -30.9647 H   0  0  0  0  0  0  0  0  0  0  0  0
   -3.6580   24.9160  -31.2180 H   0  0  0  0  0  0  0  0  0  0  0  0
   -3.8640   26.4240  -30.2790 H   0  0  0  0  0  0  0  0  0  0  0  0
   -4.3404   21.5032  -29.0385 H   0  0  0  0  0  0  0  0  0  0  0  0
   -3.4948   20.5815  -30.3510 H   0  0  0  0  0  0  0  0  0  0  0  0
   -1.4505   21.5705  -26.0174 H   0  0  0  0  0  0  0  0  0  0  0  0
   -1.5635   20.3278  -27.3095 H   0  0  0  0  0  0  0  0  0  0  0  0
   -0.2045   21.5025  -27.3095 H   0  0  0  0  0  0  0  0  0  0  0  0
   -3.6264   23.6998  -27.7968 H   0  0  0  0  0  0  0  0  0  0  0  0
   -2.9166   23.1887  -26.2085 H   0  0  0  0  0  0  0  0  0  0  0  0
   -2.1335   25.3969  -26.5106 H   0  0  0  0  0  0  0  0  0  0  0  0
   -0.7564   24.3394  -27.0262 H   0  0  0  0  0  0  0  0  0  0  0  0
   -5.1832   20.0848  -31.8035 H   0  0  0  0  0  0  0  0  0  0  0  0
  1  2  1  0
  2  3  2  0
  3  4  1  0
  4  5  2  0
  5  6  1  0
  6  7  2  0
  7  8  1  0
  8  9  1  0
  8 10  2  0
  7 11  1  0
 11 12  1  0
 12 13  2  0
 12 14  1  0
 14 15  1  0
 15 16  2  0
 15 17  1  0
 17 18  1  0
 17 19  1  0
 19 20  1  0
 20 21  1  0
 21 22  2  0
 21 23  1  0
 11 24  1  0
 24 25  2  0
 25  2  1  0
 24  5  1  0
  1 26  1  0
  1 27  1  0
  1 28  1  0
  3 29  1  0
  4 30  1  0
  6 31  1  0
  9 32  1  0
  9 33  1  0
 14 34  1  0
 14 35  1  0
 18 36  1  0
 18 37  1  0
 18 38  1  0
 19 39  1  0
 19 40  1  0
 20 41  1  0
 20 42  1  0
 25 43  1  0
M  CHG  1  23  -1
M  END
>  <UniqueID>  (17) 
17

>  <SMILES>  (17) 
Cc1ccc2cc(C(N)=O)n(C(=O)CC(=O)N(C)CCC(=O)[O-])c2c1

>  <Energy>  (17) 
77.79584885284585

>  <Genealogy>  (17) 
Cc1ccc2cc(C(N)=O)n(C(=O)CC(=O)N(C)CCC(=O)[O-])c2c1 (protonated)
Cc1ccc2cc(C(N)=O)n(C(=O)CC(=O)N(C)CCC(=O)[O-])c2c1 (3D coordinates assigned)
Cc1ccc2cc(C(N)=O)n(C(=O)CC(=O)N(C)CCC(=O)[O-])c2c1 (optimized conformer: 77.79584885284585 kcal/mol)

>  <smiles>  (17) 
Cc1ccc2cc(C(N)=O)n(C(=O)CC(=O)N(C)CCC(=O)O)c2c1

>  <score_type>  (17) 
oracle

>  <origin>  (17) 
adg

>  <m_score__min__energy>  (17) 
-11.1

>  <m_primary>  (17) 
energy

$$$$
17:0
     RDKit          3D

 59 60  0  0  0  0  0  0  0  0999 V2000
   -1.9920   20.7440  -27.1160 C   0  0  0  0  0  0  0  0  0  0  0  0
   -1.0210   20.7710  -28.2140 N   0  0  0  0  0  0  0  0  0  0  0  0
   -1.3110   20.0820  -29.4800 C   0  0  0  0  0  0  0  0  0  0  0  0
   -1.2690   21.0530  -30.6670 C   0  0  0  0  0  0  0  0  0  0  0  0
   -2.2320   20.6350  -31.7850 C   0  0  0  0  0  0  0  0  0  0  0  0
   -2.8520   21.8600  -32.4640 C   0  0  0  0  0  0  0  0  0  0  0  0
   -3.5470   22.7260  -31.4550 C   0  0  0  0  0  0  0  0  0  0  0  0
   -2.8660   23.3800  -30.6200 O   0  0  0  0  0  0  0  0  0  0  0  0
   -4.9790   22.7900  -31.4110 N   0  0  0  0  0  0  0  0  0  0  0  0
   -5.7540   23.8400  -31.0200 C   0  0  0  0  0  0  0  0  0  0  0  0
   -5.2650   25.1100  -30.4410 C   0  0  0  0  0  0  0  0  0  0  0  0
   -4.0070   25.6590  -30.8280 N   0  0  0  0  0  0  0  0  0  0  0  0
   -5.9530   25.7030  -29.5670 O   0  0  0  0  0  0  0  0  0  0  0  0
   -7.1040   23.5410  -31.1960 C   0  0  0  0  0  0  0  0  0  0  0  0
   -7.1310   22.2650  -31.7110 C   0  0  0  0  0  0  0  0  0  0  0  0
   -8.2100   21.4760  -32.1000 C   0  0  0  0  0  0  0  0  0  0  0  0
   -7.9380   20.2070  -32.6400 C   0  0  0  0  0  0  0  0  0  0  0  0
   -6.6040   19.7540  -32.7830 C   0  0  0  0  0  0  0  0  0  0  0  0
   -6.3330   18.4060  -33.3900 C   0  0  0  0  0  0  0  0  0  0  0  0
   -6.1040   18.5450  -34.7470 F   0  0  0  0  0  0  0  0  0  0  0  0
   -7.4200   17.5740  -33.1910 F   0  0  0  0  0  0  0  0  0  0  0  0
   -5.5330   20.5850  -32.3870 C   0  0  0  0  0  0  0  0  0  0  0  0
   -5.8350   21.8350  -31.8350 C   0  0  0  0  0  0  0  0  0  0  0  0
    0.2400   21.4350  -28.0130 C   0  0  0  0  0  0  0  0  0  0  0  0
    1.2290   20.7950  -27.5580 O   0  0  0  0  0  0  0  0  0  0  0  0
    0.3660   22.7970  -28.3140 O   0  0  0  0  0  0  0  0  0  0  0  0
   -0.0600   23.8270  -27.4260 C   0  0  0  0  0  0  0  0  0  0  0  0
   -1.4770   23.8000  -27.2850 O   0  0  0  0  0  0  0  0  0  0  0  0
   -2.3330   24.5910  -28.0620 C   0  0  0  0  0  0  0  0  0  0  0  0
   -1.8610   25.3700  -28.9350 O   0  0  0  0  0  0  0  0  0  0  0  0
   -3.7620   24.4870  -27.8910 N   0  0  0  0  0  0  0  0  0  0  0  0
   -4.1860   23.0990  -28.1240 C   0  0  0  0  0  0  0  0  0  0  0  0
   -4.1480   24.9340  -26.5450 C   0  0  0  0  0  0  0  0  0  0  0  0
   -1.4584   20.7588  -26.1542 H   0  0  0  0  0  0  0  0  0  0  0  0
   -2.6481   21.6242  -27.1850 H   0  0  0  0  0  0  0  0  0  0  0  0
   -2.5981   19.8287  -27.1850 H   0  0  0  0  0  0  0  0  0  0  0  0
   -0.5622   19.2917  -29.6372 H   0  0  0  0  0  0  0  0  0  0  0  0
   -2.3224   19.6540  -29.4179 H   0  0  0  0  0  0  0  0  0  0  0  0
   -1.5481   22.0570  -30.3147 H   0  0  0  0  0  0  0  0  0  0  0  0
   -0.2482   21.0449  -31.0769 H   0  0  0  0  0  0  0  0  0  0  0  0
   -1.6798   20.0495  -32.5348 H   0  0  0  0  0  0  0  0  0  0  0  0
   -3.0401   20.0332  -31.3437 H   0  0  0  0  0  0  0  0  0  0  0  0
   -2.0581   22.4421  -32.9547 H   0  0  0  0  0  0  0  0  0  0  0  0
   -3.5881   21.5197  -33.2072 H   0  0  0  0  0  0  0  0  0  0  0  0
   -3.1160   25.2990  -30.4210 H   0  0  0  0  0  0  0  0  0  0  0  0
   -7.9650   24.1876  -30.9710 H   0  0  0  0  0  0  0  0  0  0  0  0
   -9.2439   21.8347  -31.9882 H   0  0  0  0  0  0  0  0  0  0  0  0
   -8.7697   19.5594  -32.9546 H   0  0  0  0  0  0  0  0  0  0  0  0
   -5.4459   17.9673  -32.9098 H   0  0  0  0  0  0  0  0  0  0  0  0
   -4.4897   20.2586  -32.5091 H   0  0  0  0  0  0  0  0  0  0  0  0
    0.4061   23.6737  -26.4415 H   0  0  0  0  0  0  0  0  0  0  0  0
    0.2413   24.8021  -27.8365 H   0  0  0  0  0  0  0  0  0  0  0  0
   -4.2410   25.1020  -28.5910 H   0  0  0  0  0  0  0  0  0  0  0  0
   -4.3398   22.5955  -27.1581 H   0  0  0  0  0  0  0  0  0  0  0  0
   -5.1267   23.0938  -28.6941 H   0  0  0  0  0  0  0  0  0  0  0  0
   -3.4088   22.5690  -28.6941 H   0  0  0  0  0  0  0  0  0  0  0  0
   -3.6236   24.3267  -25.7925 H   0  0  0  0  0  0  0  0  0  0  0  0
   -3.8749   25.9919  -26.4176 H   0  0  0  0  0  0  0  0  0  0  0  0
   -5.2344   24.8179  -26.4176 H   0  0  0  0  0  0  0  0  0  0  0  0
  1  2  1  0
  2  3  1  0
  3  4  1  0
  4  5  1  0
  5  6  1  0
  6  7  1  0
  7  8  2  0
  7  9  1  0
  9 10  1  0
 10 11  1  0
 11 12  1  0
 11 13  2  0
 10 14  2  0
 14 15  1  0
 15 16  2  0
 16 17  1  0
 17 18  2  0
 18 19  1  0
 19 20  1  0
 19 21  1  0
 18 22  1  0
 22 23  2  0
  2 24  1  0
 24 25  2  0
 24 26  1  0
 26 27  1  0
 27 28  1  0
 28 29  1  0
 29 30  2  0
 29 31  1  0
 31 32  1  0
 31 33  1  0
 23  9  1  0
 23 15  1  0
  1 34  1  0
  1 35  1  0
  1 36  1  0
  3 37  1  0
  3 38  1  0
  4 39  1  0
  4 40  1  0
  5 41  1  0
  5 42  1  0
  6 43  1  0
  6 44  1  0
 12 45  1  0
 14 46  1  0
 16 47  1  0
 17 48  1  0
 19 49  1  0
 22 50  1  0
 27 51  1  0
 27 52  1  0
 31 53  1  0
 32 54  1  0
 32 55  1  0
 32 56  1  0
 33 57  1  0
 33 58  1  0
 33 59  1  0
M  CHG  2  12  -1  31   1
M  END
>  <UniqueID>  (18) 
18

>  <SMILES>  (18) 
CN(CCCCC(=O)n1c(C([NH-])=O)cc2ccc(C(F)F)cc21)C(=O)OCOC(=O)[NH+](C)C

>  <Energy>  (18) 
83.21111777172612

>  <Genealogy>  (18) 
CN(CCCCC(=O)n1c(C([NH-])=O)cc2ccc(C(F)F)cc21)C(=O)OCOC(=O)[NH+](C)C (protonated)
CN(CCCCC(=O)n1c(C([NH-])=O)cc2ccc(C(F)F)cc21)C(=O)OCOC(=O)[NH+](C)C (3D coordinates assigned)
CN(CCCCC(=O)n1c(C([NH-])=O)cc2ccc(C(F)F)cc21)C(=O)OCOC(=O)[NH+](C)C (optimized conformer: 83.21111777172612 kcal/mol)

>  <smiles>  (18) 
CN(C)C(=O)OCOC(=O)N(C)CCCCC(=O)n1c(C(N)=O)cc2ccc(C(F)F)cc21

>  <score_type>  (18) 
oracle

>  <origin>  (18) 
adg

>  <m_score__min__energy>  (18) 
-11.42

>  <m_primary>  (18) 
energy

$$$$
18:0
     RDKit          3D

 40 41  0  0  0  0  0  0  0  0999 V2000
   -2.8980   25.3210  -30.5170 H   0  0  0  0  0  0  0  0  0  0  0  0
   -3.8760   25.4770  -30.8460 N   0  0  0  0  0  0  0  0  0  0  0  0
   -4.9500   24.6730  -30.3660 C   0  0  0  0  0  0  0  0  0  0  0  0
   -5.6250   25.0730  -29.3810 O   0  0  0  0  0  0  0  0  0  0  0  0
   -5.2570   23.3640  -30.9810 C   0  0  0  0  0  0  0  0  0  0  0  0
   -6.3310   23.1520  -31.8450 C   0  0  0  0  0  0  0  0  0  0  0  0
   -7.0476   23.9005  -32.2141 H   0  0  0  0  0  0  0  0  0  0  0  0
   -6.3040   21.8070  -32.1380 C   0  0  0  0  0  0  0  0  0  0  0  0
   -7.1340   21.0520  -32.9610 C   0  0  0  0  0  0  0  0  0  0  0  0
   -7.9835   21.5134  -33.4859 H   0  0  0  0  0  0  0  0  0  0  0  0
   -6.8540   19.6830  -33.1010 C   0  0  0  0  0  0  0  0  0  0  0  0
   -7.4966   19.0596  -33.7401 H   0  0  0  0  0  0  0  0  0  0  0  0
   -5.7520   19.0940  -32.4280 C   0  0  0  0  0  0  0  0  0  0  0  0
   -5.4710   17.6850  -32.5770 N   0  0  0  0  0  0  0  0  0  0  0  0
   -5.3780   17.2660  -31.6220 H   0  0  0  0  0  0  0  0  0  0  0  0
   -4.5580   17.5320  -33.0600 H   0  0  0  0  0  0  0  0  0  0  0  0
   -6.5550   16.9810  -33.2870 C   0  0  0  0  0  0  0  0  0  0  0  0
   -7.3696   16.7879  -32.5734 H   0  0  0  0  0  0  0  0  0  0  0  0
   -6.8700   17.6298  -34.1176 H   0  0  0  0  0  0  0  0  0  0  0  0
   -6.1190   15.6340  -33.9060 C   0  0  0  0  0  0  0  0  0  0  0  0
   -6.7399   14.8353  -33.4740 H   0  0  0  0  0  0  0  0  0  0  0  0
   -6.2491   15.7216  -34.9948 H   0  0  0  0  0  0  0  0  0  0  0  0
   -4.6430   15.2920  -33.6540 C   0  0  0  0  0  0  0  0  0  0  0  0
   -4.4724   14.2346  -33.9046 H   0  0  0  0  0  0  0  0  0  0  0  0
   -4.0226   15.9464  -34.2840 H   0  0  0  0  0  0  0  0  0  0  0  0
   -4.2920   15.5060  -32.3140 O   0  0  0  0  0  0  0  0  0  0  0  0
   -3.5590   14.8690  -32.1080 H   0  0  0  0  0  0  0  0  0  0  0  0
   -4.9260   19.9000  -31.6080 C   0  0  0  0  0  0  0  0  0  0  0  0
   -4.0547   19.4704  -31.0921 H   0  0  0  0  0  0  0  0  0  0  0  0
   -5.2430   21.2540  -31.4690 C   0  0  0  0  0  0  0  0  0  0  0  0
   -4.5930   22.1960  -30.7520 N   0  0  0  0  0  0  0  0  0  0  0  0
   -3.4000   22.0020  -29.9770 C   0  0  0  0  0  0  0  0  0  0  0  0
   -3.2800   20.9630  -29.2710 O   0  0  0  0  0  0  0  0  0  0  0  0
   -2.3250   23.0130  -30.0110 C   0  0  0  0  0  0  0  0  0  0  0  0
   -1.7312   23.1250  -30.9302 H   0  0  0  0  0  0  0  0  0  0  0  0
   -2.0470   23.7980  -28.9640 C   0  0  0  0  0  0  0  0  0  0  0  0
   -2.6387   23.6842  -28.0437 H   0  0  0  0  0  0  0  0  0  0  0  0
   -0.9780   24.8080  -29.0000 C   0  0  0  0  0  0  0  0  0  0  0  0
   -1.2190   26.0010  -29.3270 O   0  0  0  0  0  0  0  0  0  0  0  0
    0.3200   24.4430  -28.6640 O   0  0  0  0  0  0  0  0  0  0  0  0
  1  2  1  0
  2  3  1  0
  3  4  2  0
  3  5  1  0
  5  6  2  0
  6  7  1  0
  6  8  1  0
  8  9  2  0
  9 10  1  0
  9 11  1  0
 11 12  1  0
 11 13  2  0
 13 14  1  0
 14 15  1  0
 14 16  1  0
 14 17  1  0
 17 18  1  0
 17 19  1  0
 17 20  1  0
 20 21  1  0
 20 22  1  0
 20 23  1  0
 23 24  1  0
 23 25  1  0
 23 26  1  0
 26 27  1  0
 13 28  1  0
 28 29  1  0
 28 30  2  0
 30 31  1  0
 31 32  1  0
 32 33  2  0
 32 34  1  0
 34 35  1  0
 34 36  2  0
 36 37  1  0
 36 38  1  0
 38 39  2  0
 38 40  1  0
 31  5  1  0
 30  8  1  0
M  CHG  3   2  -1  14   1  40  -1
M  END
>  <UniqueID>  (19) 
19

>  <SMILES>  (19) 
[NH-]C(=O)c1cc2ccc([NH2+]CCCO)cc2n1C(=O)/C=C/C(=O)[O-]

>  <Energy>  (19) 
77.432423617311

>  <Genealogy>  (19) 
[NH-]C(=O)c1cc2ccc([NH2+]CCCO)cc2n1C(=O)C=CC(=O)[O-] (protonated)
[NH-]C(=O)c1cc2ccc([NH2+]CCCO)cc2n1C(=O)/C=C/C(=O)[O-] (cis-trans isomerization)
[NH-]C(=O)c1cc2ccc([NH2+]CCCO)cc2n1C(=O)/C=C/C(=O)[O-] (3D coordinates assigned)
[NH-]C(=O)c1cc2ccc([NH2+]CCCO)cc2n1C(=O)/C=C/C(=O)[O-] (optimized conformer: 77.432423617311 kcal/mol)

>  <smiles>  (19) 
NC(=O)c1cc2ccc(NCCCO)cc2n1C(=O)C=CC(=O)O

>  <score_type>  (19) 
oracle

>  <origin>  (19) 
adg

>  <m_score__min__energy>  (19) 
-11.529999999999999

>  <m_primary>  (19) 
energy

$$$$
19:0
     RDKit          3D

 46 48  0  0  0  0  0  0  0  0999 V2000
   -0.4980   21.8570  -34.1990 N   0  0  0  0  0  0  0  0  0  0  0  0
   -1.1460   21.5590  -32.9660 C   0  0  0  0  0  0  0  0  0  0  0  0
   -0.5620   21.8410  -31.8850 O   0  0  0  0  0  0  0  0  0  0  0  0
   -2.4790   20.9180  -32.9320 C   0  0  0  0  0  0  0  0  0  0  0  0
   -2.7670   19.7130  -33.5720 C   0  0  0  0  0  0  0  0  0  0  0  0
   -4.0960   19.4710  -33.3170 C   0  0  0  0  0  0  0  0  0  0  0  0
   -4.8920   18.3890  -33.6780 C   0  0  0  0  0  0  0  0  0  0  0  0
   -6.2250   18.3750  -33.2340 C   0  0  0  0  0  0  0  0  0  0  0  0
   -6.7380   19.4380  -32.4480 C   0  0  0  0  0  0  0  0  0  0  0  0
   -8.1690   19.4070  -31.9660 C   0  0  0  0  0  0  0  0  0  0  0  0
   -9.0800   20.4660  -32.6310 C   0  0  0  0  0  0  0  0  0  0  0  0
   -9.2510   21.8230  -31.8960 C   0  0  0  0  0  0  0  0  0  0  0  0
   -8.2450   22.9020  -32.3160 C   0  0  0  0  0  0  0  0  0  0  0  0
   -7.4520   23.2890  -31.0710 C   0  0  0  0  0  0  0  0  0  0  0  0
   -7.8370   22.3130  -29.9690 C   0  0  0  0  0  0  0  0  0  0  0  0
   -9.1770   21.7220  -30.3710 C   0  0  0  0  0  0  0  0  0  0  0  0
   -5.8850   20.5010  -32.0720 C   0  0  0  0  0  0  0  0  0  0  0  0
   -4.5710   20.5030  -32.5520 C   0  0  0  0  0  0  0  0  0  0  0  0
   -3.5930   21.4050  -32.3140 N   0  0  0  0  0  0  0  0  0  0  0  0
   -3.7070   22.6080  -31.5380 C   0  0  0  0  0  0  0  0  0  0  0  0
   -4.6950   23.3720  -31.7160 O   0  0  0  0  0  0  0  0  0  0  0  0
   -2.6700   22.9730  -30.5120 C   0  0  0  0  0  0  0  0  0  0  0  0
   -3.0560   24.5660  -29.7230 P   0  0  0  0  0  0  0  0  0  0  0  0
   -3.9420   24.3420  -28.5190 O   0  0  0  0  0  0  0  0  0  0  0  0
   -3.8670   25.5480  -30.8360 O   0  0  0  0  0  0  0  0  0  0  0  0
   -1.6320   25.3390  -29.2380 O   0  0  0  0  0  0  0  0  0  0  0  0
   -0.8700   22.5910  -34.8400 H   0  0  0  0  0  0  0  0  0  0  0  0
   -2.0765   19.0880  -34.1573 H   0  0  0  0  0  0  0  0  0  0  0  0
   -4.4903   17.5696  -34.2921 H   0  0  0  0  0  0  0  0  0  0  0  0
   -6.8778   17.5302  -33.4990 H   0  0  0  0  0  0  0  0  0  0  0  0
   -8.5842   18.4108  -32.1788 H   0  0  0  0  0  0  0  0  0  0  0  0
   -8.1476   19.6359  -30.8903 H   0  0  0  0  0  0  0  0  0  0  0  0
   -8.6649   20.6800  -33.6269 H   0  0  0  0  0  0  0  0  0  0  0  0
  -10.0836   20.0158  -32.6284 H   0  0  0  0  0  0  0  0  0  0  0  0
  -10.2644   22.1173  -32.2064 H   0  0  0  0  0  0  0  0  0  0  0  0
   -7.5672   22.5058  -33.0865 H   0  0  0  0  0  0  0  0  0  0  0  0
   -8.7632   23.7765  -32.7363 H   0  0  0  0  0  0  0  0  0  0  0  0
   -6.3733   23.2202  -31.2751 H   0  0  0  0  0  0  0  0  0  0  0  0
   -7.6766   24.3234  -30.7716 H   0  0  0  0  0  0  0  0  0  0  0  0
   -7.0810   21.5186  -29.8827 H   0  0  0  0  0  0  0  0  0  0  0  0
   -7.8991   22.8166  -28.9930 H   0  0  0  0  0  0  0  0  0  0  0  0
   -9.2393   20.6701  -30.0555 H   0  0  0  0  0  0  0  0  0  0  0  0
  -10.0100   22.2591  -29.8939 H   0  0  0  0  0  0  0  0  0  0  0  0
   -6.2462   21.3077  -31.4172 H   0  0  0  0  0  0  0  0  0  0  0  0
   -2.6372   22.1894  -29.7407 H   0  0  0  0  0  0  0  0  0  0  0  0
   -1.6969   23.0616  -31.0171 H   0  0  0  0  0  0  0  0  0  0  0  0
  1  2  1  0
  2  3  2  0
  2  4  1  0
  4  5  2  0
  5  6  1  0
  6  7  2  0
  7  8  1  0
  8  9  2  0
  9 10  1  0
 10 11  1  0
 11 12  1  0
 12 13  1  0
 13 14  1  0
 14 15  1  0
 15 16  1  0
  9 17  1  0
 17 18  2  0
 18 19  1  0
 19 20  1  0
 20 21  2  0
 20 22  1  0
 22 23  1  0
 23 24  2  0
 23 25  1  0
 23 26  1  0
 19  4  1  0
 18  6  1  0
 16 12  1  0
  1 27  1  0
  5 28  1  0
  7 29  1  0
  8 30  1  0
 10 31  1  0
 10 32  1  0
 11 33  1  0
 11 34  1  0
 12 35  1  0
 13 36  1  0
 13 37  1  0
 14 38  1  0
 14 39  1  0
 15 40  1  0
 15 41  1  0
 16 42  1  0
 16 43  1  0
 17 44  1  0
 22 45  1  0
 22 46  1  0
M  CHG  3   1  -1  25  -1  26  -1
M  END
>  <UniqueID>  (20) 
20

>  <SMILES>  (20) 
[NH-]C(=O)c1cc2ccc(CCC3CCCC3)cc2n1C(=O)CP(=O)([O-])[O-]

>  <Energy>  (20) 
81.1771231961881

>  <Genealogy>  (20) 
[NH-]C(=O)c1cc2ccc(CCC3CCCC3)cc2n1C(=O)CP(=O)([O-])[O-] (protonated)
[NH-]C(=O)c1cc2ccc(CCC3CCCC3)cc2n1C(=O)CP(=O)([O-])[O-] (3D coordinates assigned)
[NH-]C(=O)c1cc2ccc(CCC3CCCC3)cc2n1C(=O)CP(=O)([O-])[O-] (nonaromatic ring conformer: 81.1771231961881 kcal/mol)

>  <smiles>  (20) 
NC(=O)c1cc2ccc(CCC3CCCC3)cc2n1C(=O)CP(=O)(O)O

>  <score_type>  (20) 
oracle

>  <origin>  (20) 
adg

>  <m_score__min__energy>  (20) 
-14.66

>  <m_primary>  (20) 
energy

$$$$
20:0
     RDKit          3D

 39 40  0  0  0  0  0  0  0  0999 V2000
   -3.1010   20.5490  -29.5890 C   0  0  0  0  0  0  0  0  0  0  0  0
   -3.2580   22.0010  -29.7480 N   0  0  0  0  0  0  0  0  0  0  0  0
   -3.9590   22.4700  -30.9300 C   0  0  0  0  0  0  0  0  0  0  0  0
   -3.3100   22.7290  -31.9810 O   0  0  0  0  0  0  0  0  0  0  0  0
   -5.3780   22.6680  -30.9420 N   0  0  0  0  0  0  0  0  0  0  0  0
   -6.0650   23.8390  -30.7880 C   0  0  0  0  0  0  0  0  0  0  0  0
   -5.5080   25.1840  -30.4750 C   0  0  0  0  0  0  0  0  0  0  0  0
   -4.1950   25.6030  -30.8590 N   0  0  0  0  0  0  0  0  0  0  0  0
   -6.2270   25.9960  -29.8340 O   0  0  0  0  0  0  0  0  0  0  0  0
   -7.4170   23.6390  -31.0630 C   0  0  0  0  0  0  0  0  0  0  0  0
   -7.5290   22.3240  -31.4440 C   0  0  0  0  0  0  0  0  0  0  0  0
   -8.6370   21.6120  -31.8950 C   0  0  0  0  0  0  0  0  0  0  0  0
   -8.4410   20.2830  -32.3050 C   0  0  0  0  0  0  0  0  0  0  0  0
   -7.1480   19.6990  -32.2780 C   0  0  0  0  0  0  0  0  0  0  0  0
   -6.9580   18.2780  -32.7260 C   0  0  0  0  0  0  0  0  0  0  0  0
   -6.4610   17.5190  -31.6820 F   0  0  0  0  0  0  0  0  0  0  0  0
   -6.0670   18.2410  -33.7830 F   0  0  0  0  0  0  0  0  0  0  0  0
   -6.0480   20.4610  -31.8280 C   0  0  0  0  0  0  0  0  0  0  0  0
   -6.2810   21.7700  -31.3870 C   0  0  0  0  0  0  0  0  0  0  0  0
   -2.7080   22.8970  -28.7020 C   0  0  1  0  0  0  0  0  0  0  0  0
   -1.9900   22.1030  -27.5930 C   0  0  0  0  0  0  0  0  0  0  0  0
   -0.7250   21.6760  -28.0310 O   0  0  0  0  0  0  0  0  0  0  0  0
   -1.8590   23.9870  -29.3040 C   0  0  0  0  0  0  0  0  0  0  0  0
   -0.7210   23.7020  -29.7670 O   0  0  0  0  0  0  0  0  0  0  0  0
   -2.3240   25.2960  -29.4000 O   0  0  0  0  0  0  0  0  0  0  0  0
   -3.0739   20.2982  -28.5183 H   0  0  0  0  0  0  0  0  0  0  0  0
   -3.9487   20.0343  -30.0648 H   0  0  0  0  0  0  0  0  0  0  0  0
   -2.1628   20.2274  -30.0648 H   0  0  0  0  0  0  0  0  0  0  0  0
   -3.8900   26.5750  -30.6330 H   0  0  0  0  0  0  0  0  0  0  0  0
   -3.4720   24.9530  -31.2260 H   0  0  0  0  0  0  0  0  0  0  0  0
   -8.2263   24.3805  -30.9900 H   0  0  0  0  0  0  0  0  0  0  0  0
   -9.6340   22.0754  -31.9292 H   0  0  0  0  0  0  0  0  0  0  0  0
   -9.2993   19.6883  -32.6509 H   0  0  0  0  0  0  0  0  0  0  0  0
   -7.9277   17.8683  -33.0452 H   0  0  0  0  0  0  0  0  0  0  0  0
   -5.0329   20.0372  -31.8238 H   0  0  0  0  0  0  0  0  0  0  0  0
   -3.5506   23.4039  -28.2089 H   0  0  0  0  0  0  0  0  0  0  0  0
   -1.8685   22.7459  -26.7088 H   0  0  0  0  0  0  0  0  0  0  0  0
   -2.5949   21.2196  -27.3406 H   0  0  0  0  0  0  0  0  0  0  0  0
   -0.4420   22.3110  -28.7440 H   0  0  0  0  0  0  0  0  0  0  0  0
  1  2  1  0
  2  3  1  0
  3  4  2  0
  3  5  1  0
  5  6  1  0
  6  7  1  0
  7  8  1  0
  7  9  2  0
  6 10  2  0
 10 11  1  0
 11 12  2  0
 12 13  1  0
 13 14  2  0
 14 15  1  0
 15 16  1  0
 15 17  1  0
 14 18  1  0
 18 19  2  0
  2 20  1  0
 20 21  1  0
 21 22  1  0
 20 23  1  0
 23 24  2  0
 23 25  1  0
 19  5  1  0
 19 11  1  0
  1 26  1  0
  1 27  1  0
  1 28  1  0
  8 29  1  0
  8 30  1  0
 10 31  1  0
 12 32  1  0
 13 33  1  0
 15 34  1  0
 18 35  1  0
 20 36  1  1
 21 37  1  0
 21 38  1  0
 22 39  1  0
M  CHG  1  25  -1
M  END
>  <UniqueID>  (21) 
21

>  <SMILES>  (21) 
CN(C(=O)n1c(C(N)=O)cc2ccc(C(F)F)cc21)[C@@H](CO)C(=O)[O-]

>  <Energy>  (21) 
81.80550507716262

>  <Genealogy>  (21) 
CN(C(=O)n1c(C(N)=O)cc2ccc(C(F)F)cc21)[C@@H](CO)C(=O)[O-] (protonated)
CN(C(=O)n1c(C(N)=O)cc2ccc(C(F)F)cc21)[C@@H](CO)C(=O)[O-] (3D coordinates assigned)
CN(C(=O)n1c(C(N)=O)cc2ccc(C(F)F)cc21)[C@@H](CO)C(=O)[O-] (optimized conformer: 81.80550507716262 kcal/mol)

>  <smiles>  (21) 
CN(C(=O)n1c(C(N)=O)cc2ccc(C(F)F)cc21)[C@@H](CO)C(=O)O

>  <score_type>  (21) 
oracle

>  <origin>  (21) 
adg

>  <m_score__min__energy>  (21) 
-10.02

>  <m_primary>  (21) 
energy

$$$$
21:0
     RDKit          3D

 46 47  0  0  0  0  0  0  0  0999 V2000
   -6.1510   16.9720  -31.6660 C   0  0  0  0  0  0  0  0  0  0  0  0
   -5.1260   16.4960  -32.6000 N   0  0  0  0  0  0  0  0  0  0  0  0
   -4.4220   17.4440  -33.4720 C   0  0  0  0  0  0  0  0  0  0  0  0
   -5.4270   18.3160  -34.2290 C   0  0  0  0  0  0  0  0  0  0  0  0
   -5.7680   19.5420  -33.4270 C   0  0  0  0  0  0  0  0  0  0  0  0
   -7.0830   20.0690  -33.4550 C   0  0  0  0  0  0  0  0  0  0  0  0
   -7.4000   21.2380  -32.7440 C   0  0  0  0  0  0  0  0  0  0  0  0
   -6.3790   21.8680  -32.0370 C   0  0  0  0  0  0  0  0  0  0  0  0
   -6.4090   23.0080  -31.2680 C   0  0  0  0  0  0  0  0  0  0  0  0
   -5.1040   23.1800  -30.8100 C   0  0  0  0  0  0  0  0  0  0  0  0
   -4.6690   24.3340  -29.9940 C   0  0  0  0  0  0  0  0  0  0  0  0
   -3.8310   25.3350  -30.5700 N   0  0  0  0  0  0  0  0  0  0  0  0
   -5.0080   24.4360  -28.7860 O   0  0  0  0  0  0  0  0  0  0  0  0
   -4.2980   22.1850  -31.2770 N   0  0  0  0  0  0  0  0  0  0  0  0
   -2.8980   21.9970  -31.0040 C   0  0  0  0  0  0  0  0  0  0  0  0
   -2.1980   21.3100  -31.7940 O   0  0  0  0  0  0  0  0  0  0  0  0
   -2.2390   22.6300  -29.8140 C   0  0  0  0  0  0  0  0  0  0  0  0
   -1.3440   23.6320  -30.2380 O   0  0  0  0  0  0  0  0  0  0  0  0
   -0.9920   24.6400  -28.9100 P   0  0  0  0  0  0  0  0  0  0  0  0
   -1.8870   24.2890  -27.7420 O   0  0  0  0  0  0  0  0  0  0  0  0
    0.6200   24.4070  -28.4570 O   0  0  0  0  0  0  0  0  0  0  0  0
   -1.2180   26.2640  -29.3280 O   0  0  0  0  0  0  0  0  0  0  0  0
   -5.0960   21.3870  -32.0220 C   0  0  0  0  0  0  0  0  0  0  0  0
   -4.7590   20.2090  -32.6990 C   0  0  0  0  0  0  0  0  0  0  0  0
   -4.8130   15.0920  -32.6590 C   0  0  0  0  0  0  0  0  0  0  0  0
   -4.4020   14.5800  -33.7360 O   0  0  0  0  0  0  0  0  0  0  0  0
   -4.9670   14.2960  -31.5170 O   0  0  0  0  0  0  0  0  0  0  0  0
   -4.1220   13.1860  -31.2320 C   0  0  0  0  0  0  0  0  0  0  0  0
   -2.8180   13.4700  -31.6500 O   0  0  0  0  0  0  0  0  0  0  0  0
   -5.8081   16.8128  -30.6330 H   0  0  0  0  0  0  0  0  0  0  0  0
   -6.3287   18.0448  -31.8321 H   0  0  0  0  0  0  0  0  0  0  0  0
   -7.0852   16.4156  -31.8321 H   0  0  0  0  0  0  0  0  0  0  0  0
   -3.7725   18.0869  -32.8597 H   0  0  0  0  0  0  0  0  0  0  0  0
   -3.8177   16.8812  -34.1987 H   0  0  0  0  0  0  0  0  0  0  0  0
   -4.9888   18.6223  -35.1903 H   0  0  0  0  0  0  0  0  0  0  0  0
   -6.3454   17.7350  -34.3995 H   0  0  0  0  0  0  0  0  0  0  0  0
   -7.8627   19.5579  -34.0389 H   0  0  0  0  0  0  0  0  0  0  0  0
   -8.4227   21.6432  -32.7456 H   0  0  0  0  0  0  0  0  0  0  0  0
   -7.2787   23.6482  -31.0588 H   0  0  0  0  0  0  0  0  0  0  0  0
   -2.7950   25.2980  -30.4540 H   0  0  0  0  0  0  0  0  0  0  0  0
   -3.0075   23.0776  -29.1666 H   0  0  0  0  0  0  0  0  0  0  0  0
   -1.6842   21.8615  -29.2559 H   0  0  0  0  0  0  0  0  0  0  0  0
   -3.7334   19.8129  -32.6646 H   0  0  0  0  0  0  0  0  0  0  0  0
   -4.1253   12.9918  -30.1493 H   0  0  0  0  0  0  0  0  0  0  0  0
   -4.4919   12.2985  -31.7663 H   0  0  0  0  0  0  0  0  0  0  0  0
   -2.8540   13.5440  -32.6390 H   0  0  0  0  0  0  0  0  0  0  0  0
  1  2  1  0
  2  3  1  0
  3  4  1  0
  4  5  1  0
  5  6  2  0
  6  7  1  0
  7  8  2  0
  8  9  1  0
  9 10  2  0
 10 11  1  0
 11 12  1  0
 11 13  2  0
 10 14  1  0
 14 15  1  0
 15 16  2  0
 15 17  1  0
 17 18  1  0
 18 19  1  0
 19 20  2  0
 19 21  1  0
 19 22  1  0
 14 23  1  0
 23 24  2  0
  2 25  1  0
 25 26  2  0
 25 27  1  0
 27 28  1  0
 28 29  1  0
 24  5  1  0
 23  8  1  0
  1 30  1  0
  1 31  1  0
  1 32  1  0
  3 33  1  0
  3 34  1  0
  4 35  1  0
  4 36  1  0
  6 37  1  0
  7 38  1  0
  9 39  1  0
 12 40  1  0
 17 41  1  0
 17 42  1  0
 24 43  1  0
 28 44  1  0
 28 45  1  0
 29 46  1  0
M  CHG  3  12  -1  21  -1  22  -1
M  END
>  <UniqueID>  (22) 
22

>  <SMILES>  (22) 
CN(CCc1ccc2cc(C([NH-])=O)n(C(=O)COP(=O)([O-])[O-])c2c1)C(=O)OCO

>  <Energy>  (22) 
73.83605243978776

>  <Genealogy>  (22) 
CN(CCc1ccc2cc(C([NH-])=O)n(C(=O)COP(=O)([O-])[O-])c2c1)C(=O)OCO (protonated)
CN(CCc1ccc2cc(C([NH-])=O)n(C(=O)COP(=O)([O-])[O-])c2c1)C(=O)OCO (3D coordinates assigned)
CN(CCc1ccc2cc(C([NH-])=O)n(C(=O)COP(=O)([O-])[O-])c2c1)C(=O)OCO (optimized conformer: 73.83605243978776 kcal/mol)

>  <smiles>  (22) 
CN(CCc1ccc2cc(C(N)=O)n(C(=O)COP(=O)(O)O)c2c1)C(=O)OCO

>  <score_type>  (22) 
oracle

>  <origin>  (22) 
adg

>  <m_score__min__energy>  (22) 
-13.390000000000001

>  <m_primary>  (22) 
energy

$$$$
22:0
     RDKit          3D

 36 37  0  0  0  0  0  0  0  0999 V2000
   -3.2090   24.9690  -30.9920 H   0  0  0  0  0  0  0  0  0  0  0  0
   -3.9750   25.6610  -30.8360 N   0  0  0  0  0  0  0  0  0  0  0  0
   -5.3130   25.2310  -30.6000 C   0  0  0  0  0  0  0  0  0  0  0  0
   -6.1250   26.0150  -30.0400 O   0  0  0  0  0  0  0  0  0  0  0  0
   -5.7210   23.8600  -30.9710 C   0  0  0  0  0  0  0  0  0  0  0  0
   -6.9960   23.5390  -31.4310 C   0  0  0  0  0  0  0  0  0  0  0  0
   -7.8663   24.2076  -31.5052 H   0  0  0  0  0  0  0  0  0  0  0  0
   -6.9350   22.2070  -31.7730 C   0  0  0  0  0  0  0  0  0  0  0  0
   -7.9230   21.3650  -32.2750 C   0  0  0  0  0  0  0  0  0  0  0  0
   -8.9362   21.7403  -32.4815 H   0  0  0  0  0  0  0  0  0  0  0  0
   -7.5870   20.0210  -32.5100 C   0  0  0  0  0  0  0  0  0  0  0  0
   -8.3472   19.3294  -32.9022 H   0  0  0  0  0  0  0  0  0  0  0  0
   -6.2770   19.5490  -32.2460 C   0  0  0  0  0  0  0  0  0  0  0  0
   -5.9430   18.0980  -32.4500 C   0  0  0  0  0  0  0  0  0  0  0  0
   -6.5858   17.4817  -31.8042 H   0  0  0  0  0  0  0  0  0  0  0  0
   -4.8867   17.9305  -32.1929 H   0  0  0  0  0  0  0  0  0  0  0  0
   -6.1670   17.7190  -33.8780 C   0  0  0  0  0  0  0  0  0  0  0  0
   -5.8630   18.5270  -34.7970 O   0  0  0  0  0  0  0  0  0  0  0  0
   -6.6690   16.4490  -34.1800 O   0  0  0  0  0  0  0  0  0  0  0  0
   -5.9440   15.2560  -33.9090 C   0  0  0  0  0  0  0  0  0  0  0  0
   -5.8597   15.1173  -32.8210 H   0  0  0  0  0  0  0  0  0  0  0  0
   -6.4733   14.3975  -34.3482 H   0  0  0  0  0  0  0  0  0  0  0  0
   -4.9382   15.3304  -34.3482 H   0  0  0  0  0  0  0  0  0  0  0  0
   -5.3030   20.4310  -31.7280 C   0  0  0  0  0  0  0  0  0  0  0  0
   -4.2870   20.0776  -31.4980 H   0  0  0  0  0  0  0  0  0  0  0  0
   -5.6640   21.7660  -31.5150 C   0  0  0  0  0  0  0  0  0  0  0  0
   -4.9090   22.7640  -31.0060 N   0  0  0  0  0  0  0  0  0  0  0  0
   -3.5370   22.6560  -30.5830 C   0  0  0  0  0  0  0  0  0  0  0  0
   -2.6170   22.8100  -31.4300 O   0  0  0  0  0  0  0  0  0  0  0  0
   -3.1610   22.4300  -29.1710 C   0  0  0  0  0  0  0  0  0  0  0  0
   -3.7442   21.6844  -28.6106 H   0  0  0  0  0  0  0  0  0  0  0  0
   -2.1720   23.0530  -28.5120 C   0  0  0  0  0  0  0  0  0  0  0  0
   -1.8964   22.6517  -27.5256 H   0  0  0  0  0  0  0  0  0  0  0  0
   -1.4230   24.2260  -28.9920 C   0  0  0  0  0  0  0  0  0  0  0  0
   -2.0090   25.2980  -29.2970 O   0  0  0  0  0  0  0  0  0  0  0  0
   -0.0350   24.1810  -29.0190 O   0  0  0  0  0  0  0  0  0  0  0  0
  1  2  1  0
  2  3  1  0
  3  4  2  0
  3  5  1  0
  5  6  2  0
  6  7  1  0
  6  8  1  0
  8  9  2  0
  9 10  1  0
  9 11  1  0
 11 12  1  0
 11 13  2  0
 13 14  1  0
 14 15  1  0
 14 16  1  0
 14 17  1  0
 17 18  2  0
 17 19  1  0
 19 20  1  0
 20 21  1  0
 20 22  1  0
 20 23  1  0
 13 24  1  0
 24 25  1  0
 24 26  2  0
 26 27  1  0
 27 28  1  0
 28 29  2  0
 28 30  1  0
 30 31  1  0
 30 32  2  0
 32 33  1  0
 32 34  1  0
 34 35  2  0
 34 36  1  0
 27  5  1  0
 26  8  1  0
M  CHG  2   2  -1  36  -1
M  END
>  <UniqueID>  (23) 
23

>  <SMILES>  (23) 
COC(=O)Cc1ccc2cc(C([NH-])=O)n(C(=O)/C=C\C(=O)[O-])c2c1

>  <Energy>  (23) 
77.00259319664151

>  <Genealogy>  (23) 
COC(=O)Cc1ccc2cc(C([NH-])=O)n(C(=O)/C=C\C(=O)[O-])c2c1 (protonated)
COC(=O)Cc1ccc2cc(C([NH-])=O)n(C(=O)/C=C\C(=O)[O-])c2c1 (cis-trans isomerization)
COC(=O)Cc1ccc2cc(C([NH-])=O)n(C(=O)/C=C\C(=O)[O-])c2c1 (3D coordinates assigned)
COC(=O)Cc1ccc2cc(C([NH-])=O)n(C(=O)/C=C\C(=O)[O-])c2c1 (optimized conformer: 77.00259319664151 kcal/mol)

>  <smiles>  (23) 
COC(=O)Cc1ccc2cc(C(N)=O)n(C(=O)/C=C\C(=O)O)c2c1

>  <score_type>  (23) 
oracle

>  <origin>  (23) 
adg

>  <m_score__min__energy>  (23) 
-12.01

>  <m_primary>  (23) 
energy

$$$$
23:0
     RDKit          3D

 44 45  0  0  0  0  0  0  0  0999 V2000
   -1.0440   22.3160  -26.3310 C   0  0  0  0  0  0  0  0  0  0  0  0
   -1.8580   23.1170  -27.2490 N   0  0  0  0  0  0  0  0  0  0  0  0
   -2.0130   24.5620  -27.0350 C   0  0  0  0  0  0  0  0  0  0  0  0
   -1.4600   25.3490  -28.2220 C   0  0  0  0  0  0  0  0  0  0  0  0
   -2.3560   25.2810  -29.2960 O   0  0  0  0  0  0  0  0  0  0  0  0
   -2.4830   22.4830  -28.3810 C   0  0  0  0  0  0  0  0  0  0  0  0
   -3.6260   21.9630  -28.2590 O   0  0  0  0  0  0  0  0  0  0  0  0
   -1.8230   22.4510  -29.6150 O   0  0  0  0  0  0  0  0  0  0  0  0
   -1.9200   21.3690  -30.5370 C   0  0  0  0  0  0  0  0  0  0  0  0
   -3.0930   21.5120  -31.3370 O   0  0  0  0  0  0  0  0  0  0  0  0
   -3.9310   22.6330  -31.3130 C   0  0  0  0  0  0  0  0  0  0  0  0
   -3.4290   23.7880  -31.2640 O   0  0  0  0  0  0  0  0  0  0  0  0
   -5.3650   22.4640  -31.3050 N   0  0  0  0  0  0  0  0  0  0  0  0
   -6.2800   23.2020  -30.6110 C   0  0  0  0  0  0  0  0  0  0  0  0
   -6.0030   24.4310  -29.8490 C   0  0  0  0  0  0  0  0  0  0  0  0
   -4.7700   24.5960  -29.1510 N   0  0  0  0  0  0  0  0  0  0  0  0
   -6.8350   25.3780  -29.8760 O   0  0  0  0  0  0  0  0  0  0  0  0
   -7.5410   22.6250  -30.6760 C   0  0  0  0  0  0  0  0  0  0  0  0
   -7.3870   21.5110  -31.4640 C   0  0  0  0  0  0  0  0  0  0  0  0
   -8.3320   20.5800  -31.8810 C   0  0  0  0  0  0  0  0  0  0  0  0
   -7.9060   19.5350  -32.7140 C   0  0  0  0  0  0  0  0  0  0  0  0
   -6.5490   19.4300  -33.1090 C   0  0  0  0  0  0  0  0  0  0  0  0
   -6.1200   18.3450  -34.0650 C   0  0  0  0  0  0  0  0  0  0  0  0
   -6.1230   18.8480  -35.3530 F   0  0  0  0  0  0  0  0  0  0  0  0
   -4.8470   17.8960  -33.7580 F   0  0  0  0  0  0  0  0  0  0  0  0
   -6.9870   17.2670  -34.0000 F   0  0  0  0  0  0  0  0  0  0  0  0
   -5.6210   20.4090  -32.6820 C   0  0  0  0  0  0  0  0  0  0  0  0
   -6.0680   21.4330  -31.8340 C   0  0  0  0  0  0  0  0  0  0  0  0
   -1.3034   22.5713  -25.2930 H   0  0  0  0  0  0  0  0  0  0  0  0
   -1.2387   21.2475  -26.5054 H   0  0  0  0  0  0  0  0  0  0  0  0
    0.0212   22.5279  -26.5054 H   0  0  0  0  0  0  0  0  0  0  0  0
   -3.0809   24.7960  -26.9133 H   0  0  0  0  0  0  0  0  0  0  0  0
   -1.4532   24.8466  -26.1319 H   0  0  0  0  0  0  0  0  0  0  0  0
   -1.3198   26.4001  -27.9296 H   0  0  0  0  0  0  0  0  0  0  0  0
   -0.4954   24.9167  -28.5263 H   0  0  0  0  0  0  0  0  0  0  0  0
   -2.0110   24.5710  -29.8980 H   0  0  0  0  0  0  0  0  0  0  0  0
   -1.0334   21.3649  -31.1882 H   0  0  0  0  0  0  0  0  0  0  0  0
   -1.9775   20.4232  -29.9784 H   0  0  0  0  0  0  0  0  0  0  0  0
   -4.0150   23.8790  -29.2260 H   0  0  0  0  0  0  0  0  0  0  0  0
   -4.5860   25.4670  -28.6060 H   0  0  0  0  0  0  0  0  0  0  0  0
   -8.4651   22.9832  -30.1988 H   0  0  0  0  0  0  0  0  0  0  0  0
   -9.3831   20.6607  -31.5667 H   0  0  0  0  0  0  0  0  0  0  0  0
   -8.6336   18.7883  -33.0648 H   0  0  0  0  0  0  0  0  0  0  0  0
   -4.5713   20.3679  -33.0081 H   0  0  0  0  0  0  0  0  0  0  0  0
  1  2  1  0
  2  3  1  0
  3  4  1  0
  4  5  1  0
  2  6  1  0
  6  7  2  0
  6  8  1  0
  8  9  1  0
  9 10  1  0
 10 11  1  0
 11 12  2  0
 11 13  1  0
 13 14  1  0
 14 15  1  0
 15 16  1  0
 15 17  2  0
 14 18  2  0
 18 19  1  0
 19 20  2  0
 20 21  1  0
 21 22  2  0
 22 23  1  0
 23 24  1  0
 23 25  1  0
 23 26  1  0
 22 27  1  0
 27 28  2  0
 28 13  1  0
 28 19  1  0
  1 29  1  0
  1 30  1  0
  1 31  1  0
  3 32  1  0
  3 33  1  0
  4 34  1  0
  4 35  1  0
  5 36  1  0
  9 37  1  0
  9 38  1  0
 16 39  1  0
 16 40  1  0
 18 41  1  0
 20 42  1  0
 21 43  1  0
 27 44  1  0
M  END
>  <UniqueID>  (24) 
24

>  <SMILES>  (24) 
CN(CCO)C(=O)OCOC(=O)n1c(C(N)=O)cc2ccc(C(F)(F)F)cc21

>  <Energy>  (24) 
80.1974422414342

>  <Genealogy>  (24) 
CN(CCO)C(=O)OCOC(=O)n1c(C(N)=O)cc2ccc(C(F)(F)F)cc21 (3D coordinates assigned)
CN(CCO)C(=O)OCOC(=O)n1c(C(N)=O)cc2ccc(C(F)(F)F)cc21 (optimized conformer: 80.1974422414342 kcal/mol)

>  <smiles>  (24) 
CN(CCO)C(=O)OCOC(=O)n1c(C(N)=O)cc2ccc(C(F)(F)F)cc21

>  <score_type>  (24) 
oracle

>  <origin>  (24) 
adg

>  <m_score__min__energy>  (24) 
-7.5499999999999998

>  <m_primary>  (24) 
energy

$$$$
24:0
     RDKit          3D

 41 42  0  0  0  0  0  0  0  0999 V2000
   -6.3080   16.6820  -32.9280 C   0  0  0  0  0  0  0  0  0  0  0  0
   -5.3950   17.7130  -32.4490 N   0  0  0  0  0  0  0  0  0  0  0  0
   -5.7410   19.1090  -32.3670 C   0  0  0  0  0  0  0  0  0  0  0  0
   -6.9280   19.6150  -32.9660 C   0  0  0  0  0  0  0  0  0  0  0  0
   -7.2560   20.9770  -32.8640 C   0  0  0  0  0  0  0  0  0  0  0  0
   -6.3850   21.8100  -32.1700 C   0  0  0  0  0  0  0  0  0  0  0  0
   -6.4750   23.1560  -31.9000 C   0  0  0  0  0  0  0  0  0  0  0  0
   -5.3350   23.4620  -31.1580 C   0  0  0  0  0  0  0  0  0  0  0  0
   -4.9740   24.8290  -30.7230 C   0  0  0  0  0  0  0  0  0  0  0  0
   -3.7100   25.0910  -30.1110 N   0  0  0  0  0  0  0  0  0  0  0  0
   -5.7960   25.7740  -30.8630 O   0  0  0  0  0  0  0  0  0  0  0  0
   -4.5720   22.3480  -30.9780 N   0  0  0  0  0  0  0  0  0  0  0  0
   -3.3630   22.2320  -30.2100 C   0  0  0  0  0  0  0  0  0  0  0  0
   -3.3390   21.5090  -29.1760 O   0  0  0  0  0  0  0  0  0  0  0  0
   -2.2180   22.9350  -30.6070 O   0  0  0  0  0  0  0  0  0  0  0  0
   -0.9370   22.7440  -30.0130 C   0  0  0  0  0  0  0  0  0  0  0  0
   -0.5010   23.9890  -29.3070 C   0  0  0  0  0  0  0  0  0  0  0  0
    0.6970   24.1070  -28.9330 O   0  0  0  0  0  0  0  0  0  0  0  0
   -1.4360   25.0530  -29.1020 N   0  0  0  0  0  0  0  0  0  0  0  0
   -1.7530   25.6080  -27.7910 C   0  0  0  0  0  0  0  0  0  0  0  0
   -2.6420   24.6460  -27.0010 C   0  0  0  0  0  0  0  0  0  0  0  0
   -3.3870   23.8460  -27.8790 O   0  0  0  0  0  0  0  0  0  0  0  0
   -5.2280   21.3440  -31.6020 C   0  0  0  0  0  0  0  0  0  0  0  0
   -4.8840   19.9890  -31.6710 C   0  0  0  0  0  0  0  0  0  0  0  0
   -6.7635   16.1677  -32.0689 H   0  0  0  0  0  0  0  0  0  0  0  0
   -7.0971   17.1457  -33.5382 H   0  0  0  0  0  0  0  0  0  0  0  0
   -5.7523   15.9548  -33.5382 H   0  0  0  0  0  0  0  0  0  0  0  0
   -4.4390   17.4120  -32.1510 H   0  0  0  0  0  0  0  0  0  0  0  0
   -7.5951   18.9334  -33.5141 H   0  0  0  0  0  0  0  0  0  0  0  0
   -8.1753   21.3733  -33.3199 H   0  0  0  0  0  0  0  0  0  0  0  0
   -7.2766   23.8448  -32.2049 H   0  0  0  0  0  0  0  0  0  0  0  0
   -3.4810   26.0520  -29.7720 H   0  0  0  0  0  0  0  0  0  0  0  0
   -2.9830   24.3460  -30.0270 H   0  0  0  0  0  0  0  0  0  0  0  0
   -0.9921   21.9171  -29.2897 H   0  0  0  0  0  0  0  0  0  0  0  0
   -0.2085   22.5065  -30.8022 H   0  0  0  0  0  0  0  0  0  0  0  0
   -0.8194   25.7774  -27.2345 H   0  0  0  0  0  0  0  0  0  0  0  0
   -2.2912   26.5575  -27.9280 H   0  0  0  0  0  0  0  0  0  0  0  0
   -2.0110   24.0030  -26.3698 H   0  0  0  0  0  0  0  0  0  0  0  0
   -3.3315   25.2280  -26.3719 H   0  0  0  0  0  0  0  0  0  0  0  0
   -2.7510   23.5010  -28.5590 H   0  0  0  0  0  0  0  0  0  0  0  0
   -3.9655   19.6176  -31.1931 H   0  0  0  0  0  0  0  0  0  0  0  0
  1  2  1  0
  2  3  1  0
  3  4  2  0
  4  5  1  0
  5  6  2  0
  6  7  1  0
  7  8  2  0
  8  9  1  0
  9 10  1  0
  9 11  2  0
  8 12  1  0
 12 13  1  0
 13 14  2  0
 13 15  1  0
 15 16  1  0
 16 17  1  0
 17 18  2  0
 17 19  1  0
 19 20  1  0
 20 21  1  0
 21 22  1  0
 12 23  1  0
 23 24  2  0
 24  3  1  0
 23  6  1  0
  1 25  1  0
  1 26  1  0
  1 27  1  0
  2 28  1  0
  4 29  1  0
  5 30  1  0
  7 31  1  0
 10 32  1  0
 10 33  1  0
 16 34  1  0
 16 35  1  0
 20 36  1  0
 20 37  1  0
 21 38  1  0
 21 39  1  0
 22 40  1  0
 24 41  1  0
M  CHG  1  19  -1
M  END
>  <UniqueID>  (25) 
25

>  <SMILES>  (25) 
CNc1ccc2cc(C(N)=O)n(C(=O)OCC(=O)[N-]CCO)c2c1

>  <Energy>  (25) 
71.30571663649987

>  <Genealogy>  (25) 
CNc1ccc2cc(C(N)=O)n(C(=O)OCC(=O)[N-]CCO)c2c1 (protonated)
CNc1ccc2cc(C(N)=O)n(C(=O)OCC(=O)[N-]CCO)c2c1 (3D coordinates assigned)
CNc1ccc2cc(C(N)=O)n(C(=O)OCC(=O)[N-]CCO)c2c1 (optimized conformer: 71.30571663649987 kcal/mol)

>  <smiles>  (25) 
CNc1ccc2cc(C(N)=O)n(C(=O)OCC(=O)NCCO)c2c1

>  <score_type>  (25) 
oracle

>  <origin>  (25) 
adg

>  <m_score__min__energy>  (25) 
-9.2300000000000004

>  <m_primary>  (25) 
energy

$$$$
25:0
     RDKit          3D

 38 39  0  0  0  0  0  0  0  0999 V2000
   -6.8000   17.2200  -32.9880 C   0  0  0  0  0  0  0  0  0  0  0  0
   -6.9660   18.3710  -32.6680 C   0  0  0  0  0  0  0  0  0  0  0  0
   -7.1640   19.7430  -32.2840 C   0  0  0  0  0  0  0  0  0  0  0  0
   -8.4580   20.3130  -32.3400 C   0  0  0  0  0  0  0  0  0  0  0  0
   -8.6600   21.6580  -31.9840 C   0  0  0  0  0  0  0  0  0  0  0  0
   -7.5540   22.3930  -31.5620 C   0  0  0  0  0  0  0  0  0  0  0  0
   -7.4520   23.7190  -31.2060 C   0  0  0  0  0  0  0  0  0  0  0  0
   -6.1050   23.9180  -30.9050 C   0  0  0  0  0  0  0  0  0  0  0  0
   -5.5440   25.2210  -30.4880 C   0  0  0  0  0  0  0  0  0  0  0  0
   -4.2090   25.6040  -30.8240 N   0  0  0  0  0  0  0  0  0  0  0  0
   -6.2470   25.9980  -29.7880 O   0  0  0  0  0  0  0  0  0  0  0  0
   -5.4060   22.7610  -31.0660 N   0  0  0  0  0  0  0  0  0  0  0  0
   -3.9860   22.5720  -30.9670 C   0  0  0  0  0  0  0  0  0  0  0  0
   -3.2590   22.8940  -31.9460 O   0  0  0  0  0  0  0  0  0  0  0  0
   -3.3870   22.0210  -29.7720 N   0  0  0  0  0  0  0  0  0  0  0  0
   -3.1920   20.5670  -29.7090 C   0  0  0  0  0  0  0  0  0  0  0  0
   -2.8310   22.9120  -28.7300 C   0  0  1  0  0  0  0  0  0  0  0  0
   -2.0920   22.1190  -27.6330 C   0  0  0  0  0  0  0  0  0  0  0  0
   -0.8520   21.6640  -28.1070 O   0  0  0  0  0  0  0  0  0  0  0  0
   -1.9380   23.9520  -29.3530 C   0  0  0  0  0  0  0  0  0  0  0  0
   -0.8180   23.6210  -29.8220 O   0  0  0  0  0  0  0  0  0  0  0  0
   -2.3270   25.2860  -29.3970 O   0  0  0  0  0  0  0  0  0  0  0  0
   -6.3020   21.8420  -31.4810 C   0  0  0  0  0  0  0  0  0  0  0  0
   -6.0660   20.5180  -31.8610 C   0  0  0  0  0  0  0  0  0  0  0  0
   -6.6486   16.1703  -33.2798 H   0  0  0  0  0  0  0  0  0  0  0  0
   -9.3116   19.6996  -32.6643 H   0  0  0  0  0  0  0  0  0  0  0  0
   -9.6590   22.1154  -32.0369 H   0  0  0  0  0  0  0  0  0  0  0  0
   -8.2611   24.4633  -31.1672 H   0  0  0  0  0  0  0  0  0  0  0  0
   -3.8600   26.5550  -30.5700 H   0  0  0  0  0  0  0  0  0  0  0  0
   -3.5320   24.9220  -31.2270 H   0  0  0  0  0  0  0  0  0  0  0  0
   -3.1492   20.2480  -28.6571 H   0  0  0  0  0  0  0  0  0  0  0  0
   -4.0305   20.0625  -30.2113 H   0  0  0  0  0  0  0  0  0  0  0  0
   -2.2502   20.3013  -30.2113 H   0  0  0  0  0  0  0  0  0  0  0  0
   -3.6710   23.4255  -28.2394 H   0  0  0  0  0  0  0  0  0  0  0  0
   -1.9296   22.7710  -26.7620 H   0  0  0  0  0  0  0  0  0  0  0  0
   -2.7043   21.2509  -27.3476 H   0  0  0  0  0  0  0  0  0  0  0  0
   -0.6130   22.2400  -28.8790 H   0  0  0  0  0  0  0  0  0  0  0  0
   -5.0519   20.0930  -31.8307 H   0  0  0  0  0  0  0  0  0  0  0  0
  1  2  3  0
  2  3  1  0
  3  4  2  0
  4  5  1  0
  5  6  2  0
  6  7  1  0
  7  8  2  0
  8  9  1  0
  9 10  1  0
  9 11  2  0
  8 12  1  0
 12 13  1  0
 13 14  2  0
 13 15  1  0
 15 16  1  0
 15 17  1  0
 17 18  1  0
 18 19  1  0
 17 20  1  0
 20 21  2  0
 20 22  1  0
 12 23  1  0
 23 24  2  0
 24  3  1  0
 23  6  1  0
  1 25  1  0
  4 26  1  0
  5 27  1  0
  7 28  1  0
 10 29  1  0
 10 30  1  0
 16 31  1  0
 16 32  1  0
 16 33  1  0
 17 34  1  1
 18 35  1  0
 18 36  1  0
 19 37  1  0
 24 38  1  0
M  CHG  1  22  -1
M  END
>  <UniqueID>  (26) 
26

>  <SMILES>  (26) 
C#Cc1ccc2cc(C(N)=O)n(C(=O)N(C)[C@@H](CO)C(=O)[O-])c2c1

>  <Energy>  (26) 
75.01260426878237

>  <Genealogy>  (26) 
C#Cc1ccc2cc(C(N)=O)n(C(=O)N(C)[C@@H](CO)C(=O)[O-])c2c1 (protonated)
C#Cc1ccc2cc(C(N)=O)n(C(=O)N(C)[C@@H](CO)C(=O)[O-])c2c1 (3D coordinates assigned)
C#Cc1ccc2cc(C(N)=O)n(C(=O)N(C)[C@@H](CO)C(=O)[O-])c2c1 (optimized conformer: 75.01260426878237 kcal/mol)

>  <smiles>  (26) 
C#Cc1ccc2cc(C(N)=O)n(C(=O)N(C)[C@@H](CO)C(=O)O)c2c1

>  <score_type>  (26) 
oracle

>  <origin>  (26) 
adg

>  <m_score__min__energy>  (26) 
-10.720000000000001

>  <m_primary>  (26) 
energy

$$$$
26:0
     RDKit          3D

 38 39  0  0  0  0  0  0  0  0999 V2000
   -5.7250   18.3230  -34.4400 C   0  0  0  0  0  0  0  0  0  0  0  0
   -6.2050   18.2250  -32.9950 C   0  0  0  0  0  0  0  0  0  0  0  0
   -7.2490   17.3170  -32.9260 F   0  0  0  0  0  0  0  0  0  0  0  0
   -5.1730   17.7460  -32.2040 F   0  0  0  0  0  0  0  0  0  0  0  0
   -6.6540   19.5830  -32.5010 C   0  0  0  0  0  0  0  0  0  0  0  0
   -7.9700   20.0430  -32.7630 C   0  0  0  0  0  0  0  0  0  0  0  0
   -8.3860   21.3140  -32.3350 C   0  0  0  0  0  0  0  0  0  0  0  0
   -7.4600   22.1160  -31.6760 C   0  0  0  0  0  0  0  0  0  0  0  0
   -7.6050   23.3740  -31.1370 C   0  0  0  0  0  0  0  0  0  0  0  0
   -6.3600   23.6900  -30.6030 C   0  0  0  0  0  0  0  0  0  0  0  0
   -6.0510   24.9890  -29.9710 C   0  0  0  0  0  0  0  0  0  0  0  0
   -5.6230   25.0690  -28.6120 N   0  0  0  0  0  0  0  0  0  0  0  0
   -6.1140   26.0420  -30.6610 O   0  0  0  0  0  0  0  0  0  0  0  0
   -5.4810   22.6650  -30.7900 N   0  0  0  0  0  0  0  0  0  0  0  0
   -4.1370   22.5660  -30.2900 C   0  0  0  0  0  0  0  0  0  0  0  0
   -3.2120   22.1690  -31.0500 O   0  0  0  0  0  0  0  0  0  0  0  0
   -3.8510   22.9090  -28.9310 N   0  0  0  0  0  0  0  0  0  0  0  0
   -2.6680   23.6580  -28.5140 C   0  0  2  0  0  0  0  0  0  0  0  0
   -2.7830   24.0160  -27.0280 C   0  0  0  0  0  0  0  0  0  0  0  0
   -3.7930   24.9690  -26.8290 O   0  0  0  0  0  0  0  0  0  0  0  0
   -2.5300   24.9070  -29.3380 C   0  0  0  0  0  0  0  0  0  0  0  0
   -3.4770   25.2930  -30.0750 O   0  0  0  0  0  0  0  0  0  0  0  0
   -1.3630   25.6550  -29.2720 O   0  0  0  0  0  0  0  0  0  0  0  0
   -6.1710   21.7080  -31.4490 C   0  0  0  0  0  0  0  0  0  0  0  0
   -5.7380   20.4350  -31.8410 C   0  0  0  0  0  0  0  0  0  0  0  0
   -4.6473   18.5430  -34.4543 H   0  0  0  0  0  0  0  0  0  0  0  0
   -5.9111   17.3683  -34.9537 H   0  0  0  0  0  0  0  0  0  0  0  0
   -6.2705   19.1283  -34.9537 H   0  0  0  0  0  0  0  0  0  0  0  0
   -8.6732   19.3962  -33.3081 H   0  0  0  0  0  0  0  0  0  0  0  0
   -9.4129   21.6648  -32.5153 H   0  0  0  0  0  0  0  0  0  0  0  0
   -8.5118   23.9966  -31.1300 H   0  0  0  0  0  0  0  0  0  0  0  0
   -5.4470   25.9990  -28.1710 H   0  0  0  0  0  0  0  0  0  0  0  0
   -5.3960   24.2090  -28.0660 H   0  0  0  0  0  0  0  0  0  0  0  0
   -1.7740   23.0356  -28.6669 H   0  0  0  0  0  0  0  0  0  0  0  0
   -3.0234   23.1086  -26.4546 H   0  0  0  0  0  0  0  0  0  0  0  0
   -1.8251   24.4366  -26.6882 H   0  0  0  0  0  0  0  0  0  0  0  0
   -3.9310   25.4240  -27.7000 H   0  0  0  0  0  0  0  0  0  0  0  0
   -4.7081   20.1050  -31.6400 H   0  0  0  0  0  0  0  0  0  0  0  0
  1  2  1  0
  2  3  1  0
  2  4  1  0
  2  5  1  0
  5  6  2  0
  6  7  1  0
  7  8  2  0
  8  9  1  0
  9 10  2  0
 10 11  1  0
 11 12  1  0
 11 13  2  0
 10 14  1  0
 14 15  1  0
 15 16  2  0
 15 17  1  0
 17 18  1  0
 18 19  1  0
 19 20  1  0
 18 21  1  0
 21 22  2  0
 21 23  1  0
 14 24  1  0
 24 25  2  0
 25  5  1  0
 24  8  1  0
  1 26  1  0
  1 27  1  0
  1 28  1  0
  6 29  1  0
  7 30  1  0
  9 31  1  0
 12 32  1  0
 12 33  1  0
 18 34  1  1
 19 35  1  0
 19 36  1  0
 20 37  1  0
 25 38  1  0
M  CHG  2  17  -1  23  -1
M  END
>  <UniqueID>  (27) 
27

>  <SMILES>  (27) 
CC(F)(F)c1ccc2cc(C(N)=O)n(C(=O)[N-][C@H](CO)C(=O)[O-])c2c1

>  <Energy>  (27) 
71.41342297275358

>  <Genealogy>  (27) 
CC(F)(F)c1ccc2cc(C(N)=O)n(C(=O)[N-]C(CO)C(=O)[O-])c2c1 (protonated)
CC(F)(F)c1ccc2cc(C(N)=O)n(C(=O)[N-][C@H](CO)C(=O)[O-])c2c1 (chirality)
CC(F)(F)c1ccc2cc(C(N)=O)n(C(=O)[N-][C@H](CO)C(=O)[O-])c2c1 (3D coordinates assigned)
CC(F)(F)c1ccc2cc(C(N)=O)n(C(=O)[N-][C@H](CO)C(=O)[O-])c2c1 (optimized conformer: 71.41342297275358 kcal/mol)

>  <smiles>  (27) 
CC(F)(F)c1ccc2cc(C(N)=O)n(C(=O)NC(CO)C(=O)O)c2c1

>  <score_type>  (27) 
oracle

>  <origin>  (27) 
adg

>  <m_score__min__energy>  (27) 
-11.550000000000001

>  <m_primary>  (27) 
energy

$$$$
27:0
     RDKit          3D

 50 52  0  0  0  0  0  0  0  0999 V2000
   -4.1830   23.0500  -28.0090 C   0  0  0  0  0  0  0  0  0  0  0  0
   -2.8470   22.6760  -28.6780 C   0  0  0  0  0  0  0  0  0  0  0  0
   -1.6570   23.1710  -27.8340 C   0  0  0  0  0  0  0  0  0  0  0  0
   -2.7660   21.1480  -28.8050 C   0  0  0  0  0  0  0  0  0  0  0  0
   -2.7810   23.2150  -30.0060 O   0  0  0  0  0  0  0  0  0  0  0  0
   -3.4110   22.6950  -31.1480 C   0  0  0  0  0  0  0  0  0  0  0  0
   -2.7400   22.1640  -32.0730 O   0  0  0  0  0  0  0  0  0  0  0  0
   -4.8360   22.8010  -31.2740 N   0  0  0  0  0  0  0  0  0  0  0  0
   -5.6350   23.8470  -30.9210 C   0  0  0  0  0  0  0  0  0  0  0  0
   -5.1760   25.1790  -30.4750 C   0  0  0  0  0  0  0  0  0  0  0  0
   -3.8890   25.6700  -30.8390 N   0  0  0  0  0  0  0  0  0  0  0  0
   -5.9490   25.9120  -29.8020 O   0  0  0  0  0  0  0  0  0  0  0  0
   -6.9770   23.5230  -31.1160 C   0  0  0  0  0  0  0  0  0  0  0  0
   -6.9750   22.2410  -31.6130 C   0  0  0  0  0  0  0  0  0  0  0  0
   -8.0370   21.4200  -31.9780 C   0  0  0  0  0  0  0  0  0  0  0  0
   -7.7430   20.1260  -32.4370 C   0  0  0  0  0  0  0  0  0  0  0  0
   -6.4000   19.6700  -32.5160 C   0  0  0  0  0  0  0  0  0  0  0  0
   -6.1010   18.2960  -32.9940 C   0  0  0  0  0  0  0  0  0  0  0  0
   -7.1410   17.4080  -33.3140 C   0  0  0  0  0  0  0  0  0  0  0  0
   -6.8590   16.1170  -33.7700 C   0  0  0  0  0  0  0  0  0  0  0  0
   -5.5300   15.6810  -33.9180 C   0  0  0  0  0  0  0  0  0  0  0  0
   -5.2510   14.3010  -34.4050 C   0  0  0  0  0  0  0  0  0  0  0  0
   -4.0680   13.9720  -34.6980 O   0  0  0  0  0  0  0  0  0  0  0  0
   -6.3350   13.2800  -34.5860 C   0  0  0  0  0  0  0  0  0  0  0  0
   -5.9060   12.2950  -35.4840 O   0  0  0  0  0  0  0  0  0  0  0  0
   -4.4890   16.5720  -33.5950 C   0  0  0  0  0  0  0  0  0  0  0  0
   -4.7720   17.8640  -33.1400 C   0  0  0  0  0  0  0  0  0  0  0  0
   -5.3500   20.5360  -32.1330 C   0  0  0  0  0  0  0  0  0  0  0  0
   -5.6710   21.8270  -31.6980 C   0  0  0  0  0  0  0  0  0  0  0  0
   -4.0673   23.0176  -26.9156 H   0  0  0  0  0  0  0  0  0  0  0  0
   -4.4758   24.0646  -28.3168 H   0  0  0  0  0  0  0  0  0  0  0  0
   -4.9601   22.3349  -28.3168 H   0  0  0  0  0  0  0  0  0  0  0  0
   -1.8984   23.0706  -26.7655 H   0  0  0  0  0  0  0  0  0  0  0  0
   -0.7665   22.5687  -28.0669 H   0  0  0  0  0  0  0  0  0  0  0  0
   -1.4564   24.2272  -28.0669 H   0  0  0  0  0  0  0  0  0  0  0  0
   -2.7421   20.6974  -27.8018 H   0  0  0  0  0  0  0  0  0  0  0  0
   -3.6458   20.7784  -29.3521 H   0  0  0  0  0  0  0  0  0  0  0  0
   -1.8520   20.8735  -29.3521 H   0  0  0  0  0  0  0  0  0  0  0  0
   -3.0230   25.2900  -30.3960 H   0  0  0  0  0  0  0  0  0  0  0  0
   -7.8521   24.1584  -30.9148 H   0  0  0  0  0  0  0  0  0  0  0  0
   -9.0762   21.7740  -31.9091 H   0  0  0  0  0  0  0  0  0  0  0  0
   -8.5625   19.4573  -32.7390 H   0  0  0  0  0  0  0  0  0  0  0  0
   -8.1867   17.7313  -33.2048 H   0  0  0  0  0  0  0  0  0  0  0  0
   -7.6858   15.4344  -34.0159 H   0  0  0  0  0  0  0  0  0  0  0  0
   -6.5664   12.8156  -33.6161 H   0  0  0  0  0  0  0  0  0  0  0  0
   -7.2361   13.7698  -34.9835 H   0  0  0  0  0  0  0  0  0  0  0  0
   -4.9520   12.4920  -35.6730 H   0  0  0  0  0  0  0  0  0  0  0  0
   -3.4429   16.2490  -33.7015 H   0  0  0  0  0  0  0  0  0  0  0  0
   -3.9465   18.5482  -32.8942 H   0  0  0  0  0  0  0  0  0  0  0  0
   -4.3028   20.2021  -32.1760 H   0  0  0  0  0  0  0  0  0  0  0  0
  1  2  1  0
  2  3  1  0
  2  4  1  0
  2  5  1  0
  5  6  1  0
  6  7  2  0
  6  8  1  0
  8  9  1  0
  9 10  1  0
 10 11  1  0
 10 12  2  0
  9 13  2  0
 13 14  1  0
 14 15  2  0
 15 16  1  0
 16 17  2  0
 17 18  1  0
 18 19  2  0
 19 20  1  0
 20 21  2  0
 21 22  1  0
 22 23  2  0
 22 24  1  0
 24 25  1  0
 21 26  1  0
 26 27  2  0
 17 28  1  0
 28 29  2  0
 29  8  1  0
 29 14  1  0
 27 18  1  0
  1 30  1  0
  1 31  1  0
  1 32  1  0
  3 33  1  0
  3 34  1  0
  3 35  1  0
  4 36  1  0
  4 37  1  0
  4 38  1  0
 11 39  1  0
 13 40  1  0
 15 41  1  0
 16 42  1  0
 19 43  1  0
 20 44  1  0
 24 45  1  0
 24 46  1  0
 25 47  1  0
 26 48  1  0
 27 49  1  0
 28 50  1  0
M  CHG  1  11  -1
M  END
>  <UniqueID>  (28) 
28

>  <SMILES>  (28) 
CC(C)(C)OC(=O)n1c(C([NH-])=O)cc2ccc(-c3ccc(C(=O)CO)cc3)cc21

>  <Energy>  (28) 
91.82962215986888

>  <Genealogy>  (28) 
CC(C)(C)OC(=O)n1c(C([NH-])=O)cc2ccc(-c3ccc(C(=O)CO)cc3)cc21 (protonated)
CC(C)(C)OC(=O)n1c(C([NH-])=O)cc2ccc(-c3ccc(C(=O)CO)cc3)cc21 (3D coordinates assigned)
CC(C)(C)OC(=O)n1c(C([NH-])=O)cc2ccc(-c3ccc(C(=O)CO)cc3)cc21 (optimized conformer: 91.82962215986888 kcal/mol)

>  <smiles>  (28) 
CC(C)(C)OC(=O)n1c(C(N)=O)cc2ccc(-c3ccc(C(=O)CO)cc3)cc21

>  <score_type>  (28) 
oracle

>  <origin>  (28) 
adg

>  <m_score__min__energy>  (28) 
-10.56

>  <m_primary>  (28) 
energy

$$$$
28:0
     RDKit          3D

 34 36  0  0  0  0  0  0  0  0999 V2000
   -3.9440   25.6410  -30.8350 N   0  0  0  0  0  0  0  0  0  0  0  0
   -5.2630   25.2740  -30.4390 C   0  0  0  0  0  0  0  0  0  0  0  0
   -5.9390   26.0720  -29.7350 O   0  0  0  0  0  0  0  0  0  0  0  0
   -5.8670   24.0010  -30.8850 C   0  0  0  0  0  0  0  0  0  0  0  0
   -7.2390   23.8110  -31.0270 C   0  0  0  0  0  0  0  0  0  0  0  0
   -7.3810   22.5400  -31.5360 C   0  0  0  0  0  0  0  0  0  0  0  0
   -8.5310   21.8310  -31.8600 C   0  0  0  0  0  0  0  0  0  0  0  0
   -8.3860   20.5190  -32.3400 C   0  0  0  0  0  0  0  0  0  0  0  0
   -7.0940   19.9330  -32.4820 C   0  0  0  0  0  0  0  0  0  0  0  0
   -6.8640   18.5160  -32.9820 C   0  0  0  0  0  0  0  0  0  0  0  0
   -5.4660   17.9360  -32.8150 C   0  0  0  0  0  0  0  0  0  0  0  0
   -5.9640   18.3420  -34.1970 C   0  0  0  0  0  0  0  0  0  0  0  0
   -5.9530   20.6940  -32.1380 C   0  0  0  0  0  0  0  0  0  0  0  0
   -6.1300   22.0040  -31.6810 C   0  0  0  0  0  0  0  0  0  0  0  0
   -5.1870   22.8880  -31.2830 N   0  0  0  0  0  0  0  0  0  0  0  0
   -3.7720   22.6530  -31.2220 C   0  0  0  0  0  0  0  0  0  0  0  0
   -3.1730   22.1530  -32.2130 O   0  0  0  0  0  0  0  0  0  0  0  0
   -3.0370   22.9980  -30.0480 N   0  0  0  0  0  0  0  0  0  0  0  0
   -1.7590   23.4550  -30.1170 O   0  0  0  0  0  0  0  0  0  0  0  0
   -1.5200   24.1720  -28.9280 C   0  0  0  0  0  0  0  0  0  0  0  0
   -2.3320   25.3130  -28.8660 O   0  0  0  0  0  0  0  0  0  0  0  0
   -3.1110   25.1270  -30.4720 H   0  0  0  0  0  0  0  0  0  0  0  0
   -8.0396   24.5251  -30.7840 H   0  0  0  0  0  0  0  0  0  0  0  0
   -9.5266   22.2842  -31.7439 H   0  0  0  0  0  0  0  0  0  0  0  0
   -9.2796   19.9369  -32.6095 H   0  0  0  0  0  0  0  0  0  0  0  0
   -7.8794   18.1893  -32.7131 H   0  0  0  0  0  0  0  0  0  0  0  0
   -4.6816   18.5255  -32.3178 H   0  0  0  0  0  0  0  0  0  0  0  0
   -5.0525   17.0160  -32.3761 H   0  0  0  0  0  0  0  0  0  0  0  0
   -5.5389   19.2245  -34.6975 H   0  0  0  0  0  0  0  0  0  0  0  0
   -6.0588   17.8363  -35.1693 H   0  0  0  0  0  0  0  0  0  0  0  0
   -4.9447   20.2637  -32.2281 H   0  0  0  0  0  0  0  0  0  0  0  0
   -1.7397   23.5251  -28.0658 H   0  0  0  0  0  0  0  0  0  0  0  0
   -0.4661   24.4865  -28.9103 H   0  0  0  0  0  0  0  0  0  0  0  0
   -3.2470   25.0180  -29.1120 H   0  0  0  0  0  0  0  0  0  0  0  0
  1  2  1  0
  2  3  2  0
  2  4  1  0
  4  5  2  0
  5  6  1  0
  6  7  2  0
  7  8  1  0
  8  9  2  0
  9 10  1  0
 10 11  1  0
 11 12  1  0
  9 13  1  0
 13 14  2  0
 14 15  1  0
 15 16  1  0
 16 17  2  0
 16 18  1  0
 18 19  1  0
 19 20  1  0
 20 21  1  0
 15  4  1  0
 14  6  1  0
 12 10  1  0
  1 22  1  0
  5 23  1  0
  7 24  1  0
  8 25  1  0
 10 26  1  0
 11 27  1  0
 11 28  1  0
 12 29  1  0
 12 30  1  0
 13 31  1  0
 20 32  1  0
 20 33  1  0
 21 34  1  0
M  CHG  2   1  -1  18  -1
M  END
>  <UniqueID>  (29) 
29

>  <SMILES>  (29) 
[NH-]C(=O)c1cc2ccc(C3CC3)cc2n1C(=O)[N-]OCO

>  <Energy>  (29) 
341.33066410195846

>  <Genealogy>  (29) 
[NH-]C(=O)c1cc2ccc(C3CC3)cc2n1C(=O)[N-]OCO (protonated)
[NH-]C(=O)c1cc2ccc(C3CC3)cc2n1C(=O)[N-]OCO (3D coordinates assigned)
[NH-]C(=O)c1cc2ccc(C3CC3)cc2n1C(=O)[N-]OCO (nonaromatic ring conformer: 341.33066410195846 kcal/mol)

>  <smiles>  (29) 
NC(=O)c1cc2ccc(C3CC3)cc2n1C(=O)NOCO

>  <score_type>  (29) 
oracle

>  <origin>  (29) 
adg

>  <m_score__min__energy>  (29) 
-11.09

>  <m_primary>  (29) 
energy

$$$$
29:0
     RDKit          3D

 39 40  0  0  0  0  0  0  0  0999 V2000
   -3.4090   25.1110  -30.9340 H   0  0  0  0  0  0  0  0  0  0  0  0
   -4.2680   25.6900  -30.8020 N   0  0  0  0  0  0  0  0  0  0  0  0
   -5.5270   25.0800  -30.5260 C   0  0  0  0  0  0  0  0  0  0  0  0
   -6.3760   25.7070  -29.8380 O   0  0  0  0  0  0  0  0  0  0  0  0
   -5.8080   23.7150  -31.0170 C   0  0  0  0  0  0  0  0  0  0  0  0
   -7.0550   23.3060  -31.4850 C   0  0  0  0  0  0  0  0  0  0  0  0
   -7.9799   23.9000  -31.5259 H   0  0  0  0  0  0  0  0  0  0  0  0
   -6.8830   22.0010  -31.8850 C   0  0  0  0  0  0  0  0  0  0  0  0
   -7.8080   21.0970  -32.3930 C   0  0  0  0  0  0  0  0  0  0  0  0
   -8.8507   21.3956  -32.5764 H   0  0  0  0  0  0  0  0  0  0  0  0
   -7.3710   19.7910  -32.6650 C   0  0  0  0  0  0  0  0  0  0  0  0
   -8.0802   19.0560  -33.0733 H   0  0  0  0  0  0  0  0  0  0  0  0
   -6.0290   19.4060  -32.4210 C   0  0  0  0  0  0  0  0  0  0  0  0
   -5.6350   18.0460  -32.6900 N   0  0  0  0  0  0  0  0  0  0  0  0
   -5.1570   17.8380  -33.5960 H   0  0  0  0  0  0  0  0  0  0  0  0
   -5.8280   16.9290  -31.7660 C   0  0  0  0  0  0  0  0  0  0  0  0
   -6.9031   16.7136  -31.6778 H   0  0  0  0  0  0  0  0  0  0  0  0
   -5.4148   17.2036  -30.7843 H   0  0  0  0  0  0  0  0  0  0  0  0
   -5.1190   15.7060  -32.2660 C   0  0  0  0  0  0  0  0  0  0  0  0
   -4.6760   15.6860  -33.4470 O   0  0  0  0  0  0  0  0  0  0  0  0
   -4.9820   14.5530  -31.4270 N   0  0  0  0  0  0  0  0  0  0  0  0
   -5.3310   14.5860  -30.4420 H   0  0  0  0  0  0  0  0  0  0  0  0
   -4.3860   13.3170  -31.9180 C   0  0  0  0  0  0  0  0  0  0  0  0
   -4.0843   12.6913  -31.0651 H   0  0  0  0  0  0  0  0  0  0  0  0
   -5.1209   12.7733  -32.5298 H   0  0  0  0  0  0  0  0  0  0  0  0
   -3.5029   13.5535  -32.5298 H   0  0  0  0  0  0  0  0  0  0  0  0
   -5.1160   20.3590  -31.9040 C   0  0  0  0  0  0  0  0  0  0  0  0
   -4.0707   20.0840  -31.7000 H   0  0  0  0  0  0  0  0  0  0  0  0
   -5.5760   21.6590  -31.6590 C   0  0  0  0  0  0  0  0  0  0  0  0
   -4.8970   22.7060  -31.1350 N   0  0  0  0  0  0  0  0  0  0  0  0
   -3.5350   22.7040  -30.6660 C   0  0  0  0  0  0  0  0  0  0  0  0
   -2.6120   23.0300  -31.4580 O   0  0  0  0  0  0  0  0  0  0  0  0
   -3.1840   22.4290  -29.2560 C   0  0  0  0  0  0  0  0  0  0  0  0
   -3.7569   21.6426  -28.7429 H   0  0  0  0  0  0  0  0  0  0  0  0
   -2.2320   23.0500  -28.5460 C   0  0  0  0  0  0  0  0  0  0  0  0
   -1.9842   22.6266  -27.5615 H   0  0  0  0  0  0  0  0  0  0  0  0
   -1.4890   24.2480  -28.9670 C   0  0  0  0  0  0  0  0  0  0  0  0
   -2.1240   25.2690  -29.3390 O   0  0  0  0  0  0  0  0  0  0  0  0
   -0.1030   24.2420  -29.0530 O   0  0  0  0  0  0  0  0  0  0  0  0
  1  2  1  0
  2  3  1  0
  3  4  2  0
  3  5  1  0
  5  6  2  0
  6  7  1  0
  6  8  1  0
  8  9  2  0
  9 10  1  0
  9 11  1  0
 11 12  1  0
 11 13  2  0
 13 14  1  0
 14 15  1  0
 14 16  1  0
 16 17  1  0
 16 18  1  0
 16 19  1  0
 19 20  2  0
 19 21  1  0
 21 22  1  0
 21 23  1  0
 23 24  1  0
 23 25  1  0
 23 26  1  0
 13 27  1  0
 27 28  1  0
 27 29  2  0
 29 30  1  0
 30 31  1  0
 31 32  2  0
 31 33  1  0
 33 34  1  0
 33 35  2  0
 35 36  1  0
 35 37  1  0
 37 38  2  0
 37 39  1  0
 30  5  1  0
 29  8  1  0
M  CHG  2   2  -1  39  -1
M  END
>  <UniqueID>  (30) 
30

>  <SMILES>  (30) 
CNC(=O)CNc1ccc2cc(C([NH-])=O)n(C(=O)/C=C\C(=O)[O-])c2c1

>  <Energy>  (30) 
77.32557662065577

>  <Genealogy>  (30) 
CNC(=O)CNc1ccc2cc(C([NH-])=O)n(C(=O)/C=C\C(=O)[O-])c2c1 (protonated)
CNC(=O)CNc1ccc2cc(C([NH-])=O)n(C(=O)/C=C\C(=O)[O-])c2c1 (cis-trans isomerization)
CNC(=O)CNc1ccc2cc(C([NH-])=O)n(C(=O)/C=C\C(=O)[O-])c2c1 (3D coordinates assigned)
CNC(=O)CNc1ccc2cc(C([NH-])=O)n(C(=O)/C=C\C(=O)[O-])c2c1 (optimized conformer: 77.32557662065577 kcal/mol)

>  <smiles>  (30) 
CNC(=O)CNc1ccc2cc(C(N)=O)n(C(=O)/C=C\C(=O)O)c2c1

>  <score_type>  (30) 
oracle

>  <origin>  (30) 
adg

>  <m_score__min__energy>  (30) 
-12

>  <m_primary>  (30) 
energy

$$$$
30:0
     RDKit          3D

 58 61  0  0  0  0  0  0  0  0999 V2000
   -2.4640   20.6640  -28.6260 C   0  0  0  0  0  0  0  0  0  0  0  0
   -2.4400   20.8330  -29.9480 C   0  0  0  0  0  0  0  0  0  0  0  0
   -2.9350   22.0570  -30.6060 C   0  0  0  0  0  0  0  0  0  0  0  0
   -2.1200   22.9830  -30.8600 O   0  0  0  0  0  0  0  0  0  0  0  0
   -4.3200   22.2230  -30.9540 N   0  0  0  0  0  0  0  0  0  0  0  0
   -5.0950   23.3220  -30.7490 C   0  0  0  0  0  0  0  0  0  0  0  0
   -4.7070   24.5190  -29.9760 C   0  0  0  0  0  0  0  0  0  0  0  0
   -5.2840   24.8000  -28.7000 N   0  0  0  0  0  0  0  0  0  0  0  0
   -3.8820   25.3340  -30.4710 O   0  0  0  0  0  0  0  0  0  0  0  0
   -6.3360   23.1680  -31.3650 C   0  0  0  0  0  0  0  0  0  0  0  0
   -6.2930   21.9270  -31.9610 C   0  0  0  0  0  0  0  0  0  0  0  0
   -7.2520   21.2640  -32.7190 C   0  0  0  0  0  0  0  0  0  0  0  0
   -6.9250   19.9970  -33.2320 C   0  0  0  0  0  0  0  0  0  0  0  0
   -5.6460   19.4220  -32.9990 C   0  0  0  0  0  0  0  0  0  0  0  0
   -5.3340   18.0960  -33.4820 N   0  0  0  0  0  0  0  0  0  0  0  0
   -5.1220   17.8670  -34.9220 C   0  0  0  0  0  0  0  0  0  0  0  0
   -4.2190   16.6450  -35.1680 C   0  0  0  0  0  0  0  0  0  0  0  0
   -3.1810   16.5090  -34.0310 C   0  0  0  0  0  0  0  0  0  0  0  0
   -2.3890   17.7730  -33.9010 N   0  0  0  0  0  0  0  0  0  0  0  0
   -1.1950   17.7590  -34.7710 C   0  0  0  0  0  0  0  0  0  0  0  0
   -0.6060   19.1790  -34.8850 C   0  0  0  0  0  0  0  0  0  0  0  0
   -0.8280   20.0020  -33.6740 N   0  0  0  0  0  0  0  0  0  0  0  0
   -2.0040   20.8790  -33.8060 C   0  0  0  0  0  0  0  0  0  0  0  0
   -0.8810   19.1810  -32.4490 C   0  0  0  0  0  0  0  0  0  0  0  0
   -1.9720   18.0870  -32.5140 C   0  0  0  0  0  0  0  0  0  0  0  0
   -3.9870   16.1250  -32.7500 C   0  0  0  0  0  0  0  0  0  0  0  0
   -5.2910   16.9390  -32.5710 C   0  0  0  0  0  0  0  0  0  0  0  0
   -4.6980   20.1400  -32.2320 C   0  0  0  0  0  0  0  0  0  0  0  0
   -5.0630   21.3830  -31.7070 C   0  0  0  0  0  0  0  0  0  0  0  0
   -2.0826   19.7319  -28.1837 H   0  0  0  0  0  0  0  0  0  0  0  0
   -2.8652   21.4567  -27.9774 H   0  0  0  0  0  0  0  0  0  0  0  0
   -2.0339   20.0255  -30.5749 H   0  0  0  0  0  0  0  0  0  0  0  0
   -6.1050   24.2640  -28.3470 H   0  0  0  0  0  0  0  0  0  0  0  0
   -4.9540   25.6220  -28.1470 H   0  0  0  0  0  0  0  0  0  0  0  0
   -7.1708   23.8842  -31.3733 H   0  0  0  0  0  0  0  0  0  0  0  0
   -8.2358   21.7170  -32.9111 H   0  0  0  0  0  0  0  0  0  0  0  0
   -7.6694   19.4424  -33.8222 H   0  0  0  0  0  0  0  0  0  0  0  0
   -6.0956   17.6958  -35.4046 H   0  0  0  0  0  0  0  0  0  0  0  0
   -4.6279   18.7541  -35.3451 H   0  0  0  0  0  0  0  0  0  0  0  0
   -4.8388   15.7370  -35.2043 H   0  0  0  0  0  0  0  0  0  0  0  0
   -3.6892   16.7774  -36.1229 H   0  0  0  0  0  0  0  0  0  0  0  0
   -2.4313   15.7281  -34.2262 H   0  0  0  0  0  0  0  0  0  0  0  0
   -0.4394   17.0851  -34.3410 H   0  0  0  0  0  0  0  0  0  0  0  0
   -1.4834   17.4074  -35.7726 H   0  0  0  0  0  0  0  0  0  0  0  0
    0.4772   19.0953  -35.0570 H   0  0  0  0  0  0  0  0  0  0  0  0
   -1.1195   19.6797  -35.7190 H   0  0  0  0  0  0  0  0  0  0  0  0
   -2.3713   21.1529  -32.8059 H   0  0  0  0  0  0  0  0  0  0  0  0
   -1.7226   21.7895  -34.3553 H   0  0  0  0  0  0  0  0  0  0  0  0
   -2.7964   20.3496  -34.3553 H   0  0  0  0  0  0  0  0  0  0  0  0
    0.0962   18.6963  -32.3070 H   0  0  0  0  0  0  0  0  0  0  0  0
   -1.1278   19.8487  -31.6104 H   0  0  0  0  0  0  0  0  0  0  0  0
   -1.5789   17.1707  -32.0493 H   0  0  0  0  0  0  0  0  0  0  0  0
   -2.8554   18.4684  -31.9811 H   0  0  0  0  0  0  0  0  0  0  0  0
   -4.2485   15.0583  -32.8105 H   0  0  0  0  0  0  0  0  0  0  0  0
   -3.3451   16.3501  -31.8856 H   0  0  0  0  0  0  0  0  0  0  0  0
   -6.1514   16.2866  -32.7808 H   0  0  0  0  0  0  0  0  0  0  0  0
   -5.3259   17.3122  -31.5368 H   0  0  0  0  0  0  0  0  0  0  0  0
   -3.6939   19.7282  -32.0525 H   0  0  0  0  0  0  0  0  0  0  0  0
  1  2  2  0
  2  3  1  0
  3  4  2  0
  3  5  1  0
  5  6  1  0
  6  7  1  0
  7  8  1  0
  7  9  2  0
  6 10  2  0
 10 11  1  0
 11 12  2  0
 12 13  1  0
 13 14  2  0
 14 15  1  0
 15 16  1  0
 16 17  1  0
 17 18  1  0
 18 19  1  0
 19 20  1  0
 20 21  1  0
 21 22  1  0
 22 23  1  0
 22 24  1  0
 24 25  1  0
 18 26  1  0
 26 27  1  0
 14 28  1  0
 28 29  2  0
 29  5  1  0
 29 11  1  0
 27 15  1  0
 25 19  1  0
  1 30  1  0
  1 31  1  0
  2 32  1  0
  8 33  1  0
  8 34  1  0
 10 35  1  0
 12 36  1  0
 13 37  1  0
 16 38  1  0
 16 39  1  0
 17 40  1  0
 17 41  1  0
 18 42  1  0
 20 43  1  0
 20 44  1  0
 21 45  1  0
 21 46  1  0
 23 47  1  0
 23 48  1  0
 23 49  1  0
 24 50  1  0
 24 51  1  0
 25 52  1  0
 25 53  1  0
 26 54  1  0
 26 55  1  0
 27 56  1  0
 27 57  1  0
 28 58  1  0
M  END
>  <UniqueID>  (31) 
31

>  <SMILES>  (31) 
C=CC(=O)n1c(C(N)=O)cc2ccc(N3CCC(N4CCN(C)CC4)CC3)cc21

>  <Energy>  (31) 
122.07121343083847

>  <Genealogy>  (31) 
C=CC(=O)n1c(C(N)=O)cc2ccc(N3CCC(N4CCN(C)CC4)CC3)cc21 (3D coordinates assigned)
C=CC(=O)n1c(C(N)=O)cc2ccc(N3CCC(N4CCN(C)CC4)CC3)cc21 (nonaromatic ring conformer: 122.07121343083847 kcal/mol)

>  <smiles>  (31) 
C=CC(=O)n1c(C(N)=O)cc2ccc(N3CCC(N4CCN(C)CC4)CC3)cc21

>  <score_type>  (31) 
oracle

>  <origin>  (31) 
adg

>  <m_score__min__energy>  (31) 
-8.9100000000000001

>  <m_primary>  (31) 
energy

$$$$
31:0
     RDKit          3D

 51 53  0  0  0  0  0  0  0  0999 V2000
   -9.1120   18.1360  -31.9620 C   0  0  0  0  0  0  0  0  0  0  0  0
   -7.7990   18.7940  -31.9570 N   0  0  0  0  0  0  0  0  0  0  0  0
   -6.6030   17.9770  -32.2310 C   0  0  0  0  0  0  0  0  0  0  0  0
   -6.0410   18.1410  -33.6760 C   0  0  0  0  0  0  0  0  0  0  0  0
   -6.4960   19.3120  -34.3050 O   0  0  0  0  0  0  0  0  0  0  0  0
   -4.5590   17.9160  -33.9300 C   0  0  0  0  0  0  0  0  0  0  0  0
   -4.7970   16.8000  -34.7540 O   0  0  0  0  0  0  0  0  0  0  0  0
   -6.1880   16.9210  -34.5710 C   0  0  0  0  0  0  0  0  0  0  0  0
   -7.6930   20.2260  -31.7250 C   0  0  0  0  0  0  0  0  0  0  0  0
   -8.8580   21.0440  -31.6620 C   0  0  0  0  0  0  0  0  0  0  0  0
   -8.7660   22.4220  -31.4100 C   0  0  0  0  0  0  0  0  0  0  0  0
   -7.5040   22.9710  -31.2270 C   0  0  0  0  0  0  0  0  0  0  0  0
   -7.1310   24.2620  -30.9290 C   0  0  0  0  0  0  0  0  0  0  0  0
   -5.7420   24.2330  -30.8310 C   0  0  0  0  0  0  0  0  0  0  0  0
   -4.9130   25.4330  -30.5880 C   0  0  0  0  0  0  0  0  0  0  0  0
   -3.5060   25.2980  -30.4080 N   0  0  0  0  0  0  0  0  0  0  0  0
   -5.4400   26.5730  -30.5050 O   0  0  0  0  0  0  0  0  0  0  0  0
   -5.2750   22.9730  -31.0560 N   0  0  0  0  0  0  0  0  0  0  0  0
   -3.9190   22.5090  -30.9710 C   0  0  0  0  0  0  0  0  0  0  0  0
   -3.0950   22.8260  -31.8720 O   0  0  0  0  0  0  0  0  0  0  0  0
   -3.5380   21.6860  -29.9010 O   0  0  0  0  0  0  0  0  0  0  0  0
   -3.0020   22.1210  -28.6430 C   0  0  0  0  0  0  0  0  0  0  0  0
   -2.7300   20.8620  -27.8070 C   0  0  0  0  0  0  0  0  0  0  0  0
   -4.0180   23.0060  -27.8960 C   0  0  0  0  0  0  0  0  0  0  0  0
   -1.6740   22.8760  -28.8530 C   0  0  0  0  0  0  0  0  0  0  0  0
   -6.3660   22.2140  -31.2990 C   0  0  0  0  0  0  0  0  0  0  0  0
   -6.4260   20.8360  -31.5320 C   0  0  0  0  0  0  0  0  0  0  0  0
   -9.4430   17.9701  -30.9262 H   0  0  0  0  0  0  0  0  0  0  0  0
   -9.8406   18.7755  -32.4818 H   0  0  0  0  0  0  0  0  0  0  0  0
   -9.0358   17.1696  -32.4818 H   0  0  0  0  0  0  0  0  0  0  0  0
   -5.8160   18.2659  -31.5188 H   0  0  0  0  0  0  0  0  0  0  0  0
   -6.9049   16.9246  -32.1243 H   0  0  0  0  0  0  0  0  0  0  0  0
   -6.5890   19.0990  -35.2700 H   0  0  0  0  0  0  0  0  0  0  0  0
   -4.0731   18.7518  -34.4548 H   0  0  0  0  0  0  0  0  0  0  0  0
   -3.8837   17.8055  -33.0688 H   0  0  0  0  0  0  0  0  0  0  0  0
   -6.7359   17.1251  -35.5027 H   0  0  0  0  0  0  0  0  0  0  0  0
   -6.7519   16.0534  -34.1977 H   0  0  0  0  0  0  0  0  0  0  0  0
   -9.8473   20.5875  -31.8136 H   0  0  0  0  0  0  0  0  0  0  0  0
   -9.6683   23.0491  -31.3590 H   0  0  0  0  0  0  0  0  0  0  0  0
   -7.7904   25.1324  -30.7963 H   0  0  0  0  0  0  0  0  0  0  0  0
   -2.9070   24.8780  -31.1530 H   0  0  0  0  0  0  0  0  0  0  0  0
   -2.7843   21.1133  -26.7375 H   0  0  0  0  0  0  0  0  0  0  0  0
   -3.4833   20.0958  -28.0423 H   0  0  0  0  0  0  0  0  0  0  0  0
   -1.7275   20.4751  -28.0423 H   0  0  0  0  0  0  0  0  0  0  0  0
   -3.8806   22.8863  -26.8112 H   0  0  0  0  0  0  0  0  0  0  0  0
   -3.8595   24.0590  -28.1717 H   0  0  0  0  0  0  0  0  0  0  0  0
   -5.0393   22.7045  -28.1717 H   0  0  0  0  0  0  0  0  0  0  0  0
   -1.2354   23.1253  -27.8755 H   0  0  0  0  0  0  0  0  0  0  0  0
   -0.9757   22.2398  -29.4167 H   0  0  0  0  0  0  0  0  0  0  0  0
   -1.8635   23.8014  -29.4167 H   0  0  0  0  0  0  0  0  0  0  0  0
   -5.5056   20.2345  -31.5651 H   0  0  0  0  0  0  0  0  0  0  0  0
  1  2  1  0
  2  3  1  0
  3  4  1  0
  4  5  1  0
  4  6  1  0
  6  7  1  0
  7  8  1  0
  2  9  1  0
  9 10  2  0
 10 11  1  0
 11 12  2  0
 12 13  1  0
 13 14  2  0
 14 15  1  0
 15 16  1  0
 15 17  2  0
 14 18  1  0
 18 19  1  0
 19 20  2  0
 19 21  1  0
 21 22  1  0
 22 23  1  0
 22 24  1  0
 22 25  1  0
 18 26  1  0
 26 27  2  0
  8  4  1  0
 27  9  1  0
 26 12  1  0
  1 28  1  0
  1 29  1  0
  1 30  1  0
  3 31  1  0
  3 32  1  0
  5 33  1  0
  6 34  1  0
  6 35  1  0
  8 36  1  0
  8 37  1  0
 10 38  1  0
 11 39  1  0
 13 40  1  0
 16 41  1  0
 23 42  1  0
 23 43  1  0
 23 44  1  0
 24 45  1  0
 24 46  1  0
 24 47  1  0
 25 48  1  0
 25 49  1  0
 25 50  1  0
 27 51  1  0
M  CHG  1  16  -1
M  END
>  <UniqueID>  (32) 
32

>  <SMILES>  (32) 
CN(CC1(O)COC1)c1ccc2cc(C([NH-])=O)n(C(=O)OC(C)(C)C)c2c1

>  <Energy>  (32) 
155.7305125653324

>  <Genealogy>  (32) 
CN(CC1(O)COC1)c1ccc2cc(C([NH-])=O)n(C(=O)OC(C)(C)C)c2c1 (protonated)
CN(CC1(O)COC1)c1ccc2cc(C([NH-])=O)n(C(=O)OC(C)(C)C)c2c1 (3D coordinates assigned)
CN(CC1(O)COC1)c1ccc2cc(C([NH-])=O)n(C(=O)OC(C)(C)C)c2c1 (nonaromatic ring conformer: 155.7305125653324 kcal/mol)

>  <smiles>  (32) 
CN(CC1(O)COC1)c1ccc2cc(C(N)=O)n(C(=O)OC(C)(C)C)c2c1

>  <score_type>  (32) 
oracle

>  <origin>  (32) 
adg

>  <m_score__min__energy>  (32) 
-10.859999999999999

>  <m_primary>  (32) 
energy

$$$$
33:0
     RDKit          3D

 44 45  0  0  0  0  0  0  0  0999 V2000
   -0.4610   21.3770  -31.0210 C   0  0  0  0  0  0  0  0  0  0  0  0
   -0.3910   21.9370  -29.6700 N   0  0  0  0  0  0  0  0  0  0  0  0
   -0.4010   23.4060  -29.6990 C   0  0  0  0  0  0  0  0  0  0  0  0
   -1.6100   23.9660  -29.0100 C   0  0  0  0  0  0  0  0  0  0  0  0
   -2.0630   25.0850  -29.3780 O   0  0  0  0  0  0  0  0  0  0  0  0
   -2.2640   23.2250  -28.0150 O   0  0  0  0  0  0  0  0  0  0  0  0
   -3.5240   22.5820  -28.2230 C   0  0  1  0  0  0  0  0  0  0  0  0
   -4.6510   23.6050  -28.0950 C   0  0  0  0  0  0  0  0  0  0  0  0
   -3.5620   21.8930  -29.5660 C   0  0  0  0  0  0  0  0  0  0  0  0
   -3.1690   20.7020  -29.6470 O   0  0  0  0  0  0  0  0  0  0  0  0
   -4.0050   22.5870  -30.7950 C   0  0  0  0  0  0  0  0  0  0  0  0
   -3.1580   22.9950  -31.6340 O   0  0  0  0  0  0  0  0  0  0  0  0
   -5.4040   22.7690  -31.0610 N   0  0  0  0  0  0  0  0  0  0  0  0
   -6.1420   23.8960  -30.8640 C   0  0  0  0  0  0  0  0  0  0  0  0
   -5.6030   25.2030  -30.4280 C   0  0  0  0  0  0  0  0  0  0  0  0
   -4.2360   25.5450  -30.6580 N   0  0  0  0  0  0  0  0  0  0  0  0
   -6.3440   26.0200  -29.8190 O   0  0  0  0  0  0  0  0  0  0  0  0
   -7.4740   23.6710  -31.2100 C   0  0  0  0  0  0  0  0  0  0  0  0
   -7.5270   22.3560  -31.6180 C   0  0  0  0  0  0  0  0  0  0  0  0
   -8.6070   21.5940  -32.0530 C   0  0  0  0  0  0  0  0  0  0  0  0
   -8.3750   20.2470  -32.3780 C   0  0  0  0  0  0  0  0  0  0  0  0
   -7.0770   19.6890  -32.2560 C   0  0  0  0  0  0  0  0  0  0  0  0
   -6.8560   18.2400  -32.5800 C   0  0  0  0  0  0  0  0  0  0  0  0
   -6.4450   17.5660  -31.4450 F   0  0  0  0  0  0  0  0  0  0  0  0
   -5.8840   18.1230  -33.5570 F   0  0  0  0  0  0  0  0  0  0  0  0
   -6.0060   20.4920  -31.8090 C   0  0  0  0  0  0  0  0  0  0  0  0
   -6.2650   21.8340  -31.5120 C   0  0  0  0  0  0  0  0  0  0  0  0
   -0.5972   20.2872  -30.9596 H   0  0  0  0  0  0  0  0  0  0  0  0
   -1.3104   21.8229  -31.5592 H   0  0  0  0  0  0  0  0  0  0  0  0
    0.4720   21.6001  -31.5592 H   0  0  0  0  0  0  0  0  0  0  0  0
   -1.2560   21.6310  -29.1660 H   0  0  0  0  0  0  0  0  0  0  0  0
    0.5021   23.7787  -29.1935 H   0  0  0  0  0  0  0  0  0  0  0  0
   -0.4254   23.7282  -30.7505 H   0  0  0  0  0  0  0  0  0  0  0  0
   -3.6619   21.8086  -27.4530 H   0  0  0  0  0  0  0  0  0  0  0  0
   -4.8572   23.7922  -27.0308 H   0  0  0  0  0  0  0  0  0  0  0  0
   -4.3501   24.5448  -28.5810 H   0  0  0  0  0  0  0  0  0  0  0  0
   -5.5574   23.2148  -28.5810 H   0  0  0  0  0  0  0  0  0  0  0  0
   -3.8630   26.4640  -30.3280 H   0  0  0  0  0  0  0  0  0  0  0  0
   -3.6030   24.9210  -31.2040 H   0  0  0  0  0  0  0  0  0  0  0  0
   -8.3053   24.3901  -31.1665 H   0  0  0  0  0  0  0  0  0  0  0  0
   -9.6119   22.0329  -32.1398 H   0  0  0  0  0  0  0  0  0  0  0  0
   -9.2073   19.6198  -32.7301 H   0  0  0  0  0  0  0  0  0  0  0  0
   -7.7983   17.8056  -32.9451 H   0  0  0  0  0  0  0  0  0  0  0  0
   -4.9948   20.0737  -31.6972 H   0  0  0  0  0  0  0  0  0  0  0  0
  1  2  1  0
  2  3  1  0
  3  4  1  0
  4  5  2  0
  4  6  1  0
  6  7  1  0
  7  8  1  0
  7  9  1  0
  9 10  2  0
  9 11  1  0
 11 12  2  0
 11 13  1  0
 13 14  1  0
 14 15  1  0
 15 16  1  0
 15 17  2  0
 14 18  2  0
 18 19  1  0
 19 20  2  0
 20 21  1  0
 21 22  2  0
 22 23  1  0
 23 24  1  0
 23 25  1  0
 22 26  1  0
 26 27  2  0
 27 13  1  0
 27 19  1  0
  1 28  1  0
  1 29  1  0
  1 30  1  0
  2 31  1  0
  3 32  1  0
  3 33  1  0
  7 34  1  1
  8 35  1  0
  8 36  1  0
  8 37  1  0
 16 38  1  0
 16 39  1  0
 18 40  1  0
 20 41  1  0
 21 42  1  0
 23 43  1  0
 26 44  1  0
M  END
>  <UniqueID>  (33) 
33

>  <SMILES>  (33) 
CNCC(=O)O[C@@H](C)C(=O)C(=O)n1c(C(N)=O)cc2ccc(C(F)F)cc21

>  <Energy>  (33) 
75.95647922462514

>  <Genealogy>  (33) 
CNCC(=O)O[C@@H](C)C(=O)C(=O)n1c(C(N)=O)cc2ccc(C(F)F)cc21 (chirality)
CNCC(=O)O[C@@H](C)C(=O)C(=O)n1c(C(N)=O)cc2ccc(C(F)F)cc21 (3D coordinates assigned)
CNCC(=O)O[C@@H](C)C(=O)C(=O)n1c(C(N)=O)cc2ccc(C(F)F)cc21 (optimized conformer: 75.95647922462514 kcal/mol)

>  <smiles>  (33) 
CNCC(=O)OC(C)C(=O)C(=O)n1c(C(N)=O)cc2ccc(C(F)F)cc21

>  <score_type>  (33) 
oracle

>  <origin>  (33) 
adg

>  <m_score__min__energy>  (33) 
-8.3699999999999992

>  <m_primary>  (33) 
energy

$$$$
34:0
     RDKit          3D

 47 51  0  0  0  0  0  0  0  0999 V2000
   -6.1400   25.6020  -29.0730 N   0  0  0  0  0  0  0  0  0  0  0  0
   -5.5630   25.0280  -30.2480 C   0  0  0  0  0  0  0  0  0  0  0  0
   -4.6760   25.6690  -30.8740 O   0  0  0  0  0  0  0  0  0  0  0  0
   -6.0150   23.7210  -30.7700 C   0  0  0  0  0  0  0  0  0  0  0  0
   -7.3000   23.4880  -31.2540 C   0  0  0  0  0  0  0  0  0  0  0  0
   -7.3220   22.1560  -31.5990 C   0  0  0  0  0  0  0  0  0  0  0  0
   -8.3470   21.3860  -32.1430 C   0  0  0  0  0  0  0  0  0  0  0  0
   -8.0780   20.0360  -32.4280 C   0  0  0  0  0  0  0  0  0  0  0  0
   -6.7970   19.4850  -32.1680 C   0  0  0  0  0  0  0  0  0  0  0  0
   -6.5100   18.0460  -32.4860 C   0  0  0  0  0  0  0  0  0  0  0  0
   -7.6140   17.4720  -33.0910 F   0  0  0  0  0  0  0  0  0  0  0  0
   -6.2240   17.3600  -31.3190 F   0  0  0  0  0  0  0  0  0  0  0  0
   -5.7810   20.2970  -31.6190 C   0  0  0  0  0  0  0  0  0  0  0  0
   -6.0830   21.6340  -31.3340 C   0  0  0  0  0  0  0  0  0  0  0  0
   -5.2660   22.5840  -30.8340 N   0  0  0  0  0  0  0  0  0  0  0  0
   -3.8730   22.4200  -30.5190 C   0  0  0  0  0  0  0  0  0  0  0  0
   -3.1610   21.6810  -31.2520 O   0  0  0  0  0  0  0  0  0  0  0  0
   -3.2600   23.1120  -29.3600 C   0  0  0  0  0  0  0  0  0  0  0  0
   -2.0150   23.7450  -29.4830 C   0  0  0  0  0  0  0  0  0  0  0  0
   -1.4420   24.3920  -28.3870 C   0  0  0  0  0  0  0  0  0  0  0  0
   -2.1240   24.4120  -27.1590 C   0  0  0  0  0  0  0  0  0  0  0  0
   -1.5690   25.0660  -26.0020 N   0  0  0  0  0  0  0  0  0  0  0  0
   -0.5560   24.4850  -25.1330 C   0  0  0  0  0  0  0  0  0  0  0  0
   -0.2710   25.5240  -24.0570 C   0  0  1  0  0  0  0  0  0  0  0  0
    0.3400   26.8340  -24.5310 C   0  0  0  0  0  0  0  0  0  0  0  0
   -1.1650   26.7200  -24.3360 C   0  0  1  0  0  0  0  0  0  0  0  0
   -1.9820   26.3950  -25.5790 C   0  0  0  0  0  0  0  0  0  0  0  0
   -3.3380   23.8010  -27.0670 N   0  0  0  0  0  0  0  0  0  0  0  0
   -3.9140   23.1640  -28.1200 C   0  0  0  0  0  0  0  0  0  0  0  0
   -6.9980   25.1990  -28.6400 H   0  0  0  0  0  0  0  0  0  0  0  0
   -5.7590   26.4930  -28.6870 H   0  0  0  0  0  0  0  0  0  0  0  0
   -8.1219   24.2138  -31.3418 H   0  0  0  0  0  0  0  0  0  0  0  0
   -9.3372   21.8211  -32.3436 H   0  0  0  0  0  0  0  0  0  0  0  0
   -8.8678   19.4014  -32.8564 H   0  0  0  0  0  0  0  0  0  0  0  0
   -5.6478   17.9934  -33.1671 H   0  0  0  0  0  0  0  0  0  0  0  0
   -4.7786   19.8900  -31.4204 H   0  0  0  0  0  0  0  0  0  0  0  0
   -1.4872   23.7317  -30.4480 H   0  0  0  0  0  0  0  0  0  0  0  0
   -0.4625   24.8832  -28.4842 H   0  0  0  0  0  0  0  0  0  0  0  0
   -0.9317   23.5572  -24.6769 H   0  0  0  0  0  0  0  0  0  0  0  0
    0.3548   24.2300  -25.6946 H   0  0  0  0  0  0  0  0  0  0  0  0
   -0.0117   24.8543  -23.2238 H   0  0  0  0  0  0  0  0  0  0  0  0
    0.9399   27.4435  -23.8392 H   0  0  0  0  0  0  0  0  0  0  0  0
    0.9970   27.1309  -25.3617 H   0  0  0  0  0  0  0  0  0  0  0  0
   -1.8863   27.3616  -23.8087 H   0  0  0  0  0  0  0  0  0  0  0  0
   -3.0561   26.4027  -25.3418 H   0  0  0  0  0  0  0  0  0  0  0  0
   -1.8150   27.1376  -26.3731 H   0  0  0  0  0  0  0  0  0  0  0  0
   -4.8978   22.6868  -27.9996 H   0  0  0  0  0  0  0  0  0  0  0  0
  1  2  1  0
  2  3  2  0
  2  4  1  0
  4  5  2  0
  5  6  1  0
  6  7  2  0
  7  8  1  0
  8  9  2  0
  9 10  1  0
 10 11  1  0
 10 12  1  0
  9 13  1  0
 13 14  2  0
 14 15  1  0
 15 16  1  0
 16 17  2  0
 16 18  1  0
 18 19  2  0
 19 20  1  0
 20 21  2  0
 21 22  1  0
 22 23  1  0
 23 24  1  0
 24 25  1  0
 25 26  1  0
 26 27  1  0
 21 28  1  0
 28 29  2  0
 15  4  1  0
 29 18  1  0
 14  6  1  0
 27 22  1  0
 26 24  1  0
  1 30  1  0
  1 31  1  0
  5 32  1  0
  7 33  1  0
  8 34  1  0
 10 35  1  0
 13 36  1  0
 19 37  1  0
 20 38  1  0
 23 39  1  0
 23 40  1  0
 24 41  1  1
 25 42  1  0
 25 43  1  0
 26 44  1  1
 27 45  1  0
 27 46  1  0
 29 47  1  0
M  END
>  <UniqueID>  (34) 
34

>  <SMILES>  (34) 
NC(=O)c1cc2ccc(C(F)F)cc2n1C(=O)c1ccc(N2C[C@H]3C[C@H]3C2)nc1

>  <Energy>  (34) 
358.76527438279146

>  <Genealogy>  (34) 
NC(=O)c1cc2ccc(C(F)F)cc2n1C(=O)c1ccc(N2C[C@H]3C[C@H]3C2)nc1 (chirality)
NC(=O)c1cc2ccc(C(F)F)cc2n1C(=O)c1ccc(N2C[C@H]3C[C@H]3C2)nc1 (3D coordinates assigned)
NC(=O)c1cc2ccc(C(F)F)cc2n1C(=O)c1ccc(N2C[C@H]3C[C@H]3C2)nc1 (nonaromatic ring conformer: 358.76527438279146 kcal/mol)

>  <smiles>  (34) 
NC(=O)c1cc2ccc(C(F)F)cc2n1C(=O)c1ccc(N2CC3CC3C2)nc1

>  <score_type>  (34) 
oracle

>  <origin>  (34) 
adg

>  <m_score__min__energy>  (34) 
-9.9199999999999999

>  <m_primary>  (34) 
energy

$$$$
35:0
     RDKit          3D

 35 36  0  0  0  0  0  0  0  0999 V2000
   -3.4720   23.6480  -28.0710 C   0  0  0  0  0  0  0  0  0  0  0  0
   -2.7040   22.9080  -29.0780 N   0  0  0  0  0  0  0  0  0  0  0  0
   -1.2580   23.1630  -29.2210 C   0  0  0  0  0  0  0  0  0  0  0  0
   -0.9360   24.5890  -28.8950 C   0  0  0  0  0  0  0  0  0  0  0  0
   -1.6840   25.5170  -29.3000 O   0  0  0  0  0  0  0  0  0  0  0  0
    0.2110   24.8950  -28.1740 O   0  0  0  0  0  0  0  0  0  0  0  0
   -3.4260   22.0230  -29.9630 C   0  0  0  0  0  0  0  0  0  0  0  0
   -3.4760   20.7930  -29.6860 O   0  0  0  0  0  0  0  0  0  0  0  0
   -4.0930   22.4880  -31.2010 C   0  0  0  0  0  0  0  0  0  0  0  0
   -3.4430   22.6340  -32.2690 O   0  0  0  0  0  0  0  0  0  0  0  0
   -5.5040   22.7510  -31.2070 N   0  0  0  0  0  0  0  0  0  0  0  0
   -6.1330   23.9310  -30.9430 C   0  0  0  0  0  0  0  0  0  0  0  0
   -5.4840   25.1650  -30.4520 C   0  0  0  0  0  0  0  0  0  0  0  0
   -4.0790   25.3570  -30.5810 N   0  0  0  0  0  0  0  0  0  0  0  0
   -6.1760   26.0510  -29.8840 O   0  0  0  0  0  0  0  0  0  0  0  0
   -7.5050   23.8130  -31.1590 C   0  0  0  0  0  0  0  0  0  0  0  0
   -7.6990   22.5130  -31.5710 C   0  0  0  0  0  0  0  0  0  0  0  0
   -8.8660   21.8530  -31.9420 C   0  0  0  0  0  0  0  0  0  0  0  0
   -8.7630   20.5120  -32.3570 C   0  0  0  0  0  0  0  0  0  0  0  0
   -7.5030   19.8670  -32.4000 C   0  0  0  0  0  0  0  0  0  0  0  0
   -7.4080   18.5090  -32.8340 N   0  0  0  0  0  0  0  0  0  0  0  0
   -6.3380   20.5680  -32.0220 C   0  0  0  0  0  0  0  0  0  0  0  0
   -6.4750   21.8950  -31.5950 C   0  0  0  0  0  0  0  0  0  0  0  0
   -3.1513   23.3390  -27.0652 H   0  0  0  0  0  0  0  0  0  0  0  0
   -3.2972   24.7268  -28.1963 H   0  0  0  0  0  0  0  0  0  0  0  0
   -4.5435   23.4332  -28.1963 H   0  0  0  0  0  0  0  0  0  0  0  0
   -0.7056   22.5027  -28.5363 H   0  0  0  0  0  0  0  0  0  0  0  0
   -0.9656   22.9641  -30.2626 H   0  0  0  0  0  0  0  0  0  0  0  0
   -3.5030   25.6740  -29.7710 H   0  0  0  0  0  0  0  0  0  0  0  0
   -8.2702   24.5924  -31.0282 H   0  0  0  0  0  0  0  0  0  0  0  0
   -9.8398   22.3637  -31.9119 H   0  0  0  0  0  0  0  0  0  0  0  0
   -9.6685   19.9606  -32.6503 H   0  0  0  0  0  0  0  0  0  0  0  0
   -6.7920   17.8290  -32.3350 H   0  0  0  0  0  0  0  0  0  0  0  0
   -7.9470   18.1750  -33.6660 H   0  0  0  0  0  0  0  0  0  0  0  0
   -5.3501   20.0859  -32.0616 H   0  0  0  0  0  0  0  0  0  0  0  0
  1  2  1  0
  2  3  1  0
  3  4  1  0
  4  5  2  0
  4  6  1  0
  2  7  1  0
  7  8  2  0
  7  9  1  0
  9 10  2  0
  9 11  1  0
 11 12  1  0
 12 13  1  0
 13 14  1  0
 13 15  2  0
 12 16  2  0
 16 17  1  0
 17 18  2  0
 18 19  1  0
 19 20  2  0
 20 21  1  0
 20 22  1  0
 22 23  2  0
 23 11  1  0
 23 17  1  0
  1 24  1  0
  1 25  1  0
  1 26  1  0
  3 27  1  0
  3 28  1  0
 14 29  1  0
 16 30  1  0
 18 31  1  0
 19 32  1  0
 21 33  1  0
 21 34  1  0
 22 35  1  0
M  CHG  2   6  -1  14  -1
M  END
>  <UniqueID>  (35) 
35

>  <SMILES>  (35) 
CN(CC(=O)[O-])C(=O)C(=O)n1c(C([NH-])=O)cc2ccc(N)cc21

>  <Energy>  (35) 
75.4450053671973

>  <Genealogy>  (35) 
CN(CC(=O)[O-])C(=O)C(=O)n1c(C([NH-])=O)cc2ccc(N)cc21 (protonated)
CN(CC(=O)[O-])C(=O)C(=O)n1c(C([NH-])=O)cc2ccc(N)cc21 (3D coordinates assigned)
CN(CC(=O)[O-])C(=O)C(=O)n1c(C([NH-])=O)cc2ccc(N)cc21 (optimized conformer: 75.4450053671973 kcal/mol)

>  <smiles>  (35) 
CN(CC(=O)O)C(=O)C(=O)n1c(C(N)=O)cc2ccc(N)cc21

>  <score_type>  (35) 
oracle

>  <origin>  (35) 
adg

>  <m_score__min__energy>  (35) 
-12.01

>  <m_primary>  (35) 
energy

$$$$
36:0
     RDKit          3D

 44 45  0  0  0  0  0  0  0  0999 V2000
   -0.9740   22.8340  -26.9330 C   0  0  0  0  0  0  0  0  0  0  0  0
   -1.5140   23.1350  -28.3380 C   0  0  2  0  0  0  0  0  0  0  0  0
   -1.2580   24.5570  -28.7580 C   0  0  0  0  0  0  0  0  0  0  0  0
   -0.1520   25.1130  -28.5250 O   0  0  0  0  0  0  0  0  0  0  0  0
   -2.2730   25.2870  -29.3630 O   0  0  0  0  0  0  0  0  0  0  0  0
   -2.9500   22.8130  -28.4430 N   0  0  0  0  0  0  0  0  0  0  0  0
   -3.9280   23.4680  -27.5640 C   0  0  0  0  0  0  0  0  0  0  0  0
   -3.4090   21.9980  -29.5420 C   0  0  0  0  0  0  0  0  0  0  0  0
   -3.4160   20.7430  -29.4200 O   0  0  0  0  0  0  0  0  0  0  0  0
   -3.8730   22.5880  -30.8190 C   0  0  0  0  0  0  0  0  0  0  0  0
   -3.0460   22.9910  -31.6780 O   0  0  0  0  0  0  0  0  0  0  0  0
   -5.2780   22.7150  -31.0900 N   0  0  0  0  0  0  0  0  0  0  0  0
   -6.0590   23.8140  -30.8990 C   0  0  0  0  0  0  0  0  0  0  0  0
   -5.5670   25.1440  -30.4670 C   0  0  0  0  0  0  0  0  0  0  0  0
   -4.2100   25.5330  -30.6850 N   0  0  0  0  0  0  0  0  0  0  0  0
   -6.3470   25.9470  -29.8900 O   0  0  0  0  0  0  0  0  0  0  0  0
   -7.3860   23.5260  -31.2250 C   0  0  0  0  0  0  0  0  0  0  0  0
   -7.3890   22.2030  -31.6090 C   0  0  0  0  0  0  0  0  0  0  0  0
   -8.4410   21.3930  -32.0260 C   0  0  0  0  0  0  0  0  0  0  0  0
   -8.1550   20.0530  -32.3410 C   0  0  0  0  0  0  0  0  0  0  0  0
   -6.8360   19.5470  -32.2140 C   0  0  0  0  0  0  0  0  0  0  0  0
   -6.5360   18.1190  -32.5770 C   0  0  0  0  0  0  0  0  0  0  0  0
   -6.1350   18.0090  -34.0500 C   0  0  0  0  0  0  0  0  0  0  0  0
   -6.0850   19.2820  -34.6350 O   0  0  0  0  0  0  0  0  0  0  0  0
   -5.7930   20.4040  -31.7970 C   0  0  0  0  0  0  0  0  0  0  0  0
   -6.1040   21.7370  -31.5130 C   0  0  0  0  0  0  0  0  0  0  0  0
   -1.6742   23.2243  -26.1797 H   0  0  0  0  0  0  0  0  0  0  0  0
   -0.8677   21.7465  -26.8062 H   0  0  0  0  0  0  0  0  0  0  0  0
    0.0069   23.3155  -26.8062 H   0  0  0  0  0  0  0  0  0  0  0  0
   -0.9605   22.4842  -29.0309 H   0  0  0  0  0  0  0  0  0  0  0  0
   -3.6565   23.2862  -26.5136 H   0  0  0  0  0  0  0  0  0  0  0  0
   -3.9301   24.5504  -27.7601 H   0  0  0  0  0  0  0  0  0  0  0  0
   -4.9297   23.0579  -27.7601 H   0  0  0  0  0  0  0  0  0  0  0  0
   -3.8720   26.4610  -30.3430 H   0  0  0  0  0  0  0  0  0  0  0  0
   -3.5450   24.9310  -31.2170 H   0  0  0  0  0  0  0  0  0  0  0  0
   -8.2463   24.2103  -31.1839 H   0  0  0  0  0  0  0  0  0  0  0  0
   -9.4642   21.7887  -32.1066 H   0  0  0  0  0  0  0  0  0  0  0  0
   -8.9615   19.3909  -32.6891 H   0  0  0  0  0  0  0  0  0  0  0  0
   -5.7102   17.7526  -31.9495 H   0  0  0  0  0  0  0  0  0  0  0  0
   -7.4393   17.5139  -32.4098 H   0  0  0  0  0  0  0  0  0  0  0  0
   -5.1442   17.5368  -34.1224 H   0  0  0  0  0  0  0  0  0  0  0  0
   -6.8815   17.3996  -34.5804 H   0  0  0  0  0  0  0  0  0  0  0  0
   -6.8360   19.3270  -35.2830 H   0  0  0  0  0  0  0  0  0  0  0  0
   -4.7626   20.0318  -31.6983 H   0  0  0  0  0  0  0  0  0  0  0  0
  1  2  1  0
  2  3  1  0
  3  4  2  0
  3  5  1  0
  2  6  1  0
  6  7  1  0
  6  8  1  0
  8  9  2  0
  8 10  1  0
 10 11  2  0
 10 12  1  0
 12 13  1  0
 13 14  1  0
 14 15  1  0
 14 16  2  0
 13 17  2  0
 17 18  1  0
 18 19  2  0
 19 20  1  0
 20 21  2  0
 21 22  1  0
 22 23  1  0
 23 24  1  0
 21 25  1  0
 25 26  2  0
 26 12  1  0
 26 18  1  0
  1 27  1  0
  1 28  1  0
  1 29  1  0
  2 30  1  6
  7 31  1  0
  7 32  1  0
  7 33  1  0
 15 34  1  0
 15 35  1  0
 17 36  1  0
 19 37  1  0
 20 38  1  0
 22 39  1  0
 22 40  1  0
 23 41  1  0
 23 42  1  0
 24 43  1  0
 25 44  1  0
M  CHG  1   5  -1
M  END
>  <UniqueID>  (36) 
36

>  <SMILES>  (36) 
C[C@H](C(=O)[O-])N(C)C(=O)C(=O)n1c(C(N)=O)cc2ccc(CCO)cc21

>  <Energy>  (36) 
81.30643008577567

>  <Genealogy>  (36) 
CC(C(=O)[O-])N(C)C(=O)C(=O)n1c(C(N)=O)cc2ccc(CCO)cc21 (protonated)
C[C@H](C(=O)[O-])N(C)C(=O)C(=O)n1c(C(N)=O)cc2ccc(CCO)cc21 (chirality)
C[C@H](C(=O)[O-])N(C)C(=O)C(=O)n1c(C(N)=O)cc2ccc(CCO)cc21 (3D coordinates assigned)
C[C@H](C(=O)[O-])N(C)C(=O)C(=O)n1c(C(N)=O)cc2ccc(CCO)cc21 (optimized conformer: 81.30643008577567 kcal/mol)

>  <smiles>  (36) 
CC(C(=O)O)N(C)C(=O)C(=O)n1c(C(N)=O)cc2ccc(CCO)cc21

>  <score_type>  (36) 
oracle

>  <origin>  (36) 
adg

>  <m_score__min__energy>  (36) 
-11.529999999999999

>  <m_primary>  (36) 
energy

$$$$
37:0
     RDKit          3D

 49 51  0  0  0  0  0  0  0  0999 V2000
    1.5710   18.5100  -29.2970 C   0  0  0  0  0  0  0  0  0  0  0  0
    0.1460   18.7470  -29.5270 N   0  0  0  0  0  0  0  0  0  0  0  0
   -0.4750   18.2100  -30.7380 C   0  0  0  0  0  0  0  0  0  0  0  0
   -0.5520   19.7210  -28.7320 C   0  0  0  0  0  0  0  0  0  0  0  0
   -0.7500   19.4350  -27.1250 S   0  0  0  0  0  0  0  0  0  0  0  0
   -1.1850   20.8580  -29.3570 N   0  0  0  0  0  0  0  0  0  0  0  0
   -0.5370   21.5410  -30.4850 C   0  0  0  0  0  0  0  0  0  0  0  0
   -1.5260   21.6800  -31.6490 C   0  0  0  0  0  0  0  0  0  0  0  0
   -2.8580   22.0870  -31.1780 N   0  0  0  0  0  0  0  0  0  0  0  0
   -3.9340   22.1920  -32.1320 C   0  0  0  0  0  0  0  0  0  0  0  0
   -3.6780   22.2960  -33.3620 O   0  0  0  0  0  0  0  0  0  0  0  0
   -5.3040   22.1450  -31.7050 N   0  0  0  0  0  0  0  0  0  0  0  0
   -5.9940   23.1010  -31.0260 C   0  0  0  0  0  0  0  0  0  0  0  0
   -5.4150   24.3590  -30.5080 C   0  0  0  0  0  0  0  0  0  0  0  0
   -5.7710   24.8440  -29.2120 N   0  0  0  0  0  0  0  0  0  0  0  0
   -4.5950   25.0120  -31.2060 O   0  0  0  0  0  0  0  0  0  0  0  0
   -7.3130   22.6940  -30.8240 C   0  0  0  0  0  0  0  0  0  0  0  0
   -7.4050   21.4490  -31.4090 C   0  0  0  0  0  0  0  0  0  0  0  0
   -8.4860   20.5770  -31.5070 C   0  0  0  0  0  0  0  0  0  0  0  0
   -8.2880   19.3570  -32.1800 C   0  0  0  0  0  0  0  0  0  0  0  0
   -7.0290   19.0410  -32.7500 C   0  0  0  0  0  0  0  0  0  0  0  0
   -6.8450   17.7440  -33.4840 C   0  0  0  0  0  0  0  0  0  0  0  0
   -6.2040   16.8340  -32.6630 F   0  0  0  0  0  0  0  0  0  0  0  0
   -6.0810   17.9530  -34.6180 F   0  0  0  0  0  0  0  0  0  0  0  0
   -5.9620   19.9600  -32.6440 C   0  0  0  0  0  0  0  0  0  0  0  0
   -6.1790   21.1470  -31.9410 C   0  0  0  0  0  0  0  0  0  0  0  0
   -3.0550   22.4460  -29.7650 C   0  0  0  0  0  0  0  0  0  0  0  0
   -2.4810   21.3460  -28.8620 C   0  0  0  0  0  0  0  0  0  0  0  0
    1.7673   18.4773  -28.2152 H   0  0  0  0  0  0  0  0  0  0  0  0
    1.8613   17.5512  -29.7514 H   0  0  0  0  0  0  0  0  0  0  0  0
    2.1560   19.3232  -29.7514 H   0  0  0  0  0  0  0  0  0  0  0  0
   -1.2800   17.5139  -30.4595 H   0  0  0  0  0  0  0  0  0  0  0  0
   -0.8934   19.0355  -31.3325 H   0  0  0  0  0  0  0  0  0  0  0  0
    0.2815   17.6768  -31.3325 H   0  0  0  0  0  0  0  0  0  0  0  0
   -0.2071   22.5405  -30.1654 H   0  0  0  0  0  0  0  0  0  0  0  0
    0.3306   20.9511  -30.8155 H   0  0  0  0  0  0  0  0  0  0  0  0
   -1.1479   22.4380  -32.3508 H   0  0  0  0  0  0  0  0  0  0  0  0
   -1.6184   20.7012  -32.1425 H   0  0  0  0  0  0  0  0  0  0  0  0
   -5.3250   25.7100  -28.8360 H   0  0  0  0  0  0  0  0  0  0  0  0
   -6.5420   24.4050  -28.6660 H   0  0  0  0  0  0  0  0  0  0  0  0
   -8.1103   23.2487  -30.3076 H   0  0  0  0  0  0  0  0  0  0  0  0
   -9.4634   20.8334  -31.0723 H   0  0  0  0  0  0  0  0  0  0  0  0
   -9.1188   18.6411  -32.2647 H   0  0  0  0  0  0  0  0  0  0  0  0
   -7.8304   17.3503  -33.7737 H   0  0  0  0  0  0  0  0  0  0  0  0
   -4.9855   19.7465  -33.1032 H   0  0  0  0  0  0  0  0  0  0  0  0
   -2.5411   23.3956  -29.5548 H   0  0  0  0  0  0  0  0  0  0  0  0
   -4.1313   22.5537  -29.5653 H   0  0  0  0  0  0  0  0  0  0  0  0
   -2.3459   21.7512  -27.8483 H   0  0  0  0  0  0  0  0  0  0  0  0
   -3.1867   20.5022  -28.8581 H   0  0  0  0  0  0  0  0  0  0  0  0
  1  2  1  0
  2  3  1  0
  2  4  1  0
  4  5  2  0
  4  6  1  0
  6  7  1  0
  7  8  1  0
  8  9  1  0
  9 10  1  0
 10 11  2  0
 10 12  1  0
 12 13  1  0
 13 14  1  0
 14 15  1  0
 14 16  2  0
 13 17  2  0
 17 18  1  0
 18 19  2  0
 19 20  1  0
 20 21  2  0
 21 22  1  0
 22 23  1  0
 22 24  1  0
 21 25  1  0
 25 26  2  0
  9 27  1  0
 27 28  1  0
 28  6  1  0
 26 12  1  0
 26 18  1  0
  1 29  1  0
  1 30  1  0
  1 31  1  0
  3 32  1  0
  3 33  1  0
  3 34  1  0
  7 35  1  0
  7 36  1  0
  8 37  1  0
  8 38  1  0
 15 39  1  0
 15 40  1  0
 17 41  1  0
 19 42  1  0
 20 43  1  0
 22 44  1  0
 25 45  1  0
 27 46  1  0
 27 47  1  0
 28 48  1  0
 28 49  1  0
M  END
>  <UniqueID>  (37) 
37

>  <SMILES>  (37) 
CN(C)C(=S)N1CCN(C(=O)n2c(C(N)=O)cc3ccc(C(F)F)cc32)CC1

>  <Energy>  (37) 
92.55186874242823

>  <Genealogy>  (37) 
CN(C)C(=S)N1CCN(C(=O)n2c(C(N)=O)cc3ccc(C(F)F)cc32)CC1 (3D coordinates assigned)
CN(C)C(=S)N1CCN(C(=O)n2c(C(N)=O)cc3ccc(C(F)F)cc32)CC1 (nonaromatic ring conformer: 92.55186874242823 kcal/mol)

>  <smiles>  (37) 
CN(C)C(=S)N1CCN(C(=O)n2c(C(N)=O)cc3ccc(C(F)F)cc32)CC1

>  <score_type>  (37) 
oracle

>  <origin>  (37) 
adg

>  <m_score__min__energy>  (37) 
-9.2799999999999994

>  <m_primary>  (37) 
energy

$$$$
38:0
     RDKit          3D

 41 42  0  0  0  0  0  0  0  0999 V2000
   -3.9630   25.1860  -30.5350 N   0  0  0  0  0  0  0  0  0  0  0  0
   -5.3810   25.0930  -30.5840 C   0  0  0  0  0  0  0  0  0  0  0  0
   -6.0760   26.0840  -30.2350 O   0  0  0  0  0  0  0  0  0  0  0  0
   -6.0420   23.8420  -31.0060 C   0  0  0  0  0  0  0  0  0  0  0  0
   -7.3130   23.7890  -31.5770 C   0  0  0  0  0  0  0  0  0  0  0  0
   -7.5800   22.4480  -31.7510 C   0  0  0  0  0  0  0  0  0  0  0  0
   -8.6950   21.8150  -32.2920 C   0  0  0  0  0  0  0  0  0  0  0  0
   -8.6820   20.4120  -32.3710 C   0  0  0  0  0  0  0  0  0  0  0  0
   -7.5640   19.6720  -31.9100 C   0  0  0  0  0  0  0  0  0  0  0  0
   -7.5640   18.1750  -32.0140 C   0  0  0  0  0  0  0  0  0  0  0  0
   -7.2300   17.7940  -33.3000 F   0  0  0  0  0  0  0  0  0  0  0  0
   -6.6450   17.6460  -31.1260 F   0  0  0  0  0  0  0  0  0  0  0  0
   -6.4500   20.3500  -31.3660 C   0  0  0  0  0  0  0  0  0  0  0  0
   -6.4960   21.7450  -31.2950 C   0  0  0  0  0  0  0  0  0  0  0  0
   -5.5460   22.5840  -30.8370 N   0  0  0  0  0  0  0  0  0  0  0  0
   -4.2360   22.2020  -30.4000 C   0  0  0  0  0  0  0  0  0  0  0  0
   -4.0450   21.9350  -29.1810 O   0  0  0  0  0  0  0  0  0  0  0  0
   -3.1320   22.0190  -31.4130 C   0  0  2  0  0  0  0  0  0  0  0  0
   -3.0860   20.6740  -31.8180 O   0  0  0  0  0  0  0  0  0  0  0  0
   -1.7950   22.4300  -30.8560 C   0  0  0  0  0  0  0  0  0  0  0  0
   -0.7370   21.9240  -31.3190 O   0  0  0  0  0  0  0  0  0  0  0  0
   -1.7300   23.3660  -29.7730 N   0  0  0  0  0  0  0  0  0  0  0  0
   -0.4530   23.7590  -29.1770 C   0  0  0  0  0  0  0  0  0  0  0  0
   -0.6550   24.7900  -28.0680 C   0  0  0  0  0  0  0  0  0  0  0  0
   -1.9530   25.3640  -28.1780 O   0  0  0  0  0  0  0  0  0  0  0  0
   -3.0070   24.9500  -27.3930 N   0  0  0  0  0  0  0  0  0  0  0  0
   -3.0260   25.1830  -26.1670 O   0  0  0  0  0  0  0  0  0  0  0  0
   -4.0620   24.2860  -27.9730 O   0  0  0  0  0  0  0  0  0  0  0  0
   -3.4790   25.6040  -29.7100 H   0  0  0  0  0  0  0  0  0  0  0  0
   -7.9643   24.6373  -31.8340 H   0  0  0  0  0  0  0  0  0  0  0  0
   -9.5598   22.3949  -32.6468 H   0  0  0  0  0  0  0  0  0  0  0  0
   -9.5481   19.8825  -32.7948 H   0  0  0  0  0  0  0  0  0  0  0  0
   -8.5687   17.7986  -31.7711 H   0  0  0  0  0  0  0  0  0  0  0  0
   -5.5704   19.7949  -31.0081 H   0  0  0  0  0  0  0  0  0  0  0  0
   -3.3493   22.6646  -32.2767 H   0  0  0  0  0  0  0  0  0  0  0  0
   -2.1720   20.3440  -31.6250 H   0  0  0  0  0  0  0  0  0  0  0  0
   -2.6200   23.7610  -29.3980 H   0  0  0  0  0  0  0  0  0  0  0  0
    0.0349   22.8683  -28.7543 H   0  0  0  0  0  0  0  0  0  0  0  0
    0.1735   24.2091  -29.9611 H   0  0  0  0  0  0  0  0  0  0  0  0
   -0.5541   24.2987  -27.0890 H   0  0  0  0  0  0  0  0  0  0  0  0
    0.1029   25.5815  -28.1636 H   0  0  0  0  0  0  0  0  0  0  0  0
  1  2  1  0
  2  3  2  0
  2  4  1  0
  4  5  2  0
  5  6  1  0
  6  7  2  0
  7  8  1  0
  8  9  2  0
  9 10  1  0
 10 11  1  0
 10 12  1  0
  9 13  1  0
 13 14  2  0
 14 15  1  0
 15 16  1  0
 16 17  2  0
 16 18  1  0
 18 19  1  0
 18 20  1  0
 20 21  2  0
 20 22  1  0
 22 23  1  0
 23 24  1  0
 24 25  1  0
 25 26  1  0
 26 27  2  0
 26 28  1  0
 15  4  1  0
 14  6  1  0
  1 29  1  0
  5 30  1  0
  7 31  1  0
  8 32  1  0
 10 33  1  0
 13 34  1  0
 18 35  1  6
 19 36  1  0
 22 37  1  0
 23 38  1  0
 23 39  1  0
 24 40  1  0
 24 41  1  0
M  CHG  3   1  -1  26   1  28  -1
M  END
>  <UniqueID>  (38) 
38

>  <SMILES>  (38) 
[NH-]C(=O)c1cc2ccc(C(F)F)cc2n1C(=O)[C@H](O)C(=O)NCCO[N+](=O)[O-]

>  <Energy>  (38) 
74.88928787996242

>  <Genealogy>  (38) 
[NH-]C(=O)c1cc2ccc(C(F)F)cc2n1C(=O)C(O)C(=O)NCCO[N+](=O)[O-] (protonated)
[NH-]C(=O)c1cc2ccc(C(F)F)cc2n1C(=O)[C@H](O)C(=O)NCCO[N+](=O)[O-] (chirality)
[NH-]C(=O)c1cc2ccc(C(F)F)cc2n1C(=O)[C@H](O)C(=O)NCCO[N+](=O)[O-] (3D coordinates assigned)
[NH-]C(=O)c1cc2ccc(C(F)F)cc2n1C(=O)[C@H](O)C(=O)NCCO[N+](=O)[O-] (optimized conformer: 74.88928787996242 kcal/mol)

>  <smiles>  (38) 
NC(=O)c1cc2ccc(C(F)F)cc2n1C(=O)C(O)C(=O)NCCO[N+](=O)[O-]

>  <score_type>  (38) 
oracle

>  <origin>  (38) 
adg

>  <m_score__min__energy>  (38) 
-9.5299999999999994

>  <m_primary>  (38) 
energy

$$$$
39:0
     RDKit          3D

 50 51  0  0  0  0  0  0  0  0999 V2000
   -6.3700   17.2690  -31.5850 C   0  0  0  0  0  0  0  0  0  0  0  0
   -6.4730   18.2730  -32.6530 N   0  0  0  0  0  0  0  0  0  0  0  0
   -6.3770   17.8360  -34.0580 C   0  0  0  0  0  0  0  0  0  0  0  0
   -5.0100   18.2170  -34.6590 C   0  0  0  0  0  0  0  0  0  0  0  0
   -3.9340   18.2400  -33.6370 N   0  0  0  0  0  0  0  0  0  0  0  0
   -3.0680   19.4150  -33.8400 C   0  0  0  0  0  0  0  0  0  0  0  0
   -3.1160   17.0140  -33.6910 C   0  0  0  0  0  0  0  0  0  0  0  0
   -6.6850   19.6690  -32.3100 C   0  0  0  0  0  0  0  0  0  0  0  0
   -7.9900   20.2390  -32.3680 C   0  0  0  0  0  0  0  0  0  0  0  0
   -8.2100   21.5860  -32.0350 C   0  0  0  0  0  0  0  0  0  0  0  0
   -7.1190   22.3460  -31.6320 C   0  0  0  0  0  0  0  0  0  0  0  0
   -7.0430   23.6700  -31.2610 C   0  0  0  0  0  0  0  0  0  0  0  0
   -5.7020   23.8930  -30.9550 C   0  0  0  0  0  0  0  0  0  0  0  0
   -5.1760   25.1820  -30.4550 C   0  0  0  0  0  0  0  0  0  0  0  0
   -3.8960   25.6630  -30.8590 N   0  0  0  0  0  0  0  0  0  0  0  0
   -5.8590   25.8590  -29.6390 O   0  0  0  0  0  0  0  0  0  0  0  0
   -4.9790   22.7520  -31.1310 N   0  0  0  0  0  0  0  0  0  0  0  0
   -3.5690   22.5670  -30.9510 C   0  0  0  0  0  0  0  0  0  0  0  0
   -2.8170   22.4710  -31.9590 O   0  0  0  0  0  0  0  0  0  0  0  0
   -2.9740   22.5250  -29.5740 C   0  0  0  0  0  0  0  0  0  0  0  0
   -3.1680   23.7680  -28.9260 O   0  0  0  0  0  0  0  0  0  0  0  0
   -2.1020   24.0550  -28.0410 C   0  0  0  0  0  0  0  0  0  0  0  0
   -1.0030   24.7750  -28.7600 C   0  0  0  0  0  0  0  0  0  0  0  0
    0.1370   24.2480  -28.8660 O   0  0  0  0  0  0  0  0  0  0  0  0
   -1.2390   26.0270  -29.3130 O   0  0  0  0  0  0  0  0  0  0  0  0
   -5.8590   21.8180  -31.5490 C   0  0  0  0  0  0  0  0  0  0  0  0
   -5.6030   20.4920  -31.9060 C   0  0  0  0  0  0  0  0  0  0  0  0
   -6.4212   17.7683  -30.6062 H   0  0  0  0  0  0  0  0  0  0  0  0
   -7.1993   16.5519  -31.6747 H   0  0  0  0  0  0  0  0  0  0  0  0
   -5.4124   16.7352  -31.6747 H   0  0  0  0  0  0  0  0  0  0  0  0
   -6.4995   16.7438  -34.1049 H   0  0  0  0  0  0  0  0  0  0  0  0
   -7.1676   18.3359  -34.6369 H   0  0  0  0  0  0  0  0  0  0  0  0
   -4.7467   17.4820  -35.4339 H   0  0  0  0  0  0  0  0  0  0  0  0
   -5.0970   19.2295  -35.0800 H   0  0  0  0  0  0  0  0  0  0  0  0
   -4.3570   18.3190  -32.6810 H   0  0  0  0  0  0  0  0  0  0  0  0
   -2.7678   19.8223  -32.8633 H   0  0  0  0  0  0  0  0  0  0  0  0
   -2.1719   19.1170  -34.4041 H   0  0  0  0  0  0  0  0  0  0  0  0
   -3.6179   20.1827  -34.4041 H   0  0  0  0  0  0  0  0  0  0  0  0
   -2.8916   16.6776  -32.6680 H   0  0  0  0  0  0  0  0  0  0  0  0
   -3.6703   16.2265  -34.2226 H   0  0  0  0  0  0  0  0  0  0  0  0
   -2.1761   17.2235  -34.2226 H   0  0  0  0  0  0  0  0  0  0  0  0
   -8.8397   19.6134  -32.6789 H   0  0  0  0  0  0  0  0  0  0  0  0
   -9.2165   22.0261  -32.0917 H   0  0  0  0  0  0  0  0  0  0  0  0
   -7.8667   24.3977  -31.2158 H   0  0  0  0  0  0  0  0  0  0  0  0
   -3.0230   25.3040  -30.4140 H   0  0  0  0  0  0  0  0  0  0  0  0
   -3.4611   21.7298  -28.9905 H   0  0  0  0  0  0  0  0  0  0  0  0
   -1.8956   22.3224  -29.6521 H   0  0  0  0  0  0  0  0  0  0  0  0
   -2.4727   24.6871  -27.2206 H   0  0  0  0  0  0  0  0  0  0  0  0
   -1.7064   23.1094  -27.6420 H   0  0  0  0  0  0  0  0  0  0  0  0
   -4.5786   20.0926  -31.8743 H   0  0  0  0  0  0  0  0  0  0  0  0
  1  2  1  0
  2  3  1  0
  3  4  1  0
  4  5  1  0
  5  6  1  0
  5  7  1  0
  2  8  1  0
  8  9  2  0
  9 10  1  0
 10 11  2  0
 11 12  1  0
 12 13  2  0
 13 14  1  0
 14 15  1  0
 14 16  2  0
 13 17  1  0
 17 18  1  0
 18 19  2  0
 18 20  1  0
 20 21  1  0
 21 22  1  0
 22 23  1  0
 23 24  2  0
 23 25  1  0
 17 26  1  0
 26 27  2  0
 27  8  1  0
 26 11  1  0
  1 28  1  0
  1 29  1  0
  1 30  1  0
  3 31  1  0
  3 32  1  0
  4 33  1  0
  4 34  1  0
  5 35  1  0
  6 36  1  0
  6 37  1  0
  6 38  1  0
  7 39  1  0
  7 40  1  0
  7 41  1  0
  9 42  1  0
 10 43  1  0
 12 44  1  0
 15 45  1  0
 20 46  1  0
 20 47  1  0
 22 48  1  0
 22 49  1  0
 27 50  1  0
M  CHG  3   5   1  15  -1  25  -1
M  END
>  <UniqueID>  (39) 
39

>  <SMILES>  (39) 
CN(CC[NH+](C)C)c1ccc2cc(C([NH-])=O)n(C(=O)COCC(=O)[O-])c2c1

>  <Energy>  (39) 
91.645821093474

>  <Genealogy>  (39) 
CN(CC[NH+](C)C)c1ccc2cc(C([NH-])=O)n(C(=O)COCC(=O)[O-])c2c1 (protonated)
CN(CC[NH+](C)C)c1ccc2cc(C([NH-])=O)n(C(=O)COCC(=O)[O-])c2c1 (3D coordinates assigned)
CN(CC[NH+](C)C)c1ccc2cc(C([NH-])=O)n(C(=O)COCC(=O)[O-])c2c1 (optimized conformer: 91.645821093474 kcal/mol)

>  <smiles>  (39) 
CN(C)CCN(C)c1ccc2cc(C(N)=O)n(C(=O)COCC(=O)O)c2c1

>  <score_type>  (39) 
oracle

>  <origin>  (39) 
adg

>  <m_score__min__energy>  (39) 
-11.76

>  <m_primary>  (39) 
energy

$$$$
40:0
     RDKit          3D

 42 44  0  0  0  0  0  0  0  0999 V2000
   -3.8960   25.3940  -30.8390 N   0  0  0  0  0  0  0  0  0  0  0  0
   -5.2870   25.2080  -30.5890 C   0  0  0  0  0  0  0  0  0  0  0  0
   -5.9520   26.1490  -30.0800 O   0  0  0  0  0  0  0  0  0  0  0  0
   -5.9640   23.9450  -30.9520 C   0  0  0  0  0  0  0  0  0  0  0  0
   -7.3350   23.8390  -31.1790 C   0  0  0  0  0  0  0  0  0  0  0  0
   -7.5470   22.5230  -31.5240 C   0  0  0  0  0  0  0  0  0  0  0  0
   -8.7300   21.8500  -31.8220 C   0  0  0  0  0  0  0  0  0  0  0  0
   -8.6540   20.4700  -32.0810 C   0  0  0  0  0  0  0  0  0  0  0  0
   -7.4150   19.7880  -32.0170 C   0  0  0  0  0  0  0  0  0  0  0  0
   -7.3730   18.3740  -32.2700 N   0  0  0  0  0  0  0  0  0  0  0  0
   -6.3470   17.7210  -33.0390 C   0  0  0  0  0  0  0  0  0  0  0  0
   -5.9810   18.2440  -34.2880 C   0  0  0  0  0  0  0  0  0  0  0  0
   -4.9970   17.6140  -35.0570 C   0  0  0  0  0  0  0  0  0  0  0  0
   -4.3820   16.4480  -34.5910 C   0  0  0  0  0  0  0  0  0  0  0  0
   -3.4300   15.8380  -35.3390 F   0  0  0  0  0  0  0  0  0  0  0  0
   -4.7590   15.9050  -33.3600 C   0  0  0  0  0  0  0  0  0  0  0  0
   -5.7420   16.5320  -32.5890 C   0  0  0  0  0  0  0  0  0  0  0  0
   -6.2320   20.5130  -31.7430 C   0  0  0  0  0  0  0  0  0  0  0  0
   -6.3350   21.8850  -31.5020 C   0  0  0  0  0  0  0  0  0  0  0  0
   -5.3540   22.7450  -31.1590 N   0  0  0  0  0  0  0  0  0  0  0  0
   -3.9840   22.3990  -30.9240 C   0  0  0  0  0  0  0  0  0  0  0  0
   -3.1580   22.4310  -31.8760 O   0  0  0  0  0  0  0  0  0  0  0  0
   -3.5870   21.9830  -29.6480 O   0  0  0  0  0  0  0  0  0  0  0  0
   -2.5460   22.6160  -28.9030 C   0  0  0  0  0  0  0  0  0  0  0  0
   -2.7090   24.0740  -28.8810 N   0  0  0  0  0  0  0  0  0  0  0  0
   -1.1850   24.8640  -28.4850 P   0  0  0  0  0  0  0  0  0  0  0  0
   -0.0580   24.1460  -29.1910 O   0  0  0  0  0  0  0  0  0  0  0  0
   -0.9170   24.8030  -26.8150 O   0  0  0  0  0  0  0  0  0  0  0  0
   -1.2180   26.4770  -28.9930 O   0  0  0  0  0  0  0  0  0  0  0  0
   -3.2680   24.5790  -31.0120 H   0  0  0  0  0  0  0  0  0  0  0  0
   -8.0878   24.6371  -31.0994 H   0  0  0  0  0  0  0  0  0  0  0  0
   -9.6927   22.3812  -31.8537 H   0  0  0  0  0  0  0  0  0  0  0  0
   -9.5680   19.9138  -32.3364 H   0  0  0  0  0  0  0  0  0  0  0  0
   -8.1380   17.7820  -31.8720 H   0  0  0  0  0  0  0  0  0  0  0  0
   -6.4703   19.1543  -34.6647 H   0  0  0  0  0  0  0  0  0  0  0  0
   -4.7065   18.0367  -36.0301 H   0  0  0  0  0  0  0  0  0  0  0  0
   -4.2816   14.9828  -32.9971 H   0  0  0  0  0  0  0  0  0  0  0  0
   -6.0443   16.0944  -31.6261 H   0  0  0  0  0  0  0  0  0  0  0  0
   -5.2547   20.0087  -31.7202 H   0  0  0  0  0  0  0  0  0  0  0  0
   -2.5659   22.2387  -27.8699 H   0  0  0  0  0  0  0  0  0  0  0  0
   -1.5858   22.3839  -29.3869 H   0  0  0  0  0  0  0  0  0  0  0  0
   -2.9970   24.4050  -29.8290 H   0  0  0  0  0  0  0  0  0  0  0  0
  1  2  1  0
  2  3  2  0
  2  4  1  0
  4  5  2  0
  5  6  1  0
  6  7  2  0
  7  8  1  0
  8  9  2  0
  9 10  1  0
 10 11  1  0
 11 12  2  0
 12 13  1  0
 13 14  2  0
 14 15  1  0
 14 16  1  0
 16 17  2  0
  9 18  1  0
 18 19  2  0
 19 20  1  0
 20 21  1  0
 21 22  2  0
 21 23  1  0
 23 24  1  0
 24 25  1  0
 25 26  1  0
 26 27  2  0
 26 28  1  0
 26 29  1  0
 20  4  1  0
 19  6  1  0
 17 11  1  0
  1 30  1  0
  5 31  1  0
  7 32  1  0
  8 33  1  0
 10 34  1  0
 12 35  1  0
 13 36  1  0
 16 37  1  0
 17 38  1  0
 18 39  1  0
 24 40  1  0
 24 41  1  0
 25 42  1  0
M  CHG  3   1  -1  28  -1  29  -1
M  END
>  <UniqueID>  (40) 
40

>  <SMILES>  (40) 
[NH-]C(=O)c1cc2ccc(Nc3ccc(F)cc3)cc2n1C(=O)OCNP(=O)([O-])[O-]

>  <Energy>  (40) 
83.76479176898268

>  <Genealogy>  (40) 
[NH-]C(=O)c1cc2ccc(Nc3ccc(F)cc3)cc2n1C(=O)OCNP(=O)([O-])[O-] (protonated)
[NH-]C(=O)c1cc2ccc(Nc3ccc(F)cc3)cc2n1C(=O)OCNP(=O)([O-])[O-] (3D coordinates assigned)
[NH-]C(=O)c1cc2ccc(Nc3ccc(F)cc3)cc2n1C(=O)OCNP(=O)([O-])[O-] (optimized conformer: 83.76479176898268 kcal/mol)

>  <smiles>  (40) 
NC(=O)c1cc2ccc(Nc3ccc(F)cc3)cc2n1C(=O)OCNP(=O)(O)O

>  <score_type>  (40) 
oracle

>  <origin>  (40) 
adg

>  <m_score__min__energy>  (40) 
-14.91

>  <m_primary>  (40) 
energy

$$$$
41:0
     RDKit          3D

 35 36  0  0  0  0  0  0  0  0999 V2000
   -3.9340   25.6680  -30.8640 N   0  0  0  0  0  0  0  0  0  0  0  0
   -5.2530   25.3300  -30.4400 C   0  0  0  0  0  0  0  0  0  0  0  0
   -5.9000   26.1460  -29.7310 O   0  0  0  0  0  0  0  0  0  0  0  0
   -5.8880   24.0650  -30.8660 C   0  0  0  0  0  0  0  0  0  0  0  0
   -7.2650   23.9160  -31.0250 C   0  0  0  0  0  0  0  0  0  0  0  0
   -7.4380   22.6420  -31.5160 C   0  0  0  0  0  0  0  0  0  0  0  0
   -8.6050   21.9630  -31.8500 C   0  0  0  0  0  0  0  0  0  0  0  0
   -8.4890   20.6420  -32.3120 C   0  0  0  0  0  0  0  0  0  0  0  0
   -7.2200   20.0190  -32.4280 C   0  0  0  0  0  0  0  0  0  0  0  0
   -7.1540   18.6570  -32.8960 N   0  0  0  0  0  0  0  0  0  0  0  0
   -6.1500   17.6780  -32.4740 C   0  0  0  0  0  0  0  0  0  0  0  0
   -4.8170   17.9080  -33.1900 C   0  0  0  0  0  0  0  0  0  0  0  0
   -5.0100   17.7340  -34.9550 Cl  0  0  0  0  0  0  0  0  0  0  0  0
   -6.0560   20.7420  -32.0680 C   0  0  0  0  0  0  0  0  0  0  0  0
   -6.2010   22.0640  -31.6330 C   0  0  0  0  0  0  0  0  0  0  0  0
   -5.2380   22.9250  -31.2330 N   0  0  0  0  0  0  0  0  0  0  0  0
   -3.8320   22.6450  -31.1540 C   0  0  0  0  0  0  0  0  0  0  0  0
   -3.2510   22.0690  -32.1140 O   0  0  0  0  0  0  0  0  0  0  0  0
   -3.1090   23.0380  -30.0220 O   0  0  0  0  0  0  0  0  0  0  0  0
   -1.6930   22.9210  -29.9170 C   0  0  0  0  0  0  0  0  0  0  0  0
   -1.1070   24.1710  -29.3420 C   0  0  0  0  0  0  0  0  0  0  0  0
    0.0870   24.1840  -28.9450 O   0  0  0  0  0  0  0  0  0  0  0  0
   -1.8690   25.3300  -29.2720 O   0  0  0  0  0  0  0  0  0  0  0  0
   -3.1020   25.1700  -30.4800 H   0  0  0  0  0  0  0  0  0  0  0  0
   -8.0464   24.6583  -30.8050 H   0  0  0  0  0  0  0  0  0  0  0  0
   -9.5887   22.4460  -31.7552 H   0  0  0  0  0  0  0  0  0  0  0  0
   -9.3950   20.0825  -32.5878 H   0  0  0  0  0  0  0  0  0  0  0  0
   -7.8740   18.3320  -33.5800 H   0  0  0  0  0  0  0  0  0  0  0  0
   -5.9946   17.7685  -31.3888 H   0  0  0  0  0  0  0  0  0  0  0  0
   -6.5145   16.6725  -32.7313 H   0  0  0  0  0  0  0  0  0  0  0  0
   -4.4565   18.9225  -32.9646 H   0  0  0  0  0  0  0  0  0  0  0  0
   -4.0930   17.1584  -32.8381 H   0  0  0  0  0  0  0  0  0  0  0  0
   -5.0618   20.2752  -32.1290 H   0  0  0  0  0  0  0  0  0  0  0  0
   -1.4472   22.0714  -29.2629 H   0  0  0  0  0  0  0  0  0  0  0  0
   -1.2733   22.7595  -30.9209 H   0  0  0  0  0  0  0  0  0  0  0  0
  1  2  1  0
  2  3  2  0
  2  4  1  0
  4  5  2  0
  5  6  1  0
  6  7  2  0
  7  8  1  0
  8  9  2  0
  9 10  1  0
 10 11  1  0
 11 12  1  0
 12 13  1  0
  9 14  1  0
 14 15  2  0
 15 16  1  0
 16 17  1  0
 17 18  2  0
 17 19  1  0
 19 20  1  0
 20 21  1  0
 21 22  2  0
 21 23  1  0
 16  4  1  0
 15  6  1  0
  1 24  1  0
  5 25  1  0
  7 26  1  0
  8 27  1  0
 10 28  1  0
 11 29  1  0
 11 30  1  0
 12 31  1  0
 12 32  1  0
 14 33  1  0
 20 34  1  0
 20 35  1  0
M  CHG  2   1  -1  23  -1
M  END
>  <UniqueID>  (41) 
41

>  <SMILES>  (41) 
[NH-]C(=O)c1cc2ccc(NCCCl)cc2n1C(=O)OCC(=O)[O-]

>  <Energy>  (41) 
69.13537991735953

>  <Genealogy>  (41) 
[NH-]C(=O)c1cc2ccc(NCCCl)cc2n1C(=O)OCC(=O)[O-] (protonated)
[NH-]C(=O)c1cc2ccc(NCCCl)cc2n1C(=O)OCC(=O)[O-] (3D coordinates assigned)
[NH-]C(=O)c1cc2ccc(NCCCl)cc2n1C(=O)OCC(=O)[O-] (optimized conformer: 69.13537991735953 kcal/mol)

>  <smiles>  (41) 
NC(=O)c1cc2ccc(NCCCl)cc2n1C(=O)OCC(=O)O

>  <score_type>  (41) 
oracle

>  <origin>  (41) 
adg

>  <m_score__min__energy>  (41) 
-11.970000000000001

>  <m_primary>  (41) 
energy

$$$$
42:0
     RDKit          3D

 43 44  0  0  0  0  0  0  0  0999 V2000
   -7.6310   17.9710  -32.6810 C   0  0  0  0  0  0  0  0  0  0  0  0
   -7.6350   19.4140  -32.2520 C   0  0  0  0  0  0  0  0  0  0  0  0
   -8.8180   20.1900  -32.3610 C   0  0  0  0  0  0  0  0  0  0  0  0
   -8.8170   21.5530  -31.9980 C   0  0  0  0  0  0  0  0  0  0  0  0
   -7.6210   22.1130  -31.5420 C   0  0  0  0  0  0  0  0  0  0  0  0
   -7.3350   23.4030  -31.1440 C   0  0  0  0  0  0  0  0  0  0  0  0
   -5.9800   23.3960  -30.8200 C   0  0  0  0  0  0  0  0  0  0  0  0
   -5.2630   24.5690  -30.3080 C   0  0  0  0  0  0  0  0  0  0  0  0
   -5.1630   24.7980  -28.9010 N   0  0  0  0  0  0  0  0  0  0  0  0
   -4.6820   25.3480  -31.1110 O   0  0  0  0  0  0  0  0  0  0  0  0
   -5.4440   22.1520  -30.9980 N   0  0  0  0  0  0  0  0  0  0  0  0
   -4.0950   21.7190  -30.7300 C   0  0  0  0  0  0  0  0  0  0  0  0
   -3.8690   20.5050  -30.4540 O   0  0  0  0  0  0  0  0  0  0  0  0
   -2.9450   22.6840  -30.8280 C   0  0  0  0  0  0  0  0  0  0  0  0
   -2.8440   23.5130  -29.6660 O   0  0  0  0  0  0  0  0  0  0  0  0
   -1.6880   24.2370  -29.3440 C   0  0  0  0  0  0  0  0  0  0  0  0
   -0.5590   23.6850  -29.3630 O   0  0  0  0  0  0  0  0  0  0  0  0
   -1.7840   25.6080  -28.9440 N   0  0  0  0  0  0  0  0  0  0  0  0
   -1.1920   26.1430  -27.7240 C   0  0  0  0  0  0  0  0  0  0  0  0
   -1.5280   25.2560  -26.5050 C   0  0  2  0  0  0  0  0  0  0  0  0
   -1.1260   23.9260  -26.7250 O   0  0  0  0  0  0  0  0  0  0  0  0
   -3.0270   25.3140  -26.1620 C   0  0  0  0  0  0  0  0  0  0  0  0
   -3.7380   24.4240  -26.9790 O   0  0  0  0  0  0  0  0  0  0  0  0
   -6.4630   21.3750  -31.4390 C   0  0  0  0  0  0  0  0  0  0  0  0
   -6.4350   20.0190  -31.8030 C   0  0  0  0  0  0  0  0  0  0  0  0
   -7.6292   17.3240  -31.7914 H   0  0  0  0  0  0  0  0  0  0  0  0
   -8.5286   17.7648  -33.2825 H   0  0  0  0  0  0  0  0  0  0  0  0
   -6.7323   17.7698  -33.2825 H   0  0  0  0  0  0  0  0  0  0  0  0
   -9.7434   19.7248  -32.7316 H   0  0  0  0  0  0  0  0  0  0  0  0
   -9.7325   22.1583  -32.0719 H   0  0  0  0  0  0  0  0  0  0  0  0
   -8.0288   24.2551  -31.0934 H   0  0  0  0  0  0  0  0  0  0  0  0
   -4.6860   25.6570  -28.5310 H   0  0  0  0  0  0  0  0  0  0  0  0
   -5.5080   24.0820  -28.2210 H   0  0  0  0  0  0  0  0  0  0  0  0
   -2.0110   22.1140  -30.9405 H   0  0  0  0  0  0  0  0  0  0  0  0
   -3.1192   23.3351  -31.6973 H   0  0  0  0  0  0  0  0  0  0  0  0
   -0.0996   26.1879  -27.8450 H   0  0  0  0  0  0  0  0  0  0  0  0
   -1.6042   27.1476  -27.5482 H   0  0  0  0  0  0  0  0  0  0  0  0
   -0.9680   25.6527  -25.6453 H   0  0  0  0  0  0  0  0  0  0  0  0
   -1.6840   23.5560  -27.4590 H   0  0  0  0  0  0  0  0  0  0  0  0
   -3.1710   25.0356  -25.1076 H   0  0  0  0  0  0  0  0  0  0  0  0
   -3.3979   26.3357  -26.3307 H   0  0  0  0  0  0  0  0  0  0  0  0
   -3.1430   24.2010  -27.7570 H   0  0  0  0  0  0  0  0  0  0  0  0
   -5.5022   19.4394  -31.7409 H   0  0  0  0  0  0  0  0  0  0  0  0
  1  2  1  0
  2  3  2  0
  3  4  1  0
  4  5  2  0
  5  6  1  0
  6  7  2  0
  7  8  1  0
  8  9  1  0
  8 10  2  0
  7 11  1  0
 11 12  1  0
 12 13  2  0
 12 14  1  0
 14 15  1  0
 15 16  1  0
 16 17  2  0
 16 18  1  0
 18 19  1  0
 19 20  1  0
 20 21  1  0
 20 22  1  0
 22 23  1  0
 11 24  1  0
 24 25  2  0
 25  2  1  0
 24  5  1  0
  1 26  1  0
  1 27  1  0
  1 28  1  0
  3 29  1  0
  4 30  1  0
  6 31  1  0
  9 32  1  0
  9 33  1  0
 14 34  1  0
 14 35  1  0
 19 36  1  0
 19 37  1  0
 20 38  1  1
 21 39  1  0
 22 40  1  0
 22 41  1  0
 23 42  1  0
 25 43  1  0
M  CHG  1  18  -1
M  END
>  <UniqueID>  (42) 
42

>  <SMILES>  (42) 
Cc1ccc2cc(C(N)=O)n(C(=O)COC(=O)[N-]C[C@H](O)CO)c2c1

>  <Energy>  (42) 
80.96845222964423

>  <Genealogy>  (42) 
Cc1ccc2cc(C(N)=O)n(C(=O)COC(=O)[N-]CC(O)CO)c2c1 (protonated)
Cc1ccc2cc(C(N)=O)n(C(=O)COC(=O)[N-]C[C@H](O)CO)c2c1 (chirality)
Cc1ccc2cc(C(N)=O)n(C(=O)COC(=O)[N-]C[C@H](O)CO)c2c1 (3D coordinates assigned)
Cc1ccc2cc(C(N)=O)n(C(=O)COC(=O)[N-]C[C@H](O)CO)c2c1 (optimized conformer: 80.96845222964423 kcal/mol)

>  <smiles>  (42) 
Cc1ccc2cc(C(N)=O)n(C(=O)COC(=O)NCC(O)CO)c2c1

>  <score_type>  (42) 
oracle

>  <origin>  (42) 
adg

>  <m_score__min__energy>  (42) 
-8.4199999999999999

>  <m_primary>  (42) 
energy

$$$$
43:0
     RDKit          3D

 42 43  0  0  0  0  0  0  0  0999 V2000
   -3.0780   25.2980  -25.9810 C   0  0  0  0  0  0  0  0  0  0  0  0
   -3.8810   24.6210  -27.0040 N   0  0  0  0  0  0  0  0  0  0  0  0
   -3.1110   23.5780  -27.7090 C   0  0  1  0  0  0  0  0  0  0  0  0
   -3.9130   22.2710  -27.7920 C   0  0  0  0  0  0  0  0  0  0  0  0
   -2.7950   24.0510  -29.1110 C   0  0  0  0  0  0  0  0  0  0  0  0
   -2.8370   25.2850  -29.3600 O   0  0  0  0  0  0  0  0  0  0  0  0
   -2.4130   23.1560  -30.1650 N   0  0  0  0  0  0  0  0  0  0  0  0
   -3.0910   21.9330  -30.5860 C   0  0  0  0  0  0  0  0  0  0  0  0
   -4.0150   22.1600  -31.7570 C   0  0  0  0  0  0  0  0  0  0  0  0
   -3.5060   22.2670  -32.9050 O   0  0  0  0  0  0  0  0  0  0  0  0
   -5.4410   22.3010  -31.6020 N   0  0  0  0  0  0  0  0  0  0  0  0
   -6.1110   23.3350  -31.0110 C   0  0  0  0  0  0  0  0  0  0  0  0
   -5.5150   24.5580  -30.4240 C   0  0  0  0  0  0  0  0  0  0  0  0
   -5.4900   24.7960  -29.0170 N   0  0  0  0  0  0  0  0  0  0  0  0
   -4.9740   25.4010  -31.1910 O   0  0  0  0  0  0  0  0  0  0  0  0
   -7.4770   23.0680  -30.9580 C   0  0  0  0  0  0  0  0  0  0  0  0
   -7.6300   21.8230  -31.5160 C   0  0  0  0  0  0  0  0  0  0  0  0
   -8.7780   21.0510  -31.6670 C   0  0  0  0  0  0  0  0  0  0  0  0
   -8.6370   19.7580  -32.1960 C   0  0  0  0  0  0  0  0  0  0  0  0
   -7.3560   19.2510  -32.5240 C   0  0  0  0  0  0  0  0  0  0  0  0
   -7.2170   17.8710  -33.0940 C   0  0  0  0  0  0  0  0  0  0  0  0
   -6.2150   20.0660  -32.3620 C   0  0  0  0  0  0  0  0  0  0  0  0
   -6.3870   21.3700  -31.8790 C   0  0  0  0  0  0  0  0  0  0  0  0
   -3.4304   25.0009  -24.9822 H   0  0  0  0  0  0  0  0  0  0  0  0
   -2.0216   25.0139  -26.0966 H   0  0  0  0  0  0  0  0  0  0  0  0
   -3.1795   26.3872  -26.0966 H   0  0  0  0  0  0  0  0  0  0  0  0
   -4.1510   25.3570  -27.7000 H   0  0  0  0  0  0  0  0  0  0  0  0
   -2.1824   23.3909  -27.1498 H   0  0  0  0  0  0  0  0  0  0  0  0
   -4.1338   21.9112  -26.7762 H   0  0  0  0  0  0  0  0  0  0  0  0
   -4.8553   22.4526  -28.3296 H   0  0  0  0  0  0  0  0  0  0  0  0
   -3.3243   21.5131  -28.3296 H   0  0  0  0  0  0  0  0  0  0  0  0
   -2.3325   21.1900  -30.8736 H   0  0  0  0  0  0  0  0  0  0  0  0
   -3.7013   21.5807  -29.7413 H   0  0  0  0  0  0  0  0  0  0  0  0
   -5.7690   24.0640  -28.3330 H   0  0  0  0  0  0  0  0  0  0  0  0
   -5.1030   25.6920  -28.6450 H   0  0  0  0  0  0  0  0  0  0  0  0
   -8.2671   23.7180  -30.5540 H   0  0  0  0  0  0  0  0  0  0  0  0
   -9.7656   21.4418  -31.3807 H   0  0  0  0  0  0  0  0  0  0  0  0
   -9.5285   19.1340  -32.3569 H   0  0  0  0  0  0  0  0  0  0  0  0
   -7.1435   17.1413  -32.2741 H   0  0  0  0  0  0  0  0  0  0  0  0
   -8.0964   17.6397  -33.7130 H   0  0  0  0  0  0  0  0  0  0  0  0
   -6.3091   17.8197  -33.7130 H   0  0  0  0  0  0  0  0  0  0  0  0
   -5.2129   19.6858  -32.6095 H   0  0  0  0  0  0  0  0  0  0  0  0
  1  2  1  0
  2  3  1  0
  3  4  1  0
  3  5  1  0
  5  6  2  0
  5  7  1  0
  7  8  1  0
  8  9  1  0
  9 10  2  0
  9 11  1  0
 11 12  1  0
 12 13  1  0
 13 14  1  0
 13 15  2  0
 12 16  2  0
 16 17  1  0
 17 18  2  0
 18 19  1  0
 19 20  2  0
 20 21  1  0
 20 22  1  0
 22 23  2  0
 23 11  1  0
 23 17  1  0
  1 24  1  0
  1 25  1  0
  1 26  1  0
  2 27  1  0
  3 28  1  1
  4 29  1  0
  4 30  1  0
  4 31  1  0
  8 32  1  0
  8 33  1  0
 14 34  1  0
 14 35  1  0
 16 36  1  0
 18 37  1  0
 19 38  1  0
 21 39  1  0
 21 40  1  0
 21 41  1  0
 22 42  1  0
M  CHG  1   7  -1
M  END
>  <UniqueID>  (43) 
43

>  <SMILES>  (43) 
CN[C@@H](C)C(=O)[N-]CC(=O)n1c(C(N)=O)cc2ccc(C)cc21

>  <Energy>  (43) 
78.38954595201083

>  <Genealogy>  (43) 
CN[C@@H](C)C(=O)[N-]CC(=O)n1c(C(N)=O)cc2ccc(C)cc21 (protonated)
CN[C@@H](C)C(=O)[N-]CC(=O)n1c(C(N)=O)cc2ccc(C)cc21 (3D coordinates assigned)
CN[C@@H](C)C(=O)[N-]CC(=O)n1c(C(N)=O)cc2ccc(C)cc21 (optimized conformer: 78.38954595201083 kcal/mol)

>  <smiles>  (43) 
CN[C@@H](C)C(=O)NCC(=O)n1c(C(N)=O)cc2ccc(C)cc21

>  <score_type>  (43) 
oracle

>  <origin>  (43) 
adg

>  <m_score__min__energy>  (43) 
-10.17

>  <m_primary>  (43) 
energy

$$$$
44:0
     RDKit          3D

 49 52  0  0  0  0  0  0  0  0999 V2000
    0.2270   21.1780  -32.0070 C   0  0  0  0  0  0  0  0  0  0  0  0
   -1.1900   20.8660  -31.5990 C   0  0  0  0  0  0  0  0  0  0  0  0
   -2.0960   20.3680  -32.5470 C   0  0  0  0  0  0  0  0  0  0  0  0
   -3.4140   20.0590  -32.1810 C   0  0  0  0  0  0  0  0  0  0  0  0
   -4.3700   19.5230  -33.1800 C   0  0  0  0  0  0  0  0  0  0  0  0
   -3.9390   18.9030  -34.1900 O   0  0  0  0  0  0  0  0  0  0  0  0
   -5.7880   19.6910  -33.0140 N   0  0  0  0  0  0  0  0  0  0  0  0
   -6.7620   18.7640  -33.2320 C   0  0  0  0  0  0  0  0  0  0  0  0
   -6.5460   17.4250  -33.8260 C   0  0  0  0  0  0  0  0  0  0  0  0
   -5.6590   17.2470  -34.9330 N   0  0  0  0  0  0  0  0  0  0  0  0
   -7.1330   16.4190  -33.3480 O   0  0  0  0  0  0  0  0  0  0  0  0
   -8.0090   19.2770  -32.8730 C   0  0  0  0  0  0  0  0  0  0  0  0
   -7.7610   20.5520  -32.4150 C   0  0  0  0  0  0  0  0  0  0  0  0
   -8.6360   21.5110  -31.9130 C   0  0  0  0  0  0  0  0  0  0  0  0
   -8.0950   22.7360  -31.4840 C   0  0  0  0  0  0  0  0  0  0  0  0
   -6.6990   22.9760  -31.5610 C   0  0  0  0  0  0  0  0  0  0  0  0
   -6.1220   24.2810  -31.0770 C   0  0  0  0  0  0  0  0  0  0  0  0
   -5.1130   24.0420  -30.0270 N   0  0  0  0  0  0  0  0  0  0  0  0
   -3.9380   24.7510  -30.0430 C   0  0  0  0  0  0  0  0  0  0  0  0
   -3.6740   25.6730  -31.0510 O   0  0  0  0  0  0  0  0  0  0  0  0
   -2.9850   24.5570  -29.0430 C   0  0  0  0  0  0  0  0  0  0  0  0
   -3.2500   23.6400  -28.0350 C   0  0  0  0  0  0  0  0  0  0  0  0
   -4.4190   22.9560  -28.0390 N   0  0  0  0  0  0  0  0  0  0  0  0
   -5.3470   23.1440  -29.0130 C   0  0  0  0  0  0  0  0  0  0  0  0
   -6.4190   22.4820  -28.9680 O   0  0  0  0  0  0  0  0  0  0  0  0
   -5.8440   21.9760  -32.0730 C   0  0  0  0  0  0  0  0  0  0  0  0
   -6.4130   20.7750  -32.5060 C   0  0  0  0  0  0  0  0  0  0  0  0
   -3.8070   20.2760  -30.8530 C   0  0  0  0  0  0  0  0  0  0  0  0
   -2.9200   20.7580  -29.9460 N   0  0  0  0  0  0  0  0  0  0  0  0
   -1.6320   21.0540  -30.2720 C   0  0  0  0  0  0  0  0  0  0  0  0
   -0.7220   21.5790  -29.2020 C   0  0  0  0  0  0  0  0  0  0  0  0
    0.8459   21.3143  -31.1079 H   0  0  0  0  0  0  0  0  0  0  0  0
    0.6278   20.3466  -32.6054 H   0  0  0  0  0  0  0  0  0  0  0  0
    0.2415   22.1009  -32.6054 H   0  0  0  0  0  0  0  0  0  0  0  0
   -1.7697   20.2185  -33.5868 H   0  0  0  0  0  0  0  0  0  0  0  0
   -5.4890   16.2910  -35.3170 H   0  0  0  0  0  0  0  0  0  0  0  0
   -5.2010   18.0580  -35.4030 H   0  0  0  0  0  0  0  0  0  0  0  0
   -8.9831   18.7707  -32.9413 H   0  0  0  0  0  0  0  0  0  0  0  0
   -9.7171   21.3167  -31.8537 H   0  0  0  0  0  0  0  0  0  0  0  0
   -8.7606   23.5156  -31.0849 H   0  0  0  0  0  0  0  0  0  0  0  0
   -5.6488   24.8030  -31.9217 H   0  0  0  0  0  0  0  0  0  0  0  0
   -6.9329   24.8950  -30.6581 H   0  0  0  0  0  0  0  0  0  0  0  0
   -2.0404   25.1206  -29.0530 H   0  0  0  0  0  0  0  0  0  0  0  0
   -2.5134   23.4696  -27.2361 H   0  0  0  0  0  0  0  0  0  0  0  0
   -4.7575   22.1379  -32.1297 H   0  0  0  0  0  0  0  0  0  0  0  0
   -4.8394   20.0545  -30.5446 H   0  0  0  0  0  0  0  0  0  0  0  0
   -1.1405   21.3376  -28.2138 H   0  0  0  0  0  0  0  0  0  0  0  0
    0.2698   21.1143  -29.3037 H   0  0  0  0  0  0  0  0  0  0  0  0
   -0.6278   22.6702  -29.3037 H   0  0  0  0  0  0  0  0  0  0  0  0
  1  2  1  0
  2  3  2  0
  3  4  1  0
  4  5  1  0
  5  6  2  0
  5  7  1  0
  7  8  1  0
  8  9  1  0
  9 10  1  0
  9 11  2  0
  8 12  2  0
 12 13  1  0
 13 14  2  0
 14 15  1  0
 15 16  2  0
 16 17  1  0
 17 18  1  0
 18 19  2  0
 19 20  1  0
 19 21  1  0
 21 22  2  0
 22 23  1  0
 23 24  1  0
 24 25  2  0
 16 26  1  0
 26 27  2  0
  4 28  2  0
 28 29  1  0
 29 30  2  0
 30 31  1  0
 30  2  1  0
 27  7  1  0
 27 13  1  0
 24 18  1  0
  1 32  1  0
  1 33  1  0
  1 34  1  0
  3 35  1  0
 10 36  1  0
 10 37  1  0
 12 38  1  0
 14 39  1  0
 15 40  1  0
 17 41  1  0
 17 42  1  0
 21 43  1  0
 22 44  1  0
 26 45  1  0
 28 46  1  0
 31 47  1  0
 31 48  1  0
 31 49  1  0
M  CHG  3  18   1  20  -1  23  -1
M  END
>  <UniqueID>  (44) 
44

>  <SMILES>  (44) 
Cc1cc(C(=O)n2c(C(N)=O)cc3ccc(C[n+]4c([O-])cc[n-]c4=O)cc32)cnc1C

>  <Energy>  (44) 
97.07403686818743

>  <Genealogy>  (44) 
Cc1cc(C(=O)n2c(C(N)=O)cc3ccc(C[n+]4c([O-])cc[n-]c4=O)cc32)cnc1C (protonated)
Cc1cc(C(=O)n2c(C(N)=O)cc3ccc(C[n+]4c([O-])cc[n-]c4=O)cc32)cnc1C (3D coordinates assigned)
Cc1cc(C(=O)n2c(C(N)=O)cc3ccc(C[n+]4c([O-])cc[n-]c4=O)cc32)cnc1C (optimized conformer: 97.07403686818743 kcal/mol)

>  <smiles>  (44) 
Cc1cc(C(=O)n2c(C(N)=O)cc3ccc(C[n+]4c(O)cc[nH]c4=O)cc32)cnc1C

>  <score_type>  (44) 
oracle

>  <origin>  (44) 
adg

>  <m_score__min__energy>  (44) 
-11.59

>  <m_primary>  (44) 
energy

$$$$
45:0
     RDKit          3D

 48 49  0  0  0  0  0  0  0  0999 V2000
   -5.9220   18.8390  -31.6190 C   0  0  0  0  0  0  0  0  0  0  0  0
   -6.1960   20.0170  -32.5000 C   0  0  0  0  0  0  0  0  0  0  0  0
   -5.9040   19.9500  -33.7240 O   0  0  0  0  0  0  0  0  0  0  0  0
   -6.7390   21.2340  -31.9610 N   0  0  0  0  0  0  0  0  0  0  0  0
   -8.0490   21.5960  -31.8600 C   0  0  0  0  0  0  0  0  0  0  0  0
   -9.1910   20.8510  -32.4350 C   0  0  0  0  0  0  0  0  0  0  0  0
   -8.9830   19.8490  -33.4320 N   0  0  0  0  0  0  0  0  0  0  0  0
  -10.3610   21.0780  -32.0280 O   0  0  0  0  0  0  0  0  0  0  0  0
   -8.1640   22.8290  -31.2200 C   0  0  0  0  0  0  0  0  0  0  0  0
   -6.8730   23.2150  -30.9360 C   0  0  0  0  0  0  0  0  0  0  0  0
   -6.3980   24.3590  -30.3040 C   0  0  0  0  0  0  0  0  0  0  0  0
   -5.0100   24.4880  -30.1320 C   0  0  0  0  0  0  0  0  0  0  0  0
   -4.1230   23.4800  -30.5870 C   0  0  0  0  0  0  0  0  0  0  0  0
   -2.7070   23.6500  -30.3830 N   0  0  0  0  0  0  0  0  0  0  0  0
   -1.7160   22.6440  -30.7710 C   0  0  0  0  0  0  0  0  0  0  0  0
   -1.1670   21.9000  -29.5480 C   0  0  0  0  0  0  0  0  0  0  0  0
   -0.2970   22.7330  -28.8030 O   0  0  0  0  0  0  0  0  0  0  0  0
   -0.5500   22.6360  -27.4140 C   0  0  0  0  0  0  0  0  0  0  0  0
   -2.0250   22.9250  -27.1230 C   0  0  0  0  0  0  0  0  0  0  0  0
   -2.4360   24.1050  -27.7920 O   0  0  0  0  0  0  0  0  0  0  0  0
   -2.0240   25.2650  -27.0930 C   0  0  0  0  0  0  0  0  0  0  0  0
   -1.1230   26.1260  -27.9770 C   0  0  0  0  0  0  0  0  0  0  0  0
   -1.2310   25.7030  -29.3070 O   0  0  0  0  0  0  0  0  0  0  0  0
   -4.6470   22.3300  -31.2280 C   0  0  0  0  0  0  0  0  0  0  0  0
   -6.0330   22.2360  -31.3960 C   0  0  0  0  0  0  0  0  0  0  0  0
   -5.9932   19.1451  -30.5648 H   0  0  0  0  0  0  0  0  0  0  0  0
   -6.6605   18.0495  -31.8222 H   0  0  0  0  0  0  0  0  0  0  0  0
   -4.9109   18.4564  -31.8222 H   0  0  0  0  0  0  0  0  0  0  0  0
   -9.7930   19.3050  -33.8030 H   0  0  0  0  0  0  0  0  0  0  0  0
   -8.0370   19.6720  -33.8360 H   0  0  0  0  0  0  0  0  0  0  0  0
   -9.0896   23.3773  -30.9905 H   0  0  0  0  0  0  0  0  0  0  0  0
   -7.0881   25.1389  -29.9497 H   0  0  0  0  0  0  0  0  0  0  0  0
   -4.6056   25.3835  -29.6374 H   0  0  0  0  0  0  0  0  0  0  0  0
   -2.3780   24.5370  -29.9380 H   0  0  0  0  0  0  0  0  0  0  0  0
   -2.1890   21.9183  -31.4490 H   0  0  0  0  0  0  0  0  0  0  0  0
   -0.8796   23.1557  -31.2696 H   0  0  0  0  0  0  0  0  0  0  0  0
   -2.0059   21.5899  -28.9076 H   0  0  0  0  0  0  0  0  0  0  0  0
   -0.6041   21.0202  -29.8931 H   0  0  0  0  0  0  0  0  0  0  0  0
   -0.3041   21.6205  -27.0701 H   0  0  0  0  0  0  0  0  0  0  0  0
    0.0712   23.3731  -26.8840 H   0  0  0  0  0  0  0  0  0  0  0  0
   -2.6361   22.0790  -27.4708 H   0  0  0  0  0  0  0  0  0  0  0  0
   -2.1556   23.0637  -26.0396 H   0  0  0  0  0  0  0  0  0  0  0  0
   -2.9107   25.8475  -26.8025 H   0  0  0  0  0  0  0  0  0  0  0  0
   -1.4617   24.9618  -26.1975 H   0  0  0  0  0  0  0  0  0  0  0  0
   -1.4328   27.1787  -27.9009 H   0  0  0  0  0  0  0  0  0  0  0  0
   -0.0794   26.0255  -27.6443 H   0  0  0  0  0  0  0  0  0  0  0  0
   -1.0170   24.7350  -29.3050 H   0  0  0  0  0  0  0  0  0  0  0  0
   -3.9806   21.5308  -31.5848 H   0  0  0  0  0  0  0  0  0  0  0  0
  1  2  1  0
  2  3  2  0
  2  4  1  0
  4  5  1  0
  5  6  1  0
  6  7  1  0
  6  8  2  0
  5  9  2  0
  9 10  1  0
 10 11  2  0
 11 12  1  0
 12 13  2  0
 13 14  1  0
 14 15  1  0
 15 16  1  0
 16 17  1  0
 17 18  1  0
 18 19  1  0
 19 20  1  0
 20 21  1  0
 21 22  1  0
 22 23  1  0
 13 24  1  0
 24 25  2  0
 25  4  1  0
 25 10  1  0
  1 26  1  0
  1 27  1  0
  1 28  1  0
  7 29  1  0
  7 30  1  0
  9 31  1  0
 11 32  1  0
 12 33  1  0
 14 34  1  0
 15 35  1  0
 15 36  1  0
 16 37  1  0
 16 38  1  0
 18 39  1  0
 18 40  1  0
 19 41  1  0
 19 42  1  0
 21 43  1  0
 21 44  1  0
 22 45  1  0
 22 46  1  0
 23 47  1  0
 24 48  1  0
M  END
>  <UniqueID>  (45) 
45

>  <SMILES>  (45) 
CC(=O)n1c(C(N)=O)cc2ccc(NCCOCCOCCO)cc21

>  <Energy>  (45) 
85.73263858369019

>  <Genealogy>  (45) 
CC(=O)n1c(C(N)=O)cc2ccc(NCCOCCOCCO)cc21 (3D coordinates assigned)
CC(=O)n1c(C(N)=O)cc2ccc(NCCOCCOCCO)cc21 (optimized conformer: 85.73263858369019 kcal/mol)

>  <smiles>  (45) 
CC(=O)n1c(C(N)=O)cc2ccc(NCCOCCOCCO)cc21

>  <score_type>  (45) 
oracle

>  <origin>  (45) 
adg

>  <m_score__min__energy>  (45) 
-7.7999999999999998

>  <m_primary>  (45) 
energy

$$$$
46:0
     RDKit          3D

 46 48  0  0  0  0  0  0  0  0999 V2000
   -1.2340   19.6150  -32.3900 C   0  0  0  0  0  0  0  0  0  0  0  0
   -2.3220   18.6630  -32.5760 N   0  0  0  0  0  0  0  0  0  0  0  0
   -3.3810   18.9030  -33.5130 C   0  0  0  0  0  0  0  0  0  0  0  0
   -3.3580   19.9410  -34.2310 O   0  0  0  0  0  0  0  0  0  0  0  0
   -4.5100   17.9500  -33.6350 C   0  0  0  0  0  0  0  0  0  0  0  0
   -4.2540   16.6560  -34.1240 C   0  0  0  0  0  0  0  0  0  0  0  0
   -5.2710   15.7030  -34.1860 C   0  0  0  0  0  0  0  0  0  0  0  0
   -6.5590   16.0250  -33.7570 C   0  0  0  0  0  0  0  0  0  0  0  0
   -6.8350   17.3040  -33.2740 C   0  0  0  0  0  0  0  0  0  0  0  0
   -5.8270   18.2810  -33.2150 C   0  0  0  0  0  0  0  0  0  0  0  0
   -6.1920   19.6450  -32.7620 C   0  0  0  0  0  0  0  0  0  0  0  0
   -7.5490   20.0560  -32.7560 C   0  0  0  0  0  0  0  0  0  0  0  0
   -7.9070   21.3370  -32.3050 C   0  0  0  0  0  0  0  0  0  0  0  0
   -6.8910   22.1820  -31.8670 C   0  0  0  0  0  0  0  0  0  0  0  0
   -6.9600   23.4550  -31.3520 C   0  0  0  0  0  0  0  0  0  0  0  0
   -5.6430   23.8090  -31.0630 C   0  0  0  0  0  0  0  0  0  0  0  0
   -5.2510   25.1430  -30.5630 C   0  0  0  0  0  0  0  0  0  0  0  0
   -3.9540   25.6730  -30.8290 N   0  0  0  0  0  0  0  0  0  0  0  0
   -6.0870   25.8450  -29.9350 O   0  0  0  0  0  0  0  0  0  0  0  0
   -4.7950   22.7910  -31.3800 N   0  0  0  0  0  0  0  0  0  0  0  0
   -3.3800   22.7230  -31.1420 C   0  0  0  0  0  0  0  0  0  0  0  0
   -2.6130   22.2780  -32.0400 O   0  0  0  0  0  0  0  0  0  0  0  0
   -2.8620   23.1320  -29.9080 O   0  0  0  0  0  0  0  0  0  0  0  0
   -1.4680   23.1630  -29.6110 C   0  0  0  0  0  0  0  0  0  0  0  0
   -1.1330   24.3620  -28.7240 C   0  0  0  0  0  0  0  0  0  0  0  0
   -2.0240   25.4150  -28.9730 O   0  0  0  0  0  0  0  0  0  0  0  0
   -5.5730   21.8020  -31.8720 C   0  0  0  0  0  0  0  0  0  0  0  0
   -5.1900   20.5270  -32.2990 C   0  0  0  0  0  0  0  0  0  0  0  0
   -1.0599   19.7673  -31.3146 H   0  0  0  0  0  0  0  0  0  0  0  0
   -0.3191   19.2221  -32.8575 H   0  0  0  0  0  0  0  0  0  0  0  0
   -1.5019   20.5740  -32.8575 H   0  0  0  0  0  0  0  0  0  0  0  0
   -2.2990   17.7690  -32.0350 H   0  0  0  0  0  0  0  0  0  0  0  0
   -3.2406   16.3927  -34.4612 H   0  0  0  0  0  0  0  0  0  0  0  0
   -5.0571   14.6961  -34.5737 H   0  0  0  0  0  0  0  0  0  0  0  0
   -7.3574   15.2695  -33.7997 H   0  0  0  0  0  0  0  0  0  0  0  0
   -7.8523   17.5503  -32.9358 H   0  0  0  0  0  0  0  0  0  0  0  0
   -8.3290   19.3648  -33.1080 H   0  0  0  0  0  0  0  0  0  0  0  0
   -8.9577   21.6626  -32.2981 H   0  0  0  0  0  0  0  0  0  0  0  0
   -7.8629   24.0647  -31.2002 H   0  0  0  0  0  0  0  0  0  0  0  0
   -3.0990   25.2200  -30.4380 H   0  0  0  0  0  0  0  0  0  0  0  0
   -1.1894   22.2368  -29.0871 H   0  0  0  0  0  0  0  0  0  0  0  0
   -0.9068   23.2511  -30.5529 H   0  0  0  0  0  0  0  0  0  0  0  0
   -1.2089   24.0645  -27.6677 H   0  0  0  0  0  0  0  0  0  0  0  0
   -0.1099   24.6982  -28.9481 H   0  0  0  0  0  0  0  0  0  0  0  0
   -2.9290   25.0120  -29.0380 H   0  0  0  0  0  0  0  0  0  0  0  0
   -4.1345   20.2181  -32.2751 H   0  0  0  0  0  0  0  0  0  0  0  0
  1  2  1  0
  2  3  1  0
  3  4  2  0
  3  5  1  0
  5  6  2  0
  6  7  1  0
  7  8  2  0
  8  9  1  0
  9 10  2  0
 10 11  1  0
 11 12  2  0
 12 13  1  0
 13 14  2  0
 14 15  1  0
 15 16  2  0
 16 17  1  0
 17 18  1  0
 17 19  2  0
 16 20  1  0
 20 21  1  0
 21 22  2  0
 21 23  1  0
 23 24  1  0
 24 25  1  0
 25 26  1  0
 20 27  1  0
 27 28  2  0
 10  5  1  0
 28 11  1  0
 27 14  1  0
  1 29  1  0
  1 30  1  0
  1 31  1  0
  2 32  1  0
  6 33  1  0
  7 34  1  0
  8 35  1  0
  9 36  1  0
 12 37  1  0
 13 38  1  0
 15 39  1  0
 18 40  1  0
 24 41  1  0
 24 42  1  0
 25 43  1  0
 25 44  1  0
 26 45  1  0
 28 46  1  0
M  CHG  1  18  -1
M  END
>  <UniqueID>  (46) 
46

>  <SMILES>  (46) 
CNC(=O)c1ccccc1-c1ccc2cc(C([NH-])=O)n(C(=O)OCCO)c2c1

>  <Energy>  (46) 
92.2194057118606

>  <Genealogy>  (46) 
CNC(=O)c1ccccc1-c1ccc2cc(C([NH-])=O)n(C(=O)OCCO)c2c1 (protonated)
CNC(=O)c1ccccc1-c1ccc2cc(C([NH-])=O)n(C(=O)OCCO)c2c1 (3D coordinates assigned)
CNC(=O)c1ccccc1-c1ccc2cc(C([NH-])=O)n(C(=O)OCCO)c2c1 (optimized conformer: 92.2194057118606 kcal/mol)

>  <smiles>  (46) 
CNC(=O)c1ccccc1-c1ccc2cc(C(N)=O)n(C(=O)OCCO)c2c1

>  <score_type>  (46) 
oracle

>  <origin>  (46) 
adg

>  <m_score__min__energy>  (46) 
-11.34

>  <m_primary>  (46) 
energy

$$$$
47:0
     RDKit          3D

 37 38  0  0  0  0  0  0  0  0999 V2000
   -3.7040   24.5480  -27.1460 C   0  0  0  0  0  0  0  0  0  0  0  0
   -2.3990   24.3570  -27.3380 C   0  0  0  0  0  0  0  0  0  0  0  0
   -1.7290   24.6900  -28.6100 C   0  0  0  0  0  0  0  0  0  0  0  0
   -1.5750   25.8920  -28.9600 O   0  0  0  0  0  0  0  0  0  0  0  0
   -1.1830   23.5980  -29.4740 C   0  0  0  0  0  0  0  0  0  0  0  0
   -2.1830   23.2200  -30.4620 N   0  0  0  0  0  0  0  0  0  0  0  0
   -3.2800   22.3510  -30.1650 C   0  0  0  0  0  0  0  0  0  0  0  0
   -3.1810   21.5060  -29.2360 O   0  0  0  0  0  0  0  0  0  0  0  0
   -4.5000   22.4550  -30.9160 N   0  0  0  0  0  0  0  0  0  0  0  0
   -5.2580   23.5680  -31.1290 C   0  0  0  0  0  0  0  0  0  0  0  0
   -5.0470   24.8940  -30.5120 C   0  0  0  0  0  0  0  0  0  0  0  0
   -3.8690   25.6380  -30.8150 N   0  0  0  0  0  0  0  0  0  0  0  0
   -5.9110   25.3940  -29.7450 O   0  0  0  0  0  0  0  0  0  0  0  0
   -6.3350   23.2730  -31.9650 C   0  0  0  0  0  0  0  0  0  0  0  0
   -6.2150   21.9330  -32.2550 C   0  0  0  0  0  0  0  0  0  0  0  0
   -7.0080   21.1170  -33.0570 C   0  0  0  0  0  0  0  0  0  0  0  0
   -6.6300   19.7720  -33.2040 C   0  0  0  0  0  0  0  0  0  0  0  0
   -5.4760   19.2710  -32.5530 C   0  0  0  0  0  0  0  0  0  0  0  0
   -5.0590   17.8370  -32.7520 C   0  0  0  0  0  0  0  0  0  0  0  0
   -6.0010   16.8730  -32.0300 C   0  0  0  0  0  0  0  0  0  0  0  0
   -6.4240   17.4220  -30.8330 F   0  0  0  0  0  0  0  0  0  0  0  0
   -7.1070   16.6320  -32.8250 F   0  0  0  0  0  0  0  0  0  0  0  0
   -5.3600   15.6730  -31.7810 F   0  0  0  0  0  0  0  0  0  0  0  0
   -4.6900   20.1310  -31.7540 C   0  0  0  0  0  0  0  0  0  0  0  0
   -5.1000   21.4620  -31.6100 C   0  0  0  0  0  0  0  0  0  0  0  0
   -4.1622   24.2854  -26.1811 H   0  0  0  0  0  0  0  0  0  0  0  0
   -4.3229   24.9683  -27.9525 H   0  0  0  0  0  0  0  0  0  0  0  0
   -1.7991   23.9355  -26.5179 H   0  0  0  0  0  0  0  0  0  0  0  0
   -0.2766   23.9532  -29.9861 H   0  0  0  0  0  0  0  0  0  0  0  0
   -0.9325   22.7264  -28.8515 H   0  0  0  0  0  0  0  0  0  0  0  0
   -2.9260   25.2890  -30.5350 H   0  0  0  0  0  0  0  0  0  0  0  0
   -7.1145   23.9644  -32.3175 H   0  0  0  0  0  0  0  0  0  0  0  0
   -7.9026   21.5130  -33.5599 H   0  0  0  0  0  0  0  0  0  0  0  0
   -7.2361   19.1013  -33.8308 H   0  0  0  0  0  0  0  0  0  0  0  0
   -5.0693   17.6080  -33.8278 H   0  0  0  0  0  0  0  0  0  0  0  0
   -4.0495   17.7104  -32.3338 H   0  0  0  0  0  0  0  0  0  0  0  0
   -3.7793   19.7644  -31.2578 H   0  0  0  0  0  0  0  0  0  0  0  0
  1  2  2  0
  2  3  1  0
  3  4  2  0
  3  5  1  0
  5  6  1  0
  6  7  1  0
  7  8  2  0
  7  9  1  0
  9 10  1  0
 10 11  1  0
 11 12  1  0
 11 13  2  0
 10 14  2  0
 14 15  1  0
 15 16  2  0
 16 17  1  0
 17 18  2  0
 18 19  1  0
 19 20  1  0
 20 21  1  0
 20 22  1  0
 20 23  1  0
 18 24  1  0
 24 25  2  0
 25  9  1  0
 25 15  1  0
  1 26  1  0
  1 27  1  0
  2 28  1  0
  5 29  1  0
  5 30  1  0
 12 31  1  0
 14 32  1  0
 16 33  1  0
 17 34  1  0
 19 35  1  0
 19 36  1  0
 24 37  1  0
M  CHG  2   6  -1  12  -1
M  END
>  <UniqueID>  (47) 
47

>  <SMILES>  (47) 
C=CC(=O)C[N-]C(=O)n1c(C([NH-])=O)cc2ccc(CC(F)(F)F)cc21

>  <Energy>  (47) 
68.10808781067844

>  <Genealogy>  (47) 
C=CC(=O)C[N-]C(=O)n1c(C([NH-])=O)cc2ccc(CC(F)(F)F)cc21 (protonated)
C=CC(=O)C[N-]C(=O)n1c(C([NH-])=O)cc2ccc(CC(F)(F)F)cc21 (3D coordinates assigned)
C=CC(=O)C[N-]C(=O)n1c(C([NH-])=O)cc2ccc(CC(F)(F)F)cc21 (optimized conformer: 68.10808781067844 kcal/mol)

>  <smiles>  (47) 
C=CC(=O)CNC(=O)n1c(C(N)=O)cc2ccc(CC(F)(F)F)cc21

>  <score_type>  (47) 
oracle

>  <origin>  (47) 
adg

>  <m_score__min__energy>  (47) 
-11.039999999999999

>  <m_primary>  (47) 
energy

$$$$
48:0
     RDKit          3D

106112  0  0  0  0  0  0  0  0999 V2000
    0.6370   16.2080  -38.4770 C   0  0  0  0  0  0  0  0  0  0  0  0
    0.6570   15.2510  -37.2670 C   0  0  0  0  0  0  0  0  0  0  0  0
    1.0620   13.8440  -37.7180 C   0  0  0  0  0  0  0  0  0  0  0  0
   -0.6690   15.2350  -36.5160 C   0  0  0  0  0  0  0  0  0  0  0  0
   -0.9460   15.6480  -35.2600 C   0  0  0  0  0  0  0  0  0  0  0  0
   -0.0140   16.1150  -34.1040 C   0  0  2  0  0  0  0  0  0  0  0  0
    1.4840   15.6770  -34.1760 C   0  0  0  0  0  0  0  0  0  0  0  0
    2.2790   15.8700  -32.8630 C   0  0  0  0  0  0  0  0  0  0  0  0
    1.6490   16.9880  -32.0000 C   0  0  2  0  0  0  0  0  0  0  0  0
    2.6050   17.7370  -30.9680 C   0  0  2  0  0  0  0  0  0  0  0  0
    3.6930   18.4470  -31.8680 C   0  0  0  0  0  0  0  0  0  0  0  0
    3.3750   16.7350  -30.0230 C   0  0  0  0  0  0  0  0  0  0  0  0
    3.1590   16.7730  -28.4890 C   0  0  0  0  0  0  0  0  0  0  0  0
    2.5880   18.0560  -27.8380 C   0  0  2  0  0  0  0  0  0  0  0  0
    1.3460   17.7420  -27.2510 O   0  0  0  0  0  0  0  0  0  0  0  0
    2.4890   19.2850  -28.7940 C   0  0  0  0  0  0  0  0  0  0  0  0
    1.6710   20.4240  -28.1190 C   0  0  0  0  0  0  0  0  0  0  0  0
    3.9190   19.8810  -28.9650 C   0  0  0  0  0  0  0  0  0  0  0  0
    1.8280   18.8850  -30.1830 C   0  0  2  0  0  0  0  0  0  0  0  0
    0.2770   18.6950  -30.0410 C   0  0  0  0  0  0  0  0  0  0  0  0
   -0.4610   17.9070  -31.1270 C   0  0  0  0  0  0  0  0  0  0  0  0
    0.2170   16.5570  -31.5060 C   0  0  2  0  0  0  0  0  0  0  0  0
    0.2740   15.6840  -30.2190 C   0  0  0  0  0  0  0  0  0  0  0  0
   -0.5970   15.7510  -32.6800 C   0  0  2  0  0  0  0  0  0  0  0  0
   -0.4970   14.1900  -32.5070 C   0  0  0  0  0  0  0  0  0  0  0  0
   -2.1250   16.1010  -32.6460 C   0  0  0  0  0  0  0  0  0  0  0  0
   -2.9400   15.4050  -33.7390 C   0  0  0  0  0  0  0  0  0  0  0  0
   -2.4560   15.8520  -35.1270 C   0  0  1  0  0  0  0  0  0  0  0  0
   -2.8530   17.2650  -35.3490 N   0  0  0  0  0  0  0  0  0  0  0  0
   -2.4050   18.3610  -34.5390 C   0  0  0  0  0  0  0  0  0  0  0  0
   -1.0220   18.5920  -34.3720 C   0  0  0  0  0  0  0  0  0  0  0  0
   -0.5690   19.6920  -33.6380 C   0  0  0  0  0  0  0  0  0  0  0  0
   -1.5170   20.4810  -32.9990 C   0  0  0  0  0  0  0  0  0  0  0  0
   -1.3380   21.5520  -32.1560 C   0  0  0  0  0  0  0  0  0  0  0  0
   -2.6090   21.8520  -31.6760 C   0  0  0  0  0  0  0  0  0  0  0  0
   -2.8220   22.7960  -30.5630 C   0  0  0  0  0  0  0  0  0  0  0  0
   -3.4870   24.0320  -30.8030 N   0  0  0  0  0  0  0  0  0  0  0  0
   -2.4060   22.5190  -29.4090 O   0  0  0  0  0  0  0  0  0  0  0  0
   -3.5500   21.0220  -32.2210 N   0  0  0  0  0  0  0  0  0  0  0  0
   -4.9580   21.0110  -31.9300 C   0  0  0  0  0  0  0  0  0  0  0  0
   -5.6190   22.0900  -31.9380 O   0  0  0  0  0  0  0  0  0  0  0  0
   -5.5940   19.8190  -31.5820 O   0  0  0  0  0  0  0  0  0  0  0  0
   -6.3050   19.0150  -32.5150 C   0  0  0  0  0  0  0  0  0  0  0  0
   -7.7550   19.4820  -32.5740 C   0  0  0  0  0  0  0  0  0  0  0  0
   -7.9860   20.5010  -31.6390 O   0  0  0  0  0  0  0  0  0  0  0  0
   -2.8630   20.1920  -33.0420 C   0  0  0  0  0  0  0  0  0  0  0  0
   -3.3370   19.1430  -33.8350 C   0  0  0  0  0  0  0  0  0  0  0  0
   -3.0620   14.9760  -36.2390 C   0  0  0  0  0  0  0  0  0  0  0  0
   -1.9140   14.7980  -37.1380 C   0  0  0  0  0  0  0  0  0  0  0  0
   -2.0110   14.2810  -38.2820 O   0  0  0  0  0  0  0  0  0  0  0  0
    0.6153   17.2486  -38.1211 H   0  0  0  0  0  0  0  0  0  0  0  0
    1.5387   16.0476  -39.0863 H   0  0  0  0  0  0  0  0  0  0  0  0
   -0.2572   16.0101  -39.0863 H   0  0  0  0  0  0  0  0  0  0  0  0
    1.4080   15.6256  -36.5559 H   0  0  0  0  0  0  0  0  0  0  0  0
    1.2434   13.2139  -36.8348 H   0  0  0  0  0  0  0  0  0  0  0  0
    0.2536   13.4055  -38.3215 H   0  0  0  0  0  0  0  0  0  0  0  0
    1.9798   13.9024  -38.3215 H   0  0  0  0  0  0  0  0  0  0  0  0
   -0.0024   17.2046  -34.2544 H   0  0  0  0  0  0  0  0  0  0  0  0
    1.5164   14.6102  -34.4422 H   0  0  0  0  0  0  0  0  0  0  0  0
    1.9611   16.3255  -34.9256 H   0  0  0  0  0  0  0  0  0  0  0  0
    2.2714   14.9281  -32.2949 H   0  0  0  0  0  0  0  0  0  0  0  0
    3.3108   16.1569  -33.1140 H   0  0  0  0  0  0  0  0  0  0  0  0
    1.4882   17.8521  -32.6615 H   0  0  0  0  0  0  0  0  0  0  0  0
    4.4400   18.9345  -31.2243 H   0  0  0  0  0  0  0  0  0  0  0  0
    4.1890   17.6982  -32.5031 H   0  0  0  0  0  0  0  0  0  0  0  0
    3.2073   19.2025  -32.5031 H   0  0  0  0  0  0  0  0  0  0  0  0
    3.1058   15.7210  -30.3536 H   0  0  0  0  0  0  0  0  0  0  0  0
    4.4232   17.0503  -30.1318 H   0  0  0  0  0  0  0  0  0  0  0  0
    2.4693   15.9527  -28.2412 H   0  0  0  0  0  0  0  0  0  0  0  0
    4.1777   16.7033  -28.0797 H   0  0  0  0  0  0  0  0  0  0  0  0
    3.3045   18.3844  -27.0707 H   0  0  0  0  0  0  0  0  0  0  0  0
    1.2890   16.7590  -27.1510 H   0  0  0  0  0  0  0  0  0  0  0  0
    1.7407   20.3270  -27.0255 H   0  0  0  0  0  0  0  0  0  0  0  0
    2.0766   21.3989  -28.4272 H   0  0  0  0  0  0  0  0  0  0  0  0
    0.6176   20.3511  -28.4272 H   0  0  0  0  0  0  0  0  0  0  0  0
    4.3604   20.0650  -27.9744 H   0  0  0  0  0  0  0  0  0  0  0  0
    4.5484   19.1703  -29.5206 H   0  0  0  0  0  0  0  0  0  0  0  0
    3.8574   20.8283  -29.5206 H   0  0  0  0  0  0  0  0  0  0  0  0
    1.9508   19.7389  -30.8655 H   0  0  0  0  0  0  0  0  0  0  0  0
    0.0983   18.1790  -29.0861 H   0  0  0  0  0  0  0  0  0  0  0  0
   -0.1295   19.7139  -30.1218 H   0  0  0  0  0  0  0  0  0  0  0  0
   -1.4784   17.6935  -30.7675 H   0  0  0  0  0  0  0  0  0  0  0  0
   -0.4522   18.5312  -32.0327 H   0  0  0  0  0  0  0  0  0  0  0  0
    0.2315   16.3342  -29.3327 H   0  0  0  0  0  0  0  0  0  0  0  0
   -0.5809   14.9919  -30.2073 H   0  0  0  0  0  0  0  0  0  0  0  0
    1.2116   15.1089  -30.2073 H   0  0  0  0  0  0  0  0  0  0  0  0
   -0.4810   13.9401  -31.4359 H   0  0  0  0  0  0  0  0  0  0  0  0
   -1.3664   13.7120  -32.9821 H   0  0  0  0  0  0  0  0  0  0  0  0
    0.4263   13.8268  -32.9821 H   0  0  0  0  0  0  0  0  0  0  0  0
   -2.5284   15.8008  -31.6676 H   0  0  0  0  0  0  0  0  0  0  0  0
   -2.2109   17.1836  -32.8210 H   0  0  0  0  0  0  0  0  0  0  0  0
   -2.8184   14.3158  -33.6451 H   0  0  0  0  0  0  0  0  0  0  0  0
   -4.0000   15.6756  -33.6239 H   0  0  0  0  0  0  0  0  0  0  0  0
   -3.1800   17.5250  -36.3140 H   0  0  0  0  0  0  0  0  0  0  0  0
   -0.2951   17.9006  -34.8232 H   0  0  0  0  0  0  0  0  0  0  0  0
    0.5037   19.9253  -33.5686 H   0  0  0  0  0  0  0  0  0  0  0  0
   -0.3939   22.0617  -31.9134 H   0  0  0  0  0  0  0  0  0  0  0  0
   -3.0150   24.9450  -30.6220 H   0  0  0  0  0  0  0  0  0  0  0  0
   -5.8460   19.1124  -33.5099 H   0  0  0  0  0  0  0  0  0  0  0  0
   -6.2678   17.9617  -32.2001 H   0  0  0  0  0  0  0  0  0  0  0  0
   -7.9711   19.8623  -33.5833 H   0  0  0  0  0  0  0  0  0  0  0  0
   -8.4106   18.6307  -32.3384 H   0  0  0  0  0  0  0  0  0  0  0  0
   -7.1080   20.7220  -31.2210 H   0  0  0  0  0  0  0  0  0  0  0  0
   -4.4146   18.9343  -33.9065 H   0  0  0  0  0  0  0  0  0  0  0  0
   -3.4141   14.0121  -35.8428 H   0  0  0  0  0  0  0  0  0  0  0  0
   -3.9445   15.4183  -36.7244 H   0  0  0  0  0  0  0  0  0  0  0  0
  1  2  1  0
  2  3  1  0
  2  4  1  0
  4  5  2  0
  5  6  1  0
  6  7  1  0
  7  8  1  0
  8  9  1  0
  9 10  1  0
 10 11  1  6
 10 12  1  0
 12 13  1  0
 13 14  1  0
 14 15  1  0
 14 16  1  0
 16 17  1  0
 16 18  1  0
 16 19  1  0
 19 20  1  0
 20 21  1  0
 21 22  1  0
 22 23  1  1
 22 24  1  0
 24 25  1  1
 24 26  1  0
 26 27  1  0
 27 28  1  0
 28 29  1  6
 29 30  1  0
 30 31  2  0
 31 32  1  0
 32 33  2  0
 33 34  1  0
 34 35  2  0
 35 36  1  0
 36 37  1  0
 36 38  2  0
 35 39  1  0
 39 40  1  0
 40 41  2  0
 40 42  1  0
 42 43  1  0
 43 44  1  0
 44 45  1  0
 39 46  1  0
 46 47  2  0
 28 48  1  0
 48 49  1  0
 49 50  2  0
 49  4  1  0
 28  5  1  0
 47 30  1  0
 24  6  1  0
 46 33  1  0
 22  9  1  0
 19 10  1  0
  1 51  1  0
  1 52  1  0
  1 53  1  0
  2 54  1  0
  3 55  1  0
  3 56  1  0
  3 57  1  0
  6 58  1  1
  7 59  1  0
  7 60  1  0
  8 61  1  0
  8 62  1  0
  9 63  1  6
 11 64  1  0
 11 65  1  0
 11 66  1  0
 12 67  1  0
 12 68  1  0
 13 69  1  0
 13 70  1  0
 14 71  1  1
 15 72  1  0
 17 73  1  0
 17 74  1  0
 17 75  1  0
 18 76  1  0
 18 77  1  0
 18 78  1  0
 19 79  1  6
 20 80  1  0
 20 81  1  0
 21 82  1  0
 21 83  1  0
 23 84  1  0
 23 85  1  0
 23 86  1  0
 25 87  1  0
 25 88  1  0
 25 89  1  0
 26 90  1  0
 26 91  1  0
 27 92  1  0
 27 93  1  0
 29 94  1  0
 31 95  1  0
 32 96  1  0
 34 97  1  0
 37 98  1  0
 43 99  1  0
 43100  1  0
 44101  1  0
 44102  1  0
 45103  1  0
 47104  1  0
 48105  1  0
 48106  1  0
M  CHG  1  37  -1
M  END
>  <UniqueID>  (48) 
48

>  <SMILES>  (48) 
CC(C)C1=C2[C@@H]3CC[C@@H]4C5(C)CCC(O)C(C)(C)C5CCC4(C)C3(C)CCC2(Nc2ccc3cc(C([NH-])=O)n(C(=O)OCCO)c3c2)CC1=O

>  <Energy>  (48) 
253.15213957492787

>  <Genealogy>  (48) 
CC(C)C1=C2C3CCC4C5(C)CCC(O)C(C)(C)C5CCC4(C)C3(C)CCC2(Nc2ccc3cc(C([NH-])=O)n(C(=O)OCCO)c3c2)CC1=O (protonated)
CC(C)C1=C2[C@@H]3CC[C@@H]4C5(C)CCC(O)C(C)(C)C5CCC4(C)C3(C)CCC2(Nc2ccc3cc(C([NH-])=O)n(C(=O)OCCO)c3c2)CC1=O (chirality)
CC(C)C1=C2[C@@H]3CC[C@@H]4C5(C)CCC(O)C(C)(C)C5CCC4(C)C3(C)CCC2(Nc2ccc3cc(C([NH-])=O)n(C(=O)OCCO)c3c2)CC1=O (3D coordinates assigned)
CC(C)C1=C2[C@@H]3CC[C@@H]4C5(C)CCC(O)C(C)(C)C5CCC4(C)C3(C)CCC2(Nc2ccc3cc(C([NH-])=O)n(C(=O)OCCO)c3c2)CC1=O (nonaromatic ring conformer: 253.15213957492787 kcal/mol)

>  <smiles>  (48) 
CC(C)C1=C2C3CCC4C5(C)CCC(O)C(C)(C)C5CCC4(C)C3(C)CCC2(Nc2ccc3cc(C(N)=O)n(C(=O)OCCO)c3c2)CC1=O

>  <score_type>  (48) 
oracle

>  <origin>  (48) 
adg

>  <m_score__min__energy>  (48) 
-9.5800000000000001

>  <m_primary>  (48) 
energy

$$$$
49:0
     RDKit          3D

 43 44  0  0  0  0  0  0  0  0999 V2000
   -6.8170   17.2400  -32.6550 C   0  0  0  0  0  0  0  0  0  0  0  0
   -6.9430   18.4130  -32.4050 C   0  0  0  0  0  0  0  0  0  0  0  0
   -7.0930   19.8130  -32.1070 C   0  0  0  0  0  0  0  0  0  0  0  0
   -8.3560   20.4350  -32.2540 C   0  0  0  0  0  0  0  0  0  0  0  0
   -8.5130   21.8030  -31.9740 C   0  0  0  0  0  0  0  0  0  0  0  0
   -7.3950   22.5130  -31.5450 C   0  0  0  0  0  0  0  0  0  0  0  0
   -7.2550   23.8470  -31.2310 C   0  0  0  0  0  0  0  0  0  0  0  0
   -5.9140   24.0070  -30.8840 C   0  0  0  0  0  0  0  0  0  0  0  0
   -5.3250   25.2900  -30.4420 C   0  0  0  0  0  0  0  0  0  0  0  0
   -4.0120   25.6730  -30.8400 N   0  0  0  0  0  0  0  0  0  0  0  0
   -5.9840   26.0500  -29.6820 O   0  0  0  0  0  0  0  0  0  0  0  0
   -5.2550   22.8190  -30.9760 N   0  0  0  0  0  0  0  0  0  0  0  0
   -3.8560   22.5740  -30.7690 C   0  0  0  0  0  0  0  0  0  0  0  0
   -3.0260   23.0570  -31.5840 O   0  0  0  0  0  0  0  0  0  0  0  0
   -3.4070   21.7500  -29.6220 C   0  0  0  0  0  0  0  0  0  0  0  0
   -3.3900   20.4960  -29.7630 O   0  0  0  0  0  0  0  0  0  0  0  0
   -2.9960   22.3220  -28.3590 N   0  0  0  0  0  0  0  0  0  0  0  0
   -2.0230   21.6470  -27.4930 C   0  0  0  0  0  0  0  0  0  0  0  0
   -3.4270   23.6850  -28.0120 C   0  0  0  0  0  0  0  0  0  0  0  0
   -2.3150   24.6870  -28.2160 C   0  0  0  0  0  0  0  0  0  0  0  0
   -1.7590   24.7710  -29.3460 O   0  0  0  0  0  0  0  0  0  0  0  0
   -1.8590   25.5280  -27.1350 N   0  0  0  0  0  0  0  0  0  0  0  0
   -2.4540   25.4200  -25.7970 C   0  0  0  0  0  0  0  0  0  0  0  0
   -0.7830   26.4920  -27.3850 C   0  0  0  0  0  0  0  0  0  0  0  0
   -6.1710   21.9160  -31.3870 C   0  0  0  0  0  0  0  0  0  0  0  0
   -5.9800   20.5600  -31.6720 C   0  0  0  0  0  0  0  0  0  0  0  0
   -6.7021   16.1701  -32.8830 H   0  0  0  0  0  0  0  0  0  0  0  0
   -9.2205   19.8434  -32.5897 H   0  0  0  0  0  0  0  0  0  0  0  0
   -9.4887   22.2974  -32.0901 H   0  0  0  0  0  0  0  0  0  0  0  0
   -8.0356   24.6218  -31.2500 H   0  0  0  0  0  0  0  0  0  0  0  0
   -3.1980   25.0350  -30.6940 H   0  0  0  0  0  0  0  0  0  0  0  0
   -2.2828   21.8272  -26.4394 H   0  0  0  0  0  0  0  0  0  0  0  0
   -2.0403   20.5659  -27.6951 H   0  0  0  0  0  0  0  0  0  0  0  0
   -1.0164   22.0418  -27.6951 H   0  0  0  0  0  0  0  0  0  0  0  0
   -4.2797   23.9631  -28.6488 H   0  0  0  0  0  0  0  0  0  0  0  0
   -3.7110   23.6967  -26.9494 H   0  0  0  0  0  0  0  0  0  0  0  0
   -1.6727   25.5618  -25.0358 H   0  0  0  0  0  0  0  0  0  0  0  0
   -3.2279   26.1923  -25.6764 H   0  0  0  0  0  0  0  0  0  0  0  0
   -2.9071   24.4249  -25.6764 H   0  0  0  0  0  0  0  0  0  0  0  0
   -0.3822   26.8511  -26.4256 H   0  0  0  0  0  0  0  0  0  0  0  0
    0.0196   26.0051  -27.9585 H   0  0  0  0  0  0  0  0  0  0  0  0
   -1.1791   27.3430  -27.9585 H   0  0  0  0  0  0  0  0  0  0  0  0
   -4.9913   20.0910  -31.5600 H   0  0  0  0  0  0  0  0  0  0  0  0
  1  2  3  0
  2  3  1  0
  3  4  2  0
  4  5  1  0
  5  6  2  0
  6  7  1  0
  7  8  2  0
  8  9  1  0
  9 10  1  0
  9 11  2  0
  8 12  1  0
 12 13  1  0
 13 14  2  0
 13 15  1  0
 15 16  2  0
 15 17  1  0
 17 18  1  0
 17 19  1  0
 19 20  1  0
 20 21  2  0
 20 22  1  0
 22 23  1  0
 22 24  1  0
 12 25  1  0
 25 26  2  0
 26  3  1  0
 25  6  1  0
  1 27  1  0
  4 28  1  0
  5 29  1  0
  7 30  1  0
 10 31  1  0
 18 32  1  0
 18 33  1  0
 18 34  1  0
 19 35  1  0
 19 36  1  0
 23 37  1  0
 23 38  1  0
 23 39  1  0
 24 40  1  0
 24 41  1  0
 24 42  1  0
 26 43  1  0
M  CHG  1  10  -1
M  END
>  <UniqueID>  (49) 
49

>  <SMILES>  (49) 
C#Cc1ccc2cc(C([NH-])=O)n(C(=O)C(=O)N(C)CC(=O)N(C)C)c2c1

>  <Energy>  (49) 
79.43628643134555

>  <Genealogy>  (49) 
C#Cc1ccc2cc(C([NH-])=O)n(C(=O)C(=O)N(C)CC(=O)N(C)C)c2c1 (protonated)
C#Cc1ccc2cc(C([NH-])=O)n(C(=O)C(=O)N(C)CC(=O)N(C)C)c2c1 (3D coordinates assigned)
C#Cc1ccc2cc(C([NH-])=O)n(C(=O)C(=O)N(C)CC(=O)N(C)C)c2c1 (optimized conformer: 79.43628643134555 kcal/mol)

>  <smiles>  (49) 
C#Cc1ccc2cc(C(N)=O)n(C(=O)C(=O)N(C)CC(=O)N(C)C)c2c1

>  <score_type>  (49) 
oracle

>  <origin>  (49) 
adg

>  <m_score__min__energy>  (49) 
-11.279999999999999

>  <m_primary>  (49) 
energy

$$$$
50:0
     RDKit          3D

 42 43  0  0  0  0  0  0  0  0999 V2000
   -6.8550   14.8450  -34.2550 C   0  0  0  0  0  0  0  0  0  0  0  0
   -6.8730   16.2520  -34.1650 O   0  0  0  0  0  0  0  0  0  0  0  0
   -5.5990   16.7850  -34.4800 C   0  0  0  0  0  0  0  0  0  0  0  0
   -5.5570   18.2900  -34.1920 C   0  0  0  0  0  0  0  0  0  0  0  0
   -6.8420   18.7610  -33.6740 N   0  0  0  0  0  0  0  0  0  0  0  0
   -7.0390   20.0000  -32.9650 C   0  0  0  0  0  0  0  0  0  0  0  0
   -8.3350   20.4620  -32.6060 C   0  0  0  0  0  0  0  0  0  0  0  0
   -8.4990   21.6700  -31.9090 C   0  0  0  0  0  0  0  0  0  0  0  0
   -7.3590   22.4020  -31.5930 C   0  0  0  0  0  0  0  0  0  0  0  0
   -7.2320   23.5870  -30.9050 C   0  0  0  0  0  0  0  0  0  0  0  0
   -5.8650   23.8500  -30.8740 C   0  0  0  0  0  0  0  0  0  0  0  0
   -5.2920   25.0870  -30.3030 C   0  0  0  0  0  0  0  0  0  0  0  0
   -4.0990   25.6550  -30.8370 N   0  0  0  0  0  0  0  0  0  0  0  0
   -5.8910   25.6770  -29.3660 O   0  0  0  0  0  0  0  0  0  0  0  0
   -5.1710   22.8610  -31.5080 N   0  0  0  0  0  0  0  0  0  0  0  0
   -3.7450   22.7070  -31.6040 C   0  0  0  0  0  0  0  0  0  0  0  0
   -3.2460   22.0600  -32.5640 O   0  0  0  0  0  0  0  0  0  0  0  0
   -2.9170   23.2910  -30.6390 O   0  0  0  0  0  0  0  0  0  0  0  0
   -2.0250   22.5470  -29.8090 C   0  0  0  0  0  0  0  0  0  0  0  0
   -1.7180   23.2920  -28.5070 C   0  0  0  0  0  0  0  0  0  0  0  0
   -0.9410   24.5470  -28.7610 C   0  0  0  0  0  0  0  0  0  0  0  0
    0.2850   24.6020  -28.4820 O   0  0  0  0  0  0  0  0  0  0  0  0
   -1.5750   25.6600  -29.2980 O   0  0  0  0  0  0  0  0  0  0  0  0
   -6.1030   21.9860  -31.9480 C   0  0  0  0  0  0  0  0  0  0  0  0
   -5.9100   20.7790  -32.6300 C   0  0  0  0  0  0  0  0  0  0  0  0
   -6.8495   14.4129  -33.2434 H   0  0  0  0  0  0  0  0  0  0  0  0
   -7.7488   14.5007  -34.7959 H   0  0  0  0  0  0  0  0  0  0  0  0
   -5.9527   14.5237  -34.7959 H   0  0  0  0  0  0  0  0  0  0  0  0
   -4.8350   16.2791  -33.8714 H   0  0  0  0  0  0  0  0  0  0  0  0
   -5.4019   16.6233  -35.5500 H   0  0  0  0  0  0  0  0  0  0  0  0
   -4.7731   18.4920  -33.4472 H   0  0  0  0  0  0  0  0  0  0  0  0
   -5.3421   18.8206  -35.1313 H   0  0  0  0  0  0  0  0  0  0  0  0
   -7.6750   18.1540  -33.8520 H   0  0  0  0  0  0  0  0  0  0  0  0
   -9.2191   19.8664  -32.8773 H   0  0  0  0  0  0  0  0  0  0  0  0
   -9.4990   22.0268  -31.6215 H   0  0  0  0  0  0  0  0  0  0  0  0
   -8.0386   24.1966  -30.4718 H   0  0  0  0  0  0  0  0  0  0  0  0
   -3.1600   25.3000  -30.5500 H   0  0  0  0  0  0  0  0  0  0  0  0
   -2.4864   21.5784  -29.5664 H   0  0  0  0  0  0  0  0  0  0  0  0
   -1.0815   22.4049  -30.3563 H   0  0  0  0  0  0  0  0  0  0  0  0
   -2.6655   23.5524  -28.0126 H   0  0  0  0  0  0  0  0  0  0  0  0
   -1.1103   22.6339  -27.8686 H   0  0  0  0  0  0  0  0  0  0  0  0
   -4.8977   20.4436  -32.8999 H   0  0  0  0  0  0  0  0  0  0  0  0
  1  2  1  0
  2  3  1  0
  3  4  1  0
  4  5  1  0
  5  6  1  0
  6  7  2  0
  7  8  1  0
  8  9  2  0
  9 10  1  0
 10 11  2  0
 11 12  1  0
 12 13  1  0
 12 14  2  0
 11 15  1  0
 15 16  1  0
 16 17  2  0
 16 18  1  0
 18 19  1  0
 19 20  1  0
 20 21  1  0
 21 22  2  0
 21 23  1  0
 15 24  1  0
 24 25  2  0
 25  6  1  0
 24  9  1  0
  1 26  1  0
  1 27  1  0
  1 28  1  0
  3 29  1  0
  3 30  1  0
  4 31  1  0
  4 32  1  0
  5 33  1  0
  7 34  1  0
  8 35  1  0
 10 36  1  0
 13 37  1  0
 19 38  1  0
 19 39  1  0
 20 40  1  0
 20 41  1  0
 25 42  1  0
M  CHG  2  13  -1  23  -1
M  END
>  <UniqueID>  (50) 
50

>  <SMILES>  (50) 
COCCNc1ccc2cc(C([NH-])=O)n(C(=O)OCCC(=O)[O-])c2c1

>  <Energy>  (50) 
76.42872069408423

>  <Genealogy>  (50) 
COCCNc1ccc2cc(C([NH-])=O)n(C(=O)OCCC(=O)[O-])c2c1 (protonated)
COCCNc1ccc2cc(C([NH-])=O)n(C(=O)OCCC(=O)[O-])c2c1 (3D coordinates assigned)
COCCNc1ccc2cc(C([NH-])=O)n(C(=O)OCCC(=O)[O-])c2c1 (optimized conformer: 76.42872069408423 kcal/mol)

>  <smiles>  (50) 
COCCNc1ccc2cc(C(N)=O)n(C(=O)OCCC(=O)O)c2c1

>  <score_type>  (50) 
oracle

>  <origin>  (50) 
adg

>  <m_score__min__energy>  (50) 
-12.35

>  <m_primary>  (50) 
energy

$$$$
51:0
     RDKit          3D

 46 47  0  0  0  0  0  0  0  0999 V2000
   -6.8620   16.3300  -33.5180 C   0  0  0  0  0  0  0  0  0  0  0  0
   -6.4390   17.7960  -33.3540 C   0  0  0  0  0  0  0  0  0  0  0  0
   -5.6010   18.3080  -34.5320 C   0  0  0  0  0  0  0  0  0  0  0  0
   -7.5790   18.6810  -33.0650 N   0  0  0  0  0  0  0  0  0  0  0  0
   -7.5380   20.0360  -32.5660 C   0  0  0  0  0  0  0  0  0  0  0  0
   -8.7620   20.7380  -32.4190 C   0  0  0  0  0  0  0  0  0  0  0  0
   -8.7900   22.0520  -31.9200 C   0  0  0  0  0  0  0  0  0  0  0  0
   -7.5820   22.6420  -31.5740 C   0  0  0  0  0  0  0  0  0  0  0  0
   -7.3210   23.8870  -31.0460 C   0  0  0  0  0  0  0  0  0  0  0  0
   -5.9370   23.9380  -30.8860 C   0  0  0  0  0  0  0  0  0  0  0  0
   -5.2130   25.1400  -30.4230 C   0  0  0  0  0  0  0  0  0  0  0  0
   -3.8750   25.3970  -30.8390 N   0  0  0  0  0  0  0  0  0  0  0  0
   -5.8010   25.9750  -29.6840 O   0  0  0  0  0  0  0  0  0  0  0  0
   -5.3690   22.7660  -31.2900 N   0  0  0  0  0  0  0  0  0  0  0  0
   -3.9850   22.3920  -31.2320 C   0  0  0  0  0  0  0  0  0  0  0  0
   -3.1660   22.8820  -32.0570 O   0  0  0  0  0  0  0  0  0  0  0  0
   -3.5500   21.5000  -30.2450 O   0  0  0  0  0  0  0  0  0  0  0  0
   -2.7830   21.9000  -29.1110 C   0  0  0  0  0  0  0  0  0  0  0  0
   -2.2910   23.3000  -29.2880 C   0  0  0  0  0  0  0  0  0  0  0  0
   -1.3520   23.5360  -30.0960 O   0  0  0  0  0  0  0  0  0  0  0  0
   -2.9200   24.3420  -28.5970 O   0  0  0  0  0  0  0  0  0  0  0  0
   -2.3340   25.0150  -27.4850 C   0  0  0  0  0  0  0  0  0  0  0  0
   -1.2860   26.0240  -27.9570 C   0  0  0  0  0  0  0  0  0  0  0  0
   -1.1960   26.0140  -29.3560 O   0  0  0  0  0  0  0  0  0  0  0  0
   -6.3880   21.9870  -31.7120 C   0  0  0  0  0  0  0  0  0  0  0  0
   -6.3310   20.6710  -32.1860 C   0  0  0  0  0  0  0  0  0  0  0  0
   -6.9938   15.8732  -32.5260 H   0  0  0  0  0  0  0  0  0  0  0  0
   -7.8106   16.2820  -34.0728 H   0  0  0  0  0  0  0  0  0  0  0  0
   -6.0848   15.7840  -34.0728 H   0  0  0  0  0  0  0  0  0  0  0  0
   -5.7835   17.8222  -32.4710 H   0  0  0  0  0  0  0  0  0  0  0  0
   -4.7209   18.8457  -34.1496 H   0  0  0  0  0  0  0  0  0  0  0  0
   -5.2723   17.4563  -35.1457 H   0  0  0  0  0  0  0  0  0  0  0  0
   -6.2088   18.9892  -35.1457 H   0  0  0  0  0  0  0  0  0  0  0  0
   -8.5090   18.3310  -33.3930 H   0  0  0  0  0  0  0  0  0  0  0  0
   -9.7048   20.2460  -32.7001 H   0  0  0  0  0  0  0  0  0  0  0  0
   -9.7396   22.5957  -31.8072 H   0  0  0  0  0  0  0  0  0  0  0  0
   -8.0498   24.6740  -30.8023 H   0  0  0  0  0  0  0  0  0  0  0  0
   -3.1330   24.6680  -30.7450 H   0  0  0  0  0  0  0  0  0  0  0  0
   -3.4119   21.8471  -28.2101 H   0  0  0  0  0  0  0  0  0  0  0  0
   -1.9194   21.2268  -29.0064 H   0  0  0  0  0  0  0  0  0  0  0  0
   -3.1206   25.5449  -26.9278 H   0  0  0  0  0  0  0  0  0  0  0  0
   -1.8444   24.2716  -26.8387 H   0  0  0  0  0  0  0  0  0  0  0  0
   -1.5734   27.0306  -27.6191 H   0  0  0  0  0  0  0  0  0  0  0  0
   -0.3086   25.7491  -27.5337 H   0  0  0  0  0  0  0  0  0  0  0  0
   -2.0620   25.6640  -29.6920 H   0  0  0  0  0  0  0  0  0  0  0  0
   -5.3696   20.1419  -32.2615 H   0  0  0  0  0  0  0  0  0  0  0  0
  1  2  1  0
  2  3  1  0
  2  4  1  0
  4  5  1  0
  5  6  2  0
  6  7  1  0
  7  8  2  0
  8  9  1  0
  9 10  2  0
 10 11  1  0
 11 12  1  0
 11 13  2  0
 10 14  1  0
 14 15  1  0
 15 16  2  0
 15 17  1  0
 17 18  1  0
 18 19  1  0
 19 20  2  0
 19 21  1  0
 21 22  1  0
 22 23  1  0
 23 24  1  0
 14 25  1  0
 25 26  2  0
 26  5  1  0
 25  8  1  0
  1 27  1  0
  1 28  1  0
  1 29  1  0
  2 30  1  0
  3 31  1  0
  3 32  1  0
  3 33  1  0
  4 34  1  0
  6 35  1  0
  7 36  1  0
  9 37  1  0
 12 38  1  0
 18 39  1  0
 18 40  1  0
 22 41  1  0
 22 42  1  0
 23 43  1  0
 23 44  1  0
 24 45  1  0
 26 46  1  0
M  CHG  1  12  -1
M  END
>  <UniqueID>  (51) 
51

>  <SMILES>  (51) 
CC(C)Nc1ccc2cc(C([NH-])=O)n(C(=O)OCC(=O)OCCO)c2c1

>  <Energy>  (51) 
78.48757801360172

>  <Genealogy>  (51) 
CC(C)Nc1ccc2cc(C([NH-])=O)n(C(=O)OCC(=O)OCCO)c2c1 (protonated)
CC(C)Nc1ccc2cc(C([NH-])=O)n(C(=O)OCC(=O)OCCO)c2c1 (3D coordinates assigned)
CC(C)Nc1ccc2cc(C([NH-])=O)n(C(=O)OCC(=O)OCCO)c2c1 (optimized conformer: 78.48757801360172 kcal/mol)

>  <smiles>  (51) 
CC(C)Nc1ccc2cc(C(N)=O)n(C(=O)OCC(=O)OCCO)c2c1

>  <score_type>  (51) 
oracle

>  <origin>  (51) 
adg

>  <m_score__min__energy>  (51) 
-10.5

>  <m_primary>  (51) 
energy

$$$$
52:0
     RDKit          3D

 37 38  0  0  0  0  0  0  0  0999 V2000
   -3.6170   24.2880  -27.6940 C   0  0  0  0  0  0  0  0  0  0  0  0
   -2.5820   23.7290  -28.3310 C   0  0  0  0  0  0  0  0  0  0  0  0
   -1.4350   24.5450  -28.7870 C   0  0  0  0  0  0  0  0  0  0  0  0
   -1.6110   25.6830  -29.2980 O   0  0  0  0  0  0  0  0  0  0  0  0
   -0.1410   24.0600  -28.6440 O   0  0  0  0  0  0  0  0  0  0  0  0
   -2.5710   22.3080  -28.5520 N   0  0  0  0  0  0  0  0  0  0  0  0
   -1.8850   21.4560  -27.5760 C   0  0  0  0  0  0  0  0  0  0  0  0
   -3.2500   21.7590  -29.7050 C   0  0  0  0  0  0  0  0  0  0  0  0
   -3.4210   20.5130  -29.7900 O   0  0  0  0  0  0  0  0  0  0  0  0
   -3.7530   22.6040  -30.8130 C   0  0  0  0  0  0  0  0  0  0  0  0
   -2.9590   23.0710  -31.6730 O   0  0  0  0  0  0  0  0  0  0  0  0
   -5.1640   22.8270  -30.9670 N   0  0  0  0  0  0  0  0  0  0  0  0
   -5.8650   23.9710  -30.7260 C   0  0  0  0  0  0  0  0  0  0  0  0
   -5.2840   25.2870  -30.3820 C   0  0  0  0  0  0  0  0  0  0  0  0
   -3.9830   25.6540  -30.8300 N   0  0  0  0  0  0  0  0  0  0  0  0
   -5.9630   26.1130  -29.7150 O   0  0  0  0  0  0  0  0  0  0  0  0
   -7.2290   23.7570  -30.9190 C   0  0  0  0  0  0  0  0  0  0  0  0
   -7.3400   22.4390  -31.3010 C   0  0  0  0  0  0  0  0  0  0  0  0
   -8.4700   21.6890  -31.6160 C   0  0  0  0  0  0  0  0  0  0  0  0
   -8.2880   20.3370  -31.9560 C   0  0  0  0  0  0  0  0  0  0  0  0
   -6.9920   19.7640  -31.9730 C   0  0  0  0  0  0  0  0  0  0  0  0
   -6.8220   18.3140  -32.3280 C   0  0  0  0  0  0  0  0  0  0  0  0
   -8.0620   17.7350  -32.5310 F   0  0  0  0  0  0  0  0  0  0  0  0
   -6.1730   17.6550  -31.3010 F   0  0  0  0  0  0  0  0  0  0  0  0
   -5.8700   20.5560  -31.6460 C   0  0  0  0  0  0  0  0  0  0  0  0
   -6.0800   21.9020  -31.3240 C   0  0  0  0  0  0  0  0  0  0  0  0
   -4.4606   23.6647  -27.3627 H   0  0  0  0  0  0  0  0  0  0  0  0
   -3.6245   25.3710  -27.5015 H   0  0  0  0  0  0  0  0  0  0  0  0
   -2.1464   21.7807  -26.5581 H   0  0  0  0  0  0  0  0  0  0  0  0
   -2.1965   20.4107  -27.7188 H   0  0  0  0  0  0  0  0  0  0  0  0
   -0.7973   21.5373  -27.7188 H   0  0  0  0  0  0  0  0  0  0  0  0
   -3.1640   25.0260  -30.6790 H   0  0  0  0  0  0  0  0  0  0  0  0
   -8.0431   24.4859  -30.7929 H   0  0  0  0  0  0  0  0  0  0  0  0
   -9.4732   22.1399  -31.5994 H   0  0  0  0  0  0  0  0  0  0  0  0
   -9.1605   19.7177  -32.2114 H   0  0  0  0  0  0  0  0  0  0  0  0
   -6.2250   18.2369  -33.2487 H   0  0  0  0  0  0  0  0  0  0  0  0
   -4.8573   20.1266  -31.6443 H   0  0  0  0  0  0  0  0  0  0  0  0
  1  2  2  0
  2  3  1  0
  3  4  2  0
  3  5  1  0
  2  6  1  0
  6  7  1  0
  6  8  1  0
  8  9  2  0
  8 10  1  0
 10 11  2  0
 10 12  1  0
 12 13  1  0
 13 14  1  0
 14 15  1  0
 14 16  2  0
 13 17  2  0
 17 18  1  0
 18 19  2  0
 19 20  1  0
 20 21  2  0
 21 22  1  0
 22 23  1  0
 22 24  1  0
 21 25  1  0
 25 26  2  0
 26 12  1  0
 26 18  1  0
  1 27  1  0
  1 28  1  0
  7 29  1  0
  7 30  1  0
  7 31  1  0
 15 32  1  0
 17 33  1  0
 19 34  1  0
 20 35  1  0
 22 36  1  0
 25 37  1  0
M  CHG  2   5  -1  15  -1
M  END
>  <UniqueID>  (52) 
52

>  <SMILES>  (52) 
C=C(C(=O)[O-])N(C)C(=O)C(=O)n1c(C([NH-])=O)cc2ccc(C(F)F)cc21

>  <Energy>  (52) 
84.13640349084062

>  <Genealogy>  (52) 
C=C(C(=O)[O-])N(C)C(=O)C(=O)n1c(C([NH-])=O)cc2ccc(C(F)F)cc21 (protonated)
C=C(C(=O)[O-])N(C)C(=O)C(=O)n1c(C([NH-])=O)cc2ccc(C(F)F)cc21 (3D coordinates assigned)
C=C(C(=O)[O-])N(C)C(=O)C(=O)n1c(C([NH-])=O)cc2ccc(C(F)F)cc21 (optimized conformer: 84.13640349084062 kcal/mol)

>  <smiles>  (52) 
C=C(C(=O)O)N(C)C(=O)C(=O)n1c(C(N)=O)cc2ccc(C(F)F)cc21

>  <score_type>  (52) 
oracle

>  <origin>  (52) 
adg

>  <m_score__min__energy>  (52) 
-12.32

>  <m_primary>  (52) 
energy

$$$$
53:0
     RDKit          3D

 42 43  0  0  0  0  0  0  0  0999 V2000
   -1.9860   25.6010  -26.5830 C   0  0  0  0  0  0  0  0  0  0  0  0
   -1.5920   24.3530  -27.2470 N   0  0  0  0  0  0  0  0  0  0  0  0
   -1.0190   23.2570  -26.4570 C   0  0  0  0  0  0  0  0  0  0  0  0
   -1.7960   24.2300  -28.6730 C   0  0  0  0  0  0  0  0  0  0  0  0
   -2.2050   25.2270  -29.3300 O   0  0  0  0  0  0  0  0  0  0  0  0
   -1.5370   22.9490  -29.4240 C   0  0  0  0  0  0  0  0  0  0  0  0
   -2.4820   21.8270  -28.9860 C   0  0  0  0  0  0  0  0  0  0  0  0
   -3.4880   21.5870  -29.9670 O   0  0  0  0  0  0  0  0  0  0  0  0
   -3.9400   22.5460  -30.8800 C   0  0  0  0  0  0  0  0  0  0  0  0
   -3.1160   23.2660  -31.5080 O   0  0  0  0  0  0  0  0  0  0  0  0
   -5.3540   22.7310  -31.0800 N   0  0  0  0  0  0  0  0  0  0  0  0
   -6.1050   23.8300  -30.7810 C   0  0  0  0  0  0  0  0  0  0  0  0
   -5.5830   25.1290  -30.3060 C   0  0  0  0  0  0  0  0  0  0  0  0
   -4.2350   25.5180  -30.5810 N   0  0  0  0  0  0  0  0  0  0  0  0
   -6.3110   25.8930  -29.6220 O   0  0  0  0  0  0  0  0  0  0  0  0
   -7.4480   23.5970  -31.0690 C   0  0  0  0  0  0  0  0  0  0  0  0
   -7.5000   22.3130  -31.5580 C   0  0  0  0  0  0  0  0  0  0  0  0
   -8.5920   21.5650  -31.9880 C   0  0  0  0  0  0  0  0  0  0  0  0
   -8.3600   20.2470  -32.4160 C   0  0  0  0  0  0  0  0  0  0  0  0
   -7.0530   19.7020  -32.4000 C   0  0  0  0  0  0  0  0  0  0  0  0
   -6.8130   18.2860  -32.8370 C   0  0  0  0  0  0  0  0  0  0  0  0
   -6.4820   18.2640  -34.1800 F   0  0  0  0  0  0  0  0  0  0  0  0
   -7.9560   17.5340  -32.6360 F   0  0  0  0  0  0  0  0  0  0  0  0
   -5.9690   20.4910  -31.9540 C   0  0  0  0  0  0  0  0  0  0  0  0
   -6.2240   21.8090  -31.5530 C   0  0  0  0  0  0  0  0  0  0  0  0
   -1.9432   25.4653  -25.4922 H   0  0  0  0  0  0  0  0  0  0  0  0
   -1.2986   26.4069  -26.8795 H   0  0  0  0  0  0  0  0  0  0  0  0
   -3.0116   25.8662  -26.8795 H   0  0  0  0  0  0  0  0  0  0  0  0
   -1.1345   23.4779  -25.3856 H   0  0  0  0  0  0  0  0  0  0  0  0
   -1.5424   22.3197  -26.6966 H   0  0  0  0  0  0  0  0  0  0  0  0
    0.0494   23.1519  -26.6966 H   0  0  0  0  0  0  0  0  0  0  0  0
   -1.6782   23.1329  -30.4993 H   0  0  0  0  0  0  0  0  0  0  0  0
   -0.5069   22.6300  -29.2071 H   0  0  0  0  0  0  0  0  0  0  0  0
   -1.8999   20.9057  -28.8364 H   0  0  0  0  0  0  0  0  0  0  0  0
   -2.9739   22.1317  -28.0505 H   0  0  0  0  0  0  0  0  0  0  0  0
   -3.6160   24.9380  -31.1900 H   0  0  0  0  0  0  0  0  0  0  0  0
   -3.8630   26.4180  -30.2070 H   0  0  0  0  0  0  0  0  0  0  0  0
   -8.2890   24.2931  -30.9338 H   0  0  0  0  0  0  0  0  0  0  0  0
   -9.6055   21.9925  -31.9926 H   0  0  0  0  0  0  0  0  0  0  0  0
   -9.2020   19.6323  -32.7670 H   0  0  0  0  0  0  0  0  0  0  0  0
   -5.9874   17.8622  -32.2465 H   0  0  0  0  0  0  0  0  0  0  0  0
   -4.9491   20.0802  -31.9224 H   0  0  0  0  0  0  0  0  0  0  0  0
  1  2  1  0
  2  3  1  0
  2  4  1  0
  4  5  2  0
  4  6  1  0
  6  7  1  0
  7  8  1  0
  8  9  1  0
  9 10  2  0
  9 11  1  0
 11 12  1  0
 12 13  1  0
 13 14  1  0
 13 15  2  0
 12 16  2  0
 16 17  1  0
 17 18  2  0
 18 19  1  0
 19 20  2  0
 20 21  1  0
 21 22  1  0
 21 23  1  0
 20 24  1  0
 24 25  2  0
 25 11  1  0
 25 17  1  0
  1 26  1  0
  1 27  1  0
  1 28  1  0
  3 29  1  0
  3 30  1  0
  3 31  1  0
  6 32  1  0
  6 33  1  0
  7 34  1  0
  7 35  1  0
 14 36  1  0
 14 37  1  0
 16 38  1  0
 18 39  1  0
 19 40  1  0
 21 41  1  0
 24 42  1  0
M  END
>  <UniqueID>  (53) 
53

>  <SMILES>  (53) 
CN(C)C(=O)CCOC(=O)n1c(C(N)=O)cc2ccc(C(F)F)cc21

>  <Energy>  (53) 
73.78503191143669

>  <Genealogy>  (53) 
CN(C)C(=O)CCOC(=O)n1c(C(N)=O)cc2ccc(C(F)F)cc21 (3D coordinates assigned)
CN(C)C(=O)CCOC(=O)n1c(C(N)=O)cc2ccc(C(F)F)cc21 (optimized conformer: 73.78503191143669 kcal/mol)

>  <smiles>  (53) 
CN(C)C(=O)CCOC(=O)n1c(C(N)=O)cc2ccc(C(F)F)cc21

>  <score_type>  (53) 
oracle

>  <origin>  (53) 
adg

>  <m_score__min__energy>  (53) 
-8.5299999999999994

>  <m_primary>  (53) 
energy

$$$$
54:0
     RDKit          3D

 38 40  0  0  0  0  0  0  0  0999 V2000
   -5.1110   17.8280  -34.5710 N   0  0  0  0  0  0  0  0  0  0  0  0
   -6.1640   17.9370  -33.6120 C   0  0  0  0  0  0  0  0  0  0  0  0
   -6.7780   16.8970  -33.2550 O   0  0  0  0  0  0  0  0  0  0  0  0
   -6.5140   19.2470  -33.0170 C   0  0  0  0  0  0  0  0  0  0  0  0
   -7.8200   19.7020  -32.8480 C   0  0  0  0  0  0  0  0  0  0  0  0
   -7.7010   20.9810  -32.3550 C   0  0  0  0  0  0  0  0  0  0  0  0
   -8.6850   21.8990  -32.0010 C   0  0  0  0  0  0  0  0  0  0  0  0
   -8.2750   23.1430  -31.4940 C   0  0  0  0  0  0  0  0  0  0  0  0
   -6.8970   23.4380  -31.3350 C   0  0  0  0  0  0  0  0  0  0  0  0
   -6.4710   24.7790  -30.8160 C   0  0  0  0  0  0  0  0  0  0  0  0
   -5.1520   25.0080  -31.1590 F   0  0  0  0  0  0  0  0  0  0  0  0
   -5.9270   22.4880  -31.7190 C   0  0  0  0  0  0  0  0  0  0  0  0
   -6.3640   21.2640  -32.2400 C   0  0  0  0  0  0  0  0  0  0  0  0
   -5.6220   20.2090  -32.6440 N   0  0  0  0  0  0  0  0  0  0  0  0
   -4.1890   20.1140  -32.6150 C   0  0  0  0  0  0  0  0  0  0  0  0
   -3.5420   20.0630  -33.6960 O   0  0  0  0  0  0  0  0  0  0  0  0
   -3.5010   20.1230  -31.3570 N   0  0  0  0  0  0  0  0  0  0  0  0
   -2.8950   21.2580  -30.7240 C   0  0  0  0  0  0  0  0  0  0  0  0
   -3.6150   22.1050  -29.8630 C   0  0  0  0  0  0  0  0  0  0  0  0
   -2.9950   23.2170  -29.2860 C   0  0  0  0  0  0  0  0  0  0  0  0
   -1.6480   23.5120  -29.5700 C   0  0  0  0  0  0  0  0  0  0  0  0
   -0.9870   24.6870  -28.9610 C   0  0  0  0  0  0  0  0  0  0  0  0
    0.1500   24.5780  -28.4290 O   0  0  0  0  0  0  0  0  0  0  0  0
   -1.6120   25.9280  -28.9680 O   0  0  0  0  0  0  0  0  0  0  0  0
   -0.9410   22.6750  -30.4510 C   0  0  0  0  0  0  0  0  0  0  0  0
   -1.5630   21.5650  -31.0270 C   0  0  0  0  0  0  0  0  0  0  0  0
   -4.8470   16.8940  -34.9550 H   0  0  0  0  0  0  0  0  0  0  0  0
   -4.6180   18.6740  -34.9350 H   0  0  0  0  0  0  0  0  0  0  0  0
   -8.7495   19.1545  -33.0632 H   0  0  0  0  0  0  0  0  0  0  0  0
   -9.7521   21.6576  -32.1148 H   0  0  0  0  0  0  0  0  0  0  0  0
   -9.0291   23.8948  -31.2179 H   0  0  0  0  0  0  0  0  0  0  0  0
   -7.1058   25.5615  -31.2573 H   0  0  0  0  0  0  0  0  0  0  0  0
   -6.5736   24.7978  -29.7210 H   0  0  0  0  0  0  0  0  0  0  0  0
   -4.8537   22.7037  -31.6117 H   0  0  0  0  0  0  0  0  0  0  0  0
   -4.6713   21.8915  -29.6424 H   0  0  0  0  0  0  0  0  0  0  0  0
   -3.5640   23.8667  -28.6047 H   0  0  0  0  0  0  0  0  0  0  0  0
    0.1101   22.8960  -30.6885 H   0  0  0  0  0  0  0  0  0  0  0  0
   -1.0015   20.9264  -31.7248 H   0  0  0  0  0  0  0  0  0  0  0  0
  1  2  1  0
  2  3  2  0
  2  4  1  0
  4  5  2  0
  5  6  1  0
  6  7  2  0
  7  8  1  0
  8  9  2  0
  9 10  1  0
 10 11  1  0
  9 12  1  0
 12 13  2  0
 13 14  1  0
 14 15  1  0
 15 16  2  0
 15 17  1  0
 17 18  1  0
 18 19  2  0
 19 20  1  0
 20 21  2  0
 21 22  1  0
 22 23  2  0
 22 24  1  0
 21 25  1  0
 25 26  2  0
 14  4  1  0
 26 18  1  0
 13  6  1  0
  1 27  1  0
  1 28  1  0
  5 29  1  0
  7 30  1  0
  8 31  1  0
 10 32  1  0
 10 33  1  0
 12 34  1  0
 19 35  1  0
 20 36  1  0
 25 37  1  0
 26 38  1  0
M  CHG  2  17  -1  24  -1
M  END
>  <UniqueID>  (54) 
54

>  <SMILES>  (54) 
NC(=O)c1cc2ccc(CF)cc2n1C(=O)[N-]c1ccc(C(=O)[O-])cc1

>  <Energy>  (54) 
83.08344324276638

>  <Genealogy>  (54) 
NC(=O)c1cc2ccc(CF)cc2n1C(=O)[N-]c1ccc(C(=O)[O-])cc1 (protonated)
NC(=O)c1cc2ccc(CF)cc2n1C(=O)[N-]c1ccc(C(=O)[O-])cc1 (3D coordinates assigned)
NC(=O)c1cc2ccc(CF)cc2n1C(=O)[N-]c1ccc(C(=O)[O-])cc1 (optimized conformer: 83.08344324276638 kcal/mol)

>  <smiles>  (54) 
NC(=O)c1cc2ccc(CF)cc2n1C(=O)Nc1ccc(C(=O)O)cc1

>  <score_type>  (54) 
oracle

>  <origin>  (54) 
adg

>  <m_score__min__energy>  (54) 
-9.8900000000000006

>  <m_primary>  (54) 
energy

$$$$
55:0
     RDKit          3D

 39 42  0  0  0  0  0  0  0  0999 V2000
   -1.5920   26.0030  -28.8710 N   0  0  0  0  0  0  0  0  0  0  0  0
   -0.9120   24.7510  -28.8630 C   0  0  0  0  0  0  0  0  0  0  0  0
    0.0540   24.5800  -28.0720 O   0  0  0  0  0  0  0  0  0  0  0  0
   -1.3580   23.6370  -29.7250 C   0  0  0  0  0  0  0  0  0  0  0  0
   -0.5220   22.5980  -30.1260 C   0  0  0  0  0  0  0  0  0  0  0  0
   -1.3270   21.7340  -30.8310 C   0  0  0  0  0  0  0  0  0  0  0  0
   -1.0130   20.5430  -31.4690 C   0  0  0  0  0  0  0  0  0  0  0  0
   -2.0360   19.8680  -32.1540 C   0  0  0  0  0  0  0  0  0  0  0  0
   -3.3660   20.3860  -32.2040 C   0  0  0  0  0  0  0  0  0  0  0  0
   -4.4220   19.6810  -32.9260 N   0  0  0  0  0  0  0  0  0  0  0  0
   -5.7650   20.3060  -33.0470 C   0  0  0  0  0  0  0  0  0  0  0  0
   -6.7810   19.4140  -33.7860 C   0  0  2  0  0  0  0  0  0  0  0  0
   -7.2280   18.2400  -32.9070 C   0  0  0  0  0  0  0  0  0  0  0  0
   -6.2500   17.1320  -33.2560 C   0  0  0  0  0  0  0  0  0  0  0  0
   -5.3300   17.7710  -34.3040 C   0  0  2  0  0  0  0  0  0  0  0  0
   -4.0990   18.4180  -33.6390 C   0  0  0  0  0  0  0  0  0  0  0  0
   -6.1050   18.8280  -34.9350 N   0  0  0  0  0  0  0  0  0  0  0  0
   -3.6290   21.6180  -31.5380 C   0  0  0  0  0  0  0  0  0  0  0  0
   -2.5920   22.2550  -30.8470 C   0  0  0  0  0  0  0  0  0  0  0  0
   -2.6290   23.4260  -30.1740 N   0  0  0  0  0  0  0  0  0  0  0  0
   -3.7640   24.2980  -30.0450 C   0  0  0  0  0  0  0  0  0  0  0  0
   -4.7040   24.0070  -29.2580 O   0  0  0  0  0  0  0  0  0  0  0  0
   -3.8250   25.4810  -30.7700 O   0  0  0  0  0  0  0  0  0  0  0  0
   -2.6320   26.0490  -28.9540 H   0  0  0  0  0  0  0  0  0  0  0  0
    0.5537   22.4910  -29.9222 H   0  0  0  0  0  0  0  0  0  0  0  0
    0.0095   20.1384  -31.4391 H   0  0  0  0  0  0  0  0  0  0  0  0
   -1.8082   18.9199  -32.6631 H   0  0  0  0  0  0  0  0  0  0  0  0
   -5.6627   21.2520  -33.5990 H   0  0  0  0  0  0  0  0  0  0  0  0
   -6.1469   20.4640  -32.0276 H   0  0  0  0  0  0  0  0  0  0  0  0
   -7.6501   20.0294  -34.0616 H   0  0  0  0  0  0  0  0  0  0  0  0
   -8.2594   17.9419  -33.1464 H   0  0  0  0  0  0  0  0  0  0  0  0
   -7.2258   18.4867  -31.8350 H   0  0  0  0  0  0  0  0  0  0  0  0
   -6.7769   16.2623  -33.6755 H   0  0  0  0  0  0  0  0  0  0  0  0
   -5.7005   16.7586  -32.3793 H   0  0  0  0  0  0  0  0  0  0  0  0
   -4.9810   17.0082  -35.0156 H   0  0  0  0  0  0  0  0  0  0  0  0
   -3.3535   18.6358  -34.4180 H   0  0  0  0  0  0  0  0  0  0  0  0
   -3.7161   17.7068  -32.8923 H   0  0  0  0  0  0  0  0  0  0  0  0
   -6.8250   18.3880  -35.5570 H   0  0  0  0  0  0  0  0  0  0  0  0
   -4.6346   22.0628  -31.5667 H   0  0  0  0  0  0  0  0  0  0  0  0
  1  2  1  0
  2  3  2  0
  2  4  1  0
  4  5  2  0
  5  6  1  0
  6  7  2  0
  7  8  1  0
  8  9  2  0
  9 10  1  0
 10 11  1  0
 11 12  1  0
 12 13  1  0
 13 14  1  0
 14 15  1  0
 15 16  1  0
 15 17  1  0
  9 18  1  0
 18 19  2  0
 19 20  1  0
 20 21  1  0
 21 22  2  0
 21 23  1  0
 20  4  1  0
 19  6  1  0
 16 10  1  0
 17 12  1  0
  1 24  1  0
  5 25  1  0
  7 26  1  0
  8 27  1  0
 11 28  1  0
 11 29  1  0
 12 30  1  6
 13 31  1  0
 13 32  1  0
 14 33  1  0
 14 34  1  0
 15 35  1  6
 16 36  1  0
 16 37  1  0
 17 38  1  0
 18 39  1  0
M  CHG  2   1  -1  23  -1
M  END
>  <UniqueID>  (55) 
55

>  <SMILES>  (55) 
[NH-]C(=O)c1cc2ccc(N3C[C@H]4CC[C@@H](C3)N4)cc2n1C(=O)[O-]

>  <Energy>  (55) 
92.87418472497068

>  <Genealogy>  (55) 
[NH-]C(=O)c1cc2ccc(N3CC4CCC(C3)N4)cc2n1C(=O)[O-] (protonated)
[NH-]C(=O)c1cc2ccc(N3C[C@H]4CC[C@@H](C3)N4)cc2n1C(=O)[O-] (chirality)
[NH-]C(=O)c1cc2ccc(N3C[C@H]4CC[C@@H](C3)N4)cc2n1C(=O)[O-] (3D coordinates assigned)
[NH-]C(=O)c1cc2ccc(N3C[C@H]4CC[C@@H](C3)N4)cc2n1C(=O)[O-] (nonaromatic ring conformer: 92.87418472497068 kcal/mol)

>  <smiles>  (55) 
NC(=O)c1cc2ccc(N3CC4CCC(C3)N4)cc2n1C(=O)O

>  <score_type>  (55) 
oracle

>  <origin>  (55) 
adg

>  <m_score__min__energy>  (55) 
-12.1

>  <m_primary>  (55) 
energy

$$$$
56:0
     RDKit          3D

 42 43  0  0  0  0  0  0  0  0999 V2000
   -6.0430   26.0070  -29.7110 N   0  0  0  0  0  0  0  0  0  0  0  0
   -6.8440   24.7890  -29.7430 C   0  0  0  0  0  0  0  0  0  0  0  0
   -6.8260   24.1830  -31.1510 C   0  0  0  0  0  0  0  0  0  0  0  0
   -8.0160   23.2440  -31.4000 C   0  0  0  0  0  0  0  0  0  0  0  0
   -7.5740   21.9060  -31.9370 C   0  0  0  0  0  0  0  0  0  0  0  0
   -8.5250   20.8880  -32.1950 C   0  0  0  0  0  0  0  0  0  0  0  0
   -8.1210   19.6480  -32.7200 C   0  0  0  0  0  0  0  0  0  0  0  0
   -6.7690   19.4660  -32.9960 C   0  0  0  0  0  0  0  0  0  0  0  0
   -6.1030   18.3640  -33.4860 C   0  0  0  0  0  0  0  0  0  0  0  0
   -4.7650   18.7460  -33.5570 C   0  0  0  0  0  0  0  0  0  0  0  0
   -3.6870   17.8630  -34.0490 C   0  0  0  0  0  0  0  0  0  0  0  0
   -2.3290   18.0530  -33.6480 N   0  0  0  0  0  0  0  0  0  0  0  0
   -3.9640   16.9500  -34.8720 O   0  0  0  0  0  0  0  0  0  0  0  0
   -4.6080   20.0280  -33.1260 N   0  0  0  0  0  0  0  0  0  0  0  0
   -3.3750   20.7380  -32.9310 C   0  0  0  0  0  0  0  0  0  0  0  0
   -2.5720   20.8600  -33.8940 O   0  0  0  0  0  0  0  0  0  0  0  0
   -3.0220   21.3380  -31.6290 C   0  0  0  0  0  0  0  0  0  0  0  0
   -3.5650   22.4790  -31.1910 C   0  0  0  0  0  0  0  0  0  0  0  0
   -3.1930   23.0620  -29.8620 C   0  0  0  0  0  0  0  0  0  0  0  0
   -3.1100   24.5530  -29.9460 C   0  0  0  0  0  0  0  0  0  0  0  0
   -2.3500   25.1890  -29.1690 O   0  0  0  0  0  0  0  0  0  0  0  0
   -3.9040   25.2440  -30.8520 O   0  0  0  0  0  0  0  0  0  0  0  0
   -5.8430   20.4510  -32.7750 C   0  0  0  0  0  0  0  0  0  0  0  0
   -6.2100   21.6810  -32.2210 C   0  0  0  0  0  0  0  0  0  0  0  0
   -5.1580   25.8020  -29.1900 H   0  0  0  0  0  0  0  0  0  0  0  0
   -5.7620   26.2300  -30.6940 H   0  0  0  0  0  0  0  0  0  0  0  0
   -6.4295   24.0622  -29.0289 H   0  0  0  0  0  0  0  0  0  0  0  0
   -7.8811   25.0331  -29.4695 H   0  0  0  0  0  0  0  0  0  0  0  0
   -6.8602   24.9994  -31.8874 H   0  0  0  0  0  0  0  0  0  0  0  0
   -5.9048   23.5899  -31.2490 H   0  0  0  0  0  0  0  0  0  0  0  0
   -8.5501   23.0875  -30.4512 H   0  0  0  0  0  0  0  0  0  0  0  0
   -8.6694   23.7134  -32.1502 H   0  0  0  0  0  0  0  0  0  0  0  0
   -9.5889   21.0695  -31.9826 H   0  0  0  0  0  0  0  0  0  0  0  0
   -8.8508   18.8465  -32.9069 H   0  0  0  0  0  0  0  0  0  0  0  0
   -6.5351   17.3908  -33.7621 H   0  0  0  0  0  0  0  0  0  0  0  0
   -1.5930   17.3820  -33.9620 H   0  0  0  0  0  0  0  0  0  0  0  0
   -2.0300   18.9110  -33.1350 H   0  0  0  0  0  0  0  0  0  0  0  0
   -2.2834   20.8265  -30.9943 H   0  0  0  0  0  0  0  0  0  0  0  0
   -4.3009   23.0009  -31.8203 H   0  0  0  0  0  0  0  0  0  0  0  0
   -3.9549   22.7836  -29.1191 H   0  0  0  0  0  0  0  0  0  0  0  0
   -2.2099   22.6682  -29.5646 H   0  0  0  0  0  0  0  0  0  0  0  0
   -5.4552   22.4534  -32.0119 H   0  0  0  0  0  0  0  0  0  0  0  0
  1  2  1  0
  2  3  1  0
  3  4  1  0
  4  5  1  0
  5  6  2  0
  6  7  1  0
  7  8  2  0
  8  9  1  0
  9 10  2  0
 10 11  1  0
 11 12  1  0
 11 13  2  0
 10 14  1  0
 14 15  1  0
 15 16  2  0
 15 17  1  0
 17 18  2  3
 18 19  1  0
 19 20  1  0
 20 21  2  0
 20 22  1  0
 14 23  1  0
 23 24  2  0
 24  5  1  0
 23  8  1  0
  1 25  1  0
  1 26  1  0
  2 27  1  0
  2 28  1  0
  3 29  1  0
  3 30  1  0
  4 31  1  0
  4 32  1  0
  6 33  1  0
  7 34  1  0
  9 35  1  0
 12 36  1  0
 12 37  1  0
 17 38  1  0
 18 39  1  0
 19 40  1  0
 19 41  1  0
 24 42  1  0
M  CHG  1  22  -1
M  END
>  <UniqueID>  (56) 
56

>  <SMILES>  (56) 
NCCCc1ccc2cc(C(N)=O)n(C(=O)C=CCC(=O)[O-])c2c1

>  <Energy>  (56) 
72.07405232241467

>  <Genealogy>  (56) 
NCCCc1ccc2cc(C(N)=O)n(C(=O)C=CCC(=O)[O-])c2c1 (protonated)
NCCCc1ccc2cc(C(N)=O)n(C(=O)C=CCC(=O)[O-])c2c1 (3D coordinates assigned)
NCCCc1ccc2cc(C(N)=O)n(C(=O)C=CCC(=O)[O-])c2c1 (optimized conformer: 72.07405232241467 kcal/mol)

>  <smiles>  (56) 
NCCCc1ccc2cc(C(N)=O)n(C(=O)C=CCC(=O)O)c2c1

>  <score_type>  (56) 
oracle

>  <origin>  (56) 
adg

>  <m_score__min__energy>  (56) 
-12.140000000000001

>  <m_primary>  (56) 
energy

$$$$
57:0
     RDKit          3D

 37 38  0  0  0  0  0  0  0  0999 V2000
   -6.5010   17.6590  -33.3250 C   0  0  0  0  0  0  0  0  0  0  0  0
   -7.0670   18.2540  -32.1160 N   0  0  0  0  0  0  0  0  0  0  0  0
   -7.2680   19.6670  -31.9440 C   0  0  0  0  0  0  0  0  0  0  0  0
   -8.5670   20.2410  -31.9550 C   0  0  0  0  0  0  0  0  0  0  0  0
   -8.7480   21.6210  -31.7560 C   0  0  0  0  0  0  0  0  0  0  0  0
   -7.6180   22.4030  -31.5480 C   0  0  0  0  0  0  0  0  0  0  0  0
   -7.5090   23.7520  -31.2930 C   0  0  0  0  0  0  0  0  0  0  0  0
   -6.1500   23.9730  -31.0860 C   0  0  0  0  0  0  0  0  0  0  0  0
   -5.5840   25.2250  -30.5450 C   0  0  0  0  0  0  0  0  0  0  0  0
   -4.2260   25.5880  -30.8230 N   0  0  0  0  0  0  0  0  0  0  0  0
   -6.2880   25.9640  -29.8060 O   0  0  0  0  0  0  0  0  0  0  0  0
   -5.4470   22.8160  -31.2370 N   0  0  0  0  0  0  0  0  0  0  0  0
   -4.0150   22.6690  -31.1290 C   0  0  0  0  0  0  0  0  0  0  0  0
   -3.2970   22.8530  -32.1480 O   0  0  0  0  0  0  0  0  0  0  0  0
   -3.4000   22.2790  -29.8970 N   0  0  0  0  0  0  0  0  0  0  0  0
   -3.7390   22.8960  -28.6520 C   0  0  0  0  0  0  0  0  0  0  0  0
   -4.8580   23.4670  -28.5040 O   0  0  0  0  0  0  0  0  0  0  0  0
   -2.8200   22.8520  -27.5990 O   0  0  0  0  0  0  0  0  0  0  0  0
   -1.8800   23.8930  -27.3360 C   0  0  0  0  0  0  0  0  0  0  0  0
   -1.4360   24.5240  -28.6220 C   0  0  0  0  0  0  0  0  0  0  0  0
   -0.2580   24.3560  -29.0410 O   0  0  0  0  0  0  0  0  0  0  0  0
   -2.3250   25.2860  -29.3640 O   0  0  0  0  0  0  0  0  0  0  0  0
   -6.3580   21.8610  -31.5120 C   0  0  0  0  0  0  0  0  0  0  0  0
   -6.1490   20.4940  -31.7200 C   0  0  0  0  0  0  0  0  0  0  0  0
   -5.7677   16.8881  -33.0456 H   0  0  0  0  0  0  0  0  0  0  0  0
   -7.3054   17.2015  -33.9197 H   0  0  0  0  0  0  0  0  0  0  0  0
   -6.0039   18.4395  -33.9197 H   0  0  0  0  0  0  0  0  0  0  0  0
   -7.3060   17.6140  -31.3240 H   0  0  0  0  0  0  0  0  0  0  0  0
   -9.4433   19.5972  -32.1214 H   0  0  0  0  0  0  0  0  0  0  0  0
   -9.7530   22.0680  -31.7647 H   0  0  0  0  0  0  0  0  0  0  0  0
   -8.3201   24.4943  -31.2600 H   0  0  0  0  0  0  0  0  0  0  0  0
   -3.8630   26.5210  -30.5200 H   0  0  0  0  0  0  0  0  0  0  0  0
   -3.5600   24.8920  -31.2250 H   0  0  0  0  0  0  0  0  0  0  0  0
   -2.5020   21.7470  -29.9550 H   0  0  0  0  0  0  0  0  0  0  0  0
   -2.3514   24.6566  -26.6999 H   0  0  0  0  0  0  0  0  0  0  0  0
   -1.0050   23.4667  -26.8234 H   0  0  0  0  0  0  0  0  0  0  0  0
   -5.1328   20.0731  -31.7090 H   0  0  0  0  0  0  0  0  0  0  0  0
  1  2  1  0
  2  3  1  0
  3  4  2  0
  4  5  1  0
  5  6  2  0
  6  7  1  0
  7  8  2  0
  8  9  1  0
  9 10  1  0
  9 11  2  0
  8 12  1  0
 12 13  1  0
 13 14  2  0
 13 15  1  0
 15 16  1  0
 16 17  2  0
 16 18  1  0
 18 19  1  0
 19 20  1  0
 20 21  2  0
 20 22  1  0
 12 23  1  0
 23 24  2  0
 24  3  1  0
 23  6  1  0
  1 25  1  0
  1 26  1  0
  1 27  1  0
  2 28  1  0
  4 29  1  0
  5 30  1  0
  7 31  1  0
 10 32  1  0
 10 33  1  0
 15 34  1  0
 19 35  1  0
 19 36  1  0
 24 37  1  0
M  CHG  1  22  -1
M  END
>  <UniqueID>  (57) 
57

>  <SMILES>  (57) 
CNc1ccc2cc(C(N)=O)n(C(=O)NC(=O)OCC(=O)[O-])c2c1

>  <Energy>  (57) 
77.65089206050776

>  <Genealogy>  (57) 
CNc1ccc2cc(C(N)=O)n(C(=O)NC(=O)OCC(=O)[O-])c2c1 (protonated)
CNc1ccc2cc(C(N)=O)n(C(=O)NC(=O)OCC(=O)[O-])c2c1 (3D coordinates assigned)
CNc1ccc2cc(C(N)=O)n(C(=O)NC(=O)OCC(=O)[O-])c2c1 (optimized conformer: 77.65089206050776 kcal/mol)

>  <smiles>  (57) 
CNc1ccc2cc(C(N)=O)n(C(=O)NC(=O)OCC(=O)O)c2c1

>  <score_type>  (57) 
oracle

>  <origin>  (57) 
adg

>  <m_score__min__energy>  (57) 
-10.09

>  <m_primary>  (57) 
energy

$$$$
58:0
     RDKit          3D

 45 46  0  0  0  0  0  0  0  0999 V2000
    0.1890   21.1350  -28.1350 C   0  0  0  0  0  0  0  0  0  0  0  0
   -0.6560   21.8470  -29.1110 N   0  0  2  0  0  0  0  0  0  0  0  0
   -1.9860   22.2220  -28.5740 C   0  0  0  0  0  0  0  0  0  0  0  0
   -2.1120   23.6870  -28.0900 C   0  0  0  0  0  0  0  0  0  0  0  0
   -1.1770   24.6170  -28.8050 C   0  0  0  0  0  0  0  0  0  0  0  0
   -1.6130   25.6720  -29.3340 O   0  0  0  0  0  0  0  0  0  0  0  0
    0.1710   24.2970  -28.9230 O   0  0  0  0  0  0  0  0  0  0  0  0
   -0.7690   21.1370  -30.3640 C   0  0  0  0  0  0  0  0  0  0  0  0
    0.2610   20.7160  -30.9660 O   0  0  0  0  0  0  0  0  0  0  0  0
   -2.0390   20.8750  -30.8870 O   0  0  0  0  0  0  0  0  0  0  0  0
   -2.3120   20.8750  -32.2840 C   0  0  0  0  0  0  0  0  0  0  0  0
   -3.2490   21.9010  -32.5890 O   0  0  0  0  0  0  0  0  0  0  0  0
   -3.7850   22.7530  -31.6180 C   0  0  0  0  0  0  0  0  0  0  0  0
   -3.0240   23.4500  -30.8930 O   0  0  0  0  0  0  0  0  0  0  0  0
   -5.2090   22.8520  -31.4640 N   0  0  0  0  0  0  0  0  0  0  0  0
   -5.9300   23.9000  -30.9700 C   0  0  0  0  0  0  0  0  0  0  0  0
   -5.3730   25.1240  -30.3560 C   0  0  0  0  0  0  0  0  0  0  0  0
   -4.1600   25.6800  -30.8580 N   0  0  0  0  0  0  0  0  0  0  0  0
   -5.9750   25.7060  -29.4160 O   0  0  0  0  0  0  0  0  0  0  0  0
   -7.2950   23.6320  -31.0450 C   0  0  0  0  0  0  0  0  0  0  0  0
   -7.3910   22.3740  -31.5950 C   0  0  0  0  0  0  0  0  0  0  0  0
   -8.5170   21.6190  -31.9100 C   0  0  0  0  0  0  0  0  0  0  0  0
   -8.3210   20.3600  -32.5010 C   0  0  0  0  0  0  0  0  0  0  0  0
   -7.0130   19.8820  -32.7620 C   0  0  0  0  0  0  0  0  0  0  0  0
   -6.8180   18.5560  -33.4400 C   0  0  0  0  0  0  0  0  0  0  0  0
   -6.3970   17.3200  -32.2300 Cl  0  0  0  0  0  0  0  0  0  0  0  0
   -5.8940   20.6820  -32.4420 C   0  0  0  0  0  0  0  0  0  0  0  0
   -6.1190   21.9240  -31.8380 C   0  0  0  0  0  0  0  0  0  0  0  0
   -0.1259   21.4003  -27.1150 H   0  0  0  0  0  0  0  0  0  0  0  0
    0.0829   20.0499  -28.2809 H   0  0  0  0  0  0  0  0  0  0  0  0
    1.2404   21.4236  -28.2809 H   0  0  0  0  0  0  0  0  0  0  0  0
   -0.1600   22.7450  -29.3230 H   0  0  0  0  0  0  0  0  0  0  0  0
   -2.7311   22.0602  -29.3669 H   0  0  0  0  0  0  0  0  0  0  0  0
   -2.1454   21.5924  -27.6862 H   0  0  0  0  0  0  0  0  0  0  0  0
   -3.1443   24.0262  -28.2610 H   0  0  0  0  0  0  0  0  0  0  0  0
   -1.8478   23.7074  -27.0224 H   0  0  0  0  0  0  0  0  0  0  0  0
   -1.3794   21.0547  -32.8389 H   0  0  0  0  0  0  0  0  0  0  0  0
   -2.7318   19.9003  -32.5733 H   0  0  0  0  0  0  0  0  0  0  0  0
   -3.2330   25.3020  -30.5610 H   0  0  0  0  0  0  0  0  0  0  0  0
   -8.1211   24.2870  -30.7311 H   0  0  0  0  0  0  0  0  0  0  0  0
   -9.5291   21.9966  -31.7025 H   0  0  0  0  0  0  0  0  0  0  0  0
   -9.1906   19.7397  -32.7635 H   0  0  0  0  0  0  0  0  0  0  0  0
   -7.7482   18.2660  -33.9506 H   0  0  0  0  0  0  0  0  0  0  0  0
   -6.0037   18.6387  -34.1749 H   0  0  0  0  0  0  0  0  0  0  0  0
   -4.8726   20.3379  -32.6618 H   0  0  0  0  0  0  0  0  0  0  0  0
  1  2  1  0
  2  3  1  0
  3  4  1  0
  4  5  1  0
  5  6  2  0
  5  7  1  0
  2  8  1  0
  8  9  2  0
  8 10  1  0
 10 11  1  0
 11 12  1  0
 12 13  1  0
 13 14  2  0
 13 15  1  0
 15 16  1  0
 16 17  1  0
 17 18  1  0
 17 19  2  0
 16 20  2  0
 20 21  1  0
 21 22  2  0
 22 23  1  0
 23 24  2  0
 24 25  1  0
 25 26  1  0
 24 27  1  0
 27 28  2  0
 28 15  1  0
 28 21  1  0
  1 29  1  0
  1 30  1  0
  1 31  1  0
  2 32  1  6
  3 33  1  0
  3 34  1  0
  4 35  1  0
  4 36  1  0
 11 37  1  0
 11 38  1  0
 18 39  1  0
 20 40  1  0
 22 41  1  0
 23 42  1  0
 25 43  1  0
 25 44  1  0
 27 45  1  0
M  CHG  3   2   1   7  -1  18  -1
M  END
>  <UniqueID>  (58) 
58

>  <SMILES>  (58) 
C[N@H+](CCC(=O)[O-])C(=O)OCOC(=O)n1c(C([NH-])=O)cc2ccc(CCl)cc21

>  <Energy>  (58) 
83.74606460079505

>  <Genealogy>  (58) 
C[NH+](CCC(=O)[O-])C(=O)OCOC(=O)n1c(C([NH-])=O)cc2ccc(CCl)cc21 (protonated)
C[N@H+](CCC(=O)[O-])C(=O)OCOC(=O)n1c(C([NH-])=O)cc2ccc(CCl)cc21 (chirality)
C[N@H+](CCC(=O)[O-])C(=O)OCOC(=O)n1c(C([NH-])=O)cc2ccc(CCl)cc21 (3D coordinates assigned)
C[N@H+](CCC(=O)[O-])C(=O)OCOC(=O)n1c(C([NH-])=O)cc2ccc(CCl)cc21 (optimized conformer: 83.74606460079505 kcal/mol)

>  <smiles>  (58) 
CN(CCC(=O)O)C(=O)OCOC(=O)n1c(C(N)=O)cc2ccc(CCl)cc21

>  <score_type>  (58) 
oracle

>  <origin>  (58) 
adg

>  <m_score__min__energy>  (58) 
-11.5

>  <m_primary>  (58) 
energy

$$$$
59:0
     RDKit          3D

 49 51  0  0  0  0  0  0  0  0999 V2000
   -3.0130   21.0270  -29.5690 C   0  0  0  0  0  0  0  0  0  0  0  0
   -2.9350   22.5490  -29.3710 C   0  0  0  0  0  0  0  0  0  0  0  0
   -1.5400   22.9080  -28.8240 C   0  0  0  0  0  0  0  0  0  0  0  0
   -4.0340   22.9780  -28.3800 C   0  0  0  0  0  0  0  0  0  0  0  0
   -3.1440   23.1540  -30.6550 O   0  0  0  0  0  0  0  0  0  0  0  0
   -4.0820   22.7570  -31.6200 C   0  0  0  0  0  0  0  0  0  0  0  0
   -3.7290   22.0870  -32.6270 O   0  0  0  0  0  0  0  0  0  0  0  0
   -5.4650   23.1000  -31.4420 N   0  0  0  0  0  0  0  0  0  0  0  0
   -5.9750   24.2230  -30.8620 C   0  0  0  0  0  0  0  0  0  0  0  0
   -5.2040   25.4130  -30.4490 C   0  0  0  0  0  0  0  0  0  0  0  0
   -3.8640   25.6080  -30.8920 N   0  0  0  0  0  0  0  0  0  0  0  0
   -5.7540   26.2960  -29.7360 O   0  0  0  0  0  0  0  0  0  0  0  0
   -7.3630   24.1400  -30.7730 C   0  0  0  0  0  0  0  0  0  0  0  0
   -7.6910   22.9230  -31.3290 C   0  0  0  0  0  0  0  0  0  0  0  0
   -8.9340   22.3200  -31.4890 C   0  0  0  0  0  0  0  0  0  0  0  0
   -8.9770   21.0410  -32.0660 C   0  0  0  0  0  0  0  0  0  0  0  0
   -7.7810   20.3820  -32.4650 C   0  0  0  0  0  0  0  0  0  0  0  0
   -7.8000   19.0630  -33.0480 N   0  0  0  0  0  0  0  0  0  0  0  0
   -6.8960   17.9890  -32.6090 C   0  0  0  0  0  0  0  0  0  0  0  0
   -5.9240   17.4230  -33.6780 C   0  0  0  0  0  0  0  0  0  0  0  0
   -5.9420   15.8930  -33.8490 C   0  0  0  0  0  0  0  0  0  0  0  0
   -7.1550   15.4160  -34.3160 F   0  0  0  0  0  0  0  0  0  0  0  0
   -4.5710   18.1020  -33.8800 C   0  0  0  0  0  0  0  0  0  0  0  0
   -5.6660   18.2340  -34.9450 C   0  0  0  0  0  0  0  0  0  0  0  0
   -6.5400   21.0330  -32.2840 C   0  0  0  0  0  0  0  0  0  0  0  0
   -6.5290   22.3160  -31.7240 C   0  0  0  0  0  0  0  0  0  0  0  0
   -3.0384   20.5304  -28.5878 H   0  0  0  0  0  0  0  0  0  0  0  0
   -3.9252   20.7766  -30.1305 H   0  0  0  0  0  0  0  0  0  0  0  0
   -2.1312   20.6846  -30.1305 H   0  0  0  0  0  0  0  0  0  0  0  0
   -1.5646   22.9017  -27.7243 H   0  0  0  0  0  0  0  0  0  0  0  0
   -0.8059   22.1695  -29.1786 H   0  0  0  0  0  0  0  0  0  0  0  0
   -1.2536   23.9091  -29.1786 H   0  0  0  0  0  0  0  0  0  0  0  0
   -3.6742   22.8375  -27.3501 H   0  0  0  0  0  0  0  0  0  0  0  0
   -4.2796   24.0380  -28.5412 H   0  0  0  0  0  0  0  0  0  0  0  0
   -4.9328   22.3647  -28.5412 H   0  0  0  0  0  0  0  0  0  0  0  0
   -3.0550   25.2960  -30.3100 H   0  0  0  0  0  0  0  0  0  0  0  0
   -8.0503   24.8870  -30.3492 H   0  0  0  0  0  0  0  0  0  0  0  0
   -9.8559   22.8301  -31.1729 H   0  0  0  0  0  0  0  0  0  0  0  0
   -9.9467   20.5425  -32.2113 H   0  0  0  0  0  0  0  0  0  0  0  0
   -8.4960   18.9030  -33.8060 H   0  0  0  0  0  0  0  0  0  0  0  0
   -6.2892   18.3810  -31.7795 H   0  0  0  0  0  0  0  0  0  0  0  0
   -7.5519   17.1487  -32.3375 H   0  0  0  0  0  0  0  0  0  0  0  0
   -5.1553   15.6107  -34.5642 H   0  0  0  0  0  0  0  0  0  0  0  0
   -5.7731   15.4486  -32.8570 H   0  0  0  0  0  0  0  0  0  0  0  0
   -4.2938   18.9708  -33.2649 H   0  0  0  0  0  0  0  0  0  0  0  0
   -3.5233   17.7668  -33.8776 H   0  0  0  0  0  0  0  0  0  0  0  0
   -6.1748   19.1977  -35.0947 H   0  0  0  0  0  0  0  0  0  0  0  0
   -5.7302   18.0329  -36.0246 H   0  0  0  0  0  0  0  0  0  0  0  0
   -5.6008   20.5412  -32.5774 H   0  0  0  0  0  0  0  0  0  0  0  0
  1  2  1  0
  2  3  1  0
  2  4  1  0
  2  5  1  0
  5  6  1  0
  6  7  2  0
  6  8  1  0
  8  9  1  0
  9 10  1  0
 10 11  1  0
 10 12  2  0
  9 13  2  0
 13 14  1  0
 14 15  2  0
 15 16  1  0
 16 17  2  0
 17 18  1  0
 18 19  1  0
 19 20  1  0
 20 21  1  0
 21 22  1  0
 20 23  1  0
 23 24  1  0
 17 25  1  0
 25 26  2  0
 26  8  1  0
 26 14  1  0
 24 20  1  0
  1 27  1  0
  1 28  1  0
  1 29  1  0
  3 30  1  0
  3 31  1  0
  3 32  1  0
  4 33  1  0
  4 34  1  0
  4 35  1  0
 11 36  1  0
 13 37  1  0
 15 38  1  0
 16 39  1  0
 18 40  1  0
 19 41  1  0
 19 42  1  0
 21 43  1  0
 21 44  1  0
 23 45  1  0
 23 46  1  0
 24 47  1  0
 24 48  1  0
 25 49  1  0
M  CHG  1  11  -1
M  END
>  <UniqueID>  (59) 
59

>  <SMILES>  (59) 
CC(C)(C)OC(=O)n1c(C([NH-])=O)cc2ccc(NCC3(CF)CC3)cc21

>  <Energy>  (59) 
354.97882548934564

>  <Genealogy>  (59) 
CC(C)(C)OC(=O)n1c(C([NH-])=O)cc2ccc(NCC3(CF)CC3)cc21 (protonated)
CC(C)(C)OC(=O)n1c(C([NH-])=O)cc2ccc(NCC3(CF)CC3)cc21 (3D coordinates assigned)
CC(C)(C)OC(=O)n1c(C([NH-])=O)cc2ccc(NCC3(CF)CC3)cc21 (nonaromatic ring conformer: 354.97882548934564 kcal/mol)

>  <smiles>  (59) 
CC(C)(C)OC(=O)n1c(C(N)=O)cc2ccc(NCC3(CF)CC3)cc21

>  <score_type>  (59) 
oracle

>  <origin>  (59) 
adg

>  <m_score__min__energy>  (59) 
-11.140000000000001

>  <m_primary>  (59) 
energy

$$$$
60:0
     RDKit          3D

 44 47  0  0  0  0  0  0  0  0999 V2000
   -1.2700   26.2520  -24.8780 C   0  0  0  0  0  0  0  0  0  0  0  0
   -2.3930   26.0670  -25.7390 O   0  0  0  0  0  0  0  0  0  0  0  0
   -2.5510   24.9800  -26.6110 C   0  0  0  0  0  0  0  0  0  0  0  0
   -3.8500   24.5470  -26.9110 C   0  0  0  0  0  0  0  0  0  0  0  0
   -4.0550   23.4780  -27.7870 C   0  0  0  0  0  0  0  0  0  0  0  0
   -2.9620   22.8330  -28.3780 C   0  0  0  0  0  0  0  0  0  0  0  0
   -3.2280   21.4770  -29.5210 S   0  0  0  0  0  0  0  0  0  0  0  0
   -3.6700   22.5940  -30.8500 C   0  0  0  0  0  0  0  0  0  0  0  0
   -2.7640   23.0700  -31.5860 O   0  0  0  0  0  0  0  0  0  0  0  0
   -5.0480   22.8580  -31.1430 N   0  0  0  0  0  0  0  0  0  0  0  0
   -5.7580   23.9940  -30.8900 C   0  0  0  0  0  0  0  0  0  0  0  0
   -5.1990   25.2820  -30.4300 C   0  0  0  0  0  0  0  0  0  0  0  0
   -3.8750   25.6760  -30.7830 N   0  0  0  0  0  0  0  0  0  0  0  0
   -5.9120   26.0660  -29.7420 O   0  0  0  0  0  0  0  0  0  0  0  0
   -7.1050   23.8000  -31.1890 C   0  0  0  0  0  0  0  0  0  0  0  0
   -7.1970   22.4990  -31.6300 C   0  0  0  0  0  0  0  0  0  0  0  0
   -8.3050   21.7720  -32.0550 C   0  0  0  0  0  0  0  0  0  0  0  0
   -8.1050   20.4370  -32.4440 C   0  0  0  0  0  0  0  0  0  0  0  0
   -6.8170   19.8510  -32.3820 C   0  0  0  0  0  0  0  0  0  0  0  0
   -6.6130   18.4350  -32.8490 C   0  0  0  0  0  0  0  0  0  0  0  0
   -6.0690   18.2110  -34.1950 C   0  0  0  0  0  0  0  0  0  0  0  0
   -5.6430   18.0360  -35.2580 N   0  0  0  0  0  0  0  0  0  0  0  0
   -6.2300   17.4000  -31.7990 C   0  0  0  0  0  0  0  0  0  0  0  0
   -7.6380   17.4100  -32.3790 C   0  0  0  0  0  0  0  0  0  0  0  0
   -5.7140   20.6230  -31.9570 C   0  0  0  0  0  0  0  0  0  0  0  0
   -5.9420   21.9530  -31.5880 C   0  0  0  0  0  0  0  0  0  0  0  0
   -1.6610   23.2580  -28.0830 C   0  0  0  0  0  0  0  0  0  0  0  0
   -1.4530   24.3250  -27.2040 C   0  0  0  0  0  0  0  0  0  0  0  0
   -1.5988   26.1978  -23.8297 H   0  0  0  0  0  0  0  0  0  0  0  0
   -0.5268   25.4642  -25.0703 H   0  0  0  0  0  0  0  0  0  0  0  0
   -0.8188   27.2366  -25.0703 H   0  0  0  0  0  0  0  0  0  0  0  0
   -4.7136   25.0521  -26.4538 H   0  0  0  0  0  0  0  0  0  0  0  0
   -5.0779   23.1423  -28.0129 H   0  0  0  0  0  0  0  0  0  0  0  0
   -3.0710   25.0200  -30.6600 H   0  0  0  0  0  0  0  0  0  0  0  0
   -7.9214   24.5310  -31.0931 H   0  0  0  0  0  0  0  0  0  0  0  0
   -9.3055   22.2282  -32.0854 H   0  0  0  0  0  0  0  0  0  0  0  0
   -8.9577   19.8405  -32.8005 H   0  0  0  0  0  0  0  0  0  0  0  0
   -5.5351   16.5870  -32.0561 H   0  0  0  0  0  0  0  0  0  0  0  0
   -5.8065   17.4413  -30.7846 H   0  0  0  0  0  0  0  0  0  0  0  0
   -7.9601   16.6043  -33.0551 H   0  0  0  0  0  0  0  0  0  0  0  0
   -8.6526   17.4616  -31.9573 H   0  0  0  0  0  0  0  0  0  0  0  0
   -4.7033   20.1907  -31.9171 H   0  0  0  0  0  0  0  0  0  0  0  0
   -0.8004   22.7511  -28.5440 H   0  0  0  0  0  0  0  0  0  0  0  0
   -0.4289   24.6544  -26.9744 H   0  0  0  0  0  0  0  0  0  0  0  0
  1  2  1  0
  2  3  1  0
  3  4  2  0
  4  5  1  0
  5  6  2  0
  6  7  1  0
  7  8  1  0
  8  9  2  0
  8 10  1  0
 10 11  1  0
 11 12  1  0
 12 13  1  0
 12 14  2  0
 11 15  2  0
 15 16  1  0
 16 17  2  0
 17 18  1  0
 18 19  2  0
 19 20  1  0
 20 21  1  0
 21 22  3  0
 20 23  1  0
 23 24  1  0
 19 25  1  0
 25 26  2  0
  6 27  1  0
 27 28  2  0
 28  3  1  0
 26 10  1  0
 26 16  1  0
 24 20  1  0
  1 29  1  0
  1 30  1  0
  1 31  1  0
  4 32  1  0
  5 33  1  0
 13 34  1  0
 15 35  1  0
 17 36  1  0
 18 37  1  0
 23 38  1  0
 23 39  1  0
 24 40  1  0
 24 41  1  0
 25 42  1  0
 27 43  1  0
 28 44  1  0
M  CHG  1  13  -1
M  END
>  <UniqueID>  (60) 
60

>  <SMILES>  (60) 
COc1ccc(SC(=O)n2c(C([NH-])=O)cc3ccc(C4(C#N)CC4)cc32)cc1

>  <Energy>  (60) 
344.8240852983524

>  <Genealogy>  (60) 
COc1ccc(SC(=O)n2c(C([NH-])=O)cc3ccc(C4(C#N)CC4)cc32)cc1 (protonated)
COc1ccc(SC(=O)n2c(C([NH-])=O)cc3ccc(C4(C#N)CC4)cc32)cc1 (3D coordinates assigned)
COc1ccc(SC(=O)n2c(C([NH-])=O)cc3ccc(C4(C#N)CC4)cc32)cc1 (nonaromatic ring conformer: 344.8240852983524 kcal/mol)

>  <smiles>  (60) 
COc1ccc(SC(=O)n2c(C(N)=O)cc3ccc(C4(C#N)CC4)cc32)cc1

>  <score_type>  (60) 
oracle

>  <origin>  (60) 
adg

>  <m_score__min__energy>  (60) 
-12.26

>  <m_primary>  (60) 
energy

$$$$
61:0
     RDKit          3D

 39 40  0  0  0  0  0  0  0  0999 V2000
   -6.2150   17.5640  -31.3010 C   0  0  0  0  0  0  0  0  0  0  0  0
   -7.2840   17.5810  -32.3400 C   0  0  0  0  0  0  0  0  0  0  0  0
   -6.9990   17.2850  -33.5320 O   0  0  0  0  0  0  0  0  0  0  0  0
   -8.6000   17.8750  -31.9660 O   0  0  0  0  0  0  0  0  0  0  0  0
   -9.0380   19.1710  -31.5560 C   0  0  0  0  0  0  0  0  0  0  0  0
   -8.9310   20.1800  -32.7030 C   0  0  0  0  0  0  0  0  0  0  0  0
   -8.1990   21.4620  -32.2900 C   0  0  0  0  0  0  0  0  0  0  0  0
   -6.7100   21.2810  -32.4090 C   0  0  0  0  0  0  0  0  0  0  0  0
   -6.1790   20.3670  -33.3540 C   0  0  0  0  0  0  0  0  0  0  0  0
   -4.7930   20.1540  -33.4430 C   0  0  0  0  0  0  0  0  0  0  0  0
   -3.9670   20.8650  -32.5760 C   0  0  0  0  0  0  0  0  0  0  0  0
   -2.5990   20.8240  -32.4230 C   0  0  0  0  0  0  0  0  0  0  0  0
   -2.3160   21.7180  -31.3900 C   0  0  0  0  0  0  0  0  0  0  0  0
   -0.9520   22.0360  -30.9060 C   0  0  0  0  0  0  0  0  0  0  0  0
   -0.7540   22.8340  -29.7360 N   0  0  0  0  0  0  0  0  0  0  0  0
    0.0540   21.5910  -31.5170 O   0  0  0  0  0  0  0  0  0  0  0  0
   -3.4640   22.2940  -30.9340 N   0  0  0  0  0  0  0  0  0  0  0  0
   -3.6010   23.2160  -29.8400 C   0  0  0  0  0  0  0  0  0  0  0  0
   -3.9030   22.7830  -28.6960 O   0  0  0  0  0  0  0  0  0  0  0  0
   -3.3770   24.6560  -30.0320 C   0  0  0  0  0  0  0  0  0  0  0  0
   -4.0930   25.3110  -30.8350 O   0  0  0  0  0  0  0  0  0  0  0  0
   -2.3590   25.3000  -29.3420 O   0  0  0  0  0  0  0  0  0  0  0  0
   -4.4650   21.7570  -31.6630 C   0  0  0  0  0  0  0  0  0  0  0  0
   -5.8410   21.9730  -31.5380 C   0  0  0  0  0  0  0  0  0  0  0  0
   -6.6748   17.5713  -30.3017 H   0  0  0  0  0  0  0  0  0  0  0  0
   -5.6050   16.6560  -31.4173 H   0  0  0  0  0  0  0  0  0  0  0  0
   -5.5765   18.4521  -31.4173 H   0  0  0  0  0  0  0  0  0  0  0  0
  -10.0866   19.1088  -31.2295 H   0  0  0  0  0  0  0  0  0  0  0  0
   -8.3946   19.5115  -30.7313 H   0  0  0  0  0  0  0  0  0  0  0  0
   -8.3825   19.7126  -33.5341 H   0  0  0  0  0  0  0  0  0  0  0  0
   -9.9529   20.4590  -32.9994 H   0  0  0  0  0  0  0  0  0  0  0  0
   -8.5167   22.2870  -32.9446 H   0  0  0  0  0  0  0  0  0  0  0  0
   -8.4467   21.6912  -31.2431 H   0  0  0  0  0  0  0  0  0  0  0  0
   -6.8585   19.8195  -34.0238 H   0  0  0  0  0  0  0  0  0  0  0  0
   -4.3735   19.4478  -34.1746 H   0  0  0  0  0  0  0  0  0  0  0  0
   -1.8819   20.2157  -32.9938 H   0  0  0  0  0  0  0  0  0  0  0  0
   -1.5540   23.2780  -29.2370 H   0  0  0  0  0  0  0  0  0  0  0  0
    0.2120   23.0180  -29.3880 H   0  0  0  0  0  0  0  0  0  0  0  0
   -6.2364   22.6650  -30.7798 H   0  0  0  0  0  0  0  0  0  0  0  0
  1  2  1  0
  2  3  2  0
  2  4  1  0
  4  5  1  0
  5  6  1  0
  6  7  1  0
  7  8  1  0
  8  9  2  0
  9 10  1  0
 10 11  2  0
 11 12  1  0
 12 13  2  0
 13 14  1  0
 14 15  1  0
 14 16  2  0
 13 17  1  0
 17 18  1  0
 18 19  2  0
 18 20  1  0
 20 21  2  0
 20 22  1  0
 17 23  1  0
 23 24  2  0
 24  8  1  0
 23 11  1  0
  1 25  1  0
  1 26  1  0
  1 27  1  0
  5 28  1  0
  5 29  1  0
  6 30  1  0
  6 31  1  0
  7 32  1  0
  7 33  1  0
  9 34  1  0
 10 35  1  0
 12 36  1  0
 15 37  1  0
 15 38  1  0
 24 39  1  0
M  CHG  1  22  -1
M  END
>  <UniqueID>  (61) 
61

>  <SMILES>  (61) 
CC(=O)OCCCc1ccc2cc(C(N)=O)n(C(=O)C(=O)[O-])c2c1

>  <Energy>  (61) 
71.58982059090667

>  <Genealogy>  (61) 
CC(=O)OCCCc1ccc2cc(C(N)=O)n(C(=O)C(=O)[O-])c2c1 (protonated)
CC(=O)OCCCc1ccc2cc(C(N)=O)n(C(=O)C(=O)[O-])c2c1 (3D coordinates assigned)
CC(=O)OCCCc1ccc2cc(C(N)=O)n(C(=O)C(=O)[O-])c2c1 (optimized conformer: 71.58982059090667 kcal/mol)

>  <smiles>  (61) 
CC(=O)OCCCc1ccc2cc(C(N)=O)n(C(=O)C(=O)O)c2c1

>  <score_type>  (61) 
oracle

>  <origin>  (61) 
adg

>  <m_score__min__energy>  (61) 
-9.2799999999999994

>  <m_primary>  (61) 
energy

$$$$
62:0
     RDKit          3D

 38 39  0  0  0  0  0  0  0  0999 V2000
   -6.8350   17.2510  -32.7790 C   0  0  0  0  0  0  0  0  0  0  0  0
   -6.9850   18.4170  -32.5080 C   0  0  0  0  0  0  0  0  0  0  0  0
   -7.1620   19.8070  -32.1830 C   0  0  0  0  0  0  0  0  0  0  0  0
   -8.4480   20.3940  -32.2680 C   0  0  0  0  0  0  0  0  0  0  0  0
   -8.6320   21.7540  -31.9630 C   0  0  0  0  0  0  0  0  0  0  0  0
   -7.5160   22.4900  -31.5690 C   0  0  0  0  0  0  0  0  0  0  0  0
   -7.4010   23.8240  -31.2430 C   0  0  0  0  0  0  0  0  0  0  0  0
   -6.0520   24.0170  -30.9490 C   0  0  0  0  0  0  0  0  0  0  0  0
   -5.4830   25.3100  -30.5110 C   0  0  0  0  0  0  0  0  0  0  0  0
   -4.1430   25.6710  -30.8330 N   0  0  0  0  0  0  0  0  0  0  0  0
   -6.1840   26.0990  -29.8220 O   0  0  0  0  0  0  0  0  0  0  0  0
   -5.3640   22.8490  -31.0850 N   0  0  0  0  0  0  0  0  0  0  0  0
   -3.9520   22.6400  -30.9400 C   0  0  0  0  0  0  0  0  0  0  0  0
   -3.1860   22.9420  -31.8930 O   0  0  0  0  0  0  0  0  0  0  0  0
   -3.4110   22.0520  -29.6940 C   0  0  0  0  0  0  0  0  0  0  0  0
   -3.3370   20.7970  -29.6040 O   0  0  0  0  0  0  0  0  0  0  0  0
   -2.9570   22.8720  -28.5940 N   0  0  0  0  0  0  0  0  0  0  0  0
   -3.9310   23.4650  -27.6710 C   0  0  0  0  0  0  0  0  0  0  0  0
   -1.5170   23.0730  -28.3420 C   0  0  2  0  0  0  0  0  0  0  0  0
   -1.1720   22.8060  -26.8700 C   0  0  0  0  0  0  0  0  0  0  0  0
   -1.0880   24.4440  -28.7940 C   0  0  0  0  0  0  0  0  0  0  0  0
   -1.9230   25.2070  -29.3470 O   0  0  0  0  0  0  0  0  0  0  0  0
    0.2080   24.8980  -28.5760 O   0  0  0  0  0  0  0  0  0  0  0  0
   -6.2710   21.9270  -31.4700 C   0  0  0  0  0  0  0  0  0  0  0  0
   -6.0550   20.5810  -31.7850 C   0  0  0  0  0  0  0  0  0  0  0  0
   -6.6982   16.1879  -33.0261 H   0  0  0  0  0  0  0  0  0  0  0  0
   -9.3088   19.7817  -32.5748 H   0  0  0  0  0  0  0  0  0  0  0  0
   -9.6249   22.2222  -32.0331 H   0  0  0  0  0  0  0  0  0  0  0  0
   -8.2030   24.5765  -31.2197 H   0  0  0  0  0  0  0  0  0  0  0  0
   -3.3940   24.9460  -30.9080 H   0  0  0  0  0  0  0  0  0  0  0  0
   -3.6171   23.2739  -26.6342 H   0  0  0  0  0  0  0  0  0  0  0  0
   -3.9860   24.5500  -27.8434 H   0  0  0  0  0  0  0  0  0  0  0  0
   -4.9202   23.0157  -27.8434 H   0  0  0  0  0  0  0  0  0  0  0  0
   -0.9491   22.3419  -28.9362 H   0  0  0  0  0  0  0  0  0  0  0  0
   -1.8760   23.3508  -26.2238 H   0  0  0  0  0  0  0  0  0  0  0  0
   -1.2461   21.7277  -26.6658 H   0  0  0  0  0  0  0  0  0  0  0  0
   -0.1467   23.1482  -26.6658 H   0  0  0  0  0  0  0  0  0  0  0  0
   -5.0492   20.1400  -31.7235 H   0  0  0  0  0  0  0  0  0  0  0  0
  1  2  3  0
  2  3  1  0
  3  4  2  0
  4  5  1  0
  5  6  2  0
  6  7  1  0
  7  8  2  0
  8  9  1  0
  9 10  1  0
  9 11  2  0
  8 12  1  0
 12 13  1  0
 13 14  2  0
 13 15  1  0
 15 16  2  0
 15 17  1  0
 17 18  1  0
 17 19  1  0
 19 20  1  0
 19 21  1  0
 21 22  2  0
 21 23  1  0
 12 24  1  0
 24 25  2  0
 25  3  1  0
 24  6  1  0
  1 26  1  0
  4 27  1  0
  5 28  1  0
  7 29  1  0
 10 30  1  0
 18 31  1  0
 18 32  1  0
 18 33  1  0
 19 34  1  6
 20 35  1  0
 20 36  1  0
 20 37  1  0
 25 38  1  0
M  CHG  2  10  -1  23  -1
M  END
>  <UniqueID>  (62) 
62

>  <SMILES>  (62) 
C#Cc1ccc2cc(C([NH-])=O)n(C(=O)C(=O)N(C)[C@H](C)C(=O)[O-])c2c1

>  <Energy>  (62) 
76.85219845824484

>  <Genealogy>  (62) 
C#Cc1ccc2cc(C([NH-])=O)n(C(=O)C(=O)N(C)[C@H](C)C(=O)[O-])c2c1 (protonated)
C#Cc1ccc2cc(C([NH-])=O)n(C(=O)C(=O)N(C)[C@H](C)C(=O)[O-])c2c1 (3D coordinates assigned)
C#Cc1ccc2cc(C([NH-])=O)n(C(=O)C(=O)N(C)[C@H](C)C(=O)[O-])c2c1 (optimized conformer: 76.85219845824484 kcal/mol)

>  <smiles>  (62) 
C#Cc1ccc2cc(C(N)=O)n(C(=O)C(=O)N(C)[C@H](C)C(=O)O)c2c1

>  <score_type>  (62) 
oracle

>  <origin>  (62) 
adg

>  <m_score__min__energy>  (62) 
-13.5

>  <m_primary>  (62) 
energy

$$$$
63:0
     RDKit          3D

 39 41  0  0  0  0  0  0  0  0999 V2000
   -3.1760   16.5080  -35.0060 C   0  0  0  0  0  0  0  0  0  0  0  0
   -4.4110   15.7100  -34.6060 C   0  0  0  0  0  0  0  0  0  0  0  0
   -5.4290   16.6000  -33.9690 C   0  0  0  0  0  0  0  0  0  0  0  0
   -5.1970   17.8920  -33.6620 N   0  0  0  0  0  0  0  0  0  0  0  0
   -6.3540   18.2910  -33.0940 C   0  0  0  0  0  0  0  0  0  0  0  0
   -6.5900   19.6620  -32.5820 C   0  0  0  0  0  0  0  0  0  0  0  0
   -7.9120   20.1840  -32.5580 C   0  0  0  0  0  0  0  0  0  0  0  0
   -8.1690   21.4750  -32.0700 C   0  0  0  0  0  0  0  0  0  0  0  0
   -7.0910   22.2300  -31.6210 C   0  0  0  0  0  0  0  0  0  0  0  0
   -7.0610   23.4940  -31.0810 C   0  0  0  0  0  0  0  0  0  0  0  0
   -5.7200   23.7460  -30.8040 C   0  0  0  0  0  0  0  0  0  0  0  0
   -5.2260   25.0410  -30.2920 C   0  0  0  0  0  0  0  0  0  0  0  0
   -4.0430   25.6350  -30.8190 N   0  0  0  0  0  0  0  0  0  0  0  0
   -5.8840   25.6550  -29.4100 O   0  0  0  0  0  0  0  0  0  0  0  0
   -4.9510   22.6760  -31.1520 N   0  0  0  0  0  0  0  0  0  0  0  0
   -3.5390   22.5070  -30.9380 C   0  0  0  0  0  0  0  0  0  0  0  0
   -2.9620   21.4600  -31.3390 O   0  0  0  0  0  0  0  0  0  0  0  0
   -2.8170   23.5010  -30.2710 O   0  0  0  0  0  0  0  0  0  0  0  0
   -1.8720   23.2090  -29.2480 C   0  0  0  0  0  0  0  0  0  0  0  0
   -1.0080   24.4050  -29.0190 C   0  0  0  0  0  0  0  0  0  0  0  0
    0.1830   24.2630  -28.6350 O   0  0  0  0  0  0  0  0  0  0  0  0
   -1.5130   25.6780  -29.2430 O   0  0  0  0  0  0  0  0  0  0  0  0
   -5.8060   21.7550  -31.6530 C   0  0  0  0  0  0  0  0  0  0  0  0
   -5.5210   20.4640  -32.1140 C   0  0  0  0  0  0  0  0  0  0  0  0
   -7.2360   17.2250  -33.0750 C   0  0  0  0  0  0  0  0  0  0  0  0
   -6.6300   16.2010  -33.6200 O   0  0  0  0  0  0  0  0  0  0  0  0
   -2.6502   16.8478  -34.1015 H   0  0  0  0  0  0  0  0  0  0  0  0
   -2.5057   15.8718  -35.6026 H   0  0  0  0  0  0  0  0  0  0  0  0
   -3.4806   17.3805  -35.6026 H   0  0  0  0  0  0  0  0  0  0  0  0
   -4.8473   15.2455  -35.5026 H   0  0  0  0  0  0  0  0  0  0  0  0
   -4.1143   14.9362  -33.8827 H   0  0  0  0  0  0  0  0  0  0  0  0
   -8.7452   19.5678  -32.9269 H   0  0  0  0  0  0  0  0  0  0  0  0
   -9.1925   21.8773  -32.0436 H   0  0  0  0  0  0  0  0  0  0  0  0
   -7.9154   24.1642  -30.9051 H   0  0  0  0  0  0  0  0  0  0  0  0
   -3.0980   25.2870  -30.5460 H   0  0  0  0  0  0  0  0  0  0  0  0
   -2.4030   22.9558  -28.3185 H   0  0  0  0  0  0  0  0  0  0  0  0
   -1.2480   22.3567  -29.5549 H   0  0  0  0  0  0  0  0  0  0  0  0
   -4.4897   20.0813  -32.1126 H   0  0  0  0  0  0  0  0  0  0  0  0
   -8.2605   17.2362  -32.6745 H   0  0  0  0  0  0  0  0  0  0  0  0
  1  2  1  0
  2  3  1  0
  3  4  2  0
  4  5  1  0
  5  6  1  0
  6  7  2  0
  7  8  1  0
  8  9  2  0
  9 10  1  0
 10 11  2  0
 11 12  1  0
 12 13  1  0
 12 14  2  0
 11 15  1  0
 15 16  1  0
 16 17  2  0
 16 18  1  0
 18 19  1  0
 19 20  1  0
 20 21  2  0
 20 22  1  0
 15 23  1  0
 23 24  2  0
  5 25  2  0
 25 26  1  0
 26  3  1  0
 24  6  1  0
 23  9  1  0
  1 27  1  0
  1 28  1  0
  1 29  1  0
  2 30  1  0
  2 31  1  0
  7 32  1  0
  8 33  1  0
 10 34  1  0
 13 35  1  0
 19 36  1  0
 19 37  1  0
 24 38  1  0
 25 39  1  0
M  CHG  2  13  -1  22  -1
M  END
>  <UniqueID>  (63) 
63

>  <SMILES>  (63) 
CCc1nc(-c2ccc3cc(C([NH-])=O)n(C(=O)OCC(=O)[O-])c3c2)co1

>  <Energy>  (63) 
104.14636432850843

>  <Genealogy>  (63) 
CCc1nc(-c2ccc3cc(C([NH-])=O)n(C(=O)OCC(=O)[O-])c3c2)co1 (protonated)
CCc1nc(-c2ccc3cc(C([NH-])=O)n(C(=O)OCC(=O)[O-])c3c2)co1 (3D coordinates assigned)
CCc1nc(-c2ccc3cc(C([NH-])=O)n(C(=O)OCC(=O)[O-])c3c2)co1 (optimized conformer: 104.14636432850843 kcal/mol)

>  <smiles>  (63) 
CCc1nc(-c2ccc3cc(C(N)=O)n(C(=O)OCC(=O)O)c3c2)co1

>  <score_type>  (63) 
oracle

>  <origin>  (63) 
adg

>  <m_score__min__energy>  (63) 
-12.630000000000001

>  <m_primary>  (63) 
energy

$$$$
64:0
     RDKit          3D

 40 41  0  0  0  0  0  0  0  0999 V2000
   -0.5230   24.2000  -27.3110 C   0  0  0  0  0  0  0  0  0  0  0  0
   -1.6840   24.5280  -28.1870 C   0  0  0  0  0  0  0  0  0  0  0  0
   -1.5190   25.2880  -29.1800 O   0  0  0  0  0  0  0  0  0  0  0  0
   -2.9380   23.9730  -27.9090 O   0  0  0  0  0  0  0  0  0  0  0  0
   -3.1720   22.5690  -27.8180 C   0  0  0  0  0  0  0  0  0  0  0  0
   -2.3720   21.8220  -28.8890 C   0  0  0  0  0  0  0  0  0  0  0  0
   -3.2960   21.2310  -29.9570 C   0  0  0  0  0  0  0  0  0  0  0  0
   -3.8090   22.3210  -30.8520 C   0  0  0  0  0  0  0  0  0  0  0  0
   -2.9910   23.0880  -31.4280 O   0  0  0  0  0  0  0  0  0  0  0  0
   -5.2170   22.5720  -30.9620 N   0  0  0  0  0  0  0  0  0  0  0  0
   -5.8770   23.7520  -30.7970 C   0  0  0  0  0  0  0  0  0  0  0  0
   -5.2880   25.0120  -30.2990 C   0  0  0  0  0  0  0  0  0  0  0  0
   -3.8900   25.1240  -30.0250 N   0  0  0  0  0  0  0  0  0  0  0  0
   -6.0400   25.9980  -30.0710 O   0  0  0  0  0  0  0  0  0  0  0  0
   -7.2210   23.6110  -31.1350 C   0  0  0  0  0  0  0  0  0  0  0  0
   -7.3680   22.2920  -31.5040 C   0  0  0  0  0  0  0  0  0  0  0  0
   -8.4940   21.6020  -31.9440 C   0  0  0  0  0  0  0  0  0  0  0  0
   -8.3430   20.2490  -32.2900 C   0  0  0  0  0  0  0  0  0  0  0  0
   -7.0750   19.6190  -32.2070 C   0  0  0  0  0  0  0  0  0  0  0  0
   -6.9310   18.1670  -32.5560 C   0  0  0  0  0  0  0  0  0  0  0  0
   -6.1060   18.0040  -34.1240 Cl  0  0  0  0  0  0  0  0  0  0  0  0
   -5.9580   20.3480  -31.7450 C   0  0  0  0  0  0  0  0  0  0  0  0
   -6.1430   21.6890  -31.3920 C   0  0  0  0  0  0  0  0  0  0  0  0
   -0.8239   24.2850  -26.2564 H   0  0  0  0  0  0  0  0  0  0  0  0
   -0.1885   23.1722  -27.5152 H   0  0  0  0  0  0  0  0  0  0  0  0
    0.2999   24.9008  -27.5152 H   0  0  0  0  0  0  0  0  0  0  0  0
   -2.8644   22.2144  -26.8232 H   0  0  0  0  0  0  0  0  0  0  0  0
   -4.2435   22.3758  -27.9746 H   0  0  0  0  0  0  0  0  0  0  0  0
   -1.6718   22.5223  -29.3678 H   0  0  0  0  0  0  0  0  0  0  0  0
   -1.8261   20.9984  -28.4055 H   0  0  0  0  0  0  0  0  0  0  0  0
   -2.7366   20.4991  -30.5582 H   0  0  0  0  0  0  0  0  0  0  0  0
   -4.1470   20.7372  -29.4651 H   0  0  0  0  0  0  0  0  0  0  0  0
   -3.4880   26.0400  -29.7290 H   0  0  0  0  0  0  0  0  0  0  0  0
   -3.2690   24.2850  -30.0220 H   0  0  0  0  0  0  0  0  0  0  0  0
   -7.9995   24.3878  -31.1121 H   0  0  0  0  0  0  0  0  0  0  0  0
   -9.4716   22.1007  -32.0184 H   0  0  0  0  0  0  0  0  0  0  0  0
   -9.2165   19.6726  -32.6286 H   0  0  0  0  0  0  0  0  0  0  0  0
   -6.3403   17.6611  -31.7781 H   0  0  0  0  0  0  0  0  0  0  0  0
   -7.9285   17.7079  -32.6206 H   0  0  0  0  0  0  0  0  0  0  0  0
   -4.9685   19.8743  -31.6647 H   0  0  0  0  0  0  0  0  0  0  0  0
  1  2  1  0
  2  3  2  0
  2  4  1  0
  4  5  1  0
  5  6  1  0
  6  7  1  0
  7  8  1  0
  8  9  2  0
  8 10  1  0
 10 11  1  0
 11 12  1  0
 12 13  1  0
 12 14  2  0
 11 15  2  0
 15 16  1  0
 16 17  2  0
 17 18  1  0
 18 19  2  0
 19 20  1  0
 20 21  1  0
 19 22  1  0
 22 23  2  0
 23 10  1  0
 23 16  1  0
  1 24  1  0
  1 25  1  0
  1 26  1  0
  5 27  1  0
  5 28  1  0
  6 29  1  0
  6 30  1  0
  7 31  1  0
  7 32  1  0
 13 33  1  0
 13 34  1  0
 15 35  1  0
 17 36  1  0
 18 37  1  0
 20 38  1  0
 20 39  1  0
 22 40  1  0
M  END
>  <UniqueID>  (64) 
64

>  <SMILES>  (64) 
CC(=O)OCCCC(=O)n1c(C(N)=O)cc2ccc(CCl)cc21

>  <Energy>  (64) 
70.78479081797163

>  <Genealogy>  (64) 
CC(=O)OCCCC(=O)n1c(C(N)=O)cc2ccc(CCl)cc21 (3D coordinates assigned)
CC(=O)OCCCC(=O)n1c(C(N)=O)cc2ccc(CCl)cc21 (optimized conformer: 70.78479081797163 kcal/mol)

>  <smiles>  (64) 
CC(=O)OCCCC(=O)n1c(C(N)=O)cc2ccc(CCl)cc21

>  <score_type>  (64) 
oracle

>  <origin>  (64) 
adg

>  <m_score__min__energy>  (64) 
-8.7200000000000006

>  <m_primary>  (64) 
energy

$$$$
65:0
     RDKit          3D

 42 43  0  0  0  0  0  0  0  0999 V2000
   -1.4010   21.3160  -26.9210 C   0  0  0  0  0  0  0  0  0  0  0  0
   -1.8810   22.3480  -27.8470 N   0  0  0  0  0  0  0  0  0  0  0  0
   -1.0520   23.5450  -28.0750 C   0  0  0  0  0  0  0  0  0  0  0  0
   -1.9100   24.8090  -28.0710 C   0  0  0  0  0  0  0  0  0  0  0  0
   -2.2090   25.1930  -29.3840 O   0  0  0  0  0  0  0  0  0  0  0  0
   -3.1960   22.2010  -28.4260 C   0  0  0  0  0  0  0  0  0  0  0  0
   -4.1990   22.6420  -27.7930 O   0  0  0  0  0  0  0  0  0  0  0  0
   -3.3940   21.5210  -29.7620 C   0  0  0  0  0  0  0  0  0  0  0  0
   -3.8600   22.4720  -30.8260 C   0  0  0  0  0  0  0  0  0  0  0  0
   -3.0150   23.0900  -31.5270 O   0  0  0  0  0  0  0  0  0  0  0  0
   -5.2590   22.6490  -31.0850 N   0  0  0  0  0  0  0  0  0  0  0  0
   -6.0200   23.7600  -30.8700 C   0  0  0  0  0  0  0  0  0  0  0  0
   -5.5180   25.0540  -30.3490 C   0  0  0  0  0  0  0  0  0  0  0  0
   -4.1960   25.5130  -30.6640 N   0  0  0  0  0  0  0  0  0  0  0  0
   -6.2470   25.7610  -29.6000 O   0  0  0  0  0  0  0  0  0  0  0  0
   -7.3410   23.5180  -31.2520 C   0  0  0  0  0  0  0  0  0  0  0  0
   -7.3560   22.2210  -31.7170 C   0  0  0  0  0  0  0  0  0  0  0  0
   -8.4110   21.4550  -32.2040 C   0  0  0  0  0  0  0  0  0  0  0  0
   -8.1410   20.1290  -32.5780 C   0  0  0  0  0  0  0  0  0  0  0  0
   -6.8320   19.6000  -32.4660 C   0  0  0  0  0  0  0  0  0  0  0  0
   -6.5770   18.1550  -32.7930 C   0  0  0  0  0  0  0  0  0  0  0  0
   -5.7540   18.0360  -34.3660 Cl  0  0  0  0  0  0  0  0  0  0  0  0
   -5.7870   20.4070  -31.9730 C   0  0  0  0  0  0  0  0  0  0  0  0
   -6.0870   21.7220  -31.6070 C   0  0  0  0  0  0  0  0  0  0  0  0
   -1.5571   21.6516  -25.8851 H   0  0  0  0  0  0  0  0  0  0  0  0
   -1.9574   20.3826  -27.0918 H   0  0  0  0  0  0  0  0  0  0  0  0
   -0.3287   21.1402  -27.0918 H   0  0  0  0  0  0  0  0  0  0  0  0
   -0.2980   23.6186  -27.2774 H   0  0  0  0  0  0  0  0  0  0  0  0
   -0.5640   23.4537  -29.0566 H   0  0  0  0  0  0  0  0  0  0  0  0
   -2.8459   24.6115  -27.5278 H   0  0  0  0  0  0  0  0  0  0  0  0
   -1.3539   25.6195  -27.5771 H   0  0  0  0  0  0  0  0  0  0  0  0
   -2.1860   24.3640  -29.9270 H   0  0  0  0  0  0  0  0  0  0  0  0
   -2.4378   21.0786  -30.0781 H   0  0  0  0  0  0  0  0  0  0  0  0
   -4.1716   20.7534  -29.6351 H   0  0  0  0  0  0  0  0  0  0  0  0
   -3.5140   24.9230  -31.1980 H   0  0  0  0  0  0  0  0  0  0  0  0
   -3.8650   26.4310  -30.2990 H   0  0  0  0  0  0  0  0  0  0  0  0
   -8.1899   24.2151  -31.1940 H   0  0  0  0  0  0  0  0  0  0  0  0
   -9.4238   21.8750  -32.2930 H   0  0  0  0  0  0  0  0  0  0  0  0
   -8.9538   19.4949  -32.9617 H   0  0  0  0  0  0  0  0  0  0  0  0
   -5.9421   17.7095  -32.0129 H   0  0  0  0  0  0  0  0  0  0  0  0
   -7.5349   17.6163  -32.8399 H   0  0  0  0  0  0  0  0  0  0  0  0
   -4.7643   20.0130  -31.8790 H   0  0  0  0  0  0  0  0  0  0  0  0
  1  2  1  0
  2  3  1  0
  3  4  1  0
  4  5  1  0
  2  6  1  0
  6  7  2  0
  6  8  1  0
  8  9  1  0
  9 10  2  0
  9 11  1  0
 11 12  1  0
 12 13  1  0
 13 14  1  0
 13 15  2  0
 12 16  2  0
 16 17  1  0
 17 18  2  0
 18 19  1  0
 19 20  2  0
 20 21  1  0
 21 22  1  0
 20 23  1  0
 23 24  2  0
 24 11  1  0
 24 17  1  0
  1 25  1  0
  1 26  1  0
  1 27  1  0
  3 28  1  0
  3 29  1  0
  4 30  1  0
  4 31  1  0
  5 32  1  0
  8 33  1  0
  8 34  1  0
 14 35  1  0
 14 36  1  0
 16 37  1  0
 18 38  1  0
 19 39  1  0
 21 40  1  0
 21 41  1  0
 23 42  1  0
M  END
>  <UniqueID>  (65) 
65

>  <SMILES>  (65) 
CN(CCO)C(=O)CC(=O)n1c(C(N)=O)cc2ccc(CCl)cc21

>  <Energy>  (65) 
77.79167076633298

>  <Genealogy>  (65) 
CN(CCO)C(=O)CC(=O)n1c(C(N)=O)cc2ccc(CCl)cc21 (3D coordinates assigned)
CN(CCO)C(=O)CC(=O)n1c(C(N)=O)cc2ccc(CCl)cc21 (optimized conformer: 77.79167076633298 kcal/mol)

>  <smiles>  (65) 
CN(CCO)C(=O)CC(=O)n1c(C(N)=O)cc2ccc(CCl)cc21

>  <score_type>  (65) 
oracle

>  <origin>  (65) 
adg

>  <m_score__min__energy>  (65) 
-8.6300000000000008

>  <m_primary>  (65) 
energy

$$$$
66:0
     RDKit          3D

 40 41  0  0  0  0  0  0  0  0999 V2000
   -3.8800   22.5260  -27.7110 C   0  0  0  0  0  0  0  0  0  0  0  0
   -3.3890   23.9730  -27.5920 C   0  0  2  0  0  0  0  0  0  0  0  0
   -4.4910   24.9170  -27.8140 N   0  0  0  0  0  0  0  0  0  0  0  0
   -2.2680   24.2190  -28.5630 C   0  0  0  0  0  0  0  0  0  0  0  0
   -2.0320   25.3890  -28.9750 O   0  0  0  0  0  0  0  0  0  0  0  0
   -1.5190   23.1360  -29.0340 O   0  0  0  0  0  0  0  0  0  0  0  0
   -1.7460   22.5320  -30.3010 C   0  0  0  0  0  0  0  0  0  0  0  0
   -3.1150   22.1580  -30.4130 O   0  0  0  0  0  0  0  0  0  0  0  0
   -3.8570   22.3300  -31.5830 C   0  0  0  0  0  0  0  0  0  0  0  0
   -3.2830   22.3260  -32.7060 O   0  0  0  0  0  0  0  0  0  0  0  0
   -5.2850   22.4840  -31.5050 N   0  0  0  0  0  0  0  0  0  0  0  0
   -5.9900   23.5730  -31.0840 C   0  0  0  0  0  0  0  0  0  0  0  0
   -5.4230   24.7980  -30.4810 C   0  0  0  0  0  0  0  0  0  0  0  0
   -4.0980   25.2050  -30.8180 N   0  0  0  0  0  0  0  0  0  0  0  0
   -6.1070   25.5110  -29.7020 O   0  0  0  0  0  0  0  0  0  0  0  0
   -7.3590   23.3480  -31.2130 C   0  0  0  0  0  0  0  0  0  0  0  0
   -7.4740   22.0740  -31.7180 C   0  0  0  0  0  0  0  0  0  0  0  0
   -8.6120   21.3410  -32.0420 C   0  0  0  0  0  0  0  0  0  0  0  0
   -8.4360   20.0490  -32.5660 C   0  0  0  0  0  0  0  0  0  0  0  0
   -7.1360   19.5210  -32.7620 C   0  0  0  0  0  0  0  0  0  0  0  0
   -6.9690   18.1420  -33.3340 C   0  0  0  0  0  0  0  0  0  0  0  0
   -6.6170   17.2600  -32.3290 F   0  0  0  0  0  0  0  0  0  0  0  0
   -5.9790   18.1550  -34.3000 F   0  0  0  0  0  0  0  0  0  0  0  0
   -6.0030   20.2970  -32.4250 C   0  0  0  0  0  0  0  0  0  0  0  0
   -6.2090   21.5740  -31.8860 C   0  0  0  0  0  0  0  0  0  0  0  0
   -4.0233   22.1036  -26.7055 H   0  0  0  0  0  0  0  0  0  0  0  0
   -4.8350   22.5065  -28.2565 H   0  0  0  0  0  0  0  0  0  0  0  0
   -3.1340   21.9294  -28.2565 H   0  0  0  0  0  0  0  0  0  0  0  0
   -3.0096   24.1332  -26.5720 H   0  0  0  0  0  0  0  0  0  0  0  0
   -5.3960   24.4090  -27.9400 H   0  0  0  0  0  0  0  0  0  0  0  0
   -4.5730   25.5620  -26.9960 H   0  0  0  0  0  0  0  0  0  0  0  0
   -4.2970   25.4920  -28.6670 H   0  0  0  0  0  0  0  0  0  0  0  0
   -1.4956   23.2477  -31.0979 H   0  0  0  0  0  0  0  0  0  0  0  0
   -1.1136   21.6372  -30.3978 H   0  0  0  0  0  0  0  0  0  0  0  0
   -3.4860   25.6760  -30.1160 H   0  0  0  0  0  0  0  0  0  0  0  0
   -8.1750   24.0423  -30.9637 H   0  0  0  0  0  0  0  0  0  0  0  0
   -9.6180   21.7601  -31.8925 H   0  0  0  0  0  0  0  0  0  0  0  0
   -9.3157   19.4420  -32.8264 H   0  0  0  0  0  0  0  0  0  0  0  0
   -7.9191   17.8219  -33.7866 H   0  0  0  0  0  0  0  0  0  0  0  0
   -4.9860   19.9082  -32.5819 H   0  0  0  0  0  0  0  0  0  0  0  0
  1  2  1  0
  2  3  1  0
  2  4  1  0
  4  5  2  0
  4  6  1  0
  6  7  1  0
  7  8  1  0
  8  9  1  0
  9 10  2  0
  9 11  1  0
 11 12  1  0
 12 13  1  0
 13 14  1  0
 13 15  2  0
 12 16  2  0
 16 17  1  0
 17 18  2  0
 18 19  1  0
 19 20  2  0
 20 21  1  0
 21 22  1  0
 21 23  1  0
 20 24  1  0
 24 25  2  0
 25 11  1  0
 25 17  1  0
  1 26  1  0
  1 27  1  0
  1 28  1  0
  2 29  1  1
  3 30  1  0
  3 31  1  0
  3 32  1  0
  7 33  1  0
  7 34  1  0
 14 35  1  0
 16 36  1  0
 18 37  1  0
 19 38  1  0
 21 39  1  0
 24 40  1  0
M  CHG  2   3   1  14  -1
M  END
>  <UniqueID>  (66) 
66

>  <SMILES>  (66) 
C[C@H]([NH3+])C(=O)OCOC(=O)n1c(C([NH-])=O)cc2ccc(C(F)F)cc21

>  <Energy>  (66) 
71.24005041775061

>  <Genealogy>  (66) 
CC([NH3+])C(=O)OCOC(=O)n1c(C([NH-])=O)cc2ccc(C(F)F)cc21 (protonated)
C[C@H]([NH3+])C(=O)OCOC(=O)n1c(C([NH-])=O)cc2ccc(C(F)F)cc21 (chirality)
C[C@H]([NH3+])C(=O)OCOC(=O)n1c(C([NH-])=O)cc2ccc(C(F)F)cc21 (3D coordinates assigned)
C[C@H]([NH3+])C(=O)OCOC(=O)n1c(C([NH-])=O)cc2ccc(C(F)F)cc21 (optimized conformer: 71.24005041775061 kcal/mol)

>  <smiles>  (66) 
CC(N)C(=O)OCOC(=O)n1c(C(N)=O)cc2ccc(C(F)F)cc21

>  <score_type>  (66) 
oracle

>  <origin>  (66) 
adg

>  <m_score__min__energy>  (66) 
-9.2200000000000006

>  <m_primary>  (66) 
energy

$$$$
67:0
     RDKit          3D

 47 48  0  0  0  0  0  0  0  0999 V2000
   -4.2330   17.0550  -35.0210 C   0  0  0  0  0  0  0  0  0  0  0  0
   -5.6400   17.0850  -34.9260 O   0  0  0  0  0  0  0  0  0  0  0  0
   -6.0700   16.4420  -33.7400 C   0  0  0  0  0  0  0  0  0  0  0  0
   -6.8720   17.4090  -32.8630 C   0  0  0  0  0  0  0  0  0  0  0  0
   -7.0390   18.7040  -33.5260 N   0  0  0  0  0  0  0  0  0  0  0  0
   -7.2580   19.9550  -32.8440 C   0  0  0  0  0  0  0  0  0  0  0  0
   -8.5560   20.3670  -32.4310 C   0  0  0  0  0  0  0  0  0  0  0  0
   -8.7410   21.5820  -31.7510 C   0  0  0  0  0  0  0  0  0  0  0  0
   -7.6210   22.3690  -31.5020 C   0  0  0  0  0  0  0  0  0  0  0  0
   -7.5140   23.5690  -30.8360 C   0  0  0  0  0  0  0  0  0  0  0  0
   -6.1600   23.8890  -30.8720 C   0  0  0  0  0  0  0  0  0  0  0  0
   -5.6050   25.1420  -30.3220 C   0  0  0  0  0  0  0  0  0  0  0  0
   -6.1410   25.7320  -29.1360 N   0  0  0  0  0  0  0  0  0  0  0  0
   -4.6050   25.6720  -30.8760 O   0  0  0  0  0  0  0  0  0  0  0  0
   -5.4550   22.9200  -31.5210 N   0  0  0  0  0  0  0  0  0  0  0  0
   -4.0290   22.8300  -31.6750 C   0  0  0  0  0  0  0  0  0  0  0  0
   -3.2750   23.4230  -30.8580 O   0  0  0  0  0  0  0  0  0  0  0  0
   -3.4960   22.0780  -32.7330 O   0  0  0  0  0  0  0  0  0  0  0  0
   -2.6550   20.9220  -32.6170 C   0  0  0  0  0  0  0  0  0  0  0  0
   -1.1950   21.2790  -32.9510 C   0  0  0  0  0  0  0  0  0  0  0  0
   -2.7290   20.4540  -31.1560 C   0  0  0  0  0  0  0  0  0  0  0  0
   -3.1620   19.7890  -33.5290 C   0  0  0  0  0  0  0  0  0  0  0  0
   -6.3650   21.9980  -31.9040 C   0  0  0  0  0  0  0  0  0  0  0  0
   -6.1480   20.7810  -32.5620 C   0  0  0  0  0  0  0  0  0  0  0  0
   -3.7974   17.0457  -34.0110 H   0  0  0  0  0  0  0  0  0  0  0  0
   -3.9213   16.1500  -35.5631 H   0  0  0  0  0  0  0  0  0  0  0  0
   -3.8830   17.9459  -35.5631 H   0  0  0  0  0  0  0  0  0  0  0  0
   -6.7040   15.5828  -34.0041 H   0  0  0  0  0  0  0  0  0  0  0  0
   -5.1861   16.1043  -33.1791 H   0  0  0  0  0  0  0  0  0  0  0  0
   -7.8636   16.9762  -32.6643 H   0  0  0  0  0  0  0  0  0  0  0  0
   -6.3239   17.5653  -31.9222 H   0  0  0  0  0  0  0  0  0  0  0  0
   -7.0060   18.7100  -34.5710 H   0  0  0  0  0  0  0  0  0  0  0  0
   -9.4241   19.7268  -32.6467 H   0  0  0  0  0  0  0  0  0  0  0  0
   -9.7417   21.9018  -31.4250 H   0  0  0  0  0  0  0  0  0  0  0  0
   -8.3253   24.1507  -30.3741 H   0  0  0  0  0  0  0  0  0  0  0  0
   -5.7630   26.6400  -28.7870 H   0  0  0  0  0  0  0  0  0  0  0  0
   -6.8500   25.2320  -28.5570 H   0  0  0  0  0  0  0  0  0  0  0  0
   -0.6288   21.4175  -32.0181 H   0  0  0  0  0  0  0  0  0  0  0  0
   -0.7432   20.4649  -33.5367 H   0  0  0  0  0  0  0  0  0  0  0  0
   -1.1699   22.2097  -33.5367 H   0  0  0  0  0  0  0  0  0  0  0  0
   -2.5926   21.3167  -30.4873 H   0  0  0  0  0  0  0  0  0  0  0  0
   -3.7108   19.9953  -30.9672 H   0  0  0  0  0  0  0  0  0  0  0  0
   -1.9366   19.7148  -30.9672 H   0  0  0  0  0  0  0  0  0  0  0  0
   -3.5335   18.9588  -32.9103 H   0  0  0  0  0  0  0  0  0  0  0  0
   -3.9771   20.1664  -34.1640 H   0  0  0  0  0  0  0  0  0  0  0  0
   -2.3375   19.4327  -34.1640 H   0  0  0  0  0  0  0  0  0  0  0  0
   -5.1326   20.4745  -32.8535 H   0  0  0  0  0  0  0  0  0  0  0  0
  1  2  1  0
  2  3  1  0
  3  4  1  0
  4  5  1  0
  5  6  1  0
  6  7  2  0
  7  8  1  0
  8  9  2  0
  9 10  1  0
 10 11  2  0
 11 12  1  0
 12 13  1  0
 12 14  2  0
 11 15  1  0
 15 16  1  0
 16 17  2  0
 16 18  1  0
 18 19  1  0
 19 20  1  0
 19 21  1  0
 19 22  1  0
 15 23  1  0
 23 24  2  0
 24  6  1  0
 23  9  1  0
  1 25  1  0
  1 26  1  0
  1 27  1  0
  3 28  1  0
  3 29  1  0
  4 30  1  0
  4 31  1  0
  5 32  1  0
  7 33  1  0
  8 34  1  0
 10 35  1  0
 13 36  1  0
 13 37  1  0
 20 38  1  0
 20 39  1  0
 20 40  1  0
 21 41  1  0
 21 42  1  0
 21 43  1  0
 22 44  1  0
 22 45  1  0
 22 46  1  0
 24 47  1  0
M  END
>  <UniqueID>  (67) 
67

>  <SMILES>  (67) 
COCCNc1ccc2cc(C(N)=O)n(C(=O)OC(C)(C)C)c2c1

>  <Energy>  (67) 
80.90910415213236

>  <Genealogy>  (67) 
COCCNc1ccc2cc(C(N)=O)n(C(=O)OC(C)(C)C)c2c1 (3D coordinates assigned)
COCCNc1ccc2cc(C(N)=O)n(C(=O)OC(C)(C)C)c2c1 (optimized conformer: 80.90910415213236 kcal/mol)

>  <smiles>  (67) 
COCCNc1ccc2cc(C(N)=O)n(C(=O)OC(C)(C)C)c2c1

>  <score_type>  (67) 
oracle

>  <origin>  (67) 
adg

>  <m_score__min__energy>  (67) 
-8.7200000000000006

>  <m_primary>  (67) 
energy

$$$$
68:0
     RDKit          3D

 43 45  0  0  0  0  0  0  0  0999 V2000
   -7.6150   18.6840  -32.7160 C   0  0  0  0  0  0  0  0  0  0  0  0
   -7.5880   20.1000  -32.2230 C   0  0  0  0  0  0  0  0  0  0  0  0
   -8.7780   20.7080  -31.7530 C   0  0  0  0  0  0  0  0  0  0  0  0
   -8.7590   22.0170  -31.2430 C   0  0  0  0  0  0  0  0  0  0  0  0
   -7.5390   22.6860  -31.2110 C   0  0  0  0  0  0  0  0  0  0  0  0
   -7.2300   23.9420  -30.7400 C   0  0  0  0  0  0  0  0  0  0  0  0
   -5.8580   24.0820  -30.9330 C   0  0  0  0  0  0  0  0  0  0  0  0
   -5.1160   25.3260  -30.6380 C   0  0  0  0  0  0  0  0  0  0  0  0
   -3.7000   25.2840  -30.4710 N   0  0  0  0  0  0  0  0  0  0  0  0
   -5.7220   26.4200  -30.4960 O   0  0  0  0  0  0  0  0  0  0  0  0
   -5.3370   22.9550  -31.4970 N   0  0  0  0  0  0  0  0  0  0  0  0
   -3.9580   22.6740  -31.7830 C   0  0  0  0  0  0  0  0  0  0  0  0
   -3.6170   22.3030  -32.9400 O   0  0  0  0  0  0  0  0  0  0  0  0
   -3.0000   22.7850  -30.7680 O   0  0  0  0  0  0  0  0  0  0  0  0
   -3.0480   22.0270  -29.5600 C   0  0  0  0  0  0  0  0  0  0  0  0
   -1.6910   21.4730  -29.2030 C   0  0  0  0  0  0  0  0  0  0  0  0
   -0.6640   21.9840  -29.7290 O   0  0  0  0  0  0  0  0  0  0  0  0
   -1.5530   20.3480  -28.3030 N   0  0  0  0  0  0  0  0  0  0  0  0
   -0.2270   19.7280  -28.1230 C   0  0  0  0  0  0  0  0  0  0  0  0
   -0.3670   18.2260  -27.8960 C   0  0  0  0  0  0  0  0  0  0  0  0
   -1.2300   17.9870  -26.7520 N   0  0  0  0  0  0  0  0  0  0  0  0
   -2.3900   18.7940  -26.5460 C   0  0  0  0  0  0  0  0  0  0  0  0
   -3.1680   18.5370  -25.5900 O   0  0  0  0  0  0  0  0  0  0  0  0
   -2.7040   19.9370  -27.4720 C   0  0  0  0  0  0  0  0  0  0  0  0
   -6.3780   22.1110  -31.6630 C   0  0  0  0  0  0  0  0  0  0  0  0
   -6.3660   20.8020  -32.1590 C   0  0  0  0  0  0  0  0  0  0  0  0
   -7.6281   17.9969  -31.8571 H   0  0  0  0  0  0  0  0  0  0  0  0
   -8.5163   18.5253  -33.3263 H   0  0  0  0  0  0  0  0  0  0  0  0
   -6.7204   18.4911  -33.3263 H   0  0  0  0  0  0  0  0  0  0  0  0
   -9.7255   20.1502  -31.7876 H   0  0  0  0  0  0  0  0  0  0  0  0
   -9.6794   22.4980  -30.8804 H   0  0  0  0  0  0  0  0  0  0  0  0
   -7.9204   24.6788  -30.3037 H   0  0  0  0  0  0  0  0  0  0  0  0
   -3.0820   24.9110  -31.2260 H   0  0  0  0  0  0  0  0  0  0  0  0
   -3.3953   22.6769  -28.7433 H   0  0  0  0  0  0  0  0  0  0  0  0
   -3.7381   21.1833  -29.7081 H   0  0  0  0  0  0  0  0  0  0  0  0
    0.3800   19.9032  -29.0235 H   0  0  0  0  0  0  0  0  0  0  0  0
    0.2599   20.1771  -27.2448 H   0  0  0  0  0  0  0  0  0  0  0  0
   -0.8060   17.7595  -28.7902 H   0  0  0  0  0  0  0  0  0  0  0  0
    0.6247   17.7904  -27.7043 H   0  0  0  0  0  0  0  0  0  0  0  0
   -0.9730   17.2540  -26.0510 H   0  0  0  0  0  0  0  0  0  0  0  0
   -3.5244   19.6317  -28.1381 H   0  0  0  0  0  0  0  0  0  0  0  0
   -2.9782   20.7986  -26.8455 H   0  0  0  0  0  0  0  0  0  0  0  0
   -5.4279   20.3328  -32.4903 H   0  0  0  0  0  0  0  0  0  0  0  0
  1  2  1  0
  2  3  2  0
  3  4  1  0
  4  5  2  0
  5  6  1  0
  6  7  2  0
  7  8  1  0
  8  9  1  0
  8 10  2  0
  7 11  1  0
 11 12  1  0
 12 13  2  0
 12 14  1  0
 14 15  1  0
 15 16  1  0
 16 17  2  0
 16 18  1  0
 18 19  1  0
 19 20  1  0
 20 21  1  0
 21 22  1  0
 22 23  2  0
 22 24  1  0
 11 25  1  0
 25 26  2  0
 26  2  1  0
 25  5  1  0
 24 18  1  0
  1 27  1  0
  1 28  1  0
  1 29  1  0
  3 30  1  0
  4 31  1  0
  6 32  1  0
  9 33  1  0
 15 34  1  0
 15 35  1  0
 19 36  1  0
 19 37  1  0
 20 38  1  0
 20 39  1  0
 21 40  1  0
 24 41  1  0
 24 42  1  0
 26 43  1  0
M  CHG  1   9  -1
M  END
>  <UniqueID>  (68) 
68

>  <SMILES>  (68) 
Cc1ccc2cc(C([NH-])=O)n(C(=O)OCC(=O)N3CCNC(=O)C3)c2c1

>  <Energy>  (68) 
80.65731750381417

>  <Genealogy>  (68) 
Cc1ccc2cc(C([NH-])=O)n(C(=O)OCC(=O)N3CCNC(=O)C3)c2c1 (protonated)
Cc1ccc2cc(C([NH-])=O)n(C(=O)OCC(=O)N3CCNC(=O)C3)c2c1 (3D coordinates assigned)
Cc1ccc2cc(C([NH-])=O)n(C(=O)OCC(=O)N3CCNC(=O)C3)c2c1 (nonaromatic ring conformer: 80.65731750381417 kcal/mol)

>  <smiles>  (68) 
Cc1ccc2cc(C(N)=O)n(C(=O)OCC(=O)N3CCNC(=O)C3)c2c1

>  <score_type>  (68) 
oracle

>  <origin>  (68) 
adg

>  <m_score__min__energy>  (68) 
-11.33

>  <m_primary>  (68) 
energy

$$$$
69:0
     RDKit          3D

 36 37  0  0  0  0  0  0  0  0999 V2000
   -1.4970   22.6630  -27.7650 C   0  0  0  0  0  0  0  0  0  0  0  0
   -2.2790   23.8610  -28.3150 C   0  0  1  0  0  0  0  0  0  0  0  0
   -1.6850   25.2070  -27.8640 C   0  0  0  0  0  0  0  0  0  0  0  0
   -1.4920   26.0540  -28.9650 O   0  0  0  0  0  0  0  0  0  0  0  0
   -2.3730   23.7940  -29.7740 N   0  0  0  0  0  0  0  0  0  0  0  0
   -3.5140   24.1470  -30.5680 C   0  0  0  0  0  0  0  0  0  0  0  0
   -3.8900   25.3470  -30.6300 O   0  0  0  0  0  0  0  0  0  0  0  0
   -4.2480   23.1220  -31.2670 N   0  0  0  0  0  0  0  0  0  0  0  0
   -5.5900   22.8840  -31.2120 C   0  0  0  0  0  0  0  0  0  0  0  0
   -6.5840   23.7100  -30.5070 C   0  0  0  0  0  0  0  0  0  0  0  0
   -6.2070   24.4990  -29.3780 N   0  0  0  0  0  0  0  0  0  0  0  0
   -7.7620   23.7750  -30.9470 O   0  0  0  0  0  0  0  0  0  0  0  0
   -5.9130   21.7010  -31.8660 C   0  0  0  0  0  0  0  0  0  0  0  0
   -4.7210   21.2220  -32.3560 C   0  0  0  0  0  0  0  0  0  0  0  0
   -4.4590   20.0800  -33.1070 C   0  0  0  0  0  0  0  0  0  0  0  0
   -3.1320   19.8370  -33.4960 C   0  0  0  0  0  0  0  0  0  0  0  0
   -2.0980   20.7360  -33.1360 C   0  0  0  0  0  0  0  0  0  0  0  0
   -0.6840   20.4860  -33.5750 C   0  0  0  0  0  0  0  0  0  0  0  0
    0.1840   20.7520  -32.5320 F   0  0  0  0  0  0  0  0  0  0  0  0
   -0.3780   21.3070  -34.6450 F   0  0  0  0  0  0  0  0  0  0  0  0
   -2.4020   21.8870  -32.3750 C   0  0  0  0  0  0  0  0  0  0  0  0
   -3.7310   22.0970  -31.9840 C   0  0  0  0  0  0  0  0  0  0  0  0
   -1.5133   22.6880  -26.6654 H   0  0  0  0  0  0  0  0  0  0  0  0
   -1.9603   21.7297  -28.1174 H   0  0  0  0  0  0  0  0  0  0  0  0
   -0.4561   22.7115  -28.1174 H   0  0  0  0  0  0  0  0  0  0  0  0
   -3.2937   23.8033  -27.8943 H   0  0  0  0  0  0  0  0  0  0  0  0
   -2.3750   25.6874  -27.1547 H   0  0  0  0  0  0  0  0  0  0  0  0
   -0.7130   25.0228  -27.3830 H   0  0  0  0  0  0  0  0  0  0  0  0
   -2.0000   25.6620  -29.7230 H   0  0  0  0  0  0  0  0  0  0  0  0
   -6.9220   25.0670  -28.8720 H   0  0  0  0  0  0  0  0  0  0  0  0
   -5.2070   24.5690  -29.0860 H   0  0  0  0  0  0  0  0  0  0  0  0
   -6.9089   21.2455  -31.9694 H   0  0  0  0  0  0  0  0  0  0  0  0
   -5.2672   19.3885  -33.3874 H   0  0  0  0  0  0  0  0  0  0  0  0
   -2.8929   18.9399  -34.0860 H   0  0  0  0  0  0  0  0  0  0  0  0
   -0.5815   19.4332  -33.8767 H   0  0  0  0  0  0  0  0  0  0  0  0
   -1.6137   22.6016  -32.0960 H   0  0  0  0  0  0  0  0  0  0  0  0
  1  2  1  0
  2  3  1  0
  3  4  1  0
  2  5  1  0
  5  6  1  0
  6  7  2  0
  6  8  1  0
  8  9  1  0
  9 10  1  0
 10 11  1  0
 10 12  2  0
  9 13  2  0
 13 14  1  0
 14 15  2  0
 15 16  1  0
 16 17  2  0
 17 18  1  0
 18 19  1  0
 18 20  1  0
 17 21  1  0
 21 22  2  0
 22  8  1  0
 22 14  1  0
  1 23  1  0
  1 24  1  0
  1 25  1  0
  2 26  1  1
  3 27  1  0
  3 28  1  0
  4 29  1  0
 11 30  1  0
 11 31  1  0
 13 32  1  0
 15 33  1  0
 16 34  1  0
 18 35  1  0
 21 36  1  0
M  CHG  1   5  -1
M  END
>  <UniqueID>  (69) 
69

>  <SMILES>  (69) 
C[C@@H](CO)[N-]C(=O)n1c(C(N)=O)cc2ccc(C(F)F)cc21

>  <Energy>  (69) 
74.3295553271056

>  <Genealogy>  (69) 
CC(CO)[N-]C(=O)n1c(C(N)=O)cc2ccc(C(F)F)cc21 (protonated)
C[C@@H](CO)[N-]C(=O)n1c(C(N)=O)cc2ccc(C(F)F)cc21 (chirality)
C[C@@H](CO)[N-]C(=O)n1c(C(N)=O)cc2ccc(C(F)F)cc21 (3D coordinates assigned)
C[C@@H](CO)[N-]C(=O)n1c(C(N)=O)cc2ccc(C(F)F)cc21 (optimized conformer: 74.3295553271056 kcal/mol)

>  <smiles>  (69) 
CC(CO)NC(=O)n1c(C(N)=O)cc2ccc(C(F)F)cc21

>  <score_type>  (69) 
oracle

>  <origin>  (69) 
adg

>  <m_score__min__energy>  (69) 
-9.3000000000000007

>  <m_primary>  (69) 
energy

$$$$
70:0
     RDKit          3D

 44 45  0  0  0  0  0  0  0  0999 V2000
   -6.8090   16.1240  -33.8760 C   0  0  0  0  0  0  0  0  0  0  0  0
   -5.9940   17.3320  -33.7010 N   0  0  0  0  0  0  0  0  0  0  0  0
   -4.6270   17.3510  -34.2370 C   0  0  0  0  0  0  0  0  0  0  0  0
   -6.5330   18.4930  -33.0150 C   0  0  0  0  0  0  0  0  0  0  0  0
   -7.8630   18.4840  -32.5010 C   0  0  0  0  0  0  0  0  0  0  0  0
   -8.3900   19.5980  -31.8280 C   0  0  0  0  0  0  0  0  0  0  0  0
   -7.5780   20.7160  -31.6810 C   0  0  0  0  0  0  0  0  0  0  0  0
   -7.8270   21.9220  -31.0620 C   0  0  0  0  0  0  0  0  0  0  0  0
   -6.6540   22.6650  -31.2150 C   0  0  0  0  0  0  0  0  0  0  0  0
   -6.4700   24.0590  -30.7470 C   0  0  0  0  0  0  0  0  0  0  0  0
   -6.4830   24.3780  -29.3540 N   0  0  0  0  0  0  0  0  0  0  0  0
   -6.3050   24.9880  -31.5830 O   0  0  0  0  0  0  0  0  0  0  0  0
   -5.7260   21.9390  -31.8950 N   0  0  0  0  0  0  0  0  0  0  0  0
   -4.3950   22.3330  -32.2600 C   0  0  0  0  0  0  0  0  0  0  0  0
   -4.1440   22.5960  -33.4680 O   0  0  0  0  0  0  0  0  0  0  0  0
   -3.3480   22.4110  -31.2700 N   0  0  0  0  0  0  0  0  0  0  0  0
   -2.0500   21.7700  -31.5290 C   0  0  0  0  0  0  0  0  0  0  0  0
   -2.1750   20.6950  -32.6090 C   0  0  0  0  0  0  0  0  0  0  0  0
   -1.6490   21.1680  -33.8180 O   0  0  0  0  0  0  0  0  0  0  0  0
   -3.5830   23.0910  -29.9870 C   0  0  0  0  0  0  0  0  0  0  0  0
   -3.2070   24.5400  -30.0710 C   0  0  0  0  0  0  0  0  0  0  0  0
   -3.8320   25.3110  -30.8460 O   0  0  0  0  0  0  0  0  0  0  0  0
   -2.1490   25.0360  -29.3200 O   0  0  0  0  0  0  0  0  0  0  0  0
   -6.3060   20.7550  -32.1780 C   0  0  0  0  0  0  0  0  0  0  0  0
   -5.7470   19.6610  -32.8430 C   0  0  0  0  0  0  0  0  0  0  0  0
   -7.0818   15.7197  -32.8900 H   0  0  0  0  0  0  0  0  0  0  0  0
   -7.7226   16.3758  -34.4346 H   0  0  0  0  0  0  0  0  0  0  0  0
   -6.2335   15.3711  -34.4346 H   0  0  0  0  0  0  0  0  0  0  0  0
   -3.9072   17.3610  -33.4053 H   0  0  0  0  0  0  0  0  0  0  0  0
   -4.4624   16.4551  -34.8536 H   0  0  0  0  0  0  0  0  0  0  0  0
   -4.4874   18.2512  -34.8536 H   0  0  0  0  0  0  0  0  0  0  0  0
   -8.4874   17.5882  -32.6341 H   0  0  0  0  0  0  0  0  0  0  0  0
   -9.4150   19.5860  -31.4291 H   0  0  0  0  0  0  0  0  0  0  0  0
   -8.7524   22.2332  -30.5553 H   0  0  0  0  0  0  0  0  0  0  0  0
   -6.3730   25.3700  -29.0450 H   0  0  0  0  0  0  0  0  0  0  0  0
   -6.5380   23.6380  -28.6220 H   0  0  0  0  0  0  0  0  0  0  0  0
   -1.3321   22.5336  -31.8630 H   0  0  0  0  0  0  0  0  0  0  0  0
   -1.7027   21.2944  -30.5999 H   0  0  0  0  0  0  0  0  0  0  0  0
   -1.6202   19.7981  -32.2963 H   0  0  0  0  0  0  0  0  0  0  0  0
   -3.2372   20.4460  -32.7498 H   0  0  0  0  0  0  0  0  0  0  0  0
   -2.3900   21.6470  -34.2710 H   0  0  0  0  0  0  0  0  0  0  0  0
   -4.6487   23.0103  -29.7268 H   0  0  0  0  0  0  0  0  0  0  0  0
   -2.9613   22.6113  -29.2167 H   0  0  0  0  0  0  0  0  0  0  0  0
   -4.7167   19.7046  -33.2260 H   0  0  0  0  0  0  0  0  0  0  0  0
  1  2  1  0
  2  3  1  0
  2  4  1  0
  4  5  2  0
  5  6  1  0
  6  7  2  0
  7  8  1  0
  8  9  2  0
  9 10  1  0
 10 11  1  0
 10 12  2  0
  9 13  1  0
 13 14  1  0
 14 15  2  0
 14 16  1  0
 16 17  1  0
 17 18  1  0
 18 19  1  0
 16 20  1  0
 20 21  1  0
 21 22  2  0
 21 23  1  0
 13 24  1  0
 24 25  2  0
 25  4  1  0
 24  7  1  0
  1 26  1  0
  1 27  1  0
  1 28  1  0
  3 29  1  0
  3 30  1  0
  3 31  1  0
  5 32  1  0
  6 33  1  0
  8 34  1  0
 11 35  1  0
 11 36  1  0
 17 37  1  0
 17 38  1  0
 18 39  1  0
 18 40  1  0
 19 41  1  0
 20 42  1  0
 20 43  1  0
 25 44  1  0
M  CHG  1  23  -1
M  END
>  <UniqueID>  (70) 
70

>  <SMILES>  (70) 
CN(C)c1ccc2cc(C(N)=O)n(C(=O)N(CCO)CC(=O)[O-])c2c1

>  <Energy>  (70) 
79.15363744753606

>  <Genealogy>  (70) 
CN(C)c1ccc2cc(C(N)=O)n(C(=O)N(CCO)CC(=O)[O-])c2c1 (protonated)
CN(C)c1ccc2cc(C(N)=O)n(C(=O)N(CCO)CC(=O)[O-])c2c1 (3D coordinates assigned)
CN(C)c1ccc2cc(C(N)=O)n(C(=O)N(CCO)CC(=O)[O-])c2c1 (optimized conformer: 79.15363744753606 kcal/mol)

>  <smiles>  (70) 
CN(C)c1ccc2cc(C(N)=O)n(C(=O)N(CCO)CC(=O)O)c2c1

>  <score_type>  (70) 
oracle

>  <origin>  (70) 
adg

>  <m_score__min__energy>  (70) 
-10.6

>  <m_primary>  (70) 
energy

$$$$
71:0
     RDKit          3D

 41 42  0  0  0  0  0  0  0  0999 V2000
   -4.1110   25.4470  -30.4740 N   0  0  0  0  0  0  0  0  0  0  0  0
   -5.4490   25.0110  -30.2490 C   0  0  0  0  0  0  0  0  0  0  0  0
   -6.2250   25.7250  -29.5600 O   0  0  0  0  0  0  0  0  0  0  0  0
   -5.8980   23.7090  -30.7790 C   0  0  0  0  0  0  0  0  0  0  0  0
   -7.2130   23.4530  -31.1650 C   0  0  0  0  0  0  0  0  0  0  0  0
   -7.1930   22.1900  -31.7100 C   0  0  0  0  0  0  0  0  0  0  0  0
   -8.2300   21.4280  -32.2400 C   0  0  0  0  0  0  0  0  0  0  0  0
   -7.9260   20.1390  -32.7090 C   0  0  0  0  0  0  0  0  0  0  0  0
   -6.5980   19.6400  -32.6540 C   0  0  0  0  0  0  0  0  0  0  0  0
   -6.2970   18.2320  -33.1010 C   0  0  0  0  0  0  0  0  0  0  0  0
   -7.4130   17.4420  -32.8980 F   0  0  0  0  0  0  0  0  0  0  0  0
   -5.9650   18.2070  -34.4440 F   0  0  0  0  0  0  0  0  0  0  0  0
   -5.2360   17.7080  -32.3830 F   0  0  0  0  0  0  0  0  0  0  0  0
   -5.5780   20.4390  -32.0880 C   0  0  0  0  0  0  0  0  0  0  0  0
   -5.9080   21.7240  -31.6400 C   0  0  0  0  0  0  0  0  0  0  0  0
   -5.1010   22.6390  -31.0590 N   0  0  0  0  0  0  0  0  0  0  0  0
   -3.7050   22.4570  -30.7500 C   0  0  0  0  0  0  0  0  0  0  0  0
   -3.0470   21.5820  -31.3800 O   0  0  0  0  0  0  0  0  0  0  0  0
   -3.0870   23.1800  -29.6550 N   0  0  0  0  0  0  0  0  0  0  0  0
   -1.6080   23.1600  -29.8040 C   0  0  0  0  0  0  0  0  0  0  0  0
   -0.9330   24.3330  -29.0730 C   0  0  0  0  0  0  0  0  0  0  0  0
   -1.8120   25.4210  -28.9900 O   0  0  0  0  0  0  0  0  0  0  0  0
   -3.4950   22.5770  -28.3600 C   0  0  0  0  0  0  0  0  0  0  0  0
   -4.2380   23.5660  -27.4490 C   0  0  0  0  0  0  0  0  0  0  0  0
   -3.7880   24.8720  -27.6800 O   0  0  0  0  0  0  0  0  0  0  0  0
   -3.4800   25.6730  -29.6750 H   0  0  0  0  0  0  0  0  0  0  0  0
   -8.0817   24.1191  -31.0568 H   0  0  0  0  0  0  0  0  0  0  0  0
   -9.2556   21.8226  -32.2901 H   0  0  0  0  0  0  0  0  0  0  0  0
   -8.7265   19.5088  -33.1238 H   0  0  0  0  0  0  0  0  0  0  0  0
   -4.5490   20.0599  -32.0016 H   0  0  0  0  0  0  0  0  0  0  0  0
   -3.4140   24.1730  -29.6840 H   0  0  0  0  0  0  0  0  0  0  0  0
   -1.2232   22.2164  -29.3899 H   0  0  0  0  0  0  0  0  0  0  0  0
   -1.3759   23.2521  -30.8753 H   0  0  0  0  0  0  0  0  0  0  0  0
   -0.6513   24.0151  -28.0583 H   0  0  0  0  0  0  0  0  0  0  0  0
   -0.0367   24.6374  -29.6333 H   0  0  0  0  0  0  0  0  0  0  0  0
   -2.0390   25.6730  -29.9230 H   0  0  0  0  0  0  0  0  0  0  0  0
   -4.1565   21.7221  -28.5636 H   0  0  0  0  0  0  0  0  0  0  0  0
   -2.5785   22.2689  -27.8355 H   0  0  0  0  0  0  0  0  0  0  0  0
   -5.3166   23.5116  -27.6578 H   0  0  0  0  0  0  0  0  0  0  0  0
   -4.0435   23.3010  -26.3993 H   0  0  0  0  0  0  0  0  0  0  0  0
   -4.4110   25.2640  -28.3470 H   0  0  0  0  0  0  0  0  0  0  0  0
  1  2  1  0
  2  3  2  0
  2  4  1  0
  4  5  2  0
  5  6  1  0
  6  7  2  0
  7  8  1  0
  8  9  2  0
  9 10  1  0
 10 11  1  0
 10 12  1  0
 10 13  1  0
  9 14  1  0
 14 15  2  0
 15 16  1  0
 16 17  1  0
 17 18  2  0
 17 19  1  0
 19 20  1  0
 20 21  1  0
 21 22  1  0
 19 23  1  0
 23 24  1  0
 24 25  1  0
 16  4  1  0
 15  6  1  0
  1 26  1  0
  5 27  1  0
  7 28  1  0
  8 29  1  0
 14 30  1  0
 19 31  1  0
 20 32  1  0
 20 33  1  0
 21 34  1  0
 21 35  1  0
 22 36  1  0
 23 37  1  0
 23 38  1  0
 24 39  1  0
 24 40  1  0
 25 41  1  0
M  CHG  2   1  -1  19   1
M  END
>  <UniqueID>  (71) 
71

>  <SMILES>  (71) 
[NH-]C(=O)c1cc2ccc(C(F)(F)F)cc2n1C(=O)[NH+](CCO)CCO

>  <Energy>  (71) 
81.34534792682875

>  <Genealogy>  (71) 
[NH-]C(=O)c1cc2ccc(C(F)(F)F)cc2n1C(=O)[NH+](CCO)CCO (protonated)
[NH-]C(=O)c1cc2ccc(C(F)(F)F)cc2n1C(=O)[NH+](CCO)CCO (3D coordinates assigned)
[NH-]C(=O)c1cc2ccc(C(F)(F)F)cc2n1C(=O)[NH+](CCO)CCO (optimized conformer: 81.34534792682875 kcal/mol)

>  <smiles>  (71) 
NC(=O)c1cc2ccc(C(F)(F)F)cc2n1C(=O)N(CCO)CCO

>  <score_type>  (71) 
oracle

>  <origin>  (71) 
adg

>  <m_score__min__energy>  (71) 
-8.4700000000000006

>  <m_primary>  (71) 
energy

$$$$
72:0
     RDKit          3D

 42 44  0  0  0  0  0  0  0  0999 V2000
   -5.7390   18.2270  -34.8660 C   0  0  0  0  0  0  0  0  0  0  0  0
   -6.4840   18.3380  -33.6050 N   0  0  0  0  0  0  0  0  0  0  0  0
   -7.0590   17.1220  -33.0130 C   0  0  0  0  0  0  0  0  0  0  0  0
   -6.6510   19.6260  -32.9560 C   0  0  0  0  0  0  0  0  0  0  0  0
   -7.9460   20.1930  -32.7860 C   0  0  0  0  0  0  0  0  0  0  0  0
   -8.1180   21.4420  -32.1640 C   0  0  0  0  0  0  0  0  0  0  0  0
   -6.9840   22.1070  -31.7140 C   0  0  0  0  0  0  0  0  0  0  0  0
   -6.8600   23.3300  -31.0910 C   0  0  0  0  0  0  0  0  0  0  0  0
   -5.4920   23.4940  -30.8740 C   0  0  0  0  0  0  0  0  0  0  0  0
   -4.9030   24.6440  -30.1610 C   0  0  0  0  0  0  0  0  0  0  0  0
   -3.9100   25.4440  -30.7990 N   0  0  0  0  0  0  0  0  0  0  0  0
   -5.2870   24.9440  -29.0010 O   0  0  0  0  0  0  0  0  0  0  0  0
   -4.8050   22.4200  -31.3500 N   0  0  0  0  0  0  0  0  0  0  0  0
   -3.3840   22.2220  -31.3790 C   0  0  0  0  0  0  0  0  0  0  0  0
   -2.6190   23.2060  -31.1870 O   0  0  0  0  0  0  0  0  0  0  0  0
   -2.8220   20.8320  -31.4730 C   0  0  0  0  0  0  0  0  0  0  0  0
   -1.6690   20.7890  -32.3710 N   0  0  0  0  0  0  0  0  0  0  0  0
   -1.5220   21.5010  -33.5060 C   0  0  0  0  0  0  0  0  0  0  0  0
   -0.3170   21.1420  -34.0810 C   0  0  0  0  0  0  0  0  0  0  0  0
    0.2610   21.6550  -35.3280 C   0  0  0  0  0  0  0  0  0  0  0  0
    0.8470   22.7690  -35.3450 O   0  0  0  0  0  0  0  0  0  0  0  0
    0.1660   20.9120  -36.4980 O   0  0  0  0  0  0  0  0  0  0  0  0
    0.2280   20.1900  -33.2390 C   0  0  0  0  0  0  0  0  0  0  0  0
   -0.6200   19.9970  -32.2120 N   0  0  0  0  0  0  0  0  0  0  0  0
   -5.7300   21.5800  -31.8560 C   0  0  0  0  0  0  0  0  0  0  0  0
   -5.5240   20.3470  -32.4780 C   0  0  0  0  0  0  0  0  0  0  0  0
   -4.6724   18.0681  -34.6490 H   0  0  0  0  0  0  0  0  0  0  0  0
   -6.1257   17.3766  -35.4467 H   0  0  0  0  0  0  0  0  0  0  0  0
   -5.8610   19.1532  -35.4467 H   0  0  0  0  0  0  0  0  0  0  0  0
   -7.0239   17.1963  -31.9161 H   0  0  0  0  0  0  0  0  0  0  0  0
   -8.1037   17.0137  -33.3399 H   0  0  0  0  0  0  0  0  0  0  0  0
   -6.4798   16.2458  -33.3399 H   0  0  0  0  0  0  0  0  0  0  0  0
   -8.8278   19.6439  -33.1479 H   0  0  0  0  0  0  0  0  0  0  0  0
   -9.1194   21.8793  -32.0375 H   0  0  0  0  0  0  0  0  0  0  0  0
   -7.6671   24.0275  -30.8224 H   0  0  0  0  0  0  0  0  0  0  0  0
   -2.8950   25.2970  -30.6000 H   0  0  0  0  0  0  0  0  0  0  0  0
   -2.5093   20.5026  -30.4711 H   0  0  0  0  0  0  0  0  0  0  0  0
   -3.6012   20.1669  -31.8735 H   0  0  0  0  0  0  0  0  0  0  0  0
   -2.2350   22.2378  -33.9045 H   0  0  0  0  0  0  0  0  0  0  0  0
    1.1906   19.6778  -33.3840 H   0  0  0  0  0  0  0  0  0  0  0  0
   -0.4810   19.3380  -31.4140 H   0  0  0  0  0  0  0  0  0  0  0  0
   -4.5083   19.9415  -32.5957 H   0  0  0  0  0  0  0  0  0  0  0  0
  1  2  1  0
  2  3  1  0
  2  4  1  0
  4  5  2  0
  5  6  1  0
  6  7  2  0
  7  8  1  0
  8  9  2  0
  9 10  1  0
 10 11  1  0
 10 12  2  0
  9 13  1  0
 13 14  1  0
 14 15  2  0
 14 16  1  0
 16 17  1  0
 17 18  1  0
 18 19  2  0
 19 20  1  0
 20 21  2  0
 20 22  1  0
 19 23  1  0
 23 24  2  0
 13 25  1  0
 25 26  2  0
 26  4  1  0
 25  7  1  0
 24 17  1  0
  1 27  1  0
  1 28  1  0
  1 29  1  0
  3 30  1  0
  3 31  1  0
  3 32  1  0
  5 33  1  0
  6 34  1  0
  8 35  1  0
 11 36  1  0
 16 37  1  0
 16 38  1  0
 18 39  1  0
 23 40  1  0
 24 41  1  0
 26 42  1  0
M  CHG  3  11  -1  22  -1  24   1
M  END
>  <UniqueID>  (72) 
72

>  <SMILES>  (72) 
CN(C)c1ccc2cc(C([NH-])=O)n(C(=O)Cn3cc(C(=O)[O-])c[nH+]3)c2c1

>  <Energy>  (72) 
114.33348085924457

>  <Genealogy>  (72) 
CN(C)c1ccc2cc(C([NH-])=O)n(C(=O)Cn3cc(C(=O)[O-])c[nH+]3)c2c1 (protonated)
CN(C)c1ccc2cc(C([NH-])=O)n(C(=O)Cn3cc(C(=O)[O-])c[nH+]3)c2c1 (3D coordinates assigned)
CN(C)c1ccc2cc(C([NH-])=O)n(C(=O)Cn3cc(C(=O)[O-])c[nH+]3)c2c1 (optimized conformer: 114.33348085924457 kcal/mol)

>  <smiles>  (72) 
CN(C)c1ccc2cc(C(N)=O)n(C(=O)Cn3cc(C(=O)O)cn3)c2c1

>  <score_type>  (72) 
oracle

>  <origin>  (72) 
adg

>  <m_score__min__energy>  (72) 
-11.18

>  <m_primary>  (72) 
energy

$$$$
73:0
     RDKit          3D

 42 43  0  0  0  0  0  0  0  0999 V2000
   -3.4300   18.0500  -34.6050 N   0  0  0  0  0  0  0  0  0  0  0  0
   -4.8040   17.9960  -34.2200 C   0  0  0  0  0  0  0  0  0  0  0  0
   -5.4980   16.9980  -34.5510 O   0  0  0  0  0  0  0  0  0  0  0  0
   -5.4140   19.0610  -33.3970 C   0  0  0  0  0  0  0  0  0  0  0  0
   -6.7570   19.0710  -33.0290 C   0  0  0  0  0  0  0  0  0  0  0  0
   -6.9000   20.1690  -32.2100 C   0  0  0  0  0  0  0  0  0  0  0  0
   -8.0310   20.6670  -31.5700 C   0  0  0  0  0  0  0  0  0  0  0  0
   -7.8940   21.8420  -30.8120 C   0  0  0  0  0  0  0  0  0  0  0  0
   -6.6390   22.4950  -30.7100 C   0  0  0  0  0  0  0  0  0  0  0  0
   -6.4980   23.7520  -29.8900 C   0  0  0  0  0  0  0  0  0  0  0  0
   -5.1350   23.8430  -29.1930 C   0  0  0  0  0  0  0  0  0  0  0  0
   -3.8570   24.5860  -30.2630 P   0  0  0  0  0  0  0  0  0  0  0  0
   -4.4750   25.6420  -31.1510 O   0  0  0  0  0  0  0  0  0  0  0  0
   -2.6720   25.3040  -29.2920 O   0  0  0  0  0  0  0  0  0  0  0  0
   -3.1430   23.3910  -31.2220 O   0  0  0  0  0  0  0  0  0  0  0  0
   -5.5130   21.9560  -31.3720 C   0  0  0  0  0  0  0  0  0  0  0  0
   -5.6780   20.7800  -32.1100 C   0  0  0  0  0  0  0  0  0  0  0  0
   -4.7560   20.1190  -32.8430 N   0  0  0  0  0  0  0  0  0  0  0  0
   -3.4040   20.5460  -33.0760 C   0  0  0  0  0  0  0  0  0  0  0  0
   -2.9820   20.6610  -34.2580 O   0  0  0  0  0  0  0  0  0  0  0  0
   -2.4560   20.7580  -31.9340 C   0  0  0  0  0  0  0  0  0  0  0  0
   -0.7830   20.9010  -32.5330 S   0  0  0  0  0  0  0  0  0  0  0  0
   -0.7090   21.8630  -33.9110 O   0  0  0  0  0  0  0  0  0  0  0  0
   -0.0400   19.3090  -32.8280 C   0  0  0  0  0  0  0  0  0  0  0  0
   -0.6940   18.6590  -34.0000 C   0  0  0  0  0  0  0  0  0  0  0  0
   -1.0500   17.4530  -33.9390 O   0  0  0  0  0  0  0  0  0  0  0  0
   -0.8700   19.3700  -35.1810 O   0  0  0  0  0  0  0  0  0  0  0  0
   -3.0320   17.3130  -35.2260 H   0  0  0  0  0  0  0  0  0  0  0  0
   -2.7850   18.7700  -34.2110 H   0  0  0  0  0  0  0  0  0  0  0  0
   -7.5367   18.3552  -33.3284 H   0  0  0  0  0  0  0  0  0  0  0  0
   -9.0018   20.1567  -31.6549 H   0  0  0  0  0  0  0  0  0  0  0  0
   -8.7689   22.2598  -30.2924 H   0  0  0  0  0  0  0  0  0  0  0  0
   -6.6149   24.6218  -30.5532 H   0  0  0  0  0  0  0  0  0  0  0  0
   -7.2738   23.7338  -29.1104 H   0  0  0  0  0  0  0  0  0  0  0  0
   -5.2410   24.4597  -28.2883 H   0  0  0  0  0  0  0  0  0  0  0  0
   -4.8143   22.8199  -28.9471 H   0  0  0  0  0  0  0  0  0  0  0  0
   -4.5317   22.4490  -31.3084 H   0  0  0  0  0  0  0  0  0  0  0  0
   -2.7304   21.6807  -31.4017 H   0  0  0  0  0  0  0  0  0  0  0  0
   -2.5188   19.8960  -31.2536 H   0  0  0  0  0  0  0  0  0  0  0  0
   -1.2930   21.4130  -34.5700 H   0  0  0  0  0  0  0  0  0  0  0  0
    1.0329   19.4385  -33.0332 H   0  0  0  0  0  0  0  0  0  0  0  0
   -0.1719   18.6748  -31.9389 H   0  0  0  0  0  0  0  0  0  0  0  0
  1  2  1  0
  2  3  2  0
  2  4  1  0
  4  5  2  0
  5  6  1  0
  6  7  2  0
  7  8  1  0
  8  9  2  0
  9 10  1  0
 10 11  1  0
 11 12  1  0
 12 13  2  0
 12 14  1  0
 12 15  1  0
  9 16  1  0
 16 17  2  0
 17 18  1  0
 18 19  1  0
 19 20  2  0
 19 21  1  0
 21 22  1  0
 22 23  1  6
 22 24  1  0
 24 25  1  0
 25 26  2  0
 25 27  1  0
 18  4  1  0
 17  6  1  0
  1 28  1  0
  1 29  1  0
  5 30  1  0
  7 31  1  0
  8 32  1  0
 10 33  1  0
 10 34  1  0
 11 35  1  0
 11 36  1  0
 16 37  1  0
 21 38  1  0
 21 39  1  0
 23 40  1  0
 24 41  1  0
 24 42  1  0
M  CHG  4  14  -1  15  -1  22   1  27  -1
M  END
>  <UniqueID>  (73) 
73

>  <SMILES>  (73) 
NC(=O)c1cc2ccc(CCP(=O)([O-])[O-])cc2n1C(=O)C[S@+](O)CC(=O)[O-]

>  <Energy>  (73) 
65.8781765136116

>  <Genealogy>  (73) 
NC(=O)c1cc2ccc(CCP(=O)([O-])[O-])cc2n1C(=O)C[S+](O)CC(=O)[O-] (protonated)
NC(=O)c1cc2ccc(CCP(=O)([O-])[O-])cc2n1C(=O)C[S@+](O)CC(=O)[O-] (chirality)
NC(=O)c1cc2ccc(CCP(=O)([O-])[O-])cc2n1C(=O)C[S@+](O)CC(=O)[O-] (3D coordinates assigned)
NC(=O)c1cc2ccc(CCP(=O)([O-])[O-])cc2n1C(=O)C[S@+](O)CC(=O)[O-] (optimized conformer: 65.8781765136116 kcal/mol)

>  <smiles>  (73) 
NC(=O)c1cc2ccc(CCP(=O)(O)O)cc2n1C(=O)C[S+]([O-])CC(=O)O

>  <score_type>  (73) 
oracle

>  <origin>  (73) 
adg

>  <m_score__min__energy>  (73) 
-11.98

>  <m_primary>  (73) 
energy

$$$$
74:0
     RDKit          3D

 50 51  0  0  0  0  0  0  0  0999 V2000
   -6.2850   17.5150  -31.5280 C   0  0  0  0  0  0  0  0  0  0  0  0
   -6.8620   17.4480  -32.9480 C   0  0  1  0  0  0  0  0  0  0  0  0
   -6.9080   18.7840  -33.5620 N   0  0  0  0  0  0  0  0  0  0  0  0
   -7.0950   20.0410  -32.8750 C   0  0  0  0  0  0  0  0  0  0  0  0
   -8.3820   20.6070  -32.6590 C   0  0  0  0  0  0  0  0  0  0  0  0
   -8.5270   21.8220  -31.9690 C   0  0  0  0  0  0  0  0  0  0  0  0
   -7.3790   22.4530  -31.5060 C   0  0  0  0  0  0  0  0  0  0  0  0
   -7.2380   23.6170  -30.7860 C   0  0  0  0  0  0  0  0  0  0  0  0
   -5.8680   23.7620  -30.5820 C   0  0  0  0  0  0  0  0  0  0  0  0
   -5.2640   24.9330  -29.9120 C   0  0  0  0  0  0  0  0  0  0  0  0
   -4.1960   25.6370  -30.5410 N   0  0  0  0  0  0  0  0  0  0  0  0
   -5.6540   25.2940  -28.7720 O   0  0  0  0  0  0  0  0  0  0  0  0
   -5.1870   22.7240  -31.1470 N   0  0  0  0  0  0  0  0  0  0  0  0
   -3.7760   22.4640  -31.0740 C   0  0  0  0  0  0  0  0  0  0  0  0
   -2.9500   23.3940  -31.2800 O   0  0  0  0  0  0  0  0  0  0  0  0
   -3.3260   21.1740  -30.7840 O   0  0  0  0  0  0  0  0  0  0  0  0
   -2.3890   20.8910  -29.7520 C   0  0  0  0  0  0  0  0  0  0  0  0
   -2.9500   21.3410  -28.4450 C   0  0  0  0  0  0  0  0  0  0  0  0
   -3.0940   20.5090  -27.5100 O   0  0  0  0  0  0  0  0  0  0  0  0
   -3.2680   22.6960  -28.2750 O   0  0  0  0  0  0  0  0  0  0  0  0
   -2.4540   23.6900  -27.6360 C   0  0  0  0  0  0  0  0  0  0  0  0
   -1.4090   23.0260  -26.7180 C   0  0  0  0  0  0  0  0  0  0  0  0
   -1.7660   24.5830  -28.6850 C   0  0  0  0  0  0  0  0  0  0  0  0
   -3.3880   24.5570  -26.7790 C   0  0  0  0  0  0  0  0  0  0  0  0
   -6.1280   21.9320  -31.7110 C   0  0  0  0  0  0  0  0  0  0  0  0
   -5.9550   20.7140  -32.3780 C   0  0  0  0  0  0  0  0  0  0  0  0
   -6.1500   16.4600  -33.8340 C   0  0  0  0  0  0  0  0  0  0  0  0
   -6.0980   15.2440  -33.5060 O   0  0  0  0  0  0  0  0  0  0  0  0
   -5.4880   16.8820  -34.9810 O   0  0  0  0  0  0  0  0  0  0  0  0
   -7.1006   17.4203  -30.7960 H   0  0  0  0  0  0  0  0  0  0  0  0
   -5.5668   16.6942  -31.3850 H   0  0  0  0  0  0  0  0  0  0  0  0
   -5.7740   18.4785  -31.3850 H   0  0  0  0  0  0  0  0  0  0  0  0
   -7.8920   17.0753  -32.8470 H   0  0  0  0  0  0  0  0  0  0  0  0
   -6.8630   18.8090  -34.6060 H   0  0  0  0  0  0  0  0  0  0  0  0
   -9.2746   20.0869  -33.0369 H   0  0  0  0  0  0  0  0  0  0  0  0
   -9.5212   22.2614  -31.8001 H   0  0  0  0  0  0  0  0  0  0  0  0
   -8.0378   24.2903  -30.4440 H   0  0  0  0  0  0  0  0  0  0  0  0
   -3.2130   25.2930  -30.4710 H   0  0  0  0  0  0  0  0  0  0  0  0
   -2.1959   19.8087  -29.7167 H   0  0  0  0  0  0  0  0  0  0  0  0
   -1.4463   21.4212  -29.9524 H   0  0  0  0  0  0  0  0  0  0  0  0
   -1.6817   23.1993  -25.6665 H   0  0  0  0  0  0  0  0  0  0  0  0
   -1.3814   21.9443  -26.9162 H   0  0  0  0  0  0  0  0  0  0  0  0
   -0.4181   23.4605  -26.9162 H   0  0  0  0  0  0  0  0  0  0  0  0
   -1.1710   25.3553  -28.1756 H   0  0  0  0  0  0  0  0  0  0  0  0
   -1.1063   23.9677  -29.3144 H   0  0  0  0  0  0  0  0  0  0  0  0
   -2.5292   25.0640  -29.3144 H   0  0  0  0  0  0  0  0  0  0  0  0
   -3.1868   24.3703  -25.7138 H   0  0  0  0  0  0  0  0  0  0  0  0
   -3.2120   25.6191  -27.0047 H   0  0  0  0  0  0  0  0  0  0  0  0
   -4.4341   24.3026  -27.0047 H   0  0  0  0  0  0  0  0  0  0  0  0
   -4.9500   20.2877  -32.5133 H   0  0  0  0  0  0  0  0  0  0  0  0
  1  2  1  0
  2  3  1  0
  3  4  1  0
  4  5  2  0
  5  6  1  0
  6  7  2  0
  7  8  1  0
  8  9  2  0
  9 10  1  0
 10 11  1  0
 10 12  2  0
  9 13  1  0
 13 14  1  0
 14 15  2  0
 14 16  1  0
 16 17  1  0
 17 18  1  0
 18 19  2  0
 18 20  1  0
 20 21  1  0
 21 22  1  0
 21 23  1  0
 21 24  1  0
 13 25  1  0
 25 26  2  0
  2 27  1  0
 27 28  2  0
 27 29  1  0
 26  4  1  0
 25  7  1  0
  1 30  1  0
  1 31  1  0
  1 32  1  0
  2 33  1  1
  3 34  1  0
  5 35  1  0
  6 36  1  0
  8 37  1  0
 11 38  1  0
 17 39  1  0
 17 40  1  0
 22 41  1  0
 22 42  1  0
 22 43  1  0
 23 44  1  0
 23 45  1  0
 23 46  1  0
 24 47  1  0
 24 48  1  0
 24 49  1  0
 26 50  1  0
M  CHG  2  11  -1  29  -1
M  END
>  <UniqueID>  (74) 
74

>  <SMILES>  (74) 
C[C@@H](Nc1ccc2cc(C([NH-])=O)n(C(=O)OCC(=O)OC(C)(C)C)c2c1)C(=O)[O-]

>  <Energy>  (74) 
80.84129633949875

>  <Genealogy>  (74) 
CC(Nc1ccc2cc(C([NH-])=O)n(C(=O)OCC(=O)OC(C)(C)C)c2c1)C(=O)[O-] (protonated)
C[C@@H](Nc1ccc2cc(C([NH-])=O)n(C(=O)OCC(=O)OC(C)(C)C)c2c1)C(=O)[O-] (chirality)
C[C@@H](Nc1ccc2cc(C([NH-])=O)n(C(=O)OCC(=O)OC(C)(C)C)c2c1)C(=O)[O-] (3D coordinates assigned)
C[C@@H](Nc1ccc2cc(C([NH-])=O)n(C(=O)OCC(=O)OC(C)(C)C)c2c1)C(=O)[O-] (optimized conformer: 80.84129633949875 kcal/mol)

>  <smiles>  (74) 
CC(Nc1ccc2cc(C(N)=O)n(C(=O)OCC(=O)OC(C)(C)C)c2c1)C(=O)O

>  <score_type>  (74) 
oracle

>  <origin>  (74) 
adg

>  <m_score__min__energy>  (74) 
-10.800000000000001

>  <m_primary>  (74) 
energy

$$$$
75:0
     RDKit          3D

 42 43  0  0  0  0  0  0  0  0999 V2000
   -4.1160   25.6510  -30.8570 N   0  0  0  0  0  0  0  0  0  0  0  0
   -5.3810   25.2520  -30.3340 C   0  0  0  0  0  0  0  0  0  0  0  0
   -5.9410   25.9670  -29.4620 O   0  0  0  0  0  0  0  0  0  0  0  0
   -6.0080   23.9980  -30.7980 C   0  0  0  0  0  0  0  0  0  0  0  0
   -7.3770   23.8460  -31.0140 C   0  0  0  0  0  0  0  0  0  0  0  0
   -7.5340   22.5540  -31.4650 C   0  0  0  0  0  0  0  0  0  0  0  0
   -8.6900   21.8540  -31.7930 C   0  0  0  0  0  0  0  0  0  0  0  0
   -8.5600   20.5080  -32.1770 C   0  0  0  0  0  0  0  0  0  0  0  0
   -7.2840   19.8880  -32.2270 C   0  0  0  0  0  0  0  0  0  0  0  0
   -7.1430   18.4300  -32.5790 C   0  0  0  0  0  0  0  0  0  0  0  0
   -6.7570   18.2630  -33.8980 F   0  0  0  0  0  0  0  0  0  0  0  0
   -6.1900   17.8380  -31.7680 F   0  0  0  0  0  0  0  0  0  0  0  0
   -8.3560   17.7960  -32.3840 F   0  0  0  0  0  0  0  0  0  0  0  0
   -6.1350   20.6300  -31.8680 C   0  0  0  0  0  0  0  0  0  0  0  0
   -6.2940   21.9720  -31.5100 C   0  0  0  0  0  0  0  0  0  0  0  0
   -5.3470   22.8470  -31.1080 N   0  0  0  0  0  0  0  0  0  0  0  0
   -3.9480   22.5710  -30.9390 C   0  0  0  0  0  0  0  0  0  0  0  0
   -3.1090   23.4180  -31.3440 O   0  0  0  0  0  0  0  0  0  0  0  0
   -3.5090   21.3030  -30.3120 C   0  0  0  0  0  0  0  0  0  0  0  0
   -3.4710   20.2630  -31.0210 O   0  0  0  0  0  0  0  0  0  0  0  0
   -3.1200   21.1940  -28.9320 N   0  0  0  0  0  0  0  0  0  0  0  0
   -1.7780   20.9610  -28.4050 C   0  0  0  0  0  0  0  0  0  0  0  0
   -0.9920   22.2460  -28.3650 C   0  0  0  0  0  0  0  0  0  0  0  0
   -0.3340   22.5900  -29.3820 O   0  0  0  0  0  0  0  0  0  0  0  0
   -0.9200   23.0700  -27.1930 N   0  0  0  0  0  0  0  0  0  0  0  0
   -1.1700   24.5090  -27.1200 C   0  0  1  0  0  0  0  0  0  0  0  0
    0.1550   25.2820  -27.1010 C   0  0  0  0  0  0  0  0  0  0  0  0
    0.9480   24.8990  -28.1920 O   0  0  0  0  0  0  0  0  0  0  0  0
   -1.9880   24.9130  -28.3110 C   0  0  0  0  0  0  0  0  0  0  0  0
   -3.1990   24.5750  -28.3930 O   0  0  0  0  0  0  0  0  0  0  0  0
   -1.4210   25.6790  -29.3230 O   0  0  0  0  0  0  0  0  0  0  0  0
   -3.2270   25.3020  -30.4380 H   0  0  0  0  0  0  0  0  0  0  0  0
   -8.1644   24.5980  -30.8575 H   0  0  0  0  0  0  0  0  0  0  0  0
   -9.6765   22.3390  -31.7532 H   0  0  0  0  0  0  0  0  0  0  0  0
   -9.4569   19.9288  -32.4416 H   0  0  0  0  0  0  0  0  0  0  0  0
   -5.1394   20.1622  -31.8704 H   0  0  0  0  0  0  0  0  0  0  0  0
   -1.8557   20.5532  -27.3864 H   0  0  0  0  0  0  0  0  0  0  0  0
   -1.2583   20.2484  -29.0623 H   0  0  0  0  0  0  0  0  0  0  0  0
   -1.7152   24.7439  -26.1939 H   0  0  0  0  0  0  0  0  0  0  0  0
   -0.0515   26.3608  -27.1613 H   0  0  0  0  0  0  0  0  0  0  0  0
    0.6915   25.0571  -26.1674 H   0  0  0  0  0  0  0  0  0  0  0  0
    0.3480   24.4100  -28.8110 H   0  0  0  0  0  0  0  0  0  0  0  0
  1  2  1  0
  2  3  2  0
  2  4  1  0
  4  5  2  0
  5  6  1  0
  6  7  2  0
  7  8  1  0
  8  9  2  0
  9 10  1  0
 10 11  1  0
 10 12  1  0
 10 13  1  0
  9 14  1  0
 14 15  2  0
 15 16  1  0
 16 17  1  0
 17 18  2  0
 17 19  1  0
 19 20  2  0
 19 21  1  0
 21 22  1  0
 22 23  1  0
 23 24  2  0
 23 25  1  0
 25 26  1  0
 26 27  1  0
 27 28  1  0
 26 29  1  0
 29 30  2  0
 29 31  1  0
 16  4  1  0
 15  6  1  0
  1 32  1  0
  5 33  1  0
  7 34  1  0
  8 35  1  0
 14 36  1  0
 22 37  1  0
 22 38  1  0
 26 39  1  1
 27 40  1  0
 27 41  1  0
 28 42  1  0
M  CHG  4   1  -1  21  -1  25  -1  31  -1
M  END
>  <UniqueID>  (75) 
75

>  <SMILES>  (75) 
[NH-]C(=O)c1cc2ccc(C(F)(F)F)cc2n1C(=O)C(=O)[N-]CC(=O)[N-][C@@H](CO)C(=O)[O-]

>  <Energy>  (75) 
78.88532553330454

>  <Genealogy>  (75) 
[NH-]C(=O)c1cc2ccc(C(F)(F)F)cc2n1C(=O)C(=O)[N-]CC(=O)[N-][C@@H](CO)C(=O)[O-] (protonated)
[NH-]C(=O)c1cc2ccc(C(F)(F)F)cc2n1C(=O)C(=O)[N-]CC(=O)[N-][C@@H](CO)C(=O)[O-] (3D coordinates assigned)
[NH-]C(=O)c1cc2ccc(C(F)(F)F)cc2n1C(=O)C(=O)[N-]CC(=O)[N-][C@@H](CO)C(=O)[O-] (optimized conformer: 78.88532553330454 kcal/mol)

>  <smiles>  (75) 
NC(=O)c1cc2ccc(C(F)(F)F)cc2n1C(=O)C(=O)NCC(=O)N[C@@H](CO)C(=O)O

>  <score_type>  (75) 
oracle

>  <origin>  (75) 
adg

>  <m_score__min__energy>  (75) 
-12.44

>  <m_primary>  (75) 
energy

$$$$
76:0
     RDKit          3D

 35 36  0  0  0  0  0  0  0  0999 V2000
   -3.9170   25.6430  -30.8500 N   0  0  0  0  0  0  0  0  0  0  0  0
   -5.2480   25.3020  -30.4680 C   0  0  0  0  0  0  0  0  0  0  0  0
   -5.9050   26.1020  -29.7500 O   0  0  0  0  0  0  0  0  0  0  0  0
   -5.8560   24.0170  -30.8760 C   0  0  0  0  0  0  0  0  0  0  0  0
   -7.2320   23.8080  -30.9610 C   0  0  0  0  0  0  0  0  0  0  0  0
   -7.3800   22.4870  -31.3210 C   0  0  0  0  0  0  0  0  0  0  0  0
   -8.5350   21.7450  -31.5520 C   0  0  0  0  0  0  0  0  0  0  0  0
   -8.3870   20.4010  -31.9340 C   0  0  0  0  0  0  0  0  0  0  0  0
   -7.0970   19.8340  -32.0960 C   0  0  0  0  0  0  0  0  0  0  0  0
   -6.9510   18.3910  -32.4790 C   0  0  0  0  0  0  0  0  0  0  0  0
   -5.7370   18.2270  -34.2280 I   0  0  0  0  0  0  0  0  0  0  0  0
   -5.9500   20.6160  -31.8440 C   0  0  0  0  0  0  0  0  0  0  0  0
   -6.1280   21.9460  -31.4450 C   0  0  0  0  0  0  0  0  0  0  0  0
   -5.1830   22.8690  -31.1710 N   0  0  0  0  0  0  0  0  0  0  0  0
   -3.7630   22.6720  -31.2310 C   0  0  0  0  0  0  0  0  0  0  0  0
   -3.2170   22.3790  -32.3270 O   0  0  0  0  0  0  0  0  0  0  0  0
   -2.9140   22.8650  -30.0090 C   0  0  0  0  0  0  0  0  0  0  0  0
   -3.6440   23.5600  -29.0160 O   0  0  0  0  0  0  0  0  0  0  0  0
   -2.9260   23.5780  -27.8000 C   0  0  0  0  0  0  0  0  0  0  0  0
   -1.9270   24.7320  -27.8270 C   0  0  0  0  0  0  0  0  0  0  0  0
   -2.2540   25.6360  -28.8460 O   0  0  0  0  0  0  0  0  0  0  0  0
   -3.0960   25.2920  -30.3110 H   0  0  0  0  0  0  0  0  0  0  0  0
   -8.0302   24.5427  -30.7790 H   0  0  0  0  0  0  0  0  0  0  0  0
   -9.5317   22.1965  -31.4391 H   0  0  0  0  0  0  0  0  0  0  0  0
   -9.2798   19.7828  -32.1091 H   0  0  0  0  0  0  0  0  0  0  0  0
   -6.4779   17.8399  -31.6529 H   0  0  0  0  0  0  0  0  0  0  0  0
   -7.9450   17.9674  -32.6855 H   0  0  0  0  0  0  0  0  0  0  0  0
   -4.9417   20.1915  -31.9581 H   0  0  0  0  0  0  0  0  0  0  0  0
   -2.6109   21.8827  -29.6174 H   0  0  0  0  0  0  0  0  0  0  0  0
   -2.0229   23.4512  -30.2780 H   0  0  0  0  0  0  0  0  0  0  0  0
   -3.6248   23.7152  -26.9616 H   0  0  0  0  0  0  0  0  0  0  0  0
   -2.3895   22.6262  -27.6722 H   0  0  0  0  0  0  0  0  0  0  0  0
   -1.9491   25.2535  -26.8587 H   0  0  0  0  0  0  0  0  0  0  0  0
   -0.9210   24.3293  -28.0160 H   0  0  0  0  0  0  0  0  0  0  0  0
   -3.2410   25.6060  -28.9480 H   0  0  0  0  0  0  0  0  0  0  0  0
  1  2  1  0
  2  3  2  0
  2  4  1  0
  4  5  2  0
  5  6  1  0
  6  7  2  0
  7  8  1  0
  8  9  2  0
  9 10  1  0
 10 11  1  0
  9 12  1  0
 12 13  2  0
 13 14  1  0
 14 15  1  0
 15 16  2  0
 15 17  1  0
 17 18  1  0
 18 19  1  0
 19 20  1  0
 20 21  1  0
 14  4  1  0
 13  6  1  0
  1 22  1  0
  5 23  1  0
  7 24  1  0
  8 25  1  0
 10 26  1  0
 10 27  1  0
 12 28  1  0
 17 29  1  0
 17 30  1  0
 19 31  1  0
 19 32  1  0
 20 33  1  0
 20 34  1  0
 21 35  1  0
M  CHG  1   1  -1
M  END
>  <UniqueID>  (76) 
76

>  <SMILES>  (76) 
[NH-]C(=O)c1cc2ccc(CI)cc2n1C(=O)COCCO

>  <Energy>  (76) 
71.39499704325125

>  <Genealogy>  (76) 
[NH-]C(=O)c1cc2ccc(CI)cc2n1C(=O)COCCO (protonated)
[NH-]C(=O)c1cc2ccc(CI)cc2n1C(=O)COCCO (3D coordinates assigned)
[NH-]C(=O)c1cc2ccc(CI)cc2n1C(=O)COCCO (optimized conformer: 71.39499704325125 kcal/mol)

>  <smiles>  (76) 
NC(=O)c1cc2ccc(CI)cc2n1C(=O)COCCO

>  <score_type>  (76) 
oracle

>  <origin>  (76) 
adg

>  <m_score__min__energy>  (76) 
-11.19

>  <m_primary>  (76) 
energy

$$$$
77:0
     RDKit          3D

 43 44  0  0  0  0  0  0  0  0999 V2000
   -4.0130   25.6710  -30.8900 N   0  0  0  0  0  0  0  0  0  0  0  0
   -5.2870   25.2070  -30.4510 C   0  0  0  0  0  0  0  0  0  0  0  0
   -5.9960   25.9510  -29.7240 O   0  0  0  0  0  0  0  0  0  0  0  0
   -5.7420   23.8490  -30.8170 C   0  0  0  0  0  0  0  0  0  0  0  0
   -7.0700   23.5340  -31.0960 C   0  0  0  0  0  0  0  0  0  0  0  0
   -7.0590   22.2120  -31.4780 C   0  0  0  0  0  0  0  0  0  0  0  0
   -8.1100   21.3830  -31.8610 C   0  0  0  0  0  0  0  0  0  0  0  0
   -7.8110   20.0500  -32.1830 C   0  0  0  0  0  0  0  0  0  0  0  0
   -6.4790   19.5670  -32.1140 C   0  0  0  0  0  0  0  0  0  0  0  0
   -6.1790   18.2000  -32.4710 N   0  0  0  0  0  0  0  0  0  0  0  0
   -6.3090   17.9820  -33.9200 C   0  0  0  0  0  0  0  0  0  0  0  0
   -5.0450   17.4370  -34.5180 C   0  0  0  0  0  0  0  0  0  0  0  0
   -4.8580   17.5150  -35.7620 O   0  0  0  0  0  0  0  0  0  0  0  0
   -4.0910   16.8410  -33.6850 O   0  0  0  0  0  0  0  0  0  0  0  0
   -3.9420   15.4290  -33.5340 C   0  0  0  0  0  0  0  0  0  0  0  0
   -4.9020   14.8880  -32.4770 C   0  0  0  0  0  0  0  0  0  0  0  0
   -5.3590   15.9280  -31.6580 O   0  0  0  0  0  0  0  0  0  0  0  0
   -5.4390   20.4410  -31.7190 C   0  0  0  0  0  0  0  0  0  0  0  0
   -5.7640   21.7690  -31.4190 C   0  0  0  0  0  0  0  0  0  0  0  0
   -4.9420   22.7620  -31.0120 N   0  0  0  0  0  0  0  0  0  0  0  0
   -3.5280   22.6530  -30.7850 C   0  0  0  0  0  0  0  0  0  0  0  0
   -2.8590   21.7710  -31.3900 O   0  0  0  0  0  0  0  0  0  0  0  0
   -2.8960   23.5440  -29.9100 O   0  0  0  0  0  0  0  0  0  0  0  0
   -1.6540   23.2620  -29.2680 C   0  0  0  0  0  0  0  0  0  0  0  0
   -0.9190   24.5320  -28.9810 C   0  0  0  0  0  0  0  0  0  0  0  0
    0.2800   24.5000  -28.5980 O   0  0  0  0  0  0  0  0  0  0  0  0
   -1.5670   25.7530  -29.1110 O   0  0  0  0  0  0  0  0  0  0  0  0
   -3.1320   25.3020  -30.4690 H   0  0  0  0  0  0  0  0  0  0  0  0
   -7.9423   24.2005  -31.0258 H   0  0  0  0  0  0  0  0  0  0  0  0
   -9.1419   21.7608  -31.9097 H   0  0  0  0  0  0  0  0  0  0  0  0
   -8.6195   19.3715  -32.4927 H   0  0  0  0  0  0  0  0  0  0  0  0
   -5.1960   17.9820  -32.1870 H   0  0  0  0  0  0  0  0  0  0  0  0
   -6.8040   17.5360  -31.9550 H   0  0  0  0  0  0  0  0  0  0  0  0
   -7.1253   17.2671  -34.1005 H   0  0  0  0  0  0  0  0  0  0  0  0
   -6.5205   18.9520  -34.3937 H   0  0  0  0  0  0  0  0  0  0  0  0
   -4.1536   14.9399  -34.4963 H   0  0  0  0  0  0  0  0  0  0  0  0
   -2.9114   15.2174  -33.2129 H   0  0  0  0  0  0  0  0  0  0  0  0
   -5.7607   14.4142  -32.9751 H   0  0  0  0  0  0  0  0  0  0  0  0
   -4.3723   14.1501  -31.8565 H   0  0  0  0  0  0  0  0  0  0  0  0
   -4.6120   16.5790  -31.5970 H   0  0  0  0  0  0  0  0  0  0  0  0
   -4.4003   20.0856  -31.6493 H   0  0  0  0  0  0  0  0  0  0  0  0
   -1.8458   22.7321  -28.3233 H   0  0  0  0  0  0  0  0  0  0  0  0
   -1.0411   22.6359  -29.9331 H   0  0  0  0  0  0  0  0  0  0  0  0
  1  2  1  0
  2  3  2  0
  2  4  1  0
  4  5  2  0
  5  6  1  0
  6  7  2  0
  7  8  1  0
  8  9  2  0
  9 10  1  0
 10 11  1  0
 11 12  1  0
 12 13  2  0
 12 14  1  0
 14 15  1  0
 15 16  1  0
 16 17  1  0
  9 18  1  0
 18 19  2  0
 19 20  1  0
 20 21  1  0
 21 22  2  0
 21 23  1  0
 23 24  1  0
 24 25  1  0
 25 26  2  0
 25 27  1  0
 20  4  1  0
 19  6  1  0
  1 28  1  0
  5 29  1  0
  7 30  1  0
  8 31  1  0
 10 32  1  0
 10 33  1  0
 11 34  1  0
 11 35  1  0
 15 36  1  0
 15 37  1  0
 16 38  1  0
 16 39  1  0
 17 40  1  0
 18 41  1  0
 24 42  1  0
 24 43  1  0
M  CHG  3   1  -1  10   1  27  -1
M  END
>  <UniqueID>  (77) 
77

>  <SMILES>  (77) 
[NH-]C(=O)c1cc2ccc([NH2+]CC(=O)OCCO)cc2n1C(=O)OCC(=O)[O-]

>  <Energy>  (77) 
74.98052754268893

>  <Genealogy>  (77) 
[NH-]C(=O)c1cc2ccc([NH2+]CC(=O)OCCO)cc2n1C(=O)OCC(=O)[O-] (protonated)
[NH-]C(=O)c1cc2ccc([NH2+]CC(=O)OCCO)cc2n1C(=O)OCC(=O)[O-] (3D coordinates assigned)
[NH-]C(=O)c1cc2ccc([NH2+]CC(=O)OCCO)cc2n1C(=O)OCC(=O)[O-] (optimized conformer: 74.98052754268893 kcal/mol)

>  <smiles>  (77) 
NC(=O)c1cc2ccc(NCC(=O)OCCO)cc2n1C(=O)OCC(=O)O

>  <score_type>  (77) 
oracle

>  <origin>  (77) 
adg

>  <m_score__min__energy>  (77) 
-10.369999999999999

>  <m_primary>  (77) 
energy

$$$$
78:0
     RDKit          3D

 44 46  0  0  0  0  0  0  0  0999 V2000
   -1.6420   20.0140  -26.8170 N   0  0  0  0  0  0  0  0  0  0  0  0
   -1.5990   21.1610  -26.9560 C   0  0  0  0  0  0  0  0  0  0  0  0
   -1.5440   22.6230  -27.1320 C   0  0  0  0  0  0  0  0  0  0  0  0
   -2.4900   23.1710  -28.2370 C   0  0  0  0  0  0  0  0  0  0  0  0
   -3.6210   22.1840  -28.6050 C   0  0  0  0  0  0  0  0  0  0  0  0
   -3.5400   21.8010  -29.9770 O   0  0  0  0  0  0  0  0  0  0  0  0
   -3.9820   22.5960  -31.0400 C   0  0  0  0  0  0  0  0  0  0  0  0
   -3.1540   23.1410  -31.8190 O   0  0  0  0  0  0  0  0  0  0  0  0
   -5.3910   22.8000  -31.2350 N   0  0  0  0  0  0  0  0  0  0  0  0
   -6.1270   23.8830  -30.8590 C   0  0  0  0  0  0  0  0  0  0  0  0
   -5.5910   25.1540  -30.3320 C   0  0  0  0  0  0  0  0  0  0  0  0
   -4.2360   25.5400  -30.5700 N   0  0  0  0  0  0  0  0  0  0  0  0
   -6.3550   25.9360  -29.7070 O   0  0  0  0  0  0  0  0  0  0  0  0
   -7.4840   23.6550  -31.0780 C   0  0  0  0  0  0  0  0  0  0  0  0
   -7.5580   22.3910  -31.6130 C   0  0  0  0  0  0  0  0  0  0  0  0
   -8.6710   21.6480  -32.0000 C   0  0  0  0  0  0  0  0  0  0  0  0
   -8.4570   20.3440  -32.4780 C   0  0  0  0  0  0  0  0  0  0  0  0
   -7.1490   19.8120  -32.5480 C   0  0  0  0  0  0  0  0  0  0  0  0
   -6.9460   18.4690  -33.0230 C   0  0  0  0  0  0  0  0  0  0  0  0
   -6.7730   17.3450  -33.4210 C   0  0  0  0  0  0  0  0  0  0  0  0
   -6.5630   15.9760  -33.9050 C   0  0  0  0  0  0  0  0  0  0  0  0
   -5.3810   15.4530  -33.3640 O   0  0  0  0  0  0  0  0  0  0  0  0
   -6.0430   20.5880  -32.1460 C   0  0  0  0  0  0  0  0  0  0  0  0
   -6.2820   21.8930  -31.6950 C   0  0  0  0  0  0  0  0  0  0  0  0
   -2.9990   24.5860  -28.0050 C   0  0  0  0  0  0  0  0  0  0  0  0
   -2.3030   25.0910  -29.1190 O   0  0  0  0  0  0  0  0  0  0  0  0
   -1.7990   23.8120  -29.4310 C   0  0  0  0  0  0  0  0  0  0  0  0
   -1.8194   23.0954  -26.1775 H   0  0  0  0  0  0  0  0  0  0  0  0
   -0.5182   22.8635  -27.4482 H   0  0  0  0  0  0  0  0  0  0  0  0
   -3.5338   21.2863  -27.9753 H   0  0  0  0  0  0  0  0  0  0  0  0
   -4.5878   22.6809  -28.4367 H   0  0  0  0  0  0  0  0  0  0  0  0
   -3.8630   26.4230  -30.1550 H   0  0  0  0  0  0  0  0  0  0  0  0
   -3.6280   24.9980  -31.2220 H   0  0  0  0  0  0  0  0  0  0  0  0
   -8.3182   24.3404  -30.8676 H   0  0  0  0  0  0  0  0  0  0  0  0
   -9.6852   22.0687  -31.9335 H   0  0  0  0  0  0  0  0  0  0  0  0
   -9.3131   19.7329  -32.7999 H   0  0  0  0  0  0  0  0  0  0  0  0
   -7.4126   15.3474  -33.6001 H   0  0  0  0  0  0  0  0  0  0  0  0
   -6.4835   15.9888  -35.0020 H   0  0  0  0  0  0  0  0  0  0  0  0
   -4.7230   15.4080  -34.1060 H   0  0  0  0  0  0  0  0  0  0  0  0
   -5.0219   20.1809  -32.1852 H   0  0  0  0  0  0  0  0  0  0  0  0
   -4.0916   24.6785  -28.0921 H   0  0  0  0  0  0  0  0  0  0  0  0
   -2.8413   25.0539  -27.0220 H   0  0  0  0  0  0  0  0  0  0  0  0
   -2.1499   23.4266  -30.3997 H   0  0  0  0  0  0  0  0  0  0  0  0
   -0.7134   23.6818  -29.5516 H   0  0  0  0  0  0  0  0  0  0  0  0
  1  2  3  0
  2  3  1  0
  3  4  1  0
  4  5  1  0
  5  6  1  0
  6  7  1  0
  7  8  2  0
  7  9  1  0
  9 10  1  0
 10 11  1  0
 11 12  1  0
 11 13  2  0
 10 14  2  0
 14 15  1  0
 15 16  2  0
 16 17  1  0
 17 18  2  0
 18 19  1  0
 19 20  3  0
 20 21  1  0
 21 22  1  0
 18 23  1  0
 23 24  2  0
  4 25  1  0
 25 26  1  0
 26 27  1  0
 27  4  1  0
 24  9  1  0
 24 15  1  0
  3 28  1  0
  3 29  1  0
  5 30  1  0
  5 31  1  0
 12 32  1  0
 12 33  1  0
 14 34  1  0
 16 35  1  0
 17 36  1  0
 21 37  1  0
 21 38  1  0
 22 39  1  0
 23 40  1  0
 25 41  1  0
 25 42  1  0
 27 43  1  0
 27 44  1  0
M  END
>  <UniqueID>  (78) 
78

>  <SMILES>  (78) 
N#CCC1(COC(=O)n2c(C(N)=O)cc3ccc(C#CCO)cc32)COC1

>  <Energy>  (78) 
143.45650817616942

>  <Genealogy>  (78) 
N#CCC1(COC(=O)n2c(C(N)=O)cc3ccc(C#CCO)cc32)COC1 (3D coordinates assigned)
N#CCC1(COC(=O)n2c(C(N)=O)cc3ccc(C#CCO)cc32)COC1 (nonaromatic ring conformer: 143.45650817616942 kcal/mol)

>  <smiles>  (78) 
N#CCC1(COC(=O)n2c(C(N)=O)cc3ccc(C#CCO)cc32)COC1

>  <score_type>  (78) 
oracle

>  <origin>  (78) 
adg

>  <m_score__min__energy>  (78) 
-9.6300000000000008

>  <m_primary>  (78) 
energy

$$$$
79:0
     RDKit          3D

 49 50  0  0  0  0  0  0  0  0999 V2000
   -4.3800   18.5930  -32.6490 C   0  0  0  0  0  0  0  0  0  0  0  0
   -5.5420   19.1270  -33.3720 N   0  0  0  0  0  0  0  0  0  0  0  0
   -5.8810   18.5950  -34.6950 C   0  0  0  0  0  0  0  0  0  0  0  0
   -6.3890   20.1430  -32.7890 C   0  0  0  0  0  0  0  0  0  0  0  0
   -7.4990   20.4160  -33.3270 O   0  0  0  0  0  0  0  0  0  0  0  0
   -5.9720   20.9400  -31.5780 C   0  0  0  0  0  0  0  0  0  0  0  0
   -5.3500   22.2140  -31.9730 N   0  0  0  0  0  0  0  0  0  0  0  0
   -6.1760   23.4290  -32.0830 C   0  0  0  0  0  0  0  0  0  0  0  0
   -6.7240   23.8250  -30.7050 C   0  0  0  0  0  0  0  0  0  0  0  0
   -6.4800   25.3020  -30.3820 C   0  0  0  0  0  0  0  0  0  0  0  0
   -5.9700   25.4550  -29.0200 N   0  0  0  0  0  0  0  0  0  0  0  0
   -4.0210   22.2190  -32.5380 C   0  0  0  0  0  0  0  0  0  0  0  0
   -3.8650   22.2670  -33.7880 O   0  0  0  0  0  0  0  0  0  0  0  0
   -2.8670   22.1340  -31.6900 N   0  0  0  0  0  0  0  0  0  0  0  0
   -2.5830   22.8620  -30.5740 C   0  0  0  0  0  0  0  0  0  0  0  0
   -3.4530   23.8970  -29.9610 C   0  0  0  0  0  0  0  0  0  0  0  0
   -3.4930   25.2280  -30.4700 N   0  0  0  0  0  0  0  0  0  0  0  0
   -4.1760   23.5970  -28.9750 O   0  0  0  0  0  0  0  0  0  0  0  0
   -1.3800   22.4370  -30.0130 C   0  0  0  0  0  0  0  0  0  0  0  0
   -0.9320   21.4240  -30.8260 C   0  0  0  0  0  0  0  0  0  0  0  0
    0.2090   20.6370  -30.7350 C   0  0  0  0  0  0  0  0  0  0  0  0
    0.4030   19.6480  -31.7120 C   0  0  0  0  0  0  0  0  0  0  0  0
   -0.5250   19.4780  -32.7640 C   0  0  0  0  0  0  0  0  0  0  0  0
   -0.3170   18.4640  -33.7530 N   0  0  0  0  0  0  0  0  0  0  0  0
   -1.6690   20.3000  -32.8290 C   0  0  0  0  0  0  0  0  0  0  0  0
   -1.8480   21.2660  -31.8320 C   0  0  0  0  0  0  0  0  0  0  0  0
   -4.5538   18.6729  -31.5657 H   0  0  0  0  0  0  0  0  0  0  0  0
   -4.2331   17.5371  -32.9199 H   0  0  0  0  0  0  0  0  0  0  0  0
   -3.4830   19.1692  -32.9199 H   0  0  0  0  0  0  0  0  0  0  0  0
   -6.4689   17.6724  -34.5796 H   0  0  0  0  0  0  0  0  0  0  0  0
   -6.4717   19.3393  -35.2491 H   0  0  0  0  0  0  0  0  0  0  0  0
   -4.9568   18.3740  -35.2491 H   0  0  0  0  0  0  0  0  0  0  0  0
   -6.8591   21.1487  -30.9619 H   0  0  0  0  0  0  0  0  0  0  0  0
   -5.2364   20.3529  -31.0086 H   0  0  0  0  0  0  0  0  0  0  0  0
   -5.5619   24.2510  -32.4796 H   0  0  0  0  0  0  0  0  0  0  0  0
   -7.0194   23.2291  -32.7603 H   0  0  0  0  0  0  0  0  0  0  0  0
   -7.8071   23.6338  -30.6873 H   0  0  0  0  0  0  0  0  0  0  0  0
   -6.1963   23.2248  -29.9491 H   0  0  0  0  0  0  0  0  0  0  0  0
   -5.7447   25.7102  -31.0911 H   0  0  0  0  0  0  0  0  0  0  0  0
   -7.4330   25.8449  -30.4663 H   0  0  0  0  0  0  0  0  0  0  0  0
   -4.9360   25.6270  -29.0710 H   0  0  0  0  0  0  0  0  0  0  0  0
   -6.0840   24.5360  -28.5260 H   0  0  0  0  0  0  0  0  0  0  0  0
   -3.9260   26.0010  -29.9170 H   0  0  0  0  0  0  0  0  0  0  0  0
   -0.8917   22.8301  -29.1091 H   0  0  0  0  0  0  0  0  0  0  0  0
    0.9370   20.7841  -29.9236 H   0  0  0  0  0  0  0  0  0  0  0  0
    1.2883   18.9973  -31.6581 H   0  0  0  0  0  0  0  0  0  0  0  0
    0.0470   17.5240  -33.4850 H   0  0  0  0  0  0  0  0  0  0  0  0
   -0.5250   18.6450  -34.7560 H   0  0  0  0  0  0  0  0  0  0  0  0
   -2.4013   20.1851  -33.6417 H   0  0  0  0  0  0  0  0  0  0  0  0
  1  2  1  0
  2  3  1  0
  2  4  1  0
  4  5  2  0
  4  6  1  0
  6  7  1  0
  7  8  1  0
  8  9  1  0
  9 10  1  0
 10 11  1  0
  7 12  1  0
 12 13  2  0
 12 14  1  0
 14 15  1  0
 15 16  1  0
 16 17  1  0
 16 18  2  0
 15 19  2  0
 19 20  1  0
 20 21  2  0
 21 22  1  0
 22 23  2  0
 23 24  1  0
 23 25  1  0
 25 26  2  0
 26 14  1  0
 26 20  1  0
  1 27  1  0
  1 28  1  0
  1 29  1  0
  3 30  1  0
  3 31  1  0
  3 32  1  0
  6 33  1  0
  6 34  1  0
  8 35  1  0
  8 36  1  0
  9 37  1  0
  9 38  1  0
 10 39  1  0
 10 40  1  0
 11 41  1  0
 11 42  1  0
 17 43  1  0
 19 44  1  0
 21 45  1  0
 22 46  1  0
 24 47  1  0
 24 48  1  0
 25 49  1  0
M  CHG  1  17  -1
M  END
>  <UniqueID>  (79) 
79

>  <SMILES>  (79) 
CN(C)C(=O)CN(CCCN)C(=O)n1c(C([NH-])=O)cc2ccc(N)cc21

>  <Energy>  (79) 
79.6334245465665

>  <Genealogy>  (79) 
CN(C)C(=O)CN(CCCN)C(=O)n1c(C([NH-])=O)cc2ccc(N)cc21 (protonated)
CN(C)C(=O)CN(CCCN)C(=O)n1c(C([NH-])=O)cc2ccc(N)cc21 (3D coordinates assigned)
CN(C)C(=O)CN(CCCN)C(=O)n1c(C([NH-])=O)cc2ccc(N)cc21 (optimized conformer: 79.6334245465665 kcal/mol)

>  <smiles>  (79) 
CN(C)C(=O)CN(CCCN)C(=O)n1c(C(N)=O)cc2ccc(N)cc21

>  <score_type>  (79) 
oracle

>  <origin>  (79) 
adg

>  <m_score__min__energy>  (79) 
-9.5099999999999998

>  <m_primary>  (79) 
energy

$$$$
80:0
     RDKit          3D

 30 31  0  0  0  0  0  0  0  0999 V2000
   -6.8070   25.8460  -29.0690 N   0  0  0  0  0  0  0  0  0  0  0  0
   -5.9620   25.3690  -30.1180 C   0  0  0  0  0  0  0  0  0  0  0  0
   -5.0820   26.1360  -30.5910 O   0  0  0  0  0  0  0  0  0  0  0  0
   -6.1320   24.0040  -30.6660 C   0  0  0  0  0  0  0  0  0  0  0  0
   -7.3310   23.5100  -31.1760 C   0  0  0  0  0  0  0  0  0  0  0  0
   -7.0290   22.2600  -31.6710 C   0  0  0  0  0  0  0  0  0  0  0  0
   -7.8500   21.3170  -32.2820 C   0  0  0  0  0  0  0  0  0  0  0  0
   -7.2730   20.0970  -32.6730 C   0  0  0  0  0  0  0  0  0  0  0  0
   -5.8940   19.8470  -32.4540 C   0  0  0  0  0  0  0  0  0  0  0  0
   -5.3000   18.5230  -32.8340 C   0  0  0  0  0  0  0  0  0  0  0  0
   -5.4350   18.2880  -34.5940 Cl  0  0  0  0  0  0  0  0  0  0  0  0
   -5.0950   20.8250  -31.8200 C   0  0  0  0  0  0  0  0  0  0  0  0
   -5.6950   22.0350  -31.4540 C   0  0  0  0  0  0  0  0  0  0  0  0
   -5.1310   23.0940  -30.8350 N   0  0  0  0  0  0  0  0  0  0  0  0
   -3.7660   23.1960  -30.3990 C   0  0  0  0  0  0  0  0  0  0  0  0
   -2.9220   22.3450  -30.7870 O   0  0  0  0  0  0  0  0  0  0  0  0
   -3.3740   24.2420  -29.5030 N   0  0  0  0  0  0  0  0  0  0  0  0
   -1.7030   24.4680  -29.0180 P   0  0  0  0  0  0  0  0  0  0  0  0
   -1.5610   24.1900  -27.5400 O   0  0  0  0  0  0  0  0  0  0  0  0
   -0.7140   23.4100  -29.8900 O   0  0  0  0  0  0  0  0  0  0  0  0
   -1.2370   26.0620  -29.3370 O   0  0  0  0  0  0  0  0  0  0  0  0
   -7.5070   25.2230  -28.6100 H   0  0  0  0  0  0  0  0  0  0  0  0
   -6.7020   26.8230  -28.7160 H   0  0  0  0  0  0  0  0  0  0  0  0
   -8.3102   24.0112  -31.1821 H   0  0  0  0  0  0  0  0  0  0  0  0
   -8.9173   21.5204  -32.4535 H   0  0  0  0  0  0  0  0  0  0  0  0
   -7.8965   19.3286  -33.1534 H   0  0  0  0  0  0  0  0  0  0  0  0
   -4.2396   18.5007  -32.5423 H   0  0  0  0  0  0  0  0  0  0  0  0
   -5.8424   17.7182  -32.3162 H   0  0  0  0  0  0  0  0  0  0  0  0
   -4.0294   20.6400  -31.6195 H   0  0  0  0  0  0  0  0  0  0  0  0
   -4.0960   24.8870  -29.1120 H   0  0  0  0  0  0  0  0  0  0  0  0
  1  2  1  0
  2  3  2  0
  2  4  1  0
  4  5  2  0
  5  6  1  0
  6  7  2  0
  7  8  1  0
  8  9  2  0
  9 10  1  0
 10 11  1  0
  9 12  1  0
 12 13  2  0
 13 14  1  0
 14 15  1  0
 15 16  2  0
 15 17  1  0
 17 18  1  0
 18 19  2  0
 18 20  1  0
 18 21  1  0
 14  4  1  0
 13  6  1  0
  1 22  1  0
  1 23  1  0
  5 24  1  0
  7 25  1  0
  8 26  1  0
 10 27  1  0
 10 28  1  0
 12 29  1  0
 17 30  1  0
M  CHG  2  20  -1  21  -1
M  END
>  <UniqueID>  (80) 
80

>  <SMILES>  (80) 
NC(=O)c1cc2ccc(CCl)cc2n1C(=O)NP(=O)([O-])[O-]

>  <Energy>  (80) 
64.64533301920105

>  <Genealogy>  (80) 
NC(=O)c1cc2ccc(CCl)cc2n1C(=O)NP(=O)([O-])[O-] (protonated)
NC(=O)c1cc2ccc(CCl)cc2n1C(=O)NP(=O)([O-])[O-] (3D coordinates assigned)
NC(=O)c1cc2ccc(CCl)cc2n1C(=O)NP(=O)([O-])[O-] (optimized conformer: 64.64533301920105 kcal/mol)

>  <smiles>  (80) 
NC(=O)c1cc2ccc(CCl)cc2n1C(=O)NP(=O)(O)O

>  <score_type>  (80) 
oracle

>  <origin>  (80) 
adg

>  <m_score__min__energy>  (80) 
-12.199999999999999

>  <m_primary>  (80) 
energy

$$$$
81:0
     RDKit          3D

 42 44  0  0  0  0  0  0  0  0999 V2000
   -5.4370   19.0620  -33.4550 C   0  0  0  0  0  0  0  0  0  0  0  0
   -5.6930   20.1790  -32.5200 N   0  0  2  0  0  0  0  0  0  0  0  0
   -4.4660   20.6930  -31.9240 C   0  0  0  0  0  0  0  0  0  0  0  0
   -3.2680   19.9300  -32.0150 C   0  0  0  0  0  0  0  0  0  0  0  0
   -2.0580   20.4110  -31.4910 C   0  0  0  0  0  0  0  0  0  0  0  0
   -2.0650   21.6500  -30.8650 C   0  0  0  0  0  0  0  0  0  0  0  0
   -1.0310   22.3640  -30.3060 C   0  0  0  0  0  0  0  0  0  0  0  0
   -1.6040   23.5450  -29.8430 C   0  0  0  0  0  0  0  0  0  0  0  0
   -0.8520   24.5760  -29.0970 C   0  0  0  0  0  0  0  0  0  0  0  0
   -1.3940   25.8880  -28.9580 N   0  0  0  0  0  0  0  0  0  0  0  0
    0.2810   24.3220  -28.6090 O   0  0  0  0  0  0  0  0  0  0  0  0
   -2.9410   23.5650  -30.1120 N   0  0  0  0  0  0  0  0  0  0  0  0
   -3.8750   24.6270  -29.8620 C   0  0  0  0  0  0  0  0  0  0  0  0
   -3.8700   25.6620  -30.5790 O   0  0  0  0  0  0  0  0  0  0  0  0
   -4.8110   24.5120  -28.8410 O   0  0  0  0  0  0  0  0  0  0  0  0
   -3.2070   22.3940  -30.7340 C   0  0  0  0  0  0  0  0  0  0  0  0
   -4.4250   21.9500  -31.2600 C   0  0  0  0  0  0  0  0  0  0  0  0
   -6.7780   19.8630  -31.5360 C   0  0  0  0  0  0  0  0  0  0  0  0
   -7.4410   18.4760  -31.8030 C   0  0  0  0  0  0  0  0  0  0  0  0
   -8.8580   18.5610  -32.3880 C   0  0  0  0  0  0  0  0  0  0  0  0
   -9.0080   19.7690  -33.1980 N   0  0  0  0  0  0  0  0  0  0  0  0
   -9.0210   20.9590  -32.3380 C   0  0  0  0  0  0  0  0  0  0  0  0
   -7.8410   20.9860  -31.3370 C   0  0  0  0  0  0  0  0  0  0  0  0
   -5.2271   18.1460  -32.8832 H   0  0  0  0  0  0  0  0  0  0  0  0
   -6.3222   18.9040  -34.0886 H   0  0  0  0  0  0  0  0  0  0  0  0
   -4.5713   19.3052  -34.0886 H   0  0  0  0  0  0  0  0  0  0  0  0
   -6.0650   20.9300  -33.1500 H   0  0  0  0  0  0  0  0  0  0  0  0
   -3.2908   18.9454  -32.5049 H   0  0  0  0  0  0  0  0  0  0  0  0
   -1.1317   19.8236  -31.5739 H   0  0  0  0  0  0  0  0  0  0  0  0
    0.0255   22.0650  -30.2390 H   0  0  0  0  0  0  0  0  0  0  0  0
   -2.4250   26.0460  -28.9660 H   0  0  0  0  0  0  0  0  0  0  0  0
   -5.3339   22.5617  -31.1618 H   0  0  0  0  0  0  0  0  0  0  0  0
   -6.2512   19.8048  -30.5721 H   0  0  0  0  0  0  0  0  0  0  0  0
   -6.8078   17.9209  -32.5107 H   0  0  0  0  0  0  0  0  0  0  0  0
   -7.5297   17.9738  -30.8283 H   0  0  0  0  0  0  0  0  0  0  0  0
   -9.0429   17.6782  -33.0176 H   0  0  0  0  0  0  0  0  0  0  0  0
   -9.5820   18.5963  -31.5606 H   0  0  0  0  0  0  0  0  0  0  0  0
   -9.9310   19.7190  -33.6900 H   0  0  0  0  0  0  0  0  0  0  0  0
   -8.9627   21.8540  -32.9749 H   0  0  0  0  0  0  0  0  0  0  0  0
   -9.9522   20.9357  -31.7530 H   0  0  0  0  0  0  0  0  0  0  0  0
   -7.3333   21.9569  -31.4351 H   0  0  0  0  0  0  0  0  0  0  0  0
   -8.2798   20.8191  -30.3422 H   0  0  0  0  0  0  0  0  0  0  0  0
  1  2  1  0
  2  3  1  0
  3  4  2  0
  4  5  1  0
  5  6  2  0
  6  7  1  0
  7  8  2  0
  8  9  1  0
  9 10  1  0
  9 11  2  0
  8 12  1  0
 12 13  1  0
 13 14  2  0
 13 15  1  0
 12 16  1  0
 16 17  2  0
  2 18  1  0
 18 19  1  0
 19 20  1  0
 20 21  1  0
 21 22  1  0
 22 23  1  0
 17  3  1  0
 23 18  1  0
 16  6  1  0
  1 24  1  0
  1 25  1  0
  1 26  1  0
  2 27  1  6
  4 28  1  0
  5 29  1  0
  7 30  1  0
 10 31  1  0
 17 32  1  0
 18 33  1  0
 19 34  1  0
 19 35  1  0
 20 36  1  0
 20 37  1  0
 21 38  1  0
 22 39  1  0
 22 40  1  0
 23 41  1  0
 23 42  1  0
M  CHG  3   2   1  10  -1  15  -1
M  END
>  <UniqueID>  (81) 
81

>  <SMILES>  (81) 
C[N@H+](c1ccc2cc(C([NH-])=O)n(C(=O)[O-])c2c1)C1CCNCC1

>  <Energy>  (81) 
100.05791925835652

>  <Genealogy>  (81) 
C[NH+](c1ccc2cc(C([NH-])=O)n(C(=O)[O-])c2c1)C1CCNCC1 (protonated)
C[N@H+](c1ccc2cc(C([NH-])=O)n(C(=O)[O-])c2c1)C1CCNCC1 (chirality)
C[N@H+](c1ccc2cc(C([NH-])=O)n(C(=O)[O-])c2c1)C1CCNCC1 (3D coordinates assigned)
C[N@H+](c1ccc2cc(C([NH-])=O)n(C(=O)[O-])c2c1)C1CCNCC1 (nonaromatic ring conformer: 100.05791925835652 kcal/mol)

>  <smiles>  (81) 
CN(c1ccc2cc(C(N)=O)n(C(=O)O)c2c1)C1CCNCC1

>  <score_type>  (81) 
oracle

>  <origin>  (81) 
adg

>  <m_score__min__energy>  (81) 
-11.44

>  <m_primary>  (81) 
energy

$$$$
82:0
     RDKit          3D

 46 47  0  0  0  0  0  0  0  0999 V2000
   -1.5500   21.8010  -26.7470 C   0  0  0  0  0  0  0  0  0  0  0  0
   -2.1950   22.6280  -27.7760 N   0  0  0  0  0  0  0  0  0  0  0  0
   -2.7390   23.9420  -27.3940 C   0  0  0  0  0  0  0  0  0  0  0  0
   -1.9090   25.0940  -27.9850 C   0  0  2  0  0  0  0  0  0  0  0  0
   -2.1890   25.1860  -29.3610 O   0  0  0  0  0  0  0  0  0  0  0  0
   -0.4000   24.8700  -27.7790 C   0  0  0  0  0  0  0  0  0  0  0  0
    0.1970   24.4090  -28.9600 O   0  0  0  0  0  0  0  0  0  0  0  0
   -2.2510   22.1820  -29.1520 C   0  0  0  0  0  0  0  0  0  0  0  0
   -1.2280   22.2700  -29.8850 O   0  0  0  0  0  0  0  0  0  0  0  0
   -3.5240   21.6730  -29.7760 C   0  0  0  0  0  0  0  0  0  0  0  0
   -3.9720   22.6140  -30.8500 C   0  0  0  0  0  0  0  0  0  0  0  0
   -3.1180   23.2000  -31.5700 O   0  0  0  0  0  0  0  0  0  0  0  0
   -5.3700   22.7900  -31.1150 N   0  0  0  0  0  0  0  0  0  0  0  0
   -6.1350   23.8800  -30.8350 C   0  0  0  0  0  0  0  0  0  0  0  0
   -5.6150   25.1850  -30.3720 C   0  0  0  0  0  0  0  0  0  0  0  0
   -4.2380   25.5300  -30.5470 N   0  0  0  0  0  0  0  0  0  0  0  0
   -6.3840   26.0030  -29.8010 O   0  0  0  0  0  0  0  0  0  0  0  0
   -7.4760   23.6150  -31.1100 C   0  0  0  0  0  0  0  0  0  0  0  0
   -7.5050   22.3130  -31.5620 C   0  0  0  0  0  0  0  0  0  0  0  0
   -8.5780   21.5220  -31.9570 C   0  0  0  0  0  0  0  0  0  0  0  0
   -8.3120   20.1950  -32.3410 C   0  0  0  0  0  0  0  0  0  0  0  0
   -6.9910   19.6780  -32.3060 C   0  0  0  0  0  0  0  0  0  0  0  0
   -6.7310   18.2580  -32.7460 C   0  0  0  0  0  0  0  0  0  0  0  0
   -7.8470   17.4870  -32.4860 F   0  0  0  0  0  0  0  0  0  0  0  0
   -6.4500   18.1990  -34.0990 F   0  0  0  0  0  0  0  0  0  0  0  0
   -5.6520   17.7360  -32.0550 F   0  0  0  0  0  0  0  0  0  0  0  0
   -5.9250   20.5230  -31.9190 C   0  0  0  0  0  0  0  0  0  0  0  0
   -6.2200   21.8400  -31.5550 C   0  0  0  0  0  0  0  0  0  0  0  0
   -1.8357   22.1673  -25.7499 H   0  0  0  0  0  0  0  0  0  0  0  0
   -1.8739   20.7559  -26.8603 H   0  0  0  0  0  0  0  0  0  0  0  0
   -0.4575   21.8606  -26.8603 H   0  0  0  0  0  0  0  0  0  0  0  0
   -3.7723   24.0211  -27.7629 H   0  0  0  0  0  0  0  0  0  0  0  0
   -2.7051   24.0219  -26.2974 H   0  0  0  0  0  0  0  0  0  0  0  0
   -2.1806   26.0262  -27.4681 H   0  0  0  0  0  0  0  0  0  0  0  0
   -1.8330   24.3610  -29.7840 H   0  0  0  0  0  0  0  0  0  0  0  0
    0.0693   25.8201  -27.4839 H   0  0  0  0  0  0  0  0  0  0  0  0
   -0.2583   24.1144  -26.9922 H   0  0  0  0  0  0  0  0  0  0  0  0
   -0.5330   24.0290  -29.5190 H   0  0  0  0  0  0  0  0  0  0  0  0
   -3.3452   20.6791  -30.2122 H   0  0  0  0  0  0  0  0  0  0  0  0
   -4.3049   21.6034  -29.0044 H   0  0  0  0  0  0  0  0  0  0  0  0
   -3.8660   26.4190  -30.1460 H   0  0  0  0  0  0  0  0  0  0  0  0
   -3.6140   24.9600  -31.1610 H   0  0  0  0  0  0  0  0  0  0  0  0
   -8.3291   24.2992  -30.9915 H   0  0  0  0  0  0  0  0  0  0  0  0
   -9.6029   21.9213  -31.9689 H   0  0  0  0  0  0  0  0  0  0  0  0
   -9.1388   19.5498  -32.6727 H   0  0  0  0  0  0  0  0  0  0  0  0
   -4.8892   20.1530  -31.9048 H   0  0  0  0  0  0  0  0  0  0  0  0
  1  2  1  0
  2  3  1  0
  3  4  1  0
  4  5  1  0
  4  6  1  0
  6  7  1  0
  2  8  1  0
  8  9  2  0
  8 10  1  0
 10 11  1  0
 11 12  2  0
 11 13  1  0
 13 14  1  0
 14 15  1  0
 15 16  1  0
 15 17  2  0
 14 18  2  0
 18 19  1  0
 19 20  2  0
 20 21  1  0
 21 22  2  0
 22 23  1  0
 23 24  1  0
 23 25  1  0
 23 26  1  0
 22 27  1  0
 27 28  2  0
 28 13  1  0
 28 19  1  0
  1 29  1  0
  1 30  1  0
  1 31  1  0
  3 32  1  0
  3 33  1  0
  4 34  1  1
  5 35  1  0
  6 36  1  0
  6 37  1  0
  7 38  1  0
 10 39  1  0
 10 40  1  0
 16 41  1  0
 16 42  1  0
 18 43  1  0
 20 44  1  0
 21 45  1  0
 27 46  1  0
M  END
>  <UniqueID>  (82) 
82

>  <SMILES>  (82) 
CN(C[C@H](O)CO)C(=O)CC(=O)n1c(C(N)=O)cc2ccc(C(F)(F)F)cc21

>  <Energy>  (82) 
80.56429275401095

>  <Genealogy>  (82) 
CN(C[C@H](O)CO)C(=O)CC(=O)n1c(C(N)=O)cc2ccc(C(F)(F)F)cc21 (chirality)
CN(C[C@H](O)CO)C(=O)CC(=O)n1c(C(N)=O)cc2ccc(C(F)(F)F)cc21 (3D coordinates assigned)
CN(C[C@H](O)CO)C(=O)CC(=O)n1c(C(N)=O)cc2ccc(C(F)(F)F)cc21 (optimized conformer: 80.56429275401095 kcal/mol)

>  <smiles>  (82) 
CN(CC(O)CO)C(=O)CC(=O)n1c(C(N)=O)cc2ccc(C(F)(F)F)cc21

>  <score_type>  (82) 
oracle

>  <origin>  (82) 
adg

>  <m_score__min__energy>  (82) 
-8.4299999999999997

>  <m_primary>  (82) 
energy

$$$$
84:0
     RDKit          3D

 41 42  0  0  0  0  0  0  0  0999 V2000
   -9.1980   19.0280  -32.1800 C   0  0  0  0  0  0  0  0  0  0  0  0
   -8.4960   20.3340  -31.9580 C   0  0  0  0  0  0  0  0  0  0  0  0
   -9.2390   21.5400  -31.9240 C   0  0  0  0  0  0  0  0  0  0  0  0
   -8.5990   22.7700  -31.6920 C   0  0  0  0  0  0  0  0  0  0  0  0
   -7.2220   22.7580  -31.4800 C   0  0  0  0  0  0  0  0  0  0  0  0
   -6.3530   23.7970  -31.2410 C   0  0  0  0  0  0  0  0  0  0  0  0
   -5.0980   23.2060  -31.0990 C   0  0  0  0  0  0  0  0  0  0  0  0
   -3.8760   23.9610  -30.7530 C   0  0  0  0  0  0  0  0  0  0  0  0
   -3.9200   25.3670  -30.5270 N   0  0  0  0  0  0  0  0  0  0  0  0
   -2.7700   23.3620  -30.6910 O   0  0  0  0  0  0  0  0  0  0  0  0
   -5.1900   21.8540  -31.2570 N   0  0  0  0  0  0  0  0  0  0  0  0
   -4.1320   20.8810  -31.2470 C   0  0  0  0  0  0  0  0  0  0  0  0
   -3.7560   20.4010  -30.1470 O   0  0  0  0  0  0  0  0  0  0  0  0
   -3.5550   20.3930  -32.5220 C   0  0  0  0  0  0  0  0  0  0  0  0
   -2.5790   21.0130  -33.0180 O   0  0  0  0  0  0  0  0  0  0  0  0
   -4.0640   19.2520  -33.2350 N   0  0  0  0  0  0  0  0  0  0  0  0
   -5.1510   19.2230  -34.2090 C   0  0  0  0  0  0  0  0  0  0  0  0
   -6.2150   18.1850  -33.7970 C   0  0  0  0  0  0  0  0  0  0  0  0
   -5.7030   16.8020  -33.6660 N   0  0  0  0  0  0  0  0  0  0  0  0
   -5.3910   16.4310  -32.2770 C   0  0  0  0  0  0  0  0  0  0  0  0
   -4.5660   16.5290  -34.5590 C   0  0  0  0  0  0  0  0  0  0  0  0
   -6.4960   21.5970  -31.4830 C   0  0  0  0  0  0  0  0  0  0  0  0
   -7.1030   20.3600  -31.7240 C   0  0  0  0  0  0  0  0  0  0  0  0
   -9.4424   18.5733  -31.2086 H   0  0  0  0  0  0  0  0  0  0  0  0
  -10.1244   19.2015  -32.7471 H   0  0  0  0  0  0  0  0  0  0  0  0
   -8.5422   18.3510  -32.7471 H   0  0  0  0  0  0  0  0  0  0  0  0
  -10.3275   21.5136  -32.0807 H   0  0  0  0  0  0  0  0  0  0  0  0
   -9.1672   23.7118  -31.6783 H   0  0  0  0  0  0  0  0  0  0  0  0
   -6.5965   24.8677  -31.1757 H   0  0  0  0  0  0  0  0  0  0  0  0
   -3.5140   26.0350  -31.2190 H   0  0  0  0  0  0  0  0  0  0  0  0
   -5.6169   20.2181  -34.2619 H   0  0  0  0  0  0  0  0  0  0  0  0
   -4.7423   18.9442  -35.1914 H   0  0  0  0  0  0  0  0  0  0  0  0
   -6.6350   18.4895  -32.8270 H   0  0  0  0  0  0  0  0  0  0  0  0
   -6.9639   18.1671  -34.6025 H   0  0  0  0  0  0  0  0  0  0  0  0
   -5.9435   17.0879  -31.5891 H   0  0  0  0  0  0  0  0  0  0  0  0
   -5.6855   15.3858  -32.1017 H   0  0  0  0  0  0  0  0  0  0  0  0
   -4.3107   16.5419  -32.1017 H   0  0  0  0  0  0  0  0  0  0  0  0
   -3.6706   16.3140  -33.9573 H   0  0  0  0  0  0  0  0  0  0  0  0
   -4.7984   15.6611  -35.1937 H   0  0  0  0  0  0  0  0  0  0  0  0
   -4.3790   17.4078  -35.1937 H   0  0  0  0  0  0  0  0  0  0  0  0
   -6.5117   19.4325  -31.7311 H   0  0  0  0  0  0  0  0  0  0  0  0
  1  2  1  0
  2  3  2  0
  3  4  1  0
  4  5  2  0
  5  6  1  0
  6  7  2  0
  7  8  1  0
  8  9  1  0
  8 10  2  0
  7 11  1  0
 11 12  1  0
 12 13  2  0
 12 14  1  0
 14 15  2  0
 14 16  1  0
 16 17  1  0
 17 18  1  0
 18 19  1  0
 19 20  1  0
 19 21  1  0
 11 22  1  0
 22 23  2  0
 23  2  1  0
 22  5  1  0
  1 24  1  0
  1 25  1  0
  1 26  1  0
  3 27  1  0
  4 28  1  0
  6 29  1  0
  9 30  1  0
 17 31  1  0
 17 32  1  0
 18 33  1  0
 18 34  1  0
 20 35  1  0
 20 36  1  0
 20 37  1  0
 21 38  1  0
 21 39  1  0
 21 40  1  0
 23 41  1  0
M  CHG  2   9  -1  16  -1
M  END
>  <UniqueID>  (83) 
83

>  <SMILES>  (83) 
Cc1ccc2cc(C([NH-])=O)n(C(=O)C(=O)[N-]CCN(C)C)c2c1

>  <Energy>  (83) 
81.8555452478613

>  <Genealogy>  (83) 
Cc1ccc2cc(C([NH-])=O)n(C(=O)C(=O)[N-]CCN(C)C)c2c1 (protonated)
Cc1ccc2cc(C([NH-])=O)n(C(=O)C(=O)[N-]CCN(C)C)c2c1 (3D coordinates assigned)
Cc1ccc2cc(C([NH-])=O)n(C(=O)C(=O)[N-]CCN(C)C)c2c1 (optimized conformer: 81.8555452478613 kcal/mol)

>  <smiles>  (83) 
Cc1ccc2cc(C(N)=O)n(C(=O)C(=O)NCCN(C)C)c2c1

>  <score_type>  (83) 
oracle

>  <origin>  (83) 
adg

>  <m_score__min__energy>  (83) 
-10.470000000000001

>  <m_primary>  (83) 
energy

$$$$
85:0
     RDKit          3D

 43 45  0  0  0  0  0  0  0  0999 V2000
   -0.7680   26.8840  -27.8400 C   0  0  0  0  0  0  0  0  0  0  0  0
   -0.8300   25.4010  -28.0000 C   0  0  0  0  0  0  0  0  0  0  0  0
    0.2240   24.7180  -27.8990 O   0  0  0  0  0  0  0  0  0  0  0  0
   -2.0920   24.7580  -28.2310 N   0  0  0  0  0  0  0  0  0  0  0  0
   -2.2100   23.3010  -28.3630 C   0  0  2  0  0  0  0  0  0  0  0  0
   -1.0740   22.7350  -29.2260 C   0  0  0  0  0  0  0  0  0  0  0  0
   -1.6420   22.6240  -30.6350 C   0  0  0  0  0  0  0  0  0  0  0  0
   -3.0840   22.6420  -30.4700 N   0  0  0  0  0  0  0  0  0  0  0  0
   -4.0100   22.4820  -31.5560 C   0  0  0  0  0  0  0  0  0  0  0  0
   -3.6060   22.0680  -32.6760 O   0  0  0  0  0  0  0  0  0  0  0  0
   -5.4030   22.7610  -31.3710 N   0  0  0  0  0  0  0  0  0  0  0  0
   -5.9730   23.8950  -30.8760 C   0  0  0  0  0  0  0  0  0  0  0  0
   -5.2510   25.1200  -30.4750 C   0  0  0  0  0  0  0  0  0  0  0  0
   -3.8560   25.2690  -30.7320 N   0  0  0  0  0  0  0  0  0  0  0  0
   -5.8750   26.0550  -29.9050 O   0  0  0  0  0  0  0  0  0  0  0  0
   -7.3600   23.7580  -30.8290 C   0  0  0  0  0  0  0  0  0  0  0  0
   -7.6190   22.4950  -31.3180 C   0  0  0  0  0  0  0  0  0  0  0  0
   -8.8290   21.8300  -31.4980 C   0  0  0  0  0  0  0  0  0  0  0  0
   -8.7910   20.5250  -32.0200 C   0  0  0  0  0  0  0  0  0  0  0  0
   -7.5540   19.9080  -32.3340 C   0  0  0  0  0  0  0  0  0  0  0  0
   -7.5310   18.5290  -32.9210 C   0  0  0  0  0  0  0  0  0  0  0  0
   -6.3480   20.6200  -32.1530 C   0  0  0  0  0  0  0  0  0  0  0  0
   -6.4190   21.9180  -31.6390 C   0  0  0  0  0  0  0  0  0  0  0  0
   -3.4960   22.9370  -29.1090 C   0  0  0  0  0  0  0  0  0  0  0  0
   -0.7574   27.1372  -26.7696 H   0  0  0  0  0  0  0  0  0  0  0  0
    0.1469   27.2662  -28.3163 H   0  0  0  0  0  0  0  0  0  0  0  0
   -1.6478   27.3413  -28.3163 H   0  0  0  0  0  0  0  0  0  0  0  0
   -2.9440   25.3590  -28.3080 H   0  0  0  0  0  0  0  0  0  0  0  0
   -2.1891   22.8905  -27.3427 H   0  0  0  0  0  0  0  0  0  0  0  0
   -0.2085   23.4138  -29.2139 H   0  0  0  0  0  0  0  0  0  0  0  0
   -0.7260   21.7612  -28.8509 H   0  0  0  0  0  0  0  0  0  0  0  0
   -1.3141   23.4746  -31.2506 H   0  0  0  0  0  0  0  0  0  0  0  0
   -1.2992   21.7113  -31.1443 H   0  0  0  0  0  0  0  0  0  0  0  0
   -3.5010   26.0430  -31.3350 H   0  0  0  0  0  0  0  0  0  0  0  0
   -8.0919   24.4998  -30.4767 H   0  0  0  0  0  0  0  0  0  0  0  0
   -9.7843   22.3104  -31.2400 H   0  0  0  0  0  0  0  0  0  0  0  0
   -9.7304   19.9774  -32.1864 H   0  0  0  0  0  0  0  0  0  0  0  0
   -7.5186   17.7856  -32.1103 H   0  0  0  0  0  0  0  0  0  0  0  0
   -8.4268   18.3797  -33.5417 H   0  0  0  0  0  0  0  0  0  0  0  0
   -6.6307   18.4097  -33.5417 H   0  0  0  0  0  0  0  0  0  0  0  0
   -5.3795   20.1658  -32.4094 H   0  0  0  0  0  0  0  0  0  0  0  0
   -4.2008   23.7814  -29.0950 H   0  0  0  0  0  0  0  0  0  0  0  0
   -4.0102   22.0831  -28.6438 H   0  0  0  0  0  0  0  0  0  0  0  0
  1  2  1  0
  2  3  2  0
  2  4  1  0
  4  5  1  0
  5  6  1  0
  6  7  1  0
  7  8  1  0
  8  9  1  0
  9 10  2  0
  9 11  1  0
 11 12  1  0
 12 13  1  0
 13 14  1  0
 13 15  2  0
 12 16  2  0
 16 17  1  0
 17 18  2  0
 18 19  1  0
 19 20  2  0
 20 21  1  0
 20 22  1  0
 22 23  2  0
  8 24  1  0
 24  5  1  0
 23 11  1  0
 23 17  1  0
  1 25  1  0
  1 26  1  0
  1 27  1  0
  4 28  1  0
  5 29  1  1
  6 30  1  0
  6 31  1  0
  7 32  1  0
  7 33  1  0
 14 34  1  0
 16 35  1  0
 18 36  1  0
 19 37  1  0
 21 38  1  0
 21 39  1  0
 21 40  1  0
 22 41  1  0
 24 42  1  0
 24 43  1  0
M  CHG  1  14  -1
M  END
>  <UniqueID>  (84) 
84

>  <SMILES>  (84) 
CC(=O)N[C@@H]1CCN(C(=O)n2c(C([NH-])=O)cc3ccc(C)cc32)C1

>  <Energy>  (84) 
79.5160654561364

>  <Genealogy>  (84) 
CC(=O)NC1CCN(C(=O)n2c(C([NH-])=O)cc3ccc(C)cc32)C1 (protonated)
CC(=O)N[C@@H]1CCN(C(=O)n2c(C([NH-])=O)cc3ccc(C)cc32)C1 (chirality)
CC(=O)N[C@@H]1CCN(C(=O)n2c(C([NH-])=O)cc3ccc(C)cc32)C1 (3D coordinates assigned)
CC(=O)N[C@@H]1CCN(C(=O)n2c(C([NH-])=O)cc3ccc(C)cc32)C1 (nonaromatic ring conformer: 79.5160654561364 kcal/mol)

>  <smiles>  (84) 
CC(=O)NC1CCN(C(=O)n2c(C(N)=O)cc3ccc(C)cc32)C1

>  <score_type>  (84) 
oracle

>  <origin>  (84) 
adg

>  <m_score__min__energy>  (84) 
-11.529999999999999

>  <m_primary>  (84) 
energy

$$$$
86:0
     RDKit          3D

 42 43  0  0  0  0  0  0  0  0999 V2000
   -1.6270   21.6510  -27.0230 C   0  0  0  0  0  0  0  0  0  0  0  0
   -2.3290   22.7540  -27.6830 N   0  0  0  0  0  0  0  0  0  0  0  0
   -2.0050   24.1260  -27.2720 C   0  0  0  0  0  0  0  0  0  0  0  0
   -1.5420   24.9240  -28.4470 C   0  0  0  0  0  0  0  0  0  0  0  0
   -2.3660   25.3010  -29.3200 O   0  0  0  0  0  0  0  0  0  0  0  0
   -0.2050   25.2800  -28.5630 O   0  0  0  0  0  0  0  0  0  0  0  0
   -3.4530   22.5080  -28.5590 C   0  0  0  0  0  0  0  0  0  0  0  0
   -4.6200   22.4630  -28.0820 O   0  0  0  0  0  0  0  0  0  0  0  0
   -3.2650   22.2910  -29.9680 N   0  0  0  0  0  0  0  0  0  0  0  0
   -1.9920   22.6690  -30.5840 C   0  0  0  0  0  0  0  0  0  0  0  0
   -4.2450   21.5660  -30.7350 C   0  0  0  0  0  0  0  0  0  0  0  0
   -3.9380   20.4660  -31.2690 O   0  0  0  0  0  0  0  0  0  0  0  0
   -5.5730   22.0830  -30.9100 N   0  0  0  0  0  0  0  0  0  0  0  0
   -5.9890   23.3750  -30.8040 C   0  0  0  0  0  0  0  0  0  0  0  0
   -5.1630   24.5170  -30.3590 C   0  0  0  0  0  0  0  0  0  0  0  0
   -5.0460   24.8530  -28.9760 N   0  0  0  0  0  0  0  0  0  0  0  0
   -4.5870   25.2360  -31.2170 O   0  0  0  0  0  0  0  0  0  0  0  0
   -7.3330   23.4860  -31.1530 C   0  0  0  0  0  0  0  0  0  0  0  0
   -7.7350   22.2060  -31.4630 C   0  0  0  0  0  0  0  0  0  0  0  0
   -8.9660   21.7350  -31.9100 C   0  0  0  0  0  0  0  0  0  0  0  0
   -9.0800   20.3660  -32.2030 C   0  0  0  0  0  0  0  0  0  0  0  0
   -7.9710   19.4980  -32.0390 C   0  0  0  0  0  0  0  0  0  0  0  0
   -8.0860   18.0490  -32.4110 C   0  0  0  0  0  0  0  0  0  0  0  0
   -6.7190   17.5890  -33.4530 Cl  0  0  0  0  0  0  0  0  0  0  0  0
   -6.7360   20.0140  -31.5910 C   0  0  0  0  0  0  0  0  0  0  0  0
   -6.6550   21.3780  -31.3020 C   0  0  0  0  0  0  0  0  0  0  0  0
   -1.7022   21.7691  -25.9320 H   0  0  0  0  0  0  0  0  0  0  0  0
   -2.0835   20.6955  -27.3207 H   0  0  0  0  0  0  0  0  0  0  0  0
   -0.5681   21.6600  -27.3207 H   0  0  0  0  0  0  0  0  0  0  0  0
   -2.9017   24.5977  -26.8437 H   0  0  0  0  0  0  0  0  0  0  0  0
   -1.2009   24.0942  -26.5220 H   0  0  0  0  0  0  0  0  0  0  0  0
   -1.2548   22.8879  -29.7975 H   0  0  0  0  0  0  0  0  0  0  0  0
   -1.6267   21.8406  -31.2087 H   0  0  0  0  0  0  0  0  0  0  0  0
   -2.1380   23.5626  -31.2087 H   0  0  0  0  0  0  0  0  0  0  0  0
   -4.4030   25.6210  -28.6780 H   0  0  0  0  0  0  0  0  0  0  0  0
   -5.6640   24.4170  -28.2580 H   0  0  0  0  0  0  0  0  0  0  0  0
   -7.9431   24.4010  -31.1760 H   0  0  0  0  0  0  0  0  0  0  0  0
   -9.8232   22.4138  -32.0301 H   0  0  0  0  0  0  0  0  0  0  0  0
  -10.0384   19.9637  -32.5630 H   0  0  0  0  0  0  0  0  0  0  0  0
   -8.0735   17.4348  -31.4985 H   0  0  0  0  0  0  0  0  0  0  0  0
   -9.0292   17.8850  -32.9528 H   0  0  0  0  0  0  0  0  0  0  0  0
   -5.8602   19.3590  -31.4726 H   0  0  0  0  0  0  0  0  0  0  0  0
  1  2  1  0
  2  3  1  0
  3  4  1  0
  4  5  2  0
  4  6  1  0
  2  7  1  0
  7  8  2  0
  7  9  1  0
  9 10  1  0
  9 11  1  0
 11 12  2  0
 11 13  1  0
 13 14  1  0
 14 15  1  0
 15 16  1  0
 15 17  2  0
 14 18  2  0
 18 19  1  0
 19 20  2  0
 20 21  1  0
 21 22  2  0
 22 23  1  0
 23 24  1  0
 22 25  1  0
 25 26  2  0
 26 13  1  0
 26 19  1  0
  1 27  1  0
  1 28  1  0
  1 29  1  0
  3 30  1  0
  3 31  1  0
 10 32  1  0
 10 33  1  0
 10 34  1  0
 16 35  1  0
 16 36  1  0
 18 37  1  0
 20 38  1  0
 21 39  1  0
 23 40  1  0
 23 41  1  0
 25 42  1  0
M  CHG  1   6  -1
M  END
>  <UniqueID>  (85) 
85

>  <SMILES>  (85) 
CN(CC(=O)[O-])C(=O)N(C)C(=O)n1c(C(N)=O)cc2ccc(CCl)cc21

>  <Energy>  (85) 
79.89526254215961

>  <Genealogy>  (85) 
CN(CC(=O)[O-])C(=O)N(C)C(=O)n1c(C(N)=O)cc2ccc(CCl)cc21 (protonated)
CN(CC(=O)[O-])C(=O)N(C)C(=O)n1c(C(N)=O)cc2ccc(CCl)cc21 (3D coordinates assigned)
CN(CC(=O)[O-])C(=O)N(C)C(=O)n1c(C(N)=O)cc2ccc(CCl)cc21 (optimized conformer: 79.89526254215961 kcal/mol)

>  <smiles>  (85) 
CN(CC(=O)O)C(=O)N(C)C(=O)n1c(C(N)=O)cc2ccc(CCl)cc21

>  <score_type>  (85) 
oracle

>  <origin>  (85) 
adg

>  <m_score__min__energy>  (85) 
-11.119999999999999

>  <m_primary>  (85) 
energy

$$$$
87:0
     RDKit          3D

 52 55  0  0  0  0  0  0  0  0999 V2000
   -2.0440   20.4650  -31.0360 C   0  0  0  0  0  0  0  0  0  0  0  0
   -2.3210   21.8510  -30.6580 N   0  0  0  0  0  0  0  0  0  0  0  0
   -1.1930   22.7490  -30.3850 C   0  0  0  0  0  0  0  0  0  0  0  0
   -1.2130   23.2300  -28.9280 C   0  0  0  0  0  0  0  0  0  0  0  0
   -0.7860   24.6660  -28.8210 C   0  0  0  0  0  0  0  0  0  0  0  0
    0.2860   24.9660  -28.2320 O   0  0  0  0  0  0  0  0  0  0  0  0
   -1.5930   25.6760  -29.3360 O   0  0  0  0  0  0  0  0  0  0  0  0
   -3.5820   22.1250  -30.0400 C   0  0  0  0  0  0  0  0  0  0  0  0
   -3.6460   22.0970  -28.7820 O   0  0  0  0  0  0  0  0  0  0  0  0
   -4.7740   22.3670  -30.8220 N   0  0  0  0  0  0  0  0  0  0  0  0
   -5.5220   23.5090  -30.8330 C   0  0  0  0  0  0  0  0  0  0  0  0
   -5.1180   24.8240  -30.2950 C   0  0  0  0  0  0  0  0  0  0  0  0
   -3.9940   25.5050  -30.8490 N   0  0  0  0  0  0  0  0  0  0  0  0
   -5.7110   25.3190  -29.3020 O   0  0  0  0  0  0  0  0  0  0  0  0
   -6.7180   23.3210  -31.5200 C   0  0  0  0  0  0  0  0  0  0  0  0
   -6.6790   22.0230  -31.9630 C   0  0  0  0  0  0  0  0  0  0  0  0
   -7.6210   21.3130  -32.7010 C   0  0  0  0  0  0  0  0  0  0  0  0
   -7.3380   19.9770  -33.0230 C   0  0  0  0  0  0  0  0  0  0  0  0
   -6.1230   19.3780  -32.6120 C   0  0  0  0  0  0  0  0  0  0  0  0
   -5.8120   17.9750  -32.9810 C   0  0  0  0  0  0  0  0  0  0  0  0
   -6.8370   17.0810  -33.3300 C   0  0  0  0  0  0  0  0  0  0  0  0
   -6.5310   15.7580  -33.6630 C   0  0  0  0  0  0  0  0  0  0  0  0
   -5.1980   15.3390  -33.6550 C   0  0  0  0  0  0  0  0  0  0  0  0
   -4.8840   14.0200  -33.9930 O   0  0  0  0  0  0  0  0  0  0  0  0
   -4.3210   13.0940  -33.0670 C   0  0  0  0  0  0  0  0  0  0  0  0
   -4.1000   13.7120  -31.7090 C   0  0  0  0  0  0  0  0  0  0  0  0
   -5.1080   12.9250  -31.1160 O   0  0  0  0  0  0  0  0  0  0  0  0
   -5.3770   12.2900  -32.3440 C   0  0  0  0  0  0  0  0  0  0  0  0
   -4.2170   16.2190  -33.3200 N   0  0  0  0  0  0  0  0  0  0  0  0
   -4.4880   17.5070  -32.9840 C   0  0  0  0  0  0  0  0  0  0  0  0
   -5.1940   20.1320  -31.8580 C   0  0  0  0  0  0  0  0  0  0  0  0
   -5.4970   21.4650  -31.5420 C   0  0  0  0  0  0  0  0  0  0  0  0
   -1.9221   19.8549  -30.1288 H   0  0  0  0  0  0  0  0  0  0  0  0
   -2.8816   20.0730  -31.6317 H   0  0  0  0  0  0  0  0  0  0  0  0
   -1.1201   20.4250  -31.6317 H   0  0  0  0  0  0  0  0  0  0  0  0
   -0.2518   22.2118  -30.5736 H   0  0  0  0  0  0  0  0  0  0  0  0
   -1.2753   23.6255  -31.0445 H   0  0  0  0  0  0  0  0  0  0  0  0
   -2.2341   23.1294  -28.5315 H   0  0  0  0  0  0  0  0  0  0  0  0
   -0.5083   22.6144  -28.3497 H   0  0  0  0  0  0  0  0  0  0  0  0
   -3.0230   25.2890  -30.5250 H   0  0  0  0  0  0  0  0  0  0  0  0
   -7.5220   24.0556  -31.6746 H   0  0  0  0  0  0  0  0  0  0  0  0
   -8.5607   21.7856  -33.0228 H   0  0  0  0  0  0  0  0  0  0  0  0
   -8.0671   19.3895  -33.6003 H   0  0  0  0  0  0  0  0  0  0  0  0
   -7.8827   17.4222  -33.3414 H   0  0  0  0  0  0  0  0  0  0  0  0
   -7.3326   15.0532  -33.9289 H   0  0  0  0  0  0  0  0  0  0  0  0
   -3.5235   12.6499  -33.6809 H   0  0  0  0  0  0  0  0  0  0  0  0
   -3.0971   13.5226  -31.2987 H   0  0  0  0  0  0  0  0  0  0  0  0
   -4.1481   14.8062  -31.6066 H   0  0  0  0  0  0  0  0  0  0  0  0
   -5.1747   11.2088  -32.3329 H   0  0  0  0  0  0  0  0  0  0  0  0
   -6.4066   12.2901  -32.7311 H   0  0  0  0  0  0  0  0  0  0  0  0
   -3.6665   18.1865  -32.7130 H   0  0  0  0  0  0  0  0  0  0  0  0
   -4.2482   19.6802  -31.5243 H   0  0  0  0  0  0  0  0  0  0  0  0
  1  2  1  0
  2  3  1  0
  3  4  1  0
  4  5  1  0
  5  6  2  0
  5  7  1  0
  2  8  1  0
  8  9  2  0
  8 10  1  0
 10 11  1  0
 11 12  1  0
 12 13  1  0
 12 14  2  0
 11 15  2  0
 15 16  1  0
 16 17  2  0
 17 18  1  0
 18 19  2  0
 19 20  1  0
 20 21  2  0
 21 22  1  0
 22 23  2  0
 23 24  1  0
 24 25  1  0
 25 26  1  0
 26 27  1  0
 27 28  1  0
 23 29  1  0
 29 30  2  0
 19 31  1  0
 31 32  2  0
 32 10  1  0
 32 16  1  0
 30 20  1  0
 28 25  1  0
  1 33  1  0
  1 34  1  0
  1 35  1  0
  3 36  1  0
  3 37  1  0
  4 38  1  0
  4 39  1  0
 13 40  1  0
 15 41  1  0
 17 42  1  0
 18 43  1  0
 21 44  1  0
 22 45  1  0
 25 46  1  0
 26 47  1  0
 26 48  1  0
 28 49  1  0
 28 50  1  0
 30 51  1  0
 31 52  1  0
M  CHG  2   7  -1  13  -1
M  END
>  <UniqueID>  (86) 
86

>  <SMILES>  (86) 
CN(CCC(=O)[O-])C(=O)n1c(C([NH-])=O)cc2ccc(-c3ccc(OC4COC4)nc3)cc21

>  <Energy>  (86) 
164.39767113039454

>  <Genealogy>  (86) 
CN(CCC(=O)[O-])C(=O)n1c(C([NH-])=O)cc2ccc(-c3ccc(OC4COC4)nc3)cc21 (protonated)
CN(CCC(=O)[O-])C(=O)n1c(C([NH-])=O)cc2ccc(-c3ccc(OC4COC4)nc3)cc21 (3D coordinates assigned)
CN(CCC(=O)[O-])C(=O)n1c(C([NH-])=O)cc2ccc(-c3ccc(OC4COC4)nc3)cc21 (nonaromatic ring conformer: 164.39767113039454 kcal/mol)

>  <smiles>  (86) 
CN(CCC(=O)O)C(=O)n1c(C(N)=O)cc2ccc(-c3ccc(OC4COC4)nc3)cc21

>  <score_type>  (86) 
oracle

>  <origin>  (86) 
adg

>  <m_score__min__energy>  (86) 
-13.66

>  <m_primary>  (86) 
energy

$$$$
88:0
     RDKit          3D

 42 44  0  0  0  0  0  0  0  0999 V2000
   -8.7700   23.3830  -32.1160 N   0  0  0  0  0  0  0  0  0  0  0  0
   -8.4030   22.0730  -31.6780 C   0  0  0  0  0  0  0  0  0  0  0  0
   -9.0310   21.5450  -30.7210 O   0  0  0  0  0  0  0  0  0  0  0  0
   -7.2620   21.3560  -32.2800 C   0  0  0  0  0  0  0  0  0  0  0  0
   -7.3810   20.1180  -32.9040 C   0  0  0  0  0  0  0  0  0  0  0  0
   -6.1000   19.7720  -33.2700 C   0  0  0  0  0  0  0  0  0  0  0  0
   -5.6370   18.6430  -33.9400 C   0  0  0  0  0  0  0  0  0  0  0  0
   -4.2630   18.5630  -34.2250 C   0  0  0  0  0  0  0  0  0  0  0  0
   -3.3930   19.6110  -33.8440 C   0  0  0  0  0  0  0  0  0  0  0  0
   -1.9900   19.5240  -34.1550 C   0  0  0  0  0  0  0  0  0  0  0  0
   -0.8150   19.4520  -34.4150 C   0  0  0  0  0  0  0  0  0  0  0  0
    0.5870   19.3650  -34.7240 C   0  0  0  0  0  0  0  0  0  0  0  0
    1.0260   19.5140  -36.0470 C   0  0  0  0  0  0  0  0  0  0  0  0
    2.3900   19.4300  -36.3460 C   0  0  0  0  0  0  0  0  0  0  0  0
    3.3180   19.1980  -35.3260 C   0  0  0  0  0  0  0  0  0  0  0  0
    4.6390   19.1170  -35.6170 F   0  0  0  0  0  0  0  0  0  0  0  0
    2.8830   19.0490  -34.0050 C   0  0  0  0  0  0  0  0  0  0  0  0
    1.5190   19.1320  -33.7030 C   0  0  0  0  0  0  0  0  0  0  0  0
   -3.8920   20.7420  -33.1690 C   0  0  0  0  0  0  0  0  0  0  0  0
   -5.2620   20.7870  -32.8790 C   0  0  0  0  0  0  0  0  0  0  0  0
   -5.9640   21.7700  -32.2700 N   0  0  0  0  0  0  0  0  0  0  0  0
   -5.4620   23.0430  -31.8290 C   0  0  0  0  0  0  0  0  0  0  0  0
   -4.2290   23.1980  -31.6150 O   0  0  0  0  0  0  0  0  0  0  0  0
   -6.3470   24.1080  -31.6360 O   0  0  0  0  0  0  0  0  0  0  0  0
   -6.4530   24.8100  -30.4030 C   0  0  0  0  0  0  0  0  0  0  0  0
   -5.5080   26.0080  -30.4100 C   0  0  0  0  0  0  0  0  0  0  0  0
   -4.2290   25.6250  -30.8330 O   0  0  0  0  0  0  0  0  0  0  0  0
   -9.6060   23.8560  -31.7090 H   0  0  0  0  0  0  0  0  0  0  0  0
   -8.1730   23.9140  -32.7870 H   0  0  0  0  0  0  0  0  0  0  0  0
   -8.3019   19.5395  -33.0694 H   0  0  0  0  0  0  0  0  0  0  0  0
   -6.3254   17.8382  -34.2373 H   0  0  0  0  0  0  0  0  0  0  0  0
   -3.8625   17.6813  -34.7467 H   0  0  0  0  0  0  0  0  0  0  0  0
    0.2974   19.6971  -36.8505 H   0  0  0  0  0  0  0  0  0  0  0  0
    2.7329   19.5466  -37.3847 H   0  0  0  0  0  0  0  0  0  0  0  0
    3.6134   18.8665  -33.2030 H   0  0  0  0  0  0  0  0  0  0  0  0
    1.1780   19.0143  -32.6638 H   0  0  0  0  0  0  0  0  0  0  0  0
   -3.2249   21.5667  -32.8777 H   0  0  0  0  0  0  0  0  0  0  0  0
   -7.4870   25.1608  -30.2698 H   0  0  0  0  0  0  0  0  0  0  0  0
   -6.1817   24.1370  -29.5763 H   0  0  0  0  0  0  0  0  0  0  0  0
   -5.9008   26.7742  -31.0946 H   0  0  0  0  0  0  0  0  0  0  0  0
   -5.4379   26.4101  -29.3885 H   0  0  0  0  0  0  0  0  0  0  0  0
   -4.3570   24.9920  -31.5880 H   0  0  0  0  0  0  0  0  0  0  0  0
  1  2  1  0
  2  3  2  0
  2  4  1  0
  4  5  2  0
  5  6  1  0
  6  7  2  0
  7  8  1  0
  8  9  2  0
  9 10  1  0
 10 11  3  0
 11 12  1  0
 12 13  2  0
 13 14  1  0
 14 15  2  0
 15 16  1  0
 15 17  1  0
 17 18  2  0
  9 19  1  0
 19 20  2  0
 20 21  1  0
 21 22  1  0
 22 23  2  0
 22 24  1  0
 24 25  1  0
 25 26  1  0
 26 27  1  0
 21  4  1  0
 20  6  1  0
 18 12  1  0
  1 28  1  0
  1 29  1  0
  5 30  1  0
  7 31  1  0
  8 32  1  0
 13 33  1  0
 14 34  1  0
 17 35  1  0
 18 36  1  0
 19 37  1  0
 25 38  1  0
 25 39  1  0
 26 40  1  0
 26 41  1  0
 27 42  1  0
M  END
>  <UniqueID>  (87) 
87

>  <SMILES>  (87) 
NC(=O)c1cc2ccc(C#Cc3ccc(F)cc3)cc2n1C(=O)OCCO

>  <Energy>  (87) 
75.2914882192211

>  <Genealogy>  (87) 
NC(=O)c1cc2ccc(C#Cc3ccc(F)cc3)cc2n1C(=O)OCCO (3D coordinates assigned)
NC(=O)c1cc2ccc(C#Cc3ccc(F)cc3)cc2n1C(=O)OCCO (optimized conformer: 75.2914882192211 kcal/mol)

>  <smiles>  (87) 
NC(=O)c1cc2ccc(C#Cc3ccc(F)cc3)cc2n1C(=O)OCCO

>  <score_type>  (87) 
oracle

>  <origin>  (87) 
adg

>  <m_score__min__energy>  (87) 
-9.2200000000000006

>  <m_primary>  (87) 
energy

$$$$
89:0
     RDKit          3D

 45 46  0  0  0  0  0  0  0  0999 V2000
   -8.7930   22.1060  -31.5880 C   0  0  0  0  0  0  0  0  0  0  0  0
   -7.3840   21.6850  -31.8830 C   0  0  0  0  0  0  0  0  0  0  0  0
   -7.1210   20.7700  -32.9320 C   0  0  0  0  0  0  0  0  0  0  0  0
   -5.8040   20.3850  -33.2330 C   0  0  0  0  0  0  0  0  0  0  0  0
   -4.7730   20.9470  -32.4840 C   0  0  0  0  0  0  0  0  0  0  0  0
   -3.4140   20.7350  -32.5440 C   0  0  0  0  0  0  0  0  0  0  0  0
   -2.8670   21.5510  -31.5550 C   0  0  0  0  0  0  0  0  0  0  0  0
   -1.4150   21.6900  -31.2910 C   0  0  0  0  0  0  0  0  0  0  0  0
   -0.9340   22.6000  -30.3000 N   0  0  0  0  0  0  0  0  0  0  0  0
   -0.5870   20.9890  -31.9300 O   0  0  0  0  0  0  0  0  0  0  0  0
   -3.8500   22.2460  -30.9170 N   0  0  0  0  0  0  0  0  0  0  0  0
   -3.7070   23.1410  -29.8020 C   0  0  0  0  0  0  0  0  0  0  0  0
   -3.8210   22.6920  -28.6300 O   0  0  0  0  0  0  0  0  0  0  0  0
   -3.4030   24.5700  -30.0300 C   0  0  0  0  0  0  0  0  0  0  0  0
   -4.1070   25.2190  -30.8460 O   0  0  0  0  0  0  0  0  0  0  0  0
   -2.3460   25.2550  -29.3440 N   0  0  0  0  0  0  0  0  0  0  0  0
   -1.9910   25.0720  -27.9430 C   0  0  0  0  0  0  0  0  0  0  0  0
   -0.7730   24.2000  -27.8510 C   0  0  0  0  0  0  0  0  0  0  0  0
    0.1190   24.3250  -28.7350 O   0  0  0  0  0  0  0  0  0  0  0  0
   -0.5840   23.2680  -26.7600 N   0  0  0  0  0  0  0  0  0  0  0  0
    0.3300   23.5790  -25.6560 C   0  0  0  0  0  0  0  0  0  0  0  0
   -1.2560   21.9600  -26.7760 C   0  0  0  0  0  0  0  0  0  0  0  0
   -0.5230   20.9820  -27.6970 C   0  0  0  0  0  0  0  0  0  0  0  0
    0.6200   21.5790  -28.2470 O   0  0  0  0  0  0  0  0  0  0  0  0
   -5.0100   21.8610  -31.4910 C   0  0  0  0  0  0  0  0  0  0  0  0
   -6.3120   22.2470  -31.1550 C   0  0  0  0  0  0  0  0  0  0  0  0
   -8.9420   22.1505  -30.4990 H   0  0  0  0  0  0  0  0  0  0  0  0
   -8.9781   23.0987  -32.0243 H   0  0  0  0  0  0  0  0  0  0  0  0
   -9.4923   21.3776  -32.0243 H   0  0  0  0  0  0  0  0  0  0  0  0
   -7.9563   20.3569  -33.5166 H   0  0  0  0  0  0  0  0  0  0  0  0
   -5.5936   19.6623  -34.0351 H   0  0  0  0  0  0  0  0  0  0  0  0
   -2.8740   20.0636  -33.2278 H   0  0  0  0  0  0  0  0  0  0  0  0
    0.0890   22.6610  -30.0990 H   0  0  0  0  0  0  0  0  0  0  0  0
   -1.5770   23.2460  -29.7940 H   0  0  0  0  0  0  0  0  0  0  0  0
   -1.7782   26.0501  -27.4868 H   0  0  0  0  0  0  0  0  0  0  0  0
   -2.8269   24.5957  -27.4097 H   0  0  0  0  0  0  0  0  0  0  0  0
   -0.1806   23.4053  -24.6973 H   0  0  0  0  0  0  0  0  0  0  0  0
    1.2174   22.9322  -25.7213 H   0  0  0  0  0  0  0  0  0  0  0  0
    0.6387   24.6328  -25.7213 H   0  0  0  0  0  0  0  0  0  0  0  0
   -1.2720   21.5506  -25.7552 H   0  0  0  0  0  0  0  0  0  0  0  0
   -2.2812   22.0956  -27.1511 H   0  0  0  0  0  0  0  0  0  0  0  0
   -0.2240   20.0960  -27.1177 H   0  0  0  0  0  0  0  0  0  0  0  0
   -1.1991   20.6936  -28.5154 H   0  0  0  0  0  0  0  0  0  0  0  0
    0.3470   22.4790  -28.5650 H   0  0  0  0  0  0  0  0  0  0  0  0
   -6.4960   22.9688  -30.3456 H   0  0  0  0  0  0  0  0  0  0  0  0
  1  2  1  0
  2  3  2  0
  3  4  1  0
  4  5  2  0
  5  6  1  0
  6  7  2  0
  7  8  1  0
  8  9  1  0
  8 10  2  0
  7 11  1  0
 11 12  1  0
 12 13  2  0
 12 14  1  0
 14 15  2  0
 14 16  1  0
 16 17  1  0
 17 18  1  0
 18 19  2  0
 18 20  1  0
 20 21  1  0
 20 22  1  0
 22 23  1  0
 23 24  1  0
 11 25  1  0
 25 26  2  0
 26  2  1  0
 25  5  1  0
  1 27  1  0
  1 28  1  0
  1 29  1  0
  3 30  1  0
  4 31  1  0
  6 32  1  0
  9 33  1  0
  9 34  1  0
 17 35  1  0
 17 36  1  0
 21 37  1  0
 21 38  1  0
 21 39  1  0
 22 40  1  0
 22 41  1  0
 23 42  1  0
 23 43  1  0
 24 44  1  0
 26 45  1  0
M  CHG  1  16  -1
M  END
>  <UniqueID>  (88) 
88

>  <SMILES>  (88) 
Cc1ccc2cc(C(N)=O)n(C(=O)C(=O)[N-]CC(=O)N(C)CCO)c2c1

>  <Energy>  (88) 
78.33452821616771

>  <Genealogy>  (88) 
Cc1ccc2cc(C(N)=O)n(C(=O)C(=O)[N-]CC(=O)N(C)CCO)c2c1 (protonated)
Cc1ccc2cc(C(N)=O)n(C(=O)C(=O)[N-]CC(=O)N(C)CCO)c2c1 (3D coordinates assigned)
Cc1ccc2cc(C(N)=O)n(C(=O)C(=O)[N-]CC(=O)N(C)CCO)c2c1 (optimized conformer: 78.33452821616771 kcal/mol)

>  <smiles>  (88) 
Cc1ccc2cc(C(N)=O)n(C(=O)C(=O)NCC(=O)N(C)CCO)c2c1

>  <score_type>  (88) 
oracle

>  <origin>  (88) 
adg

>  <m_score__min__energy>  (88) 
-9.0299999999999994

>  <m_primary>  (88) 
energy

$$$$
90:0
     RDKit          3D

 45 46  0  0  0  0  0  0  0  0999 V2000
   -6.7360   17.2670  -32.8460 C   0  0  0  0  0  0  0  0  0  0  0  0
   -6.8600   18.4360  -32.5810 C   0  0  0  0  0  0  0  0  0  0  0  0
   -7.0040   19.8320  -32.2610 C   0  0  0  0  0  0  0  0  0  0  0  0
   -8.2750   20.4500  -32.3480 C   0  0  0  0  0  0  0  0  0  0  0  0
   -8.4310   21.8090  -32.0210 C   0  0  0  0  0  0  0  0  0  0  0  0
   -7.3010   22.5140  -31.6130 C   0  0  0  0  0  0  0  0  0  0  0  0
   -7.1660   23.8260  -31.2120 C   0  0  0  0  0  0  0  0  0  0  0  0
   -5.8160   23.9770  -30.8920 C   0  0  0  0  0  0  0  0  0  0  0  0
   -5.2100   25.2390  -30.4220 C   0  0  0  0  0  0  0  0  0  0  0  0
   -3.8880   25.5860  -30.8280 N   0  0  0  0  0  0  0  0  0  0  0  0
   -5.8420   26.0090  -29.6520 O   0  0  0  0  0  0  0  0  0  0  0  0
   -5.1500   22.8080  -31.0940 N   0  0  0  0  0  0  0  0  0  0  0  0
   -3.7760   22.5210  -30.8090 C   0  0  0  0  0  0  0  0  0  0  0  0
   -2.8750   23.3010  -31.2200 O   0  0  0  0  0  0  0  0  0  0  0  0
   -3.4080   21.2540  -30.1000 C   0  0  0  0  0  0  0  0  0  0  0  0
   -1.9480   21.1360  -30.0140 N   0  0  0  0  0  0  0  0  0  0  0  0
   -1.1970   20.4710  -31.0840 C   0  0  0  0  0  0  0  0  0  0  0  0
   -1.2420   21.7260  -28.9090 C   0  0  0  0  0  0  0  0  0  0  0  0
   -1.1090   21.0840  -27.8300 O   0  0  0  0  0  0  0  0  0  0  0  0
   -0.6900   23.0070  -29.0400 O   0  0  0  0  0  0  0  0  0  0  0  0
   -0.4460   23.8850  -27.9420 C   0  0  0  0  0  0  0  0  0  0  0  0
   -1.4110   25.0790  -27.9760 C   0  0  1  0  0  0  0  0  0  0  0  0
   -1.6300   25.4670  -29.3070 O   0  0  0  0  0  0  0  0  0  0  0  0
   -2.7500   24.7070  -27.3180 C   0  0  0  0  0  0  0  0  0  0  0  0
   -3.7390   24.4980  -28.2900 O   0  0  0  0  0  0  0  0  0  0  0  0
   -6.0660   21.9240  -31.5330 C   0  0  0  0  0  0  0  0  0  0  0  0
   -5.8800   20.5750  -31.8500 C   0  0  0  0  0  0  0  0  0  0  0  0
   -6.6228   16.1999  -33.0879 H   0  0  0  0  0  0  0  0  0  0  0  0
   -9.1465   19.8631  -32.6736 H   0  0  0  0  0  0  0  0  0  0  0  0
   -9.4136   22.2993  -32.0854 H   0  0  0  0  0  0  0  0  0  0  0  0
   -7.9545   24.5910  -31.1561 H   0  0  0  0  0  0  0  0  0  0  0  0
   -3.0590   25.2630  -30.2820 H   0  0  0  0  0  0  0  0  0  0  0  0
   -3.8333   21.2669  -29.0856 H   0  0  0  0  0  0  0  0  0  0  0  0
   -3.8084   20.3961  -30.6601 H   0  0  0  0  0  0  0  0  0  0  0  0
   -0.4428   19.8032  -30.6422 H   0  0  0  0  0  0  0  0  0  0  0  0
   -1.8879   19.8831  -31.7062 H   0  0  0  0  0  0  0  0  0  0  0  0
   -0.6971   21.2280  -31.7062 H   0  0  0  0  0  0  0  0  0  0  0  0
   -0.5870   23.3336  -27.0007 H   0  0  0  0  0  0  0  0  0  0  0  0
    0.5850   24.2618  -28.0132 H   0  0  0  0  0  0  0  0  0  0  0  0
   -0.9635   25.9136  -27.4164 H   0  0  0  0  0  0  0  0  0  0  0  0
   -2.0750   24.7040  -29.7620 H   0  0  0  0  0  0  0  0  0  0  0  0
   -2.6202   23.7858  -26.7310 H   0  0  0  0  0  0  0  0  0  0  0  0
   -3.0651   25.5344  -26.6652 H   0  0  0  0  0  0  0  0  0  0  0  0
   -3.7980   25.3370  -28.8200 H   0  0  0  0  0  0  0  0  0  0  0  0
   -4.8864   20.1082  -31.7806 H   0  0  0  0  0  0  0  0  0  0  0  0
  1  2  3  0
  2  3  1  0
  3  4  2  0
  4  5  1  0
  5  6  2  0
  6  7  1  0
  7  8  2  0
  8  9  1  0
  9 10  1  0
  9 11  2  0
  8 12  1  0
 12 13  1  0
 13 14  2  0
 13 15  1  0
 15 16  1  0
 16 17  1  0
 16 18  1  0
 18 19  2  0
 18 20  1  0
 20 21  1  0
 21 22  1  0
 22 23  1  0
 22 24  1  0
 24 25  1  0
 12 26  1  0
 26 27  2  0
 27  3  1  0
 26  6  1  0
  1 28  1  0
  4 29  1  0
  5 30  1  0
  7 31  1  0
 10 32  1  0
 15 33  1  0
 15 34  1  0
 17 35  1  0
 17 36  1  0
 17 37  1  0
 21 38  1  0
 21 39  1  0
 22 40  1  1
 23 41  1  0
 24 42  1  0
 24 43  1  0
 25 44  1  0
 27 45  1  0
M  CHG  1  10  -1
M  END
>  <UniqueID>  (89) 
89

>  <SMILES>  (89) 
C#Cc1ccc2cc(C([NH-])=O)n(C(=O)CN(C)C(=O)OC[C@@H](O)CO)c2c1

>  <Energy>  (89) 
73.35738514518783

>  <Genealogy>  (89) 
C#Cc1ccc2cc(C([NH-])=O)n(C(=O)CN(C)C(=O)OCC(O)CO)c2c1 (protonated)
C#Cc1ccc2cc(C([NH-])=O)n(C(=O)CN(C)C(=O)OC[C@@H](O)CO)c2c1 (chirality)
C#Cc1ccc2cc(C([NH-])=O)n(C(=O)CN(C)C(=O)OC[C@@H](O)CO)c2c1 (3D coordinates assigned)
C#Cc1ccc2cc(C([NH-])=O)n(C(=O)CN(C)C(=O)OC[C@@H](O)CO)c2c1 (optimized conformer: 73.35738514518783 kcal/mol)

>  <smiles>  (89) 
C#Cc1ccc2cc(C(N)=O)n(C(=O)CN(C)C(=O)OCC(O)CO)c2c1

>  <score_type>  (89) 
oracle

>  <origin>  (89) 
adg

>  <m_score__min__energy>  (89) 
-9.9499999999999993

>  <m_primary>  (89) 
energy

$$$$
91:0
     RDKit          3D

 36 37  0  0  0  0  0  0  0  0999 V2000
   -7.6090   18.6330  -32.3380 C   0  0  0  0  0  0  0  0  0  0  0  0
   -7.5920   20.0990  -32.0210 C   0  0  0  0  0  0  0  0  0  0  0  0
   -8.7650   20.8780  -32.1680 C   0  0  0  0  0  0  0  0  0  0  0  0
   -8.7440   22.2590  -31.9070 C   0  0  0  0  0  0  0  0  0  0  0  0
   -7.5380   22.8280  -31.5060 C   0  0  0  0  0  0  0  0  0  0  0  0
   -7.2290   24.1380  -31.2170 C   0  0  0  0  0  0  0  0  0  0  0  0
   -5.8730   24.1350  -30.8960 C   0  0  0  0  0  0  0  0  0  0  0  0
   -5.1250   25.3390  -30.4750 C   0  0  0  0  0  0  0  0  0  0  0  0
   -3.7040   25.2930  -30.3750 N   0  0  0  0  0  0  0  0  0  0  0  0
   -5.7260   26.4150  -30.2170 O   0  0  0  0  0  0  0  0  0  0  0  0
   -5.3650   22.8730  -30.9810 N   0  0  0  0  0  0  0  0  0  0  0  0
   -4.0050   22.4660  -30.7700 C   0  0  0  0  0  0  0  0  0  0  0  0
   -3.0950   22.9390  -31.5030 O   0  0  0  0  0  0  0  0  0  0  0  0
   -3.6510   21.5880  -29.6020 C   0  0  0  0  0  0  0  0  0  0  0  0
   -4.1860   22.3030  -28.0050 S   0  0  0  0  0  0  0  0  0  0  0  0
   -2.7140   23.2950  -27.7770 C   0  0  0  0  0  0  0  0  0  0  0  0
   -1.5930   22.8340  -28.1260 O   0  0  0  0  0  0  0  0  0  0  0  0
   -2.8250   24.5720  -27.2170 O   0  0  0  0  0  0  0  0  0  0  0  0
   -1.7000   25.4060  -26.9470 C   0  0  0  0  0  0  0  0  0  0  0  0
   -0.8840   25.5930  -28.1850 C   0  0  0  0  0  0  0  0  0  0  0  0
   -1.2140   26.4560  -29.0390 O   0  0  0  0  0  0  0  0  0  0  0  0
    0.2630   24.8330  -28.3810 O   0  0  0  0  0  0  0  0  0  0  0  0
   -6.3950   22.0860  -31.3580 C   0  0  0  0  0  0  0  0  0  0  0  0
   -6.3840   20.7140  -31.6290 C   0  0  0  0  0  0  0  0  0  0  0  0
   -7.6157   18.0555  -31.4018 H   0  0  0  0  0  0  0  0  0  0  0  0
   -8.5100   18.3946  -32.9223 H   0  0  0  0  0  0  0  0  0  0  0  0
   -6.7138   18.3738  -32.9223 H   0  0  0  0  0  0  0  0  0  0  0  0
   -9.7012   20.3982  -32.4894 H   0  0  0  0  0  0  0  0  0  0  0  0
   -9.6516   22.8709  -32.0161 H   0  0  0  0  0  0  0  0  0  0  0  0
   -7.9081   25.0032  -31.2355 H   0  0  0  0  0  0  0  0  0  0  0  0
   -3.1130   25.0890  -31.2110 H   0  0  0  0  0  0  0  0  0  0  0  0
   -4.1397   20.6113  -29.7333 H   0  0  0  0  0  0  0  0  0  0  0  0
   -2.5557   21.4901  -29.5757 H   0  0  0  0  0  0  0  0  0  0  0  0
   -2.0517   26.3862  -26.5927 H   0  0  0  0  0  0  0  0  0  0  0  0
   -1.0770   24.9281  -26.1766 H   0  0  0  0  0  0  0  0  0  0  0  0
   -5.4569   20.1289  -31.5388 H   0  0  0  0  0  0  0  0  0  0  0  0
  1  2  1  0
  2  3  2  0
  3  4  1  0
  4  5  2  0
  5  6  1  0
  6  7  2  0
  7  8  1  0
  8  9  1  0
  8 10  2  0
  7 11  1  0
 11 12  1  0
 12 13  2  0
 12 14  1  0
 14 15  1  0
 15 16  1  0
 16 17  2  0
 16 18  1  0
 18 19  1  0
 19 20  1  0
 20 21  2  0
 20 22  1  0
 11 23  1  0
 23 24  2  0
 24  2  1  0
 23  5  1  0
  1 25  1  0
  1 26  1  0
  1 27  1  0
  3 28  1  0
  4 29  1  0
  6 30  1  0
  9 31  1  0
 14 32  1  0
 14 33  1  0
 19 34  1  0
 19 35  1  0
 24 36  1  0
M  CHG  2   9  -1  22  -1
M  END
>  <UniqueID>  (90) 
90

>  <SMILES>  (90) 
Cc1ccc2cc(C([NH-])=O)n(C(=O)CSC(=O)OCC(=O)[O-])c2c1

>  <Energy>  (90) 
68.17563490286233

>  <Genealogy>  (90) 
Cc1ccc2cc(C([NH-])=O)n(C(=O)CSC(=O)OCC(=O)[O-])c2c1 (protonated)
Cc1ccc2cc(C([NH-])=O)n(C(=O)CSC(=O)OCC(=O)[O-])c2c1 (3D coordinates assigned)
Cc1ccc2cc(C([NH-])=O)n(C(=O)CSC(=O)OCC(=O)[O-])c2c1 (optimized conformer: 68.17563490286233 kcal/mol)

>  <smiles>  (90) 
Cc1ccc2cc(C(N)=O)n(C(=O)CSC(=O)OCC(=O)O)c2c1

>  <score_type>  (90) 
oracle

>  <origin>  (90) 
adg

>  <m_score__min__energy>  (90) 
-12.07

>  <m_primary>  (90) 
energy

$$$$
92:0
     RDKit          3D

 57 58  0  0  0  0  0  0  0  0999 V2000
   -1.2100   20.5040  -34.2190 C   0  0  0  0  0  0  0  0  0  0  0  0
   -2.2660   19.8130  -33.4560 N   0  0  0  0  0  0  0  0  0  0  0  0
   -1.7910   19.5630  -32.0850 C   0  0  0  0  0  0  0  0  0  0  0  0
   -2.6450   18.5410  -34.1090 C   0  0  0  0  0  0  0  0  0  0  0  0
   -4.1690   18.4430  -34.2500 C   0  0  0  0  0  0  0  0  0  0  0  0
   -4.7860   17.6780  -33.0700 C   0  0  0  0  0  0  0  0  0  0  0  0
   -6.1830   18.0850  -32.8610 N   0  0  0  0  0  0  0  0  0  0  0  0
   -7.2420   17.0940  -33.0900 C   0  0  0  0  0  0  0  0  0  0  0  0
   -6.5180   19.4140  -32.3810 C   0  0  0  0  0  0  0  0  0  0  0  0
   -7.8770   19.8020  -32.2120 C   0  0  0  0  0  0  0  0  0  0  0  0
   -8.2130   21.0870  -31.7570 C   0  0  0  0  0  0  0  0  0  0  0  0
   -7.1790   21.9680  -31.4630 C   0  0  0  0  0  0  0  0  0  0  0  0
   -7.2220   23.2740  -31.0300 C   0  0  0  0  0  0  0  0  0  0  0  0
   -5.8900   23.6680  -30.9080 C   0  0  0  0  0  0  0  0  0  0  0  0
   -5.4590   24.9840  -30.3850 C   0  0  0  0  0  0  0  0  0  0  0  0
   -4.1620   25.5010  -30.6900 N   0  0  0  0  0  0  0  0  0  0  0  0
   -6.2460   25.6760  -29.6870 O   0  0  0  0  0  0  0  0  0  0  0  0
   -5.0600   22.6430  -31.2500 N   0  0  0  0  0  0  0  0  0  0  0  0
   -3.6250   22.6630  -31.3080 C   0  0  0  0  0  0  0  0  0  0  0  0
   -3.0360   22.2560  -32.3460 O   0  0  0  0  0  0  0  0  0  0  0  0
   -2.8960   23.1500  -30.2120 O   0  0  0  0  0  0  0  0  0  0  0  0
   -2.8060   22.5430  -28.9140 C   0  0  0  0  0  0  0  0  0  0  0  0
   -2.9240   21.0100  -29.0240 C   0  0  0  0  0  0  0  0  0  0  0  0
   -1.4250   22.8970  -28.3440 C   0  0  0  0  0  0  0  0  0  0  0  0
   -3.8920   23.1050  -27.9750 C   0  0  0  0  0  0  0  0  0  0  0  0
   -5.8640   21.6130  -31.5920 C   0  0  0  0  0  0  0  0  0  0  0  0
   -5.4990   20.3510  -32.0680 C   0  0  0  0  0  0  0  0  0  0  0  0
   -0.4984   20.9696  -33.5212 H   0  0  0  0  0  0  0  0  0  0  0  0
   -0.6802   19.7774  -34.8525 H   0  0  0  0  0  0  0  0  0  0  0  0
   -1.6637   21.2805  -34.8525 H   0  0  0  0  0  0  0  0  0  0  0  0
   -2.5273   19.9505  -31.3655 H   0  0  0  0  0  0  0  0  0  0  0  0
   -1.6637   18.4811  -31.9326 H   0  0  0  0  0  0  0  0  0  0  0  0
   -0.8271   20.0706  -31.9326 H   0  0  0  0  0  0  0  0  0  0  0  0
   -2.1854   18.4956  -35.1074 H   0  0  0  0  0  0  0  0  0  0  0  0
   -2.2904   17.7038  -33.4899 H   0  0  0  0  0  0  0  0  0  0  0  0
   -4.5928   19.4576  -34.2812 H   0  0  0  0  0  0  0  0  0  0  0  0
   -4.3995   17.8987  -35.1777 H   0  0  0  0  0  0  0  0  0  0  0  0
   -4.7519   16.5991  -33.2816 H   0  0  0  0  0  0  0  0  0  0  0  0
   -4.2110   17.9067  -32.1606 H   0  0  0  0  0  0  0  0  0  0  0  0
   -7.6245   16.7360  -32.1228 H   0  0  0  0  0  0  0  0  0  0  0  0
   -8.0611   17.5576  -33.6594 H   0  0  0  0  0  0  0  0  0  0  0  0
   -6.8337   16.2460  -33.6594 H   0  0  0  0  0  0  0  0  0  0  0  0
   -8.6773   19.0831  -32.4417 H   0  0  0  0  0  0  0  0  0  0  0  0
   -9.2642   21.3878  -31.6367 H   0  0  0  0  0  0  0  0  0  0  0  0
   -8.1175   23.8787  -30.8239 H   0  0  0  0  0  0  0  0  0  0  0  0
   -3.8820   26.4450  -30.3460 H   0  0  0  0  0  0  0  0  0  0  0  0
   -3.4620   24.9340  -31.2170 H   0  0  0  0  0  0  0  0  0  0  0  0
   -2.9577   20.5716  -28.0157 H   0  0  0  0  0  0  0  0  0  0  0  0
   -3.8447   20.7512  -29.5674 H   0  0  0  0  0  0  0  0  0  0  0  0
   -2.0537   20.6133  -29.5674 H   0  0  0  0  0  0  0  0  0  0  0  0
   -1.4682   22.8859  -27.2449 H   0  0  0  0  0  0  0  0  0  0  0  0
   -0.6857   22.1593  -28.6894 H   0  0  0  0  0  0  0  0  0  0  0  0
   -1.1317   23.8994  -28.6894 H   0  0  0  0  0  0  0  0  0  0  0  0
   -3.5893   22.9484  -26.9291 H   0  0  0  0  0  0  0  0  0  0  0  0
   -4.0180   24.1815  -28.1630 H   0  0  0  0  0  0  0  0  0  0  0  0
   -4.8436   22.5861  -28.1630 H   0  0  0  0  0  0  0  0  0  0  0  0
   -4.4389   20.0879  -32.1981 H   0  0  0  0  0  0  0  0  0  0  0  0
  1  2  1  0
  2  3  1  0
  2  4  1  0
  4  5  1  0
  5  6  1  0
  6  7  1  0
  7  8  1  0
  7  9  1  0
  9 10  2  0
 10 11  1  0
 11 12  2  0
 12 13  1  0
 13 14  2  0
 14 15  1  0
 15 16  1  0
 15 17  2  0
 14 18  1  0
 18 19  1  0
 19 20  2  0
 19 21  1  0
 21 22  1  0
 22 23  1  0
 22 24  1  0
 22 25  1  0
 18 26  1  0
 26 27  2  0
 27  9  1  0
 26 12  1  0
  1 28  1  0
  1 29  1  0
  1 30  1  0
  3 31  1  0
  3 32  1  0
  3 33  1  0
  4 34  1  0
  4 35  1  0
  5 36  1  0
  5 37  1  0
  6 38  1  0
  6 39  1  0
  8 40  1  0
  8 41  1  0
  8 42  1  0
 10 43  1  0
 11 44  1  0
 13 45  1  0
 16 46  1  0
 16 47  1  0
 23 48  1  0
 23 49  1  0
 23 50  1  0
 24 51  1  0
 24 52  1  0
 24 53  1  0
 25 54  1  0
 25 55  1  0
 25 56  1  0
 27 57  1  0
M  END
>  <UniqueID>  (91) 
91

>  <SMILES>  (91) 
CN(C)CCCN(C)c1ccc2cc(C(N)=O)n(C(=O)OC(C)(C)C)c2c1

>  <Energy>  (91) 
87.9483267519623

>  <Genealogy>  (91) 
CN(C)CCCN(C)c1ccc2cc(C(N)=O)n(C(=O)OC(C)(C)C)c2c1 (3D coordinates assigned)
CN(C)CCCN(C)c1ccc2cc(C(N)=O)n(C(=O)OC(C)(C)C)c2c1 (optimized conformer: 87.9483267519623 kcal/mol)

>  <smiles>  (91) 
CN(C)CCCN(C)c1ccc2cc(C(N)=O)n(C(=O)OC(C)(C)C)c2c1

>  <score_type>  (91) 
oracle

>  <origin>  (91) 
adg

>  <m_score__min__energy>  (91) 
-8.8900000000000006

>  <m_primary>  (91) 
energy

$$$$
93:0
     RDKit          3D

 51 52  0  0  0  0  0  0  0  0999 V2000
   -5.7560   18.4780  -34.4590 C   0  0  0  0  0  0  0  0  0  0  0  0
   -6.5990   18.6230  -33.2660 N   0  0  0  0  0  0  0  0  0  0  0  0
   -7.1650   17.4170  -32.6470 C   0  0  0  0  0  0  0  0  0  0  0  0
   -6.8690   19.9360  -32.7070 C   0  0  0  0  0  0  0  0  0  0  0  0
   -8.2020   20.4290  -32.6220 C   0  0  0  0  0  0  0  0  0  0  0  0
   -8.4740   21.6930  -32.0730 C   0  0  0  0  0  0  0  0  0  0  0  0
   -7.4040   22.4540  -31.6220 C   0  0  0  0  0  0  0  0  0  0  0  0
   -7.3890   23.6940  -31.0240 C   0  0  0  0  0  0  0  0  0  0  0  0
   -6.0470   23.9640  -30.7690 C   0  0  0  0  0  0  0  0  0  0  0  0
   -5.5680   25.2400  -30.1980 C   0  0  0  0  0  0  0  0  0  0  0  0
   -4.2520   25.7170  -30.4660 N   0  0  0  0  0  0  0  0  0  0  0  0
   -6.3480   25.9440  -29.5030 O   0  0  0  0  0  0  0  0  0  0  0  0
   -5.2640   22.9290  -31.1870 N   0  0  0  0  0  0  0  0  0  0  0  0
   -3.8460   22.7790  -31.0150 C   0  0  0  0  0  0  0  0  0  0  0  0
   -3.1000   23.7960  -31.0260 O   0  0  0  0  0  0  0  0  0  0  0  0
   -3.2980   21.5010  -30.8520 O   0  0  0  0  0  0  0  0  0  0  0  0
   -3.0980   20.8880  -29.5800 C   0  0  0  0  0  0  0  0  0  0  0  0
   -1.7990   21.3840  -28.9420 C   0  0  0  0  0  0  0  0  0  0  0  0
   -1.8070   22.7970  -28.8550 O   0  0  0  0  0  0  0  0  0  0  0  0
   -0.4900   23.3040  -28.9100 C   0  0  0  0  0  0  0  0  0  0  0  0
   -0.5130   24.7920  -28.5700 C   0  0  0  0  0  0  0  0  0  0  0  0
   -1.8480   25.2580  -28.5070 O   0  0  0  0  0  0  0  0  0  0  0  0
   -2.3080   25.2710  -27.1720 C   0  0  0  0  0  0  0  0  0  0  0  0
   -3.5950   24.4590  -27.0790 C   0  0  0  0  0  0  0  0  0  0  0  0
   -4.0020   24.0420  -28.3540 O   0  0  0  0  0  0  0  0  0  0  0  0
   -6.1110   22.0140  -31.7080 C   0  0  0  0  0  0  0  0  0  0  0  0
   -5.8090   20.7510  -32.2320 C   0  0  0  0  0  0  0  0  0  0  0  0
   -4.7148   18.2989  -34.1527 H   0  0  0  0  0  0  0  0  0  0  0  0
   -6.1130   17.6281  -35.0591 H   0  0  0  0  0  0  0  0  0  0  0  0
   -5.8085   19.3984  -35.0591 H   0  0  0  0  0  0  0  0  0  0  0  0
   -7.1206   17.5116  -31.5520 H   0  0  0  0  0  0  0  0  0  0  0  0
   -8.2122   17.2998  -32.9628 H   0  0  0  0  0  0  0  0  0  0  0  0
   -6.5861   16.5366  -32.9628 H   0  0  0  0  0  0  0  0  0  0  0  0
   -9.0324   19.8099  -32.9923 H   0  0  0  0  0  0  0  0  0  0  0  0
   -9.5053   22.0691  -32.0024 H   0  0  0  0  0  0  0  0  0  0  0  0
   -8.2533   24.3351  -30.7961 H   0  0  0  0  0  0  0  0  0  0  0  0
   -3.4850   25.5970  -29.7690 H   0  0  0  0  0  0  0  0  0  0  0  0
   -3.9428   21.1380  -28.9213 H   0  0  0  0  0  0  0  0  0  0  0  0
   -3.0323   19.7986  -29.7175 H   0  0  0  0  0  0  0  0  0  0  0  0
   -1.7041   20.9581  -27.9323 H   0  0  0  0  0  0  0  0  0  0  0  0
   -0.9490   21.0669  -29.5640 H   0  0  0  0  0  0  0  0  0  0  0  0
    0.1409   22.7700  -28.1842 H   0  0  0  0  0  0  0  0  0  0  0  0
   -0.0798   23.1611  -29.9206 H   0  0  0  0  0  0  0  0  0  0  0  0
   -0.0266   24.9498  -27.5961 H   0  0  0  0  0  0  0  0  0  0  0  0
    0.0247   25.3475  -29.3525 H   0  0  0  0  0  0  0  0  0  0  0  0
   -1.5448   24.8279  -26.5153 H   0  0  0  0  0  0  0  0  0  0  0  0
   -2.5004   26.3072  -26.8568 H   0  0  0  0  0  0  0  0  0  0  0  0
   -3.4216   23.5757  -26.4468 H   0  0  0  0  0  0  0  0  0  0  0  0
   -4.3834   25.0883  -26.6404 H   0  0  0  0  0  0  0  0  0  0  0  0
   -3.3350   24.3990  -28.9970 H   0  0  0  0  0  0  0  0  0  0  0  0
   -4.7684   20.3969  -32.2746 H   0  0  0  0  0  0  0  0  0  0  0  0
  1  2  1  0
  2  3  1  0
  2  4  1  0
  4  5  2  0
  5  6  1  0
  6  7  2  0
  7  8  1  0
  8  9  2  0
  9 10  1  0
 10 11  1  0
 10 12  2  0
  9 13  1  0
 13 14  1  0
 14 15  2  0
 14 16  1  0
 16 17  1  0
 17 18  1  0
 18 19  1  0
 19 20  1  0
 20 21  1  0
 21 22  1  0
 22 23  1  0
 23 24  1  0
 24 25  1  0
 13 26  1  0
 26 27  2  0
 27  4  1  0
 26  7  1  0
  1 28  1  0
  1 29  1  0
  1 30  1  0
  3 31  1  0
  3 32  1  0
  3 33  1  0
  5 34  1  0
  6 35  1  0
  8 36  1  0
 11 37  1  0
 17 38  1  0
 17 39  1  0
 18 40  1  0
 18 41  1  0
 20 42  1  0
 20 43  1  0
 21 44  1  0
 21 45  1  0
 23 46  1  0
 23 47  1  0
 24 48  1  0
 24 49  1  0
 25 50  1  0
 27 51  1  0
M  CHG  1  11  -1
M  END
>  <UniqueID>  (92) 
92

>  <SMILES>  (92) 
CN(C)c1ccc2cc(C([NH-])=O)n(C(=O)OCCOCCOCCO)c2c1

>  <Energy>  (92) 
87.61808839802856

>  <Genealogy>  (92) 
CN(C)c1ccc2cc(C([NH-])=O)n(C(=O)OCCOCCOCCO)c2c1 (protonated)
CN(C)c1ccc2cc(C([NH-])=O)n(C(=O)OCCOCCOCCO)c2c1 (3D coordinates assigned)
CN(C)c1ccc2cc(C([NH-])=O)n(C(=O)OCCOCCOCCO)c2c1 (optimized conformer: 87.61808839802856 kcal/mol)

>  <smiles>  (92) 
CN(C)c1ccc2cc(C(N)=O)n(C(=O)OCCOCCOCCO)c2c1

>  <score_type>  (92) 
oracle

>  <origin>  (92) 
adg

>  <m_score__min__energy>  (92) 
-9.8000000000000007

>  <m_primary>  (92) 
energy

$$$$
94:0
     RDKit          3D

 52 54  0  0  0  0  0  0  0  0999 V2000
   -7.2690   17.2700  -32.6580 C   0  0  0  0  0  0  0  0  0  0  0  0
   -6.2420   18.3100  -32.8550 N   0  0  0  0  0  0  0  0  0  0  0  0
   -4.9190   17.9090  -33.3680 C   0  0  0  0  0  0  0  0  0  0  0  0
   -4.9570   17.6300  -34.8750 C   0  0  0  0  0  0  0  0  0  0  0  0
   -5.7130   18.6020  -35.5340 O   0  0  0  0  0  0  0  0  0  0  0  0
   -6.5010   19.6800  -32.4370 C   0  0  0  0  0  0  0  0  0  0  0  0
   -7.8300   20.2000  -32.4260 C   0  0  0  0  0  0  0  0  0  0  0  0
   -8.0940   21.5300  -32.0580 C   0  0  0  0  0  0  0  0  0  0  0  0
   -7.0210   22.3250  -31.6900 C   0  0  0  0  0  0  0  0  0  0  0  0
   -7.0030   23.6340  -31.2690 C   0  0  0  0  0  0  0  0  0  0  0  0
   -5.6650   23.9120  -30.9970 C   0  0  0  0  0  0  0  0  0  0  0  0
   -5.1800   25.2190  -30.5190 C   0  0  0  0  0  0  0  0  0  0  0  0
   -3.8690   25.6760  -30.8480 N   0  0  0  0  0  0  0  0  0  0  0  0
   -5.9370   25.9590  -29.8280 O   0  0  0  0  0  0  0  0  0  0  0  0
   -4.8920   22.8160  -31.2370 N   0  0  0  0  0  0  0  0  0  0  0  0
   -3.5130   22.6510  -30.8710 C   0  0  0  0  0  0  0  0  0  0  0  0
   -2.6900   22.2900  -31.7580 O   0  0  0  0  0  0  0  0  0  0  0  0
   -3.0720   22.8050  -29.4980 N   0  0  0  0  0  0  0  0  0  0  0  0
   -4.0530   22.5480  -28.4250 C   0  0  0  0  0  0  0  0  0  0  0  0
   -1.7250   23.3230  -29.1810 C   0  0  2  0  0  0  0  0  0  0  0  0
   -0.8620   22.2860  -28.4580 C   0  0  0  0  0  0  0  0  0  0  0  0
    0.0300   23.0720  -27.5140 C   0  0  0  0  0  0  0  0  0  0  0  0
   -0.7250   24.3580  -27.1850 C   0  0  0  0  0  0  0  0  0  0  0  0
   -1.7630   24.5770  -28.2890 C   0  0  1  0  0  0  0  0  0  0  0  0
   -1.4280   25.7120  -29.0570 O   0  0  0  0  0  0  0  0  0  0  0  0
   -5.7330   21.8520  -31.6650 C   0  0  0  0  0  0  0  0  0  0  0  0
   -5.4380   20.5300  -32.0230 C   0  0  0  0  0  0  0  0  0  0  0  0
   -7.4270   17.1100  -31.5812 H   0  0  0  0  0  0  0  0  0  0  0  0
   -8.2121   17.5932  -33.1229 H   0  0  0  0  0  0  0  0  0  0  0  0
   -6.9339   16.3311  -33.1229 H   0  0  0  0  0  0  0  0  0  0  0  0
   -4.2005   18.7188  -33.1732 H   0  0  0  0  0  0  0  0  0  0  0  0
   -4.6179   16.9837  -32.8550 H   0  0  0  0  0  0  0  0  0  0  0  0
   -3.9307   17.6398  -35.2709 H   0  0  0  0  0  0  0  0  0  0  0  0
   -5.4191   16.6460  -35.0428 H   0  0  0  0  0  0  0  0  0  0  0  0
   -6.6190   18.5670  -35.1300 H   0  0  0  0  0  0  0  0  0  0  0  0
   -8.6662   19.5450  -32.7120 H   0  0  0  0  0  0  0  0  0  0  0  0
   -9.1198   21.9272  -32.0620 H   0  0  0  0  0  0  0  0  0  0  0  0
   -7.8607   24.3153  -31.1685 H   0  0  0  0  0  0  0  0  0  0  0  0
   -3.0230   25.2690  -30.3870 H   0  0  0  0  0  0  0  0  0  0  0  0
   -3.5675   22.6752  -27.4462 H   0  0  0  0  0  0  0  0  0  0  0  0
   -4.8888   23.2575  -28.5147 H   0  0  0  0  0  0  0  0  0  0  0  0
   -4.4336   21.5198  -28.5147 H   0  0  0  0  0  0  0  0  0  0  0  0
   -1.2895   23.5725  -30.1598 H   0  0  0  0  0  0  0  0  0  0  0  0
   -1.4964   21.5877  -27.8924 H   0  0  0  0  0  0  0  0  0  0  0  0
   -0.2713   21.6873  -29.1670 H   0  0  0  0  0  0  0  0  0  0  0  0
    0.2169   22.4944  -26.5967 H   0  0  0  0  0  0  0  0  0  0  0  0
    1.0068   23.2870  -27.9719 H   0  0  0  0  0  0  0  0  0  0  0  0
   -1.2272   24.2601  -26.2113 H   0  0  0  0  0  0  0  0  0  0  0  0
   -0.0324   25.2107  -27.1295 H   0  0  0  0  0  0  0  0  0  0  0  0
   -2.7630   24.7399  -27.8606 H   0  0  0  0  0  0  0  0  0  0  0  0
   -1.9950   25.6920  -29.8710 H   0  0  0  0  0  0  0  0  0  0  0  0
   -4.4041   20.1564  -31.9847 H   0  0  0  0  0  0  0  0  0  0  0  0
  1  2  1  0
  2  3  1  0
  3  4  1  0
  4  5  1  0
  2  6  1  0
  6  7  2  0
  7  8  1  0
  8  9  2  0
  9 10  1  0
 10 11  2  0
 11 12  1  0
 12 13  1  0
 12 14  2  0
 11 15  1  0
 15 16  1  0
 16 17  2  0
 16 18  1  0
 18 19  1  0
 18 20  1  0
 20 21  1  0
 21 22  1  0
 22 23  1  0
 23 24  1  0
 24 25  1  0
 15 26  1  0
 26 27  2  0
 27  6  1  0
 26  9  1  0
 24 20  1  0
  1 28  1  0
  1 29  1  0
  1 30  1  0
  3 31  1  0
  3 32  1  0
  4 33  1  0
  4 34  1  0
  5 35  1  0
  7 36  1  0
  8 37  1  0
 10 38  1  0
 13 39  1  0
 19 40  1  0
 19 41  1  0
 19 42  1  0
 20 43  1  6
 21 44  1  0
 21 45  1  0
 22 46  1  0
 22 47  1  0
 23 48  1  0
 23 49  1  0
 24 50  1  1
 25 51  1  0
 27 52  1  0
M  CHG  1  13  -1
M  END
>  <UniqueID>  (93) 
93

>  <SMILES>  (93) 
CN(CCO)c1ccc2cc(C([NH-])=O)n(C(=O)N(C)[C@@H]3CCC[C@H]3O)c2c1

>  <Energy>  (93) 
97.73794273374372

>  <Genealogy>  (93) 
CN(CCO)c1ccc2cc(C([NH-])=O)n(C(=O)N(C)[C@@H]3CCCC3O)c2c1 (protonated)
CN(CCO)c1ccc2cc(C([NH-])=O)n(C(=O)N(C)[C@@H]3CCC[C@H]3O)c2c1 (chirality)
CN(CCO)c1ccc2cc(C([NH-])=O)n(C(=O)N(C)[C@@H]3CCC[C@H]3O)c2c1 (3D coordinates assigned)
CN(CCO)c1ccc2cc(C([NH-])=O)n(C(=O)N(C)[C@@H]3CCC[C@H]3O)c2c1 (nonaromatic ring conformer: 97.73794273374372 kcal/mol)

>  <smiles>  (93) 
CN(CCO)c1ccc2cc(C(N)=O)n(C(=O)N(C)[C@@H]3CCCC3O)c2c1

>  <score_type>  (93) 
oracle

>  <origin>  (93) 
adg

>  <m_score__min__energy>  (93) 
-11.9

>  <m_primary>  (93) 
energy

$$$$
95:0
     RDKit          3D

 33 34  0  0  0  0  0  0  0  0999 V2000
   -5.8290   25.0260  -29.0220 N   0  0  0  0  0  0  0  0  0  0  0  0
   -6.0950   24.7230  -30.3930 C   0  0  0  0  0  0  0  0  0  0  0  0
   -6.0660   25.6560  -31.2380 O   0  0  0  0  0  0  0  0  0  0  0  0
   -6.4090   23.3380  -30.8220 C   0  0  0  0  0  0  0  0  0  0  0  0
   -7.7010   22.8240  -30.9390 C   0  0  0  0  0  0  0  0  0  0  0  0
   -7.5410   21.5310  -31.3840 C   0  0  0  0  0  0  0  0  0  0  0  0
   -8.4920   20.5480  -31.6390 C   0  0  0  0  0  0  0  0  0  0  0  0
   -8.0390   19.2800  -32.0400 C   0  0  0  0  0  0  0  0  0  0  0  0
   -6.6520   19.0200  -32.1750 C   0  0  0  0  0  0  0  0  0  0  0  0
   -6.1770   17.6450  -32.5530 C   0  0  0  0  0  0  0  0  0  0  0  0
   -6.2830   17.4540  -34.0320 C   0  0  0  0  0  0  0  0  0  0  0  0
   -6.8400   16.4270  -34.5010 O   0  0  0  0  0  0  0  0  0  0  0  0
   -5.8100   18.4350  -34.8940 O   0  0  0  0  0  0  0  0  0  0  0  0
   -5.7160   20.0390  -31.8950 C   0  0  0  0  0  0  0  0  0  0  0  0
   -6.1980   21.2990  -31.5240 C   0  0  0  0  0  0  0  0  0  0  0  0
   -5.4910   22.4010  -31.1940 N   0  0  0  0  0  0  0  0  0  0  0  0
   -4.0610   22.5270  -31.1820 C   0  0  0  0  0  0  0  0  0  0  0  0
   -3.4310   22.6080  -32.2700 O   0  0  0  0  0  0  0  0  0  0  0  0
   -3.3010   22.5010  -29.8890 C   0  0  0  0  0  0  0  0  0  0  0  0
   -2.9150   24.1940  -29.3530 P   0  0  0  0  0  0  0  0  0  0  0  0
   -3.5790   24.4770  -28.0250 O   0  0  0  0  0  0  0  0  0  0  0  0
   -1.2400   24.3580  -29.1880 O   0  0  0  0  0  0  0  0  0  0  0  0
   -3.4710   25.2950  -30.5100 O   0  0  0  0  0  0  0  0  0  0  0  0
   -5.7650   24.2780  -28.2970 H   0  0  0  0  0  0  0  0  0  0  0  0
   -5.6460   26.0130  -28.7330 H   0  0  0  0  0  0  0  0  0  0  0  0
   -8.6468   23.3420  -30.7218 H   0  0  0  0  0  0  0  0  0  0  0  0
   -9.5664   20.7573  -31.5299 H   0  0  0  0  0  0  0  0  0  0  0  0
   -8.7666   18.4824  -32.2509 H   0  0  0  0  0  0  0  0  0  0  0  0
   -5.1279   17.5249  -32.2448 H   0  0  0  0  0  0  0  0  0  0  0  0
   -6.8036   16.8957  -32.0471 H   0  0  0  0  0  0  0  0  0  0  0  0
   -4.6352   19.8473  -31.9667 H   0  0  0  0  0  0  0  0  0  0  0  0
   -3.9112   22.0064  -29.1189 H   0  0  0  0  0  0  0  0  0  0  0  0
   -2.3614   21.9484  -30.0363 H   0  0  0  0  0  0  0  0  0  0  0  0
  1  2  1  0
  2  3  2  0
  2  4  1  0
  4  5  2  0
  5  6  1  0
  6  7  2  0
  7  8  1  0
  8  9  2  0
  9 10  1  0
 10 11  1  0
 11 12  2  0
 11 13  1  0
  9 14  1  0
 14 15  2  0
 15 16  1  0
 16 17  1  0
 17 18  2  0
 17 19  1  0
 19 20  1  0
 20 21  2  0
 20 22  1  0
 20 23  1  0
 16  4  1  0
 15  6  1  0
  1 24  1  0
  1 25  1  0
  5 26  1  0
  7 27  1  0
  8 28  1  0
 10 29  1  0
 10 30  1  0
 14 31  1  0
 19 32  1  0
 19 33  1  0
M  CHG  3  13  -1  22  -1  23  -1
M  END
>  <UniqueID>  (94) 
94

>  <SMILES>  (94) 
NC(=O)c1cc2ccc(CC(=O)[O-])cc2n1C(=O)CP(=O)([O-])[O-]

>  <Energy>  (94) 
65.84444865619817

>  <Genealogy>  (94) 
NC(=O)c1cc2ccc(CC(=O)[O-])cc2n1C(=O)CP(=O)([O-])[O-] (protonated)
NC(=O)c1cc2ccc(CC(=O)[O-])cc2n1C(=O)CP(=O)([O-])[O-] (3D coordinates assigned)
NC(=O)c1cc2ccc(CC(=O)[O-])cc2n1C(=O)CP(=O)([O-])[O-] (optimized conformer: 65.84444865619817 kcal/mol)

>  <smiles>  (94) 
NC(=O)c1cc2ccc(CC(=O)O)cc2n1C(=O)CP(=O)(O)O

>  <score_type>  (94) 
oracle

>  <origin>  (94) 
adg

>  <m_score__min__energy>  (94) 
-12.109999999999999

>  <m_primary>  (94) 
energy

$$$$
96:0
     RDKit          3D

 39 41  0  0  0  0  0  0  0  0999 V2000
   -3.6280   25.2790  -30.4650 N   0  0  0  0  0  0  0  0  0  0  0  0
   -5.0480   25.3440  -30.5630 C   0  0  0  0  0  0  0  0  0  0  0  0
   -5.6400   26.4110  -30.2480 O   0  0  0  0  0  0  0  0  0  0  0  0
   -5.8360   24.1650  -30.9760 C   0  0  0  0  0  0  0  0  0  0  0  0
   -7.2300   24.1390  -30.9910 C   0  0  0  0  0  0  0  0  0  0  0  0
   -7.5670   22.8560  -31.3550 C   0  0  0  0  0  0  0  0  0  0  0  0
   -8.8180   22.2750  -31.5380 C   0  0  0  0  0  0  0  0  0  0  0  0
   -8.8670   20.9330  -31.9520 C   0  0  0  0  0  0  0  0  0  0  0  0
   -7.6770   20.2060  -32.1970 C   0  0  0  0  0  0  0  0  0  0  0  0
   -7.7640   18.8330  -32.6130 N   0  0  0  0  0  0  0  0  0  0  0  0
   -6.6980   18.1110  -33.2530 C   0  0  0  0  0  0  0  0  0  0  0  0
   -6.1860   16.9210  -32.7120 C   0  0  0  0  0  0  0  0  0  0  0  0
   -5.1350   16.2580  -33.3510 C   0  0  0  0  0  0  0  0  0  0  0  0
   -4.5930   16.8010  -34.5170 C   0  0  0  0  0  0  0  0  0  0  0  0
   -3.2730   15.9910  -35.3370 Cl  0  0  0  0  0  0  0  0  0  0  0  0
   -5.0810   17.9670  -35.0160 N   0  0  0  0  0  0  0  0  0  0  0  0
   -6.1050   18.6290  -34.4140 C   0  0  0  0  0  0  0  0  0  0  0  0
   -6.4230   20.8240  -31.9760 C   0  0  0  0  0  0  0  0  0  0  0  0
   -6.4040   22.1560  -31.5490 C   0  0  0  0  0  0  0  0  0  0  0  0
   -5.3330   22.9460  -31.3210 N   0  0  0  0  0  0  0  0  0  0  0  0
   -3.9580   22.5910  -31.5260 C   0  0  0  0  0  0  0  0  0  0  0  0
   -3.1700   22.5330  -30.5430 O   0  0  0  0  0  0  0  0  0  0  0  0
   -3.5050   22.2870  -32.8160 O   0  0  0  0  0  0  0  0  0  0  0  0
   -2.5230   21.2900  -33.0890 C   0  0  0  0  0  0  0  0  0  0  0  0
   -3.1760   19.9240  -33.2730 C   0  0  0  0  0  0  0  0  0  0  0  0
   -3.7190   19.4960  -32.0750 F   0  0  0  0  0  0  0  0  0  0  0  0
   -3.0760   24.6440  -31.0840 H   0  0  0  0  0  0  0  0  0  0  0  0
   -7.9149   24.9684  -30.7607 H   0  0  0  0  0  0  0  0  0  0  0  0
   -9.7403   22.8486  -31.3639 H   0  0  0  0  0  0  0  0  0  0  0  0
   -9.8417   20.4414  -32.0874 H   0  0  0  0  0  0  0  0  0  0  0  0
   -8.6620   18.3260  -32.4380 H   0  0  0  0  0  0  0  0  0  0  0  0
   -6.6123   16.5104  -31.7848 H   0  0  0  0  0  0  0  0  0  0  0  0
   -4.7389   15.3179  -32.9394 H   0  0  0  0  0  0  0  0  0  0  0  0
   -6.4701   19.5754  -34.8395 H   0  0  0  0  0  0  0  0  0  0  0  0
   -5.4861   20.2703  -32.1361 H   0  0  0  0  0  0  0  0  0  0  0  0
   -1.9824   21.5583  -34.0087 H   0  0  0  0  0  0  0  0  0  0  0  0
   -1.8277   21.2371  -32.2383 H   0  0  0  0  0  0  0  0  0  0  0  0
   -3.9724   19.9993  -34.0281 H   0  0  0  0  0  0  0  0  0  0  0  0
   -2.4160   19.2012  -33.6046 H   0  0  0  0  0  0  0  0  0  0  0  0
  1  2  1  0
  2  3  2  0
  2  4  1  0
  4  5  2  0
  5  6  1  0
  6  7  2  0
  7  8  1  0
  8  9  2  0
  9 10  1  0
 10 11  1  0
 11 12  2  0
 12 13  1  0
 13 14  2  0
 14 15  1  0
 14 16  1  0
 16 17  2  0
  9 18  1  0
 18 19  2  0
 19 20  1  0
 20 21  1  0
 21 22  2  0
 21 23  1  0
 23 24  1  0
 24 25  1  0
 25 26  1  0
 20  4  1  0
 19  6  1  0
 17 11  1  0
  1 27  1  0
  5 28  1  0
  7 29  1  0
  8 30  1  0
 10 31  1  0
 12 32  1  0
 13 33  1  0
 17 34  1  0
 18 35  1  0
 24 36  1  0
 24 37  1  0
 25 38  1  0
 25 39  1  0
M  CHG  1   1  -1
M  END
>  <UniqueID>  (95) 
95

>  <SMILES>  (95) 
[NH-]C(=O)c1cc2ccc(Nc3ccc(Cl)nc3)cc2n1C(=O)OCCF

>  <Energy>  (95) 
82.54717982047981

>  <Genealogy>  (95) 
[NH-]C(=O)c1cc2ccc(Nc3ccc(Cl)nc3)cc2n1C(=O)OCCF (protonated)
[NH-]C(=O)c1cc2ccc(Nc3ccc(Cl)nc3)cc2n1C(=O)OCCF (3D coordinates assigned)
[NH-]C(=O)c1cc2ccc(Nc3ccc(Cl)nc3)cc2n1C(=O)OCCF (optimized conformer: 82.54717982047981 kcal/mol)

>  <smiles>  (95) 
NC(=O)c1cc2ccc(Nc3ccc(Cl)nc3)cc2n1C(=O)OCCF

>  <score_type>  (95) 
oracle

>  <origin>  (95) 
adg

>  <m_score__min__energy>  (95) 
-10.880000000000001

>  <m_primary>  (95) 
energy

$$$$
97:0
     RDKit          3D

 38 39  0  0  0  0  0  0  0  0999 V2000
   -6.5600   18.2000  -31.2280 C   0  0  0  0  0  0  0  0  0  0  0  0
   -7.4530   19.1210  -32.0910 C   0  0  0  0  0  0  0  0  0  0  0  0
   -8.3020   20.0090  -31.1640 C   0  0  0  0  0  0  0  0  0  0  0  0
   -8.3500   18.3040  -32.9190 N   0  0  0  0  0  0  0  0  0  0  0  0
   -6.6270   20.0170  -33.0020 C   0  0  0  0  0  0  0  0  0  0  0  0
   -7.2140   20.7970  -33.8000 O   0  0  0  0  0  0  0  0  0  0  0  0
   -5.1920   20.0200  -32.9600 N   0  0  0  0  0  0  0  0  0  0  0  0
   -4.3370   19.2330  -33.6700 C   0  0  0  0  0  0  0  0  0  0  0  0
   -4.7450   18.1470  -34.5910 C   0  0  0  0  0  0  0  0  0  0  0  0
   -6.1130   17.9790  -34.9690 N   0  0  0  0  0  0  0  0  0  0  0  0
   -3.8790   17.3650  -35.0660 O   0  0  0  0  0  0  0  0  0  0  0  0
   -3.0150   19.5690  -33.3750 C   0  0  0  0  0  0  0  0  0  0  0  0
   -3.0940   20.5830  -32.4460 C   0  0  0  0  0  0  0  0  0  0  0  0
   -2.0860   21.2910  -31.7990 C   0  0  0  0  0  0  0  0  0  0  0  0
   -2.4640   22.2830  -30.8780 C   0  0  0  0  0  0  0  0  0  0  0  0
   -3.8340   22.5360  -30.6100 C   0  0  0  0  0  0  0  0  0  0  0  0
   -4.2280   23.6190  -29.6470 C   0  0  0  0  0  0  0  0  0  0  0  0
   -3.5340   24.8960  -29.9990 C   0  0  0  0  0  0  0  0  0  0  0  0
   -4.0260   25.6670  -30.8630 O   0  0  0  0  0  0  0  0  0  0  0  0
   -2.3660   25.2570  -29.3380 O   0  0  0  0  0  0  0  0  0  0  0  0
   -4.8290   21.8010  -31.2910 C   0  0  0  0  0  0  0  0  0  0  0  0
   -4.4200   20.8300  -32.2090 C   0  0  0  0  0  0  0  0  0  0  0  0
   -6.7512   18.3972  -30.1628 H   0  0  0  0  0  0  0  0  0  0  0  0
   -6.7915   17.1486  -31.4536 H   0  0  0  0  0  0  0  0  0  0  0  0
   -5.5019   18.3990  -31.4536 H   0  0  0  0  0  0  0  0  0  0  0  0
   -8.0726   19.7691  -30.1153 H   0  0  0  0  0  0  0  0  0  0  0  0
   -8.0709   21.0670  -31.3571 H   0  0  0  0  0  0  0  0  0  0  0  0
   -9.3693   19.8256  -31.3571 H   0  0  0  0  0  0  0  0  0  0  0  0
   -8.5880   18.8230  -33.7970 H   0  0  0  0  0  0  0  0  0  0  0  0
   -9.2490   18.1480  -32.4070 H   0  0  0  0  0  0  0  0  0  0  0  0
   -6.8700   18.5680  -34.5590 H   0  0  0  0  0  0  0  0  0  0  0  0
   -6.3800   17.2280  -35.6440 H   0  0  0  0  0  0  0  0  0  0  0  0
   -2.1032   19.1194  -33.7952 H   0  0  0  0  0  0  0  0  0  0  0  0
   -1.0256   21.0807  -32.0022 H   0  0  0  0  0  0  0  0  0  0  0  0
   -1.6903   22.8688  -30.3601 H   0  0  0  0  0  0  0  0  0  0  0  0
   -5.3164   23.7709  -29.6955 H   0  0  0  0  0  0  0  0  0  0  0  0
   -3.9373   23.3195  -28.6293 H   0  0  0  0  0  0  0  0  0  0  0  0
   -5.8968   21.9877  -31.1040 H   0  0  0  0  0  0  0  0  0  0  0  0
  1  2  1  0
  2  3  1  0
  2  4  1  0
  2  5  1  0
  5  6  2  0
  5  7  1  0
  7  8  1  0
  8  9  1  0
  9 10  1  0
  9 11  2  0
  8 12  2  0
 12 13  1  0
 13 14  2  0
 14 15  1  0
 15 16  2  0
 16 17  1  0
 17 18  1  0
 18 19  2  0
 18 20  1  0
 16 21  1  0
 21 22  2  0
 22  7  1  0
 22 13  1  0
  1 23  1  0
  1 24  1  0
  1 25  1  0
  3 26  1  0
  3 27  1  0
  3 28  1  0
  4 29  1  0
  4 30  1  0
 10 31  1  0
 10 32  1  0
 12 33  1  0
 14 34  1  0
 15 35  1  0
 17 36  1  0
 17 37  1  0
 21 38  1  0
M  CHG  1  20  -1
M  END
>  <UniqueID>  (96) 
96

>  <SMILES>  (96) 
CC(C)(N)C(=O)n1c(C(N)=O)cc2ccc(CC(=O)[O-])cc21

>  <Energy>  (96) 
73.92617334823196

>  <Genealogy>  (96) 
CC(C)(N)C(=O)n1c(C(N)=O)cc2ccc(CC(=O)[O-])cc21 (protonated)
CC(C)(N)C(=O)n1c(C(N)=O)cc2ccc(CC(=O)[O-])cc21 (3D coordinates assigned)
CC(C)(N)C(=O)n1c(C(N)=O)cc2ccc(CC(=O)[O-])cc21 (optimized conformer: 73.92617334823196 kcal/mol)

>  <smiles>  (96) 
CC(C)(N)C(=O)n1c(C(N)=O)cc2ccc(CC(=O)O)cc21

>  <score_type>  (96) 
oracle

>  <origin>  (96) 
adg

>  <m_score__min__energy>  (96) 
-10.289999999999999

>  <m_primary>  (96) 
energy

$$$$
98:0
     RDKit          3D

 39 40  0  0  0  0  0  0  0  0999 V2000
   -4.1840   24.3040  -27.2590 C   0  0  0  0  0  0  0  0  0  0  0  0
   -3.0340   23.4940  -27.6670 N   0  0  0  0  0  0  0  0  0  0  0  0
   -1.6840   23.8870  -27.2500 C   0  0  0  0  0  0  0  0  0  0  0  0
   -1.0940   24.8350  -28.2450 C   0  0  0  0  0  0  0  0  0  0  0  0
    0.1540   24.8980  -28.4000 O   0  0  0  0  0  0  0  0  0  0  0  0
   -1.9220   25.6820  -28.9700 O   0  0  0  0  0  0  0  0  0  0  0  0
   -3.2210   22.4560  -28.6470 C   0  0  0  0  0  0  0  0  0  0  0  0
   -3.4810   21.2840  -28.2660 O   0  0  0  0  0  0  0  0  0  0  0  0
   -3.1220   22.7300  -30.0550 N   0  0  0  0  0  0  0  0  0  0  0  0
   -2.1590   23.5830  -30.4840 O   0  0  0  0  0  0  0  0  0  0  0  0
   -4.0270   22.1670  -31.0220 C   0  0  0  0  0  0  0  0  0  0  0  0
   -3.5910   21.3390  -31.8680 O   0  0  0  0  0  0  0  0  0  0  0  0
   -5.4060   22.5720  -31.0780 N   0  0  0  0  0  0  0  0  0  0  0  0
   -5.9380   23.7830  -30.7440 C   0  0  0  0  0  0  0  0  0  0  0  0
   -5.1790   24.9750  -30.3070 C   0  0  0  0  0  0  0  0  0  0  0  0
   -3.9770   25.3370  -30.9830 N   0  0  0  0  0  0  0  0  0  0  0  0
   -5.5700   25.6720  -29.3330 O   0  0  0  0  0  0  0  0  0  0  0  0
   -7.3210   23.7710  -30.9190 C   0  0  0  0  0  0  0  0  0  0  0  0
   -7.6240   22.5030  -31.3590 C   0  0  0  0  0  0  0  0  0  0  0  0
   -8.8520   21.9340  -31.6800 C   0  0  0  0  0  0  0  0  0  0  0  0
   -8.8700   20.5890  -32.0870 C   0  0  0  0  0  0  0  0  0  0  0  0
   -7.6680   19.8390  -32.1540 C   0  0  0  0  0  0  0  0  0  0  0  0
   -7.6910   18.4000  -32.5810 C   0  0  0  0  0  0  0  0  0  0  0  0
   -6.5300   17.7730  -32.1650 F   0  0  0  0  0  0  0  0  0  0  0  0
   -8.7800   17.7640  -32.0150 F   0  0  0  0  0  0  0  0  0  0  0  0
   -6.4410   20.4480  -31.8120 C   0  0  0  0  0  0  0  0  0  0  0  0
   -6.4520   21.7960  -31.4360 C   0  0  0  0  0  0  0  0  0  0  0  0
   -4.2357   24.3404  -26.1608 H   0  0  0  0  0  0  0  0  0  0  0  0
   -4.0728   25.3243  -27.6549 H   0  0  0  0  0  0  0  0  0  0  0  0
   -5.1072   23.8557  -27.6549 H   0  0  0  0  0  0  0  0  0  0  0  0
   -1.7353   24.3772  -26.2666 H   0  0  0  0  0  0  0  0  0  0  0  0
   -1.0508   22.9896  -27.1885 H   0  0  0  0  0  0  0  0  0  0  0  0
   -2.3090   24.4190  -29.9710 H   0  0  0  0  0  0  0  0  0  0  0  0
   -3.0550   25.3030  -30.4940 H   0  0  0  0  0  0  0  0  0  0  0  0
   -8.0220   24.6001  -30.7426 H   0  0  0  0  0  0  0  0  0  0  0  0
   -9.7812   22.5193  -31.6172 H   0  0  0  0  0  0  0  0  0  0  0  0
   -9.8248   20.1136  -32.3560 H   0  0  0  0  0  0  0  0  0  0  0  0
   -7.7645   18.3501  -33.6774 H   0  0  0  0  0  0  0  0  0  0  0  0
   -5.5008   19.8778  -31.8403 H   0  0  0  0  0  0  0  0  0  0  0  0
  1  2  1  0
  2  3  1  0
  3  4  1  0
  4  5  2  0
  4  6  1  0
  2  7  1  0
  7  8  2  0
  7  9  1  0
  9 10  1  0
  9 11  1  0
 11 12  2  0
 11 13  1  0
 13 14  1  0
 14 15  1  0
 15 16  1  0
 15 17  2  0
 14 18  2  0
 18 19  1  0
 19 20  2  0
 20 21  1  0
 21 22  2  0
 22 23  1  0
 23 24  1  0
 23 25  1  0
 22 26  1  0
 26 27  2  0
 27 13  1  0
 27 19  1  0
  1 28  1  0
  1 29  1  0
  1 30  1  0
  3 31  1  0
  3 32  1  0
 10 33  1  0
 16 34  1  0
 18 35  1  0
 20 36  1  0
 21 37  1  0
 23 38  1  0
 26 39  1  0
M  CHG  2   6  -1  16  -1
M  END
>  <UniqueID>  (97) 
97

>  <SMILES>  (97) 
CN(CC(=O)[O-])C(=O)N(O)C(=O)n1c(C([NH-])=O)cc2ccc(C(F)F)cc21

>  <Energy>  (97) 
76.25061395913377

>  <Genealogy>  (97) 
CN(CC(=O)[O-])C(=O)N(O)C(=O)n1c(C([NH-])=O)cc2ccc(C(F)F)cc21 (protonated)
CN(CC(=O)[O-])C(=O)N(O)C(=O)n1c(C([NH-])=O)cc2ccc(C(F)F)cc21 (3D coordinates assigned)
CN(CC(=O)[O-])C(=O)N(O)C(=O)n1c(C([NH-])=O)cc2ccc(C(F)F)cc21 (optimized conformer: 76.25061395913377 kcal/mol)

>  <smiles>  (97) 
CN(CC(=O)O)C(=O)N(O)C(=O)n1c(C(N)=O)cc2ccc(C(F)F)cc21

>  <score_type>  (97) 
oracle

>  <origin>  (97) 
adg

>  <m_score__min__energy>  (97) 
-11.59

>  <m_primary>  (97) 
energy

$$$$
99:0
     RDKit          3D

 50 52  0  0  0  0  0  0  0  0999 V2000
   -1.2460   25.4480  -25.6830 C   0  0  0  0  0  0  0  0  0  0  0  0
   -1.8920   25.5850  -27.0700 C   0  0  2  0  0  0  0  0  0  0  0  0
   -3.0310   24.5520  -27.3080 C   0  0  0  0  0  0  0  0  0  0  0  0
   -2.6710   23.5430  -28.3230 N   0  0  2  0  0  0  0  0  0  0  0  0
   -3.5470   22.3990  -28.2340 C   0  0  0  0  0  0  0  0  0  0  0  0
   -4.6000   22.4520  -27.5370 O   0  0  0  0  0  0  0  0  0  0  0  0
   -3.2320   21.2360  -28.9440 O   0  0  0  0  0  0  0  0  0  0  0  0
   -3.4890   21.0910  -30.3350 C   0  0  0  0  0  0  0  0  0  0  0  0
   -3.8220   22.4280  -30.9170 C   0  0  0  0  0  0  0  0  0  0  0  0
   -2.8930   23.1700  -31.3340 O   0  0  0  0  0  0  0  0  0  0  0  0
   -5.1850   22.8650  -31.0170 N   0  0  0  0  0  0  0  0  0  0  0  0
   -5.6800   24.1080  -30.7550 C   0  0  0  0  0  0  0  0  0  0  0  0
   -4.8810   25.3080  -30.4290 C   0  0  0  0  0  0  0  0  0  0  0  0
   -3.5020   25.2020  -30.0850 N   0  0  0  0  0  0  0  0  0  0  0  0
   -5.4160   26.4480  -30.4850 O   0  0  0  0  0  0  0  0  0  0  0  0
   -7.0670   24.1170  -30.8920 C   0  0  0  0  0  0  0  0  0  0  0  0
   -7.4070   22.8320  -31.2490 C   0  0  0  0  0  0  0  0  0  0  0  0
   -8.6570   22.2690  -31.4880 C   0  0  0  0  0  0  0  0  0  0  0  0
   -8.7140   20.9000  -31.8020 C   0  0  0  0  0  0  0  0  0  0  0  0
   -7.5290   20.1230  -31.8820 C   0  0  0  0  0  0  0  0  0  0  0  0
   -7.6090   18.6440  -32.1590 C   0  0  0  0  0  0  0  0  0  0  0  0
   -7.1950   18.3650  -33.4510 F   0  0  0  0  0  0  0  0  0  0  0  0
   -6.7940   17.9690  -31.2690 F   0  0  0  0  0  0  0  0  0  0  0  0
   -8.9080   18.1880  -32.0140 F   0  0  0  0  0  0  0  0  0  0  0  0
   -6.2810   20.7280  -31.6060 C   0  0  0  0  0  0  0  0  0  0  0  0
   -6.2530   22.0960  -31.3150 C   0  0  0  0  0  0  0  0  0  0  0  0
   -1.2680   23.1390  -28.1660 C   0  0  0  0  0  0  0  0  0  0  0  0
   -0.3560   24.3500  -28.4500 C   0  0  2  0  0  0  0  0  0  0  0  0
    1.0380   24.1830  -27.8390 C   0  0  0  0  0  0  0  0  0  0  0  0
   -0.9150   25.6160  -28.1050 O   0  0  0  0  0  0  0  0  0  0  0  0
   -2.0078   25.6096  -24.9061 H   0  0  0  0  0  0  0  0  0  0  0  0
   -0.8201   24.4396  -25.5749 H   0  0  0  0  0  0  0  0  0  0  0  0
   -0.4475   26.1968  -25.5749 H   0  0  0  0  0  0  0  0  0  0  0  0
   -2.3935   26.5636  -27.1007 H   0  0  0  0  0  0  0  0  0  0  0  0
   -3.2460   24.0381  -26.3595 H   0  0  0  0  0  0  0  0  0  0  0  0
   -3.9102   25.1006  -27.6769 H   0  0  0  0  0  0  0  0  0  0  0  0
   -2.7930   23.9670  -29.2740 H   0  0  0  0  0  0  0  0  0  0  0  0
   -2.5964   20.6850  -30.8334 H   0  0  0  0  0  0  0  0  0  0  0  0
   -4.3340   20.4028  -30.4843 H   0  0  0  0  0  0  0  0  0  0  0  0
   -2.7580   25.2840  -30.8130 H   0  0  0  0  0  0  0  0  0  0  0  0
   -7.7459   24.9701  -30.7458 H   0  0  0  0  0  0  0  0  0  0  0  0
   -9.5723   22.8766  -31.4329 H   0  0  0  0  0  0  0  0  0  0  0  0
   -9.6887   20.4252  -31.9879 H   0  0  0  0  0  0  0  0  0  0  0  0
   -5.3536   20.1366  -31.6198 H   0  0  0  0  0  0  0  0  0  0  0  0
   -1.1000   22.7851  -27.1381 H   0  0  0  0  0  0  0  0  0  0  0  0
   -1.0359   22.3283  -28.8723 H   0  0  0  0  0  0  0  0  0  0  0  0
   -0.2593   24.3588  -29.5457 H   0  0  0  0  0  0  0  0  0  0  0  0
    0.9609   24.1922  -26.7417 H   0  0  0  0  0  0  0  0  0  0  0  0
    1.4704   23.2266  -28.1682 H   0  0  0  0  0  0  0  0  0  0  0  0
    1.6841   25.0102  -28.1682 H   0  0  0  0  0  0  0  0  0  0  0  0
  1  2  1  0
  2  3  1  0
  3  4  1  0
  4  5  1  0
  5  6  2  0
  5  7  1  0
  7  8  1  0
  8  9  1  0
  9 10  2  0
  9 11  1  0
 11 12  1  0
 12 13  1  0
 13 14  1  0
 13 15  2  0
 12 16  2  0
 16 17  1  0
 17 18  2  0
 18 19  1  0
 19 20  2  0
 20 21  1  0
 21 22  1  0
 21 23  1  0
 21 24  1  0
 20 25  1  0
 25 26  2  0
  4 27  1  0
 27 28  1  0
 28 29  1  0
 28 30  1  0
 30  2  1  0
 26 11  1  0
 26 17  1  0
  1 31  1  0
  1 32  1  0
  1 33  1  0
  2 34  1  1
  3 35  1  0
  3 36  1  0
  4 37  1  6
  8 38  1  0
  8 39  1  0
 14 40  1  0
 16 41  1  0
 18 42  1  0
 19 43  1  0
 25 44  1  0
 27 45  1  0
 27 46  1  0
 28 47  1  6
 29 48  1  0
 29 49  1  0
 29 50  1  0
M  CHG  2   4   1  14  -1
M  END
>  <UniqueID>  (98) 
98

>  <SMILES>  (98) 
C[C@@H]1C[N@H+](C(=O)OCC(=O)n2c(C([NH-])=O)cc3ccc(C(F)(F)F)cc32)C[C@H](C)O1

>  <Energy>  (98) 
101.6444741375173

>  <Genealogy>  (98) 
C[C@@H]1C[NH+](C(=O)OCC(=O)n2c(C([NH-])=O)cc3ccc(C(F)(F)F)cc32)C[C@H](C)O1 (protonated)
C[C@@H]1C[N@H+](C(=O)OCC(=O)n2c(C([NH-])=O)cc3ccc(C(F)(F)F)cc32)C[C@H](C)O1 (chirality)
C[C@@H]1C[N@H+](C(=O)OCC(=O)n2c(C([NH-])=O)cc3ccc(C(F)(F)F)cc32)C[C@H](C)O1 (3D coordinates assigned)
C[C@@H]1C[N@H+](C(=O)OCC(=O)n2c(C([NH-])=O)cc3ccc(C(F)(F)F)cc32)C[C@H](C)O1 (nonaromatic ring conformer: 101.6444741375173 kcal/mol)

>  <smiles>  (98) 
C[C@@H]1CN(C(=O)OCC(=O)n2c(C(N)=O)cc3ccc(C(F)(F)F)cc32)C[C@H](C)O1

>  <score_type>  (98) 
oracle

>  <origin>  (98) 
adg

>  <m_score__min__energy>  (98) 
-9.8000000000000007

>  <m_primary>  (98) 
energy

$$$$
