0:0
     RDKit          3D

 51 53  0  0  0  0  0  0  0  0999 V2000
   -0.8700   21.9100  -30.7390 C   0  0  0  0  0  0  0  0  0  0  0  0
   -1.5270   21.2640  -31.9320 C   0  0  0  0  0  0  0  0  0  0  0  0
   -0.7480   21.0120  -33.0750 C   0  0  0  0  0  0  0  0  0  0  0  0
   -1.3080   20.4030  -34.2010 C   0  0  0  0  0  0  0  0  0  0  0  0
   -2.6520   20.0340  -34.2000 C   0  0  0  0  0  0  0  0  0  0  0  0
   -3.4440   20.2700  -33.0760 C   0  0  0  0  0  0  0  0  0  0  0  0
   -2.9040   20.8980  -31.9380 C   0  0  0  0  0  0  0  0  0  0  0  0
   -3.7920   21.1380  -30.7760 C   0  0  0  0  0  0  0  0  0  0  0  0
   -3.5090   20.6440  -29.6520 O   0  0  0  0  0  0  0  0  0  0  0  0
   -4.9360   21.9990  -30.8890 N   0  0  0  0  0  0  0  0  0  0  0  0
   -5.0100   23.3430  -30.6650 C   0  0  0  0  0  0  0  0  0  0  0  0
   -3.9020   24.2310  -30.2410 C   0  0  0  0  0  0  0  0  0  0  0  0
   -3.9480   25.6310  -30.4760 N   0  0  0  0  0  0  0  0  0  0  0  0
   -2.9020   23.7450  -29.6510 O   0  0  0  0  0  0  0  0  0  0  0  0
   -6.2850   23.8130  -30.9640 C   0  0  0  0  0  0  0  0  0  0  0  0
   -6.9910   22.7130  -31.3920 C   0  0  0  0  0  0  0  0  0  0  0  0
   -8.3030   22.6060  -31.8350 C   0  0  0  0  0  0  0  0  0  0  0  0
   -8.7670   21.3400  -32.2230 C   0  0  0  0  0  0  0  0  0  0  0  0
   -7.9240   20.1980  -32.1450 C   0  0  0  0  0  0  0  0  0  0  0  0
   -8.4470   18.8910  -32.4770 N   0  0  0  0  0  0  0  0  0  0  0  0
   -7.5260   17.8180  -32.0620 C   0  0  0  0  0  0  0  0  0  0  0  0
   -6.8420   17.1820  -33.2950 C   0  0  0  0  0  0  0  0  0  0  0  0
   -5.5320   17.7750  -33.6450 N   0  0  0  0  0  0  0  0  0  0  0  0
   -5.3750   17.9950  -35.0890 C   0  0  0  0  0  0  0  0  0  0  0  0
   -4.3950   17.0220  -33.0930 C   0  0  0  0  0  0  0  0  0  0  0  0
   -6.5980   20.3480  -31.6710 C   0  0  0  0  0  0  0  0  0  0  0  0
   -6.1550   21.6310  -31.3300 C   0  0  0  0  0  0  0  0  0  0  0  0
   -1.2955   21.4917  -29.8149 H   0  0  0  0  0  0  0  0  0  0  0  0
    0.2121   21.7144  -30.7658 H   0  0  0  0  0  0  0  0  0  0  0  0
   -1.0473   22.9953  -30.7658 H   0  0  0  0  0  0  0  0  0  0  0  0
    0.3143   21.2975  -33.0829 H   0  0  0  0  0  0  0  0  0  0  0  0
   -0.6873   20.2146  -35.0894 H   0  0  0  0  0  0  0  0  0  0  0  0
   -3.0897   19.5551  -35.0883 H   0  0  0  0  0  0  0  0  0  0  0  0
   -4.5001   19.9625  -33.0792 H   0  0  0  0  0  0  0  0  0  0  0  0
   -3.4980   26.0530  -31.3200 H   0  0  0  0  0  0  0  0  0  0  0  0
   -6.6512   24.8466  -30.8765 H   0  0  0  0  0  0  0  0  0  0  0  0
   -8.9590   23.4878  -31.8803 H   0  0  0  0  0  0  0  0  0  0  0  0
   -9.7972   21.2296  -32.5926 H   0  0  0  0  0  0  0  0  0  0  0  0
   -8.6040   18.8230  -33.5080 H   0  0  0  0  0  0  0  0  0  0  0  0
   -9.3700   18.7650  -32.0090 H   0  0  0  0  0  0  0  0  0  0  0  0
   -6.7563   18.2386  -31.3982 H   0  0  0  0  0  0  0  0  0  0  0  0
   -8.0998   17.0418  -31.5345 H   0  0  0  0  0  0  0  0  0  0  0  0
   -6.6908   16.1119  -33.0900 H   0  0  0  0  0  0  0  0  0  0  0  0
   -7.5074   17.3665  -34.1513 H   0  0  0  0  0  0  0  0  0  0  0  0
   -4.7437   18.8797  -35.2586 H   0  0  0  0  0  0  0  0  0  0  0  0
   -4.9008   17.1133  -35.5448 H   0  0  0  0  0  0  0  0  0  0  0  0
   -6.3630   18.1567  -35.5448 H   0  0  0  0  0  0  0  0  0  0  0  0
   -4.4361   17.0492  -31.9941 H   0  0  0  0  0  0  0  0  0  0  0  0
   -4.4453   15.9781  -33.4361 H   0  0  0  0  0  0  0  0  0  0  0  0
   -3.4535   17.4757  -33.4361 H   0  0  0  0  0  0  0  0  0  0  0  0
   -5.9326   19.4775  -31.5732 H   0  0  0  0  0  0  0  0  0  0  0  0
  1  2  1  0
  2  3  2  0
  3  4  1  0
  4  5  2  0
  5  6  1  0
  6  7  2  0
  7  8  1  0
  8  9  2  0
  8 10  1  0
 10 11  1  0
 11 12  1  0
 12 13  1  0
 12 14  2  0
 11 15  2  0
 15 16  1  0
 16 17  2  0
 17 18  1  0
 18 19  2  0
 19 20  1  0
 20 21  1  0
 21 22  1  0
 22 23  1  0
 23 24  1  0
 23 25  1  0
 19 26  1  0
 26 27  2  0
  7  2  1  0
 27 10  1  0
 27 16  1  0
  1 28  1  0
  1 29  1  0
  1 30  1  0
  3 31  1  0
  4 32  1  0
  5 33  1  0
  6 34  1  0
 13 35  1  0
 15 36  1  0
 17 37  1  0
 18 38  1  0
 20 39  1  0
 20 40  1  0
 21 41  1  0
 21 42  1  0
 22 43  1  0
 22 44  1  0
 24 45  1  0
 24 46  1  0
 24 47  1  0
 25 48  1  0
 25 49  1  0
 25 50  1  0
 26 51  1  0
M  CHG  2  13  -1  20   1
M  END
>  <UniqueID>  (1) 
1

>  <SMILES>  (1) 
Cc1ccccc1C(=O)n1c(C([NH-])=O)cc2ccc([NH2+]CCN(C)C)cc21

>  <Energy>  (1) 
101.77474291798082

>  <Genealogy>  (1) 
Cc1ccccc1C(=O)n1c(C([NH-])=O)cc2ccc([NH2+]CCN(C)C)cc21 (protonated)
Cc1ccccc1C(=O)n1c(C([NH-])=O)cc2ccc([NH2+]CCN(C)C)cc21 (3D coordinates assigned)
Cc1ccccc1C(=O)n1c(C([NH-])=O)cc2ccc([NH2+]CCN(C)C)cc21 (optimized conformer: 101.77474291798082 kcal/mol)

>  <smiles>  (1) 
Cc1ccccc1C(=O)n1c(C(N)=O)cc2ccc(NCCN(C)C)cc21

>  <score_type>  (1) 
oracle

>  <origin>  (1) 
adg

>  <m_score__min__energy>  (1) 
-11.220000000000001

>  <m_primary>  (1) 
energy

$$$$
1:0
     RDKit          3D

 45 47  0  0  0  0  0  0  0  0999 V2000
   -5.2810   18.5890  -33.3360 C   0  0  0  0  0  0  0  0  0  0  0  0
   -5.1700   20.1130  -33.4830 C   0  0  1  0  0  0  0  0  0  0  0  0
   -6.5100   20.7990  -33.1010 C   0  0  0  0  0  0  0  0  0  0  0  0
   -6.9540   20.4660  -31.7180 N   0  0  0  0  0  0  0  0  0  0  0  0
   -7.5030   21.6510  -30.9960 C   0  0  0  0  0  0  0  0  0  0  0  0
   -9.0350   21.6190  -30.8240 C   0  0  0  0  0  0  0  0  0  0  0  0
   -9.6900   21.0950  -32.0250 N   0  0  0  0  0  0  0  0  0  0  0  0
   -9.2680   19.7170  -32.3390 C   0  0  0  0  0  0  0  0  0  0  0  0
   -7.9060   19.3330  -31.7220 C   0  0  0  0  0  0  0  0  0  0  0  0
   -4.0050   20.6420  -32.6640 C   0  0  0  0  0  0  0  0  0  0  0  0
   -2.7890   19.9130  -32.6200 C   0  0  0  0  0  0  0  0  0  0  0  0
   -1.6950   20.3810  -31.8730 C   0  0  0  0  0  0  0  0  0  0  0  0
   -1.8410   21.5820  -31.1860 C   0  0  0  0  0  0  0  0  0  0  0  0
   -0.9530   22.2490  -30.3750 C   0  0  0  0  0  0  0  0  0  0  0  0
   -1.6280   23.3910  -29.9490 C   0  0  0  0  0  0  0  0  0  0  0  0
   -1.0020   24.4430  -29.1200 C   0  0  0  0  0  0  0  0  0  0  0  0
   -1.6480   25.7050  -28.9680 N   0  0  0  0  0  0  0  0  0  0  0  0
    0.0790   24.2280  -28.5140 O   0  0  0  0  0  0  0  0  0  0  0  0
   -2.8870   23.4260  -30.4700 N   0  0  0  0  0  0  0  0  0  0  0  0
   -3.9160   24.3960  -30.2190 C   0  0  0  0  0  0  0  0  0  0  0  0
   -4.8520   24.1390  -29.4160 O   0  0  0  0  0  0  0  0  0  0  0  0
   -3.8750   25.6390  -30.8390 O   0  0  0  0  0  0  0  0  0  0  0  0
   -3.0000   22.3110  -31.2280 C   0  0  0  0  0  0  0  0  0  0  0  0
   -4.1120   21.8600  -31.9490 C   0  0  0  0  0  0  0  0  0  0  0  0
   -5.3003   18.3240  -32.2686 H   0  0  0  0  0  0  0  0  0  0  0  0
   -6.2069   18.2407  -33.8170 H   0  0  0  0  0  0  0  0  0  0  0  0
   -4.4153   18.1102  -33.8170 H   0  0  0  0  0  0  0  0  0  0  0  0
   -4.9687   20.3557  -34.5368 H   0  0  0  0  0  0  0  0  0  0  0  0
   -6.3811   21.8888  -33.1762 H   0  0  0  0  0  0  0  0  0  0  0  0
   -7.2806   20.4311  -33.7945 H   0  0  0  0  0  0  0  0  0  0  0  0
   -6.1220   20.1270  -31.1800 H   0  0  0  0  0  0  0  0  0  0  0  0
   -7.0426   21.6931  -29.9979 H   0  0  0  0  0  0  0  0  0  0  0  0
   -7.2671   22.5357  -31.6056 H   0  0  0  0  0  0  0  0  0  0  0  0
   -9.2870   20.9759  -29.9679 H   0  0  0  0  0  0  0  0  0  0  0  0
   -9.3888   22.6465  -30.6533 H   0  0  0  0  0  0  0  0  0  0  0  0
   -9.4590   21.7220  -32.8320 H   0  0  0  0  0  0  0  0  0  0  0  0
  -10.0313   19.0236  -31.9562 H   0  0  0  0  0  0  0  0  0  0  0  0
   -9.1568   19.6543  -33.4316 H   0  0  0  0  0  0  0  0  0  0  0  0
   -8.0674   19.0025  -30.6853 H   0  0  0  0  0  0  0  0  0  0  0  0
   -7.4720   18.5298  -32.3357 H   0  0  0  0  0  0  0  0  0  0  0  0
   -2.7014   18.9691  -33.1779 H   0  0  0  0  0  0  0  0  0  0  0  0
   -0.7524   19.8155  -31.8326 H   0  0  0  0  0  0  0  0  0  0  0  0
    0.0724   21.9454  -30.1173 H   0  0  0  0  0  0  0  0  0  0  0  0
   -2.6880   25.7850  -29.0220 H   0  0  0  0  0  0  0  0  0  0  0  0
   -5.0476   22.4384  -31.9600 H   0  0  0  0  0  0  0  0  0  0  0  0
  1  2  1  0
  2  3  1  0
  3  4  1  0
  4  5  1  0
  5  6  1  0
  6  7  1  0
  7  8  1  0
  8  9  1  0
  2 10  1  0
 10 11  2  0
 11 12  1  0
 12 13  2  0
 13 14  1  0
 14 15  2  0
 15 16  1  0
 16 17  1  0
 16 18  2  0
 15 19  1  0
 19 20  1  0
 20 21  2  0
 20 22  1  0
 19 23  1  0
 23 24  2  0
  9  4  1  0
 24 10  1  0
 23 13  1  0
  1 25  1  0
  1 26  1  0
  1 27  1  0
  2 28  1  6
  3 29  1  0
  3 30  1  0
  4 31  1  0
  5 32  1  0
  5 33  1  0
  6 34  1  0
  6 35  1  0
  7 36  1  0
  8 37  1  0
  8 38  1  0
  9 39  1  0
  9 40  1  0
 11 41  1  0
 12 42  1  0
 14 43  1  0
 17 44  1  0
 24 45  1  0
M  CHG  3   4   1  17  -1  22  -1
M  END
>  <UniqueID>  (2) 
2

>  <SMILES>  (2) 
C[C@@H](C[NH+]1CCNCC1)c1ccc2cc(C([NH-])=O)n(C(=O)[O-])c2c1

>  <Energy>  (2) 
95.39145782367922

>  <Genealogy>  (2) 
CC(C[NH+]1CCNCC1)c1ccc2cc(C([NH-])=O)n(C(=O)[O-])c2c1 (protonated)
C[C@@H](C[NH+]1CCNCC1)c1ccc2cc(C([NH-])=O)n(C(=O)[O-])c2c1 (chirality)
C[C@@H](C[NH+]1CCNCC1)c1ccc2cc(C([NH-])=O)n(C(=O)[O-])c2c1 (3D coordinates assigned)
C[C@@H](C[NH+]1CCNCC1)c1ccc2cc(C([NH-])=O)n(C(=O)[O-])c2c1 (nonaromatic ring conformer: 95.39145782367922 kcal/mol)

>  <smiles>  (2) 
CC(CN1CCNCC1)c1ccc2cc(C(N)=O)n(C(=O)O)c2c1

>  <score_type>  (2) 
oracle

>  <origin>  (2) 
adg

>  <m_score__min__energy>  (2) 
-11.880000000000001

>  <m_primary>  (2) 
energy

$$$$
2:0
     RDKit          3D

 39 41  0  0  0  0  0  0  0  0999 V2000
    1.7940   20.2830  -33.4550 C   0  0  0  0  0  0  0  0  0  0  0  0
    0.8830   20.7410  -34.6110 C   0  0  1  0  0  0  0  0  0  0  0  0
    1.7040   21.5630  -35.5810 C   0  0  0  0  0  0  0  0  0  0  0  0
    1.7610   22.8170  -35.4680 O   0  0  0  0  0  0  0  0  0  0  0  0
    2.3250   20.9520  -36.6650 O   0  0  0  0  0  0  0  0  0  0  0  0
    0.2330   19.5200  -35.2900 C   0  0  0  0  0  0  0  0  0  0  0  0
   -1.0770   19.2920  -34.5450 C   0  0  0  0  0  0  0  0  0  0  0  0
   -1.3970   20.5640  -33.9150 N   0  0  0  0  0  0  0  0  0  0  0  0
   -2.6470   20.8390  -33.2430 C   0  0  0  0  0  0  0  0  0  0  0  0
   -3.7810   20.0100  -33.4590 C   0  0  0  0  0  0  0  0  0  0  0  0
   -5.0040   20.2750  -32.8230 C   0  0  0  0  0  0  0  0  0  0  0  0
   -5.0710   21.3680  -31.9670 C   0  0  0  0  0  0  0  0  0  0  0  0
   -6.1380   21.8670  -31.2550 C   0  0  0  0  0  0  0  0  0  0  0  0
   -5.6410   22.9800  -30.5830 C   0  0  0  0  0  0  0  0  0  0  0  0
   -6.4460   23.7850  -29.6440 C   0  0  0  0  0  0  0  0  0  0  0  0
   -5.9060   24.9510  -29.0200 N   0  0  0  0  0  0  0  0  0  0  0  0
   -7.6100   23.4070  -29.3430 O   0  0  0  0  0  0  0  0  0  0  0  0
   -4.3250   23.1740  -30.8770 N   0  0  0  0  0  0  0  0  0  0  0  0
   -3.4970   24.2790  -30.4750 C   0  0  0  0  0  0  0  0  0  0  0  0
   -2.4320   24.0810  -29.8330 O   0  0  0  0  0  0  0  0  0  0  0  0
   -3.8630   25.5810  -30.7940 O   0  0  0  0  0  0  0  0  0  0  0  0
   -3.9890   22.1730  -31.7260 C   0  0  0  0  0  0  0  0  0  0  0  0
   -2.7640   21.9450  -32.3630 C   0  0  0  0  0  0  0  0  0  0  0  0
   -0.3190   21.5340  -34.0630 C   0  0  0  0  0  0  0  0  0  0  0  0
    1.3158   20.5234  -32.4940 H   0  0  0  0  0  0  0  0  0  0  0  0
    1.9547   19.1969  -33.5230 H   0  0  0  0  0  0  0  0  0  0  0  0
    2.7616   20.8018  -33.5230 H   0  0  0  0  0  0  0  0  0  0  0  0
    0.0401   19.7281  -36.3528 H   0  0  0  0  0  0  0  0  0  0  0  0
    0.8851   18.6350  -35.2509 H   0  0  0  0  0  0  0  0  0  0  0  0
   -1.8721   19.0008  -35.2472 H   0  0  0  0  0  0  0  0  0  0  0  0
   -0.9883   18.4829  -33.8051 H   0  0  0  0  0  0  0  0  0  0  0  0
   -3.6990   19.1466  -34.1356 H   0  0  0  0  0  0  0  0  0  0  0  0
   -5.8829   19.6368  -32.9968 H   0  0  0  0  0  0  0  0  0  0  0  0
   -7.1638   21.4710  -31.2237 H   0  0  0  0  0  0  0  0  0  0  0  0
   -4.8970   25.2000  -29.1240 H   0  0  0  0  0  0  0  0  0  0  0  0
   -6.5000   25.5310  -28.3880 H   0  0  0  0  0  0  0  0  0  0  0  0
   -1.9074   22.6115  -32.1844 H   0  0  0  0  0  0  0  0  0  0  0  0
   -0.6099   22.3260  -34.7688 H   0  0  0  0  0  0  0  0  0  0  0  0
   -0.0803   22.0246  -33.1079 H   0  0  0  0  0  0  0  0  0  0  0  0
  2  1  1  1
  2  3  1  0
  3  4  2  0
  3  5  1  0
  2  6  1  0
  6  7  1  0
  7  8  1  0
  8  9  1  0
  9 10  2  0
 10 11  1  0
 11 12  2  0
 12 13  1  0
 13 14  2  0
 14 15  1  0
 15 16  1  0
 15 17  2  0
 14 18  1  0
 18 19  1  0
 19 20  2  0
 19 21  1  0
 18 22  1  0
 22 23  2  0
  8 24  1  0
 24  2  1  0
 23  9  1  0
 22 12  1  0
  1 25  1  0
  1 26  1  0
  1 27  1  0
  6 28  1  0
  6 29  1  0
  7 30  1  0
  7 31  1  0
 10 32  1  0
 11 33  1  0
 13 34  1  0
 16 35  1  0
 16 36  1  0
 23 37  1  0
 24 38  1  0
 24 39  1  0
M  CHG  2   5  -1  21  -1
M  END
>  <UniqueID>  (3) 
3

>  <SMILES>  (3) 
C[C@@]1(C(=O)[O-])CCN(c2ccc3cc(C(N)=O)n(C(=O)[O-])c3c2)C1

>  <Energy>  (3) 
83.70240898309082

>  <Genealogy>  (3) 
CC1(C(=O)[O-])CCN(c2ccc3cc(C(N)=O)n(C(=O)[O-])c3c2)C1 (protonated)
C[C@@]1(C(=O)[O-])CCN(c2ccc3cc(C(N)=O)n(C(=O)[O-])c3c2)C1 (chirality)
C[C@@]1(C(=O)[O-])CCN(c2ccc3cc(C(N)=O)n(C(=O)[O-])c3c2)C1 (3D coordinates assigned)
C[C@@]1(C(=O)[O-])CCN(c2ccc3cc(C(N)=O)n(C(=O)[O-])c3c2)C1 (nonaromatic ring conformer: 83.70240898309082 kcal/mol)

>  <smiles>  (3) 
CC1(C(=O)O)CCN(c2ccc3cc(C(N)=O)n(C(=O)O)c3c2)C1

>  <score_type>  (3) 
oracle

>  <origin>  (3) 
adg

>  <m_score__min__energy>  (3) 
-9.3499999999999996

>  <m_primary>  (3) 
energy

$$$$
3:0
     RDKit          3D

 24 25  0  0  0  0  0  0  0  0999 V2000
    1.1380   19.6750  -27.6200 C   0  0  0  0  0  0  0  0  0  0  0  0
   -0.2160   20.2830  -27.8280 C   0  0  0  0  0  0  0  0  0  0  0  0
   -1.3800   19.4870  -27.6890 C   0  0  0  0  0  0  0  0  0  0  0  0
   -2.6540   20.0390  -27.9050 C   0  0  0  0  0  0  0  0  0  0  0  0
   -2.7300   21.3790  -28.2760 C   0  0  0  0  0  0  0  0  0  0  0  0
   -3.8300   22.1670  -28.5260 C   0  0  0  0  0  0  0  0  0  0  0  0
   -3.3200   23.4220  -28.8520 C   0  0  0  0  0  0  0  0  0  0  0  0
   -4.1660   24.5540  -29.2810 C   0  0  0  0  0  0  0  0  0  0  0  0
   -3.8510   25.3000  -30.4540 N   0  0  0  0  0  0  0  0  0  0  0  0
   -5.2080   24.8350  -28.6320 O   0  0  0  0  0  0  0  0  0  0  0  0
   -1.9580   23.4130  -28.7990 N   0  0  0  0  0  0  0  0  0  0  0  0
   -1.0660   24.5260  -28.9730 C   0  0  0  0  0  0  0  0  0  0  0  0
   -1.5190   25.6680  -29.2500 O   0  0  0  0  0  0  0  0  0  0  0  0
    0.3080   24.3480  -28.8660 O   0  0  0  0  0  0  0  0  0  0  0  0
   -1.6120   22.1540  -28.4480 C   0  0  0  0  0  0  0  0  0  0  0  0
   -0.3310   21.6350  -28.2210 C   0  0  0  0  0  0  0  0  0  0  0  0
    1.3380   19.5852  -26.5421 H   0  0  0  0  0  0  0  0  0  0  0  0
    1.1670   18.6774  -28.0826 H   0  0  0  0  0  0  0  0  0  0  0  0
    1.9028   20.3161  -28.0826 H   0  0  0  0  0  0  0  0  0  0  0  0
   -1.2854   18.4273  -27.4095 H   0  0  0  0  0  0  0  0  0  0  0  0
   -3.5631   19.4314  -27.7848 H   0  0  0  0  0  0  0  0  0  0  0  0
   -4.8879   21.8692  -28.4785 H   0  0  0  0  0  0  0  0  0  0  0  0
   -2.8810   25.3070  -30.8410 H   0  0  0  0  0  0  0  0  0  0  0  0
    0.5627   22.2641  -28.3456 H   0  0  0  0  0  0  0  0  0  0  0  0
  1  2  1  0
  2  3  2  0
  3  4  1  0
  4  5  2  0
  5  6  1  0
  6  7  2  0
  7  8  1  0
  8  9  1  0
  8 10  2  0
  7 11  1  0
 11 12  1  0
 12 13  2  0
 12 14  1  0
 11 15  1  0
 15 16  2  0
 16  2  1  0
 15  5  1  0
  1 17  1  0
  1 18  1  0
  1 19  1  0
  3 20  1  0
  4 21  1  0
  6 22  1  0
  9 23  1  0
 16 24  1  0
M  CHG  2   9  -1  14  -1
M  END
>  <UniqueID>  (4) 
4

>  <SMILES>  (4) 
Cc1ccc2cc(C([NH-])=O)n(C(=O)[O-])c2c1

>  <Energy>  (4) 
63.79671713160423

>  <Genealogy>  (4) 
Cc1ccc2cc(C([NH-])=O)n(C(=O)[O-])c2c1 (protonated)
Cc1ccc2cc(C([NH-])=O)n(C(=O)[O-])c2c1 (3D coordinates assigned)
Cc1ccc2cc(C([NH-])=O)n(C(=O)[O-])c2c1 (optimized conformer: 63.79671713160423 kcal/mol)

>  <smiles>  (4) 
Cc1ccc2cc(C(N)=O)n(C(=O)O)c2c1

>  <score_type>  (4) 
oracle

>  <origin>  (4) 
adg

>  <m_score__min__energy>  (4) 
-9.6400000000000006

>  <m_primary>  (4) 
energy

$$$$
4:0
     RDKit          3D

 49 51  0  0  0  0  0  0  0  0999 V2000
   -3.4880   21.4150  -30.1860 C   0  0  0  0  0  0  0  0  0  0  0  0
   -4.0820   22.5430  -30.9670 C   0  0  0  0  0  0  0  0  0  0  0  0
   -3.3160   23.3360  -31.5770 O   0  0  0  0  0  0  0  0  0  0  0  0
   -5.5050   22.7440  -31.0170 N   0  0  0  0  0  0  0  0  0  0  0  0
   -6.1790   23.9030  -30.7770 C   0  0  0  0  0  0  0  0  0  0  0  0
   -5.5890   25.1580  -30.2660 C   0  0  0  0  0  0  0  0  0  0  0  0
   -4.2520   25.5390  -30.5960 N   0  0  0  0  0  0  0  0  0  0  0  0
   -6.2600   25.8830  -29.4850 O   0  0  0  0  0  0  0  0  0  0  0  0
   -7.5340   23.7520  -31.0610 C   0  0  0  0  0  0  0  0  0  0  0  0
   -7.6730   22.4500  -31.4830 C   0  0  0  0  0  0  0  0  0  0  0  0
   -8.8030   21.7720  -31.9310 C   0  0  0  0  0  0  0  0  0  0  0  0
   -8.6460   20.4450  -32.3680 C   0  0  0  0  0  0  0  0  0  0  0  0
   -7.3700   19.8280  -32.3520 C   0  0  0  0  0  0  0  0  0  0  0  0
   -7.2050   18.4290  -32.8770 C   0  0  0  0  0  0  0  0  0  0  0  0
   -6.0780   18.3790  -33.8580 C   0  0  0  0  0  0  0  0  0  0  0  0
   -5.8200   19.3870  -34.5710 O   0  0  0  0  0  0  0  0  0  0  0  0
   -5.3020   17.2170  -33.9520 O   0  0  0  0  0  0  0  0  0  0  0  0
   -4.4000   16.7910  -32.9330 C   0  0  0  0  0  0  0  0  0  0  0  0
   -3.0390   17.4770  -33.1000 C   0  0  1  0  0  0  0  0  0  0  0  0
   -2.7380   17.8110  -34.5360 C   0  0  0  0  0  0  0  0  0  0  0  0
   -2.0950   19.0450  -34.5150 O   0  0  0  0  0  0  0  0  0  0  0  0
   -2.4240   19.6280  -33.2720 C   0  0  0  0  0  0  0  0  0  0  0  0
   -3.4040   20.7820  -33.5040 C   0  0  0  0  0  0  0  0  0  0  0  0
   -1.1420   20.1510  -32.6190 C   0  0  0  0  0  0  0  0  0  0  0  0
   -3.0230   18.6860  -32.4070 O   0  0  0  0  0  0  0  0  0  0  0  0
   -6.2440   20.5530  -31.9070 C   0  0  0  0  0  0  0  0  0  0  0  0
   -6.4340   21.8640  -31.4530 C   0  0  0  0  0  0  0  0  0  0  0  0
   -3.5948   21.6177  -29.1101 H   0  0  0  0  0  0  0  0  0  0  0  0
   -4.0108   20.4802  -30.4366 H   0  0  0  0  0  0  0  0  0  0  0  0
   -2.4214   21.3172  -30.4366 H   0  0  0  0  0  0  0  0  0  0  0  0
   -3.8710   26.4520  -30.2600 H   0  0  0  0  0  0  0  0  0  0  0  0
   -3.6050   24.8820  -31.0840 H   0  0  0  0  0  0  0  0  0  0  0  0
   -8.3242   24.5115  -30.9678 H   0  0  0  0  0  0  0  0  0  0  0  0
   -9.7889   22.2596  -31.9428 H   0  0  0  0  0  0  0  0  0  0  0  0
   -9.5203   19.8811  -32.7252 H   0  0  0  0  0  0  0  0  0  0  0  0
   -6.9891   17.7491  -32.0397 H   0  0  0  0  0  0  0  0  0  0  0  0
   -8.1339   18.1206  -33.3791 H   0  0  0  0  0  0  0  0  0  0  0  0
   -4.8175   17.0496  -31.9487 H   0  0  0  0  0  0  0  0  0  0  0  0
   -4.2620   15.7026  -33.0121 H   0  0  0  0  0  0  0  0  0  0  0  0
   -2.2917   16.7674  -32.7152 H   0  0  0  0  0  0  0  0  0  0  0  0
   -2.0826   17.0457  -34.9773 H   0  0  0  0  0  0  0  0  0  0  0  0
   -3.6547   17.8441  -35.1431 H   0  0  0  0  0  0  0  0  0  0  0  0
   -3.7403   21.1780  -32.5344 H   0  0  0  0  0  0  0  0  0  0  0  0
   -2.9032   21.5798  -34.0721 H   0  0  0  0  0  0  0  0  0  0  0  0
   -4.2724   20.4170  -34.0721 H   0  0  0  0  0  0  0  0  0  0  0  0
   -1.2445   20.1092  -31.5246 H   0  0  0  0  0  0  0  0  0  0  0  0
   -0.2909   19.5282  -32.9316 H   0  0  0  0  0  0  0  0  0  0  0  0
   -0.9694   21.1914  -32.9316 H   0  0  0  0  0  0  0  0  0  0  0  0
   -5.2419   20.0995  -31.9165 H   0  0  0  0  0  0  0  0  0  0  0  0
  1  2  1  0
  2  3  2  0
  2  4  1  0
  4  5  1  0
  5  6  1  0
  6  7  1  0
  6  8  2  0
  5  9  2  0
  9 10  1  0
 10 11  2  0
 11 12  1  0
 12 13  2  0
 13 14  1  0
 14 15  1  0
 15 16  2  0
 15 17  1  0
 17 18  1  0
 18 19  1  0
 19 20  1  0
 20 21  1  0
 21 22  1  0
 22 23  1  0
 22 24  1  0
 22 25  1  0
 13 26  1  0
 26 27  2  0
 27  4  1  0
 27 10  1  0
 25 19  1  0
  1 28  1  0
  1 29  1  0
  1 30  1  0
  7 31  1  0
  7 32  1  0
  9 33  1  0
 11 34  1  0
 12 35  1  0
 14 36  1  0
 14 37  1  0
 18 38  1  0
 18 39  1  0
 19 40  1  1
 20 41  1  0
 20 42  1  0
 23 43  1  0
 23 44  1  0
 23 45  1  0
 24 46  1  0
 24 47  1  0
 24 48  1  0
 26 49  1  0
M  END
>  <UniqueID>  (5) 
5

>  <SMILES>  (5) 
CC(=O)n1c(C(N)=O)cc2ccc(CC(=O)OC[C@H]3COC(C)(C)O3)cc21

>  <Energy>  (5) 
76.33101003997719

>  <Genealogy>  (5) 
CC(=O)n1c(C(N)=O)cc2ccc(CC(=O)OC[C@H]3COC(C)(C)O3)cc21 (chirality)
CC(=O)n1c(C(N)=O)cc2ccc(CC(=O)OC[C@H]3COC(C)(C)O3)cc21 (3D coordinates assigned)
CC(=O)n1c(C(N)=O)cc2ccc(CC(=O)OC[C@H]3COC(C)(C)O3)cc21 (nonaromatic ring conformer: 76.33101003997719 kcal/mol)

>  <smiles>  (5) 
CC(=O)n1c(C(N)=O)cc2ccc(CC(=O)OCC3COC(C)(C)O3)cc21

>  <score_type>  (5) 
oracle

>  <origin>  (5) 
adg

>  <m_score__min__energy>  (5) 
-8.7599999999999998

>  <m_primary>  (5) 
energy

$$$$
5:0
     RDKit          3D

 59 61  0  0  0  0  0  0  0  0999 V2000
   -9.5190   21.0710  -31.9500 C   0  0  0  0  0  0  0  0  0  0  0  0
   -8.8670   19.7150  -31.7060 C   0  0  0  0  0  0  0  0  0  0  0  0
   -8.3430   19.1860  -32.9210 O   0  0  0  0  0  0  0  0  0  0  0  0
   -7.2580   18.3020  -32.9720 C   0  0  0  0  0  0  0  0  0  0  0  0
   -7.4230   17.0680  -32.7610 O   0  0  0  0  0  0  0  0  0  0  0  0
   -5.8950   18.8240  -33.3140 C   0  0  1  0  0  0  0  0  0  0  0  0
   -5.3010   18.0320  -34.4950 C   0  0  0  0  0  0  0  0  0  0  0  0
   -3.8100   17.8800  -34.3540 C   0  0  0  0  0  0  0  0  0  0  0  0
   -3.2160   16.5930  -34.3540 C   0  0  0  0  0  0  0  0  0  0  0  0
   -1.8280   16.4470  -34.2060 C   0  0  0  0  0  0  0  0  0  0  0  0
   -1.0640   17.5990  -34.0360 C   0  0  0  0  0  0  0  0  0  0  0  0
    0.2970   17.7460  -33.8970 C   0  0  0  0  0  0  0  0  0  0  0  0
    0.5070   19.1170  -33.7640 C   0  0  0  0  0  0  0  0  0  0  0  0
    1.8360   19.7160  -33.5290 C   0  0  0  0  0  0  0  0  0  0  0  0
    2.3570   20.7230  -34.3970 N   0  0  0  0  0  0  0  0  0  0  0  0
    2.4970   19.3740  -32.5130 O   0  0  0  0  0  0  0  0  0  0  0  0
   -0.6740   19.7940  -33.8340 N   0  0  0  0  0  0  0  0  0  0  0  0
   -0.8700   21.2180  -33.8370 C   0  0  0  0  0  0  0  0  0  0  0  0
   -0.1520   21.9520  -34.5710 O   0  0  0  0  0  0  0  0  0  0  0  0
   -1.8590   21.7860  -33.0280 O   0  0  0  0  0  0  0  0  0  0  0  0
   -2.1030   21.3550  -31.6950 C   0  0  0  0  0  0  0  0  0  0  0  0
   -1.6270   18.8490  -34.0000 C   0  0  0  0  0  0  0  0  0  0  0  0
   -3.0030   19.0260  -34.1750 C   0  0  0  0  0  0  0  0  0  0  0  0
   -6.0110   20.2080  -33.6560 O   0  0  0  0  0  0  0  0  0  0  0  0
   -5.7300   21.2580  -32.7930 N   0  0  0  0  0  0  0  0  0  0  0  0
   -6.5870   22.1470  -32.3840 C   0  0  0  0  0  0  0  0  0  0  0  0
   -6.1840   23.2260  -31.4600 C   0  0  0  0  0  0  0  0  0  0  0  0
   -7.1740   23.9640  -30.7950 C   0  0  0  0  0  0  0  0  0  0  0  0
   -6.8200   24.9910  -29.9180 C   0  0  0  0  0  0  0  0  0  0  0  0
   -5.4750   25.2890  -29.6950 C   0  0  0  0  0  0  0  0  0  0  0  0
   -4.4690   24.5670  -30.3470 C   0  0  0  0  0  0  0  0  0  0  0  0
   -3.1330   24.9090  -30.0900 O   0  0  0  0  0  0  0  0  0  0  0  0
   -2.2480   24.1460  -29.2760 C   0  0  0  0  0  0  0  0  0  0  0  0
   -4.8280   23.5320  -31.2330 C   0  0  0  0  0  0  0  0  0  0  0  0
   -9.7478   21.5468  -30.9850 H   0  0  0  0  0  0  0  0  0  0  0  0
   -8.8304   21.7116  -32.5206 H   0  0  0  0  0  0  0  0  0  0  0  0
  -10.4493   20.9332  -32.5206 H   0  0  0  0  0  0  0  0  0  0  0  0
   -8.0490   19.8323  -30.9800 H   0  0  0  0  0  0  0  0  0  0  0  0
   -9.6257   19.0213  -31.3146 H   0  0  0  0  0  0  0  0  0  0  0  0
   -5.2233   18.7069  -32.4508 H   0  0  0  0  0  0  0  0  0  0  0  0
   -5.7621   17.0338  -34.5256 H   0  0  0  0  0  0  0  0  0  0  0  0
   -5.5084   18.5838  -35.4237 H   0  0  0  0  0  0  0  0  0  0  0  0
   -3.8485   15.7007  -34.4710 H   0  0  0  0  0  0  0  0  0  0  0  0
   -1.3578   15.4527  -34.2237 H   0  0  0  0  0  0  0  0  0  0  0  0
    1.0571   16.9508  -33.8920 H   0  0  0  0  0  0  0  0  0  0  0  0
    3.3200   21.0980  -34.2450 H   0  0  0  0  0  0  0  0  0  0  0  0
    1.7660   21.1520  -35.1420 H   0  0  0  0  0  0  0  0  0  0  0  0
   -1.6870   22.0899  -30.9901 H   0  0  0  0  0  0  0  0  0  0  0  0
   -3.1870   21.2633  -31.5319 H   0  0  0  0  0  0  0  0  0  0  0  0
   -1.6238   20.3784  -31.5319 H   0  0  0  0  0  0  0  0  0  0  0  0
   -3.4463   20.0327  -34.1734 H   0  0  0  0  0  0  0  0  0  0  0  0
   -7.6291   22.0941  -32.7322 H   0  0  0  0  0  0  0  0  0  0  0  0
   -8.2357   23.7323  -30.9654 H   0  0  0  0  0  0  0  0  0  0  0  0
   -7.6027   25.5663  -29.4018 H   0  0  0  0  0  0  0  0  0  0  0  0
   -5.2034   26.0981  -29.0010 H   0  0  0  0  0  0  0  0  0  0  0  0
   -2.4691   24.3366  -28.2154 H   0  0  0  0  0  0  0  0  0  0  0  0
   -2.3821   23.0758  -29.4919 H   0  0  0  0  0  0  0  0  0  0  0  0
   -1.2092   24.4362  -29.4919 H   0  0  0  0  0  0  0  0  0  0  0  0
   -4.0444   22.9593  -31.7507 H   0  0  0  0  0  0  0  0  0  0  0  0
  1  2  1  0
  2  3  1  0
  3  4  1  0
  4  5  2  0
  4  6  1  0
  6  7  1  0
  7  8  1  0
  8  9  2  0
  9 10  1  0
 10 11  2  0
 11 12  1  0
 12 13  2  0
 13 14  1  0
 14 15  1  0
 14 16  2  0
 13 17  1  0
 17 18  1  0
 18 19  2  0
 18 20  1  0
 20 21  1  0
 17 22  1  0
 22 23  2  0
  6 24  1  0
 24 25  1  0
 25 26  2  3
 26 27  1  0
 27 28  2  0
 28 29  1  0
 29 30  2  0
 30 31  1  0
 31 32  1  0
 32 33  1  0
 31 34  2  0
 23  8  1  0
 34 27  1  0
 22 11  1  0
  1 35  1  0
  1 36  1  0
  1 37  1  0
  2 38  1  0
  2 39  1  0
  6 40  1  1
  7 41  1  0
  7 42  1  0
  9 43  1  0
 10 44  1  0
 12 45  1  0
 15 46  1  0
 15 47  1  0
 21 48  1  0
 21 49  1  0
 21 50  1  0
 23 51  1  0
 26 52  1  0
 28 53  1  0
 29 54  1  0
 30 55  1  0
 33 56  1  0
 33 57  1  0
 33 58  1  0
 34 59  1  0
M  END
>  <UniqueID>  (6) 
6

>  <SMILES>  (6) 
CCOC(=O)[C@@H](Cc1ccc2cc(C(N)=O)n(C(=O)OC)c2c1)ON=Cc1cccc(OC)c1

>  <Energy>  (6) 
90.92299024249189

>  <Genealogy>  (6) 
CCOC(=O)[C@@H](Cc1ccc2cc(C(N)=O)n(C(=O)OC)c2c1)ON=Cc1cccc(OC)c1 (chirality)
CCOC(=O)[C@@H](Cc1ccc2cc(C(N)=O)n(C(=O)OC)c2c1)ON=Cc1cccc(OC)c1 (3D coordinates assigned)
CCOC(=O)[C@@H](Cc1ccc2cc(C(N)=O)n(C(=O)OC)c2c1)ON=Cc1cccc(OC)c1 (optimized conformer: 90.92299024249189 kcal/mol)

>  <smiles>  (6) 
CCOC(=O)C(Cc1ccc2cc(C(N)=O)n(C(=O)OC)c2c1)ON=Cc1cccc(OC)c1

>  <score_type>  (6) 
oracle

>  <origin>  (6) 
adg

>  <m_score__min__energy>  (6) 
-9.0600000000000005

>  <m_primary>  (6) 
energy

$$$$
6:0
     RDKit          3D

 38 40  0  0  0  0  0  0  0  0999 V2000
   -3.0790   18.3550  -33.9730 C   0  0  0  0  0  0  0  0  0  0  0  0
   -4.2640   17.6120  -34.3740 N   0  0  0  0  0  0  0  0  0  0  0  0
   -5.5760   18.1810  -34.3530 C   0  0  0  0  0  0  0  0  0  0  0  0
   -6.1100   18.5970  -35.4150 O   0  0  0  0  0  0  0  0  0  0  0  0
   -6.2980   18.3270  -33.0490 C   0  0  0  0  0  0  0  0  0  0  0  0
   -6.5610   19.7140  -32.5310 C   0  0  0  0  0  0  0  0  0  0  0  0
   -7.8860   20.2120  -32.4750 C   0  0  0  0  0  0  0  0  0  0  0  0
   -8.1380   21.5240  -32.0410 C   0  0  0  0  0  0  0  0  0  0  0  0
   -7.0500   22.3110  -31.6750 C   0  0  0  0  0  0  0  0  0  0  0  0
   -7.0060   23.6190  -31.2520 C   0  0  0  0  0  0  0  0  0  0  0  0
   -5.6560   23.8980  -31.0490 C   0  0  0  0  0  0  0  0  0  0  0  0
   -5.1650   25.1810  -30.5050 C   0  0  0  0  0  0  0  0  0  0  0  0
   -3.8700   25.6730  -30.8390 N   0  0  0  0  0  0  0  0  0  0  0  0
   -5.8800   25.8300  -29.6950 O   0  0  0  0  0  0  0  0  0  0  0  0
   -4.8930   22.8070  -31.3450 N   0  0  0  0  0  0  0  0  0  0  0  0
   -3.4600   22.7050  -31.3490 C   0  0  0  0  0  0  0  0  0  0  0  0
   -2.8680   22.1960  -32.3400 O   0  0  0  0  0  0  0  0  0  0  0  0
   -2.7300   23.1480  -30.2430 O   0  0  0  0  0  0  0  0  0  0  0  0
   -3.1280   22.8780  -28.9040 C   0  0  0  0  0  0  0  0  0  0  0  0
   -5.7610   21.8430  -31.7240 C   0  0  0  0  0  0  0  0  0  0  0  0
   -5.4800   20.5470  -32.1710 C   0  0  0  0  0  0  0  0  0  0  0  0
   -6.0080   17.2560  -32.0030 C   0  0  0  0  0  0  0  0  0  0  0  0
   -7.3430   17.2630  -32.7310 C   0  0  0  0  0  0  0  0  0  0  0  0
   -3.0225   18.3904  -32.8750 H   0  0  0  0  0  0  0  0  0  0  0  0
   -2.1822   17.8572  -34.3704 H   0  0  0  0  0  0  0  0  0  0  0  0
   -3.1364   19.3791  -34.3704 H   0  0  0  0  0  0  0  0  0  0  0  0
   -8.7246   19.5659  -32.7739 H   0  0  0  0  0  0  0  0  0  0  0  0
   -9.1641   21.9174  -31.9919 H   0  0  0  0  0  0  0  0  0  0  0  0
   -7.8567   24.3007  -31.1050 H   0  0  0  0  0  0  0  0  0  0  0  0
   -3.0140   25.2840  -30.3840 H   0  0  0  0  0  0  0  0  0  0  0  0
   -2.4229   23.3564  -28.2083 H   0  0  0  0  0  0  0  0  0  0  0  0
   -4.1386   23.2777  -28.7342 H   0  0  0  0  0  0  0  0  0  0  0  0
   -3.1302   21.7912  -28.7342 H   0  0  0  0  0  0  0  0  0  0  0  0
   -4.4430   20.1867  -32.2400 H   0  0  0  0  0  0  0  0  0  0  0  0
   -5.2710   16.4670  -32.2137 H   0  0  0  0  0  0  0  0  0  0  0  0
   -5.6982   17.2640  -30.9476 H   0  0  0  0  0  0  0  0  0  0  0  0
   -7.5713   16.4791  -33.4681 H   0  0  0  0  0  0  0  0  0  0  0  0
   -8.3980   17.2782  -32.4198 H   0  0  0  0  0  0  0  0  0  0  0  0
  1  2  1  0
  2  3  1  0
  3  4  2  0
  3  5  1  0
  5  6  1  0
  6  7  2  0
  7  8  1  0
  8  9  2  0
  9 10  1  0
 10 11  2  0
 11 12  1  0
 12 13  1  0
 12 14  2  0
 11 15  1  0
 15 16  1  0
 16 17  2  0
 16 18  1  0
 18 19  1  0
 15 20  1  0
 20 21  2  0
  5 22  1  0
 22 23  1  0
 23  5  1  0
 21  6  1  0
 20  9  1  0
  1 24  1  0
  1 25  1  0
  1 26  1  0
  7 27  1  0
  8 28  1  0
 10 29  1  0
 13 30  1  0
 19 31  1  0
 19 32  1  0
 19 33  1  0
 21 34  1  0
 22 35  1  0
 22 36  1  0
 23 37  1  0
 23 38  1  0
M  CHG  2   2  -1  13  -1
M  END
>  <UniqueID>  (7) 
7

>  <SMILES>  (7) 
C[N-]C(=O)C1(c2ccc3cc(C([NH-])=O)n(C(=O)OC)c3c2)CC1

>  <Energy>  (7) 
338.58616199703636

>  <Genealogy>  (7) 
C[N-]C(=O)C1(c2ccc3cc(C([NH-])=O)n(C(=O)OC)c3c2)CC1 (protonated)
C[N-]C(=O)C1(c2ccc3cc(C([NH-])=O)n(C(=O)OC)c3c2)CC1 (3D coordinates assigned)
C[N-]C(=O)C1(c2ccc3cc(C([NH-])=O)n(C(=O)OC)c3c2)CC1 (nonaromatic ring conformer: 338.58616199703636 kcal/mol)

>  <smiles>  (7) 
CNC(=O)C1(c2ccc3cc(C(N)=O)n(C(=O)OC)c3c2)CC1

>  <score_type>  (7) 
oracle

>  <origin>  (7) 
adg

>  <m_score__min__energy>  (7) 
-10.109999999999999

>  <m_primary>  (7) 
energy

$$$$
7:0
     RDKit          3D

 29 30  0  0  0  0  0  0  0  0999 V2000
   -7.7270   20.9480  -32.0010 C   0  0  0  0  0  0  0  0  0  0  0  0
   -6.6670   19.9510  -32.3650 C   0  0  0  0  0  0  0  0  0  0  0  0
   -6.6840   18.8450  -31.8450 O   0  0  0  0  0  0  0  0  0  0  0  0
   -5.5760   20.2930  -33.3420 C   0  0  0  0  0  0  0  0  0  0  0  0
   -4.3520   20.7650  -32.6090 C   0  0  0  0  0  0  0  0  0  0  0  0
   -3.1950   19.9490  -32.5530 C   0  0  0  0  0  0  0  0  0  0  0  0
   -2.0630   20.3610  -31.8320 C   0  0  0  0  0  0  0  0  0  0  0  0
   -2.1170   21.5890  -31.1780 C   0  0  0  0  0  0  0  0  0  0  0  0
   -1.1800   22.2130  -30.3880 C   0  0  0  0  0  0  0  0  0  0  0  0
   -1.7720   23.4060  -29.9800 C   0  0  0  0  0  0  0  0  0  0  0  0
   -1.0710   24.4280  -29.1750 C   0  0  0  0  0  0  0  0  0  0  0  0
   -1.6730   25.7040  -28.9680 N   0  0  0  0  0  0  0  0  0  0  0  0
    0.0390   24.1750  -28.6370 O   0  0  0  0  0  0  0  0  0  0  0  0
   -3.0330   23.5120  -30.4930 N   0  0  0  0  0  0  0  0  0  0  0  0
   -3.9950   24.5540  -30.2590 C   0  0  0  0  0  0  0  0  0  0  0  0
   -3.8830   25.6670  -30.8380 O   0  0  0  0  0  0  0  0  0  0  0  0
   -5.0460   24.3520  -29.3730 O   0  0  0  0  0  0  0  0  0  0  0  0
   -3.2260   22.3940  -31.2270 C   0  0  0  0  0  0  0  0  0  0  0  0
   -4.3750   21.9990  -31.9230 C   0  0  0  0  0  0  0  0  0  0  0  0
   -7.8028   21.0193  -30.9059 H   0  0  0  0  0  0  0  0  0  0  0  0
   -7.4624   21.9321  -32.4151 H   0  0  0  0  0  0  0  0  0  0  0  0
   -8.6931   20.6237  -32.4151 H   0  0  0  0  0  0  0  0  0  0  0  0
   -5.3240   19.3998  -33.9325 H   0  0  0  0  0  0  0  0  0  0  0  0
   -5.9281   21.0957  -34.0066 H   0  0  0  0  0  0  0  0  0  0  0  0
   -3.1836   18.9833  -33.0796 H   0  0  0  0  0  0  0  0  0  0  0  0
   -1.1611   19.7330  -31.7852 H   0  0  0  0  0  0  0  0  0  0  0  0
   -0.1747   21.8470  -30.1322 H   0  0  0  0  0  0  0  0  0  0  0  0
   -2.7080   25.8230  -29.0160 H   0  0  0  0  0  0  0  0  0  0  0  0
   -5.2731   22.6341  -31.9351 H   0  0  0  0  0  0  0  0  0  0  0  0
  1  2  1  0
  2  3  2  0
  2  4  1  0
  4  5  1  0
  5  6  2  0
  6  7  1  0
  7  8  2  0
  8  9  1  0
  9 10  2  0
 10 11  1  0
 11 12  1  0
 11 13  2  0
 10 14  1  0
 14 15  1  0
 15 16  2  0
 15 17  1  0
 14 18  1  0
 18 19  2  0
 19  5  1  0
 18  8  1  0
  1 20  1  0
  1 21  1  0
  1 22  1  0
  4 23  1  0
  4 24  1  0
  6 25  1  0
  7 26  1  0
  9 27  1  0
 12 28  1  0
 19 29  1  0
M  CHG  2  12  -1  17  -1
M  END
>  <UniqueID>  (8) 
8

>  <SMILES>  (8) 
CC(=O)Cc1ccc2cc(C([NH-])=O)n(C(=O)[O-])c2c1

>  <Energy>  (8) 
64.51028075287469

>  <Genealogy>  (8) 
CC(=O)Cc1ccc2cc(C([NH-])=O)n(C(=O)[O-])c2c1 (protonated)
CC(=O)Cc1ccc2cc(C([NH-])=O)n(C(=O)[O-])c2c1 (3D coordinates assigned)
CC(=O)Cc1ccc2cc(C([NH-])=O)n(C(=O)[O-])c2c1 (optimized conformer: 64.51028075287469 kcal/mol)

>  <smiles>  (8) 
CC(=O)Cc1ccc2cc(C(N)=O)n(C(=O)O)c2c1

>  <score_type>  (8) 
oracle

>  <origin>  (8) 
adg

>  <m_score__min__energy>  (8) 
-10.44

>  <m_primary>  (8) 
energy

$$$$
8:0
     RDKit          3D

 47 50  0  0  0  0  0  0  0  0999 V2000
   -3.9510   22.8550  -28.4550 C   0  0  0  0  0  0  0  0  0  0  0  0
   -3.2310   24.0780  -29.0140 C   0  0  0  0  0  0  0  0  0  0  0  0
   -3.4100   24.1660  -30.4260 O   0  0  0  0  0  0  0  0  0  0  0  0
   -3.9820   23.1490  -31.2000 C   0  0  0  0  0  0  0  0  0  0  0  0
   -3.2390   22.3780  -31.8670 O   0  0  0  0  0  0  0  0  0  0  0  0
   -5.4120   22.9670  -31.2080 N   0  0  0  0  0  0  0  0  0  0  0  0
   -6.3660   23.8880  -30.8840 C   0  0  0  0  0  0  0  0  0  0  0  0
   -6.1200   25.2300  -30.3320 C   0  0  0  0  0  0  0  0  0  0  0  0
   -5.0540   26.0410  -30.8280 N   0  0  0  0  0  0  0  0  0  0  0  0
   -6.8150   25.6400  -29.3650 O   0  0  0  0  0  0  0  0  0  0  0  0
   -7.6380   23.4240  -31.2010 C   0  0  0  0  0  0  0  0  0  0  0  0
   -7.4440   22.1640  -31.7110 C   0  0  0  0  0  0  0  0  0  0  0  0
   -8.3750   21.2430  -32.1820 C   0  0  0  0  0  0  0  0  0  0  0  0
   -7.8990   20.0080  -32.6510 C   0  0  0  0  0  0  0  0  0  0  0  0
   -6.5140   19.7090  -32.6280 C   0  0  0  0  0  0  0  0  0  0  0  0
   -6.0310   18.3960  -33.1190 C   0  0  0  0  0  0  0  0  0  0  0  0
   -5.6300   18.2550  -34.4590 C   0  0  0  0  0  0  0  0  0  0  0  0
   -5.1690   17.0240  -34.9360 C   0  0  0  0  0  0  0  0  0  0  0  0
   -5.1200   15.9110  -34.0850 C   0  0  0  0  0  0  0  0  0  0  0  0
   -4.5950   14.5940  -34.5900 C   0  0  0  0  0  0  0  0  0  0  0  0
   -3.6980   14.6100  -35.6640 O   0  0  0  0  0  0  0  0  0  0  0  0
   -4.4130   13.4540  -33.6000 C   0  0  0  0  0  0  0  0  0  0  0  0
   -5.5610   13.4200  -34.6020 C   0  0  0  0  0  0  0  0  0  0  0  0
   -5.5050   16.0500  -32.7450 C   0  0  0  0  0  0  0  0  0  0  0  0
   -5.9640   17.2800  -32.2640 C   0  0  0  0  0  0  0  0  0  0  0  0
   -6.3720   17.3680  -30.9720 F   0  0  0  0  0  0  0  0  0  0  0  0
   -5.5990   20.6740  -32.1470 C   0  0  0  0  0  0  0  0  0  0  0  0
   -6.0950   21.9060  -31.7040 C   0  0  0  0  0  0  0  0  0  0  0  0
   -3.9313   22.8885  -27.3557 H   0  0  0  0  0  0  0  0  0  0  0  0
   -4.9945   22.8529  -28.8031 H   0  0  0  0  0  0  0  0  0  0  0  0
   -3.4465   21.9416  -28.8031 H   0  0  0  0  0  0  0  0  0  0  0  0
   -3.6378   24.9841  -28.5412 H   0  0  0  0  0  0  0  0  0  0  0  0
   -2.1563   23.9851  -28.7986 H   0  0  0  0  0  0  0  0  0  0  0  0
   -4.3840   25.6690  -31.5370 H   0  0  0  0  0  0  0  0  0  0  0  0
   -4.9060   27.0030  -30.4490 H   0  0  0  0  0  0  0  0  0  0  0  0
   -8.5939   23.9526  -31.0711 H   0  0  0  0  0  0  0  0  0  0  0  0
   -9.4502   21.4753  -32.1867 H   0  0  0  0  0  0  0  0  0  0  0  0
   -8.6094   19.2641  -33.0407 H   0  0  0  0  0  0  0  0  0  0  0  0
   -5.6792   19.1195  -35.1374 H   0  0  0  0  0  0  0  0  0  0  0  0
   -4.8437   16.9286  -35.9825 H   0  0  0  0  0  0  0  0  0  0  0  0
   -3.6230   13.6670  -35.9610 H   0  0  0  0  0  0  0  0  0  0  0  0
   -3.5665   12.7601  -33.7093 H   0  0  0  0  0  0  0  0  0  0  0  0
   -4.3327   13.3790  -32.5055 H   0  0  0  0  0  0  0  0  0  0  0  0
   -5.5434   12.7015  -35.4347 H   0  0  0  0  0  0  0  0  0  0  0  0
   -6.6532   13.3101  -34.5307 H   0  0  0  0  0  0  0  0  0  0  0  0
   -5.4458   15.1858  -32.0670 H   0  0  0  0  0  0  0  0  0  0  0  0
   -4.5201   20.4611  -32.1214 H   0  0  0  0  0  0  0  0  0  0  0  0
  1  2  1  0
  2  3  1  0
  3  4  1  0
  4  5  2  0
  4  6  1  0
  6  7  1  0
  7  8  1  0
  8  9  1  0
  8 10  2  0
  7 11  2  0
 11 12  1  0
 12 13  2  0
 13 14  1  0
 14 15  2  0
 15 16  1  0
 16 17  2  0
 17 18  1  0
 18 19  2  0
 19 20  1  0
 20 21  1  0
 20 22  1  0
 22 23  1  0
 19 24  1  0
 24 25  2  0
 25 26  1  0
 15 27  1  0
 27 28  2  0
 28  6  1  0
 28 12  1  0
 25 16  1  0
 23 20  1  0
  1 29  1  0
  1 30  1  0
  1 31  1  0
  2 32  1  0
  2 33  1  0
  9 34  1  0
  9 35  1  0
 11 36  1  0
 13 37  1  0
 14 38  1  0
 17 39  1  0
 18 40  1  0
 21 41  1  0
 22 42  1  0
 22 43  1  0
 23 44  1  0
 23 45  1  0
 24 46  1  0
 27 47  1  0
M  END
>  <UniqueID>  (9) 
9

>  <SMILES>  (9) 
CCOC(=O)n1c(C(N)=O)cc2ccc(-c3ccc(C4(O)CC4)cc3F)cc21

>  <Energy>  (9) 
361.9324739597472

>  <Genealogy>  (9) 
CCOC(=O)n1c(C(N)=O)cc2ccc(-c3ccc(C4(O)CC4)cc3F)cc21 (3D coordinates assigned)
CCOC(=O)n1c(C(N)=O)cc2ccc(-c3ccc(C4(O)CC4)cc3F)cc21 (nonaromatic ring conformer: 361.9324739597472 kcal/mol)

>  <smiles>  (9) 
CCOC(=O)n1c(C(N)=O)cc2ccc(-c3ccc(C4(O)CC4)cc3F)cc21

>  <score_type>  (9) 
oracle

>  <origin>  (9) 
adg

>  <m_score__min__energy>  (9) 
-9.1199999999999992

>  <m_primary>  (9) 
energy

$$$$
9:0
     RDKit          3D

 41 42  0  0  0  0  0  0  0  0999 V2000
   -5.1570   18.5220  -34.6120 C   0  0  0  0  0  0  0  0  0  0  0  0
   -5.5230   17.0640  -34.3800 C   0  0  0  0  0  0  0  0  0  0  0  0
   -5.5740   16.8050  -32.9820 O   0  0  0  0  0  0  0  0  0  0  0  0
   -6.4830   17.4390  -32.1290 C   0  0  0  0  0  0  0  0  0  0  0  0
   -6.3260   17.4010  -30.8780 O   0  0  0  0  0  0  0  0  0  0  0  0
   -7.6740   18.1270  -32.7120 C   0  0  0  0  0  0  0  0  0  0  0  0
   -7.7280   19.5520  -32.2340 C   0  0  0  0  0  0  0  0  0  0  0  0
   -8.9750   20.2090  -32.0950 C   0  0  0  0  0  0  0  0  0  0  0  0
   -9.0330   21.5460  -31.6650 C   0  0  0  0  0  0  0  0  0  0  0  0
   -7.8330   22.2010  -31.4040 C   0  0  0  0  0  0  0  0  0  0  0  0
   -7.6070   23.4800  -30.9500 C   0  0  0  0  0  0  0  0  0  0  0  0
   -6.2220   23.5980  -30.8650 C   0  0  0  0  0  0  0  0  0  0  0  0
   -5.5380   24.8450  -30.4680 C   0  0  0  0  0  0  0  0  0  0  0  0
   -5.8360   25.4920  -29.2310 N   0  0  0  0  0  0  0  0  0  0  0  0
   -4.6340   25.3160  -31.2090 O   0  0  0  0  0  0  0  0  0  0  0  0
   -5.6140   22.4370  -31.2370 N   0  0  0  0  0  0  0  0  0  0  0  0
   -4.2100   22.1320  -31.1750 C   0  0  0  0  0  0  0  0  0  0  0  0
   -3.3580   23.0610  -31.2070 O   0  0  0  0  0  0  0  0  0  0  0  0
   -3.7940   20.8000  -31.0780 O   0  0  0  0  0  0  0  0  0  0  0  0
   -3.1310   20.1210  -32.1380 C   0  0  0  0  0  0  0  0  0  0  0  0
   -3.2030   20.9620  -33.4020 C   0  0  0  0  0  0  0  0  0  0  0  0
   -6.6160   21.5900  -31.5660 C   0  0  0  0  0  0  0  0  0  0  0  0
   -6.5300   20.2510  -31.9690 C   0  0  0  0  0  0  0  0  0  0  0  0
   -5.0303   19.0269  -33.6430 H   0  0  0  0  0  0  0  0  0  0  0  0
   -4.2169   18.5781  -35.1804 H   0  0  0  0  0  0  0  0  0  0  0  0
   -5.9591   19.0154  -35.1804 H   0  0  0  0  0  0  0  0  0  0  0  0
   -6.5063   16.8570  -34.8275 H   0  0  0  0  0  0  0  0  0  0  0  0
   -4.7650   16.4169  -34.8456 H   0  0  0  0  0  0  0  0  0  0  0  0
   -7.6020   18.1131  -33.8096 H   0  0  0  0  0  0  0  0  0  0  0  0
   -8.5869   17.6033  -32.3921 H   0  0  0  0  0  0  0  0  0  0  0  0
   -9.9052   19.6689  -32.3253 H   0  0  0  0  0  0  0  0  0  0  0  0
   -9.9977   22.0592  -31.5386 H   0  0  0  0  0  0  0  0  0  0  0  0
   -8.3589   24.2451  -30.7065 H   0  0  0  0  0  0  0  0  0  0  0  0
   -6.4520   25.0400  -28.5210 H   0  0  0  0  0  0  0  0  0  0  0  0
   -5.3690   26.3930  -28.9850 H   0  0  0  0  0  0  0  0  0  0  0  0
   -2.0778   19.9570  -31.8663 H   0  0  0  0  0  0  0  0  0  0  0  0
   -3.6195   19.1514  -32.3145 H   0  0  0  0  0  0  0  0  0  0  0  0
   -3.2939   22.0242  -33.1310 H   0  0  0  0  0  0  0  0  0  0  0  0
   -2.2887   20.8118  -33.9949 H   0  0  0  0  0  0  0  0  0  0  0  0
   -4.0785   20.6586  -33.9949 H   0  0  0  0  0  0  0  0  0  0  0  0
   -5.5534   19.7564  -32.0763 H   0  0  0  0  0  0  0  0  0  0  0  0
  1  2  1  0
  2  3  1  0
  3  4  1  0
  4  5  2  0
  4  6  1  0
  6  7  1  0
  7  8  2  0
  8  9  1  0
  9 10  2  0
 10 11  1  0
 11 12  2  0
 12 13  1  0
 13 14  1  0
 13 15  2  0
 12 16  1  0
 16 17  1  0
 17 18  2  0
 17 19  1  0
 19 20  1  0
 20 21  1  0
 16 22  1  0
 22 23  2  0
 23  7  1  0
 22 10  1  0
  1 24  1  0
  1 25  1  0
  1 26  1  0
  2 27  1  0
  2 28  1  0
  6 29  1  0
  6 30  1  0
  8 31  1  0
  9 32  1  0
 11 33  1  0
 14 34  1  0
 14 35  1  0
 20 36  1  0
 20 37  1  0
 21 38  1  0
 21 39  1  0
 21 40  1  0
 23 41  1  0
M  END
>  <UniqueID>  (10) 
10

>  <SMILES>  (10) 
CCOC(=O)Cc1ccc2cc(C(N)=O)n(C(=O)OCC)c2c1

>  <Energy>  (10) 
67.66524314960755

>  <Genealogy>  (10) 
CCOC(=O)Cc1ccc2cc(C(N)=O)n(C(=O)OCC)c2c1 (3D coordinates assigned)
CCOC(=O)Cc1ccc2cc(C(N)=O)n(C(=O)OCC)c2c1 (optimized conformer: 67.66524314960755 kcal/mol)

>  <smiles>  (10) 
CCOC(=O)Cc1ccc2cc(C(N)=O)n(C(=O)OCC)c2c1

>  <score_type>  (10) 
oracle

>  <origin>  (10) 
adg

>  <m_score__min__energy>  (10) 
-8.0399999999999991

>  <m_primary>  (10) 
energy

$$$$
10:0
     RDKit          3D

 41 43  0  0  0  0  0  0  0  0999 V2000
   -7.4250   13.3770  -34.6740 C   0  0  0  0  0  0  0  0  0  0  0  0
   -6.0360   13.5320  -34.9400 O   0  0  0  0  0  0  0  0  0  0  0  0
   -5.1690   14.1980  -34.0660 C   0  0  0  0  0  0  0  0  0  0  0  0
   -4.1340   13.6150  -33.6390 O   0  0  0  0  0  0  0  0  0  0  0  0
   -5.4700   15.5840  -33.6440 C   0  0  0  0  0  0  0  0  0  0  0  0
   -5.7990   16.5610  -34.5980 C   0  0  0  0  0  0  0  0  0  0  0  0
   -6.0820   17.8710  -34.2040 C   0  0  0  0  0  0  0  0  0  0  0  0
   -6.0450   18.2330  -32.8450 C   0  0  0  0  0  0  0  0  0  0  0  0
   -6.3490   19.6250  -32.4260 C   0  0  0  0  0  0  0  0  0  0  0  0
   -7.6910   20.0920  -32.4060 C   0  0  0  0  0  0  0  0  0  0  0  0
   -7.9910   21.4020  -32.0000 C   0  0  0  0  0  0  0  0  0  0  0  0
   -6.9350   22.2280  -31.6270 C   0  0  0  0  0  0  0  0  0  0  0  0
   -6.9460   23.5250  -31.1690 C   0  0  0  0  0  0  0  0  0  0  0  0
   -5.6100   23.8450  -30.9360 C   0  0  0  0  0  0  0  0  0  0  0  0
   -5.1590   25.1870  -30.5120 C   0  0  0  0  0  0  0  0  0  0  0  0
   -3.8700   25.6750  -30.8730 N   0  0  0  0  0  0  0  0  0  0  0  0
   -5.9410   25.9330  -29.8640 O   0  0  0  0  0  0  0  0  0  0  0  0
   -4.8060   22.7860  -31.2300 N   0  0  0  0  0  0  0  0  0  0  0  0
   -3.3860   22.6810  -31.0370 C   0  0  0  0  0  0  0  0  0  0  0  0
   -2.6730   22.1110  -31.9060 O   0  0  0  0  0  0  0  0  0  0  0  0
   -2.8050   23.1940  -29.8720 O   0  0  0  0  0  0  0  0  0  0  0  0
   -3.3250   22.9290  -28.5750 C   0  0  0  0  0  0  0  0  0  0  0  0
   -5.6320   21.8040  -31.6560 C   0  0  0  0  0  0  0  0  0  0  0  0
   -5.3050   20.4980  -32.0370 C   0  0  0  0  0  0  0  0  0  0  0  0
   -5.7180   17.2540  -31.8910 C   0  0  0  0  0  0  0  0  0  0  0  0
   -5.4330   15.9450  -32.2860 C   0  0  0  0  0  0  0  0  0  0  0  0
   -7.5903   13.3586  -33.5866 H   0  0  0  0  0  0  0  0  0  0  0  0
   -7.9789   14.2189  -35.1148 H   0  0  0  0  0  0  0  0  0  0  0  0
   -7.7797   12.4337  -35.1148 H   0  0  0  0  0  0  0  0  0  0  0  0
   -5.8341   16.2924  -35.6641 H   0  0  0  0  0  0  0  0  0  0  0  0
   -6.3359   18.6259  -34.9627 H   0  0  0  0  0  0  0  0  0  0  0  0
   -8.5050   19.4186  -32.7125 H   0  0  0  0  0  0  0  0  0  0  0  0
   -9.0293   21.7645  -31.9774 H   0  0  0  0  0  0  0  0  0  0  0  0
   -7.8229   24.1719  -31.0187 H   0  0  0  0  0  0  0  0  0  0  0  0
   -3.0040   25.2690  -30.4520 H   0  0  0  0  0  0  0  0  0  0  0  0
   -2.6164   23.2901  -27.8151 H   0  0  0  0  0  0  0  0  0  0  0  0
   -4.2882   23.4462  -28.4534 H   0  0  0  0  0  0  0  0  0  0  0  0
   -3.4726   21.8457  -28.4534 H   0  0  0  0  0  0  0  0  0  0  0  0
   -4.2592   20.1571  -32.0343 H   0  0  0  0  0  0  0  0  0  0  0  0
   -5.6863   17.5210  -30.8244 H   0  0  0  0  0  0  0  0  0  0  0  0
   -5.1774   15.1901  -31.5279 H   0  0  0  0  0  0  0  0  0  0  0  0
  1  2  1  0
  2  3  1  0
  3  4  2  0
  3  5  1  0
  5  6  2  0
  6  7  1  0
  7  8  2  0
  8  9  1  0
  9 10  2  0
 10 11  1  0
 11 12  2  0
 12 13  1  0
 13 14  2  0
 14 15  1  0
 15 16  1  0
 15 17  2  0
 14 18  1  0
 18 19  1  0
 19 20  2  0
 19 21  1  0
 21 22  1  0
 18 23  1  0
 23 24  2  0
  8 25  1  0
 25 26  2  0
 26  5  1  0
 24  9  1  0
 23 12  1  0
  1 27  1  0
  1 28  1  0
  1 29  1  0
  6 30  1  0
  7 31  1  0
 10 32  1  0
 11 33  1  0
 13 34  1  0
 16 35  1  0
 22 36  1  0
 22 37  1  0
 22 38  1  0
 24 39  1  0
 25 40  1  0
 26 41  1  0
M  CHG  1  16  -1
M  END
>  <UniqueID>  (11) 
11

>  <SMILES>  (11) 
COC(=O)c1ccc(-c2ccc3cc(C([NH-])=O)n(C(=O)OC)c3c2)cc1

>  <Energy>  (11) 
84.38460925347964

>  <Genealogy>  (11) 
COC(=O)c1ccc(-c2ccc3cc(C([NH-])=O)n(C(=O)OC)c3c2)cc1 (protonated)
COC(=O)c1ccc(-c2ccc3cc(C([NH-])=O)n(C(=O)OC)c3c2)cc1 (3D coordinates assigned)
COC(=O)c1ccc(-c2ccc3cc(C([NH-])=O)n(C(=O)OC)c3c2)cc1 (optimized conformer: 84.38460925347964 kcal/mol)

>  <smiles>  (11) 
COC(=O)c1ccc(-c2ccc3cc(C(N)=O)n(C(=O)OC)c3c2)cc1

>  <score_type>  (11) 
oracle

>  <origin>  (11) 
adg

>  <m_score__min__energy>  (11) 
-9.9800000000000004

>  <m_primary>  (11) 
energy

$$$$
11:0
     RDKit          3D

 58 60  0  0  0  0  0  0  0  0999 V2000
   -2.9020   25.2410  -30.7700 H   0  0  0  0  0  0  0  0  0  0  0  0
   -3.8670   25.5170  -30.4800 N   0  0  0  0  0  0  0  0  0  0  0  0
   -4.9110   24.5510  -30.3950 C   0  0  0  0  0  0  0  0  0  0  0  0
   -5.8770   24.7540  -29.6100 O   0  0  0  0  0  0  0  0  0  0  0  0
   -4.8470   23.2930  -31.1660 C   0  0  0  0  0  0  0  0  0  0  0  0
   -5.8310   22.8960  -32.0690 C   0  0  0  0  0  0  0  0  0  0  0  0
   -6.7245   23.4609  -32.3732 H   0  0  0  0  0  0  0  0  0  0  0  0
   -5.4470   21.6470  -32.4990 C   0  0  0  0  0  0  0  0  0  0  0  0
   -6.0510   20.7900  -33.4120 C   0  0  0  0  0  0  0  0  0  0  0  0
   -6.9977   21.0623  -33.9016 H   0  0  0  0  0  0  0  0  0  0  0  0
   -5.4200   19.5680  -33.6920 C   0  0  0  0  0  0  0  0  0  0  0  0
   -5.8794   18.8718  -34.4091 H   0  0  0  0  0  0  0  0  0  0  0  0
   -4.1910   19.2170  -33.0590 C   0  0  0  0  0  0  0  0  0  0  0  0
   -3.4620   17.8980  -33.3220 C   0  0  1  0  0  0  0  0  0  0  0  0
   -3.0403   17.5827  -32.3562 H   0  0  0  0  0  0  0  0  0  0  0  0
   -4.4390   16.8090  -33.7620 C   0  0  0  0  0  0  0  0  0  0  0  0
   -5.4330   16.3190  -32.9850 C   0  0  0  0  0  0  0  0  0  0  0  0
   -6.2030   15.3130  -33.4750 F   0  0  0  0  0  0  0  0  0  0  0  0
   -5.7460   16.8260  -31.6270 C   0  0  0  0  0  0  0  0  0  0  0  0
   -5.0561   16.5805  -30.8062 H   0  0  0  0  0  0  0  0  0  0  0  0
   -6.7960   17.5470  -31.3570 N   0  0  0  0  0  0  0  0  0  0  0  0
   -7.8290   17.9480  -32.3060 C   0  0  0  0  0  0  0  0  0  0  0  0
   -8.4930   17.0944  -32.5072 H   0  0  0  0  0  0  0  0  0  0  0  0
   -7.3570   18.2755  -33.2441 H   0  0  0  0  0  0  0  0  0  0  0  0
   -8.6410   19.0950  -31.7200 C   0  0  0  0  0  0  0  0  0  0  0  0
   -8.6059   19.0454  -30.6217 H   0  0  0  0  0  0  0  0  0  0  0  0
   -8.2188   20.0530  -32.0575 H   0  0  0  0  0  0  0  0  0  0  0  0
   -9.6849   19.0152  -32.0575 H   0  0  0  0  0  0  0  0  0  0  0  0
   -4.2480   16.2420  -35.0690 N   0  0  0  0  0  0  0  0  0  0  0  0
   -4.0050   16.8470  -35.8850 H   0  0  0  0  0  0  0  0  0  0  0  0
   -4.3510   15.2200  -35.2510 H   0  0  0  0  0  0  0  0  0  0  0  0
   -2.1880   18.0180  -34.2240 C   0  0  0  0  0  0  0  0  0  0  0  0
   -1.7700   17.0073  -34.3408 H   0  0  0  0  0  0  0  0  0  0  0  0
   -2.5439   18.4886  -35.1524 H   0  0  0  0  0  0  0  0  0  0  0  0
   -1.0950   18.8990  -33.7470 N   0  0  0  0  0  0  0  0  0  0  0  0
   -0.7710   18.8320  -32.3210 C   0  0  0  0  0  0  0  0  0  0  0  0
   -1.6860   18.6771  -31.7305 H   0  0  0  0  0  0  0  0  0  0  0  0
   -0.0915   17.9939  -32.1069 H   0  0  0  0  0  0  0  0  0  0  0  0
   -0.1330   20.1610  -31.9600 C   0  0  0  0  0  0  0  0  0  0  0  0
   -0.4214   20.4651  -30.9430 H   0  0  0  0  0  0  0  0  0  0  0  0
    0.9657   20.1098  -31.9729 H   0  0  0  0  0  0  0  0  0  0  0  0
   -0.6700   21.1420  -32.9820 C   0  0  0  0  0  0  0  0  0  0  0  0
   -1.5487   21.6703  -32.5835 H   0  0  0  0  0  0  0  0  0  0  0  0
    0.0738   21.9095  -33.2420 H   0  0  0  0  0  0  0  0  0  0  0  0
   -1.0580   20.2980  -34.1890 C   0  0  0  0  0  0  0  0  0  0  0  0
   -2.0481   20.6025  -34.5591 H   0  0  0  0  0  0  0  0  0  0  0  0
   -0.3340   20.4300  -35.0065 H   0  0  0  0  0  0  0  0  0  0  0  0
   -3.6090   20.1290  -32.1440 C   0  0  0  0  0  0  0  0  0  0  0  0
   -2.6505   19.8973  -31.6566 H   0  0  0  0  0  0  0  0  0  0  0  0
   -4.2740   21.3290  -31.8710 C   0  0  0  0  0  0  0  0  0  0  0  0
   -3.8900   22.3310  -31.0500 N   0  0  0  0  0  0  0  0  0  0  0  0
   -2.6680   22.3960  -30.2980 C   0  0  0  0  0  0  0  0  0  0  0  0
   -1.8900   23.3800  -30.4420 O   0  0  0  0  0  0  0  0  0  0  0  0
   -2.3590   21.3810  -29.3880 O   0  0  0  0  0  0  0  0  0  0  0  0
   -2.9390   21.3100  -28.0910 C   0  0  0  0  0  0  0  0  0  0  0  0
   -2.1499   21.4066  -27.3307 H   0  0  0  0  0  0  0  0  0  0  0  0
   -3.6669   22.1257  -27.9697 H   0  0  0  0  0  0  0  0  0  0  0  0
   -3.4486   20.3428  -27.9697 H   0  0  0  0  0  0  0  0  0  0  0  0
  1  2  1  0
  2  3  1  0
  3  4  2  0
  3  5  1  0
  5  6  2  0
  6  7  1  0
  6  8  1  0
  8  9  2  0
  9 10  1  0
  9 11  1  0
 11 12  1  0
 11 13  2  0
 13 14  1  0
 14 15  1  1
 14 16  1  0
 16 17  2  0
 17 18  1  0
 17 19  1  0
 19 20  1  0
 19 21  2  0
 21 22  1  0
 22 23  1  0
 22 24  1  0
 22 25  1  0
 25 26  1  0
 25 27  1  0
 25 28  1  0
 16 29  1  0
 29 30  1  0
 29 31  1  0
 14 32  1  0
 32 33  1  0
 32 34  1  0
 32 35  1  0
 35 36  1  0
 36 37  1  0
 36 38  1  0
 36 39  1  0
 39 40  1  0
 39 41  1  0
 39 42  1  0
 42 43  1  0
 42 44  1  0
 42 45  1  0
 45 46  1  0
 45 47  1  0
 13 48  1  0
 48 49  1  0
 48 50  2  0
 50 51  1  0
 51 52  1  0
 52 53  2  0
 52 54  1  0
 54 55  1  0
 55 56  1  0
 55 57  1  0
 55 58  1  0
 51  5  1  0
 50  8  1  0
 45 35  1  0
M  CHG  1   2  -1
M  END
>  <UniqueID>  (12) 
12

>  <SMILES>  (12) 
CC/N=C\C(F)=C(\N)[C@@H](CN1CCCC1)c1ccc2cc(C([NH-])=O)n(C(=O)OC)c2c1

>  <Energy>  (12) 
112.01246287861882

>  <Genealogy>  (12) 
CC/N=C\C(F)=C(\N)C(CN1CCCC1)c1ccc2cc(C([NH-])=O)n(C(=O)OC)c2c1 (protonated)
CC/N=C\C(F)=C(\N)[C@@H](CN1CCCC1)c1ccc2cc(C([NH-])=O)n(C(=O)OC)c2c1 (chirality)
CC/N=C\C(F)=C(\N)[C@@H](CN1CCCC1)c1ccc2cc(C([NH-])=O)n(C(=O)OC)c2c1 (cis-trans isomerization)
CC/N=C\C(F)=C(\N)[C@@H](CN1CCCC1)c1ccc2cc(C([NH-])=O)n(C(=O)OC)c2c1 (3D coordinates assigned)
CC/N=C\C(F)=C(\N)[C@@H](CN1CCCC1)c1ccc2cc(C([NH-])=O)n(C(=O)OC)c2c1 (nonaromatic ring conformer: 112.01246287861882 kcal/mol)

>  <smiles>  (12) 
CC/N=C\C(F)=C(\N)C(CN1CCCC1)c1ccc2cc(C(N)=O)n(C(=O)OC)c2c1

>  <score_type>  (12) 
oracle

>  <origin>  (12) 
adg

>  <m_score__min__energy>  (12) 
-10.859999999999999

>  <m_primary>  (12) 
energy

$$$$
12:0
     RDKit          3D

 46 48  0  0  0  0  0  0  0  0999 V2000
   -6.5700   23.0530  -31.3610 C   0  0  0  0  0  0  0  0  0  0  0  0
   -6.3010   23.6260  -29.9740 C   0  0  0  0  0  0  0  0  0  0  0  0
   -4.9640   23.3470  -29.5660 O   0  0  0  0  0  0  0  0  0  0  0  0
   -3.8350   23.8350  -30.2340 C   0  0  0  0  0  0  0  0  0  0  0  0
   -3.8760   24.9470  -30.8270 O   0  0  0  0  0  0  0  0  0  0  0  0
   -2.6350   23.0480  -30.2690 N   0  0  0  0  0  0  0  0  0  0  0  0
   -1.3950   23.3890  -29.8140 C   0  0  0  0  0  0  0  0  0  0  0  0
   -1.0570   24.6010  -29.0380 C   0  0  0  0  0  0  0  0  0  0  0  0
   -1.9820   25.6770  -28.9160 N   0  0  0  0  0  0  0  0  0  0  0  0
    0.0490   24.6670  -28.4360 O   0  0  0  0  0  0  0  0  0  0  0  0
   -0.4750   22.3840  -30.1040 C   0  0  0  0  0  0  0  0  0  0  0  0
   -1.1970   21.4040  -30.7460 C   0  0  0  0  0  0  0  0  0  0  0  0
   -0.7820   20.1820  -31.2650 C   0  0  0  0  0  0  0  0  0  0  0  0
   -1.7400   19.3760  -31.9030 C   0  0  0  0  0  0  0  0  0  0  0  0
   -3.0890   19.8050  -32.0200 C   0  0  0  0  0  0  0  0  0  0  0  0
   -4.0930   18.9510  -32.7050 C   0  0  0  0  0  0  0  0  0  0  0  0
   -3.7740   18.3000  -33.9060 C   0  0  0  0  0  0  0  0  0  0  0  0
   -4.7190   17.5010  -34.5520 C   0  0  0  0  0  0  0  0  0  0  0  0
   -6.0050   17.3360  -34.0080 C   0  0  0  0  0  0  0  0  0  0  0  0
   -6.9820   16.5420  -34.6300 O   0  0  0  0  0  0  0  0  0  0  0  0
   -7.2010   15.1630  -34.3460 C   0  0  0  0  0  0  0  0  0  0  0  0
   -6.3370   17.9810  -32.8070 C   0  0  0  0  0  0  0  0  0  0  0  0
   -7.6280   17.7980  -32.2870 O   0  0  0  0  0  0  0  0  0  0  0  0
   -8.5430   18.8530  -32.0080 C   0  0  0  0  0  0  0  0  0  0  0  0
   -5.3780   18.7850  -32.1600 C   0  0  0  0  0  0  0  0  0  0  0  0
   -3.4680   21.0570  -31.4820 C   0  0  0  0  0  0  0  0  0  0  0  0
   -2.4970   21.8280  -30.8330 C   0  0  0  0  0  0  0  0  0  0  0  0
   -7.0356   22.0611  -31.2640 H   0  0  0  0  0  0  0  0  0  0  0  0
   -7.2472   23.7239  -31.9099 H   0  0  0  0  0  0  0  0  0  0  0  0
   -5.6212   22.9605  -31.9099 H   0  0  0  0  0  0  0  0  0  0  0  0
   -6.4518   24.7154  -29.9975 H   0  0  0  0  0  0  0  0  0  0  0  0
   -6.9944   23.1610  -29.2578 H   0  0  0  0  0  0  0  0  0  0  0  0
   -2.9220   25.6330  -29.3690 H   0  0  0  0  0  0  0  0  0  0  0  0
    0.5997   22.3755  -29.8697 H   0  0  0  0  0  0  0  0  0  0  0  0
    0.2651   19.8563  -31.1785 H   0  0  0  0  0  0  0  0  0  0  0  0
   -1.4418   18.4014  -32.3167 H   0  0  0  0  0  0  0  0  0  0  0  0
   -2.7713   18.4201  -34.3421 H   0  0  0  0  0  0  0  0  0  0  0  0
   -4.4556   16.9968  -35.4935 H   0  0  0  0  0  0  0  0  0  0  0  0
   -7.2249   15.0123  -33.2566 H   0  0  0  0  0  0  0  0  0  0  0  0
   -8.1606   14.8469  -34.7811 H   0  0  0  0  0  0  0  0  0  0  0  0
   -6.3865   14.5652  -34.7811 H   0  0  0  0  0  0  0  0  0  0  0  0
   -8.6455   18.9711  -30.9192 H   0  0  0  0  0  0  0  0  0  0  0  0
   -8.1666   19.7898  -32.4447 H   0  0  0  0  0  0  0  0  0  0  0  0
   -9.5237   18.6129  -32.4447 H   0  0  0  0  0  0  0  0  0  0  0  0
   -5.6378   19.2888  -31.2173 H   0  0  0  0  0  0  0  0  0  0  0  0
   -4.5036   21.4169  -31.5718 H   0  0  0  0  0  0  0  0  0  0  0  0
  1  2  1  0
  2  3  1  0
  3  4  1  0
  4  5  2  0
  4  6  1  0
  6  7  1  0
  7  8  1  0
  8  9  1  0
  8 10  2  0
  7 11  2  0
 11 12  1  0
 12 13  2  0
 13 14  1  0
 14 15  2  0
 15 16  1  0
 16 17  2  0
 17 18  1  0
 18 19  2  0
 19 20  1  0
 20 21  1  0
 19 22  1  0
 22 23  1  0
 23 24  1  0
 22 25  2  0
 15 26  1  0
 26 27  2  0
 27  6  1  0
 27 12  1  0
 25 16  1  0
  1 28  1  0
  1 29  1  0
  1 30  1  0
  2 31  1  0
  2 32  1  0
  9 33  1  0
 11 34  1  0
 13 35  1  0
 14 36  1  0
 17 37  1  0
 18 38  1  0
 21 39  1  0
 21 40  1  0
 21 41  1  0
 24 42  1  0
 24 43  1  0
 24 44  1  0
 25 45  1  0
 26 46  1  0
M  CHG  1   9  -1
M  END
>  <UniqueID>  (13) 
13

>  <SMILES>  (13) 
CCOC(=O)n1c(C([NH-])=O)cc2ccc(-c3ccc(OC)c(OC)c3)cc21

>  <Energy>  (13) 
87.48760736078665

>  <Genealogy>  (13) 
CCOC(=O)n1c(C([NH-])=O)cc2ccc(-c3ccc(OC)c(OC)c3)cc21 (protonated)
CCOC(=O)n1c(C([NH-])=O)cc2ccc(-c3ccc(OC)c(OC)c3)cc21 (3D coordinates assigned)
CCOC(=O)n1c(C([NH-])=O)cc2ccc(-c3ccc(OC)c(OC)c3)cc21 (optimized conformer: 87.48760736078665 kcal/mol)

>  <smiles>  (13) 
CCOC(=O)n1c(C(N)=O)cc2ccc(-c3ccc(OC)c(OC)c3)cc21

>  <score_type>  (13) 
oracle

>  <origin>  (13) 
adg

>  <m_score__min__energy>  (13) 
-10.06

>  <m_primary>  (13) 
energy

$$$$
13:0
     RDKit          3D

 31 32  0  0  0  0  0  0  0  0999 V2000
   -6.9450   18.3770  -32.5990 C   0  0  0  0  0  0  0  0  0  0  0  0
   -7.0860   19.8180  -32.2060 C   0  0  0  0  0  0  0  0  0  0  0  0
   -8.3430   20.4620  -32.3120 C   0  0  0  0  0  0  0  0  0  0  0  0
   -8.4830   21.8180  -31.9690 C   0  0  0  0  0  0  0  0  0  0  0  0
   -7.3480   22.5040  -31.5460 C   0  0  0  0  0  0  0  0  0  0  0  0
   -7.2040   23.8100  -31.1360 C   0  0  0  0  0  0  0  0  0  0  0  0
   -5.8530   23.9530  -30.8260 C   0  0  0  0  0  0  0  0  0  0  0  0
   -5.2450   25.2380  -30.4220 C   0  0  0  0  0  0  0  0  0  0  0  0
   -3.9270   25.5890  -30.8360 N   0  0  0  0  0  0  0  0  0  0  0  0
   -5.9160   26.0590  -29.7420 O   0  0  0  0  0  0  0  0  0  0  0  0
   -5.1890   22.7790  -31.0280 N   0  0  0  0  0  0  0  0  0  0  0  0
   -3.8120   22.4840  -30.7500 C   0  0  0  0  0  0  0  0  0  0  0  0
   -2.8990   23.1070  -31.3580 O   0  0  0  0  0  0  0  0  0  0  0  0
   -3.4910   21.5210  -29.7890 O   0  0  0  0  0  0  0  0  0  0  0  0
   -3.4530   21.7930  -28.3890 C   0  0  1  0  0  0  0  0  0  0  0  0
   -2.5130   20.5190  -27.5570 Cl  0  0  0  0  0  0  0  0  0  0  0  0
   -2.8020   23.1560  -28.1670 C   0  0  0  0  0  0  0  0  0  0  0  0
   -3.8720   24.2320  -27.2290 Cl  0  0  0  0  0  0  0  0  0  0  0  0
   -6.1180   21.9020  -31.4710 C   0  0  0  0  0  0  0  0  0  0  0  0
   -5.9530   20.5490  -31.7870 C   0  0  0  0  0  0  0  0  0  0  0  0
   -6.8841   17.7544  -31.6942 H   0  0  0  0  0  0  0  0  0  0  0  0
   -7.8176   18.0725  -33.1955 H   0  0  0  0  0  0  0  0  0  0  0  0
   -6.0299   18.2475  -33.1955 H   0  0  0  0  0  0  0  0  0  0  0  0
   -9.2174   19.8961  -32.6658 H   0  0  0  0  0  0  0  0  0  0  0  0
   -9.4590   22.3213  -32.0329 H   0  0  0  0  0  0  0  0  0  0  0  0
   -7.9887   24.5778  -31.0676 H   0  0  0  0  0  0  0  0  0  0  0  0
   -3.0940   25.0840  -30.4610 H   0  0  0  0  0  0  0  0  0  0  0  0
   -4.4741   21.8042  -27.9800 H   0  0  0  0  0  0  0  0  0  0  0  0
   -1.8590   23.0188  -27.6176 H   0  0  0  0  0  0  0  0  0  0  0  0
   -2.6138   23.6178  -29.1475 H   0  0  0  0  0  0  0  0  0  0  0  0
   -4.9669   20.0676  -31.7110 H   0  0  0  0  0  0  0  0  0  0  0  0
  1  2  1  0
  2  3  2  0
  3  4  1  0
  4  5  2  0
  5  6  1  0
  6  7  2  0
  7  8  1  0
  8  9  1  0
  8 10  2  0
  7 11  1  0
 11 12  1  0
 12 13  2  0
 12 14  1  0
 14 15  1  0
 15 16  1  0
 15 17  1  0
 17 18  1  0
 11 19  1  0
 19 20  2  0
 20  2  1  0
 19  5  1  0
  1 21  1  0
  1 22  1  0
  1 23  1  0
  3 24  1  0
  4 25  1  0
  6 26  1  0
  9 27  1  0
 15 28  1  1
 17 29  1  0
 17 30  1  0
 20 31  1  0
M  CHG  1   9  -1
M  END
>  <UniqueID>  (14) 
14

>  <SMILES>  (14) 
Cc1ccc2cc(C([NH-])=O)n(C(=O)O[C@@H](Cl)CCl)c2c1

>  <Energy>  (14) 
65.83029283814572

>  <Genealogy>  (14) 
Cc1ccc2cc(C([NH-])=O)n(C(=O)OC(Cl)CCl)c2c1 (protonated)
Cc1ccc2cc(C([NH-])=O)n(C(=O)O[C@@H](Cl)CCl)c2c1 (chirality)
Cc1ccc2cc(C([NH-])=O)n(C(=O)O[C@@H](Cl)CCl)c2c1 (3D coordinates assigned)
Cc1ccc2cc(C([NH-])=O)n(C(=O)O[C@@H](Cl)CCl)c2c1 (optimized conformer: 65.83029283814572 kcal/mol)

>  <smiles>  (14) 
Cc1ccc2cc(C(N)=O)n(C(=O)OC(Cl)CCl)c2c1

>  <score_type>  (14) 
oracle

>  <origin>  (14) 
adg

>  <m_score__min__energy>  (14) 
-9.9000000000000004

>  <m_primary>  (14) 
energy

$$$$
14:0
     RDKit          3D

 29 30  0  0  0  0  0  0  0  0999 V2000
   -2.4590   20.9250  -32.4600 C   0  0  0  0  0  0  0  0  0  0  0  0
   -3.0710   22.2070  -32.4260 O   0  0  0  0  0  0  0  0  0  0  0  0
   -3.7920   22.6710  -31.3210 C   0  0  0  0  0  0  0  0  0  0  0  0
   -3.1870   23.0220  -30.2720 O   0  0  0  0  0  0  0  0  0  0  0  0
   -5.2260   22.7480  -31.3860 N   0  0  0  0  0  0  0  0  0  0  0  0
   -6.0170   23.7680  -30.9480 C   0  0  0  0  0  0  0  0  0  0  0  0
   -5.5470   25.0830  -30.4720 C   0  0  0  0  0  0  0  0  0  0  0  0
   -4.1910   25.4950  -30.6520 N   0  0  0  0  0  0  0  0  0  0  0  0
   -6.3690   25.8820  -29.9480 O   0  0  0  0  0  0  0  0  0  0  0  0
   -7.3630   23.4270  -31.0530 C   0  0  0  0  0  0  0  0  0  0  0  0
   -7.3760   22.1600  -31.5870 C   0  0  0  0  0  0  0  0  0  0  0  0
   -8.4510   21.3270  -31.8830 C   0  0  0  0  0  0  0  0  0  0  0  0
   -8.1740   20.0470  -32.3880 C   0  0  0  0  0  0  0  0  0  0  0  0
   -6.8350   19.6250  -32.5860 C   0  0  0  0  0  0  0  0  0  0  0  0
   -6.5500   18.2350  -33.0780 C   0  0  0  0  0  0  0  0  0  0  0  0
   -5.7070   18.3140  -34.6440 Cl  0  0  0  0  0  0  0  0  0  0  0  0
   -5.7690   20.4910  -32.2600 C   0  0  0  0  0  0  0  0  0  0  0  0
   -6.0740   21.7700  -31.7780 C   0  0  0  0  0  0  0  0  0  0  0  0
   -2.2904   20.5718  -31.4320 H   0  0  0  0  0  0  0  0  0  0  0  0
   -3.1170   20.2185  -32.9872 H   0  0  0  0  0  0  0  0  0  0  0  0
   -1.4959   20.9923  -32.9872 H   0  0  0  0  0  0  0  0  0  0  0  0
   -3.5280   24.9300  -31.2270 H   0  0  0  0  0  0  0  0  0  0  0  0
   -3.8670   26.4130  -30.2740 H   0  0  0  0  0  0  0  0  0  0  0  0
   -8.2309   24.0404  -30.7692 H   0  0  0  0  0  0  0  0  0  0  0  0
   -9.4869   21.6618  -31.7258 H   0  0  0  0  0  0  0  0  0  0  0  0
   -9.0025   19.3658  -32.6321 H   0  0  0  0  0  0  0  0  0  0  0  0
   -5.9160   17.7113  -32.3474 H   0  0  0  0  0  0  0  0  0  0  0  0
   -7.4979   17.6908  -33.2016 H   0  0  0  0  0  0  0  0  0  0  0  0
   -4.7242   20.1691  -32.3816 H   0  0  0  0  0  0  0  0  0  0  0  0
  1  2  1  0
  2  3  1  0
  3  4  2  0
  3  5  1  0
  5  6  1  0
  6  7  1  0
  7  8  1  0
  7  9  2  0
  6 10  2  0
 10 11  1  0
 11 12  2  0
 12 13  1  0
 13 14  2  0
 14 15  1  0
 15 16  1  0
 14 17  1  0
 17 18  2  0
 18  5  1  0
 18 11  1  0
  1 19  1  0
  1 20  1  0
  1 21  1  0
  8 22  1  0
  8 23  1  0
 10 24  1  0
 12 25  1  0
 13 26  1  0
 15 27  1  0
 15 28  1  0
 17 29  1  0
M  END
>  <UniqueID>  (15) 
15

>  <SMILES>  (15) 
COC(=O)n1c(C(N)=O)cc2ccc(CCl)cc21

>  <Energy>  (15) 
65.5243709463803

>  <Genealogy>  (15) 
COC(=O)n1c(C(N)=O)cc2ccc(CCl)cc21 (3D coordinates assigned)
COC(=O)n1c(C(N)=O)cc2ccc(CCl)cc21 (optimized conformer: 65.5243709463803 kcal/mol)

>  <smiles>  (15) 
COC(=O)n1c(C(N)=O)cc2ccc(CCl)cc21

>  <score_type>  (15) 
oracle

>  <origin>  (15) 
adg

>  <m_score__min__energy>  (15) 
-7.4699999999999998

>  <m_primary>  (15) 
energy

$$$$
15:0
     RDKit          3D

 59 61  0  0  0  0  0  0  0  0999 V2000
   -6.8940   15.1650  -34.2220 C   0  0  0  0  0  0  0  0  0  0  0  0
   -6.8500   16.4240  -33.7670 C   0  0  0  0  0  0  0  0  0  0  0  0
   -5.6780   16.9930  -32.9740 C   0  0  0  0  0  0  0  0  0  0  0  0
   -6.1360   17.2380  -31.5180 C   0  0  0  0  0  0  0  0  0  0  0  0
   -4.5140   15.9710  -32.9340 C   0  0  0  0  0  0  0  0  0  0  0  0
   -5.2210   18.2670  -33.6110 N   0  0  0  0  0  0  0  0  0  0  0  0
   -3.9860   18.3030  -34.4240 C   0  0  0  0  0  0  0  0  0  0  0  0
   -2.6810   18.4420  -33.5990 C   0  0  0  0  0  0  0  0  0  0  0  0
   -1.8860   19.6940  -33.9590 C   0  0  0  0  0  0  0  0  0  0  0  0
   -1.3120   18.3250  -34.2650 C   0  0  0  0  0  0  0  0  0  0  0  0
   -5.6640   19.5400  -33.0800 C   0  0  0  0  0  0  0  0  0  0  0  0
   -7.0400   19.8930  -33.1160 C   0  0  0  0  0  0  0  0  0  0  0  0
   -7.4790   21.1380  -32.6340 C   0  0  0  0  0  0  0  0  0  0  0  0
   -6.5290   22.0020  -32.1010 C   0  0  0  0  0  0  0  0  0  0  0  0
   -6.6700   23.2740  -31.5930 C   0  0  0  0  0  0  0  0  0  0  0  0
   -5.3860   23.6640  -31.2130 C   0  0  0  0  0  0  0  0  0  0  0  0
   -5.0830   24.9540  -30.5550 C   0  0  0  0  0  0  0  0  0  0  0  0
   -3.8780   25.6570  -30.8380 N   0  0  0  0  0  0  0  0  0  0  0  0
   -5.8820   25.4200  -29.6980 O   0  0  0  0  0  0  0  0  0  0  0  0
   -4.4900   22.6690  -31.4760 N   0  0  0  0  0  0  0  0  0  0  0  0
   -3.0730   22.6780  -31.2700 C   0  0  0  0  0  0  0  0  0  0  0  0
   -2.3130   22.1820  -32.1460 O   0  0  0  0  0  0  0  0  0  0  0  0
   -2.5570   23.2240  -30.0840 O   0  0  0  0  0  0  0  0  0  0  0  0
   -2.6200   22.6310  -28.7780 C   0  0  0  0  0  0  0  0  0  0  0  0
   -3.8600   23.1230  -28.0010 C   0  0  0  0  0  0  0  0  0  0  0  0
   -1.3280   22.9410  -27.9940 C   0  0  0  0  0  0  0  0  0  0  0  0
   -2.7340   21.1110  -28.9680 C   0  0  0  0  0  0  0  0  0  0  0  0
   -5.2040   21.6630  -32.0200 C   0  0  0  0  0  0  0  0  0  0  0  0
   -4.7350   20.4400  -32.5100 C   0  0  0  0  0  0  0  0  0  0  0  0
   -7.7696   14.8152  -34.7886 H   0  0  0  0  0  0  0  0  0  0  0  0
   -6.0545   14.4808  -34.0291 H   0  0  0  0  0  0  0  0  0  0  0  0
   -7.7053   17.0832  -33.9766 H   0  0  0  0  0  0  0  0  0  0  0  0
   -5.3833   16.8354  -30.8242 H   0  0  0  0  0  0  0  0  0  0  0  0
   -6.2516   18.3184  -31.3469 H   0  0  0  0  0  0  0  0  0  0  0  0
   -7.0989   16.7345  -31.3469 H   0  0  0  0  0  0  0  0  0  0  0  0
   -4.2587   15.7468  -31.8878 H   0  0  0  0  0  0  0  0  0  0  0  0
   -4.8211   15.0454  -33.4429 H   0  0  0  0  0  0  0  0  0  0  0  0
   -3.6359   16.3952  -33.4429 H   0  0  0  0  0  0  0  0  0  0  0  0
   -3.9286   17.3703  -35.0043 H   0  0  0  0  0  0  0  0  0  0  0  0
   -4.0535   19.1989  -35.0586 H   0  0  0  0  0  0  0  0  0  0  0  0
   -3.1070   17.9580  -32.7078 H   0  0  0  0  0  0  0  0  0  0  0  0
   -2.2255   20.3432  -34.7795 H   0  0  0  0  0  0  0  0  0  0  0  0
   -1.5349   20.5767  -33.4045 H   0  0  0  0  0  0  0  0  0  0  0  0
   -1.2356   17.9817  -35.3073 H   0  0  0  0  0  0  0  0  0  0  0  0
   -0.3731   17.8050  -34.0241 H   0  0  0  0  0  0  0  0  0  0  0  0
   -7.7718   19.1819  -33.5269 H   0  0  0  0  0  0  0  0  0  0  0  0
   -8.5413   21.4202  -32.6771 H   0  0  0  0  0  0  0  0  0  0  0  0
   -7.5979   23.8583  -31.5055 H   0  0  0  0  0  0  0  0  0  0  0  0
   -2.9560   25.2960  -30.5060 H   0  0  0  0  0  0  0  0  0  0  0  0
   -3.6693   23.0473  -26.9203 H   0  0  0  0  0  0  0  0  0  0  0  0
   -4.0659   24.1709  -28.2645 H   0  0  0  0  0  0  0  0  0  0  0  0
   -4.7283   22.5013  -28.2645 H   0  0  0  0  0  0  0  0  0  0  0  0
   -1.5334   22.8917  -26.9145 H   0  0  0  0  0  0  0  0  0  0  0  0
   -0.5551   22.2028  -28.2543 H   0  0  0  0  0  0  0  0  0  0  0  0
   -0.9742   23.9495  -28.2543 H   0  0  0  0  0  0  0  0  0  0  0  0
   -2.7708   20.6203  -27.9842 H   0  0  0  0  0  0  0  0  0  0  0  0
   -3.6520   20.8793  -29.5279 H   0  0  0  0  0  0  0  0  0  0  0  0
   -1.8608   20.7450  -29.5279 H   0  0  0  0  0  0  0  0  0  0  0  0
   -3.6667   20.1841  -32.4531 H   0  0  0  0  0  0  0  0  0  0  0  0
  1  2  2  0
  2  3  1  0
  3  4  1  0
  3  5  1  0
  3  6  1  0
  6  7  1  0
  7  8  1  0
  8  9  1  0
  9 10  1  0
  6 11  1  0
 11 12  2  0
 12 13  1  0
 13 14  2  0
 14 15  1  0
 15 16  2  0
 16 17  1  0
 17 18  1  0
 17 19  2  0
 16 20  1  0
 20 21  1  0
 21 22  2  0
 21 23  1  0
 23 24  1  0
 24 25  1  0
 24 26  1  0
 24 27  1  0
 20 28  1  0
 28 29  2  0
 10  8  1  0
 29 11  1  0
 28 14  1  0
  1 30  1  0
  1 31  1  0
  2 32  1  0
  4 33  1  0
  4 34  1  0
  4 35  1  0
  5 36  1  0
  5 37  1  0
  5 38  1  0
  7 39  1  0
  7 40  1  0
  8 41  1  0
  9 42  1  0
  9 43  1  0
 10 44  1  0
 10 45  1  0
 12 46  1  0
 13 47  1  0
 15 48  1  0
 18 49  1  0
 25 50  1  0
 25 51  1  0
 25 52  1  0
 26 53  1  0
 26 54  1  0
 26 55  1  0
 27 56  1  0
 27 57  1  0
 27 58  1  0
 29 59  1  0
M  CHG  1  18  -1
M  END
>  <UniqueID>  (16) 
16

>  <SMILES>  (16) 
C=CC(C)(C)N(CC1CC1)c1ccc2cc(C([NH-])=O)n(C(=O)OC(C)(C)C)c2c1

>  <Energy>  (16) 
366.6157935285555

>  <Genealogy>  (16) 
C=CC(C)(C)N(CC1CC1)c1ccc2cc(C([NH-])=O)n(C(=O)OC(C)(C)C)c2c1 (protonated)
C=CC(C)(C)N(CC1CC1)c1ccc2cc(C([NH-])=O)n(C(=O)OC(C)(C)C)c2c1 (3D coordinates assigned)
C=CC(C)(C)N(CC1CC1)c1ccc2cc(C([NH-])=O)n(C(=O)OC(C)(C)C)c2c1 (nonaromatic ring conformer: 366.6157935285555 kcal/mol)

>  <smiles>  (16) 
C=CC(C)(C)N(CC1CC1)c1ccc2cc(C(N)=O)n(C(=O)OC(C)(C)C)c2c1

>  <score_type>  (16) 
oracle

>  <origin>  (16) 
adg

>  <m_score__min__energy>  (16) 
-11.779999999999999

>  <m_primary>  (16) 
energy

$$$$
16:0
     RDKit          3D

 36 37  0  0  0  0  0  0  0  0999 V2000
   -5.1490   15.6110  -32.8480 C   0  0  0  0  0  0  0  0  0  0  0  0
   -6.0860   16.0360  -33.9280 C   0  0  0  0  0  0  0  0  0  0  0  0
   -7.1200   15.3530  -34.1650 O   0  0  0  0  0  0  0  0  0  0  0  0
   -5.7820   17.1910  -34.7160 N   0  0  0  0  0  0  0  0  0  0  0  0
   -6.0900   18.5550  -34.3000 C   0  0  0  0  0  0  0  0  0  0  0  0
   -6.9120   18.5480  -33.0090 C   0  0  0  0  0  0  0  0  0  0  0  0
   -7.0600   19.9460  -32.4700 C   0  0  0  0  0  0  0  0  0  0  0  0
   -8.3470   20.5250  -32.3400 C   0  0  0  0  0  0  0  0  0  0  0  0
   -8.4950   21.8370  -31.8590 C   0  0  0  0  0  0  0  0  0  0  0  0
   -7.3430   22.5470  -31.5360 C   0  0  0  0  0  0  0  0  0  0  0  0
   -7.1980   23.8200  -31.0320 C   0  0  0  0  0  0  0  0  0  0  0  0
   -5.8240   24.0090  -30.8940 C   0  0  0  0  0  0  0  0  0  0  0  0
   -5.2140   25.2740  -30.4330 C   0  0  0  0  0  0  0  0  0  0  0  0
   -3.8920   25.6160  -30.8440 N   0  0  0  0  0  0  0  0  0  0  0  0
   -5.8390   26.0480  -29.6610 O   0  0  0  0  0  0  0  0  0  0  0  0
   -5.1460   22.8990  -31.3000 N   0  0  0  0  0  0  0  0  0  0  0  0
   -3.7260   22.6830  -31.2710 C   0  0  0  0  0  0  0  0  0  0  0  0
   -3.0410   21.9370  -32.3710 C   0  0  0  0  0  0  0  0  0  0  0  0
   -3.0440   23.1200  -30.3060 O   0  0  0  0  0  0  0  0  0  0  0  0
   -6.0890   22.0110  -31.6860 C   0  0  0  0  0  0  0  0  0  0  0  0
   -5.9130   20.7000  -32.1430 C   0  0  0  0  0  0  0  0  0  0  0  0
   -5.6025   15.8167  -31.8672 H   0  0  0  0  0  0  0  0  0  0  0  0
   -4.9478   14.5335  -32.9402 H   0  0  0  0  0  0  0  0  0  0  0  0
   -4.2058   16.1694  -32.9402 H   0  0  0  0  0  0  0  0  0  0  0  0
   -5.1512   19.1021  -34.1286 H   0  0  0  0  0  0  0  0  0  0  0  0
   -6.6750   19.0454  -35.0920 H   0  0  0  0  0  0  0  0  0  0  0  0
   -7.9092   18.1329  -33.2171 H   0  0  0  0  0  0  0  0  0  0  0  0
   -6.3930   17.9314  -32.2604 H   0  0  0  0  0  0  0  0  0  0  0  0
   -9.2377   19.9424  -32.6180 H   0  0  0  0  0  0  0  0  0  0  0  0
   -9.4910   22.2888  -31.7415 H   0  0  0  0  0  0  0  0  0  0  0  0
   -7.9971   24.5361  -30.7896 H   0  0  0  0  0  0  0  0  0  0  0  0
   -3.0600   25.2780  -30.3090 H   0  0  0  0  0  0  0  0  0  0  0  0
   -2.3570   21.1921  -31.9383 H   0  0  0  0  0  0  0  0  0  0  0  0
   -3.7926   21.4276  -32.9920 H   0  0  0  0  0  0  0  0  0  0  0  0
   -2.4695   22.6425  -32.9920 H   0  0  0  0  0  0  0  0  0  0  0  0
   -4.9063   20.2684  -32.2447 H   0  0  0  0  0  0  0  0  0  0  0  0
  1  2  1  0
  2  3  2  0
  2  4  1  0
  4  5  1  0
  5  6  1  0
  6  7  1  0
  7  8  2  0
  8  9  1  0
  9 10  2  0
 10 11  1  0
 11 12  2  0
 12 13  1  0
 13 14  1  0
 13 15  2  0
 12 16  1  0
 16 17  1  0
 17 18  1  0
 17 19  2  0
 16 20  1  0
 20 21  2  0
 21  7  1  0
 20 10  1  0
  1 22  1  0
  1 23  1  0
  1 24  1  0
  5 25  1  0
  5 26  1  0
  6 27  1  0
  6 28  1  0
  8 29  1  0
  9 30  1  0
 11 31  1  0
 14 32  1  0
 18 33  1  0
 18 34  1  0
 18 35  1  0
 21 36  1  0
M  CHG  2   4  -1  14  -1
M  END
>  <UniqueID>  (17) 
17

>  <SMILES>  (17) 
CC(=O)[N-]CCc1ccc2cc(C([NH-])=O)n(C(C)=O)c2c1

>  <Energy>  (17) 
67.9132094533709

>  <Genealogy>  (17) 
CC(=O)[N-]CCc1ccc2cc(C([NH-])=O)n(C(C)=O)c2c1 (protonated)
CC(=O)[N-]CCc1ccc2cc(C([NH-])=O)n(C(C)=O)c2c1 (3D coordinates assigned)
CC(=O)[N-]CCc1ccc2cc(C([NH-])=O)n(C(C)=O)c2c1 (optimized conformer: 67.9132094533709 kcal/mol)

>  <smiles>  (17) 
CC(=O)NCCc1ccc2cc(C(N)=O)n(C(C)=O)c2c1

>  <score_type>  (17) 
oracle

>  <origin>  (17) 
adg

>  <m_score__min__energy>  (17) 
-10.109999999999999

>  <m_primary>  (17) 
energy

$$$$
17:0
     RDKit          3D

 43 44  0  0  0  0  0  0  0  0999 V2000
   -3.4990   21.5660  -33.0930 C   0  0  0  0  0  0  0  0  0  0  0  0
   -3.7450   20.2280  -32.6750 O   0  0  0  0  0  0  0  0  0  0  0  0
   -4.4470   19.3100  -33.4600 C   0  0  0  0  0  0  0  0  0  0  0  0
   -3.9550   18.8970  -34.5460 O   0  0  0  0  0  0  0  0  0  0  0  0
   -5.7340   18.8360  -33.0310 N   0  0  0  0  0  0  0  0  0  0  0  0
   -6.1900   17.5500  -33.0350 C   0  0  0  0  0  0  0  0  0  0  0  0
   -5.3870   16.3490  -33.3400 C   0  0  0  0  0  0  0  0  0  0  0  0
   -4.7080   16.2090  -34.5890 N   0  0  0  0  0  0  0  0  0  0  0  0
   -5.2510   15.4570  -32.4620 O   0  0  0  0  0  0  0  0  0  0  0  0
   -7.5280   17.5000  -32.6570 C   0  0  0  0  0  0  0  0  0  0  0  0
   -7.8820   18.8060  -32.4030 C   0  0  0  0  0  0  0  0  0  0  0  0
   -9.1030   19.3380  -32.0000 C   0  0  0  0  0  0  0  0  0  0  0  0
   -9.1950   20.7310  -31.8460 C   0  0  0  0  0  0  0  0  0  0  0  0
   -8.0780   21.5620  -32.1110 C   0  0  0  0  0  0  0  0  0  0  0  0
   -8.1810   23.0540  -31.9240 C   0  0  0  0  0  0  0  0  0  0  0  0
   -7.0880   23.5910  -30.9890 C   0  0  0  0  0  0  0  0  0  0  0  0
   -5.7790   23.8980  -31.7330 C   0  0  0  0  0  0  0  0  0  0  0  0
   -4.9060   24.7720  -30.9180 N   0  0  0  0  0  0  0  0  0  0  0  0
   -5.7240   25.6710  -30.0870 C   0  0  0  0  0  0  0  0  0  0  0  0
   -4.0230   23.9740  -30.0500 C   0  0  0  0  0  0  0  0  0  0  0  0
   -6.8540   20.9860  -32.5160 C   0  0  0  0  0  0  0  0  0  0  0  0
   -6.7840   19.5930  -32.6390 C   0  0  0  0  0  0  0  0  0  0  0  0
   -3.3805   22.2103  -32.2093 H   0  0  0  0  0  0  0  0  0  0  0  0
   -2.5798   21.5985  -33.6964 H   0  0  0  0  0  0  0  0  0  0  0  0
   -4.3465   21.9233  -33.6964 H   0  0  0  0  0  0  0  0  0  0  0  0
   -4.1780   15.3360  -34.8020 H   0  0  0  0  0  0  0  0  0  0  0  0
   -4.6590   17.0020  -35.2670 H   0  0  0  0  0  0  0  0  0  0  0  0
   -8.1665   16.6078  -32.5780 H   0  0  0  0  0  0  0  0  0  0  0  0
   -9.9692   18.6878  -31.8080 H   0  0  0  0  0  0  0  0  0  0  0  0
  -10.1430   21.1813  -31.5166 H   0  0  0  0  0  0  0  0  0  0  0  0
   -8.0820   23.5429  -32.9044 H   0  0  0  0  0  0  0  0  0  0  0  0
   -9.1576   23.2736  -31.4680 H   0  0  0  0  0  0  0  0  0  0  0  0
   -7.4507   24.5156  -30.5161 H   0  0  0  0  0  0  0  0  0  0  0  0
   -6.8742   22.8128  -30.2416 H   0  0  0  0  0  0  0  0  0  0  0  0
   -5.2524   22.9549  -31.9412 H   0  0  0  0  0  0  0  0  0  0  0  0
   -6.0199   24.4165  -32.6727 H   0  0  0  0  0  0  0  0  0  0  0  0
   -5.5338   25.4619  -29.0239 H   0  0  0  0  0  0  0  0  0  0  0  0
   -5.4604   26.7158  -30.3081 H   0  0  0  0  0  0  0  0  0  0  0  0
   -6.7890   25.5069  -30.3081 H   0  0  0  0  0  0  0  0  0  0  0  0
   -4.2566   24.1851  -28.9960 H   0  0  0  0  0  0  0  0  0  0  0  0
   -4.1787   22.9041  -30.2529 H   0  0  0  0  0  0  0  0  0  0  0  0
   -2.9743   24.2368  -30.2529 H   0  0  0  0  0  0  0  0  0  0  0  0
   -5.9777   21.6157  -32.7295 H   0  0  0  0  0  0  0  0  0  0  0  0
  1  2  1  0
  2  3  1  0
  3  4  2  0
  3  5  1  0
  5  6  1  0
  6  7  1  0
  7  8  1  0
  7  9  2  0
  6 10  2  0
 10 11  1  0
 11 12  2  0
 12 13  1  0
 13 14  2  0
 14 15  1  0
 15 16  1  0
 16 17  1  0
 17 18  1  0
 18 19  1  0
 18 20  1  0
 14 21  1  0
 21 22  2  0
 22  5  1  0
 22 11  1  0
  1 23  1  0
  1 24  1  0
  1 25  1  0
  8 26  1  0
  8 27  1  0
 10 28  1  0
 12 29  1  0
 13 30  1  0
 15 31  1  0
 15 32  1  0
 16 33  1  0
 16 34  1  0
 17 35  1  0
 17 36  1  0
 19 37  1  0
 19 38  1  0
 19 39  1  0
 20 40  1  0
 20 41  1  0
 20 42  1  0
 21 43  1  0
M  END
>  <UniqueID>  (18) 
18

>  <SMILES>  (18) 
COC(=O)n1c(C(N)=O)cc2ccc(CCCN(C)C)cc21

>  <Energy>  (18) 
76.28696260796633

>  <Genealogy>  (18) 
COC(=O)n1c(C(N)=O)cc2ccc(CCCN(C)C)cc21 (3D coordinates assigned)
COC(=O)n1c(C(N)=O)cc2ccc(CCCN(C)C)cc21 (optimized conformer: 76.28696260796633 kcal/mol)

>  <smiles>  (18) 
COC(=O)n1c(C(N)=O)cc2ccc(CCCN(C)C)cc21

>  <score_type>  (18) 
oracle

>  <origin>  (18) 
adg

>  <m_score__min__energy>  (18) 
-8.2300000000000004

>  <m_primary>  (18) 
energy

$$$$
18:0
     RDKit          3D

 42 44  0  0  0  0  0  0  0  0999 V2000
   -6.2770   24.4030  -30.8780 C   0  0  0  0  0  0  0  0  0  0  0  0
   -5.4120   25.6550  -30.7830 C   0  0  0  0  0  0  0  0  0  0  0  0
   -4.0210   25.2990  -30.5240 N   0  0  0  0  0  0  0  0  0  0  0  0
   -3.6200   24.3030  -29.5780 C   0  0  0  0  0  0  0  0  0  0  0  0
   -4.2010   24.2190  -28.4620 O   0  0  0  0  0  0  0  0  0  0  0  0
   -2.5410   23.4080  -29.8930 N   0  0  0  0  0  0  0  0  0  0  0  0
   -1.2660   23.4430  -29.4140 C   0  0  0  0  0  0  0  0  0  0  0  0
   -0.6910   24.5220  -28.5810 C   0  0  0  0  0  0  0  0  0  0  0  0
   -1.5230   25.5540  -28.0460 N   0  0  0  0  0  0  0  0  0  0  0  0
    0.5390   24.5270  -28.3110 O   0  0  0  0  0  0  0  0  0  0  0  0
   -0.5340   22.3600  -29.8970 C   0  0  0  0  0  0  0  0  0  0  0  0
   -1.4090   21.6580  -30.6950 C   0  0  0  0  0  0  0  0  0  0  0  0
   -1.2160   20.4870  -31.4130 C   0  0  0  0  0  0  0  0  0  0  0  0
   -2.3030   19.9630  -32.1310 C   0  0  0  0  0  0  0  0  0  0  0  0
   -3.5790   20.6070  -32.1250 C   0  0  0  0  0  0  0  0  0  0  0  0
   -4.7090   20.0480  -32.8660 N   0  0  0  0  0  0  0  0  0  0  0  0
   -4.4700   18.9570  -33.8340 C   0  0  0  0  0  0  0  0  0  0  0  0
   -5.7280   18.5260  -34.5940 C   0  0  0  0  0  0  0  0  0  0  0  0
   -6.8570   18.5410  -33.7540 O   0  0  0  0  0  0  0  0  0  0  0  0
   -7.1560   19.8790  -33.4370 C   0  0  0  0  0  0  0  0  0  0  0  0
   -6.0820   20.4820  -32.5280 C   0  0  0  0  0  0  0  0  0  0  0  0
   -3.7200   21.8020  -31.3640 C   0  0  0  0  0  0  0  0  0  0  0  0
   -2.6110   22.3080  -30.6770 C   0  0  0  0  0  0  0  0  0  0  0  0
   -6.5217   24.0488  -29.8658 H   0  0  0  0  0  0  0  0  0  0  0  0
   -7.2056   24.6390  -31.4184 H   0  0  0  0  0  0  0  0  0  0  0  0
   -5.7277   23.6180  -31.4184 H   0  0  0  0  0  0  0  0  0  0  0  0
   -5.4729   26.2094  -31.7311 H   0  0  0  0  0  0  0  0  0  0  0  0
   -5.7791   26.2779  -29.9541 H   0  0  0  0  0  0  0  0  0  0  0  0
   -2.5360   25.6160  -28.2920 H   0  0  0  0  0  0  0  0  0  0  0  0
   -1.1140   26.2890  -27.4270 H   0  0  0  0  0  0  0  0  0  0  0  0
    0.5180   22.1178  -29.6858 H   0  0  0  0  0  0  0  0  0  0  0  0
   -0.2384   19.9828  -31.4197 H   0  0  0  0  0  0  0  0  0  0  0  0
   -2.1697   19.0374  -32.7103 H   0  0  0  0  0  0  0  0  0  0  0  0
   -3.7218   19.2980  -34.5647 H   0  0  0  0  0  0  0  0  0  0  0  0
   -4.1255   18.0849  -33.2590 H   0  0  0  0  0  0  0  0  0  0  0  0
   -5.8953   19.2172  -35.4332 H   0  0  0  0  0  0  0  0  0  0  0  0
   -5.5797   17.5001  -34.9620 H   0  0  0  0  0  0  0  0  0  0  0  0
   -7.2108   20.4650  -34.3663 H   0  0  0  0  0  0  0  0  0  0  0  0
   -8.1191   19.9060  -32.9062 H   0  0  0  0  0  0  0  0  0  0  0  0
   -6.1309   21.5778  -32.6113 H   0  0  0  0  0  0  0  0  0  0  0  0
   -6.2893   20.1307  -31.5064 H   0  0  0  0  0  0  0  0  0  0  0  0
   -4.6887   22.3210  -31.3167 H   0  0  0  0  0  0  0  0  0  0  0  0
  1  2  1  0
  2  3  1  0
  3  4  1  0
  4  5  2  0
  4  6  1  0
  6  7  1  0
  7  8  1  0
  8  9  1  0
  8 10  2  0
  7 11  2  0
 11 12  1  0
 12 13  2  0
 13 14  1  0
 14 15  2  0
 15 16  1  0
 16 17  1  0
 17 18  1  0
 18 19  1  0
 19 20  1  0
 20 21  1  0
 15 22  1  0
 22 23  2  0
 23  6  1  0
 23 12  1  0
 21 16  1  0
  1 24  1  0
  1 25  1  0
  1 26  1  0
  2 27  1  0
  2 28  1  0
  9 29  1  0
  9 30  1  0
 11 31  1  0
 13 32  1  0
 14 33  1  0
 17 34  1  0
 17 35  1  0
 18 36  1  0
 18 37  1  0
 20 38  1  0
 20 39  1  0
 21 40  1  0
 21 41  1  0
 22 42  1  0
M  CHG  1   3  -1
M  END
>  <UniqueID>  (19) 
19

>  <SMILES>  (19) 
CC[N-]C(=O)n1c(C(N)=O)cc2ccc(N3CCOCC3)cc21

>  <Energy>  (19) 
85.40179831008098

>  <Genealogy>  (19) 
CC[N-]C(=O)n1c(C(N)=O)cc2ccc(N3CCOCC3)cc21 (protonated)
CC[N-]C(=O)n1c(C(N)=O)cc2ccc(N3CCOCC3)cc21 (3D coordinates assigned)
CC[N-]C(=O)n1c(C(N)=O)cc2ccc(N3CCOCC3)cc21 (nonaromatic ring conformer: 85.40179831008098 kcal/mol)

>  <smiles>  (19) 
CCNC(=O)n1c(C(N)=O)cc2ccc(N3CCOCC3)cc21

>  <score_type>  (19) 
oracle

>  <origin>  (19) 
adg

>  <m_score__min__energy>  (19) 
-9.0700000000000003

>  <m_primary>  (19) 
energy

$$$$
19:0
     RDKit          3D

 38 39  0  0  0  0  0  0  0  0999 V2000
   -5.8940   24.1980  -31.6160 C   0  0  0  0  0  0  0  0  0  0  0  0
   -5.3240   25.3540  -30.7880 C   0  0  0  0  0  0  0  0  0  0  0  0
   -5.9000   25.3260  -29.3730 C   0  0  0  0  0  0  0  0  0  0  0  0
   -3.8690   25.2440  -30.7110 N   0  0  0  0  0  0  0  0  0  0  0  0
   -3.1140   24.6370  -29.6530 C   0  0  0  0  0  0  0  0  0  0  0  0
   -2.1610   25.2900  -29.1480 O   0  0  0  0  0  0  0  0  0  0  0  0
   -3.3570   23.2200  -29.1960 C   0  0  0  0  0  0  0  0  0  0  0  0
   -3.1540   22.2430  -30.3260 C   0  0  0  0  0  0  0  0  0  0  0  0
   -1.8640   22.0630  -30.8830 C   0  0  0  0  0  0  0  0  0  0  0  0
   -1.6670   21.1890  -31.9640 C   0  0  0  0  0  0  0  0  0  0  0  0
   -2.7740   20.5110  -32.4660 C   0  0  0  0  0  0  0  0  0  0  0  0
   -2.8700   19.6390  -33.5240 C   0  0  0  0  0  0  0  0  0  0  0  0
   -4.2150   19.2850  -33.5870 C   0  0  0  0  0  0  0  0  0  0  0  0
   -4.7510   18.3020  -34.5510 C   0  0  0  0  0  0  0  0  0  0  0  0
   -6.0890   18.4000  -35.0390 N   0  0  0  0  0  0  0  0  0  0  0  0
   -4.0330   17.3290  -34.9050 O   0  0  0  0  0  0  0  0  0  0  0  0
   -4.9290   19.9230  -32.6160 N   0  0  0  0  0  0  0  0  0  0  0  0
   -6.3530   19.9150  -32.4300 C   0  0  0  0  0  0  0  0  0  0  0  0
   -7.2050   20.5710  -33.3660 N   0  0  0  0  0  0  0  0  0  0  0  0
   -6.8610   19.3380  -31.4310 O   0  0  0  0  0  0  0  0  0  0  0  0
   -4.0290   20.6680  -31.9340 C   0  0  0  0  0  0  0  0  0  0  0  0
   -4.2580   21.5480  -30.8680 C   0  0  0  0  0  0  0  0  0  0  0  0
   -6.2783   23.4186  -30.9416 H   0  0  0  0  0  0  0  0  0  0  0  0
   -6.7120   24.5699  -32.2505 H   0  0  0  0  0  0  0  0  0  0  0  0
   -5.1009   23.7755  -32.2505 H   0  0  0  0  0  0  0  0  0  0  0  0
   -5.5992   26.3002  -31.2769 H   0  0  0  0  0  0  0  0  0  0  0  0
   -5.0790   25.3659  -28.6420 H   0  0  0  0  0  0  0  0  0  0  0  0
   -6.5615   26.1931  -29.2292 H   0  0  0  0  0  0  0  0  0  0  0  0
   -6.4742   24.3989  -29.2292 H   0  0  0  0  0  0  0  0  0  0  0  0
   -2.6562   22.9796  -28.3829 H   0  0  0  0  0  0  0  0  0  0  0  0
   -4.3969   23.1390  -28.8467 H   0  0  0  0  0  0  0  0  0  0  0  0
   -1.0084   22.6133  -30.4645 H   0  0  0  0  0  0  0  0  0  0  0  0
   -0.6679   21.0445  -32.4010 H   0  0  0  0  0  0  0  0  0  0  0  0
   -2.0576   19.2944  -34.1807 H   0  0  0  0  0  0  0  0  0  0  0  0
   -6.7590   19.0940  -34.6410 H   0  0  0  0  0  0  0  0  0  0  0  0
   -6.4390   17.7170  -35.7470 H   0  0  0  0  0  0  0  0  0  0  0  0
   -7.6510   20.0430  -34.1490 H   0  0  0  0  0  0  0  0  0  0  0  0
   -5.2706   21.6938  -30.4639 H   0  0  0  0  0  0  0  0  0  0  0  0
  1  2  1  0
  2  3  1  0
  2  4  1  0
  4  5  1  0
  5  6  2  0
  5  7  1  0
  7  8  1  0
  8  9  2  0
  9 10  1  0
 10 11  2  0
 11 12  1  0
 12 13  2  0
 13 14  1  0
 14 15  1  0
 14 16  2  0
 13 17  1  0
 17 18  1  0
 18 19  1  0
 18 20  2  0
 17 21  1  0
 21 22  2  0
 22  8  1  0
 21 11  1  0
  1 23  1  0
  1 24  1  0
  1 25  1  0
  2 26  1  0
  3 27  1  0
  3 28  1  0
  3 29  1  0
  7 30  1  0
  7 31  1  0
  9 32  1  0
 10 33  1  0
 12 34  1  0
 15 35  1  0
 15 36  1  0
 19 37  1  0
 22 38  1  0
M  CHG  2   4  -1  19  -1
M  END
>  <UniqueID>  (20) 
20

>  <SMILES>  (20) 
CC(C)[N-]C(=O)Cc1ccc2cc(C(N)=O)n(C([NH-])=O)c2c1

>  <Energy>  (20) 
71.63867124128438

>  <Genealogy>  (20) 
CC(C)[N-]C(=O)Cc1ccc2cc(C(N)=O)n(C([NH-])=O)c2c1 (protonated)
CC(C)[N-]C(=O)Cc1ccc2cc(C(N)=O)n(C([NH-])=O)c2c1 (3D coordinates assigned)
CC(C)[N-]C(=O)Cc1ccc2cc(C(N)=O)n(C([NH-])=O)c2c1 (optimized conformer: 71.63867124128438 kcal/mol)

>  <smiles>  (20) 
CC(C)NC(=O)Cc1ccc2cc(C(N)=O)n(C(N)=O)c2c1

>  <score_type>  (20) 
oracle

>  <origin>  (20) 
adg

>  <m_score__min__energy>  (20) 
-9.3300000000000001

>  <m_primary>  (20) 
energy

$$$$
20:0
     RDKit          3D

 34 36  0  0  0  0  0  0  0  0999 V2000
   -1.6890   25.6770  -28.9880 N   0  0  0  0  0  0  0  0  0  0  0  0
   -0.9270   24.4740  -29.0580 C   0  0  0  0  0  0  0  0  0  0  0  0
    0.1780   24.4080  -28.4590 O   0  0  0  0  0  0  0  0  0  0  0  0
   -1.4200   23.3390  -29.8650 C   0  0  0  0  0  0  0  0  0  0  0  0
   -0.5970   22.3190  -30.3370 C   0  0  0  0  0  0  0  0  0  0  0  0
   -1.4410   21.4220  -30.9500 C   0  0  0  0  0  0  0  0  0  0  0  0
   -1.1570   20.2240  -31.5980 C   0  0  0  0  0  0  0  0  0  0  0  0
   -2.2270   19.5100  -32.1610 C   0  0  0  0  0  0  0  0  0  0  0  0
   -3.5570   20.0030  -32.0760 C   0  0  0  0  0  0  0  0  0  0  0  0
   -4.6770   19.2430  -32.6860 C   0  0  0  0  0  0  0  0  0  0  0  0
   -4.4280   18.2780  -33.6760 C   0  0  0  0  0  0  0  0  0  0  0  0
   -5.4820   17.5620  -34.2470 C   0  0  0  0  0  0  0  0  0  0  0  0
   -6.7960   17.7990  -33.8390 C   0  0  0  0  0  0  0  0  0  0  0  0
   -7.0710   18.7600  -32.8520 C   0  0  0  0  0  0  0  0  0  0  0  0
   -8.4660   19.0110  -32.4250 C   0  0  0  0  0  0  0  0  0  0  0  0
   -9.1120   18.1310  -31.7960 O   0  0  0  0  0  0  0  0  0  0  0  0
   -9.0840   20.2230  -32.7120 O   0  0  0  0  0  0  0  0  0  0  0  0
   -6.0040   19.4780  -32.2790 C   0  0  0  0  0  0  0  0  0  0  0  0
   -3.8020   21.2260  -31.4080 C   0  0  0  0  0  0  0  0  0  0  0  0
   -2.7190   21.9070  -30.8420 C   0  0  0  0  0  0  0  0  0  0  0  0
   -2.7220   23.0860  -30.1810 N   0  0  0  0  0  0  0  0  0  0  0  0
   -3.8660   23.9230  -29.9400 C   0  0  0  0  0  0  0  0  0  0  0  0
   -3.9190   25.2410  -30.4790 N   0  0  0  0  0  0  0  0  0  0  0  0
   -4.8410   23.4840  -29.2740 O   0  0  0  0  0  0  0  0  0  0  0  0
   -2.7150   25.6750  -29.1820 H   0  0  0  0  0  0  0  0  0  0  0  0
    0.4963   22.2462  -30.2401 H   0  0  0  0  0  0  0  0  0  0  0  0
   -0.1257   19.8477  -31.6672 H   0  0  0  0  0  0  0  0  0  0  0  0
   -2.0331   18.5567  -32.6745 H   0  0  0  0  0  0  0  0  0  0  0  0
   -3.3958   18.0851  -34.0036 H   0  0  0  0  0  0  0  0  0  0  0  0
   -5.2763   16.8083  -35.0213 H   0  0  0  0  0  0  0  0  0  0  0  0
   -7.6207   17.2300  -34.2930 H   0  0  0  0  0  0  0  0  0  0  0  0
   -6.2097   20.2313  -31.5043 H   0  0  0  0  0  0  0  0  0  0  0  0
   -4.8216   21.6324  -31.3353 H   0  0  0  0  0  0  0  0  0  0  0  0
   -3.7110   26.0720  -29.8840 H   0  0  0  0  0  0  0  0  0  0  0  0
  1  2  1  0
  2  3  2  0
  2  4  1  0
  4  5  2  0
  5  6  1  0
  6  7  2  0
  7  8  1  0
  8  9  2  0
  9 10  1  0
 10 11  2  0
 11 12  1  0
 12 13  2  0
 13 14  1  0
 14 15  1  0
 15 16  2  0
 15 17  1  0
 14 18  2  0
  9 19  1  0
 19 20  2  0
 20 21  1  0
 21 22  1  0
 22 23  1  0
 22 24  2  0
 21  4  1  0
 20  6  1  0
 18 10  1  0
  1 25  1  0
  5 26  1  0
  7 27  1  0
  8 28  1  0
 11 29  1  0
 12 30  1  0
 13 31  1  0
 18 32  1  0
 19 33  1  0
 23 34  1  0
M  CHG  3   1  -1  17  -1  23  -1
M  END
>  <UniqueID>  (21) 
21

>  <SMILES>  (21) 
[NH-]C(=O)c1cc2ccc(-c3cccc(C(=O)[O-])c3)cc2n1C([NH-])=O

>  <Energy>  (21) 
81.88311590390222

>  <Genealogy>  (21) 
[NH-]C(=O)c1cc2ccc(-c3cccc(C(=O)[O-])c3)cc2n1C([NH-])=O (protonated)
[NH-]C(=O)c1cc2ccc(-c3cccc(C(=O)[O-])c3)cc2n1C([NH-])=O (3D coordinates assigned)
[NH-]C(=O)c1cc2ccc(-c3cccc(C(=O)[O-])c3)cc2n1C([NH-])=O (optimized conformer: 81.88311590390222 kcal/mol)

>  <smiles>  (21) 
NC(=O)c1cc2ccc(-c3cccc(C(=O)O)c3)cc2n1C(N)=O

>  <score_type>  (21) 
oracle

>  <origin>  (21) 
adg

>  <m_score__min__energy>  (21) 
-11.699999999999999

>  <m_primary>  (21) 
energy

$$$$
21:0
     RDKit          3D

 38 39  0  0  0  0  0  0  0  0999 V2000
   -8.5580   18.4930  -31.9980 C   0  0  0  0  0  0  0  0  0  0  0  0
   -7.1200   18.2910  -32.2380 N   0  0  0  0  0  0  0  0  0  0  0  0
   -6.5050   17.5040  -31.1590 C   0  0  0  0  0  0  0  0  0  0  0  0
   -6.8300   17.7500  -33.5860 C   0  0  0  0  0  0  0  0  0  0  0  0
   -5.7910   18.5590  -34.3890 C   0  0  0  0  0  0  0  0  0  0  0  0
   -5.6550   19.9120  -33.8450 N   0  0  0  0  0  0  0  0  0  0  0  0
   -4.5120   20.3450  -33.0840 C   0  0  0  0  0  0  0  0  0  0  0  0
   -3.2790   19.6350  -33.1210 C   0  0  0  0  0  0  0  0  0  0  0  0
   -2.1720   20.0810  -32.3800 C   0  0  0  0  0  0  0  0  0  0  0  0
   -2.3220   21.2270  -31.6070 C   0  0  0  0  0  0  0  0  0  0  0  0
   -1.4080   21.8860  -30.8160 C   0  0  0  0  0  0  0  0  0  0  0  0
   -2.0970   22.9750  -30.2870 C   0  0  0  0  0  0  0  0  0  0  0  0
   -1.5100   23.9050  -29.3000 C   0  0  0  0  0  0  0  0  0  0  0  0
   -1.8310   25.2930  -29.3210 N   0  0  0  0  0  0  0  0  0  0  0  0
   -0.7540   23.4600  -28.3960 O   0  0  0  0  0  0  0  0  0  0  0  0
   -3.3830   22.9940  -30.7400 N   0  0  0  0  0  0  0  0  0  0  0  0
   -4.3840   23.9970  -30.5070 C   0  0  0  0  0  0  0  0  0  0  0  0
   -4.1270   25.3600  -30.8370 N   0  0  0  0  0  0  0  0  0  0  0  0
   -5.5080   23.6730  -30.0390 O   0  0  0  0  0  0  0  0  0  0  0  0
   -3.5040   21.9140  -31.5440 C   0  0  0  0  0  0  0  0  0  0  0  0
   -4.6190   21.5050  -32.2850 C   0  0  0  0  0  0  0  0  0  0  0  0
   -8.7488   18.5198  -30.9150 H   0  0  0  0  0  0  0  0  0  0  0  0
   -8.8750   19.4445  -32.4498 H   0  0  0  0  0  0  0  0  0  0  0  0
   -9.1249   17.6657  -32.4498 H   0  0  0  0  0  0  0  0  0  0  0  0
   -6.8203   17.9074  -30.1854 H   0  0  0  0  0  0  0  0  0  0  0  0
   -6.8250   16.4549  -31.2422 H   0  0  0  0  0  0  0  0  0  0  0  0
   -5.4096   17.5609  -31.2422 H   0  0  0  0  0  0  0  0  0  0  0  0
   -6.4517   16.7236  -33.4704 H   0  0  0  0  0  0  0  0  0  0  0  0
   -7.7715   17.7996  -34.1526 H   0  0  0  0  0  0  0  0  0  0  0  0
   -4.8176   18.0493  -34.3365 H   0  0  0  0  0  0  0  0  0  0  0  0
   -6.1289   18.6302  -35.4334 H   0  0  0  0  0  0  0  0  0  0  0  0
   -6.4230   20.6020  -34.0130 H   0  0  0  0  0  0  0  0  0  0  0  0
   -3.1920   18.7274  -33.7364 H   0  0  0  0  0  0  0  0  0  0  0  0
   -1.2149   19.5397  -32.4104 H   0  0  0  0  0  0  0  0  0  0  0  0
   -0.3576   21.6112  -30.6394 H   0  0  0  0  0  0  0  0  0  0  0  0
   -2.8240   25.6150  -29.3430 H   0  0  0  0  0  0  0  0  0  0  0  0
   -3.1520   25.6960  -31.0030 H   0  0  0  0  0  0  0  0  0  0  0  0
   -5.5589   22.0751  -32.2459 H   0  0  0  0  0  0  0  0  0  0  0  0
  1  2  1  0
  2  3  1  0
  2  4  1  0
  4  5  1  0
  5  6  1  0
  6  7  1  0
  7  8  2  0
  8  9  1  0
  9 10  2  0
 10 11  1  0
 11 12  2  0
 12 13  1  0
 13 14  1  0
 13 15  2  0
 12 16  1  0
 16 17  1  0
 17 18  1  0
 17 19  2  0
 16 20  1  0
 20 21  2  0
 21  7  1  0
 20 10  1  0
  1 22  1  0
  1 23  1  0
  1 24  1  0
  3 25  1  0
  3 26  1  0
  3 27  1  0
  4 28  1  0
  4 29  1  0
  5 30  1  0
  5 31  1  0
  6 32  1  0
  8 33  1  0
  9 34  1  0
 11 35  1  0
 14 36  1  0
 18 37  1  0
 21 38  1  0
M  CHG  2  14  -1  18  -1
M  END
>  <UniqueID>  (22) 
22

>  <SMILES>  (22) 
CN(C)CCNc1ccc2cc(C([NH-])=O)n(C([NH-])=O)c2c1

>  <Energy>  (22) 
78.31276977873591

>  <Genealogy>  (22) 
CN(C)CCNc1ccc2cc(C([NH-])=O)n(C([NH-])=O)c2c1 (protonated)
CN(C)CCNc1ccc2cc(C([NH-])=O)n(C([NH-])=O)c2c1 (3D coordinates assigned)
CN(C)CCNc1ccc2cc(C([NH-])=O)n(C([NH-])=O)c2c1 (optimized conformer: 78.31276977873591 kcal/mol)

>  <smiles>  (22) 
CN(C)CCNc1ccc2cc(C(N)=O)n(C(N)=O)c2c1

>  <score_type>  (22) 
oracle

>  <origin>  (22) 
adg

>  <m_score__min__energy>  (22) 
-10.050000000000001

>  <m_primary>  (22) 
energy

$$$$
22:0
     RDKit          3D

 41 42  0  0  0  0  0  0  0  0999 V2000
   -4.2230   23.7230  -27.7500 C   0  0  0  0  0  0  0  0  0  0  0  0
   -2.9650   22.9550  -28.2020 C   0  0  1  0  0  0  0  0  0  0  0  0
   -3.2350   22.1460  -29.4010 N   0  0  0  0  0  0  0  0  0  0  0  0
   -3.6350   22.6180  -30.6970 C   0  0  0  0  0  0  0  0  0  0  0  0
   -2.7720   22.9250  -31.5630 O   0  0  0  0  0  0  0  0  0  0  0  0
   -5.0270   22.8070  -30.9900 N   0  0  0  0  0  0  0  0  0  0  0  0
   -5.7290   23.9750  -31.0110 C   0  0  0  0  0  0  0  0  0  0  0  0
   -5.2330   25.2880  -30.5570 C   0  0  0  0  0  0  0  0  0  0  0  0
   -3.8890   25.6750  -30.8340 N   0  0  0  0  0  0  0  0  0  0  0  0
   -5.9980   26.0890  -29.9600 O   0  0  0  0  0  0  0  0  0  0  0  0
   -7.0340   23.7530  -31.4440 C   0  0  0  0  0  0  0  0  0  0  0  0
   -7.1140   22.4000  -31.6820 C   0  0  0  0  0  0  0  0  0  0  0  0
   -8.1780   21.6350  -32.1510 C   0  0  0  0  0  0  0  0  0  0  0  0
   -7.9660   20.2590  -32.3400 C   0  0  0  0  0  0  0  0  0  0  0  0
   -6.7070   19.6700  -32.0470 C   0  0  0  0  0  0  0  0  0  0  0  0
   -6.4750   18.2050  -32.3120 C   0  0  0  0  0  0  0  0  0  0  0  0
   -6.1310   17.5780  -31.1300 F   0  0  0  0  0  0  0  0  0  0  0  0
   -5.4530   18.0300  -33.2300 F   0  0  0  0  0  0  0  0  0  0  0  0
   -7.6180   17.6130  -32.8210 F   0  0  0  0  0  0  0  0  0  0  0  0
   -5.6460   20.4880  -31.5950 C   0  0  0  0  0  0  0  0  0  0  0  0
   -5.8910   21.8520  -31.4000 C   0  0  0  0  0  0  0  0  0  0  0  0
   -1.6680   23.8270  -28.3480 C   0  0  0  0  0  0  0  0  0  0  0  0
   -1.3480   24.6510  -27.0810 C   0  0  0  0  0  0  0  0  0  0  0  0
   -0.4530   22.9350  -28.6670 C   0  0  0  0  0  0  0  0  0  0  0  0
   -1.8200   24.7030  -29.4400 O   0  0  0  0  0  0  0  0  0  0  0  0
   -4.2627   23.7472  -26.6510 H   0  0  0  0  0  0  0  0  0  0  0  0
   -4.1840   24.7515  -28.1383 H   0  0  0  0  0  0  0  0  0  0  0  0
   -5.1200   23.2183  -28.1383 H   0  0  0  0  0  0  0  0  0  0  0  0
   -2.7308   22.2737  -27.3708 H   0  0  0  0  0  0  0  0  0  0  0  0
   -3.1360   24.9600  -30.9390 H   0  0  0  0  0  0  0  0  0  0  0  0
   -7.8313   24.5004  -31.5691 H   0  0  0  0  0  0  0  0  0  0  0  0
   -9.1544   22.0934  -32.3669 H   0  0  0  0  0  0  0  0  0  0  0  0
   -8.7849   19.6302  -32.7195 H   0  0  0  0  0  0  0  0  0  0  0  0
   -4.6506   20.0619  -31.4010 H   0  0  0  0  0  0  0  0  0  0  0  0
   -1.5800   24.0537  -26.1869 H   0  0  0  0  0  0  0  0  0  0  0  0
   -0.2809   24.9179  -27.0770 H   0  0  0  0  0  0  0  0  0  0  0  0
   -1.9553   25.5681  -27.0770 H   0  0  0  0  0  0  0  0  0  0  0  0
    0.0093   22.5956  -27.7283 H   0  0  0  0  0  0  0  0  0  0  0  0
   -0.7819   22.0623  -29.2502 H   0  0  0  0  0  0  0  0  0  0  0  0
    0.2811   23.5102  -29.2502 H   0  0  0  0  0  0  0  0  0  0  0  0
   -2.4170   24.2720  -30.1040 H   0  0  0  0  0  0  0  0  0  0  0  0
  1  2  1  0
  2  3  1  0
  3  4  1  0
  4  5  2  0
  4  6  1  0
  6  7  1  0
  7  8  1  0
  8  9  1  0
  8 10  2  0
  7 11  2  0
 11 12  1  0
 12 13  2  0
 13 14  1  0
 14 15  2  0
 15 16  1  0
 16 17  1  0
 16 18  1  0
 16 19  1  0
 15 20  1  0
 20 21  2  0
  2 22  1  0
 22 23  1  0
 22 24  1  0
 22 25  1  0
 21  6  1  0
 21 12  1  0
  1 26  1  0
  1 27  1  0
  1 28  1  0
  2 29  1  1
  9 30  1  0
 11 31  1  0
 13 32  1  0
 14 33  1  0
 20 34  1  0
 23 35  1  0
 23 36  1  0
 23 37  1  0
 24 38  1  0
 24 39  1  0
 24 40  1  0
 25 41  1  0
M  CHG  2   3  -1   9  -1
M  END
>  <UniqueID>  (23) 
23

>  <SMILES>  (23) 
C[C@@H]([N-]C(=O)n1c(C([NH-])=O)cc2ccc(C(F)(F)F)cc21)C(C)(C)O

>  <Energy>  (23) 
81.35307788731157

>  <Genealogy>  (23) 
CC([N-]C(=O)n1c(C([NH-])=O)cc2ccc(C(F)(F)F)cc21)C(C)(C)O (protonated)
C[C@@H]([N-]C(=O)n1c(C([NH-])=O)cc2ccc(C(F)(F)F)cc21)C(C)(C)O (chirality)
C[C@@H]([N-]C(=O)n1c(C([NH-])=O)cc2ccc(C(F)(F)F)cc21)C(C)(C)O (3D coordinates assigned)
C[C@@H]([N-]C(=O)n1c(C([NH-])=O)cc2ccc(C(F)(F)F)cc21)C(C)(C)O (optimized conformer: 81.35307788731157 kcal/mol)

>  <smiles>  (23) 
CC(NC(=O)n1c(C(N)=O)cc2ccc(C(F)(F)F)cc21)C(C)(C)O

>  <score_type>  (23) 
oracle

>  <origin>  (23) 
adg

>  <m_score__min__energy>  (23) 
-11.35

>  <m_primary>  (23) 
energy

$$$$
23:0
     RDKit          3D

 41 43  0  0  0  0  0  0  0  0999 V2000
   -3.8370   23.6000  -27.8640 C   0  0  0  0  0  0  0  0  0  0  0  0
   -2.9410   22.6690  -28.6700 C   0  0  0  0  0  0  0  0  0  0  0  0
   -2.6790   23.2140  -29.9620 O   0  0  0  0  0  0  0  0  0  0  0  0
   -3.1910   22.6730  -31.1470 C   0  0  0  0  0  0  0  0  0  0  0  0
   -2.4130   22.1990  -32.0200 O   0  0  0  0  0  0  0  0  0  0  0  0
   -4.6080   22.6760  -31.3770 N   0  0  0  0  0  0  0  0  0  0  0  0
   -5.4770   23.7120  -31.2050 C   0  0  0  0  0  0  0  0  0  0  0  0
   -5.1660   25.0100  -30.5720 C   0  0  0  0  0  0  0  0  0  0  0  0
   -3.9300   25.6730  -30.8280 N   0  0  0  0  0  0  0  0  0  0  0  0
   -5.9810   25.5180  -29.7560 O   0  0  0  0  0  0  0  0  0  0  0  0
   -6.7520   23.3560  -31.6380 C   0  0  0  0  0  0  0  0  0  0  0  0
   -6.6400   22.0570  -32.0780 C   0  0  0  0  0  0  0  0  0  0  0  0
   -7.6010   21.2110  -32.6220 C   0  0  0  0  0  0  0  0  0  0  0  0
   -7.1960   19.9250  -33.0180 C   0  0  0  0  0  0  0  0  0  0  0  0
   -5.8450   19.5180  -32.8800 C   0  0  0  0  0  0  0  0  0  0  0  0
   -5.4250   18.1630  -33.3020 C   0  0  0  0  0  0  0  0  0  0  0  0
   -4.8960   17.9890  -34.5900 C   0  0  0  0  0  0  0  0  0  0  0  0
   -4.4680   16.7320  -35.0090 C   0  0  0  0  0  0  0  0  0  0  0  0
   -4.5700   15.6490  -34.1380 C   0  0  0  0  0  0  0  0  0  0  0  0
   -4.1470   14.4240  -34.5350 F   0  0  0  0  0  0  0  0  0  0  0  0
   -5.0960   15.8180  -32.8950 N   0  0  0  0  0  0  0  0  0  0  0  0
   -5.5430   17.0330  -32.4570 C   0  0  0  0  0  0  0  0  0  0  0  0
   -6.1410   17.1380  -31.0790 C   0  0  0  0  0  0  0  0  0  0  0  0
   -4.9010   20.4020  -32.3130 C   0  0  0  0  0  0  0  0  0  0  0  0
   -5.3360   21.6700  -31.9100 C   0  0  0  0  0  0  0  0  0  0  0  0
   -3.6721   23.4287  -26.7900 H   0  0  0  0  0  0  0  0  0  0  0  0
   -3.5959   24.6447  -28.1099 H   0  0  0  0  0  0  0  0  0  0  0  0
   -4.8902   23.3991  -28.1099 H   0  0  0  0  0  0  0  0  0  0  0  0
   -1.9891   22.5324  -28.1360 H   0  0  0  0  0  0  0  0  0  0  0  0
   -3.4530   21.7030  -28.7911 H   0  0  0  0  0  0  0  0  0  0  0  0
   -3.0290   25.2890  -30.4670 H   0  0  0  0  0  0  0  0  0  0  0  0
   -7.6571   23.9811  -31.6300 H   0  0  0  0  0  0  0  0  0  0  0  0
   -8.6447   21.5383  -32.7385 H   0  0  0  0  0  0  0  0  0  0  0  0
   -7.9346   19.2271  -33.4393 H   0  0  0  0  0  0  0  0  0  0  0  0
   -4.8191   18.8491  -35.2714 H   0  0  0  0  0  0  0  0  0  0  0  0
   -4.0531   16.5951  -36.0185 H   0  0  0  0  0  0  0  0  0  0  0  0
   -5.1620   14.9830  -32.2690 H   0  0  0  0  0  0  0  0  0  0  0  0
   -5.3519   16.9994  -30.3253 H   0  0  0  0  0  0  0  0  0  0  0  0
   -6.5987   18.1302  -30.9525 H   0  0  0  0  0  0  0  0  0  0  0  0
   -6.9093   16.3610  -30.9525 H   0  0  0  0  0  0  0  0  0  0  0  0
   -3.8499   20.1016  -32.1910 H   0  0  0  0  0  0  0  0  0  0  0  0
  1  2  1  0
  2  3  1  0
  3  4  1  0
  4  5  2  0
  4  6  1  0
  6  7  1  0
  7  8  1  0
  8  9  1  0
  8 10  2  0
  7 11  2  0
 11 12  1  0
 12 13  2  0
 13 14  1  0
 14 15  2  0
 15 16  1  0
 16 17  2  0
 17 18  1  0
 18 19  2  0
 19 20  1  0
 19 21  1  0
 21 22  2  0
 22 23  1  0
 15 24  1  0
 24 25  2  0
 25  6  1  0
 25 12  1  0
 22 16  1  0
  1 26  1  0
  1 27  1  0
  1 28  1  0
  2 29  1  0
  2 30  1  0
  9 31  1  0
 11 32  1  0
 13 33  1  0
 14 34  1  0
 17 35  1  0
 18 36  1  0
 21 37  1  0
 23 38  1  0
 23 39  1  0
 23 40  1  0
 24 41  1  0
M  CHG  2   9  -1  21   1
M  END
>  <UniqueID>  (24) 
24

>  <SMILES>  (24) 
CCOC(=O)n1c(C([NH-])=O)cc2ccc(-c3ccc(F)[nH+]c3C)cc21

>  <Energy>  (24) 
85.79459342043246

>  <Genealogy>  (24) 
CCOC(=O)n1c(C([NH-])=O)cc2ccc(-c3ccc(F)[nH+]c3C)cc21 (protonated)
CCOC(=O)n1c(C([NH-])=O)cc2ccc(-c3ccc(F)[nH+]c3C)cc21 (3D coordinates assigned)
CCOC(=O)n1c(C([NH-])=O)cc2ccc(-c3ccc(F)[nH+]c3C)cc21 (optimized conformer: 85.79459342043246 kcal/mol)

>  <smiles>  (24) 
CCOC(=O)n1c(C(N)=O)cc2ccc(-c3ccc(F)nc3C)cc21

>  <score_type>  (24) 
oracle

>  <origin>  (24) 
adg

>  <m_score__min__energy>  (24) 
-10.18

>  <m_primary>  (24) 
energy

$$$$
24:0
     RDKit          3D

 39 40  0  0  0  0  0  0  0  0999 V2000
   -9.3760   20.6690  -32.3380 C   0  0  0  0  0  0  0  0  0  0  0  0
   -9.4450   21.9780  -31.5700 C   0  0  0  0  0  0  0  0  0  0  0  0
   -8.2110   22.6750  -31.7060 O   0  0  0  0  0  0  0  0  0  0  0  0
   -7.2400   22.6970  -30.7000 C   0  0  0  0  0  0  0  0  0  0  0  0
   -7.5710   22.9260  -29.5050 O   0  0  0  0  0  0  0  0  0  0  0  0
   -5.8620   22.4610  -31.0360 N   0  0  0  0  0  0  0  0  0  0  0  0
   -4.8310   23.3470  -30.9470 C   0  0  0  0  0  0  0  0  0  0  0  0
   -4.8910   24.6860  -30.3280 C   0  0  0  0  0  0  0  0  0  0  0  0
   -5.6420   24.9180  -29.1350 N   0  0  0  0  0  0  0  0  0  0  0  0
   -4.2230   25.6300  -30.8290 O   0  0  0  0  0  0  0  0  0  0  0  0
   -3.6680   22.8040  -31.4860 C   0  0  0  0  0  0  0  0  0  0  0  0
   -4.0180   21.5400  -31.9000 C   0  0  0  0  0  0  0  0  0  0  0  0
   -3.2540   20.5680  -32.5320 C   0  0  0  0  0  0  0  0  0  0  0  0
   -3.8810   19.3640  -32.8940 C   0  0  0  0  0  0  0  0  0  0  0  0
   -5.2610   19.1380  -32.6150 C   0  0  0  0  0  0  0  0  0  0  0  0
   -5.9870   17.8550  -33.0510 C   0  0  0  0  0  0  0  0  0  0  0  0
   -5.2910   16.5620  -32.5730 C   0  0  0  0  0  0  0  0  0  0  0  0
   -6.0870   17.8280  -34.5870 C   0  0  0  0  0  0  0  0  0  0  0  0
   -7.3520   17.8450  -32.4840 C   0  0  0  0  0  0  0  0  0  0  0  0
   -8.4220   17.8390  -32.0400 N   0  0  0  0  0  0  0  0  0  0  0  0
   -6.0030   20.1770  -31.9880 C   0  0  0  0  0  0  0  0  0  0  0  0
   -5.3460   21.3560  -31.6200 C   0  0  0  0  0  0  0  0  0  0  0  0
   -9.3318   19.8295  -31.6285 H   0  0  0  0  0  0  0  0  0  0  0  0
  -10.2700   20.5676  -32.9708 H   0  0  0  0  0  0  0  0  0  0  0  0
   -8.4762   20.6621  -32.9708 H   0  0  0  0  0  0  0  0  0  0  0  0
  -10.2612   22.5961  -31.9720 H   0  0  0  0  0  0  0  0  0  0  0  0
   -9.6322   21.7690  -30.5064 H   0  0  0  0  0  0  0  0  0  0  0  0
   -5.7100   25.8810  -28.7370 H   0  0  0  0  0  0  0  0  0  0  0  0
   -6.0680   24.1270  -28.6040 H   0  0  0  0  0  0  0  0  0  0  0  0
   -2.6809   23.2831  -31.5640 H   0  0  0  0  0  0  0  0  0  0  0  0
   -2.1876   20.7359  -32.7433 H   0  0  0  0  0  0  0  0  0  0  0  0
   -3.2972   18.5820  -33.4015 H   0  0  0  0  0  0  0  0  0  0  0  0
   -5.2779   16.5377  -31.4733 H   0  0  0  0  0  0  0  0  0  0  0  0
   -5.8405   15.6880  -32.9526 H   0  0  0  0  0  0  0  0  0  0  0  0
   -4.2588   16.5394  -32.9526 H   0  0  0  0  0  0  0  0  0  0  0  0
   -7.1098   17.5518  -34.8831 H   0  0  0  0  0  0  0  0  0  0  0  0
   -5.8455   18.8235  -34.9877 H   0  0  0  0  0  0  0  0  0  0  0  0
   -5.3772   17.0893  -34.9877 H   0  0  0  0  0  0  0  0  0  0  0  0
   -7.0791   20.0551  -31.7950 H   0  0  0  0  0  0  0  0  0  0  0  0
  1  2  1  0
  2  3  1  0
  3  4  1  0
  4  5  2  0
  4  6  1  0
  6  7  1  0
  7  8  1  0
  8  9  1  0
  8 10  2  0
  7 11  2  0
 11 12  1  0
 12 13  2  0
 13 14  1  0
 14 15  2  0
 15 16  1  0
 16 17  1  0
 16 18  1  0
 16 19  1  0
 19 20  3  0
 15 21  1  0
 21 22  2  0
 22  6  1  0
 22 12  1  0
  1 23  1  0
  1 24  1  0
  1 25  1  0
  2 26  1  0
  2 27  1  0
  9 28  1  0
  9 29  1  0
 11 30  1  0
 13 31  1  0
 14 32  1  0
 17 33  1  0
 17 34  1  0
 17 35  1  0
 18 36  1  0
 18 37  1  0
 18 38  1  0
 21 39  1  0
M  END
>  <UniqueID>  (25) 
25

>  <SMILES>  (25) 
CCOC(=O)n1c(C(N)=O)cc2ccc(C(C)(C)C#N)cc21

>  <Energy>  (25) 
74.01413978023132

>  <Genealogy>  (25) 
CCOC(=O)n1c(C(N)=O)cc2ccc(C(C)(C)C#N)cc21 (3D coordinates assigned)
CCOC(=O)n1c(C(N)=O)cc2ccc(C(C)(C)C#N)cc21 (optimized conformer: 74.01413978023132 kcal/mol)

>  <smiles>  (25) 
CCOC(=O)n1c(C(N)=O)cc2ccc(C(C)(C)C#N)cc21

>  <score_type>  (25) 
oracle

>  <origin>  (25) 
adg

>  <m_score__min__energy>  (25) 
-8.5999999999999996

>  <m_primary>  (25) 
energy

$$$$
25:0
     RDKit          3D

 37 39  0  0  0  0  0  0  0  0999 V2000
   -3.5920   15.4370  -35.1840 C   0  0  0  0  0  0  0  0  0  0  0  0
   -4.2060   16.6630  -34.5620 C   0  0  0  0  0  0  0  0  0  0  0  0
   -3.4500   17.8370  -34.4360 C   0  0  0  0  0  0  0  0  0  0  0  0
   -4.0100   18.9800  -33.8670 C   0  0  0  0  0  0  0  0  0  0  0  0
   -5.3380   18.9490  -33.4140 C   0  0  0  0  0  0  0  0  0  0  0  0
   -5.9840   20.1400  -32.8030 C   0  0  0  0  0  0  0  0  0  0  0  0
   -7.3990   20.2180  -32.7440 C   0  0  0  0  0  0  0  0  0  0  0  0
   -8.0380   21.3210  -32.1540 C   0  0  0  0  0  0  0  0  0  0  0  0
   -7.2410   22.3350  -31.6350 C   0  0  0  0  0  0  0  0  0  0  0  0
   -7.6000   23.4890  -30.9780 C   0  0  0  0  0  0  0  0  0  0  0  0
   -6.4000   24.1180  -30.6600 C   0  0  0  0  0  0  0  0  0  0  0  0
   -6.3260   25.4350  -29.9980 C   0  0  0  0  0  0  0  0  0  0  0  0
   -5.4360   26.4500  -30.4660 N   0  0  0  0  0  0  0  0  0  0  0  0
   -7.1000   25.6900  -29.0370 O   0  0  0  0  0  0  0  0  0  0  0  0
   -5.3390   23.3780  -31.0880 N   0  0  0  0  0  0  0  0  0  0  0  0
   -3.9450   23.6320  -30.8420 C   0  0  0  0  0  0  0  0  0  0  0  0
   -3.1080   22.6920  -30.8760 O   0  0  0  0  0  0  0  0  0  0  0  0
   -3.5060   24.9200  -30.5580 O   0  0  0  0  0  0  0  0  0  0  0  0
   -5.8720   22.2890  -31.6880 C   0  0  0  0  0  0  0  0  0  0  0  0
   -5.2080   21.1890  -32.2490 C   0  0  0  0  0  0  0  0  0  0  0  0
   -6.0590   17.8030  -33.5570 N   0  0  0  0  0  0  0  0  0  0  0  0
   -5.5440   16.6710  -34.1100 C   0  0  0  0  0  0  0  0  0  0  0  0
   -6.4220   15.4590  -34.2200 C   0  0  0  0  0  0  0  0  0  0  0  0
   -3.2506   14.7554  -34.3910 H   0  0  0  0  0  0  0  0  0  0  0  0
   -4.3415   14.9278  -35.8077 H   0  0  0  0  0  0  0  0  0  0  0  0
   -2.7353   15.7322  -35.8077 H   0  0  0  0  0  0  0  0  0  0  0  0
   -2.4082   17.8564  -34.7884 H   0  0  0  0  0  0  0  0  0  0  0  0
   -3.4147   19.9003  -33.7737 H   0  0  0  0  0  0  0  0  0  0  0  0
   -8.0048   19.4028  -33.1664 H   0  0  0  0  0  0  0  0  0  0  0  0
   -9.1353   21.3806  -32.1041 H   0  0  0  0  0  0  0  0  0  0  0  0
   -8.6179   23.8396  -30.7523 H   0  0  0  0  0  0  0  0  0  0  0  0
   -4.9030   26.3300  -31.3560 H   0  0  0  0  0  0  0  0  0  0  0  0
   -5.3700   27.3620  -29.9630 H   0  0  0  0  0  0  0  0  0  0  0  0
   -4.1091   21.1410  -32.2590 H   0  0  0  0  0  0  0  0  0  0  0  0
   -6.6811   15.1013  -33.2126 H   0  0  0  0  0  0  0  0  0  0  0  0
   -7.3416   15.7205  -34.7640 H   0  0  0  0  0  0  0  0  0  0  0  0
   -5.8869   14.6667  -34.7640 H   0  0  0  0  0  0  0  0  0  0  0  0
  1  2  1  0
  2  3  2  0
  3  4  1  0
  4  5  2  0
  5  6  1  0
  6  7  2  0
  7  8  1  0
  8  9  2  0
  9 10  1  0
 10 11  2  0
 11 12  1  0
 12 13  1  0
 12 14  2  0
 11 15  1  0
 15 16  1  0
 16 17  2  0
 16 18  1  0
 15 19  1  0
 19 20  2  0
  5 21  1  0
 21 22  2  0
 22 23  1  0
 22  2  1  0
 20  6  1  0
 19  9  1  0
  1 24  1  0
  1 25  1  0
  1 26  1  0
  3 27  1  0
  4 28  1  0
  7 29  1  0
  8 30  1  0
 10 31  1  0
 13 32  1  0
 13 33  1  0
 20 34  1  0
 23 35  1  0
 23 36  1  0
 23 37  1  0
M  CHG  1  18  -1
M  END
>  <UniqueID>  (26) 
26

>  <SMILES>  (26) 
Cc1ccc(-c2ccc3cc(C(N)=O)n(C(=O)[O-])c3c2)nc1C

>  <Energy>  (26) 
83.377337031997

>  <Genealogy>  (26) 
Cc1ccc(-c2ccc3cc(C(N)=O)n(C(=O)[O-])c3c2)nc1C (protonated)
Cc1ccc(-c2ccc3cc(C(N)=O)n(C(=O)[O-])c3c2)nc1C (3D coordinates assigned)
Cc1ccc(-c2ccc3cc(C(N)=O)n(C(=O)[O-])c3c2)nc1C (optimized conformer: 83.377337031997 kcal/mol)

>  <smiles>  (26) 
Cc1ccc(-c2ccc3cc(C(N)=O)n(C(=O)O)c3c2)nc1C

>  <score_type>  (26) 
oracle

>  <origin>  (26) 
adg

>  <m_score__min__energy>  (26) 
-10.140000000000001

>  <m_primary>  (26) 
energy

$$$$
26:0
     RDKit          3D

 28 29  0  0  0  0  0  0  0  0999 V2000
   -5.3940   24.7610  -29.0750 N   0  0  0  0  0  0  0  0  0  0  0  0
   -4.7460   24.5920  -30.3380 C   0  0  0  0  0  0  0  0  0  0  0  0
   -4.1280   25.5670  -30.8420 O   0  0  0  0  0  0  0  0  0  0  0  0
   -4.8120   23.3010  -31.0600 C   0  0  0  0  0  0  0  0  0  0  0  0
   -3.7150   22.6690  -31.6460 C   0  0  0  0  0  0  0  0  0  0  0  0
   -4.2040   21.4850  -32.1540 C   0  0  0  0  0  0  0  0  0  0  0  0
   -3.5500   20.4700  -32.8440 C   0  0  0  0  0  0  0  0  0  0  0  0
   -4.3120   19.3690  -33.2730 C   0  0  0  0  0  0  0  0  0  0  0  0
   -5.7090   19.3150  -33.0310 C   0  0  0  0  0  0  0  0  0  0  0  0
   -6.5090   18.1120  -33.4650 C   0  0  0  0  0  0  0  0  0  0  0  0
   -6.4400   17.9490  -34.8380 F   0  0  0  0  0  0  0  0  0  0  0  0
   -6.0020   16.9830  -32.8510 F   0  0  0  0  0  0  0  0  0  0  0  0
   -7.8390   18.2570  -33.1130 F   0  0  0  0  0  0  0  0  0  0  0  0
   -6.3310   20.3570  -32.3040 C   0  0  0  0  0  0  0  0  0  0  0  0
   -5.5430   21.4290  -31.8720 C   0  0  0  0  0  0  0  0  0  0  0  0
   -5.9290   22.5320  -31.1940 N   0  0  0  0  0  0  0  0  0  0  0  0
   -7.2630   22.8540  -30.7710 C   0  0  0  0  0  0  0  0  0  0  0  0
   -7.5190   22.9720  -29.5430 O   0  0  0  0  0  0  0  0  0  0  0  0
   -8.3630   23.0290  -31.7730 C   0  0  0  0  0  0  0  0  0  0  0  0
   -9.4440   21.6150  -31.7370 Cl  0  0  0  0  0  0  0  0  0  0  0  0
   -5.3690   25.6890  -28.5960 H   0  0  0  0  0  0  0  0  0  0  0  0
   -5.8600   23.9650  -28.5880 H   0  0  0  0  0  0  0  0  0  0  0  0
   -2.6796   23.0375  -31.6926 H   0  0  0  0  0  0  0  0  0  0  0  0
   -2.4705   20.5267  -33.0477 H   0  0  0  0  0  0  0  0  0  0  0  0
   -3.8194   18.5400  -33.8023 H   0  0  0  0  0  0  0  0  0  0  0  0
   -7.4082   20.3250  -32.0837 H   0  0  0  0  0  0  0  0  0  0  0  0
   -8.9382   23.9344  -31.5292 H   0  0  0  0  0  0  0  0  0  0  0  0
   -7.9262   23.1261  -32.7779 H   0  0  0  0  0  0  0  0  0  0  0  0
  1  2  1  0
  2  3  2  0
  2  4  1  0
  4  5  2  0
  5  6  1  0
  6  7  2  0
  7  8  1  0
  8  9  2  0
  9 10  1  0
 10 11  1  0
 10 12  1  0
 10 13  1  0
  9 14  1  0
 14 15  2  0
 15 16  1  0
 16 17  1  0
 17 18  2  0
 17 19  1  0
 19 20  1  0
 16  4  1  0
 15  6  1  0
  1 21  1  0
  1 22  1  0
  5 23  1  0
  7 24  1  0
  8 25  1  0
 14 26  1  0
 19 27  1  0
 19 28  1  0
M  END
>  <UniqueID>  (27) 
27

>  <SMILES>  (27) 
NC(=O)c1cc2ccc(C(F)(F)F)cc2n1C(=O)CCl

>  <Energy>  (27) 
67.13613426251439

>  <Genealogy>  (27) 
NC(=O)c1cc2ccc(C(F)(F)F)cc2n1C(=O)CCl (3D coordinates assigned)
NC(=O)c1cc2ccc(C(F)(F)F)cc2n1C(=O)CCl (optimized conformer: 67.13613426251439 kcal/mol)

>  <smiles>  (27) 
NC(=O)c1cc2ccc(C(F)(F)F)cc2n1C(=O)CCl

>  <score_type>  (27) 
oracle

>  <origin>  (27) 
adg

>  <m_score__min__energy>  (27) 
-7.4100000000000001

>  <m_primary>  (27) 
energy

$$$$
27:0
     RDKit          3D

 37 38  0  0  0  0  0  0  0  0999 V2000
   -4.5660   17.4530  -35.3630 N   0  0  0  0  0  0  0  0  0  0  0  0
   -5.6770   17.6110  -34.4780 C   0  0  0  0  0  0  0  0  0  0  0  0
   -6.6420   16.8040  -34.5490 O   0  0  0  0  0  0  0  0  0  0  0  0
   -5.7440   18.7410  -33.5300 C   0  0  0  0  0  0  0  0  0  0  0  0
   -6.9370   19.2210  -32.9980 C   0  0  0  0  0  0  0  0  0  0  0  0
   -6.5790   20.3040  -32.2280 C   0  0  0  0  0  0  0  0  0  0  0  0
   -7.3690   21.1490  -31.4570 C   0  0  0  0  0  0  0  0  0  0  0  0
   -6.7310   22.1680  -30.7320 C   0  0  0  0  0  0  0  0  0  0  0  0
   -5.3210   22.3280  -30.7870 C   0  0  0  0  0  0  0  0  0  0  0  0
   -4.6270   23.4180  -29.9950 C   0  0  1  0  0  0  0  0  0  0  0  0
   -3.0890   23.2250  -29.9000 C   0  0  0  0  0  0  0  0  0  0  0  0
   -2.3850   24.0230  -28.7780 C   0  0  1  0  0  0  0  0  0  0  0  0
   -2.0060   25.2900  -29.2510 O   0  0  0  0  0  0  0  0  0  0  0  0
   -3.2220   24.1640  -27.4980 C   0  0  0  0  0  0  0  0  0  0  0  0
   -2.7190   25.1690  -26.6900 F   0  0  0  0  0  0  0  0  0  0  0  0
   -4.9670   24.7580  -30.5910 C   0  0  0  0  0  0  0  0  0  0  0  0
   -6.1650   25.0760  -30.8210 O   0  0  0  0  0  0  0  0  0  0  0  0
   -3.9570   25.6780  -30.8450 O   0  0  0  0  0  0  0  0  0  0  0  0
   -4.5520   21.4350  -31.5720 C   0  0  0  0  0  0  0  0  0  0  0  0
   -5.2170   20.4420  -32.3010 C   0  0  0  0  0  0  0  0  0  0  0  0
   -4.6870   19.4850  -33.0980 N   0  0  0  0  0  0  0  0  0  0  0  0
   -3.2910   19.2310  -33.3310 C   0  0  0  0  0  0  0  0  0  0  0  0
   -2.8210   19.2720  -34.4990 O   0  0  0  0  0  0  0  0  0  0  0  0
   -2.4440   18.9420  -32.2690 O   0  0  0  0  0  0  0  0  0  0  0  0
   -3.8340   18.1920  -35.4460 H   0  0  0  0  0  0  0  0  0  0  0  0
   -4.5200   16.6280  -36.0010 H   0  0  0  0  0  0  0  0  0  0  0  0
   -7.9489   18.8207  -33.1585 H   0  0  0  0  0  0  0  0  0  0  0  0
   -8.4610   21.0230  -31.4162 H   0  0  0  0  0  0  0  0  0  0  0  0
   -7.3311   22.8514  -30.1133 H   0  0  0  0  0  0  0  0  0  0  0  0
   -4.9969   23.3617  -28.9606 H   0  0  0  0  0  0  0  0  0  0  0  0
   -2.8916   22.1562  -29.7305 H   0  0  0  0  0  0  0  0  0  0  0  0
   -2.6780   23.6079  -30.8458 H   0  0  0  0  0  0  0  0  0  0  0  0
   -1.4946   23.4405  -28.4989 H   0  0  0  0  0  0  0  0  0  0  0  0
   -2.7940   25.6710  -29.7190 H   0  0  0  0  0  0  0  0  0  0  0  0
   -4.2599   24.4059  -27.7706 H   0  0  0  0  0  0  0  0  0  0  0  0
   -3.1829   23.2141  -26.9448 H   0  0  0  0  0  0  0  0  0  0  0  0
   -3.4559   21.5197  -31.6082 H   0  0  0  0  0  0  0  0  0  0  0  0
  1  2  1  0
  2  3  2  0
  2  4  1  0
  4  5  2  0
  5  6  1  0
  6  7  2  0
  7  8  1  0
  8  9  2  0
  9 10  1  0
 10 11  1  0
 11 12  1  0
 12 13  1  0
 12 14  1  0
 14 15  1  0
 10 16  1  0
 16 17  2  0
 16 18  1  0
  9 19  1  0
 19 20  2  0
 20 21  1  0
 21 22  1  0
 22 23  2  0
 22 24  1  0
 21  4  1  0
 20  6  1  0
  1 25  1  0
  1 26  1  0
  5 27  1  0
  7 28  1  0
  8 29  1  0
 10 30  1  1
 11 31  1  0
 11 32  1  0
 12 33  1  1
 13 34  1  0
 14 35  1  0
 14 36  1  0
 19 37  1  0
M  CHG  2  18  -1  24  -1
M  END
>  <UniqueID>  (28) 
28

>  <SMILES>  (28) 
NC(=O)c1cc2ccc([C@@H](C[C@@H](O)CF)C(=O)[O-])cc2n1C(=O)[O-]

>  <Energy>  (28) 
75.7220531207724

>  <Genealogy>  (28) 
NC(=O)c1cc2ccc(C(CC(O)CF)C(=O)[O-])cc2n1C(=O)[O-] (protonated)
NC(=O)c1cc2ccc([C@@H](C[C@@H](O)CF)C(=O)[O-])cc2n1C(=O)[O-] (chirality)
NC(=O)c1cc2ccc([C@@H](C[C@@H](O)CF)C(=O)[O-])cc2n1C(=O)[O-] (3D coordinates assigned)
NC(=O)c1cc2ccc([C@@H](C[C@@H](O)CF)C(=O)[O-])cc2n1C(=O)[O-] (optimized conformer: 75.7220531207724 kcal/mol)

>  <smiles>  (28) 
NC(=O)c1cc2ccc(C(CC(O)CF)C(=O)O)cc2n1C(=O)O

>  <score_type>  (28) 
oracle

>  <origin>  (28) 
adg

>  <m_score__min__energy>  (28) 
-8.9800000000000004

>  <m_primary>  (28) 
energy

$$$$
28:0
     RDKit          3D

 32 33  0  0  0  0  0  0  0  0999 V2000
   -3.9310   22.8180  -28.2050 C   0  0  0  0  0  0  0  0  0  0  0  0
   -2.7820   22.6530  -29.1930 C   0  0  0  0  0  0  0  0  0  0  0  0
   -3.0980   23.2690  -30.4400 O   0  0  0  0  0  0  0  0  0  0  0  0
   -3.8980   22.6640  -31.4170 C   0  0  0  0  0  0  0  0  0  0  0  0
   -3.3690   22.0350  -32.3740 O   0  0  0  0  0  0  0  0  0  0  0  0
   -5.3290   22.7570  -31.3270 N   0  0  0  0  0  0  0  0  0  0  0  0
   -6.0680   23.8430  -30.9640 C   0  0  0  0  0  0  0  0  0  0  0  0
   -5.5360   25.1120  -30.4300 C   0  0  0  0  0  0  0  0  0  0  0  0
   -4.2100   25.5470  -30.7370 N   0  0  0  0  0  0  0  0  0  0  0  0
   -6.2430   25.7980  -29.6440 O   0  0  0  0  0  0  0  0  0  0  0  0
   -7.4280   23.5860  -31.1140 C   0  0  0  0  0  0  0  0  0  0  0  0
   -7.5040   22.2900  -31.5710 C   0  0  0  0  0  0  0  0  0  0  0  0
   -8.6160   21.5250  -31.9110 C   0  0  0  0  0  0  0  0  0  0  0  0
   -8.3970   20.2250  -32.3980 C   0  0  0  0  0  0  0  0  0  0  0  0
   -7.0830   19.7180  -32.5340 C   0  0  0  0  0  0  0  0  0  0  0  0
   -6.8630   18.3490  -33.1070 C   0  0  0  0  0  0  0  0  0  0  0  0
   -5.9770   20.5280  -32.1970 C   0  0  0  0  0  0  0  0  0  0  0  0
   -6.2230   21.8120  -31.6920 C   0  0  0  0  0  0  0  0  0  0  0  0
   -3.5420   22.7621  -27.1776 H   0  0  0  0  0  0  0  0  0  0  0  0
   -4.4124   23.7945  -28.3622 H   0  0  0  0  0  0  0  0  0  0  0  0
   -4.6677   22.0164  -28.3622 H   0  0  0  0  0  0  0  0  0  0  0  0
   -1.8780   23.1219  -28.7773 H   0  0  0  0  0  0  0  0  0  0  0  0
   -2.6115   21.5795  -29.3616 H   0  0  0  0  0  0  0  0  0  0  0  0
   -3.5400   24.9230  -31.2390 H   0  0  0  0  0  0  0  0  0  0  0  0
   -3.8660   26.4670  -30.3850 H   0  0  0  0  0  0  0  0  0  0  0  0
   -8.2634   24.2722  -30.9107 H   0  0  0  0  0  0  0  0  0  0  0  0
   -9.6347   21.9255  -31.8019 H   0  0  0  0  0  0  0  0  0  0  0  0
   -9.2552   19.5957  -32.6761 H   0  0  0  0  0  0  0  0  0  0  0  0
   -6.7464   17.6234  -32.2886 H   0  0  0  0  0  0  0  0  0  0  0  0
   -7.7274   18.0675  -33.7263 H   0  0  0  0  0  0  0  0  0  0  0  0
   -5.9539   18.3525  -33.7263 H   0  0  0  0  0  0  0  0  0  0  0  0
   -4.9484   20.1607  -32.3274 H   0  0  0  0  0  0  0  0  0  0  0  0
  1  2  1  0
  2  3  1  0
  3  4  1  0
  4  5  2  0
  4  6  1  0
  6  7  1  0
  7  8  1  0
  8  9  1  0
  8 10  2  0
  7 11  2  0
 11 12  1  0
 12 13  2  0
 13 14  1  0
 14 15  2  0
 15 16  1  0
 15 17  1  0
 17 18  2  0
 18  6  1  0
 18 12  1  0
  1 19  1  0
  1 20  1  0
  1 21  1  0
  2 22  1  0
  2 23  1  0
  9 24  1  0
  9 25  1  0
 11 26  1  0
 13 27  1  0
 14 28  1  0
 16 29  1  0
 16 30  1  0
 16 31  1  0
 17 32  1  0
M  END
>  <UniqueID>  (29) 
29

>  <SMILES>  (29) 
CCOC(=O)n1c(C(N)=O)cc2ccc(C)cc21

>  <Energy>  (29) 
66.74623765080337

>  <Genealogy>  (29) 
CCOC(=O)n1c(C(N)=O)cc2ccc(C)cc21 (3D coordinates assigned)
CCOC(=O)n1c(C(N)=O)cc2ccc(C)cc21 (optimized conformer: 66.74623765080337 kcal/mol)

>  <smiles>  (29) 
CCOC(=O)n1c(C(N)=O)cc2ccc(C)cc21

>  <score_type>  (29) 
oracle

>  <origin>  (29) 
adg

>  <m_score__min__energy>  (29) 
-7.4100000000000001

>  <m_primary>  (29) 
energy

$$$$
29:0
     RDKit          3D

 24 25  0  0  0  0  0  0  0  0999 V2000
   -1.6440   25.6890  -28.9750 N   0  0  0  0  0  0  0  0  0  0  0  0
   -1.0780   24.4150  -29.2660 C   0  0  0  0  0  0  0  0  0  0  0  0
    0.0430   24.1120  -28.7780 O   0  0  0  0  0  0  0  0  0  0  0  0
   -1.8130   23.4250  -30.0800 C   0  0  0  0  0  0  0  0  0  0  0  0
   -1.2450   22.2390  -30.5400 C   0  0  0  0  0  0  0  0  0  0  0  0
   -2.2660   21.5620  -31.1650 C   0  0  0  0  0  0  0  0  0  0  0  0
   -2.2590   20.3310  -31.8140 C   0  0  0  0  0  0  0  0  0  0  0  0
   -3.4560   19.8880  -32.4000 C   0  0  0  0  0  0  0  0  0  0  0  0
   -4.6290   20.6800  -32.3330 C   0  0  0  0  0  0  0  0  0  0  0  0
   -5.9030   20.2100  -32.9750 C   0  0  0  0  0  0  0  0  0  0  0  0
   -6.7830   21.2700  -33.0970 F   0  0  0  0  0  0  0  0  0  0  0  0
   -5.6300   19.6970  -34.2300 F   0  0  0  0  0  0  0  0  0  0  0  0
   -4.5980   21.9260  -31.6680 C   0  0  0  0  0  0  0  0  0  0  0  0
   -3.3960   22.3350  -31.0780 C   0  0  0  0  0  0  0  0  0  0  0  0
   -3.1330   23.4850  -30.4160 N   0  0  0  0  0  0  0  0  0  0  0  0
   -4.0420   24.5780  -30.2110 C   0  0  0  0  0  0  0  0  0  0  0  0
   -3.8740   25.6690  -30.8160 O   0  0  0  0  0  0  0  0  0  0  0  0
   -5.1000   24.4530  -29.3190 O   0  0  0  0  0  0  0  0  0  0  0  0
   -2.6770   25.8370  -29.0040 H   0  0  0  0  0  0  0  0  0  0  0  0
   -0.2005   21.9129  -30.4272 H   0  0  0  0  0  0  0  0  0  0  0  0
   -1.3436   19.7233  -31.8664 H   0  0  0  0  0  0  0  0  0  0  0  0
   -3.4832   18.9169  -32.9159 H   0  0  0  0  0  0  0  0  0  0  0  0
   -6.3550   19.4277  -32.3475 H   0  0  0  0  0  0  0  0  0  0  0  0
   -5.4960   22.5591  -31.6151 H   0  0  0  0  0  0  0  0  0  0  0  0
  1  2  1  0
  2  3  2  0
  2  4  1  0
  4  5  2  0
  5  6  1  0
  6  7  2  0
  7  8  1  0
  8  9  2  0
  9 10  1  0
 10 11  1  0
 10 12  1  0
  9 13  1  0
 13 14  2  0
 14 15  1  0
 15 16  1  0
 16 17  2  0
 16 18  1  0
 15  4  1  0
 14  6  1  0
  1 19  1  0
  5 20  1  0
  7 21  1  0
  8 22  1  0
 10 23  1  0
 13 24  1  0
M  CHG  2   1  -1  18  -1
M  END
>  <UniqueID>  (30) 
30

>  <SMILES>  (30) 
[NH-]C(=O)c1cc2ccc(C(F)F)cc2n1C(=O)[O-]

>  <Energy>  (30) 
64.17615446339485

>  <Genealogy>  (30) 
[NH-]C(=O)c1cc2ccc(C(F)F)cc2n1C(=O)[O-] (protonated)
[NH-]C(=O)c1cc2ccc(C(F)F)cc2n1C(=O)[O-] (3D coordinates assigned)
[NH-]C(=O)c1cc2ccc(C(F)F)cc2n1C(=O)[O-] (optimized conformer: 64.17615446339485 kcal/mol)

>  <smiles>  (30) 
NC(=O)c1cc2ccc(C(F)F)cc2n1C(=O)O

>  <score_type>  (30) 
oracle

>  <origin>  (30) 
adg

>  <m_score__min__energy>  (30) 
-9.3800000000000008

>  <m_primary>  (30) 
energy

$$$$
30:0
     RDKit          3D

 30 31  0  0  0  0  0  0  0  0999 V2000
   -7.2310   19.1570  -31.6620 C   0  0  0  0  0  0  0  0  0  0  0  0
   -6.5360   19.8610  -32.7850 C   0  0  0  0  0  0  0  0  0  0  0  0
   -7.2250   20.3840  -33.7010 O   0  0  0  0  0  0  0  0  0  0  0  0
   -5.1010   19.9220  -32.8460 N   0  0  0  0  0  0  0  0  0  0  0  0
   -4.2660   19.2360  -33.6770 C   0  0  0  0  0  0  0  0  0  0  0  0
   -4.6560   18.1350  -34.5800 C   0  0  0  0  0  0  0  0  0  0  0  0
   -5.8670   18.1930  -35.3360 N   0  0  0  0  0  0  0  0  0  0  0  0
   -3.9350   17.1050  -34.6470 O   0  0  0  0  0  0  0  0  0  0  0  0
   -2.9510   19.6670  -33.5180 C   0  0  0  0  0  0  0  0  0  0  0  0
   -3.0030   20.6380  -32.5440 C   0  0  0  0  0  0  0  0  0  0  0  0
   -1.9840   21.4090  -31.9920 C   0  0  0  0  0  0  0  0  0  0  0  0
   -2.3320   22.3580  -31.0160 C   0  0  0  0  0  0  0  0  0  0  0  0
   -3.6830   22.5290  -30.6240 C   0  0  0  0  0  0  0  0  0  0  0  0
   -4.0390   23.5320  -29.5620 C   0  0  0  0  0  0  0  0  0  0  0  0
   -3.4640   24.8690  -29.9050 C   0  0  0  0  0  0  0  0  0  0  0  0
   -2.4380   25.2890  -29.3090 O   0  0  0  0  0  0  0  0  0  0  0  0
   -4.0910   25.6730  -30.8490 O   0  0  0  0  0  0  0  0  0  0  0  0
   -4.6890   21.7210  -31.1990 C   0  0  0  0  0  0  0  0  0  0  0  0
   -4.3110   20.7730  -32.1560 C   0  0  0  0  0  0  0  0  0  0  0  0
   -6.8546   19.5383  -30.7013 H   0  0  0  0  0  0  0  0  0  0  0  0
   -8.3138   19.3386  -31.7296 H   0  0  0  0  0  0  0  0  0  0  0  0
   -7.0355   18.0766  -31.7296 H   0  0  0  0  0  0  0  0  0  0  0  0
   -6.5650   18.9510  -35.1770 H   0  0  0  0  0  0  0  0  0  0  0  0
   -6.1050   17.4260  -36.0030 H   0  0  0  0  0  0  0  0  0  0  0  0
   -2.0612   19.3080  -34.0559 H   0  0  0  0  0  0  0  0  0  0  0  0
   -0.9389   21.2794  -32.3099 H   0  0  0  0  0  0  0  0  0  0  0  0
   -1.5480   22.9743  -30.5517 H   0  0  0  0  0  0  0  0  0  0  0  0
   -5.1337   23.6140  -29.4912 H   0  0  0  0  0  0  0  0  0  0  0  0
   -3.6257   23.1986  -28.5987 H   0  0  0  0  0  0  0  0  0  0  0  0
   -5.7421   21.8342  -30.9021 H   0  0  0  0  0  0  0  0  0  0  0  0
  1  2  1  0
  2  3  2  0
  2  4  1  0
  4  5  1  0
  5  6  1  0
  6  7  1  0
  6  8  2  0
  5  9  2  0
  9 10  1  0
 10 11  2  0
 11 12  1  0
 12 13  2  0
 13 14  1  0
 14 15  1  0
 15 16  2  0
 15 17  1  0
 13 18  1  0
 18 19  2  0
 19  4  1  0
 19 10  1  0
  1 20  1  0
  1 21  1  0
  1 22  1  0
  7 23  1  0
  7 24  1  0
  9 25  1  0
 11 26  1  0
 12 27  1  0
 14 28  1  0
 14 29  1  0
 18 30  1  0
M  CHG  1  17  -1
M  END
>  <UniqueID>  (31) 
31

>  <SMILES>  (31) 
CC(=O)n1c(C(N)=O)cc2ccc(CC(=O)[O-])cc21

>  <Energy>  (31) 
67.92744668391161

>  <Genealogy>  (31) 
CC(=O)n1c(C(N)=O)cc2ccc(CC(=O)[O-])cc21 (protonated)
CC(=O)n1c(C(N)=O)cc2ccc(CC(=O)[O-])cc21 (3D coordinates assigned)
CC(=O)n1c(C(N)=O)cc2ccc(CC(=O)[O-])cc21 (optimized conformer: 67.92744668391161 kcal/mol)

>  <smiles>  (31) 
CC(=O)n1c(C(N)=O)cc2ccc(CC(=O)O)cc21

>  <score_type>  (31) 
oracle

>  <origin>  (31) 
adg

>  <m_score__min__energy>  (31) 
-9.2100000000000009

>  <m_primary>  (31) 
energy

$$$$
31:0
     RDKit          3D

 36 38  0  0  0  0  0  0  0  0999 V2000
   -3.3510   22.8360  -28.8790 C   0  0  0  0  0  0  0  0  0  0  0  0
   -2.8910   23.1460  -30.1900 O   0  0  0  0  0  0  0  0  0  0  0  0
   -3.5850   22.7620  -31.3420 C   0  0  0  0  0  0  0  0  0  0  0  0
   -2.9590   22.3140  -32.3400 O   0  0  0  0  0  0  0  0  0  0  0  0
   -5.0140   22.9040  -31.3930 N   0  0  0  0  0  0  0  0  0  0  0  0
   -5.7660   23.9660  -30.9840 C   0  0  0  0  0  0  0  0  0  0  0  0
   -5.2470   25.2700  -30.5200 C   0  0  0  0  0  0  0  0  0  0  0  0
   -3.9210   25.6690  -30.8650 N   0  0  0  0  0  0  0  0  0  0  0  0
   -5.9470   26.0230  -29.7940 O   0  0  0  0  0  0  0  0  0  0  0  0
   -7.1230   23.6920  -31.1370 C   0  0  0  0  0  0  0  0  0  0  0  0
   -7.1800   22.4220  -31.6640 C   0  0  0  0  0  0  0  0  0  0  0  0
   -8.2820   21.6460  -32.0100 C   0  0  0  0  0  0  0  0  0  0  0  0
   -8.0480   20.3550  -32.5110 C   0  0  0  0  0  0  0  0  0  0  0  0
   -6.7260   19.8570  -32.6510 C   0  0  0  0  0  0  0  0  0  0  0  0
   -6.4930   18.4860  -33.1700 C   0  0  0  0  0  0  0  0  0  0  0  0
   -5.3170   18.1710  -33.8700 C   0  0  0  0  0  0  0  0  0  0  0  0
   -5.1090   16.8770  -34.3510 C   0  0  0  0  0  0  0  0  0  0  0  0
   -6.0820   15.8930  -34.1320 C   0  0  0  0  0  0  0  0  0  0  0  0
   -5.8990   14.5540  -34.6140 N   0  0  0  0  0  0  0  0  0  0  0  0
   -6.8890   13.8200  -34.8130 O   0  0  0  0  0  0  0  0  0  0  0  0
   -4.6380   14.0610  -34.8610 O   0  0  0  0  0  0  0  0  0  0  0  0
   -7.2170   16.2170  -33.4540 N   0  0  0  0  0  0  0  0  0  0  0  0
   -7.4430   17.4690  -32.9730 C   0  0  0  0  0  0  0  0  0  0  0  0
   -5.6320   20.6790  -32.2870 C   0  0  0  0  0  0  0  0  0  0  0  0
   -5.8960   21.9680  -31.8090 C   0  0  0  0  0  0  0  0  0  0  0  0
   -2.6774   23.2899  -28.1372 H   0  0  0  0  0  0  0  0  0  0  0  0
   -4.3674   23.2341  -28.7434 H   0  0  0  0  0  0  0  0  0  0  0  0
   -3.3636   21.7445  -28.7434 H   0  0  0  0  0  0  0  0  0  0  0  0
   -3.0960   25.2880  -30.3510 H   0  0  0  0  0  0  0  0  0  0  0  0
   -7.9688   24.3503  -30.8894 H   0  0  0  0  0  0  0  0  0  0  0  0
   -9.3055   22.0321  -31.8946 H   0  0  0  0  0  0  0  0  0  0  0  0
   -8.9001   19.7216  -32.7986 H   0  0  0  0  0  0  0  0  0  0  0  0
   -4.5564   18.9472  -34.0401 H   0  0  0  0  0  0  0  0  0  0  0  0
   -4.1870   16.6316  -34.8985 H   0  0  0  0  0  0  0  0  0  0  0  0
   -8.3731   17.6866  -32.4275 H   0  0  0  0  0  0  0  0  0  0  0  0
   -4.5986   20.3132  -32.3777 H   0  0  0  0  0  0  0  0  0  0  0  0
  1  2  1  0
  2  3  1  0
  3  4  2  0
  3  5  1  0
  5  6  1  0
  6  7  1  0
  7  8  1  0
  7  9  2  0
  6 10  2  0
 10 11  1  0
 11 12  2  0
 12 13  1  0
 13 14  2  0
 14 15  1  0
 15 16  2  0
 16 17  1  0
 17 18  2  0
 18 19  1  0
 19 20  2  0
 19 21  1  0
 18 22  1  0
 22 23  2  0
 14 24  1  0
 24 25  2  0
 25  5  1  0
 25 11  1  0
 23 15  1  0
  1 26  1  0
  1 27  1  0
  1 28  1  0
  8 29  1  0
 10 30  1  0
 12 31  1  0
 13 32  1  0
 16 33  1  0
 17 34  1  0
 23 35  1  0
 24 36  1  0
M  CHG  3   8  -1  19   1  21  -1
M  END
>  <UniqueID>  (32) 
32

>  <SMILES>  (32) 
COC(=O)n1c(C([NH-])=O)cc2ccc(-c3ccc([N+](=O)[O-])nc3)cc21

>  <Energy>  (32) 
81.6706406602443

>  <Genealogy>  (32) 
COC(=O)n1c(C([NH-])=O)cc2ccc(-c3ccc([N+](=O)[O-])nc3)cc21 (protonated)
COC(=O)n1c(C([NH-])=O)cc2ccc(-c3ccc([N+](=O)[O-])nc3)cc21 (3D coordinates assigned)
COC(=O)n1c(C([NH-])=O)cc2ccc(-c3ccc([N+](=O)[O-])nc3)cc21 (optimized conformer: 81.6706406602443 kcal/mol)

>  <smiles>  (32) 
COC(=O)n1c(C(N)=O)cc2ccc(-c3ccc([N+](=O)[O-])nc3)cc21

>  <score_type>  (32) 
oracle

>  <origin>  (32) 
adg

>  <m_score__min__energy>  (32) 
-10.220000000000001

>  <m_primary>  (32) 
energy

$$$$
32:0
     RDKit          3D

 35 36  0  0  0  0  0  0  0  0999 V2000
   -6.2100   18.7450  -31.6300 C   0  0  0  0  0  0  0  0  0  0  0  0
   -6.4170   19.6670  -32.5810 C   0  0  0  0  0  0  0  0  0  0  0  0
   -5.2810   20.0990  -33.4640 C   0  0  0  0  0  0  0  0  0  0  0  0
   -4.1330   20.5870  -32.6260 C   0  0  0  0  0  0  0  0  0  0  0  0
   -2.9380   19.8300  -32.5500 C   0  0  0  0  0  0  0  0  0  0  0  0
   -1.8490   20.2870  -31.7890 C   0  0  0  0  0  0  0  0  0  0  0  0
   -1.9780   21.5080  -31.1340 C   0  0  0  0  0  0  0  0  0  0  0  0
   -1.0910   22.1710  -30.3170 C   0  0  0  0  0  0  0  0  0  0  0  0
   -1.7420   23.3420  -29.9370 C   0  0  0  0  0  0  0  0  0  0  0  0
   -1.1060   24.3950  -29.1190 C   0  0  0  0  0  0  0  0  0  0  0  0
   -1.7150   25.6750  -28.9660 N   0  0  0  0  0  0  0  0  0  0  0  0
    0.0160   24.1790  -28.5870 O   0  0  0  0  0  0  0  0  0  0  0  0
   -2.9890   23.3970  -30.4890 N   0  0  0  0  0  0  0  0  0  0  0  0
   -4.0040   24.3920  -30.2790 C   0  0  0  0  0  0  0  0  0  0  0  0
   -5.0400   24.1140  -29.6200 O   0  0  0  0  0  0  0  0  0  0  0  0
   -3.8640   25.6620  -30.8240 O   0  0  0  0  0  0  0  0  0  0  0  0
   -3.1160   22.2680  -31.2210 C   0  0  0  0  0  0  0  0  0  0  0  0
   -4.2230   21.8270  -31.9550 C   0  0  0  0  0  0  0  0  0  0  0  0
   -7.6640   20.2850  -32.7720 O   0  0  0  0  0  0  0  0  0  0  0  0
   -8.7040   20.3390  -31.8000 C   0  0  0  0  0  0  0  0  0  0  0  0
   -9.0190   21.7910  -31.4750 C   0  0  0  0  0  0  0  0  0  0  0  0
   -7.0402   18.4270  -30.9822 H   0  0  0  0  0  0  0  0  0  0  0  0
   -5.2099   18.3065  -31.4975 H   0  0  0  0  0  0  0  0  0  0  0  0
   -4.9494   19.2458  -34.0740 H   0  0  0  0  0  0  0  0  0  0  0  0
   -5.6228   20.9154  -34.1172 H   0  0  0  0  0  0  0  0  0  0  0  0
   -2.8620   18.8757  -33.0918 H   0  0  0  0  0  0  0  0  0  0  0  0
   -0.9231   19.6979  -31.7133 H   0  0  0  0  0  0  0  0  0  0  0  0
   -0.0816   21.8450  -30.0258 H   0  0  0  0  0  0  0  0  0  0  0  0
   -2.7540   25.7800  -28.9790 H   0  0  0  0  0  0  0  0  0  0  0  0
   -5.1407   22.4311  -32.0082 H   0  0  0  0  0  0  0  0  0  0  0  0
   -9.6044   19.8488  -32.1987 H   0  0  0  0  0  0  0  0  0  0  0  0
   -8.3789   19.8208  -30.8858 H   0  0  0  0  0  0  0  0  0  0  0  0
   -9.0480   21.9245  -30.3835 H   0  0  0  0  0  0  0  0  0  0  0  0
   -8.2407   22.4398  -31.9032 H   0  0  0  0  0  0  0  0  0  0  0  0
   -9.9962   22.0589  -31.9032 H   0  0  0  0  0  0  0  0  0  0  0  0
  1  2  2  0
  2  3  1  0
  3  4  1  0
  4  5  2  0
  5  6  1  0
  6  7  2  0
  7  8  1  0
  8  9  2  0
  9 10  1  0
 10 11  1  0
 10 12  2  0
  9 13  1  0
 13 14  1  0
 14 15  2  0
 14 16  1  0
 13 17  1  0
 17 18  2  0
  2 19  1  0
 19 20  1  0
 20 21  1  0
 18  4  1  0
 17  7  1  0
  1 22  1  0
  1 23  1  0
  3 24  1  0
  3 25  1  0
  5 26  1  0
  6 27  1  0
  8 28  1  0
 11 29  1  0
 18 30  1  0
 20 31  1  0
 20 32  1  0
 21 33  1  0
 21 34  1  0
 21 35  1  0
M  CHG  2  11  -1  16  -1
M  END
>  <UniqueID>  (33) 
33

>  <SMILES>  (33) 
C=C(Cc1ccc2cc(C([NH-])=O)n(C(=O)[O-])c2c1)OCC

>  <Energy>  (33) 
69.09082076437728

>  <Genealogy>  (33) 
C=C(Cc1ccc2cc(C([NH-])=O)n(C(=O)[O-])c2c1)OCC (protonated)
C=C(Cc1ccc2cc(C([NH-])=O)n(C(=O)[O-])c2c1)OCC (3D coordinates assigned)
C=C(Cc1ccc2cc(C([NH-])=O)n(C(=O)[O-])c2c1)OCC (optimized conformer: 69.09082076437728 kcal/mol)

>  <smiles>  (33) 
C=C(Cc1ccc2cc(C(N)=O)n(C(=O)O)c2c1)OCC

>  <score_type>  (33) 
oracle

>  <origin>  (33) 
adg

>  <m_score__min__energy>  (33) 
-10.92

>  <m_primary>  (33) 
energy

$$$$
33:0
     RDKit          3D

 42 44  0  0  0  0  0  0  0  0999 V2000
   -5.5650   26.5460  -30.2450 N   0  0  0  0  0  0  0  0  0  0  0  0
   -6.4080   25.4370  -29.9300 C   0  0  0  0  0  0  0  0  0  0  0  0
   -7.2330   25.5370  -28.9840 O   0  0  0  0  0  0  0  0  0  0  0  0
   -6.2830   24.1540  -30.6500 C   0  0  0  0  0  0  0  0  0  0  0  0
   -7.3720   23.4600  -31.1700 C   0  0  0  0  0  0  0  0  0  0  0  0
   -6.8460   22.3030  -31.6970 C   0  0  0  0  0  0  0  0  0  0  0  0
   -7.4780   21.2590  -32.3650 C   0  0  0  0  0  0  0  0  0  0  0  0
   -6.6810   20.2090  -32.8490 C   0  0  0  0  0  0  0  0  0  0  0  0
   -5.2780   20.2200  -32.6550 C   0  0  0  0  0  0  0  0  0  0  0  0
   -4.4290   19.1300  -33.2470 C   0  0  0  0  0  0  0  0  0  0  0  0
   -2.9510   19.1970  -33.0290 C   0  0  0  0  0  0  0  0  0  0  0  0
   -2.4960   19.3370  -31.8620 O   0  0  0  0  0  0  0  0  0  0  0  0
   -2.0710   19.1700  -34.1570 N   0  0  0  0  0  0  0  0  0  0  0  0
   -1.2310   20.2930  -34.5610 C   0  0  0  0  0  0  0  0  0  0  0  0
   -1.2450   21.3990  -33.4960 C   0  0  0  0  0  0  0  0  0  0  0  0
   -0.2210   21.1790  -32.3750 C   0  0  0  0  0  0  0  0  0  0  0  0
    0.2250   19.8500  -32.3510 O   0  0  0  0  0  0  0  0  0  0  0  0
   -5.0450   17.7380  -33.3260 C   0  0  0  0  0  0  0  0  0  0  0  0
   -4.8820   18.5700  -34.5910 C   0  0  0  0  0  0  0  0  0  0  0  0
   -4.6680   21.3060  -31.9910 C   0  0  0  0  0  0  0  0  0  0  0  0
   -5.4880   22.3300  -31.4990 C   0  0  0  0  0  0  0  0  0  0  0  0
   -5.1250   23.4640  -30.8580 N   0  0  0  0  0  0  0  0  0  0  0  0
   -3.7860   23.9080  -30.5810 C   0  0  0  0  0  0  0  0  0  0  0  0
   -2.8630   23.0720  -30.3910 O   0  0  0  0  0  0  0  0  0  0  0  0
   -3.4930   25.2640  -30.5250 O   0  0  0  0  0  0  0  0  0  0  0  0
   -5.6930   27.4580  -29.7520 H   0  0  0  0  0  0  0  0  0  0  0  0
   -4.7640   26.4440  -30.9060 H   0  0  0  0  0  0  0  0  0  0  0  0
   -8.4273   23.7703  -31.1614 H   0  0  0  0  0  0  0  0  0  0  0  0
   -8.5685   21.2561  -32.5096 H   0  0  0  0  0  0  0  0  0  0  0  0
   -7.1506   19.3702  -33.3837 H   0  0  0  0  0  0  0  0  0  0  0  0
   -0.1987   19.9391  -34.6991 H   0  0  0  0  0  0  0  0  0  0  0  0
   -1.6248   20.7058  -35.5015 H   0  0  0  0  0  0  0  0  0  0  0  0
   -1.0239   22.3583  -33.9868 H   0  0  0  0  0  0  0  0  0  0  0  0
   -2.2420   21.3895  -33.0313 H   0  0  0  0  0  0  0  0  0  0  0  0
    0.6399   21.8437  -32.5396 H   0  0  0  0  0  0  0  0  0  0  0  0
   -0.7042   21.4023  -31.4124 H   0  0  0  0  0  0  0  0  0  0  0  0
   -0.5440   19.2870  -32.6280 H   0  0  0  0  0  0  0  0  0  0  0  0
   -4.4168   16.8490  -33.1679 H   0  0  0  0  0  0  0  0  0  0  0  0
   -5.8870   17.2312  -32.8319 H   0  0  0  0  0  0  0  0  0  0  0  0
   -4.1360   18.2820  -35.3464 H   0  0  0  0  0  0  0  0  0  0  0  0
   -5.5574   18.9130  -35.3886 H   0  0  0  0  0  0  0  0  0  0  0  0
   -3.5763   21.3473  -31.8630 H   0  0  0  0  0  0  0  0  0  0  0  0
  1  2  1  0
  2  3  2  0
  2  4  1  0
  4  5  2  0
  5  6  1  0
  6  7  2  0
  7  8  1  0
  8  9  2  0
  9 10  1  0
 10 11  1  0
 11 12  2  0
 11 13  1  0
 13 14  1  0
 14 15  1  0
 15 16  1  0
 16 17  1  0
 10 18  1  0
 18 19  1  0
  9 20  1  0
 20 21  2  0
 21 22  1  0
 22 23  1  0
 23 24  2  0
 23 25  1  0
 22  4  1  0
 21  6  1  0
 19 10  1  0
  1 26  1  0
  1 27  1  0
  5 28  1  0
  7 29  1  0
  8 30  1  0
 14 31  1  0
 14 32  1  0
 15 33  1  0
 15 34  1  0
 16 35  1  0
 16 36  1  0
 17 37  1  0
 18 38  1  0
 18 39  1  0
 19 40  1  0
 19 41  1  0
 20 42  1  0
M  CHG  2  13  -1  25  -1
M  END
>  <UniqueID>  (34) 
34

>  <SMILES>  (34) 
NC(=O)c1cc2ccc(C3(C(=O)[N-]CCCO)CC3)cc2n1C(=O)[O-]

>  <Energy>  (34) 
342.8331308676806

>  <Genealogy>  (34) 
NC(=O)c1cc2ccc(C3(C(=O)[N-]CCCO)CC3)cc2n1C(=O)[O-] (protonated)
NC(=O)c1cc2ccc(C3(C(=O)[N-]CCCO)CC3)cc2n1C(=O)[O-] (3D coordinates assigned)
NC(=O)c1cc2ccc(C3(C(=O)[N-]CCCO)CC3)cc2n1C(=O)[O-] (nonaromatic ring conformer: 342.8331308676806 kcal/mol)

>  <smiles>  (34) 
NC(=O)c1cc2ccc(C3(C(=O)NCCCO)CC3)cc2n1C(=O)O

>  <score_type>  (34) 
oracle

>  <origin>  (34) 
adg

>  <m_score__min__energy>  (34) 
-9.0700000000000003

>  <m_primary>  (34) 
energy

$$$$
34:0
     RDKit          3D

 46 48  0  0  0  0  0  0  0  0999 V2000
   -7.1190   21.2340  -32.3480 C   0  0  0  0  0  0  0  0  0  0  0  0
   -5.9770   20.3060  -32.0670 C   0  0  0  0  0  0  0  0  0  0  0  0
   -5.5200   20.2460  -30.8940 O   0  0  0  0  0  0  0  0  0  0  0  0
   -5.3480   19.4920  -33.1350 C   0  0  0  0  0  0  0  0  0  0  0  0
   -6.1900   18.8520  -34.0620 C   0  0  0  0  0  0  0  0  0  0  0  0
   -5.6620   18.0120  -35.0440 C   0  0  0  0  0  0  0  0  0  0  0  0
   -4.2870   17.8010  -35.1180 C   0  0  0  0  0  0  0  0  0  0  0  0
   -3.4310   18.4450  -34.2220 C   0  0  0  0  0  0  0  0  0  0  0  0
   -3.9430   19.3060  -33.2340 C   0  0  0  0  0  0  0  0  0  0  0  0
   -2.9830   20.0420  -32.3800 C   0  0  0  0  0  0  0  0  0  0  0  0
   -1.7160   19.4790  -32.0850 C   0  0  0  0  0  0  0  0  0  0  0  0
   -0.8030   20.1630  -31.2640 C   0  0  0  0  0  0  0  0  0  0  0  0
   -1.1780   21.4080  -30.7660 C   0  0  0  0  0  0  0  0  0  0  0  0
   -0.5090   22.2620  -29.9210 C   0  0  0  0  0  0  0  0  0  0  0  0
   -1.3640   23.3470  -29.7390 C   0  0  0  0  0  0  0  0  0  0  0  0
   -1.0060   24.5440  -28.9510 C   0  0  0  0  0  0  0  0  0  0  0  0
   -1.8310   25.7070  -28.9670 N   0  0  0  0  0  0  0  0  0  0  0  0
    0.0670   24.5590  -28.2900 O   0  0  0  0  0  0  0  0  0  0  0  0
   -2.5190   23.1670  -30.4420 N   0  0  0  0  0  0  0  0  0  0  0  0
   -3.6940   23.9910  -30.4290 C   0  0  0  0  0  0  0  0  0  0  0  0
   -3.6280   25.1860  -30.8250 O   0  0  0  0  0  0  0  0  0  0  0  0
   -4.9440   23.4430  -29.9970 N   0  0  0  0  0  0  0  0  0  0  0  0
   -6.2440   23.9860  -30.3790 C   0  0  0  0  0  0  0  0  0  0  0  0
   -6.2870   24.1600  -31.8960 C   0  0  0  0  0  0  0  0  0  0  0  0
   -6.4810   25.3260  -29.6770 C   0  0  0  0  0  0  0  0  0  0  0  0
   -2.3870   21.9780  -31.0670 C   0  0  0  0  0  0  0  0  0  0  0  0
   -3.3210   21.3160  -31.8720 C   0  0  0  0  0  0  0  0  0  0  0  0
   -7.5495   21.5838  -31.3981 H   0  0  0  0  0  0  0  0  0  0  0  0
   -6.7566   22.0968  -32.9261 H   0  0  0  0  0  0  0  0  0  0  0  0
   -7.8894   20.7028  -32.9261 H   0  0  0  0  0  0  0  0  0  0  0  0
   -7.2767   19.0151  -34.0127 H   0  0  0  0  0  0  0  0  0  0  0  0
   -6.3329   17.5158  -35.7607 H   0  0  0  0  0  0  0  0  0  0  0  0
   -3.8751   17.1264  -35.8830 H   0  0  0  0  0  0  0  0  0  0  0  0
   -2.3459   18.2775  -34.2893 H   0  0  0  0  0  0  0  0  0  0  0  0
   -1.4449   18.4980  -32.5023 H   0  0  0  0  0  0  0  0  0  0  0  0
    0.1780   19.7280  -31.0222 H   0  0  0  0  0  0  0  0  0  0  0  0
    0.4894   22.1189  -29.4819 H   0  0  0  0  0  0  0  0  0  0  0  0
   -2.8090   25.6670  -29.3280 H   0  0  0  0  0  0  0  0  0  0  0  0
   -7.0401   23.2918  -30.0719 H   0  0  0  0  0  0  0  0  0  0  0  0
   -6.5444   25.2016  -32.1384 H   0  0  0  0  0  0  0  0  0  0  0  0
   -5.3019   23.9173  -32.3210 H   0  0  0  0  0  0  0  0  0  0  0  0
   -7.0457   23.4864  -32.3210 H   0  0  0  0  0  0  0  0  0  0  0  0
   -6.4549   25.1787  -28.5872 H   0  0  0  0  0  0  0  0  0  0  0  0
   -5.6947   26.0374  -29.9697 H   0  0  0  0  0  0  0  0  0  0  0  0
   -7.4636   25.7246  -29.9697 H   0  0  0  0  0  0  0  0  0  0  0  0
   -4.2932   21.7759  -32.1032 H   0  0  0  0  0  0  0  0  0  0  0  0
  1  2  1  0
  2  3  2  0
  2  4  1  0
  4  5  2  0
  5  6  1  0
  6  7  2  0
  7  8  1  0
  8  9  2  0
  9 10  1  0
 10 11  2  0
 11 12  1  0
 12 13  2  0
 13 14  1  0
 14 15  2  0
 15 16  1  0
 16 17  1  0
 16 18  2  0
 15 19  1  0
 19 20  1  0
 20 21  2  0
 20 22  1  0
 22 23  1  0
 23 24  1  0
 23 25  1  0
 19 26  1  0
 26 27  2  0
  9  4  1  0
 27 10  1  0
 26 13  1  0
  1 28  1  0
  1 29  1  0
  1 30  1  0
  5 31  1  0
  6 32  1  0
  7 33  1  0
  8 34  1  0
 11 35  1  0
 12 36  1  0
 14 37  1  0
 17 38  1  0
 23 39  1  0
 24 40  1  0
 24 41  1  0
 24 42  1  0
 25 43  1  0
 25 44  1  0
 25 45  1  0
 27 46  1  0
M  CHG  2  17  -1  22  -1
M  END
>  <UniqueID>  (35) 
35

>  <SMILES>  (35) 
CC(=O)c1ccccc1-c1ccc2cc(C([NH-])=O)n(C(=O)[N-]C(C)C)c2c1

>  <Energy>  (35) 
91.35515227047631

>  <Genealogy>  (35) 
CC(=O)c1ccccc1-c1ccc2cc(C([NH-])=O)n(C(=O)[N-]C(C)C)c2c1 (protonated)
CC(=O)c1ccccc1-c1ccc2cc(C([NH-])=O)n(C(=O)[N-]C(C)C)c2c1 (3D coordinates assigned)
CC(=O)c1ccccc1-c1ccc2cc(C([NH-])=O)n(C(=O)[N-]C(C)C)c2c1 (optimized conformer: 91.35515227047631 kcal/mol)

>  <smiles>  (35) 
CC(=O)c1ccccc1-c1ccc2cc(C(N)=O)n(C(=O)NC(C)C)c2c1

>  <score_type>  (35) 
oracle

>  <origin>  (35) 
adg

>  <m_score__min__energy>  (35) 
-12.369999999999999

>  <m_primary>  (35) 
energy

$$$$
35:0
     RDKit          3D

 40 42  0  0  0  0  0  0  0  0999 V2000
   -1.5980   22.8710  -29.6650 C   0  0  0  0  0  0  0  0  0  0  0  0
   -3.0580   22.7780  -29.7500 N   0  0  0  0  0  0  0  0  0  0  0  0
   -3.8660   22.6450  -28.5330 C   0  0  0  0  0  0  0  0  0  0  0  0
   -3.6930   22.7520  -31.0420 C   0  0  0  0  0  0  0  0  0  0  0  0
   -2.9980   22.6190  -32.0870 O   0  0  0  0  0  0  0  0  0  0  0  0
   -5.1180   22.8720  -31.1620 N   0  0  0  0  0  0  0  0  0  0  0  0
   -5.9050   23.8880  -30.7140 C   0  0  0  0  0  0  0  0  0  0  0  0
   -5.4070   25.1370  -30.0880 C   0  0  0  0  0  0  0  0  0  0  0  0
   -6.1010   25.7450  -28.9970 N   0  0  0  0  0  0  0  0  0  0  0  0
   -4.3580   25.6820  -30.5220 O   0  0  0  0  0  0  0  0  0  0  0  0
   -7.2490   23.6000  -30.9640 C   0  0  0  0  0  0  0  0  0  0  0  0
   -7.2510   22.3640  -31.5700 C   0  0  0  0  0  0  0  0  0  0  0  0
   -8.3130   21.5830  -32.0170 C   0  0  0  0  0  0  0  0  0  0  0  0
   -8.0190   20.3300  -32.5810 C   0  0  0  0  0  0  0  0  0  0  0  0
   -6.6770   19.8750  -32.6840 C   0  0  0  0  0  0  0  0  0  0  0  0
   -6.3750   18.5480  -33.2770 C   0  0  0  0  0  0  0  0  0  0  0  0
   -7.1360   17.4170  -32.9220 C   0  0  0  0  0  0  0  0  0  0  0  0
   -6.8490   16.1670  -33.4820 C   0  0  0  0  0  0  0  0  0  0  0  0
   -5.8040   16.0340  -34.4000 C   0  0  0  0  0  0  0  0  0  0  0  0
   -5.0430   17.1480  -34.7600 C   0  0  0  0  0  0  0  0  0  0  0  0
   -4.0330   17.0170  -35.6550 F   0  0  0  0  0  0  0  0  0  0  0  0
   -5.3250   18.3990  -34.2020 C   0  0  0  0  0  0  0  0  0  0  0  0
   -5.6270   20.6990  -32.2150 C   0  0  0  0  0  0  0  0  0  0  0  0
   -5.9520   21.9460  -31.6730 C   0  0  0  0  0  0  0  0  0  0  0  0
   -1.2927   22.8904  -28.6084 H   0  0  0  0  0  0  0  0  0  0  0  0
   -1.1456   21.9999  -30.1614 H   0  0  0  0  0  0  0  0  0  0  0  0
   -1.2598   23.7925  -30.1614 H   0  0  0  0  0  0  0  0  0  0  0  0
   -3.2190   22.7515  -27.6498 H   0  0  0  0  0  0  0  0  0  0  0  0
   -4.6384   23.4281  -28.5183 H   0  0  0  0  0  0  0  0  0  0  0  0
   -4.3466   21.6557  -28.5183 H   0  0  0  0  0  0  0  0  0  0  0  0
   -5.7370   26.6290  -28.5770 H   0  0  0  0  0  0  0  0  0  0  0  0
   -6.9440   25.3070  -28.5680 H   0  0  0  0  0  0  0  0  0  0  0  0
   -8.1206   24.2277  -30.7269 H   0  0  0  0  0  0  0  0  0  0  0  0
   -9.3513   21.9361  -31.9313 H   0  0  0  0  0  0  0  0  0  0  0  0
   -8.8380   19.6935  -32.9473 H   0  0  0  0  0  0  0  0  0  0  0  0
   -7.9604   17.5169  -32.2006 H   0  0  0  0  0  0  0  0  0  0  0  0
   -7.4468   15.2880  -33.1991 H   0  0  0  0  0  0  0  0  0  0  0  0
   -5.5806   15.0507  -34.8395 H   0  0  0  0  0  0  0  0  0  0  0  0
   -4.7216   19.2730  -34.4883 H   0  0  0  0  0  0  0  0  0  0  0  0
   -4.5802   20.3665  -32.2753 H   0  0  0  0  0  0  0  0  0  0  0  0
  1  2  1  0
  2  3  1  0
  2  4  1  0
  4  5  2  0
  4  6  1  0
  6  7  1  0
  7  8  1  0
  8  9  1  0
  8 10  2  0
  7 11  2  0
 11 12  1  0
 12 13  2  0
 13 14  1  0
 14 15  2  0
 15 16  1  0
 16 17  2  0
 17 18  1  0
 18 19  2  0
 19 20  1  0
 20 21  1  0
 20 22  2  0
 15 23  1  0
 23 24  2  0
 24  6  1  0
 24 12  1  0
 22 16  1  0
  1 25  1  0
  1 26  1  0
  1 27  1  0
  3 28  1  0
  3 29  1  0
  3 30  1  0
  9 31  1  0
  9 32  1  0
 11 33  1  0
 13 34  1  0
 14 35  1  0
 17 36  1  0
 18 37  1  0
 19 38  1  0
 22 39  1  0
 23 40  1  0
M  END
>  <UniqueID>  (36) 
36

>  <SMILES>  (36) 
CN(C)C(=O)n1c(C(N)=O)cc2ccc(-c3cccc(F)c3)cc21

>  <Energy>  (36) 
84.27021457768193

>  <Genealogy>  (36) 
CN(C)C(=O)n1c(C(N)=O)cc2ccc(-c3cccc(F)c3)cc21 (3D coordinates assigned)
CN(C)C(=O)n1c(C(N)=O)cc2ccc(-c3cccc(F)c3)cc21 (optimized conformer: 84.27021457768193 kcal/mol)

>  <smiles>  (36) 
CN(C)C(=O)n1c(C(N)=O)cc2ccc(-c3cccc(F)c3)cc21

>  <score_type>  (36) 
oracle

>  <origin>  (36) 
adg

>  <m_score__min__energy>  (36) 
-9.4800000000000004

>  <m_primary>  (36) 
energy

$$$$
36:0
     RDKit          3D

 36 37  0  0  0  0  0  0  0  0999 V2000
   -7.4630   17.5150  -32.4960 C   0  0  0  0  0  0  0  0  0  0  0  0
   -6.1120   17.3250  -31.8150 C   0  0  0  0  0  0  0  0  0  0  0  0
   -5.0650   17.8590  -32.6230 O   0  0  0  0  0  0  0  0  0  0  0  0
   -5.2880   18.7250  -33.6990 C   0  0  0  0  0  0  0  0  0  0  0  0
   -5.4570   18.2690  -34.8650 O   0  0  0  0  0  0  0  0  0  0  0  0
   -5.3820   20.2040  -33.4360 C   0  0  1  0  0  0  0  0  0  0  0  0
   -6.6900   20.5840  -32.7300 C   0  0  0  0  0  0  0  0  0  0  0  0
   -4.1780   20.6770  -32.6490 C   0  0  0  0  0  0  0  0  0  0  0  0
   -2.9850   19.9030  -32.6120 C   0  0  0  0  0  0  0  0  0  0  0  0
   -1.8720   20.3350  -31.8730 C   0  0  0  0  0  0  0  0  0  0  0  0
   -1.9720   21.5400  -31.1860 C   0  0  0  0  0  0  0  0  0  0  0  0
   -1.0580   22.1750  -30.3770 C   0  0  0  0  0  0  0  0  0  0  0  0
   -1.6910   23.3380  -29.9460 C   0  0  0  0  0  0  0  0  0  0  0  0
   -1.0250   24.3640  -29.1150 C   0  0  0  0  0  0  0  0  0  0  0  0
   -1.5580   25.6820  -29.0090 N   0  0  0  0  0  0  0  0  0  0  0  0
    0.0560   24.0870  -28.5310 O   0  0  0  0  0  0  0  0  0  0  0  0
   -2.9510   23.4170  -30.4620 N   0  0  0  0  0  0  0  0  0  0  0  0
   -3.9530   24.4120  -30.1950 C   0  0  0  0  0  0  0  0  0  0  0  0
   -4.9250   24.1490  -29.4400 O   0  0  0  0  0  0  0  0  0  0  0  0
   -3.8730   25.6650  -30.7900 O   0  0  0  0  0  0  0  0  0  0  0  0
   -3.1060   22.3090  -31.2220 C   0  0  0  0  0  0  0  0  0  0  0  0
   -4.2370   21.8950  -31.9340 C   0  0  0  0  0  0  0  0  0  0  0  0
   -8.2465   17.6252  -31.7318 H   0  0  0  0  0  0  0  0  0  0  0  0
   -7.4335   18.4178  -33.1237 H   0  0  0  0  0  0  0  0  0  0  0  0
   -7.6836   16.6390  -33.1237 H   0  0  0  0  0  0  0  0  0  0  0  0
   -6.1200   17.8427  -30.8445 H   0  0  0  0  0  0  0  0  0  0  0  0
   -5.9354   16.2490  -31.6698 H   0  0  0  0  0  0  0  0  0  0  0  0
   -5.3881   20.7151  -34.4100 H   0  0  0  0  0  0  0  0  0  0  0  0
   -6.5443   20.5417  -31.6405 H   0  0  0  0  0  0  0  0  0  0  0  0
   -6.9812   21.6039  -33.0216 H   0  0  0  0  0  0  0  0  0  0  0  0
   -7.4823   19.8789  -33.0216 H   0  0  0  0  0  0  0  0  0  0  0  0
   -2.9339   18.9555  -33.1685 H   0  0  0  0  0  0  0  0  0  0  0  0
   -0.9486   19.7382  -31.8385 H   0  0  0  0  0  0  0  0  0  0  0  0
   -0.0426   21.8359  -30.1243 H   0  0  0  0  0  0  0  0  0  0  0  0
   -2.5890   25.8440  -28.9960 H   0  0  0  0  0  0  0  0  0  0  0  0
   -5.1528   22.5044  -31.9373 H   0  0  0  0  0  0  0  0  0  0  0  0
  1  2  1  0
  2  3  1  0
  3  4  1  0
  4  5  2  0
  4  6  1  0
  6  7  1  0
  6  8  1  0
  8  9  2  0
  9 10  1  0
 10 11  2  0
 11 12  1  0
 12 13  2  0
 13 14  1  0
 14 15  1  0
 14 16  2  0
 13 17  1  0
 17 18  1  0
 18 19  2  0
 18 20  1  0
 17 21  1  0
 21 22  2  0
 22  8  1  0
 21 11  1  0
  1 23  1  0
  1 24  1  0
  1 25  1  0
  2 26  1  0
  2 27  1  0
  6 28  1  6
  7 29  1  0
  7 30  1  0
  7 31  1  0
  9 32  1  0
 10 33  1  0
 12 34  1  0
 15 35  1  0
 22 36  1  0
M  CHG  2  15  -1  20  -1
M  END
>  <UniqueID>  (37) 
37

>  <SMILES>  (37) 
CCOC(=O)[C@@H](C)c1ccc2cc(C([NH-])=O)n(C(=O)[O-])c2c1

>  <Energy>  (37) 
70.17973735188637

>  <Genealogy>  (37) 
CCOC(=O)C(C)c1ccc2cc(C([NH-])=O)n(C(=O)[O-])c2c1 (protonated)
CCOC(=O)[C@@H](C)c1ccc2cc(C([NH-])=O)n(C(=O)[O-])c2c1 (chirality)
CCOC(=O)[C@@H](C)c1ccc2cc(C([NH-])=O)n(C(=O)[O-])c2c1 (3D coordinates assigned)
CCOC(=O)[C@@H](C)c1ccc2cc(C([NH-])=O)n(C(=O)[O-])c2c1 (optimized conformer: 70.17973735188637 kcal/mol)

>  <smiles>  (37) 
CCOC(=O)C(C)c1ccc2cc(C(N)=O)n(C(=O)O)c2c1

>  <score_type>  (37) 
oracle

>  <origin>  (37) 
adg

>  <m_score__min__energy>  (37) 
-10.91

>  <m_primary>  (37) 
energy

$$$$
37:0
     RDKit          3D

 37 39  0  0  0  0  0  0  0  0999 V2000
   -3.4640   22.1410  -30.1350 C   0  0  0  0  0  0  0  0  0  0  0  0
   -4.2370   22.4290  -31.3830 C   0  0  0  0  0  0  0  0  0  0  0  0
   -3.6740   22.2940  -32.5020 O   0  0  0  0  0  0  0  0  0  0  0  0
   -5.6040   22.8670  -31.3190 N   0  0  0  0  0  0  0  0  0  0  0  0
   -6.0770   24.0470  -30.8280 C   0  0  0  0  0  0  0  0  0  0  0  0
   -5.2560   25.1880  -30.3700 C   0  0  0  0  0  0  0  0  0  0  0  0
   -3.8690   25.2700  -30.6860 N   0  0  0  0  0  0  0  0  0  0  0  0
   -5.7940   26.1220  -29.7170 O   0  0  0  0  0  0  0  0  0  0  0  0
   -7.4700   24.0660  -30.8600 C   0  0  0  0  0  0  0  0  0  0  0  0
   -7.8390   22.8510  -31.3910 C   0  0  0  0  0  0  0  0  0  0  0  0
   -9.1060   22.3220  -31.6200 C   0  0  0  0  0  0  0  0  0  0  0  0
   -9.1920   21.0170  -32.1340 C   0  0  0  0  0  0  0  0  0  0  0  0
   -8.0190   20.2690  -32.4090 C   0  0  0  0  0  0  0  0  0  0  0  0
   -8.1210   18.9130  -32.8860 N   0  0  0  0  0  0  0  0  0  0  0  0
   -6.8050   18.3650  -33.0450 C   0  0  0  0  0  0  0  0  0  0  0  0
   -6.1430   17.5330  -32.1620 C   0  0  0  0  0  0  0  0  0  0  0  0
   -4.9880   17.1320  -32.7310 N   0  0  0  0  0  0  0  0  0  0  0  0
   -4.9130   17.6910  -33.9310 N   0  0  0  0  0  0  0  0  0  0  0  0
   -3.8420   17.4330  -34.8820 C   0  0  0  0  0  0  0  0  0  0  0  0
   -6.0120   18.4320  -34.1700 C   0  0  0  0  0  0  0  0  0  0  0  0
   -6.7500   20.8380  -32.1530 C   0  0  0  0  0  0  0  0  0  0  0  0
   -6.6950   22.1450  -31.6580 C   0  0  0  0  0  0  0  0  0  0  0  0
   -4.0853   22.3725  -29.2573 H   0  0  0  0  0  0  0  0  0  0  0  0
   -3.1827   21.0778  -30.1150 H   0  0  0  0  0  0  0  0  0  0  0  0
   -2.5556   22.7610  -30.1150 H   0  0  0  0  0  0  0  0  0  0  0  0
   -3.4930   26.0580  -31.2580 H   0  0  0  0  0  0  0  0  0  0  0  0
   -8.1336   24.8792  -30.5308 H   0  0  0  0  0  0  0  0  0  0  0  0
  -10.0121   22.9075  -31.4052 H   0  0  0  0  0  0  0  0  0  0  0  0
  -10.1793   20.5711  -32.3250 H   0  0  0  0  0  0  0  0  0  0  0  0
   -8.6640   18.3270  -32.2100 H   0  0  0  0  0  0  0  0  0  0  0  0
   -8.6220   18.8890  -33.8050 H   0  0  0  0  0  0  0  0  0  0  0  0
   -6.4990   17.2457  -31.1616 H   0  0  0  0  0  0  0  0  0  0  0  0
   -2.9133   17.2093  -34.3366 H   0  0  0  0  0  0  0  0  0  0  0  0
   -4.1119   16.5742  -35.5141 H   0  0  0  0  0  0  0  0  0  0  0  0
   -3.6912   18.3205  -35.5141 H   0  0  0  0  0  0  0  0  0  0  0  0
   -6.2353   18.9879  -35.0926 H   0  0  0  0  0  0  0  0  0  0  0  0
   -5.8286   20.2666  -32.3386 H   0  0  0  0  0  0  0  0  0  0  0  0
  1  2  1  0
  2  3  2  0
  2  4  1  0
  4  5  1  0
  5  6  1  0
  6  7  1  0
  6  8  2  0
  5  9  2  0
  9 10  1  0
 10 11  2  0
 11 12  1  0
 12 13  2  0
 13 14  1  0
 14 15  1  0
 15 16  1  0
 16 17  2  0
 17 18  1  0
 18 19  1  0
 18 20  1  0
 13 21  1  0
 21 22  2  0
 22  4  1  0
 22 10  1  0
 20 15  2  0
  1 23  1  0
  1 24  1  0
  1 25  1  0
  7 26  1  0
  9 27  1  0
 11 28  1  0
 12 29  1  0
 14 30  1  0
 14 31  1  0
 16 32  1  0
 19 33  1  0
 19 34  1  0
 19 35  1  0
 20 36  1  0
 21 37  1  0
M  CHG  2   7  -1  14   1
M  END
>  <UniqueID>  (38) 
38

>  <SMILES>  (38) 
CC(=O)n1c(C([NH-])=O)cc2ccc([NH2+]c3cnn(C)c3)cc21

>  <Energy>  (38) 
108.66332634574674

>  <Genealogy>  (38) 
CC(=O)n1c(C([NH-])=O)cc2ccc([NH2+]c3cnn(C)c3)cc21 (protonated)
CC(=O)n1c(C([NH-])=O)cc2ccc([NH2+]c3cnn(C)c3)cc21 (3D coordinates assigned)
CC(=O)n1c(C([NH-])=O)cc2ccc([NH2+]c3cnn(C)c3)cc21 (optimized conformer: 108.66332634574674 kcal/mol)

>  <smiles>  (38) 
CC(=O)n1c(C(N)=O)cc2ccc(Nc3cnn(C)c3)cc21

>  <score_type>  (38) 
oracle

>  <origin>  (38) 
adg

>  <m_score__min__energy>  (38) 
-10.369999999999999

>  <m_primary>  (38) 
energy

$$$$
38:0
     RDKit          3D

 62 64  0  0  0  0  0  0  0  0999 V2000
   -2.1120   20.7770  -33.7640 C   0  0  0  0  0  0  0  0  0  0  0  0
   -2.8150   20.3280  -32.4840 C   0  0  0  0  0  0  0  0  0  0  0  0
   -3.6230   19.0400  -32.7160 C   0  0  0  0  0  0  0  0  0  0  0  0
   -4.2030   18.9830  -34.0790 N   0  0  0  0  0  0  0  0  0  0  0  0
   -3.6990   17.8310  -34.8730 C   0  0  0  0  0  0  0  0  0  0  0  0
   -4.7070   16.6730  -35.0210 C   0  0  0  0  0  0  0  0  0  0  0  0
   -5.6320   16.5830  -33.8100 C   0  0  0  0  0  0  0  0  0  0  0  0
   -6.4600   17.8770  -33.6620 C   0  0  1  0  0  0  0  0  0  0  0  0
   -7.0190   18.0560  -32.2310 C   0  0  0  0  0  0  0  0  0  0  0  0
   -7.2550   19.5090  -31.8990 C   0  0  0  0  0  0  0  0  0  0  0  0
   -8.5470   20.0720  -32.0440 C   0  0  0  0  0  0  0  0  0  0  0  0
   -8.7650   21.4340  -31.7890 C   0  0  0  0  0  0  0  0  0  0  0  0
   -7.6760   22.2060  -31.3930 C   0  0  0  0  0  0  0  0  0  0  0  0
   -7.6120   23.5490  -31.1150 C   0  0  0  0  0  0  0  0  0  0  0  0
   -6.2800   23.7950  -30.8070 C   0  0  0  0  0  0  0  0  0  0  0  0
   -5.7770   25.1380  -30.4780 C   0  0  0  0  0  0  0  0  0  0  0  0
   -6.1970   25.8010  -29.2860 N   0  0  0  0  0  0  0  0  0  0  0  0
   -4.9030   25.6720  -31.2130 O   0  0  0  0  0  0  0  0  0  0  0  0
   -5.5410   22.6490  -30.8610 N   0  0  0  0  0  0  0  0  0  0  0  0
   -4.1590   22.4840  -30.4700 C   0  0  0  0  0  0  0  0  0  0  0  0
   -3.2640   23.1960  -30.9980 O   0  0  0  0  0  0  0  0  0  0  0  0
   -3.8100   21.5060  -29.5280 O   0  0  0  0  0  0  0  0  0  0  0  0
   -2.8980   21.6570  -28.4300 C   0  0  0  0  0  0  0  0  0  0  0  0
   -1.4470   21.7310  -28.9400 C   0  0  0  0  0  0  0  0  0  0  0  0
   -3.0510   20.4130  -27.5400 C   0  0  0  0  0  0  0  0  0  0  0  0
   -3.2480   22.9060  -27.5970 C   0  0  0  0  0  0  0  0  0  0  0  0
   -6.4160   21.6820  -31.2380 C   0  0  0  0  0  0  0  0  0  0  0  0
   -6.1730   20.3240  -31.4980 C   0  0  0  0  0  0  0  0  0  0  0  0
   -5.6760   19.1320  -34.1430 C   0  0  0  0  0  0  0  0  0  0  0  0
   -1.2110   21.3524  -33.5050 H   0  0  0  0  0  0  0  0  0  0  0  0
   -1.8260   19.8940  -34.3543 H   0  0  0  0  0  0  0  0  0  0  0  0
   -2.7929   21.4078  -34.3543 H   0  0  0  0  0  0  0  0  0  0  0  0
   -2.0598   20.1426  -31.7059 H   0  0  0  0  0  0  0  0  0  0  0  0
   -3.5082   21.1224  -32.1702 H   0  0  0  0  0  0  0  0  0  0  0  0
   -2.9584   18.1746  -32.5769 H   0  0  0  0  0  0  0  0  0  0  0  0
   -4.4529   19.0263  -31.9941 H   0  0  0  0  0  0  0  0  0  0  0  0
   -3.4399   18.1929  -35.8789 H   0  0  0  0  0  0  0  0  0  0  0  0
   -2.8331   17.4273  -34.3278 H   0  0  0  0  0  0  0  0  0  0  0  0
   -5.3136   16.8394  -35.9234 H   0  0  0  0  0  0  0  0  0  0  0  0
   -4.1441   15.7311  -35.0980 H   0  0  0  0  0  0  0  0  0  0  0  0
   -6.3143   15.7299  -33.9388 H   0  0  0  0  0  0  0  0  0  0  0  0
   -5.0205   16.4477  -32.9057 H   0  0  0  0  0  0  0  0  0  0  0  0
   -7.3290   17.7697  -34.3278 H   0  0  0  0  0  0  0  0  0  0  0  0
   -7.9723   17.5131  -32.1507 H   0  0  0  0  0  0  0  0  0  0  0  0
   -6.2771   17.6595  -31.5222 H   0  0  0  0  0  0  0  0  0  0  0  0
   -9.3867   19.4353  -32.3594 H   0  0  0  0  0  0  0  0  0  0  0  0
   -9.7653   21.8784  -31.8985 H   0  0  0  0  0  0  0  0  0  0  0  0
   -8.4385   24.2747  -31.1324 H   0  0  0  0  0  0  0  0  0  0  0  0
   -5.8420   26.7550  -29.0600 H   0  0  0  0  0  0  0  0  0  0  0  0
   -6.8360   25.3280  -28.6100 H   0  0  0  0  0  0  0  0  0  0  0  0
   -0.7584   21.7661  -28.0829 H   0  0  0  0  0  0  0  0  0  0  0  0
   -1.2273   20.8429  -29.5507 H   0  0  0  0  0  0  0  0  0  0  0  0
   -1.3187   22.6369  -29.5507 H   0  0  0  0  0  0  0  0  0  0  0  0
   -3.0142   20.7122  -26.4821 H   0  0  0  0  0  0  0  0  0  0  0  0
   -4.0156   19.9279  -27.7505 H   0  0  0  0  0  0  0  0  0  0  0  0
   -2.2327   19.7087  -27.7505 H   0  0  0  0  0  0  0  0  0  0  0  0
   -3.1800   22.6635  -26.5262 H   0  0  0  0  0  0  0  0  0  0  0  0
   -2.5420   23.7152  -27.8352 H   0  0  0  0  0  0  0  0  0  0  0  0
   -4.2717   23.2305  -27.8352 H   0  0  0  0  0  0  0  0  0  0  0  0
   -5.1620   19.9037  -31.3918 H   0  0  0  0  0  0  0  0  0  0  0  0
   -5.9580   19.3373  -35.1862 H   0  0  0  0  0  0  0  0  0  0  0  0
   -5.9428   19.9542  -33.4628 H   0  0  0  0  0  0  0  0  0  0  0  0
  1  2  1  0
  2  3  1  0
  3  4  1  0
  4  5  1  0
  5  6  1  0
  6  7  1  0
  7  8  1  0
  8  9  1  0
  9 10  1  0
 10 11  2  0
 11 12  1  0
 12 13  2  0
 13 14  1  0
 14 15  2  0
 15 16  1  0
 16 17  1  0
 16 18  2  0
 15 19  1  0
 19 20  1  0
 20 21  2  0
 20 22  1  0
 22 23  1  0
 23 24  1  0
 23 25  1  0
 23 26  1  0
 19 27  1  0
 27 28  2  0
  8 29  1  0
 29  4  1  0
 28 10  1  0
 27 13  1  0
  1 30  1  0
  1 31  1  0
  1 32  1  0
  2 33  1  0
  2 34  1  0
  3 35  1  0
  3 36  1  0
  5 37  1  0
  5 38  1  0
  6 39  1  0
  6 40  1  0
  7 41  1  0
  7 42  1  0
  8 43  1  6
  9 44  1  0
  9 45  1  0
 11 46  1  0
 12 47  1  0
 14 48  1  0
 17 49  1  0
 17 50  1  0
 24 51  1  0
 24 52  1  0
 24 53  1  0
 25 54  1  0
 25 55  1  0
 25 56  1  0
 26 57  1  0
 26 58  1  0
 26 59  1  0
 28 60  1  0
 29 61  1  0
 29 62  1  0
M  END
>  <UniqueID>  (39) 
39

>  <SMILES>  (39) 
CCCN1CCC[C@@H](Cc2ccc3cc(C(N)=O)n(C(=O)OC(C)(C)C)c3c2)C1

>  <Energy>  (39) 
104.80876524632896

>  <Genealogy>  (39) 
CCCN1CCC[C@@H](Cc2ccc3cc(C(N)=O)n(C(=O)OC(C)(C)C)c3c2)C1 (3D coordinates assigned)
CCCN1CCC[C@@H](Cc2ccc3cc(C(N)=O)n(C(=O)OC(C)(C)C)c3c2)C1 (nonaromatic ring conformer: 104.80876524632896 kcal/mol)

>  <smiles>  (39) 
CCCN1CCC[C@@H](Cc2ccc3cc(C(N)=O)n(C(=O)OC(C)(C)C)c3c2)C1

>  <score_type>  (39) 
oracle

>  <origin>  (39) 
adg

>  <m_score__min__energy>  (39) 
-10.06

>  <m_primary>  (39) 
energy

$$$$
39:0
     RDKit          3D

 40 42  0  0  0  0  0  0  0  0999 V2000
   -3.8700   14.5830  -35.2910 C   0  0  0  0  0  0  0  0  0  0  0  0
   -5.1560   14.7250  -34.6030 N   0  0  0  0  0  0  0  0  0  0  0  0
   -6.0750   13.6160  -34.5910 C   0  0  0  0  0  0  0  0  0  0  0  0
   -5.7640   12.5300  -34.0340 O   0  0  0  0  0  0  0  0  0  0  0  0
   -7.3300   13.7380  -35.1770 O   0  0  0  0  0  0  0  0  0  0  0  0
   -5.5460   16.0090  -34.0750 C   0  0  0  0  0  0  0  0  0  0  0  0
   -4.6410   17.0820  -34.0720 C   0  0  0  0  0  0  0  0  0  0  0  0
   -5.0170   18.3240  -33.5530 C   0  0  0  0  0  0  0  0  0  0  0  0
   -6.3040   18.5160  -33.0210 C   0  0  0  0  0  0  0  0  0  0  0  0
   -6.7040   19.8350  -32.4690 C   0  0  0  0  0  0  0  0  0  0  0  0
   -8.0770   20.1520  -32.2950 C   0  0  0  0  0  0  0  0  0  0  0  0
   -8.4670   21.3920  -31.7620 C   0  0  0  0  0  0  0  0  0  0  0  0
   -7.4700   22.3000  -31.4220 C   0  0  0  0  0  0  0  0  0  0  0  0
   -7.5690   23.5510  -30.8610 C   0  0  0  0  0  0  0  0  0  0  0  0
   -6.2580   24.0000  -30.7290 C   0  0  0  0  0  0  0  0  0  0  0  0
   -5.9080   25.3430  -30.2270 C   0  0  0  0  0  0  0  0  0  0  0  0
   -6.4390   25.8340  -28.9950 N   0  0  0  0  0  0  0  0  0  0  0  0
   -5.0830   26.0470  -30.8670 O   0  0  0  0  0  0  0  0  0  0  0  0
   -5.3790   23.0580  -31.1750 N   0  0  0  0  0  0  0  0  0  0  0  0
   -3.9440   23.0940  -31.0920 C   0  0  0  0  0  0  0  0  0  0  0  0
   -3.2880   24.1820  -30.4470 N   0  0  0  0  0  0  0  0  0  0  0  0
   -3.2570   22.1570  -31.5790 O   0  0  0  0  0  0  0  0  0  0  0  0
   -6.1390   22.0230  -31.6000 C   0  0  0  0  0  0  0  0  0  0  0  0
   -5.7200   20.7870  -32.1090 C   0  0  0  0  0  0  0  0  0  0  0  0
   -7.2060   17.4380  -33.0190 C   0  0  0  0  0  0  0  0  0  0  0  0
   -6.8300   16.1960  -33.5400 C   0  0  0  0  0  0  0  0  0  0  0  0
   -3.0642   14.4940  -34.5475 H   0  0  0  0  0  0  0  0  0  0  0  0
   -3.8888   13.6815  -35.9210 H   0  0  0  0  0  0  0  0  0  0  0  0
   -3.6916   15.4669  -35.9210 H   0  0  0  0  0  0  0  0  0  0  0  0
   -3.6291   16.9444  -34.4809 H   0  0  0  0  0  0  0  0  0  0  0  0
   -4.3000   19.1582  -33.5609 H   0  0  0  0  0  0  0  0  0  0  0  0
   -8.8446   19.4179  -32.5810 H   0  0  0  0  0  0  0  0  0  0  0  0
   -9.5295   21.6374  -31.6179 H   0  0  0  0  0  0  0  0  0  0  0  0
   -8.4884   24.0838  -30.5769 H   0  0  0  0  0  0  0  0  0  0  0  0
   -6.9920   25.2150  -28.3620 H   0  0  0  0  0  0  0  0  0  0  0  0
   -6.2090   26.8000  -28.6730 H   0  0  0  0  0  0  0  0  0  0  0  0
   -3.1530   25.0940  -30.9380 H   0  0  0  0  0  0  0  0  0  0  0  0
   -4.6499   20.5611  -32.2264 H   0  0  0  0  0  0  0  0  0  0  0  0
   -8.2159   17.5725  -32.6042 H   0  0  0  0  0  0  0  0  0  0  0  0
   -7.5451   15.3602  -33.5305 H   0  0  0  0  0  0  0  0  0  0  0  0
  1  2  1  0
  2  3  1  0
  3  4  2  0
  3  5  1  0
  2  6  1  0
  6  7  2  0
  7  8  1  0
  8  9  2  0
  9 10  1  0
 10 11  2  0
 11 12  1  0
 12 13  2  0
 13 14  1  0
 14 15  2  0
 15 16  1  0
 16 17  1  0
 16 18  2  0
 15 19  1  0
 19 20  1  0
 20 21  1  0
 20 22  2  0
 19 23  1  0
 23 24  2  0
  9 25  1  0
 25 26  2  0
 26  6  1  0
 24 10  1  0
 23 13  1  0
  1 27  1  0
  1 28  1  0
  1 29  1  0
  7 30  1  0
  8 31  1  0
 11 32  1  0
 12 33  1  0
 14 34  1  0
 17 35  1  0
 17 36  1  0
 21 37  1  0
 24 38  1  0
 25 39  1  0
 26 40  1  0
M  CHG  2   5  -1  21  -1
M  END
>  <UniqueID>  (40) 
40

>  <SMILES>  (40) 
CN(C(=O)[O-])c1ccc(-c2ccc3cc(C(N)=O)n(C([NH-])=O)c3c2)cc1

>  <Energy>  (40) 
92.2386144278688

>  <Genealogy>  (40) 
CN(C(=O)[O-])c1ccc(-c2ccc3cc(C(N)=O)n(C([NH-])=O)c3c2)cc1 (protonated)
CN(C(=O)[O-])c1ccc(-c2ccc3cc(C(N)=O)n(C([NH-])=O)c3c2)cc1 (3D coordinates assigned)
CN(C(=O)[O-])c1ccc(-c2ccc3cc(C(N)=O)n(C([NH-])=O)c3c2)cc1 (optimized conformer: 92.2386144278688 kcal/mol)

>  <smiles>  (40) 
CN(C(=O)O)c1ccc(-c2ccc3cc(C(N)=O)n(C(N)=O)c3c2)cc1

>  <score_type>  (40) 
oracle

>  <origin>  (40) 
adg

>  <m_score__min__energy>  (40) 
-9.7300000000000004

>  <m_primary>  (40) 
energy

$$$$
40:0
     RDKit          3D

 27 28  0  0  0  0  0  0  0  0999 V2000
   -4.3810   17.8160  -34.3010 N   0  0  0  0  0  0  0  0  0  0  0  0
   -5.3730   18.8430  -34.3430 C   0  0  0  0  0  0  0  0  0  0  0  0
   -6.1400   18.9200  -35.3410 O   0  0  0  0  0  0  0  0  0  0  0  0
   -5.4730   19.8550  -33.2730 C   0  0  0  0  0  0  0  0  0  0  0  0
   -6.6800   20.3920  -32.8390 C   0  0  0  0  0  0  0  0  0  0  0  0
   -6.3410   21.3340  -31.8970 C   0  0  0  0  0  0  0  0  0  0  0  0
   -7.1540   22.1680  -31.1340 C   0  0  0  0  0  0  0  0  0  0  0  0
   -6.5360   23.0250  -30.2100 C   0  0  0  0  0  0  0  0  0  0  0  0
   -5.1270   23.0210  -30.0520 C   0  0  0  0  0  0  0  0  0  0  0  0
   -4.4760   23.9570  -29.0730 C   0  0  0  0  0  0  0  0  0  0  0  0
   -3.5960   24.9250  -29.7950 C   0  0  0  0  0  0  0  0  0  0  0  0
   -3.9970   25.4810  -30.8520 O   0  0  0  0  0  0  0  0  0  0  0  0
   -2.3500   25.2540  -29.2760 O   0  0  0  0  0  0  0  0  0  0  0  0
   -4.3330   22.1680  -30.8500 C   0  0  0  0  0  0  0  0  0  0  0  0
   -4.9730   21.3380  -31.7790 C   0  0  0  0  0  0  0  0  0  0  0  0
   -4.4240   20.4300  -32.6180 N   0  0  0  0  0  0  0  0  0  0  0  0
   -3.0370   20.0590  -32.7010 C   0  0  0  0  0  0  0  0  0  0  0  0
   -2.6740   18.8820  -32.4410 O   0  0  0  0  0  0  0  0  0  0  0  0
   -2.0820   20.9960  -33.0770 O   0  0  0  0  0  0  0  0  0  0  0  0
   -3.6290   17.8230  -33.5780 H   0  0  0  0  0  0  0  0  0  0  0  0
   -4.3490   17.0880  -35.0490 H   0  0  0  0  0  0  0  0  0  0  0  0
   -7.6909   20.1208  -33.1774 H   0  0  0  0  0  0  0  0  0  0  0  0
   -8.2476   22.1556  -31.2518 H   0  0  0  0  0  0  0  0  0  0  0  0
   -7.1505   23.7060  -29.6029 H   0  0  0  0  0  0  0  0  0  0  0  0
   -5.2539   24.5103  -28.5264 H   0  0  0  0  0  0  0  0  0  0  0  0
   -3.8663   23.3731  -28.3678 H   0  0  0  0  0  0  0  0  0  0  0  0
   -3.2381   22.1558  -30.7444 H   0  0  0  0  0  0  0  0  0  0  0  0
  1  2  1  0
  2  3  2  0
  2  4  1  0
  4  5  2  0
  5  6  1  0
  6  7  2  0
  7  8  1  0
  8  9  2  0
  9 10  1  0
 10 11  1  0
 11 12  2  0
 11 13  1  0
  9 14  1  0
 14 15  2  0
 15 16  1  0
 16 17  1  0
 17 18  2  0
 17 19  1  0
 16  4  1  0
 15  6  1  0
  1 20  1  0
  1 21  1  0
  5 22  1  0
  7 23  1  0
  8 24  1  0
 10 25  1  0
 10 26  1  0
 14 27  1  0
M  CHG  2  13  -1  19  -1
M  END
>  <UniqueID>  (41) 
41

>  <SMILES>  (41) 
NC(=O)c1cc2ccc(CC(=O)[O-])cc2n1C(=O)[O-]

>  <Energy>  (41) 
65.92413226663152

>  <Genealogy>  (41) 
NC(=O)c1cc2ccc(CC(=O)[O-])cc2n1C(=O)[O-] (protonated)
NC(=O)c1cc2ccc(CC(=O)[O-])cc2n1C(=O)[O-] (3D coordinates assigned)
NC(=O)c1cc2ccc(CC(=O)[O-])cc2n1C(=O)[O-] (optimized conformer: 65.92413226663152 kcal/mol)

>  <smiles>  (41) 
NC(=O)c1cc2ccc(CC(=O)O)cc2n1C(=O)O

>  <score_type>  (41) 
oracle

>  <origin>  (41) 
adg

>  <m_score__min__energy>  (41) 
-8.75

>  <m_primary>  (41) 
energy

$$$$
41:0
     RDKit          3D

 48 50  0  0  0  0  0  0  0  0999 V2000
   -2.8500   19.5720  -32.3650 C   0  0  0  0  0  0  0  0  0  0  0  0
   -3.5250   18.9380  -33.5410 C   0  0  0  0  0  0  0  0  0  0  0  0
   -2.8630   18.7450  -34.5960 O   0  0  0  0  0  0  0  0  0  0  0  0
   -4.9160   18.5800  -33.4930 N   0  0  0  0  0  0  0  0  0  0  0  0
   -5.4940   17.4020  -33.8630 C   0  0  0  0  0  0  0  0  0  0  0  0
   -4.8230   16.2940  -34.5720 C   0  0  0  0  0  0  0  0  0  0  0  0
   -3.9380   16.5430  -35.6640 N   0  0  0  0  0  0  0  0  0  0  0  0
   -5.0750   15.1050  -34.2410 O   0  0  0  0  0  0  0  0  0  0  0  0
   -6.8490   17.3950  -33.5380 C   0  0  0  0  0  0  0  0  0  0  0  0
   -7.0910   18.6240  -32.9660 C   0  0  0  0  0  0  0  0  0  0  0  0
   -8.2700   19.1550  -32.4480 C   0  0  0  0  0  0  0  0  0  0  0  0
   -8.2210   20.4450  -31.8920 C   0  0  0  0  0  0  0  0  0  0  0  0
   -7.0040   21.1650  -31.8590 C   0  0  0  0  0  0  0  0  0  0  0  0
   -6.9660   22.4830  -31.2830 C   0  0  0  0  0  0  0  0  0  0  0  0
   -6.9360   23.5870  -30.8000 C   0  0  0  0  0  0  0  0  0  0  0  0
   -6.8940   24.9300  -30.2080 C   0  0  0  0  0  0  0  0  0  0  0  0
   -5.6880   25.0890  -29.2730 C   0  0  0  0  0  0  0  0  0  0  0  0
   -4.3750   24.6560  -29.8890 C   0  0  0  0  0  0  0  0  0  0  0  0
   -3.8850   25.3270  -30.8430 O   0  0  0  0  0  0  0  0  0  0  0  0
   -3.6590   23.5070  -29.3860 N   0  0  0  0  0  0  0  0  0  0  0  0
   -2.5090   22.9960  -30.1430 C   0  0  0  0  0  0  0  0  0  0  0  0
   -2.2680   21.5220  -29.8100 C   0  0  0  0  0  0  0  0  0  0  0  0
   -2.1820   21.3290  -28.4130 O   0  0  0  0  0  0  0  0  0  0  0  0
   -3.4270   21.6260  -27.8150 C   0  0  0  0  0  0  0  0  0  0  0  0
   -3.7720   23.1100  -27.9750 C   0  0  0  0  0  0  0  0  0  0  0  0
   -5.8270   20.5980  -32.3890 C   0  0  0  0  0  0  0  0  0  0  0  0
   -5.9080   19.3200  -32.9520 C   0  0  0  0  0  0  0  0  0  0  0  0
   -3.2786   19.1695  -31.4353 H   0  0  0  0  0  0  0  0  0  0  0  0
   -1.7728   19.3516  -32.3977 H   0  0  0  0  0  0  0  0  0  0  0  0
   -3.0026   20.6609  -32.3977 H   0  0  0  0  0  0  0  0  0  0  0  0
   -3.4340   15.7500  -36.1210 H   0  0  0  0  0  0  0  0  0  0  0  0
   -3.8360   17.4980  -36.0690 H   0  0  0  0  0  0  0  0  0  0  0  0
   -7.5709   16.5816  -33.7031 H   0  0  0  0  0  0  0  0  0  0  0  0
   -9.2093   18.5831  -32.4733 H   0  0  0  0  0  0  0  0  0  0  0  0
   -9.1350   20.8975  -31.4799 H   0  0  0  0  0  0  0  0  0  0  0  0
   -6.8232   25.6750  -31.0142 H   0  0  0  0  0  0  0  0  0  0  0  0
   -7.8116   25.0793  -29.6200 H   0  0  0  0  0  0  0  0  0  0  0  0
   -5.6056   26.1490  -28.9907 H   0  0  0  0  0  0  0  0  0  0  0  0
   -5.8662   24.4348  -28.4068 H   0  0  0  0  0  0  0  0  0  0  0  0
   -2.7094   23.0969  -31.2199 H   0  0  0  0  0  0  0  0  0  0  0  0
   -1.6147   23.5757  -29.8707 H   0  0  0  0  0  0  0  0  0  0  0  0
   -3.1008   20.9223  -30.2060 H   0  0  0  0  0  0  0  0  0  0  0  0
   -1.3180   21.2088  -30.2675 H   0  0  0  0  0  0  0  0  0  0  0  0
   -4.2102   21.0207  -28.2948 H   0  0  0  0  0  0  0  0  0  0  0  0
   -3.3647   21.3941  -26.7415 H   0  0  0  0  0  0  0  0  0  0  0  0
   -4.8021   23.2831  -27.6300 H   0  0  0  0  0  0  0  0  0  0  0  0
   -3.0703   23.7088  -27.3758 H   0  0  0  0  0  0  0  0  0  0  0  0
   -4.8728   21.1446  -32.3606 H   0  0  0  0  0  0  0  0  0  0  0  0
  1  2  1  0
  2  3  2  0
  2  4  1  0
  4  5  1  0
  5  6  1  0
  6  7  1  0
  6  8  2  0
  5  9  2  0
  9 10  1  0
 10 11  2  0
 11 12  1  0
 12 13  2  0
 13 14  1  0
 14 15  3  0
 15 16  1  0
 16 17  1  0
 17 18  1  0
 18 19  2  0
 18 20  1  0
 20 21  1  0
 21 22  1  0
 22 23  1  0
 23 24  1  0
 24 25  1  0
 13 26  1  0
 26 27  2  0
 27  4  1  0
 27 10  1  0
 25 20  1  0
  1 28  1  0
  1 29  1  0
  1 30  1  0
  7 31  1  0
  7 32  1  0
  9 33  1  0
 11 34  1  0
 12 35  1  0
 16 36  1  0
 16 37  1  0
 17 38  1  0
 17 39  1  0
 21 40  1  0
 21 41  1  0
 22 42  1  0
 22 43  1  0
 24 44  1  0
 24 45  1  0
 25 46  1  0
 25 47  1  0
 26 48  1  0
M  END
>  <UniqueID>  (42) 
42

>  <SMILES>  (42) 
CC(=O)n1c(C(N)=O)cc2ccc(C#CCCC(=O)N3CCOCC3)cc21

>  <Energy>  (42) 
85.06460918441456

>  <Genealogy>  (42) 
CC(=O)n1c(C(N)=O)cc2ccc(C#CCCC(=O)N3CCOCC3)cc21 (3D coordinates assigned)
CC(=O)n1c(C(N)=O)cc2ccc(C#CCCC(=O)N3CCOCC3)cc21 (nonaromatic ring conformer: 85.06460918441456 kcal/mol)

>  <smiles>  (42) 
CC(=O)n1c(C(N)=O)cc2ccc(C#CCCC(=O)N3CCOCC3)cc21

>  <score_type>  (42) 
oracle

>  <origin>  (42) 
adg

>  <m_score__min__energy>  (42) 
-9.1999999999999993

>  <m_primary>  (42) 
energy

$$$$
42:0
     RDKit          3D

 39 41  0  0  0  0  0  0  0  0999 V2000
   -4.1190   22.9730  -28.2130 C   0  0  0  0  0  0  0  0  0  0  0  0
   -2.9860   22.4430  -29.0740 C   0  0  0  0  0  0  0  0  0  0  0  0
   -2.9770   23.1290  -30.3220 O   0  0  0  0  0  0  0  0  0  0  0  0
   -3.7060   22.6920  -31.4320 C   0  0  0  0  0  0  0  0  0  0  0  0
   -3.1070   22.2640  -32.4560 O   0  0  0  0  0  0  0  0  0  0  0  0
   -5.1420   22.7160  -31.3970 N   0  0  0  0  0  0  0  0  0  0  0  0
   -5.9500   23.7550  -31.0400 C   0  0  0  0  0  0  0  0  0  0  0  0
   -5.4950   25.0440  -30.4710 C   0  0  0  0  0  0  0  0  0  0  0  0
   -4.1680   25.5170  -30.7060 N   0  0  0  0  0  0  0  0  0  0  0  0
   -6.2880   25.7530  -29.7970 O   0  0  0  0  0  0  0  0  0  0  0  0
   -7.2900   23.4040  -31.1930 C   0  0  0  0  0  0  0  0  0  0  0  0
   -7.2760   22.1090  -31.6560 C   0  0  0  0  0  0  0  0  0  0  0  0
   -8.3300   21.2690  -31.9850 C   0  0  0  0  0  0  0  0  0  0  0  0
   -8.0290   19.9830  -32.4620 C   0  0  0  0  0  0  0  0  0  0  0  0
   -6.6770   19.5440  -32.6140 C   0  0  0  0  0  0  0  0  0  0  0  0
   -6.3300   18.1370  -33.1420 C   0  0  0  0  0  0  0  0  0  0  0  0
   -5.5180   17.9820  -34.4550 C   0  0  0  0  0  0  0  0  0  0  0  0
   -6.1150   18.7210  -35.4600 F   0  0  0  0  0  0  0  0  0  0  0  0
   -4.2260   18.4340  -34.2580 F   0  0  0  0  0  0  0  0  0  0  0  0
   -5.4480   16.6650  -34.8800 F   0  0  0  0  0  0  0  0  0  0  0  0
   -6.0650   17.0560  -32.0910 C   0  0  0  0  0  0  0  0  0  0  0  0
   -7.3660   17.0380  -32.8930 C   0  0  0  0  0  0  0  0  0  0  0  0
   -5.6380   20.4490  -32.2650 C   0  0  0  0  0  0  0  0  0  0  0  0
   -5.9720   21.7160  -31.7720 C   0  0  0  0  0  0  0  0  0  0  0  0
   -3.8599   22.8518  -27.1508 H   0  0  0  0  0  0  0  0  0  0  0  0
   -4.2783   24.0391  -28.4322 H   0  0  0  0  0  0  0  0  0  0  0  0
   -5.0395   22.4120  -28.4322 H   0  0  0  0  0  0  0  0  0  0  0  0
   -2.0275   22.6055  -28.5594 H   0  0  0  0  0  0  0  0  0  0  0  0
   -3.1307   21.3666  -29.2484 H   0  0  0  0  0  0  0  0  0  0  0  0
   -3.4650   24.9350  -31.2130 H   0  0  0  0  0  0  0  0  0  0  0  0
   -3.8700   26.4450  -30.3330 H   0  0  0  0  0  0  0  0  0  0  0  0
   -8.1712   24.0295  -30.9873 H   0  0  0  0  0  0  0  0  0  0  0  0
   -9.3729   21.6012  -31.8752 H   0  0  0  0  0  0  0  0  0  0  0  0
   -8.8501   19.2996  -32.7240 H   0  0  0  0  0  0  0  0  0  0  0  0
   -5.2969   16.2897  -32.2719 H   0  0  0  0  0  0  0  0  0  0  0  0
   -5.8114   17.0577  -31.0206 H   0  0  0  0  0  0  0  0  0  0  0  0
   -7.5339   16.2587  -33.6510 H   0  0  0  0  0  0  0  0  0  0  0  0
   -8.4360   17.0214  -32.6386 H   0  0  0  0  0  0  0  0  0  0  0  0
   -4.5838   20.1572  -32.3809 H   0  0  0  0  0  0  0  0  0  0  0  0
  1  2  1  0
  2  3  1  0
  3  4  1  0
  4  5  2  0
  4  6  1  0
  6  7  1  0
  7  8  1  0
  8  9  1  0
  8 10  2  0
  7 11  2  0
 11 12  1  0
 12 13  2  0
 13 14  1  0
 14 15  2  0
 15 16  1  0
 16 17  1  0
 17 18  1  0
 17 19  1  0
 17 20  1  0
 16 21  1  0
 21 22  1  0
 15 23  1  0
 23 24  2  0
 24  6  1  0
 24 12  1  0
 22 16  1  0
  1 25  1  0
  1 26  1  0
  1 27  1  0
  2 28  1  0
  2 29  1  0
  9 30  1  0
  9 31  1  0
 11 32  1  0
 13 33  1  0
 14 34  1  0
 21 35  1  0
 21 36  1  0
 22 37  1  0
 22 38  1  0
 23 39  1  0
M  END
>  <UniqueID>  (43) 
43

>  <SMILES>  (43) 
CCOC(=O)n1c(C(N)=O)cc2ccc(C3(C(F)(F)F)CC3)cc21

>  <Energy>  (43) 
347.52130886995064

>  <Genealogy>  (43) 
CCOC(=O)n1c(C(N)=O)cc2ccc(C3(C(F)(F)F)CC3)cc21 (3D coordinates assigned)
CCOC(=O)n1c(C(N)=O)cc2ccc(C3(C(F)(F)F)CC3)cc21 (nonaromatic ring conformer: 347.52130886995064 kcal/mol)

>  <smiles>  (43) 
CCOC(=O)n1c(C(N)=O)cc2ccc(C3(C(F)(F)F)CC3)cc21

>  <score_type>  (43) 
oracle

>  <origin>  (43) 
adg

>  <m_score__min__energy>  (43) 
-8.6400000000000006

>  <m_primary>  (43) 
energy

$$$$
43:0
     RDKit          3D

 27 28  0  0  0  0  0  0  0  0999 V2000
   -6.7540   20.7930  -32.6660 C   0  0  0  0  0  0  0  0  0  0  0  0
   -5.4780   20.2910  -33.3350 C   0  0  0  0  0  0  0  0  0  0  0  0
   -4.2620   20.7770  -32.5950 C   0  0  0  0  0  0  0  0  0  0  0  0
   -3.0960   19.9730  -32.5400 C   0  0  0  0  0  0  0  0  0  0  0  0
   -1.9690   20.3940  -31.8150 C   0  0  0  0  0  0  0  0  0  0  0  0
   -2.0390   21.6190  -31.1570 C   0  0  0  0  0  0  0  0  0  0  0  0
   -1.1090   22.2490  -30.3610 C   0  0  0  0  0  0  0  0  0  0  0  0
   -1.7160   23.4330  -29.9500 C   0  0  0  0  0  0  0  0  0  0  0  0
   -1.0260   24.4590  -29.1400 C   0  0  0  0  0  0  0  0  0  0  0  0
   -1.5980   25.7490  -28.9480 N   0  0  0  0  0  0  0  0  0  0  0  0
    0.1080   24.2090  -28.6520 O   0  0  0  0  0  0  0  0  0  0  0  0
   -2.9760   23.5290  -30.4640 N   0  0  0  0  0  0  0  0  0  0  0  0
   -3.9570   24.5490  -30.2120 C   0  0  0  0  0  0  0  0  0  0  0  0
   -3.8700   25.6680  -30.7800 O   0  0  0  0  0  0  0  0  0  0  0  0
   -4.9950   24.3170  -29.3180 O   0  0  0  0  0  0  0  0  0  0  0  0
   -3.1560   22.4120  -31.2040 C   0  0  0  0  0  0  0  0  0  0  0  0
   -4.2990   22.0070  -31.9030 C   0  0  0  0  0  0  0  0  0  0  0  0
   -6.6375   20.7472  -31.5732 H   0  0  0  0  0  0  0  0  0  0  0  0
   -6.9434   21.8327  -32.9713 H   0  0  0  0  0  0  0  0  0  0  0  0
   -7.6011   20.1611  -32.9713 H   0  0  0  0  0  0  0  0  0  0  0  0
   -5.4818   19.1910  -33.3399 H   0  0  0  0  0  0  0  0  0  0  0  0
   -5.4431   20.6776  -34.3642 H   0  0  0  0  0  0  0  0  0  0  0  0
   -3.0734   19.0096  -33.0704 H   0  0  0  0  0  0  0  0  0  0  0  0
   -1.0604   19.7758  -31.7686 H   0  0  0  0  0  0  0  0  0  0  0  0
   -0.1005   21.8927  -30.1042 H   0  0  0  0  0  0  0  0  0  0  0  0
   -2.6330   25.8900  -28.9820 H   0  0  0  0  0  0  0  0  0  0  0  0
   -5.2042   22.6319  -31.9129 H   0  0  0  0  0  0  0  0  0  0  0  0
  1  2  1  0
  2  3  1  0
  3  4  2  0
  4  5  1  0
  5  6  2  0
  6  7  1  0
  7  8  2  0
  8  9  1  0
  9 10  1  0
  9 11  2  0
  8 12  1  0
 12 13  1  0
 13 14  2  0
 13 15  1  0
 12 16  1  0
 16 17  2  0
 17  3  1  0
 16  6  1  0
  1 18  1  0
  1 19  1  0
  1 20  1  0
  2 21  1  0
  2 22  1  0
  4 23  1  0
  5 24  1  0
  7 25  1  0
 10 26  1  0
 17 27  1  0
M  CHG  2  10  -1  15  -1
M  END
>  <UniqueID>  (44) 
44

>  <SMILES>  (44) 
CCc1ccc2cc(C([NH-])=O)n(C(=O)[O-])c2c1

>  <Energy>  (44) 
63.991742819432055

>  <Genealogy>  (44) 
CCc1ccc2cc(C([NH-])=O)n(C(=O)[O-])c2c1 (protonated)
CCc1ccc2cc(C([NH-])=O)n(C(=O)[O-])c2c1 (3D coordinates assigned)
CCc1ccc2cc(C([NH-])=O)n(C(=O)[O-])c2c1 (optimized conformer: 63.991742819432055 kcal/mol)

>  <smiles>  (44) 
CCc1ccc2cc(C(N)=O)n(C(=O)O)c2c1

>  <score_type>  (44) 
oracle

>  <origin>  (44) 
adg

>  <m_score__min__energy>  (44) 
-10.08

>  <m_primary>  (44) 
energy

$$$$
44:0
     RDKit          3D

 54 56  0  0  0  0  0  0  0  0999 V2000
    3.3430   20.4300  -34.5920 C   0  0  0  0  0  0  0  0  0  0  0  0
    2.5780   21.3200  -35.3960 O   0  0  0  0  0  0  0  0  0  0  0  0
    1.2200   21.5650  -35.1700 C   0  0  0  0  0  0  0  0  0  0  0  0
    0.7460   22.7210  -35.3410 O   0  0  0  0  0  0  0  0  0  0  0  0
    0.3700   20.5000  -34.7170 N   0  0  0  0  0  0  0  0  0  0  0  0
    0.0990   19.3200  -35.3420 C   0  0  0  0  0  0  0  0  0  0  0  0
    0.7550   18.8110  -36.5640 C   0  0  0  0  0  0  0  0  0  0  0  0
    1.5100   19.6790  -37.4060 N   0  0  0  0  0  0  0  0  0  0  0  0
    0.6930   17.5840  -36.8420 O   0  0  0  0  0  0  0  0  0  0  0  0
   -0.8380   18.5860  -34.6140 C   0  0  0  0  0  0  0  0  0  0  0  0
   -1.1250   19.3550  -33.5110 C   0  0  0  0  0  0  0  0  0  0  0  0
   -1.9970   19.1130  -32.4540 C   0  0  0  0  0  0  0  0  0  0  0  0
   -2.1080   20.0920  -31.4530 C   0  0  0  0  0  0  0  0  0  0  0  0
   -1.3590   21.2930  -31.5310 C   0  0  0  0  0  0  0  0  0  0  0  0
   -1.4890   22.3380  -30.4510 C   0  0  0  0  0  0  0  0  0  0  0  0
   -2.8820   22.3520  -29.7950 C   0  0  0  0  0  0  0  0  0  0  0  0
   -3.8800   23.3050  -30.4800 C   0  0  2  0  0  0  0  0  0  0  0  0
   -3.9300   23.0340  -31.9170 N   0  0  0  0  0  0  0  0  0  0  0  0
   -4.6640   21.9680  -32.5350 C   0  0  0  0  0  0  0  0  0  0  0  0
   -4.1210   21.3090  -33.4600 O   0  0  0  0  0  0  0  0  0  0  0  0
   -6.0490   21.6380  -32.1350 C   0  0  0  0  0  0  0  0  0  0  0  0
   -6.4920   20.2940  -32.0530 C   0  0  0  0  0  0  0  0  0  0  0  0
   -5.6110   19.1240  -32.3990 C   0  0  0  0  0  0  0  0  0  0  0  0
   -7.7980   20.0300  -31.6200 C   0  0  0  0  0  0  0  0  0  0  0  0
   -8.6560   21.0840  -31.3190 C   0  0  0  0  0  0  0  0  0  0  0  0
   -8.2300   22.3650  -31.4450 N   0  0  0  0  0  0  0  0  0  0  0  0
   -6.9660   22.6730  -31.8400 C   0  0  0  0  0  0  0  0  0  0  0  0
   -6.5920   24.1220  -31.9710 C   0  0  0  0  0  0  0  0  0  0  0  0
   -3.4730   24.7300  -30.2320 C   0  0  0  0  0  0  0  0  0  0  0  0
   -4.0550   25.6740  -30.8300 O   0  0  0  0  0  0  0  0  0  0  0  0
   -2.4410   25.0120  -29.3440 O   0  0  0  0  0  0  0  0  0  0  0  0
   -0.4970   21.5100  -32.6300 C   0  0  0  0  0  0  0  0  0  0  0  0
   -0.3850   20.5050  -33.5960 C   0  0  0  0  0  0  0  0  0  0  0  0
    3.1581   20.6451  -33.5292 H   0  0  0  0  0  0  0  0  0  0  0  0
    3.0501   19.3929  -34.8126 H   0  0  0  0  0  0  0  0  0  0  0  0
    4.4123   20.5638  -34.8126 H   0  0  0  0  0  0  0  0  0  0  0  0
    1.5800   20.7000  -37.2000 H   0  0  0  0  0  0  0  0  0  0  0  0
   -1.2578   17.6016  -34.8684 H   0  0  0  0  0  0  0  0  0  0  0  0
   -2.5819   18.1828  -32.4039 H   0  0  0  0  0  0  0  0  0  0  0  0
   -2.7826   19.9252  -30.6003 H   0  0  0  0  0  0  0  0  0  0  0  0
   -0.7372   22.1351  -29.6740 H   0  0  0  0  0  0  0  0  0  0  0  0
   -1.3362   23.3202  -30.9221 H   0  0  0  0  0  0  0  0  0  0  0  0
   -3.2937   21.3326  -29.8325 H   0  0  0  0  0  0  0  0  0  0  0  0
   -2.7483   22.7132  -28.7646 H   0  0  0  0  0  0  0  0  0  0  0  0
   -4.8825   23.1412  -30.0579 H   0  0  0  0  0  0  0  0  0  0  0  0
   -5.2529   18.6485  -31.4740 H   0  0  0  0  0  0  0  0  0  0  0  0
   -6.1855   18.3939  -32.9880 H   0  0  0  0  0  0  0  0  0  0  0  0
   -4.7506   19.4744  -32.9880 H   0  0  0  0  0  0  0  0  0  0  0  0
   -8.1449   18.9911  -31.5180 H   0  0  0  0  0  0  0  0  0  0  0  0
   -9.6813   20.8773  -30.9784 H   0  0  0  0  0  0  0  0  0  0  0  0
   -6.4781   24.5632  -30.9698 H   0  0  0  0  0  0  0  0  0  0  0  0
   -5.6424   24.2074  -32.5195 H   0  0  0  0  0  0  0  0  0  0  0  0
   -7.3817   24.6564  -32.5195 H   0  0  0  0  0  0  0  0  0  0  0  0
    0.0720   22.4468  -32.7232 H   0  0  0  0  0  0  0  0  0  0  0  0
  1  2  1  0
  2  3  1  0
  3  4  2  0
  3  5  1  0
  5  6  1  0
  6  7  1  0
  7  8  1  0
  7  9  2  0
  6 10  2  0
 10 11  1  0
 11 12  2  0
 12 13  1  0
 13 14  2  0
 14 15  1  0
 15 16  1  0
 16 17  1  0
 17 18  1  0
 18 19  1  0
 19 20  2  0
 19 21  1  0
 21 22  2  0
 22 23  1  0
 22 24  1  0
 24 25  2  0
 25 26  1  0
 26 27  2  0
 27 28  1  0
 17 29  1  0
 29 30  2  0
 29 31  1  0
 14 32  1  0
 32 33  2  0
 33  5  1  0
 33 11  1  0
 27 21  1  0
  1 34  1  0
  1 35  1  0
  1 36  1  0
  8 37  1  0
 10 38  1  0
 12 39  1  0
 13 40  1  0
 15 41  1  0
 15 42  1  0
 16 43  1  0
 16 44  1  0
 17 45  1  1
 23 46  1  0
 23 47  1  0
 23 48  1  0
 24 49  1  0
 25 50  1  0
 28 51  1  0
 28 52  1  0
 28 53  1  0
 32 54  1  0
M  CHG  3   8  -1  18  -1  31  -1
M  END
>  <UniqueID>  (45) 
45

>  <SMILES>  (45) 
COC(=O)n1c(C([NH-])=O)cc2ccc(CC[C@H]([N-]C(=O)c3c(C)ccnc3C)C(=O)[O-])cc21

>  <Energy>  (45) 
93.7662324639338

>  <Genealogy>  (45) 
COC(=O)n1c(C([NH-])=O)cc2ccc(CCC([N-]C(=O)c3c(C)ccnc3C)C(=O)[O-])cc21 (protonated)
COC(=O)n1c(C([NH-])=O)cc2ccc(CC[C@H]([N-]C(=O)c3c(C)ccnc3C)C(=O)[O-])cc21 (chirality)
COC(=O)n1c(C([NH-])=O)cc2ccc(CC[C@H]([N-]C(=O)c3c(C)ccnc3C)C(=O)[O-])cc21 (3D coordinates assigned)
COC(=O)n1c(C([NH-])=O)cc2ccc(CC[C@H]([N-]C(=O)c3c(C)ccnc3C)C(=O)[O-])cc21 (optimized conformer: 93.7662324639338 kcal/mol)

>  <smiles>  (45) 
COC(=O)n1c(C(N)=O)cc2ccc(CCC(NC(=O)c3c(C)ccnc3C)C(=O)O)cc21

>  <score_type>  (45) 
oracle

>  <origin>  (45) 
adg

>  <m_score__min__energy>  (45) 
-11.41

>  <m_primary>  (45) 
energy

$$$$
45:0
     RDKit          3D

 45 47  0  0  0  0  0  0  0  0999 V2000
   -4.8000   23.5860  -29.0090 C   0  0  0  0  0  0  0  0  0  0  0  0
   -3.8010   23.8840  -30.0810 C   0  0  0  0  0  0  0  0  0  0  0  0
   -3.9580   24.9030  -30.8050 O   0  0  0  0  0  0  0  0  0  0  0  0
   -2.6270   23.0720  -30.2400 N   0  0  0  0  0  0  0  0  0  0  0  0
   -1.3470   23.3590  -29.8700 C   0  0  0  0  0  0  0  0  0  0  0  0
   -0.9160   24.5260  -29.0730 C   0  0  0  0  0  0  0  0  0  0  0  0
   -1.7480   25.6760  -28.9490 N   0  0  0  0  0  0  0  0  0  0  0  0
    0.1840   24.4910  -28.4600 O   0  0  0  0  0  0  0  0  0  0  0  0
   -0.4830   22.3450  -30.2820 C   0  0  0  0  0  0  0  0  0  0  0  0
   -1.2820   21.4170  -30.9100 C   0  0  0  0  0  0  0  0  0  0  0  0
   -0.9510   20.2090  -31.5140 C   0  0  0  0  0  0  0  0  0  0  0  0
   -1.9840   19.4600  -32.1020 C   0  0  0  0  0  0  0  0  0  0  0  0
   -3.3260   19.9330  -32.0870 C   0  0  0  0  0  0  0  0  0  0  0  0
   -4.4020   19.1870  -32.6900 N   0  0  0  0  0  0  0  0  0  0  0  0
   -5.1150   19.5880  -33.9030 C   0  0  0  0  0  0  0  0  0  0  0  0
   -6.5610   19.9750  -33.5730 C   0  0  0  0  0  0  0  0  0  0  0  0
   -6.8430   19.7130  -32.1430 N   0  0  0  0  0  0  0  0  0  0  0  0
   -7.5560   20.8360  -31.5030 C   0  0  0  0  0  0  0  0  0  0  0  0
   -9.0160   20.9470  -32.0020 C   0  0  0  0  0  0  0  0  0  0  0  0
   -9.4740   19.7730  -32.6520 O   0  0  0  0  0  0  0  0  0  0  0  0
   -9.1040   18.6320  -31.9090 C   0  0  0  0  0  0  0  0  0  0  0  0
   -7.5740   18.4400  -31.9350 C   0  0  0  0  0  0  0  0  0  0  0  0
   -3.6180   21.1630  -31.4580 C   0  0  0  0  0  0  0  0  0  0  0  0
   -2.5710   21.8790  -30.8690 C   0  0  0  0  0  0  0  0  0  0  0  0
   -4.3325   23.7255  -28.0231 H   0  0  0  0  0  0  0  0  0  0  0  0
   -5.6579   24.2673  -29.1077 H   0  0  0  0  0  0  0  0  0  0  0  0
   -5.1445   22.5460  -29.1077 H   0  0  0  0  0  0  0  0  0  0  0  0
   -2.7230   25.6770  -29.3230 H   0  0  0  0  0  0  0  0  0  0  0  0
    0.6062   22.2970  -30.1360 H   0  0  0  0  0  0  0  0  0  0  0  0
    0.0888   19.8505  -31.5309 H   0  0  0  0  0  0  0  0  0  0  0  0
   -1.7527   18.4965  -32.5796 H   0  0  0  0  0  0  0  0  0  0  0  0
   -4.6960   18.2890  -32.2410 H   0  0  0  0  0  0  0  0  0  0  0  0
   -4.6036   20.4507  -34.3550 H   0  0  0  0  0  0  0  0  0  0  0  0
   -5.1249   18.7419  -34.6058 H   0  0  0  0  0  0  0  0  0  0  0  0
   -6.7086   21.0446  -33.7831 H   0  0  0  0  0  0  0  0  0  0  0  0
   -7.2449   19.3749  -34.1912 H   0  0  0  0  0  0  0  0  0  0  0  0
   -7.5625   20.6796  -30.4142 H   0  0  0  0  0  0  0  0  0  0  0  0
   -7.0329   21.7675  -31.7649 H   0  0  0  0  0  0  0  0  0  0  0  0
   -9.6670   21.1449  -31.1377 H   0  0  0  0  0  0  0  0  0  0  0  0
   -9.0489   21.7631  -32.7388 H   0  0  0  0  0  0  0  0  0  0  0  0
   -9.4352   18.7559  -30.8674 H   0  0  0  0  0  0  0  0  0  0  0  0
   -9.5801   17.7473  -32.3570 H   0  0  0  0  0  0  0  0  0  0  0  0
   -7.2572   18.0045  -30.9758 H   0  0  0  0  0  0  0  0  0  0  0  0
   -7.3358   17.7772  -32.7799 H   0  0  0  0  0  0  0  0  0  0  0  0
   -4.6474   21.5499  -31.4318 H   0  0  0  0  0  0  0  0  0  0  0  0
  1  2  1  0
  2  3  2  0
  2  4  1  0
  4  5  1  0
  5  6  1  0
  6  7  1  0
  6  8  2  0
  5  9  2  0
  9 10  1  0
 10 11  2  0
 11 12  1  0
 12 13  2  0
 13 14  1  0
 14 15  1  0
 15 16  1  0
 16 17  1  0
 17 18  1  0
 18 19  1  0
 19 20  1  0
 20 21  1  0
 21 22  1  0
 13 23  1  0
 23 24  2  0
 24  4  1  0
 24 10  1  0
 22 17  1  0
  1 25  1  0
  1 26  1  0
  1 27  1  0
  7 28  1  0
  9 29  1  0
 11 30  1  0
 12 31  1  0
 14 32  1  0
 15 33  1  0
 15 34  1  0
 16 35  1  0
 16 36  1  0
 18 37  1  0
 18 38  1  0
 19 39  1  0
 19 40  1  0
 21 41  1  0
 21 42  1  0
 22 43  1  0
 22 44  1  0
 23 45  1  0
M  CHG  1   7  -1
M  END
>  <UniqueID>  (46) 
46

>  <SMILES>  (46) 
CC(=O)n1c(C([NH-])=O)cc2ccc(NCCN3CCOCC3)cc21

>  <Energy>  (46) 
95.14338384277829

>  <Genealogy>  (46) 
CC(=O)n1c(C([NH-])=O)cc2ccc(NCCN3CCOCC3)cc21 (protonated)
CC(=O)n1c(C([NH-])=O)cc2ccc(NCCN3CCOCC3)cc21 (3D coordinates assigned)
CC(=O)n1c(C([NH-])=O)cc2ccc(NCCN3CCOCC3)cc21 (nonaromatic ring conformer: 95.14338384277829 kcal/mol)

>  <smiles>  (46) 
CC(=O)n1c(C(N)=O)cc2ccc(NCCN3CCOCC3)cc21

>  <score_type>  (46) 
oracle

>  <origin>  (46) 
adg

>  <m_score__min__energy>  (46) 
-11.02

>  <m_primary>  (46) 
energy

$$$$
46:0
     RDKit          3D

 46 48  0  0  0  0  0  0  0  0999 V2000
   -4.6310   14.7600  -34.4210 C   0  0  0  0  0  0  0  0  0  0  0  0
   -5.0980   16.0720  -33.9470 N   0  0  0  0  0  0  0  0  0  0  0  0
   -6.5160   16.0090  -33.5660 C   0  0  0  0  0  0  0  0  0  0  0  0
   -6.8650   17.2780  -32.7910 C   0  0  0  0  0  0  0  0  0  0  0  0
   -6.3100   18.4690  -33.4510 N   0  0  0  0  0  0  0  0  0  0  0  0
   -6.5700   19.7690  -32.8810 C   0  0  0  0  0  0  0  0  0  0  0  0
   -7.9040   20.2250  -32.7080 C   0  0  0  0  0  0  0  0  0  0  0  0
   -8.1660   21.4920  -32.1590 C   0  0  0  0  0  0  0  0  0  0  0  0
   -7.0810   22.2780  -31.7850 C   0  0  0  0  0  0  0  0  0  0  0  0
   -7.0490   23.5470  -31.2570 C   0  0  0  0  0  0  0  0  0  0  0  0
   -5.6970   23.8440  -31.0900 C   0  0  0  0  0  0  0  0  0  0  0  0
   -5.2100   25.0890  -30.4590 C   0  0  0  0  0  0  0  0  0  0  0  0
   -3.9710   25.6730  -30.8500 N   0  0  0  0  0  0  0  0  0  0  0  0
   -5.8750   25.6170  -29.5280 O   0  0  0  0  0  0  0  0  0  0  0  0
   -4.9250   22.8020  -31.5100 N   0  0  0  0  0  0  0  0  0  0  0  0
   -3.4920   22.7370  -31.5760 C   0  0  0  0  0  0  0  0  0  0  0  0
   -2.9340   22.1570  -32.5480 O   0  0  0  0  0  0  0  0  0  0  0  0
   -2.7250   23.2900  -30.5450 O   0  0  0  0  0  0  0  0  0  0  0  0
   -2.9920   23.0710  -29.1620 C   0  0  0  0  0  0  0  0  0  0  0  0
   -2.6470   24.3160  -28.3440 C   0  0  0  0  0  0  0  0  0  0  0  0
   -1.9610   25.2440  -29.1370 O   0  0  0  0  0  0  0  0  0  0  0  0
   -5.7870   21.8490  -31.9280 C   0  0  0  0  0  0  0  0  0  0  0  0
   -5.4950   20.6010  -32.4900 C   0  0  0  0  0  0  0  0  0  0  0  0
   -5.7470   18.3650  -34.8060 C   0  0  0  0  0  0  0  0  0  0  0  0
   -4.8590   17.1100  -34.9760 C   0  0  0  0  0  0  0  0  0  0  0  0
   -4.4025   14.1182  -33.5574 H   0  0  0  0  0  0  0  0  0  0  0  0
   -5.4168   14.2892  -35.0300 H   0  0  0  0  0  0  0  0  0  0  0  0
   -3.7245   14.8916  -35.0300 H   0  0  0  0  0  0  0  0  0  0  0  0
   -7.1405   15.9419  -34.4691 H   0  0  0  0  0  0  0  0  0  0  0  0
   -6.7000   15.1225  -32.9412 H   0  0  0  0  0  0  0  0  0  0  0  0
   -7.9592   17.3753  -32.7345 H   0  0  0  0  0  0  0  0  0  0  0  0
   -6.4318   17.2027  -31.7827 H   0  0  0  0  0  0  0  0  0  0  0  0
   -8.7422   19.5787  -33.0073 H   0  0  0  0  0  0  0  0  0  0  0  0
   -9.1976   21.8511  -32.0290 H   0  0  0  0  0  0  0  0  0  0  0  0
   -7.9077   24.1912  -31.0172 H   0  0  0  0  0  0  0  0  0  0  0  0
   -3.0640   25.2940  -30.4970 H   0  0  0  0  0  0  0  0  0  0  0  0
   -4.0591   22.8374  -29.0323 H   0  0  0  0  0  0  0  0  0  0  0  0
   -2.3735   22.2323  -28.8097 H   0  0  0  0  0  0  0  0  0  0  0  0
   -3.5751   24.7736  -27.9707 H   0  0  0  0  0  0  0  0  0  0  0  0
   -2.0052   24.0230  -27.5000 H   0  0  0  0  0  0  0  0  0  0  0  0
   -2.0010   24.9050  -30.0700 H   0  0  0  0  0  0  0  0  0  0  0  0
   -4.4532   20.2745  -32.6246 H   0  0  0  0  0  0  0  0  0  0  0  0
   -6.5736   18.3146  -35.5300 H   0  0  0  0  0  0  0  0  0  0  0  0
   -5.1168   19.2500  -34.9782 H   0  0  0  0  0  0  0  0  0  0  0  0
   -5.0605   16.6725  -35.9649 H   0  0  0  0  0  0  0  0  0  0  0  0
   -3.8141   17.4367  -34.8687 H   0  0  0  0  0  0  0  0  0  0  0  0
  1  2  1  0
  2  3  1  0
  3  4  1  0
  4  5  1  0
  5  6  1  0
  6  7  2  0
  7  8  1  0
  8  9  2  0
  9 10  1  0
 10 11  2  0
 11 12  1  0
 12 13  1  0
 12 14  2  0
 11 15  1  0
 15 16  1  0
 16 17  2  0
 16 18  1  0
 18 19  1  0
 19 20  1  0
 20 21  1  0
 15 22  1  0
 22 23  2  0
  5 24  1  0
 24 25  1  0
 25  2  1  0
 23  6  1  0
 22  9  1  0
  1 26  1  0
  1 27  1  0
  1 28  1  0
  3 29  1  0
  3 30  1  0
  4 31  1  0
  4 32  1  0
  7 33  1  0
  8 34  1  0
 10 35  1  0
 13 36  1  0
 19 37  1  0
 19 38  1  0
 20 39  1  0
 20 40  1  0
 21 41  1  0
 23 42  1  0
 24 43  1  0
 24 44  1  0
 25 45  1  0
 25 46  1  0
M  CHG  1  13  -1
M  END
>  <UniqueID>  (47) 
47

>  <SMILES>  (47) 
CN1CCN(c2ccc3cc(C([NH-])=O)n(C(=O)OCCO)c3c2)CC1

>  <Energy>  (47) 
91.17636029560822

>  <Genealogy>  (47) 
CN1CCN(c2ccc3cc(C([NH-])=O)n(C(=O)OCCO)c3c2)CC1 (protonated)
CN1CCN(c2ccc3cc(C([NH-])=O)n(C(=O)OCCO)c3c2)CC1 (3D coordinates assigned)
CN1CCN(c2ccc3cc(C([NH-])=O)n(C(=O)OCCO)c3c2)CC1 (nonaromatic ring conformer: 91.17636029560822 kcal/mol)

>  <smiles>  (47) 
CN1CCN(c2ccc3cc(C(N)=O)n(C(=O)OCCO)c3c2)CC1

>  <score_type>  (47) 
oracle

>  <origin>  (47) 
adg

>  <m_score__min__energy>  (47) 
-11.220000000000001

>  <m_primary>  (47) 
energy

$$$$
47:0
     RDKit          3D

 46 47  0  0  0  0  0  0  0  0999 V2000
   -5.6370   14.5690  -34.1030 C   0  0  0  0  0  0  0  0  0  0  0  0
   -6.8760   15.4350  -34.3130 C   0  0  0  0  0  0  0  0  0  0  0  0
   -6.6050   16.8320  -33.9020 N   0  0  0  0  0  0  0  0  0  0  0  0
   -5.6440   17.4840  -34.8190 C   0  0  0  0  0  0  0  0  0  0  0  0
   -5.1170   18.7740  -34.1960 C   0  0  0  0  0  0  0  0  0  0  0  0
   -6.1410   16.9000  -32.4970 C   0  0  0  0  0  0  0  0  0  0  0  0
   -7.1130   17.7270  -31.6420 C   0  0  0  0  0  0  0  0  0  0  0  0
   -7.7210   18.8040  -32.4270 N   0  0  0  0  0  0  0  0  0  0  0  0
   -7.6830   20.1920  -32.0540 C   0  0  0  0  0  0  0  0  0  0  0  0
   -8.8680   20.9700  -31.9610 C   0  0  0  0  0  0  0  0  0  0  0  0
   -8.8080   22.3290  -31.6120 C   0  0  0  0  0  0  0  0  0  0  0  0
   -7.5570   22.8860  -31.3670 C   0  0  0  0  0  0  0  0  0  0  0  0
   -7.2130   24.1660  -30.9970 C   0  0  0  0  0  0  0  0  0  0  0  0
   -5.8230   24.1580  -30.8850 C   0  0  0  0  0  0  0  0  0  0  0  0
   -5.0240   25.3590  -30.5630 C   0  0  0  0  0  0  0  0  0  0  0  0
   -3.6030   25.2940  -30.4710 N   0  0  0  0  0  0  0  0  0  0  0  0
   -5.6010   26.4680  -30.3980 O   0  0  0  0  0  0  0  0  0  0  0  0
   -5.3300   22.9200  -31.1710 N   0  0  0  0  0  0  0  0  0  0  0  0
   -3.9610   22.4880  -31.1170 C   0  0  0  0  0  0  0  0  0  0  0  0
   -3.3190   21.8270  -32.2950 C   0  0  0  0  0  0  0  0  0  0  0  0
   -3.2900   22.6600  -30.0650 O   0  0  0  0  0  0  0  0  0  0  0  0
   -6.4040   22.1520  -31.4600 C   0  0  0  0  0  0  0  0  0  0  0  0
   -6.4350   20.7910  -31.7770 C   0  0  0  0  0  0  0  0  0  0  0  0
   -5.4563   14.4427  -33.0253 H   0  0  0  0  0  0  0  0  0  0  0  0
   -5.7954   13.5839  -34.5662 H   0  0  0  0  0  0  0  0  0  0  0  0
   -4.7663   15.0562  -34.5662 H   0  0  0  0  0  0  0  0  0  0  0  0
   -7.1542   15.4177  -35.3771 H   0  0  0  0  0  0  0  0  0  0  0  0
   -7.6983   15.0360  -33.7009 H   0  0  0  0  0  0  0  0  0  0  0  0
   -4.8025   16.8016  -35.0093 H   0  0  0  0  0  0  0  0  0  0  0  0
   -6.1535   17.7227  -35.7642 H   0  0  0  0  0  0  0  0  0  0  0  0
   -5.1505   18.6920  -33.0996 H   0  0  0  0  0  0  0  0  0  0  0  0
   -4.0789   18.9401  -34.5197 H   0  0  0  0  0  0  0  0  0  0  0  0
   -5.7418   19.6195  -34.5197 H   0  0  0  0  0  0  0  0  0  0  0  0
   -6.0782   15.8808  -32.0880 H   0  0  0  0  0  0  0  0  0  0  0  0
   -5.1528   17.3826  -32.4746 H   0  0  0  0  0  0  0  0  0  0  0  0
   -7.9070   17.0676  -31.2614 H   0  0  0  0  0  0  0  0  0  0  0  0
   -6.5510   18.1758  -30.8097 H   0  0  0  0  0  0  0  0  0  0  0  0
   -8.3140   18.5250  -33.2410 H   0  0  0  0  0  0  0  0  0  0  0  0
   -9.8429   20.5030  -32.1645 H   0  0  0  0  0  0  0  0  0  0  0  0
   -9.7228   22.9349  -31.5347 H   0  0  0  0  0  0  0  0  0  0  0  0
   -7.8907   25.0154  -30.8259 H   0  0  0  0  0  0  0  0  0  0  0  0
   -3.0600   24.6000  -31.0320 H   0  0  0  0  0  0  0  0  0  0  0  0
   -2.5925   21.0790  -31.9448 H   0  0  0  0  0  0  0  0  0  0  0  0
   -4.0904   21.3322  -32.9033 H   0  0  0  0  0  0  0  0  0  0  0  0
   -2.8019   22.5837  -32.9033 H   0  0  0  0  0  0  0  0  0  0  0  0
   -5.5079   20.2000  -31.8099 H   0  0  0  0  0  0  0  0  0  0  0  0
  1  2  1  0
  2  3  1  0
  3  4  1  0
  4  5  1  0
  3  6  1  0
  6  7  1  0
  7  8  1  0
  8  9  1  0
  9 10  2  0
 10 11  1  0
 11 12  2  0
 12 13  1  0
 13 14  2  0
 14 15  1  0
 15 16  1  0
 15 17  2  0
 14 18  1  0
 18 19  1  0
 19 20  1  0
 19 21  2  0
 18 22  1  0
 22 23  2  0
 23  9  1  0
 22 12  1  0
  1 24  1  0
  1 25  1  0
  1 26  1  0
  2 27  1  0
  2 28  1  0
  4 29  1  0
  4 30  1  0
  5 31  1  0
  5 32  1  0
  5 33  1  0
  6 34  1  0
  6 35  1  0
  7 36  1  0
  7 37  1  0
  8 38  1  0
 10 39  1  0
 11 40  1  0
 13 41  1  0
 16 42  1  0
 20 43  1  0
 20 44  1  0
 20 45  1  0
 23 46  1  0
M  CHG  1  16  -1
M  END
>  <UniqueID>  (48) 
48

>  <SMILES>  (48) 
CCN(CC)CCNc1ccc2cc(C([NH-])=O)n(C(C)=O)c2c1

>  <Energy>  (48) 
79.23696936965807

>  <Genealogy>  (48) 
CCN(CC)CCNc1ccc2cc(C([NH-])=O)n(C(C)=O)c2c1 (protonated)
CCN(CC)CCNc1ccc2cc(C([NH-])=O)n(C(C)=O)c2c1 (3D coordinates assigned)
CCN(CC)CCNc1ccc2cc(C([NH-])=O)n(C(C)=O)c2c1 (optimized conformer: 79.23696936965807 kcal/mol)

>  <smiles>  (48) 
CCN(CC)CCNc1ccc2cc(C(N)=O)n(C(C)=O)c2c1

>  <score_type>  (48) 
oracle

>  <origin>  (48) 
adg

>  <m_score__min__energy>  (48) 
-10.31

>  <m_primary>  (48) 
energy

$$$$
48:0
     RDKit          3D

 56 59  0  0  0  0  0  0  0  0999 V2000
   -2.5060   25.5460  -25.6690 C   0  0  0  0  0  0  0  0  0  0  0  0
   -2.3490   24.6340  -26.8920 C   0  0  2  0  0  0  0  0  0  0  0  0
   -1.4070   23.4350  -26.5810 C   0  0  0  0  0  0  0  0  0  0  0  0
   -0.1430   23.4050  -27.4620 C   0  0  1  0  0  0  0  0  0  0  0  0
    0.7100   22.1720  -27.1420 C   0  0  0  0  0  0  0  0  0  0  0  0
   -0.5300   23.4260  -28.9540 C   0  0  0  0  0  0  0  0  0  0  0  0
   -1.4870   24.5950  -29.3210 C   0  0  0  0  0  0  0  0  0  0  0  0
   -2.6750   24.1190  -30.0410 N   0  0  0  0  0  0  0  0  0  0  0  0
   -3.0230   22.8470  -30.3180 C   0  0  0  0  0  0  0  0  0  0  0  0
   -4.2540   22.9090  -30.9440 C   0  0  0  0  0  0  0  0  0  0  0  0
   -5.0710   21.7820  -31.4510 C   0  0  0  0  0  0  0  0  0  0  0  0
   -6.4770   21.7470  -31.2440 C   0  0  0  0  0  0  0  0  0  0  0  0
   -7.2450   20.6700  -31.7180 C   0  0  0  0  0  0  0  0  0  0  0  0
   -6.5910   19.6500  -32.3980 C   0  0  0  0  0  0  0  0  0  0  0  0
   -7.0890   18.4870  -32.9410 C   0  0  0  0  0  0  0  0  0  0  0  0
   -5.9890   17.8350  -33.4920 C   0  0  0  0  0  0  0  0  0  0  0  0
   -6.0910   16.5760  -34.2590 C   0  0  0  0  0  0  0  0  0  0  0  0
   -4.9100   15.8460  -34.5840 N   0  0  0  0  0  0  0  0  0  0  0  0
   -7.2120   16.1160  -34.6000 O   0  0  0  0  0  0  0  0  0  0  0  0
   -4.8520   18.5630  -33.2910 N   0  0  0  0  0  0  0  0  0  0  0  0
   -3.5070   18.2190  -33.6580 C   0  0  0  0  0  0  0  0  0  0  0  0
   -3.2280   17.9660  -34.8620 O   0  0  0  0  0  0  0  0  0  0  0  0
   -2.5210   18.1320  -32.6690 O   0  0  0  0  0  0  0  0  0  0  0  0
   -1.1270   18.3320  -32.9090 C   0  0  0  0  0  0  0  0  0  0  0  0
   -0.6980   19.7580  -32.5480 C   0  0  0  0  0  0  0  0  0  0  0  0
   -1.1610   20.1090  -30.8650 Cl  0  0  0  0  0  0  0  0  0  0  0  0
   -1.5070   20.9380  -33.6140 Cl  0  0  0  0  0  0  0  0  0  0  0  0
    1.0670   19.9610  -32.6970 Cl  0  0  0  0  0  0  0  0  0  0  0  0
   -5.2400   19.6720  -32.6230 C   0  0  0  0  0  0  0  0  0  0  0  0
   -4.4450   20.7220  -32.1470 C   0  0  0  0  0  0  0  0  0  0  0  0
   -4.6170   24.2070  -31.0190 N   0  0  0  0  0  0  0  0  0  0  0  0
   -3.6460   24.9150  -30.4610 N   0  0  0  0  0  0  0  0  0  0  0  0
   -1.8950   25.4660  -28.1150 C   0  0  0  0  0  0  0  0  0  0  0  0
   -2.4032   24.9490  -24.7508 H   0  0  0  0  0  0  0  0  0  0  0  0
   -1.7286   26.3239  -25.6895 H   0  0  0  0  0  0  0  0  0  0  0  0
   -3.4988   26.0192  -25.6895 H   0  0  0  0  0  0  0  0  0  0  0  0
   -3.3236   24.1911  -27.1452 H   0  0  0  0  0  0  0  0  0  0  0  0
   -1.9662   22.5015  -26.7417 H   0  0  0  0  0  0  0  0  0  0  0  0
   -1.0736   23.5459  -25.5386 H   0  0  0  0  0  0  0  0  0  0  0  0
    0.4557   24.3017  -27.2440 H   0  0  0  0  0  0  0  0  0  0  0  0
    0.7909   22.0551  -26.0512 H   0  0  0  0  0  0  0  0  0  0  0  0
    0.2370   21.2771  -27.5726 H   0  0  0  0  0  0  0  0  0  0  0  0
    1.7142   22.2991  -27.5726 H   0  0  0  0  0  0  0  0  0  0  0  0
   -1.0276   22.4763  -29.1997 H   0  0  0  0  0  0  0  0  0  0  0  0
    0.3961   23.5678  -29.5304 H   0  0  0  0  0  0  0  0  0  0  0  0
   -0.9052   25.2448  -29.9913 H   0  0  0  0  0  0  0  0  0  0  0  0
   -2.4432   21.9401  -30.0912 H   0  0  0  0  0  0  0  0  0  0  0  0
   -6.9688   22.5716  -30.7072 H   0  0  0  0  0  0  0  0  0  0  0  0
   -8.3324   20.6354  -31.5554 H   0  0  0  0  0  0  0  0  0  0  0  0
   -8.1346   18.1452  -32.9398 H   0  0  0  0  0  0  0  0  0  0  0  0
   -4.2480   16.1930  -35.3130 H   0  0  0  0  0  0  0  0  0  0  0  0
   -0.5526   17.6198  -32.2984 H   0  0  0  0  0  0  0  0  0  0  0  0
   -0.9330   18.1721  -33.9799 H   0  0  0  0  0  0  0  0  0  0  0  0
   -3.3573   20.7223  -32.3109 H   0  0  0  0  0  0  0  0  0  0  0  0
   -2.7245   26.1207  -28.4205 H   0  0  0  0  0  0  0  0  0  0  0  0
   -1.0079   26.0406  -27.8101 H   0  0  0  0  0  0  0  0  0  0  0  0
  1  2  1  0
  2  3  1  0
  3  4  1  0
  4  5  1  0
  4  6  1  0
  6  7  1  0
  7  8  1  0
  8  9  1  0
  9 10  2  0
 10 11  1  0
 11 12  2  0
 12 13  1  0
 13 14  2  0
 14 15  1  0
 15 16  2  0
 16 17  1  0
 17 18  1  0
 17 19  2  0
 16 20  1  0
 20 21  1  0
 21 22  2  0
 21 23  1  0
 23 24  1  0
 24 25  1  0
 25 26  1  0
 25 27  1  0
 25 28  1  0
 20 29  1  0
 29 30  2  0
 10 31  1  0
 31 32  2  0
  7 33  1  0
 33  2  1  0
 32  8  1  0
 30 11  1  0
 29 14  1  0
  1 34  1  0
  1 35  1  0
  1 36  1  0
  2 37  1  6
  3 38  1  0
  3 39  1  0
  4 40  1  1
  5 41  1  0
  5 42  1  0
  5 43  1  0
  6 44  1  0
  6 45  1  0
  7 46  1  0
  9 47  1  0
 12 48  1  0
 13 49  1  0
 15 50  1  0
 18 51  1  0
 24 52  1  0
 24 53  1  0
 30 54  1  0
 33 55  1  0
 33 56  1  0
M  CHG  1  18  -1
M  END
>  <UniqueID>  (49) 
49

>  <SMILES>  (49) 
C[C@H]1CC(n2cc(-c3ccc4cc(C([NH-])=O)n(C(=O)OCC(Cl)(Cl)Cl)c4c3)nn2)C[C@H](C)C1

>  <Energy>  (49) 
132.35410166973108

>  <Genealogy>  (49) 
CC1CC(C)CC(n2cc(-c3ccc4cc(C([NH-])=O)n(C(=O)OCC(Cl)(Cl)Cl)c4c3)nn2)C1 (protonated)
C[C@H]1CC(n2cc(-c3ccc4cc(C([NH-])=O)n(C(=O)OCC(Cl)(Cl)Cl)c4c3)nn2)C[C@H](C)C1 (chirality)
C[C@H]1CC(n2cc(-c3ccc4cc(C([NH-])=O)n(C(=O)OCC(Cl)(Cl)Cl)c4c3)nn2)C[C@H](C)C1 (3D coordinates assigned)
C[C@H]1CC(n2cc(-c3ccc4cc(C([NH-])=O)n(C(=O)OCC(Cl)(Cl)Cl)c4c3)nn2)C[C@H](C)C1 (nonaromatic ring conformer: 132.35410166973108 kcal/mol)

>  <smiles>  (49) 
CC1CC(C)CC(n2cc(-c3ccc4cc(C(N)=O)n(C(=O)OCC(Cl)(Cl)Cl)c4c3)nn2)C1

>  <score_type>  (49) 
oracle

>  <origin>  (49) 
adg

>  <m_score__min__energy>  (49) 
-12.69

>  <m_primary>  (49) 
energy

$$$$
49:0
     RDKit          3D

 45 47  0  0  0  0  0  0  0  0999 V2000
   -6.1580   15.3290  -33.9000 C   0  0  0  0  0  0  0  0  0  0  0  0
   -4.9960   15.9170  -33.2010 N   0  0  0  0  0  0  0  0  0  0  0  0
   -4.3480   14.8550  -32.4050 C   0  0  0  0  0  0  0  0  0  0  0  0
   -4.0360   16.5320  -34.1680 C   0  0  0  0  0  0  0  0  0  0  0  0
   -3.0590   17.5040  -33.4930 C   0  0  0  0  0  0  0  0  0  0  0  0
   -3.7880   18.6420  -32.7680 C   0  0  0  0  0  0  0  0  0  0  0  0
   -4.9910   19.1630  -33.4610 N   0  0  0  0  0  0  0  0  0  0  0  0
   -5.7070   20.2930  -32.8670 C   0  0  0  0  0  0  0  0  0  0  0  0
   -7.1350   20.3630  -32.8960 C   0  0  0  0  0  0  0  0  0  0  0  0
   -7.8270   21.4490  -32.3380 C   0  0  0  0  0  0  0  0  0  0  0  0
   -7.0890   22.4590  -31.7390 C   0  0  0  0  0  0  0  0  0  0  0  0
   -7.5100   23.6250  -31.1430 C   0  0  0  0  0  0  0  0  0  0  0  0
   -6.3460   24.2630  -30.7190 C   0  0  0  0  0  0  0  0  0  0  0  0
   -6.3330   25.5220  -29.9410 C   0  0  0  0  0  0  0  0  0  0  0  0
   -5.4630   26.5950  -30.3040 N   0  0  0  0  0  0  0  0  0  0  0  0
   -7.1140   25.6710  -28.9660 O   0  0  0  0  0  0  0  0  0  0  0  0
   -5.2510   23.5170  -31.0410 N   0  0  0  0  0  0  0  0  0  0  0  0
   -3.8700   23.8530  -30.8240 C   0  0  0  0  0  0  0  0  0  0  0  0
   -2.9780   22.9690  -30.9230 O   0  0  0  0  0  0  0  0  0  0  0  0
   -3.5050   25.1520  -30.4920 O   0  0  0  0  0  0  0  0  0  0  0  0
   -5.7250   22.4160  -31.6660 C   0  0  0  0  0  0  0  0  0  0  0  0
   -5.0030   21.3590  -32.2310 C   0  0  0  0  0  0  0  0  0  0  0  0
   -5.5840   18.4930  -34.6460 C   0  0  0  0  0  0  0  0  0  0  0  0
   -4.7380   17.3660  -35.2490 C   0  0  0  0  0  0  0  0  0  0  0  0
   -6.8839   14.9617  -33.1596 H   0  0  0  0  0  0  0  0  0  0  0  0
   -6.6330   16.0952  -34.5303 H   0  0  0  0  0  0  0  0  0  0  0  0
   -5.8219   14.4925  -34.5303 H   0  0  0  0  0  0  0  0  0  0  0  0
   -4.4783   15.0685  -31.3338 H   0  0  0  0  0  0  0  0  0  0  0  0
   -4.8083   13.8850  -32.6442 H   0  0  0  0  0  0  0  0  0  0  0  0
   -3.2749   14.8206  -32.6442 H   0  0  0  0  0  0  0  0  0  0  0  0
   -3.5127   15.6666  -34.6006 H   0  0  0  0  0  0  0  0  0  0  0  0
   -2.4533   16.9481  -32.7622 H   0  0  0  0  0  0  0  0  0  0  0  0
   -2.4283   17.9498  -34.2763 H   0  0  0  0  0  0  0  0  0  0  0  0
   -4.0980   18.2724  -31.7794 H   0  0  0  0  0  0  0  0  0  0  0  0
   -3.0762   19.4793  -32.7204 H   0  0  0  0  0  0  0  0  0  0  0  0
   -7.7038   19.5473  -33.3662 H   0  0  0  0  0  0  0  0  0  0  0  0
   -8.9253   21.4978  -32.3747 H   0  0  0  0  0  0  0  0  0  0  0  0
   -8.5451   23.9785  -31.0260 H   0  0  0  0  0  0  0  0  0  0  0  0
   -4.7610   26.4900  -31.0710 H   0  0  0  0  0  0  0  0  0  0  0  0
   -5.4890   27.4930  -29.7730 H   0  0  0  0  0  0  0  0  0  0  0  0
   -3.9040   21.3498  -32.1854 H   0  0  0  0  0  0  0  0  0  0  0  0
   -6.5537   18.0682  -34.3472 H   0  0  0  0  0  0  0  0  0  0  0  0
   -5.6644   19.2652  -35.4253 H   0  0  0  0  0  0  0  0  0  0  0  0
   -5.3928   16.7062  -35.8371 H   0  0  0  0  0  0  0  0  0  0  0  0
   -3.9631   17.8240  -35.8812 H   0  0  0  0  0  0  0  0  0  0  0  0
  1  2  1  0
  2  3  1  0
  2  4  1  0
  4  5  1  0
  5  6  1  0
  6  7  1  0
  7  8  1  0
  8  9  2  0
  9 10  1  0
 10 11  2  0
 11 12  1  0
 12 13  2  0
 13 14  1  0
 14 15  1  0
 14 16  2  0
 13 17  1  0
 17 18  1  0
 18 19  2  0
 18 20  1  0
 17 21  1  0
 21 22  2  0
  7 23  1  0
 23 24  1  0
 24  4  1  0
 22  8  1  0
 21 11  1  0
  1 25  1  0
  1 26  1  0
  1 27  1  0
  3 28  1  0
  3 29  1  0
  3 30  1  0
  4 31  1  0
  5 32  1  0
  5 33  1  0
  6 34  1  0
  6 35  1  0
  9 36  1  0
 10 37  1  0
 12 38  1  0
 15 39  1  0
 15 40  1  0
 22 41  1  0
 23 42  1  0
 23 43  1  0
 24 44  1  0
 24 45  1  0
M  CHG  1  20  -1
M  END
>  <UniqueID>  (50) 
50

>  <SMILES>  (50) 
CN(C)C1CCN(c2ccc3cc(C(N)=O)n(C(=O)[O-])c3c2)CC1

>  <Energy>  (50) 
97.52209898660074

>  <Genealogy>  (50) 
CN(C)C1CCN(c2ccc3cc(C(N)=O)n(C(=O)[O-])c3c2)CC1 (protonated)
CN(C)C1CCN(c2ccc3cc(C(N)=O)n(C(=O)[O-])c3c2)CC1 (3D coordinates assigned)
CN(C)C1CCN(c2ccc3cc(C(N)=O)n(C(=O)[O-])c3c2)CC1 (nonaromatic ring conformer: 97.52209898660074 kcal/mol)

>  <smiles>  (50) 
CN(C)C1CCN(c2ccc3cc(C(N)=O)n(C(=O)O)c3c2)CC1

>  <score_type>  (50) 
oracle

>  <origin>  (50) 
adg

>  <m_score__min__energy>  (50) 
-9.4800000000000004

>  <m_primary>  (50) 
energy

$$$$
50:0
     RDKit          3D

 32 33  0  0  0  0  0  0  0  0999 V2000
   -6.1760   16.8370  -33.1100 C   0  0  0  0  0  0  0  0  0  0  0  0
   -6.1190   17.2000  -34.4730 O   0  0  0  0  0  0  0  0  0  0  0  0
   -5.6790   18.5390  -34.6100 C   0  0  0  0  0  0  0  0  0  0  0  0
   -4.9880   19.0260  -33.3300 C   0  0  0  0  0  0  0  0  0  0  0  0
   -5.7220   20.1920  -32.7210 C   0  0  0  0  0  0  0  0  0  0  0  0
   -7.1350   20.2640  -32.8040 C   0  0  0  0  0  0  0  0  0  0  0  0
   -7.8250   21.3690  -32.2800 C   0  0  0  0  0  0  0  0  0  0  0  0
   -7.0810   22.3800  -31.6800 C   0  0  0  0  0  0  0  0  0  0  0  0
   -7.4940   23.5720  -31.1320 C   0  0  0  0  0  0  0  0  0  0  0  0
   -6.3290   24.2010  -30.7020 C   0  0  0  0  0  0  0  0  0  0  0  0
   -6.3200   25.4970  -29.9940 C   0  0  0  0  0  0  0  0  0  0  0  0
   -5.4450   26.5520  -30.3930 N   0  0  0  0  0  0  0  0  0  0  0  0
   -7.0570   25.6550  -28.9850 O   0  0  0  0  0  0  0  0  0  0  0  0
   -5.2350   23.4380  -30.9860 N   0  0  0  0  0  0  0  0  0  0  0  0
   -3.8530   23.7910  -30.8060 C   0  0  0  0  0  0  0  0  0  0  0  0
   -2.9530   22.9170  -30.9190 O   0  0  0  0  0  0  0  0  0  0  0  0
   -3.4930   25.0980  -30.5040 O   0  0  0  0  0  0  0  0  0  0  0  0
   -5.7130   22.3220  -31.5820 C   0  0  0  0  0  0  0  0  0  0  0  0
   -4.9980   21.2440  -32.1160 C   0  0  0  0  0  0  0  0  0  0  0  0
   -6.0355   17.7319  -32.4860 H   0  0  0  0  0  0  0  0  0  0  0  0
   -7.1557   16.3874  -32.8909 H   0  0  0  0  0  0  0  0  0  0  0  0
   -5.3812   16.1088  -32.8909 H   0  0  0  0  0  0  0  0  0  0  0  0
   -4.9684   18.5999  -35.4475 H   0  0  0  0  0  0  0  0  0  0  0  0
   -6.5547   19.1773  -34.7993 H   0  0  0  0  0  0  0  0  0  0  0  0
   -4.9591   18.2014  -32.6025 H   0  0  0  0  0  0  0  0  0  0  0  0
   -3.9701   19.3533  -33.5882 H   0  0  0  0  0  0  0  0  0  0  0  0
   -7.6957   19.4477  -33.2828 H   0  0  0  0  0  0  0  0  0  0  0  0
   -8.9214   21.4334  -32.3421 H   0  0  0  0  0  0  0  0  0  0  0  0
   -8.5246   23.9479  -31.0509 H   0  0  0  0  0  0  0  0  0  0  0  0
   -5.4790   27.4740  -29.9050 H   0  0  0  0  0  0  0  0  0  0  0  0
   -4.7050   26.3950  -31.1130 H   0  0  0  0  0  0  0  0  0  0  0  0
   -3.8995   21.2162  -32.0660 H   0  0  0  0  0  0  0  0  0  0  0  0
  1  2  1  0
  2  3  1  0
  3  4  1  0
  4  5  1  0
  5  6  2  0
  6  7  1  0
  7  8  2  0
  8  9  1  0
  9 10  2  0
 10 11  1  0
 11 12  1  0
 11 13  2  0
 10 14  1  0
 14 15  1  0
 15 16  2  0
 15 17  1  0
 14 18  1  0
 18 19  2  0
 19  5  1  0
 18  8  1  0
  1 20  1  0
  1 21  1  0
  1 22  1  0
  3 23  1  0
  3 24  1  0
  4 25  1  0
  4 26  1  0
  6 27  1  0
  7 28  1  0
  9 29  1  0
 12 30  1  0
 12 31  1  0
 19 32  1  0
M  CHG  1  17  -1
M  END
>  <UniqueID>  (51) 
51

>  <SMILES>  (51) 
COCCc1ccc2cc(C(N)=O)n(C(=O)[O-])c2c1

>  <Energy>  (51) 
71.76293078298266

>  <Genealogy>  (51) 
COCCc1ccc2cc(C(N)=O)n(C(=O)[O-])c2c1 (protonated)
COCCc1ccc2cc(C(N)=O)n(C(=O)[O-])c2c1 (3D coordinates assigned)
COCCc1ccc2cc(C(N)=O)n(C(=O)[O-])c2c1 (optimized conformer: 71.76293078298266 kcal/mol)

>  <smiles>  (51) 
COCCc1ccc2cc(C(N)=O)n(C(=O)O)c2c1

>  <score_type>  (51) 
oracle

>  <origin>  (51) 
adg

>  <m_score__min__energy>  (51) 
-8.1999999999999993

>  <m_primary>  (51) 
energy

$$$$
51:0
     RDKit          3D

 38 40  0  0  0  0  0  0  0  0999 V2000
   -8.8670   18.3810  -31.5740 C   0  0  0  0  0  0  0  0  0  0  0  0
   -8.5610   19.2860  -32.6920 N   0  0  0  0  0  0  0  0  0  0  0  0
   -8.8730   20.6800  -32.3110 C   0  0  0  0  0  0  0  0  0  0  0  0
   -7.1850   19.0220  -33.1960 C   0  0  0  0  0  0  0  0  0  0  0  0
   -6.3580   20.2580  -33.3780 C   0  0  0  0  0  0  0  0  0  0  0  0
   -5.3440   19.9160  -32.3580 N   0  0  0  0  0  0  0  0  0  0  0  0
   -4.1630   20.5000  -31.8080 C   0  0  0  0  0  0  0  0  0  0  0  0
   -2.9330   19.8060  -31.8790 C   0  0  0  0  0  0  0  0  0  0  0  0
   -1.7600   20.3770  -31.3550 C   0  0  0  0  0  0  0  0  0  0  0  0
   -1.8550   21.6350  -30.7640 C   0  0  0  0  0  0  0  0  0  0  0  0
   -0.8780   22.4250  -30.2070 C   0  0  0  0  0  0  0  0  0  0  0  0
   -1.5330   23.5800  -29.7830 C   0  0  0  0  0  0  0  0  0  0  0  0
   -0.8600   24.6690  -29.0440 C   0  0  0  0  0  0  0  0  0  0  0  0
   -1.4750   25.9470  -28.9020 N   0  0  0  0  0  0  0  0  0  0  0  0
    0.2500   24.4530  -28.4900 O   0  0  0  0  0  0  0  0  0  0  0  0
   -2.8640   23.5100  -30.0760 N   0  0  0  0  0  0  0  0  0  0  0  0
   -3.8640   24.5230  -29.8840 C   0  0  0  0  0  0  0  0  0  0  0  0
   -4.7360   24.3940  -28.9850 O   0  0  0  0  0  0  0  0  0  0  0  0
   -3.8630   25.6670  -30.6710 O   0  0  0  0  0  0  0  0  0  0  0  0
   -3.0450   22.3110  -30.6740 C   0  0  0  0  0  0  0  0  0  0  0  0
   -4.2240   21.7730  -31.2050 C   0  0  0  0  0  0  0  0  0  0  0  0
   -6.1260   18.6750  -32.1870 C   0  0  0  0  0  0  0  0  0  0  0  0
   -8.6907   18.9023  -30.6215 H   0  0  0  0  0  0  0  0  0  0  0  0
   -9.9204   18.0696  -31.6321 H   0  0  0  0  0  0  0  0  0  0  0  0
   -8.2187   17.4942  -31.6321 H   0  0  0  0  0  0  0  0  0  0  0  0
   -8.8920   20.7649  -31.2144 H   0  0  0  0  0  0  0  0  0  0  0  0
   -8.1031   21.3523  -32.7175 H   0  0  0  0  0  0  0  0  0  0  0  0
   -9.8560   20.9600  -32.7175 H   0  0  0  0  0  0  0  0  0  0  0  0
   -7.4840   18.3278  -33.9952 H   0  0  0  0  0  0  0  0  0  0  0  0
   -5.9329   20.3400  -34.3892 H   0  0  0  0  0  0  0  0  0  0  0  0
   -6.8707   21.2254  -33.2717 H   0  0  0  0  0  0  0  0  0  0  0  0
   -2.8937   18.8117  -32.3478 H   0  0  0  0  0  0  0  0  0  0  0  0
   -0.7976   19.8472  -31.4099 H   0  0  0  0  0  0  0  0  0  0  0  0
    0.1937   22.1946  -30.1153 H   0  0  0  0  0  0  0  0  0  0  0  0
   -2.5130   26.0530  -28.9590 H   0  0  0  0  0  0  0  0  0  0  0  0
   -5.1720   22.3286  -31.1530 H   0  0  0  0  0  0  0  0  0  0  0  0
   -5.5581   17.7731  -32.4590 H   0  0  0  0  0  0  0  0  0  0  0  0
   -6.4620   18.4278  -31.1692 H   0  0  0  0  0  0  0  0  0  0  0  0
  1  2  1  0
  2  3  1  0
  2  4  1  0
  4  5  1  0
  5  6  1  0
  6  7  1  0
  7  8  2  0
  8  9  1  0
  9 10  2  0
 10 11  1  0
 11 12  2  0
 12 13  1  0
 13 14  1  0
 13 15  2  0
 12 16  1  0
 16 17  1  0
 17 18  2  0
 17 19  1  0
 16 20  1  0
 20 21  2  0
  6 22  1  0
 22  4  1  0
 21  7  1  0
 20 10  1  0
  1 23  1  0
  1 24  1  0
  1 25  1  0
  3 26  1  0
  3 27  1  0
  3 28  1  0
  4 29  1  0
  5 30  1  0
  5 31  1  0
  8 32  1  0
  9 33  1  0
 11 34  1  0
 14 35  1  0
 21 36  1  0
 22 37  1  0
 22 38  1  0
M  CHG  2  14  -1  19  -1
M  END
>  <UniqueID>  (52) 
52

>  <SMILES>  (52) 
CN(C)C1CN(c2ccc3cc(C([NH-])=O)n(C(=O)[O-])c3c2)C1

>  <Energy>  (52) 
131.50146616977344

>  <Genealogy>  (52) 
CN(C)C1CN(c2ccc3cc(C([NH-])=O)n(C(=O)[O-])c3c2)C1 (protonated)
CN(C)C1CN(c2ccc3cc(C([NH-])=O)n(C(=O)[O-])c3c2)C1 (3D coordinates assigned)
CN(C)C1CN(c2ccc3cc(C([NH-])=O)n(C(=O)[O-])c3c2)C1 (nonaromatic ring conformer: 131.50146616977344 kcal/mol)

>  <smiles>  (52) 
CN(C)C1CN(c2ccc3cc(C(N)=O)n(C(=O)O)c3c2)C1

>  <score_type>  (52) 
oracle

>  <origin>  (52) 
adg

>  <m_score__min__energy>  (52) 
-11.359999999999999

>  <m_primary>  (52) 
energy

$$$$
52:0
     RDKit          3D

 28 29  0  0  0  0  0  0  0  0999 V2000
   -3.7030   25.1710  -30.4660 N   0  0  0  0  0  0  0  0  0  0  0  0
   -5.1060   25.2460  -30.7120 C   0  0  0  0  0  0  0  0  0  0  0  0
   -5.6990   26.3490  -30.5690 O   0  0  0  0  0  0  0  0  0  0  0  0
   -5.8770   24.0410  -31.0800 C   0  0  0  0  0  0  0  0  0  0  0  0
   -7.2390   23.8920  -30.8220 C   0  0  0  0  0  0  0  0  0  0  0  0
   -7.5490   22.6120  -31.2230 C   0  0  0  0  0  0  0  0  0  0  0  0
   -8.7620   21.9320  -31.1930 C   0  0  0  0  0  0  0  0  0  0  0  0
   -8.7930   20.6180  -31.6890 C   0  0  0  0  0  0  0  0  0  0  0  0
   -7.6220   20.0170  -32.2160 C   0  0  0  0  0  0  0  0  0  0  0  0
   -7.6640   18.6030  -32.7220 C   0  0  0  0  0  0  0  0  0  0  0  0
   -6.4330   18.3060  -33.5170 C   0  0  0  0  0  0  0  0  0  0  0  0
   -6.1410   19.0100  -34.5200 O   0  0  0  0  0  0  0  0  0  0  0  0
   -5.6320   17.2220  -33.1820 O   0  0  0  0  0  0  0  0  0  0  0  0
   -6.4060   20.7350  -32.2190 C   0  0  0  0  0  0  0  0  0  0  0  0
   -6.4010   22.0360  -31.7040 C   0  0  0  0  0  0  0  0  0  0  0  0
   -5.3680   22.9020  -31.6280 N   0  0  0  0  0  0  0  0  0  0  0  0
   -4.0350   22.6730  -32.1110 C   0  0  0  0  0  0  0  0  0  0  0  0
   -3.8120   22.3000  -33.4700 N   0  0  0  0  0  0  0  0  0  0  0  0
   -3.0560   22.7670  -31.3240 O   0  0  0  0  0  0  0  0  0  0  0  0
   -3.0370   24.9250  -31.2310 H   0  0  0  0  0  0  0  0  0  0  0  0
   -7.9212   24.6388  -30.3897 H   0  0  0  0  0  0  0  0  0  0  0  0
   -9.6692   22.4085  -30.7932 H   0  0  0  0  0  0  0  0  0  0  0  0
   -9.7348   20.0500  -31.6683 H   0  0  0  0  0  0  0  0  0  0  0  0
   -7.7211   17.9123  -31.8678 H   0  0  0  0  0  0  0  0  0  0  0  0
   -8.5475   18.4763  -33.3649 H   0  0  0  0  0  0  0  0  0  0  0  0
   -5.4854   20.2827  -32.6164 H   0  0  0  0  0  0  0  0  0  0  0  0
   -4.6170   22.1430  -34.1160 H   0  0  0  0  0  0  0  0  0  0  0  0
   -2.8420   22.1460  -33.8230 H   0  0  0  0  0  0  0  0  0  0  0  0
  1  2  1  0
  2  3  2  0
  2  4  1  0
  4  5  2  0
  5  6  1  0
  6  7  2  0
  7  8  1  0
  8  9  2  0
  9 10  1  0
 10 11  1  0
 11 12  2  0
 11 13  1  0
  9 14  1  0
 14 15  2  0
 15 16  1  0
 16 17  1  0
 17 18  1  0
 17 19  2  0
 16  4  1  0
 15  6  1  0
  1 20  1  0
  5 21  1  0
  7 22  1  0
  8 23  1  0
 10 24  1  0
 10 25  1  0
 14 26  1  0
 18 27  1  0
 18 28  1  0
M  CHG  2   1  -1  13  -1
M  END
>  <UniqueID>  (53) 
53

>  <SMILES>  (53) 
[NH-]C(=O)c1cc2ccc(CC(=O)[O-])cc2n1C(N)=O

>  <Energy>  (53) 
65.40258310512515

>  <Genealogy>  (53) 
[NH-]C(=O)c1cc2ccc(CC(=O)[O-])cc2n1C(N)=O (protonated)
[NH-]C(=O)c1cc2ccc(CC(=O)[O-])cc2n1C(N)=O (3D coordinates assigned)
[NH-]C(=O)c1cc2ccc(CC(=O)[O-])cc2n1C(N)=O (optimized conformer: 65.40258310512515 kcal/mol)

>  <smiles>  (53) 
NC(=O)c1cc2ccc(CC(=O)O)cc2n1C(N)=O

>  <score_type>  (53) 
oracle

>  <origin>  (53) 
adg

>  <m_score__min__energy>  (53) 
-10.33

>  <m_primary>  (53) 
energy

$$$$
53:0
     RDKit          3D

 50 53  0  0  0  0  0  0  0  0999 V2000
   -4.4000   12.4100  -31.8550 C   0  0  0  0  0  0  0  0  0  0  0  0
   -4.5420   13.8190  -32.3270 C   0  0  0  0  0  0  0  0  0  0  0  0
   -4.2990   14.2550  -33.6300 C   0  0  0  0  0  0  0  0  0  0  0  0
   -4.6240   15.5940  -33.6140 C   0  0  0  0  0  0  0  0  0  0  0  0
   -4.5970   16.5750  -34.5910 C   0  0  0  0  0  0  0  0  0  0  0  0
   -4.1730   16.2990  -35.8490 F   0  0  0  0  0  0  0  0  0  0  0  0
   -4.9990   17.8360  -34.2480 N   0  0  0  0  0  0  0  0  0  0  0  0
   -5.4300   18.1280  -32.9720 C   0  0  0  0  0  0  0  0  0  0  0  0
   -5.8680   19.4980  -32.6060 C   0  0  0  0  0  0  0  0  0  0  0  0
   -7.2340   19.8770  -32.6950 C   0  0  0  0  0  0  0  0  0  0  0  0
   -7.6470   21.1690  -32.3270 C   0  0  0  0  0  0  0  0  0  0  0  0
   -6.6790   22.0610  -31.8770 C   0  0  0  0  0  0  0  0  0  0  0  0
   -6.8090   23.3560  -31.4330 C   0  0  0  0  0  0  0  0  0  0  0  0
   -5.5200   23.7600  -31.0880 C   0  0  0  0  0  0  0  0  0  0  0  0
   -5.1880   25.1250  -30.6320 C   0  0  0  0  0  0  0  0  0  0  0  0
   -3.8810   25.6500  -30.8580 N   0  0  0  0  0  0  0  0  0  0  0  0
   -6.0330   25.8230  -30.0140 O   0  0  0  0  0  0  0  0  0  0  0  0
   -4.6300   22.7500  -31.3050 N   0  0  0  0  0  0  0  0  0  0  0  0
   -3.2260   22.7400  -31.0050 C   0  0  0  0  0  0  0  0  0  0  0  0
   -2.8280   23.1230  -29.8730 O   0  0  0  0  0  0  0  0  0  0  0  0
   -2.3140   22.3250  -31.9880 O   0  0  0  0  0  0  0  0  0  0  0  0
   -1.6160   21.0720  -32.0270 C   0  0  0  0  0  0  0  0  0  0  0  0
   -2.0530   20.3510  -33.3110 C   0  0  0  0  0  0  0  0  0  0  0  0
   -0.0940   21.3000  -32.0750 C   0  0  0  0  0  0  0  0  0  0  0  0
   -1.9980   20.2000  -30.8150 C   0  0  0  0  0  0  0  0  0  0  0  0
   -5.3550   21.7190  -31.7900 C   0  0  0  0  0  0  0  0  0  0  0  0
   -4.9170   20.4330  -32.1310 C   0  0  0  0  0  0  0  0  0  0  0  0
   -5.4450   17.1450  -32.0170 N   0  0  0  0  0  0  0  0  0  0  0  0
   -5.0420   15.8990  -32.3570 C   0  0  0  0  0  0  0  0  0  0  0  0
   -5.0080   14.8280  -31.5510 N   0  0  0  0  0  0  0  0  0  0  0  0
   -4.3980   12.3902  -30.7552 H   0  0  0  0  0  0  0  0  0  0  0  0
   -5.2423   11.8107  -32.2310 H   0  0  0  0  0  0  0  0  0  0  0  0
   -3.4551   11.9908  -32.2310 H   0  0  0  0  0  0  0  0  0  0  0  0
   -3.9303   13.6622  -34.4801 H   0  0  0  0  0  0  0  0  0  0  0  0
   -4.9430   18.5810  -34.9770 H   0  0  0  0  0  0  0  0  0  0  0  0
   -7.9772   19.1509  -33.0561 H   0  0  0  0  0  0  0  0  0  0  0  0
   -8.7041   21.4660  -32.3928 H   0  0  0  0  0  0  0  0  0  0  0  0
   -7.7338   23.9476  -31.3646 H   0  0  0  0  0  0  0  0  0  0  0  0
   -3.0390   25.1860  -30.4530 H   0  0  0  0  0  0  0  0  0  0  0  0
   -2.6067   19.4375  -33.0483 H   0  0  0  0  0  0  0  0  0  0  0  0
   -2.7007   21.0151  -33.9021 H   0  0  0  0  0  0  0  0  0  0  0  0
   -1.1646   20.0840  -33.9021 H   0  0  0  0  0  0  0  0  0  0  0  0
    0.3004   21.3591  -31.0498 H   0  0  0  0  0  0  0  0  0  0  0  0
    0.3855   20.4637  -32.6047 H   0  0  0  0  0  0  0  0  0  0  0  0
    0.1194   22.2401  -32.6047 H   0  0  0  0  0  0  0  0  0  0  0  0
   -1.7616   20.7396  -29.8860 H   0  0  0  0  0  0  0  0  0  0  0  0
   -3.0752   19.9794  -30.8470 H   0  0  0  0  0  0  0  0  0  0  0  0
   -1.4298   19.2586  -30.8470 H   0  0  0  0  0  0  0  0  0  0  0  0
   -3.8572   20.1556  -32.0319 H   0  0  0  0  0  0  0  0  0  0  0  0
   -5.2890   14.7810  -30.5460 H   0  0  0  0  0  0  0  0  0  0  0  0
  1  2  1  0
  2  3  2  0
  3  4  1  0
  4  5  2  0
  5  6  1  0
  5  7  1  0
  7  8  2  0
  8  9  1  0
  9 10  2  0
 10 11  1  0
 11 12  2  0
 12 13  1  0
 13 14  2  0
 14 15  1  0
 15 16  1  0
 15 17  2  0
 14 18  1  0
 18 19  1  0
 19 20  2  0
 19 21  1  0
 21 22  1  0
 22 23  1  0
 22 24  1  0
 22 25  1  0
 18 26  1  0
 26 27  2  0
  8 28  1  0
 28 29  2  0
 29 30  1  0
 30  2  1  0
 29  4  1  0
 27  9  1  0
 26 12  1  0
  1 31  1  0
  1 32  1  0
  1 33  1  0
  3 34  1  0
  7 35  1  0
 10 36  1  0
 11 37  1  0
 13 38  1  0
 16 39  1  0
 23 40  1  0
 23 41  1  0
 23 42  1  0
 24 43  1  0
 24 44  1  0
 24 45  1  0
 25 46  1  0
 25 47  1  0
 25 48  1  0
 27 49  1  0
 30 50  1  0
M  CHG  2   7   1  16  -1
M  END
>  <UniqueID>  (54) 
54

>  <SMILES>  (54) 
Cc1cc2c(F)[nH+]c(-c3ccc4cc(C([NH-])=O)n(C(=O)OC(C)(C)C)c4c3)nc2[nH]1

>  <Energy>  (54) 
125.35961347303707

>  <Genealogy>  (54) 
Cc1cc2c(F)[nH+]c(-c3ccc4cc(C([NH-])=O)n(C(=O)OC(C)(C)C)c4c3)nc2[nH]1 (protonated)
Cc1cc2c(F)[nH+]c(-c3ccc4cc(C([NH-])=O)n(C(=O)OC(C)(C)C)c4c3)nc2[nH]1 (3D coordinates assigned)
Cc1cc2c(F)[nH+]c(-c3ccc4cc(C([NH-])=O)n(C(=O)OC(C)(C)C)c4c3)nc2[nH]1 (optimized conformer: 125.35961347303707 kcal/mol)

>  <smiles>  (54) 
Cc1cc2c(F)nc(-c3ccc4cc(C(N)=O)n(C(=O)OC(C)(C)C)c4c3)nc2[nH]1

>  <score_type>  (54) 
oracle

>  <origin>  (54) 
adg

>  <m_score__min__energy>  (54) 
-11.199999999999999

>  <m_primary>  (54) 
energy

$$$$
54:0
     RDKit          3D

 38 39  0  0  0  0  0  0  0  0999 V2000
   -2.8800   21.6780  -28.1220 C   0  0  0  0  0  0  0  0  0  0  0  0
   -3.4610   22.9650  -28.7170 C   0  0  0  0  0  0  0  0  0  0  0  0
   -3.0670   24.1990  -27.8990 C   0  0  0  0  0  0  0  0  0  0  0  0
   -3.0750   23.1170  -30.1230 N   0  0  0  0  0  0  0  0  0  0  0  0
   -3.8130   22.6480  -31.2600 C   0  0  0  0  0  0  0  0  0  0  0  0
   -3.2090   22.1700  -32.2580 O   0  0  0  0  0  0  0  0  0  0  0  0
   -5.2480   22.7300  -31.2640 N   0  0  0  0  0  0  0  0  0  0  0  0
   -6.0140   23.8310  -31.0220 C   0  0  0  0  0  0  0  0  0  0  0  0
   -5.5240   25.1340  -30.5330 C   0  0  0  0  0  0  0  0  0  0  0  0
   -4.1900   25.5690  -30.7970 N   0  0  0  0  0  0  0  0  0  0  0  0
   -6.2760   25.8490  -29.8180 O   0  0  0  0  0  0  0  0  0  0  0  0
   -7.3610   23.5470  -31.2280 C   0  0  0  0  0  0  0  0  0  0  0  0
   -7.4010   22.2220  -31.5950 C   0  0  0  0  0  0  0  0  0  0  0  0
   -8.4890   21.4150  -31.9110 C   0  0  0  0  0  0  0  0  0  0  0  0
   -8.2380   20.0820  -32.2750 C   0  0  0  0  0  0  0  0  0  0  0  0
   -6.9090   19.5840  -32.3390 C   0  0  0  0  0  0  0  0  0  0  0  0
   -6.6540   18.1370  -32.7030 C   0  0  0  0  0  0  0  0  0  0  0  0
   -5.9090   17.5200  -31.7090 F   0  0  0  0  0  0  0  0  0  0  0  0
   -7.8560   17.4560  -32.8110 F   0  0  0  0  0  0  0  0  0  0  0  0
   -5.8980   18.0330  -34.0330 C   0  0  0  0  0  0  0  0  0  0  0  0
   -6.1260   19.1600  -34.8050 F   0  0  0  0  0  0  0  0  0  0  0  0
   -4.5400   17.9290  -33.7870 F   0  0  0  0  0  0  0  0  0  0  0  0
   -6.3110   16.9140  -34.7340 F   0  0  0  0  0  0  0  0  0  0  0  0
   -5.8310   20.4340  -31.9930 C   0  0  0  0  0  0  0  0  0  0  0  0
   -6.1130   21.7510  -31.6130 C   0  0  0  0  0  0  0  0  0  0  0  0
   -2.9067   21.7371  -27.0239 H   0  0  0  0  0  0  0  0  0  0  0  0
   -3.4767   20.8170  -28.4575 H   0  0  0  0  0  0  0  0  0  0  0  0
   -1.8395   21.5561  -28.4575 H   0  0  0  0  0  0  0  0  0  0  0  0
   -4.5568   22.8807  -28.6721 H   0  0  0  0  0  0  0  0  0  0  0  0
   -3.1411   23.9668  -26.8263 H   0  0  0  0  0  0  0  0  0  0  0  0
   -2.0329   24.4849  -28.1417 H   0  0  0  0  0  0  0  0  0  0  0  0
   -3.7441   25.0313  -28.1417 H   0  0  0  0  0  0  0  0  0  0  0  0
   -3.4920   24.9270  -31.2340 H   0  0  0  0  0  0  0  0  0  0  0  0
   -3.8690   26.5060  -30.4680 H   0  0  0  0  0  0  0  0  0  0  0  0
   -8.2121   24.2355  -31.1203 H   0  0  0  0  0  0  0  0  0  0  0  0
   -9.5154   21.8091  -31.8768 H   0  0  0  0  0  0  0  0  0  0  0  0
   -9.0802   19.4158  -32.5133 H   0  0  0  0  0  0  0  0  0  0  0  0
   -4.7944   20.0672  -32.0222 H   0  0  0  0  0  0  0  0  0  0  0  0
  1  2  1  0
  2  3  1  0
  2  4  1  0
  4  5  1  0
  5  6  2  0
  5  7  1  0
  7  8  1  0
  8  9  1  0
  9 10  1  0
  9 11  2  0
  8 12  2  0
 12 13  1  0
 13 14  2  0
 14 15  1  0
 15 16  2  0
 16 17  1  0
 17 18  1  0
 17 19  1  0
 17 20  1  0
 20 21  1  0
 20 22  1  0
 20 23  1  0
 16 24  1  0
 24 25  2  0
 25  7  1  0
 25 13  1  0
  1 26  1  0
  1 27  1  0
  1 28  1  0
  2 29  1  0
  3 30  1  0
  3 31  1  0
  3 32  1  0
 10 33  1  0
 10 34  1  0
 12 35  1  0
 14 36  1  0
 15 37  1  0
 24 38  1  0
M  CHG  1   4  -1
M  END
>  <UniqueID>  (55) 
55

>  <SMILES>  (55) 
CC(C)[N-]C(=O)n1c(C(N)=O)cc2ccc(C(F)(F)C(F)(F)F)cc21

>  <Energy>  (55) 
71.58353815783522

>  <Genealogy>  (55) 
CC(C)[N-]C(=O)n1c(C(N)=O)cc2ccc(C(F)(F)C(F)(F)F)cc21 (protonated)
CC(C)[N-]C(=O)n1c(C(N)=O)cc2ccc(C(F)(F)C(F)(F)F)cc21 (3D coordinates assigned)
CC(C)[N-]C(=O)n1c(C(N)=O)cc2ccc(C(F)(F)C(F)(F)F)cc21 (optimized conformer: 71.58353815783522 kcal/mol)

>  <smiles>  (55) 
CC(C)NC(=O)n1c(C(N)=O)cc2ccc(C(F)(F)C(F)(F)F)cc21

>  <score_type>  (55) 
oracle

>  <origin>  (55) 
adg

>  <m_score__min__energy>  (55) 
-8.4700000000000006

>  <m_primary>  (55) 
energy

$$$$
55:0
     RDKit          3D

 30 32  0  0  0  0  0  0  0  0999 V2000
   -1.3730   25.8630  -28.9680 N   0  0  0  0  0  0  0  0  0  0  0  0
   -0.8500   24.5490  -29.1450 C   0  0  0  0  0  0  0  0  0  0  0  0
    0.2790   24.2650  -28.6640 O   0  0  0  0  0  0  0  0  0  0  0  0
   -1.6380   23.5020  -29.8310 C   0  0  0  0  0  0  0  0  0  0  0  0
   -1.0900   22.3000  -30.2700 C   0  0  0  0  0  0  0  0  0  0  0  0
   -2.1490   21.5750  -30.7660 C   0  0  0  0  0  0  0  0  0  0  0  0
   -2.1770   20.3100  -31.3420 C   0  0  0  0  0  0  0  0  0  0  0  0
   -3.4110   19.8190  -31.7960 C   0  0  0  0  0  0  0  0  0  0  0  0
   -4.5930   20.5970  -31.6760 C   0  0  0  0  0  0  0  0  0  0  0  0
   -5.8910   20.0720  -32.1720 C   0  0  0  0  0  0  0  0  0  0  0  0
   -6.0340   18.7230  -32.5290 C   0  0  0  0  0  0  0  0  0  0  0  0
   -7.2640   18.2600  -32.9920 C   0  0  0  0  0  0  0  0  0  0  0  0
   -8.3110   19.1210  -33.0910 N   0  0  0  0  0  0  0  0  0  0  0  0
   -8.1860   20.4040  -32.7530 N   0  0  0  0  0  0  0  0  0  0  0  0
   -7.0090   20.9100  -32.2980 C   0  0  0  0  0  0  0  0  0  0  0  0
   -4.5210   21.8800  -31.0840 C   0  0  0  0  0  0  0  0  0  0  0  0
   -3.2810   22.3360  -30.6230 C   0  0  0  0  0  0  0  0  0  0  0  0
   -2.9830   23.5250  -30.0540 N   0  0  0  0  0  0  0  0  0  0  0  0
   -3.8970   24.6100  -29.8230 C   0  0  0  0  0  0  0  0  0  0  0  0
   -3.8620   25.6380  -30.5500 O   0  0  0  0  0  0  0  0  0  0  0  0
   -4.8450   24.5230  -28.8110 O   0  0  0  0  0  0  0  0  0  0  0  0
   -2.4020   26.0370  -28.9790 H   0  0  0  0  0  0  0  0  0  0  0  0
   -0.0341   21.9945  -30.2290 H   0  0  0  0  0  0  0  0  0  0  0  0
   -1.2591   19.7116  -31.4391 H   0  0  0  0  0  0  0  0  0  0  0  0
   -3.4633   18.8187  -32.2506 H   0  0  0  0  0  0  0  0  0  0  0  0
   -5.1802   18.0347  -32.4439 H   0  0  0  0  0  0  0  0  0  0  0  0
   -7.3869   17.2043  -33.2756 H   0  0  0  0  0  0  0  0  0  0  0  0
   -9.2320   18.7710  -33.4370 H   0  0  0  0  0  0  0  0  0  0  0  0
   -6.9335   21.9740  -32.0293 H   0  0  0  0  0  0  0  0  0  0  0  0
   -5.4206   22.5057  -30.9882 H   0  0  0  0  0  0  0  0  0  0  0  0
  1  2  1  0
  2  3  2  0
  2  4  1  0
  4  5  2  0
  5  6  1  0
  6  7  2  0
  7  8  1  0
  8  9  2  0
  9 10  1  0
 10 11  2  0
 11 12  1  0
 12 13  2  0
 13 14  1  0
 14 15  2  0
  9 16  1  0
 16 17  2  0
 17 18  1  0
 18 19  1  0
 19 20  2  0
 19 21  1  0
 18  4  1  0
 17  6  1  0
 15 10  1  0
  1 22  1  0
  5 23  1  0
  7 24  1  0
  8 25  1  0
 11 26  1  0
 12 27  1  0
 13 28  1  0
 15 29  1  0
 16 30  1  0
M  CHG  3   1  -1  13   1  21  -1
M  END
>  <UniqueID>  (56) 
56

>  <SMILES>  (56) 
[NH-]C(=O)c1cc2ccc(-c3cc[nH+]nc3)cc2n1C(=O)[O-]

>  <Energy>  (56) 
78.49602868889501

>  <Genealogy>  (56) 
[NH-]C(=O)c1cc2ccc(-c3cc[nH+]nc3)cc2n1C(=O)[O-] (protonated)
[NH-]C(=O)c1cc2ccc(-c3cc[nH+]nc3)cc2n1C(=O)[O-] (3D coordinates assigned)
[NH-]C(=O)c1cc2ccc(-c3cc[nH+]nc3)cc2n1C(=O)[O-] (optimized conformer: 78.49602868889501 kcal/mol)

>  <smiles>  (56) 
NC(=O)c1cc2ccc(-c3ccnnc3)cc2n1C(=O)O

>  <score_type>  (56) 
oracle

>  <origin>  (56) 
adg

>  <m_score__min__energy>  (56) 
-10.98

>  <m_primary>  (56) 
energy

$$$$
56:0
     RDKit          3D

 36 38  0  0  0  0  0  0  0  0999 V2000
   -3.1700   24.6610  -29.9480 N   0  0  0  0  0  0  0  0  0  0  0  0
   -4.4710   24.8680  -30.4910 C   0  0  0  0  0  0  0  0  0  0  0  0
   -4.8290   26.0330  -30.8080 O   0  0  0  0  0  0  0  0  0  0  0  0
   -5.3840   23.7310  -30.7320 C   0  0  0  0  0  0  0  0  0  0  0  0
   -6.6970   23.6880  -30.2670 C   0  0  0  0  0  0  0  0  0  0  0  0
   -7.2290   22.5270  -30.7820 C   0  0  0  0  0  0  0  0  0  0  0  0
   -8.5030   21.9850  -30.6400 C   0  0  0  0  0  0  0  0  0  0  0  0
   -8.7710   20.7600  -31.2740 C   0  0  0  0  0  0  0  0  0  0  0  0
   -7.7640   20.0970  -32.0180 C   0  0  0  0  0  0  0  0  0  0  0  0
   -8.0710   18.8010  -32.7190 C   0  0  0  0  0  0  0  0  0  0  0  0
   -6.7940   18.0920  -33.0770 C   0  0  0  0  0  0  0  0  0  0  0  0
   -6.1160   18.4100  -34.2660 C   0  0  0  0  0  0  0  0  0  0  0  0
   -4.9090   17.7770  -34.5800 C   0  0  0  0  0  0  0  0  0  0  0  0
   -4.3680   16.8290  -33.7080 C   0  0  0  0  0  0  0  0  0  0  0  0
   -3.1970   16.2170  -34.0130 F   0  0  0  0  0  0  0  0  0  0  0  0
   -5.0300   16.5160  -32.5180 C   0  0  0  0  0  0  0  0  0  0  0  0
   -6.2360   17.1470  -32.1990 C   0  0  0  0  0  0  0  0  0  0  0  0
   -6.4840   20.6830  -32.1480 C   0  0  0  0  0  0  0  0  0  0  0  0
   -6.2520   21.9110  -31.5190 C   0  0  0  0  0  0  0  0  0  0  0  0
   -5.1120   22.6340  -31.4940 N   0  0  0  0  0  0  0  0  0  0  0  0
   -3.8610   22.2620  -32.0920 C   0  0  0  0  0  0  0  0  0  0  0  0
   -2.6400   22.4190  -31.3690 N   0  0  0  0  0  0  0  0  0  0  0  0
   -3.8390   21.7610  -33.2470 O   0  0  0  0  0  0  0  0  0  0  0  0
   -2.3820   25.3040  -30.1820 H   0  0  0  0  0  0  0  0  0  0  0  0
   -7.2014   24.4251  -29.6249 H   0  0  0  0  0  0  0  0  0  0  0  0
   -9.2758   22.4994  -30.0500 H   0  0  0  0  0  0  0  0  0  0  0  0
   -9.7721   20.3116  -31.1919 H   0  0  0  0  0  0  0  0  0  0  0  0
   -8.6687   18.1603  -32.0539 H   0  0  0  0  0  0  0  0  0  0  0  0
   -8.6346   19.0142  -33.6393 H   0  0  0  0  0  0  0  0  0  0  0  0
   -6.5362   19.1597  -34.9525 H   0  0  0  0  0  0  0  0  0  0  0  0
   -4.3851   18.0259  -35.5146 H   0  0  0  0  0  0  0  0  0  0  0  0
   -4.6014   15.7716  -31.8308 H   0  0  0  0  0  0  0  0  0  0  0  0
   -6.7500   16.9030  -31.2576 H   0  0  0  0  0  0  0  0  0  0  0  0
   -5.6919   20.1869  -32.7280 H   0  0  0  0  0  0  0  0  0  0  0  0
   -1.7290   22.1580  -31.8090 H   0  0  0  0  0  0  0  0  0  0  0  0
   -2.6460   22.7610  -30.3820 H   0  0  0  0  0  0  0  0  0  0  0  0
  1  2  1  0
  2  3  2  0
  2  4  1  0
  4  5  2  0
  5  6  1  0
  6  7  2  0
  7  8  1  0
  8  9  2  0
  9 10  1  0
 10 11  1  0
 11 12  2  0
 12 13  1  0
 13 14  2  0
 14 15  1  0
 14 16  1  0
 16 17  2  0
  9 18  1  0
 18 19  2  0
 19 20  1  0
 20 21  1  0
 21 22  1  0
 21 23  2  0
 20  4  1  0
 19  6  1  0
 17 11  1  0
  1 24  1  0
  5 25  1  0
  7 26  1  0
  8 27  1  0
 10 28  1  0
 10 29  1  0
 12 30  1  0
 13 31  1  0
 16 32  1  0
 17 33  1  0
 18 34  1  0
 22 35  1  0
 22 36  1  0
M  CHG  1   1  -1
M  END
>  <UniqueID>  (57) 
57

>  <SMILES>  (57) 
[NH-]C(=O)c1cc2ccc(Cc3ccc(F)cc3)cc2n1C(N)=O

>  <Energy>  (57) 
75.69746909502445

>  <Genealogy>  (57) 
[NH-]C(=O)c1cc2ccc(Cc3ccc(F)cc3)cc2n1C(N)=O (protonated)
[NH-]C(=O)c1cc2ccc(Cc3ccc(F)cc3)cc2n1C(N)=O (3D coordinates assigned)
[NH-]C(=O)c1cc2ccc(Cc3ccc(F)cc3)cc2n1C(N)=O (optimized conformer: 75.69746909502445 kcal/mol)

>  <smiles>  (57) 
NC(=O)c1cc2ccc(Cc3ccc(F)cc3)cc2n1C(N)=O

>  <score_type>  (57) 
oracle

>  <origin>  (57) 
adg

>  <m_score__min__energy>  (57) 
-11.57

>  <m_primary>  (57) 
energy

$$$$
57:0
     RDKit          3D

 50 52  0  0  0  0  0  0  0  0999 V2000
   -6.8110   18.2710  -32.1020 C   0  0  0  0  0  0  0  0  0  0  0  0
   -6.9750   19.7470  -31.8960 C   0  0  0  0  0  0  0  0  0  0  0  0
   -8.2150   20.3700  -32.1860 C   0  0  0  0  0  0  0  0  0  0  0  0
   -8.3680   21.7600  -32.0390 C   0  0  0  0  0  0  0  0  0  0  0  0
   -7.2680   22.4950  -31.6060 C   0  0  0  0  0  0  0  0  0  0  0  0
   -7.1300   23.8500  -31.4030 C   0  0  0  0  0  0  0  0  0  0  0  0
   -5.8090   24.0300  -30.9930 C   0  0  0  0  0  0  0  0  0  0  0  0
   -5.2370   25.3410  -30.6180 C   0  0  0  0  0  0  0  0  0  0  0  0
   -3.8600   25.6330  -30.8430 N   0  0  0  0  0  0  0  0  0  0  0  0
   -5.9690   26.2060  -30.0670 O   0  0  0  0  0  0  0  0  0  0  0  0
   -5.1600   22.8330  -30.9430 N   0  0  0  0  0  0  0  0  0  0  0  0
   -3.7750   22.5940  -30.6440 C   0  0  0  0  0  0  0  0  0  0  0  0
   -3.3180   22.9590  -29.5270 O   0  0  0  0  0  0  0  0  0  0  0  0
   -2.8830   21.9440  -31.6320 C   0  0  0  0  0  0  0  0  0  0  0  0
   -1.5350   21.7000  -31.3220 C   0  0  0  0  0  0  0  0  0  0  0  0
   -0.6870   21.0980  -32.2560 C   0  0  0  0  0  0  0  0  0  0  0  0
   -1.1730   20.7290  -33.5240 C   0  0  0  0  0  0  0  0  0  0  0  0
   -0.3780   20.1260  -34.5120 O   0  0  0  0  0  0  0  0  0  0  0  0
    0.9260   20.8440  -35.3670 S   0  0  0  0  0  0  0  0  0  0  0  0
    0.9760   22.2950  -34.9710 O   0  0  0  0  0  0  0  0  0  0  0  0
    0.6920   20.7790  -36.8510 O   0  0  0  0  0  0  0  0  0  0  0  0
    2.4540   20.0880  -34.9470 N   0  0  0  0  0  0  0  0  0  0  0  0
    2.4010   19.6550  -33.5360 C   0  0  0  0  0  0  0  0  0  0  0  0
    2.7010   18.9200  -35.8150 C   0  0  0  0  0  0  0  0  0  0  0  0
    3.5420   21.0720  -35.1260 C   0  0  0  0  0  0  0  0  0  0  0  0
   -2.5210   20.9510  -33.8220 C   0  0  0  0  0  0  0  0  0  0  0  0
   -3.3710   21.5510  -32.8900 C   0  0  0  0  0  0  0  0  0  0  0  0
   -6.0630   21.9060  -31.3260 C   0  0  0  0  0  0  0  0  0  0  0  0
   -5.8760   20.5280  -31.4800 C   0  0  0  0  0  0  0  0  0  0  0  0
   -6.7552   17.7684  -31.1251 H   0  0  0  0  0  0  0  0  0  0  0  0
   -7.6714   17.8817  -32.6660 H   0  0  0  0  0  0  0  0  0  0  0  0
   -5.8861   18.0800  -32.6660 H   0  0  0  0  0  0  0  0  0  0  0  0
   -9.0644   19.7610  -32.5288 H   0  0  0  0  0  0  0  0  0  0  0  0
   -9.3272   22.2514  -32.2593 H   0  0  0  0  0  0  0  0  0  0  0  0
   -7.8984   24.6258  -31.5360 H   0  0  0  0  0  0  0  0  0  0  0  0
   -3.1110   25.0100  -30.4680 H   0  0  0  0  0  0  0  0  0  0  0  0
   -1.1428   21.9854  -30.3347 H   0  0  0  0  0  0  0  0  0  0  0  0
    0.3661   20.9117  -31.9984 H   0  0  0  0  0  0  0  0  0  0  0  0
    2.5082   20.5310  -32.8794 H   0  0  0  0  0  0  0  0  0  0  0  0
    1.4362   19.1649  -33.3389 H   0  0  0  0  0  0  0  0  0  0  0  0
    3.2191   18.9466  -33.3389 H   0  0  0  0  0  0  0  0  0  0  0  0
    2.8885   18.0332  -35.1918 H   0  0  0  0  0  0  0  0  0  0  0  0
    1.8206   18.7424  -36.4500 H   0  0  0  0  0  0  0  0  0  0  0  0
    3.5780   19.1140  -36.4500 H   0  0  0  0  0  0  0  0  0  0  0  0
    3.9051   21.4004  -34.1410 H   0  0  0  0  0  0  0  0  0  0  0  0
    4.3678   20.6079  -35.6851 H   0  0  0  0  0  0  0  0  0  0  0  0
    3.1629   21.9401  -35.6851 H   0  0  0  0  0  0  0  0  0  0  0  0
   -2.9171   20.6493  -34.8029 H   0  0  0  0  0  0  0  0  0  0  0  0
   -4.4288   21.7169  -33.1422 H   0  0  0  0  0  0  0  0  0  0  0  0
   -4.8978   20.0656  -31.2819 H   0  0  0  0  0  0  0  0  0  0  0  0
  1  2  1  0
  2  3  2  0
  3  4  1  0
  4  5  2  0
  5  6  1  0
  6  7  2  0
  7  8  1  0
  8  9  1  0
  8 10  2  0
  7 11  1  0
 11 12  1  0
 12 13  2  0
 12 14  1  0
 14 15  2  0
 15 16  1  0
 16 17  2  0
 17 18  1  0
 18 19  1  0
 19 20  2  0
 19 21  2  0
 19 22  1  0
 22 23  1  0
 22 24  1  0
 22 25  1  0
 17 26  1  0
 26 27  2  0
 11 28  1  0
 28 29  2  0
 29  2  1  0
 28  5  1  0
 27 14  1  0
  1 30  1  0
  1 31  1  0
  1 32  1  0
  3 33  1  0
  4 34  1  0
  6 35  1  0
  9 36  1  0
 15 37  1  0
 16 38  1  0
 23 39  1  0
 23 40  1  0
 23 41  1  0
 24 42  1  0
 24 43  1  0
 24 44  1  0
 25 45  1  0
 25 46  1  0
 25 47  1  0
 26 48  1  0
 27 49  1  0
 29 50  1  0
M  CHG  2   9  -1  22   1
M  END
>  <UniqueID>  (58) 
58

>  <SMILES>  (58) 
Cc1ccc2cc(C([NH-])=O)n(C(=O)c3ccc(OS(=O)(=O)[N+](C)(C)C)cc3)c2c1

>  <Energy>  (58) 
92.27244545917684

>  <Genealogy>  (58) 
Cc1ccc2cc(C([NH-])=O)n(C(=O)c3ccc(OS(=O)(=O)[N+](C)(C)C)cc3)c2c1 (protonated)
Cc1ccc2cc(C([NH-])=O)n(C(=O)c3ccc(OS(=O)(=O)[N+](C)(C)C)cc3)c2c1 (3D coordinates assigned)
Cc1ccc2cc(C([NH-])=O)n(C(=O)c3ccc(OS(=O)(=O)[N+](C)(C)C)cc3)c2c1 (optimized conformer: 92.27244545917684 kcal/mol)

>  <smiles>  (58) 
Cc1ccc2cc(C(N)=O)n(C(=O)c3ccc(OS(=O)(=O)[N+](C)(C)C)cc3)c2c1

>  <score_type>  (58) 
oracle

>  <origin>  (58) 
adg

>  <m_score__min__energy>  (58) 
-11.93

>  <m_primary>  (58) 
energy

$$$$
58:0
     RDKit          3D

 51 53  0  0  0  0  0  0  0  0999 V2000
   -9.5870   19.7580  -32.7160 C   0  0  0  0  0  0  0  0  0  0  0  0
   -8.7090   20.0850  -31.5800 N   0  0  0  0  0  0  0  0  0  0  0  0
   -8.8090   21.5180  -31.2480 C   0  0  0  0  0  0  0  0  0  0  0  0
   -7.3180   19.5980  -31.7910 C   0  0  0  0  0  0  0  0  0  0  0  0
   -7.2290   18.1510  -32.3360 C   0  0  0  0  0  0  0  0  0  0  0  0
   -5.7610   17.6940  -32.4170 C   0  0  0  0  0  0  0  0  0  0  0  0
   -4.8360   18.7870  -32.8060 N   0  0  0  0  0  0  0  0  0  0  0  0
   -3.5480   18.3140  -33.3680 C   0  0  0  0  0  0  0  0  0  0  0  0
   -2.5540   19.4240  -33.7920 C   0  0  0  0  0  0  0  0  0  0  0  0
   -2.0020   20.2090  -32.6300 C   0  0  0  0  0  0  0  0  0  0  0  0
   -0.8340   19.7680  -31.9560 C   0  0  0  0  0  0  0  0  0  0  0  0
   -0.3470   20.4650  -30.8380 C   0  0  0  0  0  0  0  0  0  0  0  0
   -1.0350   21.6030  -30.4280 C   0  0  0  0  0  0  0  0  0  0  0  0
   -0.7970   22.4450  -29.3660 C   0  0  0  0  0  0  0  0  0  0  0  0
   -1.7980   23.4110  -29.4300 C   0  0  0  0  0  0  0  0  0  0  0  0
   -1.8650   24.5710  -28.5170 C   0  0  0  0  0  0  0  0  0  0  0  0
   -1.5240   25.8790  -28.9690 N   0  0  0  0  0  0  0  0  0  0  0  0
   -2.1770   24.3980  -27.3080 O   0  0  0  0  0  0  0  0  0  0  0  0
   -2.6290   23.1720  -30.4840 N   0  0  0  0  0  0  0  0  0  0  0  0
   -3.8290   23.8800  -30.8400 C   0  0  0  0  0  0  0  0  0  0  0  0
   -3.9450   25.2770  -30.5790 N   0  0  0  0  0  0  0  0  0  0  0  0
   -4.8010   23.2620  -31.3520 O   0  0  0  0  0  0  0  0  0  0  0  0
   -2.1460   22.0630  -31.0880 C   0  0  0  0  0  0  0  0  0  0  0  0
   -2.6650   21.3770  -32.1910 C   0  0  0  0  0  0  0  0  0  0  0  0
   -5.4650   19.8930  -33.5510 C   0  0  0  0  0  0  0  0  0  0  0  0
   -6.5290   20.5870  -32.6850 C   0  0  0  0  0  0  0  0  0  0  0  0
  -10.5554   19.3973  -32.3390 H   0  0  0  0  0  0  0  0  0  0  0  0
   -9.7442   20.6579  -33.3288 H   0  0  0  0  0  0  0  0  0  0  0  0
   -9.1173   18.9745  -33.3288 H   0  0  0  0  0  0  0  0  0  0  0  0
   -8.8176   21.6414  -30.1550 H   0  0  0  0  0  0  0  0  0  0  0  0
   -7.9460   22.0534  -31.6707 H   0  0  0  0  0  0  0  0  0  0  0  0
   -9.7380   21.9283  -31.6707 H   0  0  0  0  0  0  0  0  0  0  0  0
   -6.8530   19.5585  -30.7949 H   0  0  0  0  0  0  0  0  0  0  0  0
   -7.7814   17.4769  -31.6648 H   0  0  0  0  0  0  0  0  0  0  0  0
   -7.6660   18.1237  -33.3451 H   0  0  0  0  0  0  0  0  0  0  0  0
   -5.4576   17.3118  -31.4312 H   0  0  0  0  0  0  0  0  0  0  0  0
   -5.6996   16.9178  -33.1940 H   0  0  0  0  0  0  0  0  0  0  0  0
   -3.0552   17.6913  -32.6069 H   0  0  0  0  0  0  0  0  0  0  0  0
   -3.8036   17.7712  -34.2900 H   0  0  0  0  0  0  0  0  0  0  0  0
   -1.7145   18.9549  -34.3260 H   0  0  0  0  0  0  0  0  0  0  0  0
   -3.1081   20.1307  -34.4273 H   0  0  0  0  0  0  0  0  0  0  0  0
   -0.3049   18.8719  -32.3123 H   0  0  0  0  0  0  0  0  0  0  0  0
    0.5507   20.1218  -30.3029 H   0  0  0  0  0  0  0  0  0  0  0  0
    0.0119   22.3708  -28.6243 H   0  0  0  0  0  0  0  0  0  0  0  0
   -1.2320   26.0460  -29.9580 H   0  0  0  0  0  0  0  0  0  0  0  0
   -3.5670   25.6910  -29.6990 H   0  0  0  0  0  0  0  0  0  0  0  0
   -3.5681   21.7383  -32.7046 H   0  0  0  0  0  0  0  0  0  0  0  0
   -4.6936   20.6248  -33.8328 H   0  0  0  0  0  0  0  0  0  0  0  0
   -5.9482   19.4866  -34.4517 H   0  0  0  0  0  0  0  0  0  0  0  0
   -6.0294   21.3230  -32.0379 H   0  0  0  0  0  0  0  0  0  0  0  0
   -7.2497   21.0630  -33.3662 H   0  0  0  0  0  0  0  0  0  0  0  0
  1  2  1  0
  2  3  1  0
  2  4  1  0
  4  5  1  0
  5  6  1  0
  6  7  1  0
  7  8  1  0
  8  9  1  0
  9 10  1  0
 10 11  2  0
 11 12  1  0
 12 13  2  0
 13 14  1  0
 14 15  2  0
 15 16  1  0
 16 17  1  0
 16 18  2  0
 15 19  1  0
 19 20  1  0
 20 21  1  0
 20 22  2  0
 19 23  1  0
 23 24  2  0
  7 25  1  0
 25 26  1  0
 26  4  1  0
 24 10  1  0
 23 13  1  0
  1 27  1  0
  1 28  1  0
  1 29  1  0
  3 30  1  0
  3 31  1  0
  3 32  1  0
  4 33  1  0
  5 34  1  0
  5 35  1  0
  6 36  1  0
  6 37  1  0
  8 38  1  0
  8 39  1  0
  9 40  1  0
  9 41  1  0
 11 42  1  0
 12 43  1  0
 14 44  1  0
 17 45  1  0
 21 46  1  0
 24 47  1  0
 25 48  1  0
 25 49  1  0
 26 50  1  0
 26 51  1  0
M  CHG  2  17  -1  21  -1
M  END
>  <UniqueID>  (59) 
59

>  <SMILES>  (59) 
CN(C)C1CCN(CCc2ccc3cc(C([NH-])=O)n(C([NH-])=O)c3c2)CC1

>  <Energy>  (59) 
105.23710680797166

>  <Genealogy>  (59) 
CN(C)C1CCN(CCc2ccc3cc(C([NH-])=O)n(C([NH-])=O)c3c2)CC1 (protonated)
CN(C)C1CCN(CCc2ccc3cc(C([NH-])=O)n(C([NH-])=O)c3c2)CC1 (3D coordinates assigned)
CN(C)C1CCN(CCc2ccc3cc(C([NH-])=O)n(C([NH-])=O)c3c2)CC1 (nonaromatic ring conformer: 105.23710680797166 kcal/mol)

>  <smiles>  (59) 
CN(C)C1CCN(CCc2ccc3cc(C(N)=O)n(C(N)=O)c3c2)CC1

>  <score_type>  (59) 
oracle

>  <origin>  (59) 
adg

>  <m_score__min__energy>  (59) 
-12.289999999999999

>  <m_primary>  (59) 
energy

$$$$
59:0
     RDKit          3D

 47 49  0  0  0  0  0  0  0  0999 V2000
    0.0670   20.5060  -32.0480 C   0  0  0  0  0  0  0  0  0  0  0  0
   -0.3280   19.4330  -32.9730 N   0  0  0  0  0  0  0  0  0  0  0  0
   -0.9230   19.9820  -34.2190 C   0  0  0  0  0  0  0  0  0  0  0  0
   -2.4590   19.9670  -34.2000 C   0  0  0  0  0  0  0  0  0  0  0  0
   -3.0100   18.5320  -34.0260 C   0  0  0  0  0  0  0  0  0  0  0  0
   -4.3060   18.5790  -33.3370 N   0  0  0  0  0  0  0  0  0  0  0  0
   -5.5510   18.5470  -34.0470 C   0  0  0  0  0  0  0  0  0  0  0  0
   -5.5680   18.4280  -35.3020 O   0  0  0  0  0  0  0  0  0  0  0  0
   -6.8460   18.5940  -33.2960 C   0  0  0  0  0  0  0  0  0  0  0  0
   -7.0070   19.9360  -32.6390 C   0  0  0  0  0  0  0  0  0  0  0  0
   -8.3000   20.4320  -32.3380 C   0  0  0  0  0  0  0  0  0  0  0  0
   -8.4610   21.6940  -31.7420 C   0  0  0  0  0  0  0  0  0  0  0  0
   -7.3170   22.4400  -31.4760 C   0  0  0  0  0  0  0  0  0  0  0  0
   -7.1850   23.6770  -30.8850 C   0  0  0  0  0  0  0  0  0  0  0  0
   -5.8150   23.9340  -30.8680 C   0  0  0  0  0  0  0  0  0  0  0  0
   -5.2330   25.2020  -30.3800 C   0  0  0  0  0  0  0  0  0  0  0  0
   -3.9660   25.6570  -30.8490 N   0  0  0  0  0  0  0  0  0  0  0  0
   -5.8820   25.9150  -29.5700 O   0  0  0  0  0  0  0  0  0  0  0  0
   -5.1280   22.8950  -31.4220 N   0  0  0  0  0  0  0  0  0  0  0  0
   -3.7030   22.7380  -31.5260 C   0  0  0  0  0  0  0  0  0  0  0  0
   -2.8560   23.1560  -30.4600 N   0  0  0  0  0  0  0  0  0  0  0  0
   -3.1950   22.2400  -32.5670 O   0  0  0  0  0  0  0  0  0  0  0  0
   -6.0610   21.9890  -31.7890 C   0  0  0  0  0  0  0  0  0  0  0  0
   -5.8700   20.7280  -32.3650 C   0  0  0  0  0  0  0  0  0  0  0  0
   -2.0180   17.6200  -33.2650 C   0  0  0  0  0  0  0  0  0  0  0  0
   -1.1780   18.4360  -32.2760 C   0  0  0  0  0  0  0  0  0  0  0  0
   -0.0599   20.1614  -31.0111 H   0  0  0  0  0  0  0  0  0  0  0  0
    1.1210   20.7693  -32.2205 H   0  0  0  0  0  0  0  0  0  0  0  0
   -0.5647   21.3898  -32.2205 H   0  0  0  0  0  0  0  0  0  0  0  0
   -0.5829   21.0207  -34.3433 H   0  0  0  0  0  0  0  0  0  0  0  0
   -0.5951   19.3437  -35.0527 H   0  0  0  0  0  0  0  0  0  0  0  0
   -2.8122   20.5892  -33.3645 H   0  0  0  0  0  0  0  0  0  0  0  0
   -2.8198   20.3609  -35.1616 H   0  0  0  0  0  0  0  0  0  0  0  0
   -3.1452   18.0953  -35.0265 H   0  0  0  0  0  0  0  0  0  0  0  0
   -4.3340   18.6430  -32.2940 H   0  0  0  0  0  0  0  0  0  0  0  0
   -7.6792   18.4275  -33.9946 H   0  0  0  0  0  0  0  0  0  0  0  0
   -6.8461   17.8102  -32.5242 H   0  0  0  0  0  0  0  0  0  0  0  0
   -9.1856   19.8234  -32.5732 H   0  0  0  0  0  0  0  0  0  0  0  0
   -9.4605   22.0804  -31.4934 H   0  0  0  0  0  0  0  0  0  0  0  0
   -7.9897   24.3246  -30.5067 H   0  0  0  0  0  0  0  0  0  0  0  0
   -3.0780   25.3070  -30.4260 H   0  0  0  0  0  0  0  0  0  0  0  0
   -2.4900   24.1330  -30.4180 H   0  0  0  0  0  0  0  0  0  0  0  0
   -4.8591   20.3625  -32.5987 H   0  0  0  0  0  0  0  0  0  0  0  0
   -2.5828   16.8545  -32.7127 H   0  0  0  0  0  0  0  0  0  0  0  0
   -1.3437   17.1466  -33.9939 H   0  0  0  0  0  0  0  0  0  0  0  0
   -1.8523   18.9629  -31.5849 H   0  0  0  0  0  0  0  0  0  0  0  0
   -0.5194   17.7436  -31.7312 H   0  0  0  0  0  0  0  0  0  0  0  0
  1  2  1  0
  2  3  1  0
  3  4  1  0
  4  5  1  0
  5  6  1  0
  6  7  1  0
  7  8  2  0
  7  9  1  0
  9 10  1  0
 10 11  2  0
 11 12  1  0
 12 13  2  0
 13 14  1  0
 14 15  2  0
 15 16  1  0
 16 17  1  0
 16 18  2  0
 15 19  1  0
 19 20  1  0
 20 21  1  0
 20 22  2  0
 19 23  1  0
 23 24  2  0
  5 25  1  0
 25 26  1  0
 26  2  1  0
 24 10  1  0
 23 13  1  0
  1 27  1  0
  1 28  1  0
  1 29  1  0
  3 30  1  0
  3 31  1  0
  4 32  1  0
  4 33  1  0
  5 34  1  0
  6 35  1  0
  9 36  1  0
  9 37  1  0
 11 38  1  0
 12 39  1  0
 14 40  1  0
 17 41  1  0
 21 42  1  0
 24 43  1  0
 25 44  1  0
 25 45  1  0
 26 46  1  0
 26 47  1  0
M  CHG  2  17  -1  21  -1
M  END
>  <UniqueID>  (60) 
60

>  <SMILES>  (60) 
CN1CCC(NC(=O)Cc2ccc3cc(C([NH-])=O)n(C([NH-])=O)c3c2)CC1

>  <Energy>  (60) 
90.68904108759872

>  <Genealogy>  (60) 
CN1CCC(NC(=O)Cc2ccc3cc(C([NH-])=O)n(C([NH-])=O)c3c2)CC1 (protonated)
CN1CCC(NC(=O)Cc2ccc3cc(C([NH-])=O)n(C([NH-])=O)c3c2)CC1 (3D coordinates assigned)
CN1CCC(NC(=O)Cc2ccc3cc(C([NH-])=O)n(C([NH-])=O)c3c2)CC1 (nonaromatic ring conformer: 90.68904108759872 kcal/mol)

>  <smiles>  (60) 
CN1CCC(NC(=O)Cc2ccc3cc(C(N)=O)n(C(N)=O)c3c2)CC1

>  <score_type>  (60) 
oracle

>  <origin>  (60) 
adg

>  <m_score__min__energy>  (60) 
-11.779999999999999

>  <m_primary>  (60) 
energy

$$$$
60:0
     RDKit          3D

 30 32  0  0  0  0  0  0  0  0999 V2000
   -3.0210   21.8550  -32.6220 C   0  0  0  0  0  0  0  0  0  0  0  0
   -3.6250   22.6440  -31.5030 C   0  0  0  0  0  0  0  0  0  0  0  0
   -2.8770   23.1100  -30.6030 O   0  0  0  0  0  0  0  0  0  0  0  0
   -5.0480   22.8060  -31.4020 N   0  0  0  0  0  0  0  0  0  0  0  0
   -5.7430   23.8960  -30.9720 C   0  0  0  0  0  0  0  0  0  0  0  0
   -5.1620   25.1110  -30.3660 C   0  0  0  0  0  0  0  0  0  0  0  0
   -3.9350   25.6530  -30.8450 N   0  0  0  0  0  0  0  0  0  0  0  0
   -5.7370   25.6560  -29.3860 O   0  0  0  0  0  0  0  0  0  0  0  0
   -7.1150   23.6820  -31.1080 C   0  0  0  0  0  0  0  0  0  0  0  0
   -7.2360   22.4130  -31.6280 C   0  0  0  0  0  0  0  0  0  0  0  0
   -8.3720   21.6890  -31.9680 C   0  0  0  0  0  0  0  0  0  0  0  0
   -8.1990   20.4030  -32.5050 C   0  0  0  0  0  0  0  0  0  0  0  0
   -6.8990   19.8610  -32.6980 C   0  0  0  0  0  0  0  0  0  0  0  0
   -6.7270   18.5020  -33.2740 C   0  0  0  0  0  0  0  0  0  0  0  0
   -6.0370   18.1420  -34.4180 C   0  0  0  0  0  0  0  0  0  0  0  0
   -6.1260   16.8090  -34.5830 N   0  0  0  0  0  0  0  0  0  0  0  0
   -6.8360   16.3450  -33.5960 O   0  0  0  0  0  0  0  0  0  0  0  0
   -7.2200   17.3050  -32.7870 C   0  0  0  0  0  0  0  0  0  0  0  0
   -5.7690   20.6350  -32.3370 C   0  0  0  0  0  0  0  0  0  0  0  0
   -5.9760   21.9060  -31.7930 C   0  0  0  0  0  0  0  0  0  0  0  0
   -2.4016   21.0459  -32.2076 H   0  0  0  0  0  0  0  0  0  0  0  0
   -3.8219   21.4236  -33.2405 H   0  0  0  0  0  0  0  0  0  0  0  0
   -2.3955   22.5155  -33.2405 H   0  0  0  0  0  0  0  0  0  0  0  0
   -3.0170   25.2750  -30.5190 H   0  0  0  0  0  0  0  0  0  0  0  0
   -7.9272   24.3789  -30.8538 H   0  0  0  0  0  0  0  0  0  0  0  0
   -9.3773   22.1107  -31.8209 H   0  0  0  0  0  0  0  0  0  0  0  0
   -9.0816   19.8068  -32.7801 H   0  0  0  0  0  0  0  0  0  0  0  0
   -5.5019   18.8337  -35.0852 H   0  0  0  0  0  0  0  0  0  0  0  0
   -7.8284   17.1792  -31.8792 H   0  0  0  0  0  0  0  0  0  0  0  0
   -4.7509   20.2445  -32.4815 H   0  0  0  0  0  0  0  0  0  0  0  0
  1  2  1  0
  2  3  2  0
  2  4  1  0
  4  5  1  0
  5  6  1  0
  6  7  1  0
  6  8  2  0
  5  9  2  0
  9 10  1  0
 10 11  2  0
 11 12  1  0
 12 13  2  0
 13 14  1  0
 14 15  1  0
 15 16  2  0
 16 17  1  0
 17 18  1  0
 13 19  1  0
 19 20  2  0
 20  4  1  0
 20 10  1  0
 18 14  2  0
  1 21  1  0
  1 22  1  0
  1 23  1  0
  7 24  1  0
  9 25  1  0
 11 26  1  0
 12 27  1  0
 15 28  1  0
 18 29  1  0
 19 30  1  0
M  CHG  1   7  -1
M  END
>  <UniqueID>  (61) 
61

>  <SMILES>  (61) 
CC(=O)n1c(C([NH-])=O)cc2ccc(-c3cnoc3)cc21

>  <Energy>  (61) 
104.26018488079305

>  <Genealogy>  (61) 
CC(=O)n1c(C([NH-])=O)cc2ccc(-c3cnoc3)cc21 (protonated)
CC(=O)n1c(C([NH-])=O)cc2ccc(-c3cnoc3)cc21 (3D coordinates assigned)
CC(=O)n1c(C([NH-])=O)cc2ccc(-c3cnoc3)cc21 (optimized conformer: 104.26018488079305 kcal/mol)

>  <smiles>  (61) 
CC(=O)n1c(C(N)=O)cc2ccc(-c3cnoc3)cc21

>  <score_type>  (61) 
oracle

>  <origin>  (61) 
adg

>  <m_score__min__energy>  (61) 
-10.44

>  <m_primary>  (61) 
energy

$$$$
61:0
     RDKit          3D

 56 60  0  0  0  0  0  0  0  0999 V2000
   -1.5870   12.2220  -31.0750 C   0  0  0  0  0  0  0  0  0  0  0  0
   -2.6960   12.9320  -31.7740 C   0  0  0  0  0  0  0  0  0  0  0  0
   -2.5770   13.5060  -32.9860 N   0  0  0  0  0  0  0  0  0  0  0  0
   -3.8140   14.0190  -33.1560 C   0  0  0  0  0  0  0  0  0  0  0  0
   -4.2130   14.7940  -34.3430 C   0  0  0  0  0  0  0  0  0  0  0  0
   -3.7840   14.4400  -35.4750 O   0  0  0  0  0  0  0  0  0  0  0  0
   -5.0410   15.9650  -34.2320 N   0  0  0  0  0  0  0  0  0  0  0  0
   -6.2760   15.9480  -33.4420 C   0  0  0  0  0  0  0  0  0  0  0  0
   -6.3520   17.2180  -32.5940 C   0  0  0  0  0  0  0  0  0  0  0  0
   -6.0860   18.4210  -33.4030 N   0  0  0  0  0  0  0  0  0  0  0  0
   -6.3840   19.7220  -32.8510 C   0  0  0  0  0  0  0  0  0  0  0  0
   -7.7250   20.1890  -32.8000 C   0  0  0  0  0  0  0  0  0  0  0  0
   -8.0280   21.4570  -32.2730 C   0  0  0  0  0  0  0  0  0  0  0  0
   -6.9740   22.2360  -31.8040 C   0  0  0  0  0  0  0  0  0  0  0  0
   -6.9760   23.5030  -31.2590 C   0  0  0  0  0  0  0  0  0  0  0  0
   -5.6370   23.7890  -30.9880 C   0  0  0  0  0  0  0  0  0  0  0  0
   -5.1650   25.0580  -30.3950 C   0  0  0  0  0  0  0  0  0  0  0  0
   -3.9420   25.6570  -30.8170 N   0  0  0  0  0  0  0  0  0  0  0  0
   -5.8490   25.6210  -29.5000 O   0  0  0  0  0  0  0  0  0  0  0  0
   -4.8490   22.7390  -31.3490 N   0  0  0  0  0  0  0  0  0  0  0  0
   -3.4230   22.6380  -31.2660 C   0  0  0  0  0  0  0  0  0  0  0  0
   -2.8140   23.1820  -30.3070 O   0  0  0  0  0  0  0  0  0  0  0  0
   -2.6840   21.9020  -32.2430 N   0  0  0  0  0  0  0  0  0  0  0  0
   -1.6090   20.9790  -31.8880 C   0  0  0  0  0  0  0  0  0  0  0  0
   -1.6080   19.7110  -32.7570 C   0  0  0  0  0  0  0  0  0  0  0  0
   -1.2510   18.5190  -32.1500 F   0  0  0  0  0  0  0  0  0  0  0  0
   -1.1830   19.8260  -34.2120 C   0  0  0  0  0  0  0  0  0  0  0  0
   -2.6460   19.5690  -33.8580 C   0  0  0  0  0  0  0  0  0  0  0  0
   -5.6770   21.8010  -31.8460 C   0  0  0  0  0  0  0  0  0  0  0  0
   -5.3430   20.5480  -32.3660 C   0  0  0  0  0  0  0  0  0  0  0  0
   -5.7120   18.2900  -34.8210 C   0  0  0  0  0  0  0  0  0  0  0  0
   -4.6900   17.1590  -35.0140 C   0  0  0  0  0  0  0  0  0  0  0  0
   -4.6200   13.7850  -32.1010 N   0  0  0  0  0  0  0  0  0  0  0  0
   -3.8910   13.1090  -31.2670 O   0  0  0  0  0  0  0  0  0  0  0  0
   -1.7238   12.3096  -29.9871 H   0  0  0  0  0  0  0  0  0  0  0  0
   -1.5937   11.1599  -31.3611 H   0  0  0  0  0  0  0  0  0  0  0  0
   -0.6252   12.6727  -31.3611 H   0  0  0  0  0  0  0  0  0  0  0  0
   -7.1433   15.9047  -34.1172 H   0  0  0  0  0  0  0  0  0  0  0  0
   -6.2806   15.0658  -32.7849 H   0  0  0  0  0  0  0  0  0  0  0  0
   -7.3580   17.2964  -32.1561 H   0  0  0  0  0  0  0  0  0  0  0  0
   -5.5873   17.1545  -31.8058 H   0  0  0  0  0  0  0  0  0  0  0  0
   -8.5369   19.5502  -33.1778 H   0  0  0  0  0  0  0  0  0  0  0  0
   -9.0650   21.8217  -32.2326 H   0  0  0  0  0  0  0  0  0  0  0  0
   -7.8468   24.1499  -31.0768 H   0  0  0  0  0  0  0  0  0  0  0  0
   -3.0220   25.2880  -30.4900 H   0  0  0  0  0  0  0  0  0  0  0  0
   -0.6456   21.4944  -32.0156 H   0  0  0  0  0  0  0  0  0  0  0  0
   -1.7676   20.6680  -30.8448 H   0  0  0  0  0  0  0  0  0  0  0  0
   -0.8787   20.8007  -34.6212 H   0  0  0  0  0  0  0  0  0  0  0  0
   -0.4361   19.3270  -34.8469 H   0  0  0  0  0  0  0  0  0  0  0  0
   -3.3964   20.3584  -34.0121 H   0  0  0  0  0  0  0  0  0  0  0  0
   -3.3913   18.8078  -34.1320 H   0  0  0  0  0  0  0  0  0  0  0  0
   -4.2961   20.2119  -32.3975 H   0  0  0  0  0  0  0  0  0  0  0  0
   -6.6124   18.0671  -35.4122 H   0  0  0  0  0  0  0  0  0  0  0  0
   -5.2588   19.2351  -35.1547 H   0  0  0  0  0  0  0  0  0  0  0  0
   -4.6554   16.8888  -36.0797 H   0  0  0  0  0  0  0  0  0  0  0  0
   -3.7113   17.5201  -34.6649 H   0  0  0  0  0  0  0  0  0  0  0  0
  1  2  1  0
  2  3  2  0
  3  4  1  0
  4  5  1  0
  5  6  2  0
  5  7  1  0
  7  8  1  0
  8  9  1  0
  9 10  1  0
 10 11  1  0
 11 12  2  0
 12 13  1  0
 13 14  2  0
 14 15  1  0
 15 16  2  0
 16 17  1  0
 17 18  1  0
 17 19  2  0
 16 20  1  0
 20 21  1  0
 21 22  2  0
 21 23  1  0
 23 24  1  0
 24 25  1  0
 25 26  1  0
 25 27  1  0
 27 28  1  0
 20 29  1  0
 29 30  2  0
 10 31  1  0
 31 32  1  0
  4 33  2  0
 33 34  1  0
 34  2  1  0
 32  7  1  0
 30 11  1  0
 29 14  1  0
 28 25  1  0
  1 35  1  0
  1 36  1  0
  1 37  1  0
  8 38  1  0
  8 39  1  0
  9 40  1  0
  9 41  1  0
 12 42  1  0
 13 43  1  0
 15 44  1  0
 18 45  1  0
 24 46  1  0
 24 47  1  0
 27 48  1  0
 27 49  1  0
 28 50  1  0
 28 51  1  0
 30 52  1  0
 31 53  1  0
 31 54  1  0
 32 55  1  0
 32 56  1  0
M  CHG  2  18  -1  23  -1
M  END
>  <UniqueID>  (62) 
62

>  <SMILES>  (62) 
Cc1nc(C(=O)N2CCN(c3ccc4cc(C([NH-])=O)n(C(=O)[N-]CC5(F)CC5)c4c3)CC2)no1

>  <Energy>  (62) 
403.3656483750152

>  <Genealogy>  (62) 
Cc1nc(C(=O)N2CCN(c3ccc4cc(C([NH-])=O)n(C(=O)[N-]CC5(F)CC5)c4c3)CC2)no1 (protonated)
Cc1nc(C(=O)N2CCN(c3ccc4cc(C([NH-])=O)n(C(=O)[N-]CC5(F)CC5)c4c3)CC2)no1 (3D coordinates assigned)
Cc1nc(C(=O)N2CCN(c3ccc4cc(C([NH-])=O)n(C(=O)[N-]CC5(F)CC5)c4c3)CC2)no1 (nonaromatic ring conformer: 403.3656483750152 kcal/mol)

>  <smiles>  (62) 
Cc1nc(C(=O)N2CCN(c3ccc4cc(C(N)=O)n(C(=O)NCC5(F)CC5)c4c3)CC2)no1

>  <score_type>  (62) 
oracle

>  <origin>  (62) 
adg

>  <m_score__min__energy>  (62) 
-11.67

>  <m_primary>  (62) 
energy

$$$$
62:0
     RDKit          3D

 46 47  0  0  0  0  0  0  0  0999 V2000
   -5.0070   24.1100  -29.0050 C   0  0  0  0  0  0  0  0  0  0  0  0
   -4.0120   24.4030  -30.0820 C   0  0  0  0  0  0  0  0  0  0  0  0
   -4.0650   25.5090  -30.6840 O   0  0  0  0  0  0  0  0  0  0  0  0
   -2.9980   23.4470  -30.4310 N   0  0  0  0  0  0  0  0  0  0  0  0
   -1.7110   23.4030  -29.9870 C   0  0  0  0  0  0  0  0  0  0  0  0
   -1.0610   24.4080  -29.1190 C   0  0  0  0  0  0  0  0  0  0  0  0
   -1.6510   25.6970  -28.9600 N   0  0  0  0  0  0  0  0  0  0  0  0
   -0.0020   24.1330  -28.4960 O   0  0  0  0  0  0  0  0  0  0  0  0
   -1.0500   22.2940  -30.5130 C   0  0  0  0  0  0  0  0  0  0  0  0
   -1.9810   21.6540  -31.2990 C   0  0  0  0  0  0  0  0  0  0  0  0
   -1.8700   20.4870  -32.0460 C   0  0  0  0  0  0  0  0  0  0  0  0
   -3.0060   20.0360  -32.7410 C   0  0  0  0  0  0  0  0  0  0  0  0
   -4.2330   20.7520  -32.6680 C   0  0  0  0  0  0  0  0  0  0  0  0
   -5.4120   20.3010  -33.3610 N   0  0  0  0  0  0  0  0  0  0  0  0
   -6.4060   19.4110  -32.7570 C   0  0  0  0  0  0  0  0  0  0  0  0
   -7.1830   20.1280  -31.6460 C   0  0  0  0  0  0  0  0  0  0  0  0
   -8.1380   21.0910  -32.2370 N   0  0  0  0  0  0  0  0  0  0  0  0
   -9.4960   20.5190  -32.3190 C   0  0  0  0  0  0  0  0  0  0  0  0
   -8.0800   22.4300  -31.5840 C   0  0  0  0  0  0  0  0  0  0  0  0
   -7.6540   22.2850  -30.1180 C   0  0  0  0  0  0  0  0  0  0  0  0
   -7.1830   23.4470  -32.3170 C   0  0  0  0  0  0  0  0  0  0  0  0
   -4.3020   21.9320  -31.8940 C   0  0  0  0  0  0  0  0  0  0  0  0
   -3.1490   22.3680  -31.2310 C   0  0  0  0  0  0  0  0  0  0  0  0
   -4.5344   24.2492  -28.0215 H   0  0  0  0  0  0  0  0  0  0  0  0
   -5.8630   24.7942  -29.1006 H   0  0  0  0  0  0  0  0  0  0  0  0
   -5.3556   23.0711  -29.1006 H   0  0  0  0  0  0  0  0  0  0  0  0
   -2.6850   25.8230  -29.0160 H   0  0  0  0  0  0  0  0  0  0  0  0
   -0.0063   21.9942  -30.3372 H   0  0  0  0  0  0  0  0  0  0  0  0
   -0.9211   19.9325  -32.0921 H   0  0  0  0  0  0  0  0  0  0  0  0
   -2.9453   19.1202  -33.3473 H   0  0  0  0  0  0  0  0  0  0  0  0
   -5.5580   20.6270  -34.3440 H   0  0  0  0  0  0  0  0  0  0  0  0
   -7.1115   19.0802  -33.5334 H   0  0  0  0  0  0  0  0  0  0  0  0
   -5.8832   18.5483  -32.3183 H   0  0  0  0  0  0  0  0  0  0  0  0
   -7.7353   19.3861  -31.0506 H   0  0  0  0  0  0  0  0  0  0  0  0
   -6.4749   20.6705  -31.0024 H   0  0  0  0  0  0  0  0  0  0  0  0
   -9.8865   20.3545  -31.3039 H   0  0  0  0  0  0  0  0  0  0  0  0
  -10.1555   21.2158  -32.8571 H   0  0  0  0  0  0  0  0  0  0  0  0
   -9.4582   19.5604  -32.8571 H   0  0  0  0  0  0  0  0  0  0  0  0
   -9.0982   22.8430  -31.6367 H   0  0  0  0  0  0  0  0  0  0  0  0
   -8.4907   22.5698  -29.4631 H   0  0  0  0  0  0  0  0  0  0  0  0
   -7.3723   21.2404  -29.9196 H   0  0  0  0  0  0  0  0  0  0  0  0
   -6.7935   22.9408  -29.9196 H   0  0  0  0  0  0  0  0  0  0  0  0
   -6.6434   24.0588  -31.5790 H   0  0  0  0  0  0  0  0  0  0  0  0
   -6.4592   22.9099  -32.9475 H   0  0  0  0  0  0  0  0  0  0  0  0
   -7.8063   24.0981  -32.9475 H   0  0  0  0  0  0  0  0  0  0  0  0
   -5.2427   22.4965  -31.8141 H   0  0  0  0  0  0  0  0  0  0  0  0
  1  2  1  0
  2  3  2  0
  2  4  1  0
  4  5  1  0
  5  6  1  0
  6  7  1  0
  6  8  2  0
  5  9  2  0
  9 10  1  0
 10 11  2  0
 11 12  1  0
 12 13  2  0
 13 14  1  0
 14 15  1  0
 15 16  1  0
 16 17  1  0
 17 18  1  0
 17 19  1  0
 19 20  1  0
 19 21  1  0
 13 22  1  0
 22 23  2  0
 23  4  1  0
 23 10  1  0
  1 24  1  0
  1 25  1  0
  1 26  1  0
  7 27  1  0
  9 28  1  0
 11 29  1  0
 12 30  1  0
 14 31  1  0
 15 32  1  0
 15 33  1  0
 16 34  1  0
 16 35  1  0
 18 36  1  0
 18 37  1  0
 18 38  1  0
 19 39  1  0
 20 40  1  0
 20 41  1  0
 20 42  1  0
 21 43  1  0
 21 44  1  0
 21 45  1  0
 22 46  1  0
M  CHG  1   7  -1
M  END
>  <UniqueID>  (63) 
63

>  <SMILES>  (63) 
CC(=O)n1c(C([NH-])=O)cc2ccc(NCCN(C)C(C)C)cc21

>  <Energy>  (63) 
84.11587548949416

>  <Genealogy>  (63) 
CC(=O)n1c(C([NH-])=O)cc2ccc(NCCN(C)C(C)C)cc21 (protonated)
CC(=O)n1c(C([NH-])=O)cc2ccc(NCCN(C)C(C)C)cc21 (3D coordinates assigned)
CC(=O)n1c(C([NH-])=O)cc2ccc(NCCN(C)C(C)C)cc21 (optimized conformer: 84.11587548949416 kcal/mol)

>  <smiles>  (63) 
CC(=O)n1c(C(N)=O)cc2ccc(NCCN(C)C(C)C)cc21

>  <score_type>  (63) 
oracle

>  <origin>  (63) 
adg

>  <m_score__min__energy>  (63) 
-10.75

>  <m_primary>  (63) 
energy

$$$$
63:0
     RDKit          3D

 35 37  0  0  0  0  0  0  0  0999 V2000
   -5.4010   26.5520  -30.4330 N   0  0  0  0  0  0  0  0  0  0  0  0
   -6.2910   25.5160  -30.0170 C   0  0  0  0  0  0  0  0  0  0  0  0
   -6.9980   25.6860  -28.9870 O   0  0  0  0  0  0  0  0  0  0  0  0
   -6.3500   24.2260  -30.7320 C   0  0  0  0  0  0  0  0  0  0  0  0
   -7.5390   23.6420  -31.1610 C   0  0  0  0  0  0  0  0  0  0  0  0
   -7.1730   22.4360  -31.7110 C   0  0  0  0  0  0  0  0  0  0  0  0
   -7.9560   21.4530  -32.3050 C   0  0  0  0  0  0  0  0  0  0  0  0
   -7.3100   20.3200  -32.8270 C   0  0  0  0  0  0  0  0  0  0  0  0
   -5.8980   20.1920  -32.7560 C   0  0  0  0  0  0  0  0  0  0  0  0
   -5.2230   18.9960  -33.3220 C   0  0  0  0  0  0  0  0  0  0  0  0
   -5.9360   17.8030  -33.5240 C   0  0  0  0  0  0  0  0  0  0  0  0
   -5.3000   16.6770  -34.0570 C   0  0  0  0  0  0  0  0  0  0  0  0
   -3.9340   16.7160  -34.3810 C   0  0  0  0  0  0  0  0  0  0  0  0
   -3.2620   15.5160  -35.0010 C   0  0  0  0  0  0  0  0  0  0  0  0
   -2.3790   14.9700  -34.0890 F   0  0  0  0  0  0  0  0  0  0  0  0
   -2.5670   15.8790  -36.1410 F   0  0  0  0  0  0  0  0  0  0  0  0
   -4.1980   14.5590  -35.3520 F   0  0  0  0  0  0  0  0  0  0  0  0
   -3.2270   17.9160  -34.2040 C   0  0  0  0  0  0  0  0  0  0  0  0
   -3.8620   19.0420  -33.6730 C   0  0  0  0  0  0  0  0  0  0  0  0
   -5.1370   21.2170  -32.1440 C   0  0  0  0  0  0  0  0  0  0  0  0
   -5.8090   22.3250  -31.6130 C   0  0  0  0  0  0  0  0  0  0  0  0
   -5.2870   23.4210  -31.0150 N   0  0  0  0  0  0  0  0  0  0  0  0
   -3.8940   23.7260  -30.8390 C   0  0  0  0  0  0  0  0  0  0  0  0
   -3.0260   22.8160  -30.9140 O   0  0  0  0  0  0  0  0  0  0  0  0
   -3.4880   25.0310  -30.5880 O   0  0  0  0  0  0  0  0  0  0  0  0
   -4.6870   26.3820  -31.1760 H   0  0  0  0  0  0  0  0  0  0  0  0
   -5.3980   27.4710  -29.9370 H   0  0  0  0  0  0  0  0  0  0  0  0
   -8.5544   24.0568  -31.0777 H   0  0  0  0  0  0  0  0  0  0  0  0
   -9.0492   21.5591  -32.3646 H   0  0  0  0  0  0  0  0  0  0  0  0
   -7.9052   19.5228  -33.2962 H   0  0  0  0  0  0  0  0  0  0  0  0
   -7.0030   17.7537  -33.2610 H   0  0  0  0  0  0  0  0  0  0  0  0
   -5.8742   15.7537  -34.2237 H   0  0  0  0  0  0  0  0  0  0  0  0
   -2.1650   17.9703  -34.4855 H   0  0  0  0  0  0  0  0  0  0  0  0
   -3.2925   19.9719  -33.5284 H   0  0  0  0  0  0  0  0  0  0  0  0
   -4.0409   21.1446  -32.0868 H   0  0  0  0  0  0  0  0  0  0  0  0
  1  2  1  0
  2  3  2  0
  2  4  1  0
  4  5  2  0
  5  6  1  0
  6  7  2  0
  7  8  1  0
  8  9  2  0
  9 10  1  0
 10 11  2  0
 11 12  1  0
 12 13  2  0
 13 14  1  0
 14 15  1  0
 14 16  1  0
 14 17  1  0
 13 18  1  0
 18 19  2  0
  9 20  1  0
 20 21  2  0
 21 22  1  0
 22 23  1  0
 23 24  2  0
 23 25  1  0
 22  4  1  0
 21  6  1  0
 19 10  1  0
  1 26  1  0
  1 27  1  0
  5 28  1  0
  7 29  1  0
  8 30  1  0
 11 31  1  0
 12 32  1  0
 18 33  1  0
 19 34  1  0
 20 35  1  0
M  CHG  1  25  -1
M  END
>  <UniqueID>  (64) 
64

>  <SMILES>  (64) 
NC(=O)c1cc2ccc(-c3ccc(C(F)(F)F)cc3)cc2n1C(=O)[O-]

>  <Energy>  (64) 
83.65735943936518

>  <Genealogy>  (64) 
NC(=O)c1cc2ccc(-c3ccc(C(F)(F)F)cc3)cc2n1C(=O)[O-] (protonated)
NC(=O)c1cc2ccc(-c3ccc(C(F)(F)F)cc3)cc2n1C(=O)[O-] (3D coordinates assigned)
NC(=O)c1cc2ccc(-c3ccc(C(F)(F)F)cc3)cc2n1C(=O)[O-] (optimized conformer: 83.65735943936518 kcal/mol)

>  <smiles>  (64) 
NC(=O)c1cc2ccc(-c3ccc(C(F)(F)F)cc3)cc2n1C(=O)O

>  <score_type>  (64) 
oracle

>  <origin>  (64) 
adg

>  <m_score__min__energy>  (64) 
-9.6699999999999999

>  <m_primary>  (64) 
energy

$$$$
64:0
     RDKit          3D

 45 46  0  0  0  0  0  0  0  0999 V2000
   -7.4160   23.4150  -31.7090 C   0  0  0  0  0  0  0  0  0  0  0  0
   -7.8050   22.2130  -32.3370 O   0  0  0  0  0  0  0  0  0  0  0  0
   -8.7010   21.4930  -31.5120 C   0  0  0  0  0  0  0  0  0  0  0  0
   -9.4210   20.4200  -32.3280 C   0  0  0  0  0  0  0  0  0  0  0  0
   -8.7870   19.1760  -32.1190 O   0  0  0  0  0  0  0  0  0  0  0  0
   -7.4100   19.3520  -31.8260 C   0  0  0  0  0  0  0  0  0  0  0  0
   -6.5940   18.1640  -32.3640 C   0  0  0  0  0  0  0  0  0  0  0  0
   -5.6590   18.5440  -33.5250 C   0  0  0  0  0  0  0  0  0  0  0  0
   -5.4040   20.0590  -33.6130 C   0  0  0  0  0  0  0  0  0  0  0  0
   -4.3270   20.4700  -32.6440 C   0  0  0  0  0  0  0  0  0  0  0  0
   -3.1970   19.6410  -32.4410 C   0  0  0  0  0  0  0  0  0  0  0  0
   -2.1440   20.0540  -31.6040 C   0  0  0  0  0  0  0  0  0  0  0  0
   -2.2440   21.3020  -30.9980 C   0  0  0  0  0  0  0  0  0  0  0  0
   -1.3660   21.9490  -30.1610 C   0  0  0  0  0  0  0  0  0  0  0  0
   -1.9630   23.1730  -29.8800 C   0  0  0  0  0  0  0  0  0  0  0  0
   -1.2960   24.2340  -29.1030 C   0  0  0  0  0  0  0  0  0  0  0  0
   -2.0430   25.3200  -28.5470 N   0  0  0  0  0  0  0  0  0  0  0  0
   -0.0430   24.2190  -28.9860 O   0  0  0  0  0  0  0  0  0  0  0  0
   -3.1790   23.2750  -30.4870 N   0  0  0  0  0  0  0  0  0  0  0  0
   -4.1480   24.3290  -30.3140 C   0  0  0  0  0  0  0  0  0  0  0  0
   -5.2620   24.0950  -29.7670 O   0  0  0  0  0  0  0  0  0  0  0  0
   -3.8710   25.6180  -30.7420 O   0  0  0  0  0  0  0  0  0  0  0  0
   -3.3310   22.1220  -31.1840 C   0  0  0  0  0  0  0  0  0  0  0  0
   -4.4060   21.7200  -31.9910 C   0  0  0  0  0  0  0  0  0  0  0  0
   -7.4570   23.2882  -30.6171 H   0  0  0  0  0  0  0  0  0  0  0  0
   -6.3893   23.6704  -32.0101 H   0  0  0  0  0  0  0  0  0  0  0  0
   -8.0983   24.2235  -32.0101 H   0  0  0  0  0  0  0  0  0  0  0  0
   -8.1394   21.0139  -30.6965 H   0  0  0  0  0  0  0  0  0  0  0  0
   -9.4451   22.1885  -31.0965 H   0  0  0  0  0  0  0  0  0  0  0  0
  -10.4712   20.3564  -32.0072 H   0  0  0  0  0  0  0  0  0  0  0  0
   -9.3831   20.6798  -33.3962 H   0  0  0  0  0  0  0  0  0  0  0  0
   -7.0543   20.2799  -32.2976 H   0  0  0  0  0  0  0  0  0  0  0  0
   -7.2807   19.4104  -30.7352 H   0  0  0  0  0  0  0  0  0  0  0  0
   -5.9843   17.7589  -31.5430 H   0  0  0  0  0  0  0  0  0  0  0  0
   -7.3109   17.4252  -32.7515 H   0  0  0  0  0  0  0  0  0  0  0  0
   -4.6954   18.0330  -33.3821 H   0  0  0  0  0  0  0  0  0  0  0  0
   -6.1494   18.2355  -34.4601 H   0  0  0  0  0  0  0  0  0  0  0  0
   -5.0877   20.3140  -34.6352 H   0  0  0  0  0  0  0  0  0  0  0  0
   -6.3326   20.5913  -33.3593 H   0  0  0  0  0  0  0  0  0  0  0  0
   -3.1418   18.6638  -32.9430 H   0  0  0  0  0  0  0  0  0  0  0  0
   -1.2687   19.4098  -31.4342 H   0  0  0  0  0  0  0  0  0  0  0  0
   -0.3983   21.5778  -29.7925 H   0  0  0  0  0  0  0  0  0  0  0  0
   -1.5570   26.0700  -28.0090 H   0  0  0  0  0  0  0  0  0  0  0  0
   -3.0660   25.4210  -28.7330 H   0  0  0  0  0  0  0  0  0  0  0  0
   -5.2899   22.3634  -32.1124 H   0  0  0  0  0  0  0  0  0  0  0  0
  1  2  1  0
  2  3  1  0
  3  4  1  0
  4  5  1  0
  5  6  1  0
  6  7  1  0
  7  8  1  0
  8  9  1  0
  9 10  1  0
 10 11  2  0
 11 12  1  0
 12 13  2  0
 13 14  1  0
 14 15  2  0
 15 16  1  0
 16 17  1  0
 16 18  2  0
 15 19  1  0
 19 20  1  0
 20 21  2  0
 20 22  1  0
 19 23  1  0
 23 24  2  0
 24 10  1  0
 23 13  1  0
  1 25  1  0
  1 26  1  0
  1 27  1  0
  3 28  1  0
  3 29  1  0
  4 30  1  0
  4 31  1  0
  6 32  1  0
  6 33  1  0
  7 34  1  0
  7 35  1  0
  8 36  1  0
  8 37  1  0
  9 38  1  0
  9 39  1  0
 11 40  1  0
 12 41  1  0
 14 42  1  0
 17 43  1  0
 17 44  1  0
 24 45  1  0
M  CHG  1  22  -1
M  END
>  <UniqueID>  (65) 
65

>  <SMILES>  (65) 
COCCOCCCCc1ccc2cc(C(N)=O)n(C(=O)[O-])c2c1

>  <Energy>  (65) 
80.34568230614799

>  <Genealogy>  (65) 
COCCOCCCCc1ccc2cc(C(N)=O)n(C(=O)[O-])c2c1 (protonated)
COCCOCCCCc1ccc2cc(C(N)=O)n(C(=O)[O-])c2c1 (3D coordinates assigned)
COCCOCCCCc1ccc2cc(C(N)=O)n(C(=O)[O-])c2c1 (optimized conformer: 80.34568230614799 kcal/mol)

>  <smiles>  (65) 
COCCOCCCCc1ccc2cc(C(N)=O)n(C(=O)O)c2c1

>  <score_type>  (65) 
oracle

>  <origin>  (65) 
adg

>  <m_score__min__energy>  (65) 
-8.4800000000000004

>  <m_primary>  (65) 
energy

$$$$
65:0
     RDKit          3D

 51 52  0  0  0  0  0  0  0  0999 V2000
   -1.7890   20.2810  -32.6570 C   0  0  0  0  0  0  0  0  0  0  0  0
   -2.7840   20.4210  -33.5370 C   0  0  0  0  0  0  0  0  0  0  0  0
   -3.9780   19.5100  -33.5160 C   0  0  0  0  0  0  0  0  0  0  0  0
   -3.7540   18.3780  -34.3570 O   0  0  0  0  0  0  0  0  0  0  0  0
   -4.5280   17.2160  -34.2930 C   0  0  0  0  0  0  0  0  0  0  0  0
   -4.2350   16.2110  -34.9980 O   0  0  0  0  0  0  0  0  0  0  0  0
   -5.6550   17.1750  -33.4130 N   0  0  0  0  0  0  0  0  0  0  0  0
   -6.7910   18.0830  -33.5180 C   0  0  0  0  0  0  0  0  0  0  0  0
   -7.3670   18.3830  -32.1330 C   0  0  0  0  0  0  0  0  0  0  0  0
   -7.3920   19.8650  -31.8800 C   0  0  0  0  0  0  0  0  0  0  0  0
   -8.6170   20.5740  -31.9480 C   0  0  0  0  0  0  0  0  0  0  0  0
   -8.6610   21.9560  -31.6970 C   0  0  0  0  0  0  0  0  0  0  0  0
   -7.4710   22.5960  -31.3630 C   0  0  0  0  0  0  0  0  0  0  0  0
   -7.2240   23.9240  -31.1020 C   0  0  0  0  0  0  0  0  0  0  0  0
   -5.8570   24.0010  -30.8460 C   0  0  0  0  0  0  0  0  0  0  0  0
   -5.1710   25.2470  -30.4500 C   0  0  0  0  0  0  0  0  0  0  0  0
   -3.7510   25.2990  -30.3540 N   0  0  0  0  0  0  0  0  0  0  0  0
   -5.8480   26.2660  -30.1480 O   0  0  0  0  0  0  0  0  0  0  0  0
   -5.2800   22.7710  -30.9490 N   0  0  0  0  0  0  0  0  0  0  0  0
   -3.8810   22.4550  -30.8880 C   0  0  0  0  0  0  0  0  0  0  0  0
   -3.0720   23.0450  -31.6530 O   0  0  0  0  0  0  0  0  0  0  0  0
   -3.4300   21.5090  -29.9550 O   0  0  0  0  0  0  0  0  0  0  0  0
   -2.8830   21.7840  -28.6580 C   0  0  0  0  0  0  0  0  0  0  0  0
   -2.6770   20.4770  -27.8680 C   0  0  0  0  0  0  0  0  0  0  0  0
   -3.7940   22.7520  -27.8780 C   0  0  0  0  0  0  0  0  0  0  0  0
   -1.5190   22.4530  -28.8780 C   0  0  0  0  0  0  0  0  0  0  0  0
   -6.2810   21.9210  -31.2650 C   0  0  0  0  0  0  0  0  0  0  0  0
   -6.2050   20.5470  -31.5290 C   0  0  0  0  0  0  0  0  0  0  0  0
   -0.9244   20.9602  -32.6917 H   0  0  0  0  0  0  0  0  0  0  0  0
   -1.8341   19.4865  -31.8976 H   0  0  0  0  0  0  0  0  0  0  0  0
   -2.7279   21.2191  -34.2919 H   0  0  0  0  0  0  0  0  0  0  0  0
   -4.1545   19.1671  -32.4858 H   0  0  0  0  0  0  0  0  0  0  0  0
   -4.8549   20.0617  -33.8856 H   0  0  0  0  0  0  0  0  0  0  0  0
   -6.4611   19.0231  -33.9842 H   0  0  0  0  0  0  0  0  0  0  0  0
   -7.5703   17.6082  -34.1321 H   0  0  0  0  0  0  0  0  0  0  0  0
   -8.3923   17.9890  -32.0748 H   0  0  0  0  0  0  0  0  0  0  0  0
   -6.7317   17.9042  -31.3733 H   0  0  0  0  0  0  0  0  0  0  0  0
   -9.5433   20.0369  -32.1999 H   0  0  0  0  0  0  0  0  0  0  0  0
   -9.6064   22.5145  -31.7625 H   0  0  0  0  0  0  0  0  0  0  0  0
   -7.9512   24.7493  -31.0966 H   0  0  0  0  0  0  0  0  0  0  0  0
   -3.1520   25.2040  -31.2030 H   0  0  0  0  0  0  0  0  0  0  0  0
   -2.7108   20.6912  -26.7896 H   0  0  0  0  0  0  0  0  0  0  0  0
   -3.4738   19.7636  -28.1253 H   0  0  0  0  0  0  0  0  0  0  0  0
   -1.6994   20.0433  -28.1253 H   0  0  0  0  0  0  0  0  0  0  0  0
   -3.6510   22.6001  -26.7980 H   0  0  0  0  0  0  0  0  0  0  0  0
   -3.5365   23.7889  -28.1397 H   0  0  0  0  0  0  0  0  0  0  0  0
   -4.8446   22.5579  -28.1397 H   0  0  0  0  0  0  0  0  0  0  0  0
   -1.0598   22.6782  -27.9042 H   0  0  0  0  0  0  0  0  0  0  0  0
   -0.8644   21.7737  -29.4437 H   0  0  0  0  0  0  0  0  0  0  0  0
   -1.6554   23.3864  -29.4437 H   0  0  0  0  0  0  0  0  0  0  0  0
   -5.2457   20.0127  -31.4647 H   0  0  0  0  0  0  0  0  0  0  0  0
  1  2  2  0
  2  3  1  0
  3  4  1  0
  4  5  1  0
  5  6  2  0
  5  7  1  0
  7  8  1  0
  8  9  1  0
  9 10  1  0
 10 11  2  0
 11 12  1  0
 12 13  2  0
 13 14  1  0
 14 15  2  0
 15 16  1  0
 16 17  1  0
 16 18  2  0
 15 19  1  0
 19 20  1  0
 20 21  2  0
 20 22  1  0
 22 23  1  0
 23 24  1  0
 23 25  1  0
 23 26  1  0
 19 27  1  0
 27 28  2  0
 28 10  1  0
 27 13  1  0
  1 29  1  0
  1 30  1  0
  2 31  1  0
  3 32  1  0
  3 33  1  0
  8 34  1  0
  8 35  1  0
  9 36  1  0
  9 37  1  0
 11 38  1  0
 12 39  1  0
 14 40  1  0
 17 41  1  0
 24 42  1  0
 24 43  1  0
 24 44  1  0
 25 45  1  0
 25 46  1  0
 25 47  1  0
 26 48  1  0
 26 49  1  0
 26 50  1  0
 28 51  1  0
M  CHG  2   7  -1  17  -1
M  END
>  <UniqueID>  (66) 
66

>  <SMILES>  (66) 
C=CCOC(=O)[N-]CCc1ccc2cc(C([NH-])=O)n(C(=O)OC(C)(C)C)c2c1

>  <Energy>  (66) 
76.02161265579831

>  <Genealogy>  (66) 
C=CCOC(=O)[N-]CCc1ccc2cc(C([NH-])=O)n(C(=O)OC(C)(C)C)c2c1 (protonated)
C=CCOC(=O)[N-]CCc1ccc2cc(C([NH-])=O)n(C(=O)OC(C)(C)C)c2c1 (3D coordinates assigned)
C=CCOC(=O)[N-]CCc1ccc2cc(C([NH-])=O)n(C(=O)OC(C)(C)C)c2c1 (optimized conformer: 76.02161265579831 kcal/mol)

>  <smiles>  (66) 
C=CCOC(=O)NCCc1ccc2cc(C(N)=O)n(C(=O)OC(C)(C)C)c2c1

>  <score_type>  (66) 
oracle

>  <origin>  (66) 
adg

>  <m_score__min__energy>  (66) 
-10.140000000000001

>  <m_primary>  (66) 
energy

$$$$
66:0
     RDKit          3D

 65 67  0  0  0  0  0  0  0  0999 V2000
   -1.8510   17.3800  -35.0140 C   0  0  0  0  0  0  0  0  0  0  0  0
   -3.1120   17.6960  -34.1830 C   0  0  0  0  0  0  0  0  0  0  0  0
   -2.9390   19.0760  -33.5230 C   0  0  0  0  0  0  0  0  0  0  0  0
   -3.3130   16.6390  -33.0830 C   0  0  0  0  0  0  0  0  0  0  0  0
   -4.2750   17.7690  -35.0220 O   0  0  0  0  0  0  0  0  0  0  0  0
   -5.5740   18.1150  -34.6140 C   0  0  0  0  0  0  0  0  0  0  0  0
   -6.0920   19.2110  -34.9500 O   0  0  0  0  0  0  0  0  0  0  0  0
   -6.3880   17.1470  -33.8040 C   0  0  0  0  0  0  0  0  0  0  0  0
   -6.8920   17.7730  -32.4940 C   0  0  0  0  0  0  0  0  0  0  0  0
   -8.1620   18.6120  -32.7010 C   0  0  0  0  0  0  0  0  0  0  0  0
   -7.9910   20.0290  -32.2130 C   0  0  0  0  0  0  0  0  0  0  0  0
   -9.1050   20.9050  -32.1780 C   0  0  0  0  0  0  0  0  0  0  0  0
   -8.9560   22.2360  -31.7550 C   0  0  0  0  0  0  0  0  0  0  0  0
   -7.6880   22.6610  -31.3690 C   0  0  0  0  0  0  0  0  0  0  0  0
   -7.2660   23.8940  -30.9320 C   0  0  0  0  0  0  0  0  0  0  0  0
   -5.9040   23.7510  -30.6810 C   0  0  0  0  0  0  0  0  0  0  0  0
   -5.0760   24.8300  -30.1070 C   0  0  0  0  0  0  0  0  0  0  0  0
   -3.9340   25.2990  -30.8190 N   0  0  0  0  0  0  0  0  0  0  0  0
   -5.3840   25.3680  -29.0110 O   0  0  0  0  0  0  0  0  0  0  0  0
   -5.4900   22.4810  -30.9640 N   0  0  0  0  0  0  0  0  0  0  0  0
   -4.1500   21.9590  -30.8920 C   0  0  0  0  0  0  0  0  0  0  0  0
   -3.9020   20.7920  -31.3080 O   0  0  0  0  0  0  0  0  0  0  0  0
   -3.1190   22.7580  -30.3890 O   0  0  0  0  0  0  0  0  0  0  0  0
   -2.0970   22.2720  -29.5200 C   0  0  0  0  0  0  0  0  0  0  0  0
   -2.2460   22.8590  -28.1050 C   0  0  0  0  0  0  0  0  0  0  0  0
   -2.8080   24.2340  -28.1180 N   0  0  0  0  0  0  0  0  0  0  0  0
   -1.7410   25.2470  -28.1870 C   0  0  0  0  0  0  0  0  0  0  0  0
   -1.4050   25.6510  -26.7660 C   0  0  0  0  0  0  0  0  0  0  0  0
   -2.6750   25.4010  -25.9810 C   0  0  0  0  0  0  0  0  0  0  0  0
   -3.5610   24.5470  -26.8860 C   0  0  0  0  0  0  0  0  0  0  0  0
   -6.5990   21.8230  -31.3830 C   0  0  0  0  0  0  0  0  0  0  0  0
   -6.7170   20.4980  -31.8200 C   0  0  0  0  0  0  0  0  0  0  0  0
   -1.0095   17.1691  -34.3377 H   0  0  0  0  0  0  0  0  0  0  0  0
   -2.0406   16.5016  -35.6484 H   0  0  0  0  0  0  0  0  0  0  0  0
   -1.6039   18.2440  -35.6484 H   0  0  0  0  0  0  0  0  0  0  0  0
   -2.9531   18.9635  -32.4289 H   0  0  0  0  0  0  0  0  0  0  0  0
   -1.9790   19.5136  -33.8343 H   0  0  0  0  0  0  0  0  0  0  0  0
   -3.7613   19.7370  -33.8343 H   0  0  0  0  0  0  0  0  0  0  0  0
   -3.2224   17.1155  -32.0957 H   0  0  0  0  0  0  0  0  0  0  0  0
   -4.3125   16.1907  -33.1835 H   0  0  0  0  0  0  0  0  0  0  0  0
   -2.5478   15.8552  -33.1835 H   0  0  0  0  0  0  0  0  0  0  0  0
   -7.2546   16.8258  -34.4005 H   0  0  0  0  0  0  0  0  0  0  0  0
   -5.7435   16.2936  -33.5466 H   0  0  0  0  0  0  0  0  0  0  0  0
   -7.1129   16.9671  -31.7786 H   0  0  0  0  0  0  0  0  0  0  0  0
   -6.1047   18.4412  -32.1150 H   0  0  0  0  0  0  0  0  0  0  0  0
   -8.4024   18.6329  -33.7742 H   0  0  0  0  0  0  0  0  0  0  0  0
   -8.9728   18.1488  -32.1196 H   0  0  0  0  0  0  0  0  0  0  0  0
  -10.0957   20.5388  -32.4851 H   0  0  0  0  0  0  0  0  0  0  0  0
   -9.8156   22.9219  -31.7295 H   0  0  0  0  0  0  0  0  0  0  0  0
   -7.8752   24.8013  -30.8071 H   0  0  0  0  0  0  0  0  0  0  0  0
   -2.9700   25.0260  -30.5310 H   0  0  0  0  0  0  0  0  0  0  0  0
   -2.1656   21.1756  -29.4630 H   0  0  0  0  0  0  0  0  0  0  0  0
   -1.1208   22.5784  -29.9239 H   0  0  0  0  0  0  0  0  0  0  0  0
   -2.9153   22.2094  -27.5219 H   0  0  0  0  0  0  0  0  0  0  0  0
   -1.2430   22.9112  -27.6565 H   0  0  0  0  0  0  0  0  0  0  0  0
   -3.4270   24.3510  -28.9590 H   0  0  0  0  0  0  0  0  0  0  0  0
   -0.8521   24.8235  -28.6774 H   0  0  0  0  0  0  0  0  0  0  0  0
   -2.0715   26.1192  -28.7702 H   0  0  0  0  0  0  0  0  0  0  0  0
   -0.5802   25.0379  -26.3738 H   0  0  0  0  0  0  0  0  0  0  0  0
   -1.0758   26.6985  -26.6995 H   0  0  0  0  0  0  0  0  0  0  0  0
   -2.4494   24.8637  -25.0480 H   0  0  0  0  0  0  0  0  0  0  0  0
   -3.1701   26.3424  -25.7005 H   0  0  0  0  0  0  0  0  0  0  0  0
   -3.8305   23.6144  -26.3686 H   0  0  0  0  0  0  0  0  0  0  0  0
   -4.4826   25.0932  -27.1357 H   0  0  0  0  0  0  0  0  0  0  0  0
   -5.8383   19.8373  -31.8566 H   0  0  0  0  0  0  0  0  0  0  0  0
  1  2  1  0
  2  3  1  0
  2  4  1  0
  2  5  1  0
  5  6  1  0
  6  7  2  0
  6  8  1  0
  8  9  1  0
  9 10  1  0
 10 11  1  0
 11 12  2  0
 12 13  1  0
 13 14  2  0
 14 15  1  0
 15 16  2  0
 16 17  1  0
 17 18  1  0
 17 19  2  0
 16 20  1  0
 20 21  1  0
 21 22  2  0
 21 23  1  0
 23 24  1  0
 24 25  1  0
 25 26  1  0
 26 27  1  0
 27 28  1  0
 28 29  1  0
 29 30  1  0
 20 31  1  0
 31 32  2  0
 32 11  1  0
 31 14  1  0
 30 26  1  0
  1 33  1  0
  1 34  1  0
  1 35  1  0
  3 36  1  0
  3 37  1  0
  3 38  1  0
  4 39  1  0
  4 40  1  0
  4 41  1  0
  8 42  1  0
  8 43  1  0
  9 44  1  0
  9 45  1  0
 10 46  1  0
 10 47  1  0
 12 48  1  0
 13 49  1  0
 15 50  1  0
 18 51  1  0
 24 52  1  0
 24 53  1  0
 25 54  1  0
 25 55  1  0
 26 56  1  0
 27 57  1  0
 27 58  1  0
 28 59  1  0
 28 60  1  0
 29 61  1  0
 29 62  1  0
 30 63  1  0
 30 64  1  0
 32 65  1  0
M  CHG  2  18  -1  26   1
M  END
>  <UniqueID>  (67) 
67

>  <SMILES>  (67) 
CC(C)(C)OC(=O)CCCc1ccc2cc(C([NH-])=O)n(C(=O)OCC[NH+]3CCCC3)c2c1

>  <Energy>  (67) 
97.02953552403808

>  <Genealogy>  (67) 
CC(C)(C)OC(=O)CCCc1ccc2cc(C([NH-])=O)n(C(=O)OCC[NH+]3CCCC3)c2c1 (protonated)
CC(C)(C)OC(=O)CCCc1ccc2cc(C([NH-])=O)n(C(=O)OCC[NH+]3CCCC3)c2c1 (3D coordinates assigned)
CC(C)(C)OC(=O)CCCc1ccc2cc(C([NH-])=O)n(C(=O)OCC[NH+]3CCCC3)c2c1 (nonaromatic ring conformer: 97.02953552403808 kcal/mol)

>  <smiles>  (67) 
CC(C)(C)OC(=O)CCCc1ccc2cc(C(N)=O)n(C(=O)OCCN3CCCC3)c2c1

>  <score_type>  (67) 
oracle

>  <origin>  (67) 
adg

>  <m_score__min__energy>  (67) 
-10.359999999999999

>  <m_primary>  (67) 
energy

$$$$
67:0
     RDKit          3D

 57 60  0  0  0  0  0  0  0  0999 V2000
   -2.8470   21.2960  -28.6430 C   0  0  0  0  0  0  0  0  0  0  0  0
   -2.9990   22.8070  -28.7760 C   0  0  0  0  0  0  0  0  0  0  0  0
   -2.7250   23.2230  -30.1110 O   0  0  0  0  0  0  0  0  0  0  0  0
   -3.4530   22.7800  -31.2220 C   0  0  0  0  0  0  0  0  0  0  0  0
   -2.8580   22.3010  -32.2250 O   0  0  0  0  0  0  0  0  0  0  0  0
   -4.8870   22.8540  -31.2090 N   0  0  0  0  0  0  0  0  0  0  0  0
   -5.6630   23.8980  -30.8010 C   0  0  0  0  0  0  0  0  0  0  0  0
   -5.1840   25.2510  -30.4510 C   0  0  0  0  0  0  0  0  0  0  0  0
   -3.8680   25.6760  -30.7990 N   0  0  0  0  0  0  0  0  0  0  0  0
   -5.9610   26.0590  -29.8790 O   0  0  0  0  0  0  0  0  0  0  0  0
   -7.0100   23.5460  -30.8350 C   0  0  0  0  0  0  0  0  0  0  0  0
   -7.0380   22.2460  -31.2860 C   0  0  0  0  0  0  0  0  0  0  0  0
   -8.1170   21.3950  -31.4990 C   0  0  0  0  0  0  0  0  0  0  0  0
   -7.8500   20.0890  -31.9390 C   0  0  0  0  0  0  0  0  0  0  0  0
   -6.5160   19.6520  -32.1510 C   0  0  0  0  0  0  0  0  0  0  0  0
   -6.2440   18.2650  -32.6050 C   0  0  0  0  0  0  0  0  0  0  0  0
   -5.7490   17.3030  -31.7060 C   0  0  0  0  0  0  0  0  0  0  0  0
   -5.4900   15.9980  -32.1350 C   0  0  0  0  0  0  0  0  0  0  0  0
   -5.7180   15.6310  -33.4700 C   0  0  0  0  0  0  0  0  0  0  0  0
   -5.4110   14.2290  -33.9400 C   0  0  0  0  0  0  0  0  0  0  0  0
   -3.9870   13.7650  -33.5670 C   0  0  2  0  0  0  0  0  0  0  0  0
   -3.9260   13.2330  -32.1170 C   0  0  0  0  0  0  0  0  0  0  0  0
   -2.6490   12.7100  -31.8060 O   0  0  0  0  0  0  0  0  0  0  0  0
   -1.5730   13.5430  -32.2250 C   0  0  0  0  0  0  0  0  0  0  0  0
   -1.9750   14.9430  -32.7360 C   0  0  0  0  0  0  0  0  0  0  0  0
   -3.0120   14.8660  -33.7870 N   0  0  0  0  0  0  0  0  0  0  0  0
   -2.4070   14.7900  -35.1280 C   0  0  0  0  0  0  0  0  0  0  0  0
   -6.2130   16.5880  -34.3690 C   0  0  0  0  0  0  0  0  0  0  0  0
   -6.4740   17.8920  -33.9410 C   0  0  0  0  0  0  0  0  0  0  0  0
   -5.4460   20.5490  -31.9230 C   0  0  0  0  0  0  0  0  0  0  0  0
   -5.7440   21.8510  -31.5020 C   0  0  0  0  0  0  0  0  0  0  0  0
   -2.8195   21.0226  -27.5779 H   0  0  0  0  0  0  0  0  0  0  0  0
   -3.6995   20.7977  -29.1276 H   0  0  0  0  0  0  0  0  0  0  0  0
   -1.9123   20.9774  -29.1276 H   0  0  0  0  0  0  0  0  0  0  0  0
   -4.0285   23.0913  -28.5128 H   0  0  0  0  0  0  0  0  0  0  0  0
   -2.2840   23.2964  -28.0982 H   0  0  0  0  0  0  0  0  0  0  0  0
   -3.0320   25.2990  -30.3010 H   0  0  0  0  0  0  0  0  0  0  0  0
   -7.8699   24.1743  -30.5596 H   0  0  0  0  0  0  0  0  0  0  0  0
   -9.1490   21.7351  -31.3278 H   0  0  0  0  0  0  0  0  0  0  0  0
   -8.6844   19.3959  -32.1217 H   0  0  0  0  0  0  0  0  0  0  0  0
   -5.5643   17.5797  -30.6575 H   0  0  0  0  0  0  0  0  0  0  0  0
   -5.1051   15.2543  -31.4217 H   0  0  0  0  0  0  0  0  0  0  0  0
   -6.1354   13.5395  -33.4819 H   0  0  0  0  0  0  0  0  0  0  0  0
   -5.4799   14.2280  -35.0378 H   0  0  0  0  0  0  0  0  0  0  0  0
   -3.7137   12.9277  -34.2260 H   0  0  0  0  0  0  0  0  0  0  0  0
   -4.1520   14.0574  -31.4248 H   0  0  0  0  0  0  0  0  0  0  0  0
   -4.6627   12.4222  -32.0174 H   0  0  0  0  0  0  0  0  0  0  0  0
   -0.8950   13.6766  -31.3691 H   0  0  0  0  0  0  0  0  0  0  0  0
   -1.1109   13.0306  -33.0817 H   0  0  0  0  0  0  0  0  0  0  0  0
   -2.3655   15.5314  -31.8927 H   0  0  0  0  0  0  0  0  0  0  0  0
   -1.0828   15.4184  -33.1696 H   0  0  0  0  0  0  0  0  0  0  0  0
   -1.3197   14.6534  -35.0325 H   0  0  0  0  0  0  0  0  0  0  0  0
   -2.8367   13.9388  -35.6764 H   0  0  0  0  0  0  0  0  0  0  0  0
   -2.6128   15.7211  -35.6764 H   0  0  0  0  0  0  0  0  0  0  0  0
   -6.3967   16.3097  -35.4172 H   0  0  0  0  0  0  0  0  0  0  0  0
   -6.8626   18.6330  -34.6551 H   0  0  0  0  0  0  0  0  0  0  0  0
   -4.4037   20.2310  -32.0730 H   0  0  0  0  0  0  0  0  0  0  0  0
  1  2  1  0
  2  3  1  0
  3  4  1  0
  4  5  2  0
  4  6  1  0
  6  7  1  0
  7  8  1  0
  8  9  1  0
  8 10  2  0
  7 11  2  0
 11 12  1  0
 12 13  2  0
 13 14  1  0
 14 15  2  0
 15 16  1  0
 16 17  2  0
 17 18  1  0
 18 19  2  0
 19 20  1  0
 20 21  1  0
 21 22  1  0
 22 23  1  0
 23 24  1  0
 24 25  1  0
 25 26  1  0
 26 27  1  0
 19 28  1  0
 28 29  2  0
 15 30  1  0
 30 31  2  0
 31  6  1  0
 31 12  1  0
 29 16  1  0
 26 21  1  0
  1 32  1  0
  1 33  1  0
  1 34  1  0
  2 35  1  0
  2 36  1  0
  9 37  1  0
 11 38  1  0
 13 39  1  0
 14 40  1  0
 17 41  1  0
 18 42  1  0
 20 43  1  0
 20 44  1  0
 21 45  1  6
 22 46  1  0
 22 47  1  0
 24 48  1  0
 24 49  1  0
 25 50  1  0
 25 51  1  0
 27 52  1  0
 27 53  1  0
 27 54  1  0
 28 55  1  0
 29 56  1  0
 30 57  1  0
M  CHG  1   9  -1
M  END
>  <UniqueID>  (68) 
68

>  <SMILES>  (68) 
CCOC(=O)n1c(C([NH-])=O)cc2ccc(-c3ccc(C[C@@H]4COCCN4C)cc3)cc21

>  <Energy>  (68) 
112.7113823841508

>  <Genealogy>  (68) 
CCOC(=O)n1c(C([NH-])=O)cc2ccc(-c3ccc(CC4COCCN4C)cc3)cc21 (protonated)
CCOC(=O)n1c(C([NH-])=O)cc2ccc(-c3ccc(C[C@@H]4COCCN4C)cc3)cc21 (chirality)
CCOC(=O)n1c(C([NH-])=O)cc2ccc(-c3ccc(C[C@@H]4COCCN4C)cc3)cc21 (3D coordinates assigned)
CCOC(=O)n1c(C([NH-])=O)cc2ccc(-c3ccc(C[C@@H]4COCCN4C)cc3)cc21 (nonaromatic ring conformer: 112.7113823841508 kcal/mol)

>  <smiles>  (68) 
CCOC(=O)n1c(C(N)=O)cc2ccc(-c3ccc(CC4COCCN4C)cc3)cc21

>  <score_type>  (68) 
oracle

>  <origin>  (68) 
adg

>  <m_score__min__energy>  (68) 
-11.16

>  <m_primary>  (68) 
energy

$$$$
68:0
     RDKit          3D

 32 33  0  0  0  0  0  0  0  0999 V2000
   -4.4220   17.8790  -33.4770 C   0  0  0  0  0  0  0  0  0  0  0  0
   -5.1980   19.0940  -33.0610 C   0  0  0  0  0  0  0  0  0  0  0  0
   -6.5230   19.2830  -33.5230 C   0  0  0  0  0  0  0  0  0  0  0  0
   -7.2790   20.3870  -33.0970 C   0  0  0  0  0  0  0  0  0  0  0  0
   -6.6830   21.2840  -32.2140 C   0  0  0  0  0  0  0  0  0  0  0  0
   -7.2040   22.4030  -31.6050 C   0  0  0  0  0  0  0  0  0  0  0  0
   -6.1820   22.8900  -30.7940 C   0  0  0  0  0  0  0  0  0  0  0  0
   -6.3060   24.1050  -29.9630 C   0  0  0  0  0  0  0  0  0  0  0  0
   -5.3350   24.4260  -28.9660 N   0  0  0  0  0  0  0  0  0  0  0  0
   -7.2640   24.8970  -30.1680 O   0  0  0  0  0  0  0  0  0  0  0  0
   -5.0730   22.1020  -30.8920 N   0  0  0  0  0  0  0  0  0  0  0  0
   -3.8670   22.2040  -30.1190 C   0  0  0  0  0  0  0  0  0  0  0  0
   -3.8670   21.8400  -28.9120 O   0  0  0  0  0  0  0  0  0  0  0  0
   -2.6100   22.7540  -30.7180 C   0  0  0  0  0  0  0  0  0  0  0  0
   -1.8320   23.3340  -29.6990 O   0  0  0  0  0  0  0  0  0  0  0  0
   -2.4920   24.8610  -29.3210 P   0  0  0  0  0  0  0  0  0  0  0  0
   -3.1260   24.8270  -27.9480 O   0  0  0  0  0  0  0  0  0  0  0  0
   -3.6530   25.3020  -30.4700 O   0  0  0  0  0  0  0  0  0  0  0  0
   -1.2510   26.0100  -29.3260 O   0  0  0  0  0  0  0  0  0  0  0  0
   -5.3980   21.1190  -31.7620 C   0  0  0  0  0  0  0  0  0  0  0  0
   -4.6330   20.0120  -32.1490 C   0  0  0  0  0  0  0  0  0  0  0  0
   -4.0776   17.3398  -32.5822 H   0  0  0  0  0  0  0  0  0  0  0  0
   -5.0667   17.2198  -34.0769 H   0  0  0  0  0  0  0  0  0  0  0  0
   -3.5528   18.1867  -34.0769 H   0  0  0  0  0  0  0  0  0  0  0  0
   -6.9645   18.5579  -34.2225 H   0  0  0  0  0  0  0  0  0  0  0  0
   -8.3098   20.5386  -33.4497 H   0  0  0  0  0  0  0  0  0  0  0  0
   -8.2127   22.8231  -31.7319 H   0  0  0  0  0  0  0  0  0  0  0  0
   -4.4340   23.9050  -28.9010 H   0  0  0  0  0  0  0  0  0  0  0  0
   -5.4720   25.2600  -28.3540 H   0  0  0  0  0  0  0  0  0  0  0  0
   -2.0438   21.9417  -31.1971 H   0  0  0  0  0  0  0  0  0  0  0  0
   -2.8599   23.5142  -31.4728 H   0  0  0  0  0  0  0  0  0  0  0  0
   -3.6180   19.8614  -31.7527 H   0  0  0  0  0  0  0  0  0  0  0  0
  1  2  1  0
  2  3  2  0
  3  4  1  0
  4  5  2  0
  5  6  1  0
  6  7  2  0
  7  8  1  0
  8  9  1  0
  8 10  2  0
  7 11  1  0
 11 12  1  0
 12 13  2  0
 12 14  1  0
 14 15  1  0
 15 16  1  0
 16 17  2  0
 16 18  1  0
 16 19  1  0
 11 20  1  0
 20 21  2  0
 21  2  1  0
 20  5  1  0
  1 22  1  0
  1 23  1  0
  1 24  1  0
  3 25  1  0
  4 26  1  0
  6 27  1  0
  9 28  1  0
  9 29  1  0
 14 30  1  0
 14 31  1  0
 21 32  1  0
M  CHG  2  18  -1  19  -1
M  END
>  <UniqueID>  (69) 
69

>  <SMILES>  (69) 
Cc1ccc2cc(C(N)=O)n(C(=O)COP(=O)([O-])[O-])c2c1

>  <Energy>  (69) 
69.74720835692078

>  <Genealogy>  (69) 
Cc1ccc2cc(C(N)=O)n(C(=O)COP(=O)([O-])[O-])c2c1 (protonated)
Cc1ccc2cc(C(N)=O)n(C(=O)COP(=O)([O-])[O-])c2c1 (3D coordinates assigned)
Cc1ccc2cc(C(N)=O)n(C(=O)COP(=O)([O-])[O-])c2c1 (optimized conformer: 69.74720835692078 kcal/mol)

>  <smiles>  (69) 
Cc1ccc2cc(C(N)=O)n(C(=O)COP(=O)(O)O)c2c1

>  <score_type>  (69) 
oracle

>  <origin>  (69) 
adg

>  <m_score__min__energy>  (69) 
-12.74

>  <m_primary>  (69) 
energy

$$$$
69:0
     RDKit          3D

 39 41  0  0  0  0  0  0  0  0999 V2000
   -1.4440   22.8070  -27.1520 C   0  0  0  0  0  0  0  0  0  0  0  0
   -1.9990   23.5390  -28.3850 C   0  0  0  0  0  0  0  0  0  0  0  0
   -2.9410   22.6930  -29.2700 C   0  0  0  0  0  0  0  0  0  0  0  0
   -2.8900   23.1290  -30.6280 O   0  0  0  0  0  0  0  0  0  0  0  0
   -3.8130   22.7380  -31.6050 C   0  0  0  0  0  0  0  0  0  0  0  0
   -3.4190   22.2490  -32.7000 O   0  0  0  0  0  0  0  0  0  0  0  0
   -5.2180   22.9180  -31.3690 N   0  0  0  0  0  0  0  0  0  0  0  0
   -5.8500   24.0370  -30.9150 C   0  0  0  0  0  0  0  0  0  0  0  0
   -5.1920   25.2630  -30.4200 C   0  0  0  0  0  0  0  0  0  0  0  0
   -3.8750   25.5890  -30.8580 N   0  0  0  0  0  0  0  0  0  0  0  0
   -5.7930   26.0470  -29.6390 O   0  0  0  0  0  0  0  0  0  0  0  0
   -7.2310   23.8480  -30.9070 C   0  0  0  0  0  0  0  0  0  0  0  0
   -7.4270   22.5660  -31.3700 C   0  0  0  0  0  0  0  0  0  0  0  0
   -8.6070   21.8620  -31.5830 C   0  0  0  0  0  0  0  0  0  0  0  0
   -8.5140   20.5610  -32.1050 C   0  0  0  0  0  0  0  0  0  0  0  0
   -7.2500   19.9940  -32.4090 C   0  0  0  0  0  0  0  0  0  0  0  0
   -7.1740   18.6090  -32.9840 C   0  0  0  0  0  0  0  0  0  0  0  0
   -6.2580   18.5820  -34.0190 F   0  0  0  0  0  0  0  0  0  0  0  0
   -6.7790   17.7190  -32.0010 F   0  0  0  0  0  0  0  0  0  0  0  0
   -6.0720   20.7400  -32.1810 C   0  0  0  0  0  0  0  0  0  0  0  0
   -6.1960   22.0260  -31.6430 C   0  0  0  0  0  0  0  0  0  0  0  0
   -2.5370   24.9250  -28.0770 C   0  0  0  0  0  0  0  0  0  0  0  0
   -1.5230   25.5580  -28.8210 O   0  0  0  0  0  0  0  0  0  0  0  0
   -0.9510   24.3150  -29.1610 C   0  0  0  0  0  0  0  0  0  0  0  0
   -1.8141   23.2951  -26.2384 H   0  0  0  0  0  0  0  0  0  0  0  0
   -1.7761   21.7584  -27.1678 H   0  0  0  0  0  0  0  0  0  0  0  0
   -0.3447   22.8437  -27.1678 H   0  0  0  0  0  0  0  0  0  0  0  0
   -2.6332   21.6382  -29.2184 H   0  0  0  0  0  0  0  0  0  0  0  0
   -3.9706   22.8107  -28.9010 H   0  0  0  0  0  0  0  0  0  0  0  0
   -3.0370   25.2790  -30.3170 H   0  0  0  0  0  0  0  0  0  0  0  0
   -8.0009   24.5698  -30.5967 H   0  0  0  0  0  0  0  0  0  0  0  0
   -9.5841   22.3103  -31.3498 H   0  0  0  0  0  0  0  0  0  0  0  0
   -9.4296   19.9769  -32.2795 H   0  0  0  0  0  0  0  0  0  0  0  0
   -8.1654   18.3222  -33.3647 H   0  0  0  0  0  0  0  0  0  0  0  0
   -5.0834   20.3210  -32.4201 H   0  0  0  0  0  0  0  0  0  0  0  0
   -3.5473   25.1012  -28.4748 H   0  0  0  0  0  0  0  0  0  0  0  0
   -2.6870   25.2162  -27.0269 H   0  0  0  0  0  0  0  0  0  0  0  0
   -0.9628   24.1079  -30.2413 H   0  0  0  0  0  0  0  0  0  0  0  0
    0.1124   24.1403  -28.9405 H   0  0  0  0  0  0  0  0  0  0  0  0
  1  2  1  0
  2  3  1  0
  3  4  1  0
  4  5  1  0
  5  6  2  0
  5  7  1  0
  7  8  1  0
  8  9  1  0
  9 10  1  0
  9 11  2  0
  8 12  2  0
 12 13  1  0
 13 14  2  0
 14 15  1  0
 15 16  2  0
 16 17  1  0
 17 18  1  0
 17 19  1  0
 16 20  1  0
 20 21  2  0
  2 22  1  0
 22 23  1  0
 23 24  1  0
 24  2  1  0
 21  7  1  0
 21 13  1  0
  1 25  1  0
  1 26  1  0
  1 27  1  0
  3 28  1  0
  3 29  1  0
 10 30  1  0
 12 31  1  0
 14 32  1  0
 15 33  1  0
 17 34  1  0
 20 35  1  0
 22 36  1  0
 22 37  1  0
 24 38  1  0
 24 39  1  0
M  CHG  1  10  -1
M  END
>  <UniqueID>  (70) 
70

>  <SMILES>  (70) 
CC1(COC(=O)n2c(C([NH-])=O)cc3ccc(C(F)F)cc32)COC1

>  <Energy>  (70) 
140.0849800748367

>  <Genealogy>  (70) 
CC1(COC(=O)n2c(C([NH-])=O)cc3ccc(C(F)F)cc32)COC1 (protonated)
CC1(COC(=O)n2c(C([NH-])=O)cc3ccc(C(F)F)cc32)COC1 (3D coordinates assigned)
CC1(COC(=O)n2c(C([NH-])=O)cc3ccc(C(F)F)cc32)COC1 (nonaromatic ring conformer: 140.0849800748367 kcal/mol)

>  <smiles>  (70) 
CC1(COC(=O)n2c(C(N)=O)cc3ccc(C(F)F)cc32)COC1

>  <score_type>  (70) 
oracle

>  <origin>  (70) 
adg

>  <m_score__min__energy>  (70) 
-10.289999999999999

>  <m_primary>  (70) 
energy

$$$$
70:0
     RDKit          3D

 40 42  0  0  0  0  0  0  0  0999 V2000
   -1.5980   25.9580  -28.9450 N   0  0  0  0  0  0  0  0  0  0  0  0
   -0.9290   24.7000  -28.9750 C   0  0  0  0  0  0  0  0  0  0  0  0
    0.1170   24.5410  -28.2910 O   0  0  0  0  0  0  0  0  0  0  0  0
   -1.4760   23.5670  -29.7480 C   0  0  0  0  0  0  0  0  0  0  0  0
   -0.7130   22.4660  -30.1370 C   0  0  0  0  0  0  0  0  0  0  0  0
   -1.5970   21.6060  -30.7450 C   0  0  0  0  0  0  0  0  0  0  0  0
   -1.3750   20.3660  -31.3350 C   0  0  0  0  0  0  0  0  0  0  0  0
   -2.4690   19.7100  -31.9220 C   0  0  0  0  0  0  0  0  0  0  0  0
   -3.7570   20.3010  -31.9080 C   0  0  0  0  0  0  0  0  0  0  0  0
   -4.9100   19.6180  -32.5950 C   0  0  0  0  0  0  0  0  0  0  0  0
   -5.7110   20.6030  -33.4580 C   0  0  0  0  0  0  0  0  0  0  0  0
   -7.1450   20.5930  -33.0900 N   0  0  0  0  0  0  0  0  0  0  0  0
   -7.5880   19.2520  -32.6660 C   0  0  0  0  0  0  0  0  0  0  0  0
   -9.1000   19.2730  -32.3500 C   0  0  0  0  0  0  0  0  0  0  0  0
   -9.6250   20.5880  -32.3070 O   0  0  0  0  0  0  0  0  0  0  0  0
   -8.8380   21.3900  -31.4490 C   0  0  0  0  0  0  0  0  0  0  0  0
   -7.4170   21.5720  -32.0190 C   0  0  0  0  0  0  0  0  0  0  0  0
   -3.9430   21.5660  -31.3080 C   0  0  0  0  0  0  0  0  0  0  0  0
   -2.8380   22.1890  -30.7140 C   0  0  0  0  0  0  0  0  0  0  0  0
   -2.7800   23.3970  -30.1090 N   0  0  0  0  0  0  0  0  0  0  0  0
   -3.8570   24.3380  -29.9780 C   0  0  0  0  0  0  0  0  0  0  0  0
   -4.8110   24.1070  -29.1900 O   0  0  0  0  0  0  0  0  0  0  0  0
   -3.8700   25.4990  -30.7410 O   0  0  0  0  0  0  0  0  0  0  0  0
   -2.6400   26.0120  -28.9830 H   0  0  0  0  0  0  0  0  0  0  0  0
    0.3668   22.3173  -29.9888 H   0  0  0  0  0  0  0  0  0  0  0  0
   -0.3726   19.9130  -31.3415 H   0  0  0  0  0  0  0  0  0  0  0  0
   -2.3250   18.7284  -32.3971 H   0  0  0  0  0  0  0  0  0  0  0  0
   -4.5191   18.8153  -33.2375 H   0  0  0  0  0  0  0  0  0  0  0  0
   -5.5797   19.2096  -31.8238 H   0  0  0  0  0  0  0  0  0  0  0  0
   -5.3100   21.6168  -33.3115 H   0  0  0  0  0  0  0  0  0  0  0  0
   -5.6193   20.2982  -34.5109 H   0  0  0  0  0  0  0  0  0  0  0  0
   -7.3943   18.5315  -33.4743 H   0  0  0  0  0  0  0  0  0  0  0  0
   -7.0335   18.9562  -31.7632 H   0  0  0  0  0  0  0  0  0  0  0  0
   -9.6314   18.7059  -33.1285 H   0  0  0  0  0  0  0  0  0  0  0  0
   -9.2410   18.8232  -31.3561 H   0  0  0  0  0  0  0  0  0  0  0  0
   -9.3125   22.3766  -31.3419 H   0  0  0  0  0  0  0  0  0  0  0  0
   -8.7641   20.8920  -30.4710 H   0  0  0  0  0  0  0  0  0  0  0  0
   -7.3216   22.5884  -32.4286 H   0  0  0  0  0  0  0  0  0  0  0  0
   -6.6918   21.4128  -31.2074 H   0  0  0  0  0  0  0  0  0  0  0  0
   -4.9309   22.0498  -31.3072 H   0  0  0  0  0  0  0  0  0  0  0  0
  1  2  1  0
  2  3  2  0
  2  4  1  0
  4  5  2  0
  5  6  1  0
  6  7  2  0
  7  8  1  0
  8  9  2  0
  9 10  1  0
 10 11  1  0
 11 12  1  0
 12 13  1  0
 13 14  1  0
 14 15  1  0
 15 16  1  0
 16 17  1  0
  9 18  1  0
 18 19  2  0
 19 20  1  0
 20 21  1  0
 21 22  2  0
 21 23  1  0
 20  4  1  0
 19  6  1  0
 17 12  1  0
  1 24  1  0
  5 25  1  0
  7 26  1  0
  8 27  1  0
 10 28  1  0
 10 29  1  0
 11 30  1  0
 11 31  1  0
 13 32  1  0
 13 33  1  0
 14 34  1  0
 14 35  1  0
 16 36  1  0
 16 37  1  0
 17 38  1  0
 17 39  1  0
 18 40  1  0
M  CHG  2   1  -1  23  -1
M  END
>  <UniqueID>  (71) 
71

>  <SMILES>  (71) 
[NH-]C(=O)c1cc2ccc(CCN3CCOCC3)cc2n1C(=O)[O-]

>  <Energy>  (71) 
87.90277069455034

>  <Genealogy>  (71) 
[NH-]C(=O)c1cc2ccc(CCN3CCOCC3)cc2n1C(=O)[O-] (protonated)
[NH-]C(=O)c1cc2ccc(CCN3CCOCC3)cc2n1C(=O)[O-] (3D coordinates assigned)
[NH-]C(=O)c1cc2ccc(CCN3CCOCC3)cc2n1C(=O)[O-] (nonaromatic ring conformer: 87.90277069455034 kcal/mol)

>  <smiles>  (71) 
NC(=O)c1cc2ccc(CCN3CCOCC3)cc2n1C(=O)O

>  <score_type>  (71) 
oracle

>  <origin>  (71) 
adg

>  <m_score__min__energy>  (71) 
-11.640000000000001

>  <m_primary>  (71) 
energy

$$$$
71:0
     RDKit          3D

 31 33  0  0  0  0  0  0  0  0999 V2000
   -1.5490   25.9500  -28.9520 N   0  0  0  0  0  0  0  0  0  0  0  0
   -0.9350   24.6640  -28.9920 C   0  0  0  0  0  0  0  0  0  0  0  0
    0.1960   24.5040  -28.4610 O   0  0  0  0  0  0  0  0  0  0  0  0
   -1.5790   23.5360  -29.6970 C   0  0  0  0  0  0  0  0  0  0  0  0
   -0.9140   22.3550  -30.0180 C   0  0  0  0  0  0  0  0  0  0  0  0
   -1.8180   21.6120  -30.7410 C   0  0  0  0  0  0  0  0  0  0  0  0
   -1.6880   20.3470  -31.3070 C   0  0  0  0  0  0  0  0  0  0  0  0
   -2.7970   19.8100  -31.9790 C   0  0  0  0  0  0  0  0  0  0  0  0
   -4.0120   20.5340  -32.0610 C   0  0  0  0  0  0  0  0  0  0  0  0
   -5.1730   19.9470  -32.7620 C   0  0  0  0  0  0  0  0  0  0  0  0
   -6.4970   20.2870  -32.5670 C   0  0  0  0  0  0  0  0  0  0  0  0
   -7.1660   21.4330  -31.4190 Cl  0  0  0  0  0  0  0  0  0  0  0  0
   -7.2080   19.4890  -33.4390 C   0  0  0  0  0  0  0  0  0  0  0  0
   -6.3490   18.7160  -34.1350 N   0  0  0  0  0  0  0  0  0  0  0  0
   -5.1220   18.9980  -33.7240 N   0  0  0  0  0  0  0  0  0  0  0  0
   -3.9300   18.3730  -34.2940 C   0  0  0  0  0  0  0  0  0  0  0  0
   -4.2890   17.5050  -35.3100 F   0  0  0  0  0  0  0  0  0  0  0  0
   -4.1050   21.8170  -31.4820 C   0  0  0  0  0  0  0  0  0  0  0  0
   -2.9780   22.3370  -30.8330 C   0  0  0  0  0  0  0  0  0  0  0  0
   -2.8490   23.5220  -30.1950 N   0  0  0  0  0  0  0  0  0  0  0  0
   -3.8790   24.5030  -29.9980 C   0  0  0  0  0  0  0  0  0  0  0  0
   -4.7590   24.3350  -29.1130 O   0  0  0  0  0  0  0  0  0  0  0  0
   -3.8990   25.6620  -30.7650 O   0  0  0  0  0  0  0  0  0  0  0  0
   -2.5890   26.0490  -28.9740 H   0  0  0  0  0  0  0  0  0  0  0  0
    0.1157   22.0757  -29.7501 H   0  0  0  0  0  0  0  0  0  0  0  0
   -0.7452   19.7855  -31.2300 H   0  0  0  0  0  0  0  0  0  0  0  0
   -2.7221   18.8172  -32.4466 H   0  0  0  0  0  0  0  0  0  0  0  0
   -8.3024   19.4838  -33.5494 H   0  0  0  0  0  0  0  0  0  0  0  0
   -3.2681   19.1529  -34.6985 H   0  0  0  0  0  0  0  0  0  0  0  0
   -3.4069   17.8100  -33.5070 H   0  0  0  0  0  0  0  0  0  0  0  0
   -5.0394   22.3947  -31.5388 H   0  0  0  0  0  0  0  0  0  0  0  0
  1  2  1  0
  2  3  2  0
  2  4  1  0
  4  5  2  0
  5  6  1  0
  6  7  2  0
  7  8  1  0
  8  9  2  0
  9 10  1  0
 10 11  2  0
 11 12  1  0
 11 13  1  0
 13 14  2  0
 14 15  1  0
 15 16  1  0
 16 17  1  0
  9 18  1  0
 18 19  2  0
 19 20  1  0
 20 21  1  0
 21 22  2  0
 21 23  1  0
 20  4  1  0
 19  6  1  0
 15 10  1  0
  1 24  1  0
  5 25  1  0
  7 26  1  0
  8 27  1  0
 13 28  1  0
 16 29  1  0
 16 30  1  0
 18 31  1  0
M  CHG  2   1  -1  23  -1
M  END
>  <UniqueID>  (72) 
72

>  <SMILES>  (72) 
[NH-]C(=O)c1cc2ccc(-c3c(Cl)cnn3CF)cc2n1C(=O)[O-]

>  <Energy>  (72) 
109.4518238195552

>  <Genealogy>  (72) 
[NH-]C(=O)c1cc2ccc(-c3c(Cl)cnn3CF)cc2n1C(=O)[O-] (protonated)
[NH-]C(=O)c1cc2ccc(-c3c(Cl)cnn3CF)cc2n1C(=O)[O-] (3D coordinates assigned)
[NH-]C(=O)c1cc2ccc(-c3c(Cl)cnn3CF)cc2n1C(=O)[O-] (optimized conformer: 109.4518238195552 kcal/mol)

>  <smiles>  (72) 
NC(=O)c1cc2ccc(-c3c(Cl)cnn3CF)cc2n1C(=O)O

>  <score_type>  (72) 
oracle

>  <origin>  (72) 
adg

>  <m_score__min__energy>  (72) 
-11.369999999999999

>  <m_primary>  (72) 
energy

$$$$
72:0
     RDKit          3D

 32 33  0  0  0  0  0  0  0  0999 V2000
   -9.1760   20.6490  -31.9610 C   0  0  0  0  0  0  0  0  0  0  0  0
   -9.4050   22.1420  -31.7990 C   0  0  0  0  0  0  0  0  0  0  0  0
   -8.1730   22.8330  -31.9790 O   0  0  0  0  0  0  0  0  0  0  0  0
   -7.1680   22.8510  -31.0080 C   0  0  0  0  0  0  0  0  0  0  0  0
   -7.4580   23.0590  -29.7980 O   0  0  0  0  0  0  0  0  0  0  0  0
   -5.8010   22.6250  -31.3890 N   0  0  0  0  0  0  0  0  0  0  0  0
   -4.7070   23.3560  -31.0330 C   0  0  0  0  0  0  0  0  0  0  0  0
   -4.7240   24.6380  -30.3010 C   0  0  0  0  0  0  0  0  0  0  0  0
   -5.3360   24.7500  -29.0150 N   0  0  0  0  0  0  0  0  0  0  0  0
   -4.2400   25.6670  -30.8430 O   0  0  0  0  0  0  0  0  0  0  0  0
   -3.5400   22.7570  -31.4990 C   0  0  0  0  0  0  0  0  0  0  0  0
   -3.9540   21.6310  -32.1720 C   0  0  0  0  0  0  0  0  0  0  0  0
   -3.2070   20.6550  -32.8250 C   0  0  0  0  0  0  0  0  0  0  0  0
   -3.8950   19.5760  -33.4040 C   0  0  0  0  0  0  0  0  0  0  0  0
   -5.3060   19.4880  -33.3130 C   0  0  0  0  0  0  0  0  0  0  0  0
   -6.0370   18.3210  -33.9150 C   0  0  0  0  0  0  0  0  0  0  0  0
   -7.3240   18.2690  -33.4130 F   0  0  0  0  0  0  0  0  0  0  0  0
   -6.0870   18.4590  -35.2890 F   0  0  0  0  0  0  0  0  0  0  0  0
   -6.0320   20.4960  -32.6390 C   0  0  0  0  0  0  0  0  0  0  0  0
   -5.3220   21.5720  -32.0900 C   0  0  0  0  0  0  0  0  0  0  0  0
   -9.1040   20.1793  -30.9689 H   0  0  0  0  0  0  0  0  0  0  0  0
  -10.0169   20.2071  -32.5157 H   0  0  0  0  0  0  0  0  0  0  0  0
   -8.2413   20.4795  -32.5157 H   0  0  0  0  0  0  0  0  0  0  0  0
  -10.1313   22.4853  -32.5505 H   0  0  0  0  0  0  0  0  0  0  0  0
   -9.7962   22.3459  -30.7913 H   0  0  0  0  0  0  0  0  0  0  0  0
   -5.2920   25.6500  -28.4900 H   0  0  0  0  0  0  0  0  0  0  0  0
   -5.9020   23.9670  -28.6170 H   0  0  0  0  0  0  0  0  0  0  0  0
   -2.5073   23.1090  -31.3590 H   0  0  0  0  0  0  0  0  0  0  0  0
   -2.1110   20.7265  -32.8858 H   0  0  0  0  0  0  0  0  0  0  0  0
   -3.3331   18.7921  -33.9329 H   0  0  0  0  0  0  0  0  0  0  0  0
   -5.5049   17.3927  -33.6597 H   0  0  0  0  0  0  0  0  0  0  0  0
   -7.1266   20.4373  -32.5477 H   0  0  0  0  0  0  0  0  0  0  0  0
  1  2  1  0
  2  3  1  0
  3  4  1  0
  4  5  2  0
  4  6  1  0
  6  7  1  0
  7  8  1  0
  8  9  1  0
  8 10  2  0
  7 11  2  0
 11 12  1  0
 12 13  2  0
 13 14  1  0
 14 15  2  0
 15 16  1  0
 16 17  1  0
 16 18  1  0
 15 19  1  0
 19 20  2  0
 20  6  1  0
 20 12  1  0
  1 21  1  0
  1 22  1  0
  1 23  1  0
  2 24  1  0
  2 25  1  0
  9 26  1  0
  9 27  1  0
 11 28  1  0
 13 29  1  0
 14 30  1  0
 16 31  1  0
 19 32  1  0
M  END
>  <UniqueID>  (73) 
73

>  <SMILES>  (73) 
CCOC(=O)n1c(C(N)=O)cc2ccc(C(F)F)cc21

>  <Energy>  (73) 
66.15867632719507

>  <Genealogy>  (73) 
CCOC(=O)n1c(C(N)=O)cc2ccc(C(F)F)cc21 (3D coordinates assigned)
CCOC(=O)n1c(C(N)=O)cc2ccc(C(F)F)cc21 (optimized conformer: 66.15867632719507 kcal/mol)

>  <smiles>  (73) 
CCOC(=O)n1c(C(N)=O)cc2ccc(C(F)F)cc21

>  <score_type>  (73) 
oracle

>  <origin>  (73) 
adg

>  <m_score__min__energy>  (73) 
-7.4500000000000002

>  <m_primary>  (73) 
energy

$$$$
73:0
     RDKit          3D

 37 39  0  0  0  0  0  0  0  0999 V2000
   -3.9080   25.6690  -30.8360 N   0  0  0  0  0  0  0  0  0  0  0  0
   -5.2050   25.2070  -30.4680 C   0  0  0  0  0  0  0  0  0  0  0  0
   -5.9250   25.9190  -29.7190 O   0  0  0  0  0  0  0  0  0  0  0  0
   -5.6810   23.8930  -30.9460 C   0  0  0  0  0  0  0  0  0  0  0  0
   -6.9990   23.6310  -31.3170 C   0  0  0  0  0  0  0  0  0  0  0  0
   -7.0020   22.3270  -31.7620 C   0  0  0  0  0  0  0  0  0  0  0  0
   -8.0440   21.5450  -32.2480 C   0  0  0  0  0  0  0  0  0  0  0  0
   -7.7540   20.2220  -32.6260 C   0  0  0  0  0  0  0  0  0  0  0  0
   -6.4360   19.7080  -32.5150 C   0  0  0  0  0  0  0  0  0  0  0  0
   -6.1600   18.3470  -32.8980 N   0  0  0  0  0  0  0  0  0  0  0  0
   -6.1120   17.9720  -34.3150 C   0  0  0  0  0  0  0  0  0  0  0  0
   -5.1860   16.7640  -34.4960 C   0  0  0  0  0  0  0  0  0  0  0  0
   -5.5540   15.7130  -33.6230 O   0  0  0  0  0  0  0  0  0  0  0  0
   -5.3570   16.1160  -32.2800 C   0  0  0  0  0  0  0  0  0  0  0  0
   -6.2980   17.2680  -31.9150 C   0  0  0  0  0  0  0  0  0  0  0  0
   -5.4050   20.5350  -32.0120 C   0  0  0  0  0  0  0  0  0  0  0  0
   -5.7230   21.8460  -31.6510 C   0  0  0  0  0  0  0  0  0  0  0  0
   -4.9050   22.7920  -31.1470 N   0  0  0  0  0  0  0  0  0  0  0  0
   -3.5060   22.6310  -30.8700 C   0  0  0  0  0  0  0  0  0  0  0  0
   -2.9990   23.2150  -29.8750 O   0  0  0  0  0  0  0  0  0  0  0  0
   -2.6200   21.8540  -31.7970 C   0  0  0  0  0  0  0  0  0  0  0  0
   -2.6670   20.5030  -31.5050 F   0  0  0  0  0  0  0  0  0  0  0  0
   -1.3170   22.2990  -31.6770 F   0  0  0  0  0  0  0  0  0  0  0  0
   -3.0460   22.0440  -33.0990 F   0  0  0  0  0  0  0  0  0  0  0  0
   -3.0530   25.3010  -30.3630 H   0  0  0  0  0  0  0  0  0  0  0  0
   -7.8553   24.3195  -31.2654 H   0  0  0  0  0  0  0  0  0  0  0  0
   -9.0636   21.9488  -32.3341 H   0  0  0  0  0  0  0  0  0  0  0  0
   -8.5580   19.5782  -33.0121 H   0  0  0  0  0  0  0  0  0  0  0  0
   -7.1239   17.7125  -34.6595 H   0  0  0  0  0  0  0  0  0  0  0  0
   -5.7282   18.8180  -34.9040 H   0  0  0  0  0  0  0  0  0  0  0  0
   -5.2541   16.4100  -35.5353 H   0  0  0  0  0  0  0  0  0  0  0  0
   -4.1559   17.0715  -34.2627 H   0  0  0  0  0  0  0  0  0  0  0  0
   -5.5559   15.2630  -31.6145 H   0  0  0  0  0  0  0  0  0  0  0  0
   -4.3182   16.4583  -32.1630 H   0  0  0  0  0  0  0  0  0  0  0  0
   -7.3366   16.9055  -31.9129 H   0  0  0  0  0  0  0  0  0  0  0  0
   -6.0385   17.6488  -30.9162 H   0  0  0  0  0  0  0  0  0  0  0  0
   -4.3780   20.1550  -31.9077 H   0  0  0  0  0  0  0  0  0  0  0  0
  1  2  1  0
  2  3  2  0
  2  4  1  0
  4  5  2  0
  5  6  1  0
  6  7  2  0
  7  8  1  0
  8  9  2  0
  9 10  1  0
 10 11  1  0
 11 12  1  0
 12 13  1  0
 13 14  1  0
 14 15  1  0
  9 16  1  0
 16 17  2  0
 17 18  1  0
 18 19  1  0
 19 20  2  0
 19 21  1  0
 21 22  1  0
 21 23  1  0
 21 24  1  0
 18  4  1  0
 17  6  1  0
 15 10  1  0
  1 25  1  0
  5 26  1  0
  7 27  1  0
  8 28  1  0
 11 29  1  0
 11 30  1  0
 12 31  1  0
 12 32  1  0
 14 33  1  0
 14 34  1  0
 15 35  1  0
 15 36  1  0
 16 37  1  0
M  CHG  1   1  -1
M  END
>  <UniqueID>  (74) 
74

>  <SMILES>  (74) 
[NH-]C(=O)c1cc2ccc(N3CCOCC3)cc2n1C(=O)C(F)(F)F

>  <Energy>  (74) 
83.25071590184668

>  <Genealogy>  (74) 
[NH-]C(=O)c1cc2ccc(N3CCOCC3)cc2n1C(=O)C(F)(F)F (protonated)
[NH-]C(=O)c1cc2ccc(N3CCOCC3)cc2n1C(=O)C(F)(F)F (3D coordinates assigned)
[NH-]C(=O)c1cc2ccc(N3CCOCC3)cc2n1C(=O)C(F)(F)F (nonaromatic ring conformer: 83.25071590184668 kcal/mol)

>  <smiles>  (74) 
NC(=O)c1cc2ccc(N3CCOCC3)cc2n1C(=O)C(F)(F)F

>  <score_type>  (74) 
oracle

>  <origin>  (74) 
adg

>  <m_score__min__energy>  (74) 
-9.9800000000000004

>  <m_primary>  (74) 
energy

$$$$
74:0
     RDKit          3D

 30 32  0  0  0  0  0  0  0  0999 V2000
   -3.6230   25.1610  -30.4470 N   0  0  0  0  0  0  0  0  0  0  0  0
   -5.0310   25.2630  -30.6460 C   0  0  0  0  0  0  0  0  0  0  0  0
   -5.5830   26.3940  -30.5850 O   0  0  0  0  0  0  0  0  0  0  0  0
   -5.8410   24.0700  -30.9700 C   0  0  0  0  0  0  0  0  0  0  0  0
   -7.1990   23.9600  -30.6780 C   0  0  0  0  0  0  0  0  0  0  0  0
   -7.5940   22.7600  -31.2220 C   0  0  0  0  0  0  0  0  0  0  0  0
   -8.8430   22.1490  -31.2350 C   0  0  0  0  0  0  0  0  0  0  0  0
   -8.9570   20.8970  -31.8610 C   0  0  0  0  0  0  0  0  0  0  0  0
   -7.8280   20.2710  -32.4420 C   0  0  0  0  0  0  0  0  0  0  0  0
   -7.9880   18.9950  -33.0850 N   0  0  0  0  0  0  0  0  0  0  0  0
   -6.9900   17.9650  -33.0860 C   0  0  0  0  0  0  0  0  0  0  0  0
   -6.5270   17.3570  -31.9760 N   0  0  0  0  0  0  0  0  0  0  0  0
   -5.6720   16.4550  -32.4950 C   0  0  0  0  0  0  0  0  0  0  0  0
   -5.6300   16.5050  -33.8400 N   0  0  0  0  0  0  0  0  0  0  0  0
   -6.4680   17.4560  -34.2150 N   0  0  0  0  0  0  0  0  0  0  0  0
   -6.5780   20.9330  -32.4280 C   0  0  0  0  0  0  0  0  0  0  0  0
   -6.4970   22.1860  -31.8090 C   0  0  0  0  0  0  0  0  0  0  0  0
   -5.4120   22.9760  -31.6600 N   0  0  0  0  0  0  0  0  0  0  0  0
   -4.0730   22.6630  -32.0770 C   0  0  0  0  0  0  0  0  0  0  0  0
   -3.8040   22.3020  -33.4310 N   0  0  0  0  0  0  0  0  0  0  0  0
   -3.1230   22.7420  -31.2520 O   0  0  0  0  0  0  0  0  0  0  0  0
   -2.9900   24.8810  -31.2280 H   0  0  0  0  0  0  0  0  0  0  0  0
   -7.8231   24.6803  -30.1287 H   0  0  0  0  0  0  0  0  0  0  0  0
   -9.7150   22.6314  -30.7693 H   0  0  0  0  0  0  0  0  0  0  0  0
   -9.9358   20.3965  -31.9003 H   0  0  0  0  0  0  0  0  0  0  0  0
   -8.9180   18.7620  -33.5010 H   0  0  0  0  0  0  0  0  0  0  0  0
   -5.0758   15.7569  -31.8891 H   0  0  0  0  0  0  0  0  0  0  0  0
   -5.6920   20.4748  -32.8918 H   0  0  0  0  0  0  0  0  0  0  0  0
   -2.8320   22.0650  -33.7310 H   0  0  0  0  0  0  0  0  0  0  0  0
   -4.5670   22.3070  -34.1430 H   0  0  0  0  0  0  0  0  0  0  0  0
  1  2  1  0
  2  3  2  0
  2  4  1  0
  4  5  2  0
  5  6  1  0
  6  7  2  0
  7  8  1  0
  8  9  2  0
  9 10  1  0
 10 11  1  0
 11 12  2  0
 12 13  1  0
 13 14  2  0
 14 15  1  0
  9 16  1  0
 16 17  2  0
 17 18  1  0
 18 19  1  0
 19 20  1  0
 19 21  2  0
 18  4  1  0
 17  6  1  0
 15 11  1  0
  1 22  1  0
  5 23  1  0
  7 24  1  0
  8 25  1  0
 10 26  1  0
 13 27  1  0
 16 28  1  0
 20 29  1  0
 20 30  1  0
M  CHG  2   1  -1  15  -1
M  END
>  <UniqueID>  (75) 
75

>  <SMILES>  (75) 
[NH-]C(=O)c1cc2ccc(Nc3ncn[n-]3)cc2n1C(N)=O

>  <Energy>  (75) 
106.26566329300381

>  <Genealogy>  (75) 
[NH-]C(=O)c1cc2ccc(Nc3ncn[n-]3)cc2n1C(N)=O (protonated)
[NH-]C(=O)c1cc2ccc(Nc3ncn[n-]3)cc2n1C(N)=O (3D coordinates assigned)
[NH-]C(=O)c1cc2ccc(Nc3ncn[n-]3)cc2n1C(N)=O (optimized conformer: 106.26566329300381 kcal/mol)

>  <smiles>  (75) 
NC(=O)c1cc2ccc(Nc3ncn[nH]3)cc2n1C(N)=O

>  <score_type>  (75) 
oracle

>  <origin>  (75) 
adg

>  <m_score__min__energy>  (75) 
-11.039999999999999

>  <m_primary>  (75) 
energy

$$$$
75:0
     RDKit          3D

 23 24  0  0  0  0  0  0  0  0999 V2000
   -1.5960   25.7560  -28.9470 N   0  0  0  0  0  0  0  0  0  0  0  0
   -1.0260   24.4620  -29.1210 C   0  0  0  0  0  0  0  0  0  0  0  0
    0.0850   24.1990  -28.5890 O   0  0  0  0  0  0  0  0  0  0  0  0
   -1.6930   23.4460  -29.9620 C   0  0  0  0  0  0  0  0  0  0  0  0
   -1.0670   22.2760  -30.3890 C   0  0  0  0  0  0  0  0  0  0  0  0
   -1.9770   21.6570  -31.2150 C   0  0  0  0  0  0  0  0  0  0  0  0
   -1.8820   20.4530  -31.9060 C   0  0  0  0  0  0  0  0  0  0  0  0
   -2.9920   20.0390  -32.6630 C   0  0  0  0  0  0  0  0  0  0  0  0
   -4.1660   20.8270  -32.7080 C   0  0  0  0  0  0  0  0  0  0  0  0
   -5.2920   20.3890  -33.4720 N   0  0  0  0  0  0  0  0  0  0  0  0
   -4.2280   22.0430  -31.9940 C   0  0  0  0  0  0  0  0  0  0  0  0
   -3.1020   22.4400  -31.2620 C   0  0  0  0  0  0  0  0  0  0  0  0
   -2.9450   23.5420  -30.4940 N   0  0  0  0  0  0  0  0  0  0  0  0
   -3.9390   24.5430  -30.2240 C   0  0  0  0  0  0  0  0  0  0  0  0
   -3.8700   25.6730  -30.7750 O   0  0  0  0  0  0  0  0  0  0  0  0
   -5.0030   24.2630  -29.3750 O   0  0  0  0  0  0  0  0  0  0  0  0
   -2.6300   25.8970  -28.9800 H   0  0  0  0  0  0  0  0  0  0  0  0
   -0.0600   21.9227  -30.1224 H   0  0  0  0  0  0  0  0  0  0  0  0
   -0.9670   19.8441  -31.8614 H   0  0  0  0  0  0  0  0  0  0  0  0
   -2.9472   19.0945  -33.2250 H   0  0  0  0  0  0  0  0  0  0  0  0
   -5.7270   21.0110  -34.1900 H   0  0  0  0  0  0  0  0  0  0  0  0
   -5.7010   19.4400  -33.3240 H   0  0  0  0  0  0  0  0  0  0  0  0
   -5.1368   22.6625  -32.0120 H   0  0  0  0  0  0  0  0  0  0  0  0
  1  2  1  0
  2  3  2  0
  2  4  1  0
  4  5  2  0
  5  6  1  0
  6  7  2  0
  7  8  1  0
  8  9  2  0
  9 10  1  0
  9 11  1  0
 11 12  2  0
 12 13  1  0
 13 14  1  0
 14 15  2  0
 14 16  1  0
 13  4  1  0
 12  6  1  0
  1 17  1  0
  5 18  1  0
  7 19  1  0
  8 20  1  0
 10 21  1  0
 10 22  1  0
 11 23  1  0
M  CHG  2   1  -1  16  -1
M  END
>  <UniqueID>  (76) 
76

>  <SMILES>  (76) 
[NH-]C(=O)c1cc2ccc(N)cc2n1C(=O)[O-]

>  <Energy>  (76) 
62.76577768616809

>  <Genealogy>  (76) 
[NH-]C(=O)c1cc2ccc(N)cc2n1C(=O)[O-] (protonated)
[NH-]C(=O)c1cc2ccc(N)cc2n1C(=O)[O-] (3D coordinates assigned)
[NH-]C(=O)c1cc2ccc(N)cc2n1C(=O)[O-] (optimized conformer: 62.76577768616809 kcal/mol)

>  <smiles>  (76) 
NC(=O)c1cc2ccc(N)cc2n1C(=O)O

>  <score_type>  (76) 
oracle

>  <origin>  (76) 
adg

>  <m_score__min__energy>  (76) 
-9.1199999999999992

>  <m_primary>  (76) 
energy

$$$$
76:0
     RDKit          3D

 36 38  0  0  0  0  0  0  0  0999 V2000
   -5.6960   24.8820  -29.0940 C   0  0  0  0  0  0  0  0  0  0  0  0
   -4.6290   24.7090  -30.1270 C   0  0  0  0  0  0  0  0  0  0  0  0
   -4.3140   25.6860  -30.8580 O   0  0  0  0  0  0  0  0  0  0  0  0
   -4.0220   23.4270  -30.3500 N   0  0  0  0  0  0  0  0  0  0  0  0
   -2.7390   23.0440  -30.0900 C   0  0  0  0  0  0  0  0  0  0  0  0
   -1.6420   23.9320  -29.6520 C   0  0  0  0  0  0  0  0  0  0  0  0
   -1.8860   25.3020  -29.3470 N   0  0  0  0  0  0  0  0  0  0  0  0
   -0.4650   23.4840  -29.5880 O   0  0  0  0  0  0  0  0  0  0  0  0
   -2.5680   21.6900  -30.3720 C   0  0  0  0  0  0  0  0  0  0  0  0
   -3.7940   21.2550  -30.8280 C   0  0  0  0  0  0  0  0  0  0  0  0
   -4.1990   19.9920  -31.2470 C   0  0  0  0  0  0  0  0  0  0  0  0
   -5.5350   19.8290  -31.6500 C   0  0  0  0  0  0  0  0  0  0  0  0
   -6.4380   20.9220  -31.6210 C   0  0  0  0  0  0  0  0  0  0  0  0
   -7.8440   20.7370  -32.0420 C   0  0  0  0  0  0  0  0  0  0  0  0
   -8.4900   19.5570  -32.3780 C   0  0  0  0  0  0  0  0  0  0  0  0
   -7.9080   18.1800  -32.3950 C   0  0  0  0  0  0  0  0  0  0  0  0
   -9.7670   19.8270  -32.7120 N   0  0  0  0  0  0  0  0  0  0  0  0
   -9.9320   21.1130  -32.5880 O   0  0  0  0  0  0  0  0  0  0  0  0
   -8.8250   21.7010  -32.1980 C   0  0  0  0  0  0  0  0  0  0  0  0
   -8.7000   23.1730  -31.9730 C   0  0  0  0  0  0  0  0  0  0  0  0
   -5.9890   22.1890  -31.1880 C   0  0  0  0  0  0  0  0  0  0  0  0
   -4.6500   22.3240  -30.8070 C   0  0  0  0  0  0  0  0  0  0  0  0
   -5.2504   24.8097  -28.0909 H   0  0  0  0  0  0  0  0  0  0  0  0
   -6.1676   25.8683  -29.2156 H   0  0  0  0  0  0  0  0  0  0  0  0
   -6.4551   24.0952  -29.2156 H   0  0  0  0  0  0  0  0  0  0  0  0
   -2.8580   25.6830  -29.3280 H   0  0  0  0  0  0  0  0  0  0  0  0
   -1.6501   21.0950  -30.2555 H   0  0  0  0  0  0  0  0  0  0  0  0
   -3.4950   19.1469  -31.2624 H   0  0  0  0  0  0  0  0  0  0  0  0
   -5.8842   18.8434  -31.9915 H   0  0  0  0  0  0  0  0  0  0  0  0
   -7.7607   17.8314  -31.3621 H   0  0  0  0  0  0  0  0  0  0  0  0
   -8.5948   17.4981  -32.9177 H   0  0  0  0  0  0  0  0  0  0  0  0
   -6.9403   18.1974  -32.9177 H   0  0  0  0  0  0  0  0  0  0  0  0
   -8.6825   23.3786  -30.8925 H   0  0  0  0  0  0  0  0  0  0  0  0
   -7.7678   23.5360  -32.4304 H   0  0  0  0  0  0  0  0  0  0  0  0
   -9.5576   23.6880  -32.4304 H   0  0  0  0  0  0  0  0  0  0  0  0
   -6.6750   23.0481  -31.1513 H   0  0  0  0  0  0  0  0  0  0  0  0
  1  2  1  0
  2  3  2  0
  2  4  1  0
  4  5  1  0
  5  6  1  0
  6  7  1  0
  6  8  2  0
  5  9  2  0
  9 10  1  0
 10 11  2  0
 11 12  1  0
 12 13  2  0
 13 14  1  0
 14 15  1  0
 15 16  1  0
 15 17  2  0
 17 18  1  0
 18 19  1  0
 19 20  1  0
 13 21  1  0
 21 22  2  0
 22  4  1  0
 22 10  1  0
 19 14  2  0
  1 23  1  0
  1 24  1  0
  1 25  1  0
  7 26  1  0
  9 27  1  0
 11 28  1  0
 12 29  1  0
 16 30  1  0
 16 31  1  0
 16 32  1  0
 20 33  1  0
 20 34  1  0
 20 35  1  0
 21 36  1  0
M  CHG  1   7  -1
M  END
>  <UniqueID>  (77) 
77

>  <SMILES>  (77) 
CC(=O)n1c(C([NH-])=O)cc2ccc(-c3c(C)noc3C)cc21

>  <Energy>  (77) 
110.71765041527931

>  <Genealogy>  (77) 
CC(=O)n1c(C([NH-])=O)cc2ccc(-c3c(C)noc3C)cc21 (protonated)
CC(=O)n1c(C([NH-])=O)cc2ccc(-c3c(C)noc3C)cc21 (3D coordinates assigned)
CC(=O)n1c(C([NH-])=O)cc2ccc(-c3c(C)noc3C)cc21 (optimized conformer: 110.71765041527931 kcal/mol)

>  <smiles>  (77) 
CC(=O)n1c(C(N)=O)cc2ccc(-c3c(C)noc3C)cc21

>  <score_type>  (77) 
oracle

>  <origin>  (77) 
adg

>  <m_score__min__energy>  (77) 
-10.93

>  <m_primary>  (77) 
energy

$$$$
77:0
     RDKit          3D

 26 27  0  0  0  0  0  0  0  0999 V2000
   -3.6620   25.2970  -30.4610 N   0  0  0  0  0  0  0  0  0  0  0  0
   -5.0650   25.2920  -30.7110 C   0  0  0  0  0  0  0  0  0  0  0  0
   -5.6730   26.3890  -30.8380 O   0  0  0  0  0  0  0  0  0  0  0  0
   -5.8030   24.0230  -30.8730 C   0  0  0  0  0  0  0  0  0  0  0  0
   -7.1250   23.8450  -30.4640 C   0  0  0  0  0  0  0  0  0  0  0  0
   -7.4670   22.5780  -30.8780 C   0  0  0  0  0  0  0  0  0  0  0  0
   -8.6630   21.8830  -30.7410 C   0  0  0  0  0  0  0  0  0  0  0  0
   -8.7300   20.5760  -31.2560 C   0  0  0  0  0  0  0  0  0  0  0  0
   -7.6000   19.9810  -31.8730 C   0  0  0  0  0  0  0  0  0  0  0  0
   -7.6970   18.5940  -32.4560 C   0  0  0  0  0  0  0  0  0  0  0  0
   -9.0190   18.1950  -32.5510 F   0  0  0  0  0  0  0  0  0  0  0  0
   -7.1420   18.5560  -33.7230 F   0  0  0  0  0  0  0  0  0  0  0  0
   -7.0160   17.7100  -31.6400 F   0  0  0  0  0  0  0  0  0  0  0  0
   -6.4080   20.7300  -32.0130 C   0  0  0  0  0  0  0  0  0  0  0  0
   -6.3760   22.0330  -31.5050 C   0  0  0  0  0  0  0  0  0  0  0  0
   -5.3460   22.9060  -31.5060 N   0  0  0  0  0  0  0  0  0  0  0  0
   -4.0230   22.6530  -32.0040 C   0  0  0  0  0  0  0  0  0  0  0  0
   -3.8210   22.2980  -33.3720 N   0  0  0  0  0  0  0  0  0  0  0  0
   -3.0290   22.7740  -31.2400 O   0  0  0  0  0  0  0  0  0  0  0  0
   -2.9890   24.9250  -31.1670 H   0  0  0  0  0  0  0  0  0  0  0  0
   -7.7591   24.5645  -29.9252 H   0  0  0  0  0  0  0  0  0  0  0  0
   -9.5310   22.3415  -30.2447 H   0  0  0  0  0  0  0  0  0  0  0  0
   -9.6694   20.0088  -31.1794 H   0  0  0  0  0  0  0  0  0  0  0  0
   -5.5268   20.2978  -32.5098 H   0  0  0  0  0  0  0  0  0  0  0  0
   -4.6260   22.2670  -34.0360 H   0  0  0  0  0  0  0  0  0  0  0  0
   -2.8600   22.1030  -33.7300 H   0  0  0  0  0  0  0  0  0  0  0  0
  1  2  1  0
  2  3  2  0
  2  4  1  0
  4  5  2  0
  5  6  1  0
  6  7  2  0
  7  8  1  0
  8  9  2  0
  9 10  1  0
 10 11  1  0
 10 12  1  0
 10 13  1  0
  9 14  1  0
 14 15  2  0
 15 16  1  0
 16 17  1  0
 17 18  1  0
 17 19  2  0
 16  4  1  0
 15  6  1  0
  1 20  1  0
  5 21  1  0
  7 22  1  0
  8 23  1  0
 14 24  1  0
 18 25  1  0
 18 26  1  0
M  CHG  1   1  -1
M  END
>  <UniqueID>  (78) 
78

>  <SMILES>  (78) 
[NH-]C(=O)c1cc2ccc(C(F)(F)F)cc2n1C(N)=O

>  <Energy>  (78) 
65.78473728547443

>  <Genealogy>  (78) 
[NH-]C(=O)c1cc2ccc(C(F)(F)F)cc2n1C(N)=O (protonated)
[NH-]C(=O)c1cc2ccc(C(F)(F)F)cc2n1C(N)=O (3D coordinates assigned)
[NH-]C(=O)c1cc2ccc(C(F)(F)F)cc2n1C(N)=O (optimized conformer: 65.78473728547443 kcal/mol)

>  <smiles>  (78) 
NC(=O)c1cc2ccc(C(F)(F)F)cc2n1C(N)=O

>  <score_type>  (78) 
oracle

>  <origin>  (78) 
adg

>  <m_score__min__energy>  (78) 
-9.5600000000000005

>  <m_primary>  (78) 
energy

$$$$
78:0
     RDKit          3D

 42 44  0  0  0  0  0  0  0  0999 V2000
   -3.3990   19.7700  -33.4670 C   0  0  0  0  0  0  0  0  0  0  0  0
   -2.7930   21.1670  -33.4040 C   0  0  0  0  0  0  0  0  0  0  0  0
   -3.8030   22.1430  -33.1570 O   0  0  0  0  0  0  0  0  0  0  0  0
   -4.0620   22.6810  -31.8920 C   0  0  0  0  0  0  0  0  0  0  0  0
   -3.1110   22.9710  -31.1140 O   0  0  0  0  0  0  0  0  0  0  0  0
   -5.4160   22.9350  -31.4900 N   0  0  0  0  0  0  0  0  0  0  0  0
   -5.9420   24.0980  -31.0080 C   0  0  0  0  0  0  0  0  0  0  0  0
   -5.1820   25.3110  -30.6420 C   0  0  0  0  0  0  0  0  0  0  0  0
   -3.7760   25.2550  -30.4160 N   0  0  0  0  0  0  0  0  0  0  0  0
   -5.7900   26.4030  -30.4810 O   0  0  0  0  0  0  0  0  0  0  0  0
   -7.3170   23.9700  -30.8180 C   0  0  0  0  0  0  0  0  0  0  0  0
   -7.6190   22.6790  -31.1930 C   0  0  0  0  0  0  0  0  0  0  0  0
   -8.8420   22.0180  -31.2180 C   0  0  0  0  0  0  0  0  0  0  0  0
   -8.8650   20.6920  -31.6830 C   0  0  0  0  0  0  0  0  0  0  0  0
   -7.6720   20.0580  -32.1150 C   0  0  0  0  0  0  0  0  0  0  0  0
   -7.7100   18.6490  -32.6500 C   0  0  0  0  0  0  0  0  0  0  0  0
   -6.2940   18.1090  -32.9130 C   0  0  2  0  0  0  0  0  0  0  0  0
   -6.1790   17.3140  -34.2400 C   0  0  0  0  0  0  0  0  0  0  0  0
   -5.4080   16.0240  -33.9220 C   0  0  0  0  0  0  0  0  0  0  0  0
   -5.3770   16.0090  -32.4470 C   0  0  0  0  0  0  0  0  0  0  0  0
   -4.9030   15.0650  -31.7620 O   0  0  0  0  0  0  0  0  0  0  0  0
   -5.9090   17.1790  -31.8680 N   0  0  0  0  0  0  0  0  0  0  0  0
   -6.4490   20.7640  -32.0770 C   0  0  0  0  0  0  0  0  0  0  0  0
   -6.4540   22.0770  -31.5920 C   0  0  0  0  0  0  0  0  0  0  0  0
   -3.5619   19.3946  -32.4460 H   0  0  0  0  0  0  0  0  0  0  0  0
   -4.3602   19.8110  -34.0003 H   0  0  0  0  0  0  0  0  0  0  0  0
   -2.7123   19.0961  -34.0003 H   0  0  0  0  0  0  0  0  0  0  0  0
   -2.0504   21.2024  -32.5932 H   0  0  0  0  0  0  0  0  0  0  0  0
   -2.3145   21.3892  -34.3692 H   0  0  0  0  0  0  0  0  0  0  0  0
   -3.1080   25.1410  -31.2110 H   0  0  0  0  0  0  0  0  0  0  0  0
   -8.0131   24.7368  -30.4474 H   0  0  0  0  0  0  0  0  0  0  0  0
   -9.7633   22.5176  -30.8840 H   0  0  0  0  0  0  0  0  0  0  0  0
   -9.8166   20.1410  -31.7122 H   0  0  0  0  0  0  0  0  0  0  0  0
   -8.2093   18.0006  -31.9149 H   0  0  0  0  0  0  0  0  0  0  0  0
   -8.2599   18.6556  -33.6026 H   0  0  0  0  0  0  0  0  0  0  0  0
   -5.6492   18.9993  -32.9527 H   0  0  0  0  0  0  0  0  0  0  0  0
   -7.1810   17.0711  -34.6235 H   0  0  0  0  0  0  0  0  0  0  0  0
   -5.6588   17.9042  -35.0088 H   0  0  0  0  0  0  0  0  0  0  0  0
   -5.9347   15.1419  -34.3151 H   0  0  0  0  0  0  0  0  0  0  0  0
   -4.4066   15.9951  -34.3763 H   0  0  0  0  0  0  0  0  0  0  0  0
   -5.8780   17.4030  -30.8480 H   0  0  0  0  0  0  0  0  0  0  0  0
   -5.5158   20.2935  -32.4201 H   0  0  0  0  0  0  0  0  0  0  0  0
  1  2  1  0
  2  3  1  0
  3  4  1  0
  4  5  2  0
  4  6  1  0
  6  7  1  0
  7  8  1  0
  8  9  1  0
  8 10  2  0
  7 11  2  0
 11 12  1  0
 12 13  2  0
 13 14  1  0
 14 15  2  0
 15 16  1  0
 16 17  1  0
 17 18  1  0
 18 19  1  0
 19 20  1  0
 20 21  2  0
 20 22  1  0
 15 23  1  0
 23 24  2  0
 24  6  1  0
 24 12  1  0
 22 17  1  0
  1 25  1  0
  1 26  1  0
  1 27  1  0
  2 28  1  0
  2 29  1  0
  9 30  1  0
 11 31  1  0
 13 32  1  0
 14 33  1  0
 16 34  1  0
 16 35  1  0
 17 36  1  6
 18 37  1  0
 18 38  1  0
 19 39  1  0
 19 40  1  0
 22 41  1  0
 23 42  1  0
M  CHG  1   9  -1
M  END
>  <UniqueID>  (79) 
79

>  <SMILES>  (79) 
CCOC(=O)n1c(C([NH-])=O)cc2ccc(C[C@@H]3CCC(=O)N3)cc21

>  <Energy>  (79) 
82.57496250910782

>  <Genealogy>  (79) 
CCOC(=O)n1c(C([NH-])=O)cc2ccc(CC3CCC(=O)N3)cc21 (protonated)
CCOC(=O)n1c(C([NH-])=O)cc2ccc(C[C@@H]3CCC(=O)N3)cc21 (chirality)
CCOC(=O)n1c(C([NH-])=O)cc2ccc(C[C@@H]3CCC(=O)N3)cc21 (3D coordinates assigned)
CCOC(=O)n1c(C([NH-])=O)cc2ccc(C[C@@H]3CCC(=O)N3)cc21 (nonaromatic ring conformer: 82.57496250910782 kcal/mol)

>  <smiles>  (79) 
CCOC(=O)n1c(C(N)=O)cc2ccc(CC3CCC(=O)N3)cc21

>  <score_type>  (79) 
oracle

>  <origin>  (79) 
adg

>  <m_score__min__energy>  (79) 
-10.67

>  <m_primary>  (79) 
energy

$$$$
79:0
     RDKit          3D

 31 32  0  0  0  0  0  0  0  0999 V2000
   -8.7790   18.9420  -32.1330 C   0  0  0  0  0  0  0  0  0  0  0  0
   -7.7300   19.4610  -33.0020 N   0  0  0  0  0  0  0  0  0  0  0  0
   -6.3780   19.6040  -32.5500 C   0  0  0  0  0  0  0  0  0  0  0  0
   -6.0640   19.2870  -31.3700 O   0  0  0  0  0  0  0  0  0  0  0  0
   -5.3360   20.1780  -33.4610 C   0  0  0  0  0  0  0  0  0  0  0  0
   -4.1560   20.6520  -32.6610 C   0  0  0  0  0  0  0  0  0  0  0  0
   -2.9560   19.8970  -32.6450 C   0  0  0  0  0  0  0  0  0  0  0  0
   -1.8390   20.3440  -31.9200 C   0  0  0  0  0  0  0  0  0  0  0  0
   -1.9450   21.5510  -31.2360 C   0  0  0  0  0  0  0  0  0  0  0  0
   -1.0280   22.2010  -30.4430 C   0  0  0  0  0  0  0  0  0  0  0  0
   -1.6680   23.3620  -30.0150 C   0  0  0  0  0  0  0  0  0  0  0  0
   -1.0030   24.4030  -29.2050 C   0  0  0  0  0  0  0  0  0  0  0  0
   -1.6150   25.6730  -28.9960 N   0  0  0  0  0  0  0  0  0  0  0  0
    0.1460   24.1880  -28.7330 O   0  0  0  0  0  0  0  0  0  0  0  0
   -2.9340   23.4240  -30.5160 N   0  0  0  0  0  0  0  0  0  0  0  0
   -3.9430   24.4070  -30.2330 C   0  0  0  0  0  0  0  0  0  0  0  0
   -4.8800   24.1460  -29.4330 O   0  0  0  0  0  0  0  0  0  0  0  0
   -3.8790   25.6660  -30.8170 O   0  0  0  0  0  0  0  0  0  0  0  0
   -3.0880   22.3080  -31.2640 C   0  0  0  0  0  0  0  0  0  0  0  0
   -4.2220   21.8790  -31.9640 C   0  0  0  0  0  0  0  0  0  0  0  0
   -8.4887   19.0856  -31.0818 H   0  0  0  0  0  0  0  0  0  0  0  0
   -9.7182   19.4794  -32.3307 H   0  0  0  0  0  0  0  0  0  0  0  0
   -8.9216   17.8694  -32.3307 H   0  0  0  0  0  0  0  0  0  0  0  0
   -7.9770   19.7410  -33.9780 H   0  0  0  0  0  0  0  0  0  0  0  0
   -5.0074   19.4047  -34.1709 H   0  0  0  0  0  0  0  0  0  0  0  0
   -5.7658   21.0299  -34.0083 H   0  0  0  0  0  0  0  0  0  0  0  0
   -2.8992   18.9523  -33.2056 H   0  0  0  0  0  0  0  0  0  0  0  0
   -0.9087   19.7576  -31.8938 H   0  0  0  0  0  0  0  0  0  0  0  0
   -0.0066   21.8737  -30.1988 H   0  0  0  0  0  0  0  0  0  0  0  0
   -2.6530   25.7820  -29.0360 H   0  0  0  0  0  0  0  0  0  0  0  0
   -5.1417   22.4824  -31.9711 H   0  0  0  0  0  0  0  0  0  0  0  0
  1  2  1  0
  2  3  1  0
  3  4  2  0
  3  5  1  0
  5  6  1  0
  6  7  2  0
  7  8  1  0
  8  9  2  0
  9 10  1  0
 10 11  2  0
 11 12  1  0
 12 13  1  0
 12 14  2  0
 11 15  1  0
 15 16  1  0
 16 17  2  0
 16 18  1  0
 15 19  1  0
 19 20  2  0
 20  6  1  0
 19  9  1  0
  1 21  1  0
  1 22  1  0
  1 23  1  0
  2 24  1  0
  5 25  1  0
  5 26  1  0
  7 27  1  0
  8 28  1  0
 10 29  1  0
 13 30  1  0
 20 31  1  0
M  CHG  2  13  -1  18  -1
M  END
>  <UniqueID>  (80) 
80

>  <SMILES>  (80) 
CNC(=O)Cc1ccc2cc(C([NH-])=O)n(C(=O)[O-])c2c1

>  <Energy>  (80) 
65.91811421742811

>  <Genealogy>  (80) 
CNC(=O)Cc1ccc2cc(C([NH-])=O)n(C(=O)[O-])c2c1 (protonated)
CNC(=O)Cc1ccc2cc(C([NH-])=O)n(C(=O)[O-])c2c1 (3D coordinates assigned)
CNC(=O)Cc1ccc2cc(C([NH-])=O)n(C(=O)[O-])c2c1 (optimized conformer: 65.91811421742811 kcal/mol)

>  <smiles>  (80) 
CNC(=O)Cc1ccc2cc(C(N)=O)n(C(=O)O)c2c1

>  <score_type>  (80) 
oracle

>  <origin>  (80) 
adg

>  <m_score__min__energy>  (80) 
-11.02

>  <m_primary>  (80) 
energy

$$$$
80:0
     RDKit          3D

 46 49  0  0  0  0  0  0  0  0999 V2000
   -1.7250   25.6540  -28.9690 N   0  0  0  0  0  0  0  0  0  0  0  0
   -0.9640   24.4650  -29.1610 C   0  0  0  0  0  0  0  0  0  0  0  0
    0.2130   24.4100  -28.7130 O   0  0  0  0  0  0  0  0  0  0  0  0
   -1.5390   23.2970  -29.8650 C   0  0  0  0  0  0  0  0  0  0  0  0
   -0.8030   22.1680  -30.2300 C   0  0  0  0  0  0  0  0  0  0  0  0
   -1.7080   21.3280  -30.8440 C   0  0  0  0  0  0  0  0  0  0  0  0
   -1.5290   20.0660  -31.3980 C   0  0  0  0  0  0  0  0  0  0  0  0
   -2.6440   19.4320  -31.9730 C   0  0  0  0  0  0  0  0  0  0  0  0
   -3.9200   20.0620  -31.9860 C   0  0  0  0  0  0  0  0  0  0  0  0
   -5.0560   19.4170  -32.6130 N   0  0  0  0  0  0  0  0  0  0  0  0
   -5.0490   18.9110  -33.9820 C   0  0  0  0  0  0  0  0  0  0  0  0
   -6.4560   18.3980  -34.2570 C   0  0  0  0  0  0  0  0  0  0  0  0
   -7.1270   18.2720  -32.8850 C   0  0  2  0  0  0  0  0  0  0  0  0
   -8.4830   18.6450  -32.9230 O   0  0  0  0  0  0  0  0  0  0  0  0
   -6.3120   19.1440  -31.9270 C   0  0  0  0  0  0  0  0  0  0  0  0
   -4.0580   21.3400  -31.3890 C   0  0  0  0  0  0  0  0  0  0  0  0
   -2.9280   21.9490  -30.8400 C   0  0  0  0  0  0  0  0  0  0  0  0
   -2.8380   23.1570  -30.2470 N   0  0  0  0  0  0  0  0  0  0  0  0
   -3.9120   24.0840  -30.0500 C   0  0  0  0  0  0  0  0  0  0  0  0
   -3.8290   25.2430  -30.5360 O   0  0  0  0  0  0  0  0  0  0  0  0
   -5.1310   23.6790  -29.2740 C   0  0  0  0  0  0  0  0  0  0  0  0
   -6.2580   23.3220  -30.2060 C   0  0  0  0  0  0  0  0  0  0  0  0
   -7.2520   22.4170  -29.8030 C   0  0  0  0  0  0  0  0  0  0  0  0
   -8.2670   22.0510  -30.6910 C   0  0  0  0  0  0  0  0  0  0  0  0
   -8.2780   22.5930  -31.9790 C   0  0  0  0  0  0  0  0  0  0  0  0
   -7.3060   23.4650  -32.3600 N   0  0  0  0  0  0  0  0  0  0  0  0
   -6.3100   23.8410  -31.5120 C   0  0  0  0  0  0  0  0  0  0  0  0
   -2.7410   25.6890  -29.2120 H   0  0  0  0  0  0  0  0  0  0  0  0
    0.2692   21.9873  -30.0634 H   0  0  0  0  0  0  0  0  0  0  0  0
   -0.5435   19.5775  -31.3868 H   0  0  0  0  0  0  0  0  0  0  0  0
   -2.5285   18.4335  -32.4198 H   0  0  0  0  0  0  0  0  0  0  0  0
   -4.7940   19.7180  -34.6847 H   0  0  0  0  0  0  0  0  0  0  0  0
   -4.3016   18.1140  -34.1091 H   0  0  0  0  0  0  0  0  0  0  0  0
   -7.0069   19.1097  -34.8895 H   0  0  0  0  0  0  0  0  0  0  0  0
   -6.4404   17.4365  -34.7911 H   0  0  0  0  0  0  0  0  0  0  0  0
   -7.1345   17.2253  -32.5468 H   0  0  0  0  0  0  0  0  0  0  0  0
   -8.6830   18.9800  -33.8360 H   0  0  0  0  0  0  0  0  0  0  0  0
   -6.8451   20.0826  -31.7153 H   0  0  0  0  0  0  0  0  0  0  0  0
   -6.1466   18.6417  -30.9624 H   0  0  0  0  0  0  0  0  0  0  0  0
   -5.0362   21.8422  -31.3588 H   0  0  0  0  0  0  0  0  0  0  0  0
   -4.8885   22.8068  -28.6492 H   0  0  0  0  0  0  0  0  0  0  0  0
   -5.4464   24.5231  -28.6431 H   0  0  0  0  0  0  0  0  0  0  0  0
   -7.2321   21.9954  -28.7872 H   0  0  0  0  0  0  0  0  0  0  0  0
   -9.0494   21.3434  -30.3793 H   0  0  0  0  0  0  0  0  0  0  0  0
   -9.0736   22.3142  -32.6856 H   0  0  0  0  0  0  0  0  0  0  0  0
   -5.5429   24.5535  -31.8494 H   0  0  0  0  0  0  0  0  0  0  0  0
  1  2  1  0
  2  3  2  0
  2  4  1  0
  4  5  2  0
  5  6  1  0
  6  7  2  0
  7  8  1  0
  8  9  2  0
  9 10  1  0
 10 11  1  0
 11 12  1  0
 12 13  1  0
 13 14  1  0
 13 15  1  0
  9 16  1  0
 16 17  2  0
 17 18  1  0
 18 19  1  0
 19 20  2  0
 19 21  1  0
 21 22  1  0
 22 23  2  0
 23 24  1  0
 24 25  2  0
 25 26  1  0
 26 27  2  0
 18  4  1  0
 27 22  1  0
 17  6  1  0
 15 10  1  0
  1 28  1  0
  5 29  1  0
  7 30  1  0
  8 31  1  0
 11 32  1  0
 11 33  1  0
 12 34  1  0
 12 35  1  0
 13 36  1  1
 14 37  1  0
 15 38  1  0
 15 39  1  0
 16 40  1  0
 21 41  1  0
 21 42  1  0
 23 43  1  0
 24 44  1  0
 25 45  1  0
 27 46  1  0
M  CHG  1   1  -1
M  END
>  <UniqueID>  (81) 
81

>  <SMILES>  (81) 
[NH-]C(=O)c1cc2ccc(N3CC[C@H](O)C3)cc2n1C(=O)Cc1cccnc1

>  <Energy>  (81) 
91.517232071395

>  <Genealogy>  (81) 
[NH-]C(=O)c1cc2ccc(N3CC[C@H](O)C3)cc2n1C(=O)Cc1cccnc1 (protonated)
[NH-]C(=O)c1cc2ccc(N3CC[C@H](O)C3)cc2n1C(=O)Cc1cccnc1 (3D coordinates assigned)
[NH-]C(=O)c1cc2ccc(N3CC[C@H](O)C3)cc2n1C(=O)Cc1cccnc1 (nonaromatic ring conformer: 91.517232071395 kcal/mol)

>  <smiles>  (81) 
NC(=O)c1cc2ccc(N3CC[C@H](O)C3)cc2n1C(=O)Cc1cccnc1

>  <score_type>  (81) 
oracle

>  <origin>  (81) 
adg

>  <m_score__min__energy>  (81) 
-11.59

>  <m_primary>  (81) 
energy

$$$$
81:0
     RDKit          3D

 46 47  0  0  0  0  0  0  0  0999 V2000
   -4.9870   15.7090  -31.9120 C   0  0  0  0  0  0  0  0  0  0  0  0
   -4.8760   15.2240  -33.3700 C   0  0  0  0  0  0  0  0  0  0  0  0
   -5.1040   13.7040  -33.4570 C   0  0  0  0  0  0  0  0  0  0  0  0
   -5.9440   15.9350  -34.2130 C   0  0  0  0  0  0  0  0  0  0  0  0
   -3.5990   15.5740  -33.9210 O   0  0  0  0  0  0  0  0  0  0  0  0
   -3.1640   16.8650  -34.2610 C   0  0  0  0  0  0  0  0  0  0  0  0
   -3.4400   17.3570  -35.3910 O   0  0  0  0  0  0  0  0  0  0  0  0
   -2.4450   17.6420  -33.2730 N   0  0  1  0  0  0  0  0  0  0  0  0
   -1.0180   17.4000  -33.3470 C   0  0  0  0  0  0  0  0  0  0  0  0
   -0.3980   16.8420  -32.4010 O   0  0  0  0  0  0  0  0  0  0  0  0
   -0.3100   17.7770  -34.4820 O   0  0  0  0  0  0  0  0  0  0  0  0
   -2.8130   19.0920  -33.3050 C   0  0  2  0  0  0  0  0  0  0  0  0
   -4.9820   19.3070  -33.4060 I   0  0  0  0  0  0  0  0  0  0  0  0
   -2.2980   19.7170  -34.5360 N   0  0  0  0  0  0  0  0  0  0  0  0
   -1.2910   20.4980  -34.5630 C   0  0  0  0  0  0  0  0  0  0  0  0
   -0.0220   21.4910  -34.5950 S   0  0  0  0  0  0  0  0  0  0  0  0
   -2.2520   19.8620  -32.0950 C   0  0  0  0  0  0  0  0  0  0  0  0
   -1.2050   19.3190  -31.2970 C   0  0  0  0  0  0  0  0  0  0  0  0
   -0.6810   20.0270  -30.2050 C   0  0  0  0  0  0  0  0  0  0  0  0
   -1.2000   21.2870  -29.9330 C   0  0  0  0  0  0  0  0  0  0  0  0
   -0.8840   22.1750  -28.9310 C   0  0  0  0  0  0  0  0  0  0  0  0
   -1.7110   23.2760  -29.1410 C   0  0  0  0  0  0  0  0  0  0  0  0
   -1.6380   24.5130  -28.3360 C   0  0  0  0  0  0  0  0  0  0  0  0
   -1.3440   25.7560  -28.9700 N   0  0  0  0  0  0  0  0  0  0  0  0
   -1.8710   24.4920  -27.0990 O   0  0  0  0  0  0  0  0  0  0  0  0
   -2.5110   23.0740  -30.2260 N   0  0  0  0  0  0  0  0  0  0  0  0
   -3.5470   23.9360  -30.7240 C   0  0  0  0  0  0  0  0  0  0  0  0
   -4.5180   23.4600  -31.3680 O   0  0  0  0  0  0  0  0  0  0  0  0
   -3.5010   25.3030  -30.4780 O   0  0  0  0  0  0  0  0  0  0  0  0
   -2.1830   21.8510  -30.7010 C   0  0  0  0  0  0  0  0  0  0  0  0
   -2.7370   21.1620  -31.7840 C   0  0  0  0  0  0  0  0  0  0  0  0
   -4.7944   14.8677  -31.2300 H   0  0  0  0  0  0  0  0  0  0  0  0
   -4.2474   16.5032  -31.7325 H   0  0  0  0  0  0  0  0  0  0  0  0
   -5.9984   16.1024  -31.7325 H   0  0  0  0  0  0  0  0  0  0  0  0
   -5.1670   13.2840  -32.4423 H   0  0  0  0  0  0  0  0  0  0  0  0
   -6.0422   13.5042  -33.9954 H   0  0  0  0  0  0  0  0  0  0  0  0
   -4.2657   13.2377  -33.9954 H   0  0  0  0  0  0  0  0  0  0  0  0
   -6.6731   16.4204  -33.5476 H   0  0  0  0  0  0  0  0  0  0  0  0
   -5.4643   16.6946  -34.8477 H   0  0  0  0  0  0  0  0  0  0  0  0
   -6.4598   15.1994  -34.8477 H   0  0  0  0  0  0  0  0  0  0  0  0
   -2.7430   17.2720  -32.3410 H   0  0  0  0  0  0  0  0  0  0  0  0
   -0.7996   18.3261  -31.5413 H   0  0  0  0  0  0  0  0  0  0  0  0
    0.1174   19.5972  -29.5823 H   0  0  0  0  0  0  0  0  0  0  0  0
   -0.1374   22.0436  -28.1339 H   0  0  0  0  0  0  0  0  0  0  0  0
   -1.3680   25.8460  -30.0100 H   0  0  0  0  0  0  0  0  0  0  0  0
   -3.5361   21.6187  -32.3865 H   0  0  0  0  0  0  0  0  0  0  0  0
  1  2  1  0
  2  3  1  0
  2  4  1  0
  2  5  1  0
  5  6  1  0
  6  7  2  0
  6  8  1  0
  8  9  1  0
  9 10  2  0
  9 11  1  0
  8 12  1  0
 12 13  1  6
 12 14  1  0
 14 15  2  0
 15 16  2  0
 12 17  1  0
 17 18  2  0
 18 19  1  0
 19 20  2  0
 20 21  1  0
 21 22  2  0
 22 23  1  0
 23 24  1  0
 23 25  2  0
 22 26  1  0
 26 27  1  0
 27 28  2  0
 27 29  1  0
 26 30  1  0
 30 31  2  0
 31 17  1  0
 30 20  1  0
  1 32  1  0
  1 33  1  0
  1 34  1  0
  3 35  1  0
  3 36  1  0
  3 37  1  0
  4 38  1  0
  4 39  1  0
  4 40  1  0
  8 41  1  1
 18 42  1  0
 19 43  1  0
 21 44  1  0
 24 45  1  0
 31 46  1  0
M  CHG  4   8   1  11  -1  24  -1  29  -1
M  END
>  <UniqueID>  (82) 
82

>  <SMILES>  (82) 
CC(C)(C)OC(=O)[NH+](C(=O)[O-])C(I)(N=C=S)c1ccc2cc(C([NH-])=O)n(C(=O)[O-])c2c1

>  <Energy>  (82) 
92.92634400628216

>  <Genealogy>  (82) 
CC(C)(C)OC(=O)[NH+](C(=O)[O-])C(I)(N=C=S)c1ccc2cc(C([NH-])=O)n(C(=O)[O-])c2c1 (protonated)
CC(C)(C)OC(=O)[NH+](C(=O)[O-])C(I)(N=C=S)c1ccc2cc(C([NH-])=O)n(C(=O)[O-])c2c1 (3D coordinates assigned)
CC(C)(C)OC(=O)[NH+](C(=O)[O-])C(I)(N=C=S)c1ccc2cc(C([NH-])=O)n(C(=O)[O-])c2c1 (optimized conformer: 92.92634400628216 kcal/mol)

>  <smiles>  (82) 
CC(C)(C)OC(=O)N(C(=O)O)C(I)(N=C=S)c1ccc2cc(C(N)=O)n(C(=O)O)c2c1

>  <score_type>  (82) 
oracle

>  <origin>  (82) 
adg

>  <m_score__min__energy>  (82) 
-11.42

>  <m_primary>  (82) 
energy

$$$$
82:0
     RDKit          3D

 39 41  0  0  0  0  0  0  0  0999 V2000
   -3.6260   19.7070  -33.4620 C   0  0  0  0  0  0  0  0  0  0  0  0
   -2.9020   21.0480  -33.5120 C   0  0  0  0  0  0  0  0  0  0  0  0
   -3.8100   22.1190  -33.2620 O   0  0  0  0  0  0  0  0  0  0  0  0
   -4.0700   22.6260  -31.9840 C   0  0  0  0  0  0  0  0  0  0  0  0
   -3.1410   22.7250  -31.1350 O   0  0  0  0  0  0  0  0  0  0  0  0
   -5.4080   23.0080  -31.6280 N   0  0  0  0  0  0  0  0  0  0  0  0
   -5.8110   24.1260  -30.9600 C   0  0  0  0  0  0  0  0  0  0  0  0
   -4.9570   25.2780  -30.5990 C   0  0  0  0  0  0  0  0  0  0  0  0
   -3.5530   25.1220  -30.4160 N   0  0  0  0  0  0  0  0  0  0  0  0
   -5.4680   26.4250  -30.4980 O   0  0  0  0  0  0  0  0  0  0  0  0
   -7.1830   24.0860  -30.7240 C   0  0  0  0  0  0  0  0  0  0  0  0
   -7.6150   22.9040  -31.2820 C   0  0  0  0  0  0  0  0  0  0  0  0
   -8.8900   22.3450  -31.3220 C   0  0  0  0  0  0  0  0  0  0  0  0
   -9.0390   21.0900  -31.9330 C   0  0  0  0  0  0  0  0  0  0  0  0
   -7.9220   20.4220  -32.4930 C   0  0  0  0  0  0  0  0  0  0  0  0
   -8.0840   19.0530  -33.0920 C   0  0  0  0  0  0  0  0  0  0  0  0
   -7.1540   18.1220  -32.4600 N   0  0  0  0  0  0  0  0  0  0  0  0
   -6.1360   17.4700  -33.0550 C   0  0  0  0  0  0  0  0  0  0  0  0
   -5.4550   16.7650  -32.0840 C   0  0  0  0  0  0  0  0  0  0  0  0
   -6.0440   16.9930  -30.8950 N   0  0  0  0  0  0  0  0  0  0  0  0
   -7.0700   17.8260  -31.1490 C   0  0  0  0  0  0  0  0  0  0  0  0
   -6.6420   21.0140  -32.4210 C   0  0  0  0  0  0  0  0  0  0  0  0
   -6.5240   22.2720  -31.8220 C   0  0  0  0  0  0  0  0  0  0  0  0
   -3.7839   19.4145  -32.4134 H   0  0  0  0  0  0  0  0  0  0  0  0
   -4.5985   19.7963  -33.9682 H   0  0  0  0  0  0  0  0  0  0  0  0
   -3.0179   18.9429  -33.9682 H   0  0  0  0  0  0  0  0  0  0  0  0
   -2.1102   21.0599  -32.7486 H   0  0  0  0  0  0  0  0  0  0  0  0
   -2.4671   21.1787  -34.5139 H   0  0  0  0  0  0  0  0  0  0  0  0
   -2.9310   24.8740  -31.2170 H   0  0  0  0  0  0  0  0  0  0  0  0
   -7.7921   24.8390  -30.2025 H   0  0  0  0  0  0  0  0  0  0  0  0
   -9.7535   22.8706  -30.8883 H   0  0  0  0  0  0  0  0  0  0  0  0
  -10.0328   20.6205  -31.9775 H   0  0  0  0  0  0  0  0  0  0  0  0
   -9.1149   18.7042  -32.9318 H   0  0  0  0  0  0  0  0  0  0  0  0
   -7.8718   19.1016  -34.1702 H   0  0  0  0  0  0  0  0  0  0  0  0
   -5.8908   17.4953  -34.1270 H   0  0  0  0  0  0  0  0  0  0  0  0
   -4.5774   16.1237  -32.2531 H   0  0  0  0  0  0  0  0  0  0  0  0
   -5.7550   16.6130  -29.9660 H   0  0  0  0  0  0  0  0  0  0  0  0
   -7.7546   18.2164  -30.3815 H   0  0  0  0  0  0  0  0  0  0  0  0
   -5.7591   20.4980  -32.8263 H   0  0  0  0  0  0  0  0  0  0  0  0
  1  2  1  0
  2  3  1  0
  3  4  1  0
  4  5  2  0
  4  6  1  0
  6  7  1  0
  7  8  1  0
  8  9  1  0
  8 10  2  0
  7 11  2  0
 11 12  1  0
 12 13  2  0
 13 14  1  0
 14 15  2  0
 15 16  1  0
 16 17  1  0
 17 18  1  0
 18 19  2  0
 19 20  1  0
 20 21  2  0
 15 22  1  0
 22 23  2  0
 23  6  1  0
 23 12  1  0
 21 17  1  0
  1 24  1  0
  1 25  1  0
  1 26  1  0
  2 27  1  0
  2 28  1  0
  9 29  1  0
 11 30  1  0
 13 31  1  0
 14 32  1  0
 16 33  1  0
 16 34  1  0
 18 35  1  0
 19 36  1  0
 20 37  1  0
 21 38  1  0
 22 39  1  0
M  CHG  2   9  -1  20   1
M  END
>  <UniqueID>  (83) 
83

>  <SMILES>  (83) 
CCOC(=O)n1c(C([NH-])=O)cc2ccc(Cn3cc[nH+]c3)cc21

>  <Energy>  (83) 
104.5157018866585

>  <Genealogy>  (83) 
CCOC(=O)n1c(C([NH-])=O)cc2ccc(Cn3cc[nH+]c3)cc21 (protonated)
CCOC(=O)n1c(C([NH-])=O)cc2ccc(Cn3cc[nH+]c3)cc21 (3D coordinates assigned)
CCOC(=O)n1c(C([NH-])=O)cc2ccc(Cn3cc[nH+]c3)cc21 (optimized conformer: 104.5157018866585 kcal/mol)

>  <smiles>  (83) 
CCOC(=O)n1c(C(N)=O)cc2ccc(Cn3ccnc3)cc21

>  <score_type>  (83) 
oracle

>  <origin>  (83) 
adg

>  <m_score__min__energy>  (83) 
-9.6799999999999997

>  <m_primary>  (83) 
energy

$$$$
83:0
     RDKit          3D

 37 39  0  0  0  0  0  0  0  0999 V2000
   -4.8500   23.9150  -29.0080 C   0  0  0  0  0  0  0  0  0  0  0  0
   -3.7760   24.2720  -29.9860 C   0  0  0  0  0  0  0  0  0  0  0  0
   -3.8750   25.3400  -30.6460 O   0  0  0  0  0  0  0  0  0  0  0  0
   -2.6340   23.4200  -30.1710 N   0  0  0  0  0  0  0  0  0  0  0  0
   -1.3850   23.5810  -29.6520 C   0  0  0  0  0  0  0  0  0  0  0  0
   -0.9080   24.7530  -28.8850 C   0  0  0  0  0  0  0  0  0  0  0  0
   -1.6070   25.9940  -28.9290 N   0  0  0  0  0  0  0  0  0  0  0  0
    0.1500   24.6650  -28.2060 O   0  0  0  0  0  0  0  0  0  0  0  0
   -0.5720   22.5020  -29.9930 C   0  0  0  0  0  0  0  0  0  0  0  0
   -1.3680   21.6680  -30.7430 C   0  0  0  0  0  0  0  0  0  0  0  0
   -1.0770   20.4410  -31.3300 C   0  0  0  0  0  0  0  0  0  0  0  0
   -2.1050   19.7820  -32.0250 C   0  0  0  0  0  0  0  0  0  0  0  0
   -3.4020   20.3490  -32.1090 C   0  0  0  0  0  0  0  0  0  0  0  0
   -4.4800   19.6390  -32.8410 C   0  0  0  0  0  0  0  0  0  0  0  0
   -4.1660   18.8500  -33.9570 C   0  0  0  0  0  0  0  0  0  0  0  0
   -5.1820   18.1860  -34.6430 C   0  0  0  0  0  0  0  0  0  0  0  0
   -6.4740   18.2980  -34.2350 N   0  0  0  0  0  0  0  0  0  0  0  0
   -6.8190   19.0590  -33.1560 C   0  0  0  0  0  0  0  0  0  0  0  0
   -8.2510   19.1340  -32.7120 C   0  0  0  0  0  0  0  0  0  0  0  0
   -5.8220   19.7340  -32.4330 C   0  0  0  0  0  0  0  0  0  0  0  0
   -6.1570   20.4430  -31.3230 F   0  0  0  0  0  0  0  0  0  0  0  0
   -3.6580   21.6000  -31.5020 C   0  0  0  0  0  0  0  0  0  0  0  0
   -2.6090   22.2420  -30.8330 C   0  0  0  0  0  0  0  0  0  0  0  0
   -4.4698   24.0414  -27.9836 H   0  0  0  0  0  0  0  0  0  0  0  0
   -5.7183   24.5728  -29.1606 H   0  0  0  0  0  0  0  0  0  0  0  0
   -5.1517   22.8683  -29.1606 H   0  0  0  0  0  0  0  0  0  0  0  0
   -2.6500   26.0230  -28.9750 H   0  0  0  0  0  0  0  0  0  0  0  0
    0.4827   22.3495  -29.7202 H   0  0  0  0  0  0  0  0  0  0  0  0
   -0.0723   19.9999  -31.2524 H   0  0  0  0  0  0  0  0  0  0  0  0
   -1.9015   18.8156  -32.5093 H   0  0  0  0  0  0  0  0  0  0  0  0
   -3.1219   18.7553  -34.2899 H   0  0  0  0  0  0  0  0  0  0  0  0
   -4.9369   17.5680  -35.5193 H   0  0  0  0  0  0  0  0  0  0  0  0
   -7.2100   17.7810  -34.7680 H   0  0  0  0  0  0  0  0  0  0  0  0
   -8.2945   19.1363  -31.6129 H   0  0  0  0  0  0  0  0  0  0  0  0
   -8.7070   20.0573  -33.0989 H   0  0  0  0  0  0  0  0  0  0  0  0
   -8.8009   18.2634  -33.0989 H   0  0  0  0  0  0  0  0  0  0  0  0
   -4.6569   22.0577  -31.5541 H   0  0  0  0  0  0  0  0  0  0  0  0
  1  2  1  0
  2  3  2  0
  2  4  1  0
  4  5  1  0
  5  6  1  0
  6  7  1  0
  6  8  2  0
  5  9  2  0
  9 10  1  0
 10 11  2  0
 11 12  1  0
 12 13  2  0
 13 14  1  0
 14 15  2  0
 15 16  1  0
 16 17  2  0
 17 18  1  0
 18 19  1  0
 18 20  2  0
 20 21  1  0
 13 22  1  0
 22 23  2  0
 23  4  1  0
 23 10  1  0
 20 14  1  0
  1 24  1  0
  1 25  1  0
  1 26  1  0
  7 27  1  0
  9 28  1  0
 11 29  1  0
 12 30  1  0
 15 31  1  0
 16 32  1  0
 17 33  1  0
 19 34  1  0
 19 35  1  0
 19 36  1  0
 22 37  1  0
M  CHG  2   7  -1  17   1
M  END
>  <UniqueID>  (84) 
84

>  <SMILES>  (84) 
CC(=O)n1c(C([NH-])=O)cc2ccc(-c3cc[nH+]c(C)c3F)cc21

>  <Energy>  (84) 
83.91762386077163

>  <Genealogy>  (84) 
CC(=O)n1c(C([NH-])=O)cc2ccc(-c3cc[nH+]c(C)c3F)cc21 (protonated)
CC(=O)n1c(C([NH-])=O)cc2ccc(-c3cc[nH+]c(C)c3F)cc21 (3D coordinates assigned)
CC(=O)n1c(C([NH-])=O)cc2ccc(-c3cc[nH+]c(C)c3F)cc21 (optimized conformer: 83.91762386077163 kcal/mol)

>  <smiles>  (84) 
CC(=O)n1c(C(N)=O)cc2ccc(-c3ccnc(C)c3F)cc21

>  <score_type>  (84) 
oracle

>  <origin>  (84) 
adg

>  <m_score__min__energy>  (84) 
-10.31

>  <m_primary>  (84) 
energy

$$$$
84:0
     RDKit          3D

 45 47  0  0  0  0  0  0  0  0999 V2000
   -6.8300   19.8630  -31.6210 N   0  0  0  0  0  0  0  0  0  0  0  0
   -5.9380   20.4630  -32.5570 C   0  0  0  0  0  0  0  0  0  0  0  0
   -6.2560   21.5520  -33.1050 O   0  0  0  0  0  0  0  0  0  0  0  0
   -4.6800   19.8390  -32.8680 N   0  0  0  0  0  0  0  0  0  0  0  0
   -4.4790   18.7060  -33.5980 C   0  0  0  0  0  0  0  0  0  0  0  0
   -5.5120   17.9710  -34.3550 C   0  0  0  0  0  0  0  0  0  0  0  0
   -6.7970   17.7060  -33.7900 N   0  0  0  0  0  0  0  0  0  0  0  0
   -5.2750   17.6170  -35.5410 O   0  0  0  0  0  0  0  0  0  0  0  0
   -3.1360   18.3420  -33.5850 C   0  0  0  0  0  0  0  0  0  0  0  0
   -2.5070   19.3030  -32.8270 C   0  0  0  0  0  0  0  0  0  0  0  0
   -1.1650   19.4310  -32.4810 C   0  0  0  0  0  0  0  0  0  0  0  0
   -0.7970   20.5080  -31.6590 C   0  0  0  0  0  0  0  0  0  0  0  0
   -1.7720   21.4220  -31.1880 C   0  0  0  0  0  0  0  0  0  0  0  0
   -1.3600   22.6000  -30.3410 C   0  0  0  0  0  0  0  0  0  0  0  0
   -2.5890   23.3340  -29.7690 C   0  0  1  0  0  0  0  0  0  0  0  0
   -2.2100   24.2190  -28.5680 C   0  0  0  0  0  0  0  0  0  0  0  0
   -2.0410   25.5520  -28.9690 O   0  0  0  0  0  0  0  0  0  0  0  0
   -3.2800   24.1060  -30.8060 N   0  0  0  0  0  0  0  0  0  0  0  0
   -4.5440   24.7700  -30.6720 C   0  0  0  0  0  0  0  0  0  0  0  0
   -4.5870   26.0180  -30.5030 O   0  0  0  0  0  0  0  0  0  0  0  0
   -5.8050   23.9920  -30.7350 C   0  0  0  0  0  0  0  0  0  0  0  0
   -6.6660   24.1390  -31.8360 C   0  0  0  0  0  0  0  0  0  0  0  0
   -7.8510   23.4020  -31.8960 C   0  0  0  0  0  0  0  0  0  0  0  0
   -8.1700   22.5410  -30.8950 N   0  0  0  0  0  0  0  0  0  0  0  0
   -7.3580   22.3680  -29.8200 C   0  0  0  0  0  0  0  0  0  0  0  0
   -6.1640   23.0860  -29.7160 C   0  0  0  0  0  0  0  0  0  0  0  0
   -5.3630   22.8710  -28.6410 F   0  0  0  0  0  0  0  0  0  0  0  0
   -3.1250   21.2610  -31.5610 C   0  0  0  0  0  0  0  0  0  0  0  0
   -3.4600   20.1940  -32.4020 C   0  0  0  0  0  0  0  0  0  0  0  0
   -7.5730   20.4260  -31.1510 H   0  0  0  0  0  0  0  0  0  0  0  0
   -7.0860   18.1350  -32.8840 H   0  0  0  0  0  0  0  0  0  0  0  0
   -7.5000   17.1520  -34.3280 H   0  0  0  0  0  0  0  0  0  0  0  0
   -2.6755   17.4719  -34.0758 H   0  0  0  0  0  0  0  0  0  0  0  0
   -0.4157   18.7104  -32.8406 H   0  0  0  0  0  0  0  0  0  0  0  0
    0.2578   20.6435  -31.3780 H   0  0  0  0  0  0  0  0  0  0  0  0
   -0.7364   22.2423  -29.5084 H   0  0  0  0  0  0  0  0  0  0  0  0
   -0.7980   23.3032  -30.9732 H   0  0  0  0  0  0  0  0  0  0  0  0
   -3.2893   22.5683  -29.4039 H   0  0  0  0  0  0  0  0  0  0  0  0
   -3.0097   24.1671  -27.8145 H   0  0  0  0  0  0  0  0  0  0  0  0
   -1.2627   23.8540  -28.1445 H   0  0  0  0  0  0  0  0  0  0  0  0
   -2.5760   25.6690  -29.7980 H   0  0  0  0  0  0  0  0  0  0  0  0
   -6.4071   24.8332  -32.6490 H   0  0  0  0  0  0  0  0  0  0  0  0
   -8.5273   23.5191  -32.7556 H   0  0  0  0  0  0  0  0  0  0  0  0
   -7.6417   21.6595  -29.0278 H   0  0  0  0  0  0  0  0  0  0  0  0
   -3.8961   21.9572  -31.1993 H   0  0  0  0  0  0  0  0  0  0  0  0
  1  2  1  0
  2  3  2  0
  2  4  1  0
  4  5  1  0
  5  6  1  0
  6  7  1  0
  6  8  2  0
  5  9  2  0
  9 10  1  0
 10 11  2  0
 11 12  1  0
 12 13  2  0
 13 14  1  0
 14 15  1  0
 15 16  1  0
 16 17  1  0
 15 18  1  0
 18 19  1  0
 19 20  2  0
 19 21  1  0
 21 22  2  0
 22 23  1  0
 23 24  2  0
 24 25  1  0
 25 26  2  0
 26 27  1  0
 13 28  1  0
 28 29  2  0
 29  4  1  0
 29 10  1  0
 26 21  1  0
  1 30  1  0
  7 31  1  0
  7 32  1  0
  9 33  1  0
 11 34  1  0
 12 35  1  0
 14 36  1  0
 14 37  1  0
 15 38  1  1
 16 39  1  0
 16 40  1  0
 17 41  1  0
 22 42  1  0
 23 43  1  0
 25 44  1  0
 28 45  1  0
M  CHG  2   1  -1  18  -1
M  END
>  <UniqueID>  (85) 
85

>  <SMILES>  (85) 
[NH-]C(=O)n1c(C(N)=O)cc2ccc(C[C@@H](CO)[N-]C(=O)c3ccncc3F)cc21

>  <Energy>  (85) 
85.18122802026633

>  <Genealogy>  (85) 
[NH-]C(=O)n1c(C(N)=O)cc2ccc(C[C@@H](CO)[N-]C(=O)c3ccncc3F)cc21 (protonated)
[NH-]C(=O)n1c(C(N)=O)cc2ccc(C[C@@H](CO)[N-]C(=O)c3ccncc3F)cc21 (3D coordinates assigned)
[NH-]C(=O)n1c(C(N)=O)cc2ccc(C[C@@H](CO)[N-]C(=O)c3ccncc3F)cc21 (optimized conformer: 85.18122802026633 kcal/mol)

>  <smiles>  (85) 
NC(=O)c1cc2ccc(C[C@@H](CO)NC(=O)c3ccncc3F)cc2n1C(N)=O

>  <score_type>  (85) 
oracle

>  <origin>  (85) 
adg

>  <m_score__min__energy>  (85) 
-9.5199999999999996

>  <m_primary>  (85) 
energy

$$$$
85:0
     RDKit          3D

 39 41  0  0  0  0  0  0  0  0999 V2000
   -5.6830   12.1630  -33.5350 C   0  0  0  0  0  0  0  0  0  0  0  0
   -5.8920   13.2530  -34.9280 S   0  0  0  0  0  0  0  0  0  0  0  0
   -7.3170   13.7310  -34.9570 O   0  0  0  0  0  0  0  0  0  0  0  0
   -5.5970   12.5240  -36.2080 O   0  0  0  0  0  0  0  0  0  0  0  0
   -4.8630   14.6140  -34.7790 O   0  0  0  0  0  0  0  0  0  0  0  0
   -5.2210   15.8380  -34.1970 C   0  0  0  0  0  0  0  0  0  0  0  0
   -5.7310   15.9450  -32.8910 C   0  0  0  0  0  0  0  0  0  0  0  0
   -6.0870   17.1930  -32.3710 C   0  0  0  0  0  0  0  0  0  0  0  0
   -5.9350   18.3580  -33.1420 C   0  0  0  0  0  0  0  0  0  0  0  0
   -6.3390   19.6800  -32.6050 C   0  0  0  0  0  0  0  0  0  0  0  0
   -7.7120   20.0260  -32.5120 C   0  0  0  0  0  0  0  0  0  0  0  0
   -8.1060   21.2820  -32.0210 C   0  0  0  0  0  0  0  0  0  0  0  0
   -7.1120   22.1720  -31.6320 C   0  0  0  0  0  0  0  0  0  0  0  0
   -7.2140   23.4360  -31.0990 C   0  0  0  0  0  0  0  0  0  0  0  0
   -5.9020   23.8490  -30.8760 C   0  0  0  0  0  0  0  0  0  0  0  0
   -5.5460   25.1960  -30.3840 C   0  0  0  0  0  0  0  0  0  0  0  0
   -4.2470   25.7400  -30.6080 N   0  0  0  0  0  0  0  0  0  0  0  0
   -6.4140   25.8970  -29.7990 O   0  0  0  0  0  0  0  0  0  0  0  0
   -5.0230   22.8750  -31.2470 N   0  0  0  0  0  0  0  0  0  0  0  0
   -3.5970   22.8570  -31.0640 C   0  0  0  0  0  0  0  0  0  0  0  0
   -3.0080   23.5450  -29.9620 N   0  0  0  0  0  0  0  0  0  0  0  0
   -2.8650   22.2060  -31.8550 O   0  0  0  0  0  0  0  0  0  0  0  0
   -5.7790   21.8580  -31.7140 C   0  0  0  0  0  0  0  0  0  0  0  0
   -5.3570   20.6110  -32.1900 C   0  0  0  0  0  0  0  0  0  0  0  0
   -5.4140   18.2490  -34.4430 C   0  0  0  0  0  0  0  0  0  0  0  0
   -5.0590   17.0000  -34.9600 C   0  0  0  0  0  0  0  0  0  0  0  0
   -5.7927   12.7352  -32.6020 H   0  0  0  0  0  0  0  0  0  0  0  0
   -6.4457   11.3712  -33.5713 H   0  0  0  0  0  0  0  0  0  0  0  0
   -4.6815   11.7094  -33.5713 H   0  0  0  0  0  0  0  0  0  0  0  0
   -5.8506   15.0416  -32.2749 H   0  0  0  0  0  0  0  0  0  0  0  0
   -6.4895   17.2636  -31.3497 H   0  0  0  0  0  0  0  0  0  0  0  0
   -8.4773   19.3019  -32.8282 H   0  0  0  0  0  0  0  0  0  0  0  0
   -9.1695   21.5529  -31.9467 H   0  0  0  0  0  0  0  0  0  0  0  0
   -8.1352   24.0006  -30.8927 H   0  0  0  0  0  0  0  0  0  0  0  0
   -3.5010   25.6640  -29.8840 H   0  0  0  0  0  0  0  0  0  0  0  0
   -2.5710   24.4860  -30.0860 H   0  0  0  0  0  0  0  0  0  0  0  0
   -4.2871   20.3605  -32.2403 H   0  0  0  0  0  0  0  0  0  0  0  0
   -5.2849   19.1520  -35.0578 H   0  0  0  0  0  0  0  0  0  0  0  0
   -4.6477   16.9295  -35.9778 H   0  0  0  0  0  0  0  0  0  0  0  0
  1  2  1  0
  2  3  2  0
  2  4  2  0
  2  5  1  0
  5  6  1  0
  6  7  2  0
  7  8  1  0
  8  9  2  0
  9 10  1  0
 10 11  2  0
 11 12  1  0
 12 13  2  0
 13 14  1  0
 14 15  2  0
 15 16  1  0
 16 17  1  0
 16 18  2  0
 15 19  1  0
 19 20  1  0
 20 21  1  0
 20 22  2  0
 19 23  1  0
 23 24  2  0
  9 25  1  0
 25 26  2  0
 26  6  1  0
 24 10  1  0
 23 13  1  0
  1 27  1  0
  1 28  1  0
  1 29  1  0
  7 30  1  0
  8 31  1  0
 11 32  1  0
 12 33  1  0
 14 34  1  0
 17 35  1  0
 21 36  1  0
 24 37  1  0
 25 38  1  0
 26 39  1  0
M  CHG  2  17  -1  21  -1
M  END
>  <UniqueID>  (86) 
86

>  <SMILES>  (86) 
CS(=O)(=O)Oc1ccc(-c2ccc3cc(C([NH-])=O)n(C([NH-])=O)c3c2)cc1

>  <Energy>  (86) 
82.5133931272865

>  <Genealogy>  (86) 
CS(=O)(=O)Oc1ccc(-c2ccc3cc(C([NH-])=O)n(C([NH-])=O)c3c2)cc1 (protonated)
CS(=O)(=O)Oc1ccc(-c2ccc3cc(C([NH-])=O)n(C([NH-])=O)c3c2)cc1 (3D coordinates assigned)
CS(=O)(=O)Oc1ccc(-c2ccc3cc(C([NH-])=O)n(C([NH-])=O)c3c2)cc1 (optimized conformer: 82.5133931272865 kcal/mol)

>  <smiles>  (86) 
CS(=O)(=O)Oc1ccc(-c2ccc3cc(C(N)=O)n(C(N)=O)c3c2)cc1

>  <score_type>  (86) 
oracle

>  <origin>  (86) 
adg

>  <m_score__min__energy>  (86) 
-10.69

>  <m_primary>  (86) 
energy

$$$$
86:0
     RDKit          3D

 42 44  0  0  0  0  0  0  0  0999 V2000
   -3.0640   21.9270  -32.4050 C   0  0  0  0  0  0  0  0  0  0  0  0
   -3.7100   22.7080  -31.3050 C   0  0  0  0  0  0  0  0  0  0  0  0
   -3.0000   23.1460  -30.3610 O   0  0  0  0  0  0  0  0  0  0  0  0
   -5.1320   22.9050  -31.2770 N   0  0  0  0  0  0  0  0  0  0  0  0
   -5.8210   24.0410  -30.9730 C   0  0  0  0  0  0  0  0  0  0  0  0
   -5.2330   25.2980  -30.4690 C   0  0  0  0  0  0  0  0  0  0  0  0
   -3.9060   25.6630  -30.8420 N   0  0  0  0  0  0  0  0  0  0  0  0
   -5.9010   26.0720  -29.7340 O   0  0  0  0  0  0  0  0  0  0  0  0
   -7.1910   23.8350  -31.1250 C   0  0  0  0  0  0  0  0  0  0  0  0
   -7.3210   22.5230  -31.5240 C   0  0  0  0  0  0  0  0  0  0  0  0
   -8.4620   21.7850  -31.8210 C   0  0  0  0  0  0  0  0  0  0  0  0
   -8.2960   20.4490  -32.2230 C   0  0  0  0  0  0  0  0  0  0  0  0
   -7.0010   19.8760  -32.3290 C   0  0  0  0  0  0  0  0  0  0  0  0
   -6.8490   18.4330  -32.7720 C   0  0  0  0  0  0  0  0  0  0  0  0
   -6.0940   18.3230  -34.1090 C   0  0  0  0  0  0  0  0  0  0  0  0
   -5.9990   16.8560  -34.5850 C   0  0  0  0  0  0  0  0  0  0  0  0
   -6.2650   15.8850  -33.4980 N   0  0  0  0  0  0  0  0  0  0  0  0
   -5.8620   14.5330  -33.9130 C   0  0  0  0  0  0  0  0  0  0  0  0
   -5.5660   16.2740  -32.2590 C   0  0  0  0  0  0  0  0  0  0  0  0
   -6.1670   17.5710  -31.6850 C   0  0  0  0  0  0  0  0  0  0  0  0
   -5.8660   20.6640  -32.0160 C   0  0  0  0  0  0  0  0  0  0  0  0
   -6.0650   21.9850  -31.6060 C   0  0  0  0  0  0  0  0  0  0  0  0
   -2.4195   21.1478  -31.9719 H   0  0  0  0  0  0  0  0  0  0  0  0
   -3.8408   21.4569  -33.0260 H   0  0  0  0  0  0  0  0  0  0  0  0
   -2.4566   22.6018  -33.0260 H   0  0  0  0  0  0  0  0  0  0  0  0
   -3.0810   25.2970  -30.3170 H   0  0  0  0  0  0  0  0  0  0  0  0
   -7.9973   24.5651  -30.9611 H   0  0  0  0  0  0  0  0  0  0  0  0
   -9.4634   22.2335  -31.7435 H   0  0  0  0  0  0  0  0  0  0  0  0
   -9.1805   19.8390  -32.4587 H   0  0  0  0  0  0  0  0  0  0  0  0
   -7.8645   18.0396  -32.9267 H   0  0  0  0  0  0  0  0  0  0  0  0
   -6.6266   18.9122  -34.8701 H   0  0  0  0  0  0  0  0  0  0  0  0
   -5.0732   18.7056  -33.9621 H   0  0  0  0  0  0  0  0  0  0  0  0
   -6.7353   16.6975  -35.3867 H   0  0  0  0  0  0  0  0  0  0  0  0
   -4.9711   16.6867  -34.9383 H   0  0  0  0  0  0  0  0  0  0  0  0
   -5.6779   13.9154  -33.0215 H   0  0  0  0  0  0  0  0  0  0  0  0
   -6.6640   14.0796  -34.5139 H   0  0  0  0  0  0  0  0  0  0  0  0
   -4.9426   14.5927  -34.5139 H   0  0  0  0  0  0  0  0  0  0  0  0
   -5.6686   15.4682  -31.5172 H   0  0  0  0  0  0  0  0  0  0  0  0
   -4.5039   16.4452  -32.4885 H   0  0  0  0  0  0  0  0  0  0  0  0
   -6.9144   17.3072  -30.9222 H   0  0  0  0  0  0  0  0  0  0  0  0
   -5.3446   18.1612  -31.2545 H   0  0  0  0  0  0  0  0  0  0  0  0
   -4.8516   20.2457  -32.0939 H   0  0  0  0  0  0  0  0  0  0  0  0
  1  2  1  0
  2  3  2  0
  2  4  1  0
  4  5  1  0
  5  6  1  0
  6  7  1  0
  6  8  2  0
  5  9  2  0
  9 10  1  0
 10 11  2  0
 11 12  1  0
 12 13  2  0
 13 14  1  0
 14 15  1  0
 15 16  1  0
 16 17  1  0
 17 18  1  0
 17 19  1  0
 19 20  1  0
 13 21  1  0
 21 22  2  0
 22  4  1  0
 22 10  1  0
 20 14  1  0
  1 23  1  0
  1 24  1  0
  1 25  1  0
  7 26  1  0
  9 27  1  0
 11 28  1  0
 12 29  1  0
 14 30  1  0
 15 31  1  0
 15 32  1  0
 16 33  1  0
 16 34  1  0
 18 35  1  0
 18 36  1  0
 18 37  1  0
 19 38  1  0
 19 39  1  0
 20 40  1  0
 20 41  1  0
 21 42  1  0
M  CHG  1   7  -1
M  END
>  <UniqueID>  (87) 
87

>  <SMILES>  (87) 
CC(=O)n1c(C([NH-])=O)cc2ccc(C3CCN(C)CC3)cc21

>  <Energy>  (87) 
87.37436805462545

>  <Genealogy>  (87) 
CC(=O)n1c(C([NH-])=O)cc2ccc(C3CCN(C)CC3)cc21 (protonated)
CC(=O)n1c(C([NH-])=O)cc2ccc(C3CCN(C)CC3)cc21 (3D coordinates assigned)
CC(=O)n1c(C([NH-])=O)cc2ccc(C3CCN(C)CC3)cc21 (nonaromatic ring conformer: 87.37436805462545 kcal/mol)

>  <smiles>  (87) 
CC(=O)n1c(C(N)=O)cc2ccc(C3CCN(C)CC3)cc21

>  <score_type>  (87) 
oracle

>  <origin>  (87) 
adg

>  <m_score__min__energy>  (87) 
-11.27

>  <m_primary>  (87) 
energy

$$$$
87:0
     RDKit          3D

 41 43  0  0  0  0  0  0  0  0999 V2000
   -4.7770   14.8650  -32.9350 C   0  0  0  0  0  0  0  0  0  0  0  0
   -5.4420   15.9350  -33.8280 C   0  0  0  0  0  0  0  0  0  0  0  0
   -6.8590   15.4760  -34.2010 C   0  0  0  0  0  0  0  0  0  0  0  0
   -5.4670   17.3840  -33.2330 C   0  0  2  0  0  0  0  0  0  0  0  0
   -4.1950   17.7890  -32.7850 O   0  0  0  0  0  0  0  0  0  0  0  0
   -6.5380   17.6470  -32.1600 C   0  0  0  0  0  0  0  0  0  0  0  0
   -7.1890   18.6860  -33.0750 C   0  0  1  0  0  0  0  0  0  0  0  0
   -7.2480   20.0910  -32.5020 C   0  0  0  0  0  0  0  0  0  0  0  0
   -8.5110   20.6650  -32.2140 C   0  0  0  0  0  0  0  0  0  0  0  0
   -8.6090   21.9570  -31.6720 C   0  0  0  0  0  0  0  0  0  0  0  0
   -7.4310   22.6560  -31.4340 C   0  0  0  0  0  0  0  0  0  0  0  0
   -7.2380   23.9070  -30.8950 C   0  0  0  0  0  0  0  0  0  0  0  0
   -5.8570   24.0940  -30.8790 C   0  0  0  0  0  0  0  0  0  0  0  0
   -5.2120   25.3540  -30.4550 C   0  0  0  0  0  0  0  0  0  0  0  0
   -3.8750   25.6380  -30.8630 N   0  0  0  0  0  0  0  0  0  0  0  0
   -5.8120   26.1650  -29.7030 O   0  0  0  0  0  0  0  0  0  0  0  0
   -5.2200   22.9980  -31.3820 N   0  0  0  0  0  0  0  0  0  0  0  0
   -3.8040   22.7680  -31.4690 C   0  0  0  0  0  0  0  0  0  0  0  0
   -3.3110   22.2130  -32.4870 O   0  0  0  0  0  0  0  0  0  0  0  0
   -2.9680   23.1290  -30.4210 O   0  0  0  0  0  0  0  0  0  0  0  0
   -6.1990   22.1280  -31.7200 C   0  0  0  0  0  0  0  0  0  0  0  0
   -6.0700   20.8370  -32.2420 C   0  0  0  0  0  0  0  0  0  0  0  0
   -6.0940   18.4660  -34.1230 C   0  0  0  0  0  0  0  0  0  0  0  0
   -4.9357   15.1203  -31.8769 H   0  0  0  0  0  0  0  0  0  0  0  0
   -5.2236   13.8821  -33.1460 H   0  0  0  0  0  0  0  0  0  0  0  0
   -3.6980   14.8303  -33.1460 H   0  0  0  0  0  0  0  0  0  0  0  0
   -4.8067   16.0187  -34.7221 H   0  0  0  0  0  0  0  0  0  0  0  0
   -7.4370   15.2888  -33.2840 H   0  0  0  0  0  0  0  0  0  0  0  0
   -7.3543   16.2596  -34.7931 H   0  0  0  0  0  0  0  0  0  0  0  0
   -6.8008   14.5508  -34.7931 H   0  0  0  0  0  0  0  0  0  0  0  0
   -4.2280   18.7750  -32.6840 H   0  0  0  0  0  0  0  0  0  0  0  0
   -6.1420   18.0597  -31.2204 H   0  0  0  0  0  0  0  0  0  0  0  0
   -7.1300   16.8176  -31.7457 H   0  0  0  0  0  0  0  0  0  0  0  0
   -8.2482   18.5875  -33.3550 H   0  0  0  0  0  0  0  0  0  0  0  0
   -9.4270   20.0911  -32.4176 H   0  0  0  0  0  0  0  0  0  0  0  0
   -9.5883   22.4024  -31.4427 H   0  0  0  0  0  0  0  0  0  0  0  0
   -8.0100   24.6105  -30.5499 H   0  0  0  0  0  0  0  0  0  0  0  0
   -3.0600   25.2890  -30.3120 H   0  0  0  0  0  0  0  0  0  0  0  0
   -5.0772   20.4097  -32.4464 H   0  0  0  0  0  0  0  0  0  0  0  0
   -5.4486   19.3410  -34.2897 H   0  0  0  0  0  0  0  0  0  0  0  0
   -6.3573   18.2460  -35.1681 H   0  0  0  0  0  0  0  0  0  0  0  0
  1  2  1  0
  2  3  1  0
  2  4  1  0
  4  5  1  1
  4  6  1  0
  6  7  1  0
  7  8  1  0
  8  9  2  0
  9 10  1  0
 10 11  2  0
 11 12  1  0
 12 13  2  0
 13 14  1  0
 14 15  1  0
 14 16  2  0
 13 17  1  0
 17 18  1  0
 18 19  2  0
 18 20  1  0
 17 21  1  0
 21 22  2  0
  7 23  1  0
 23  4  1  0
 22  8  1  0
 21 11  1  0
  1 24  1  0
  1 25  1  0
  1 26  1  0
  2 27  1  0
  3 28  1  0
  3 29  1  0
  3 30  1  0
  5 31  1  0
  6 32  1  0
  6 33  1  0
  7 34  1  6
  9 35  1  0
 10 36  1  0
 12 37  1  0
 15 38  1  0
 22 39  1  0
 23 40  1  0
 23 41  1  0
M  CHG  2  15  -1  20  -1
M  END
>  <UniqueID>  (88) 
88

>  <SMILES>  (88) 
CC(C)C1(O)CC(c2ccc3cc(C([NH-])=O)n(C(=O)[O-])c3c2)C1

>  <Energy>  (88) 
144.4088952594441

>  <Genealogy>  (88) 
CC(C)C1(O)CC(c2ccc3cc(C([NH-])=O)n(C(=O)[O-])c3c2)C1 (protonated)
CC(C)C1(O)CC(c2ccc3cc(C([NH-])=O)n(C(=O)[O-])c3c2)C1 (3D coordinates assigned)
CC(C)C1(O)CC(c2ccc3cc(C([NH-])=O)n(C(=O)[O-])c3c2)C1 (nonaromatic ring conformer: 144.4088952594441 kcal/mol)

>  <smiles>  (88) 
CC(C)C1(O)CC(c2ccc3cc(C(N)=O)n(C(=O)O)c3c2)C1

>  <score_type>  (88) 
oracle

>  <origin>  (88) 
adg

>  <m_score__min__energy>  (88) 
-11.44

>  <m_primary>  (88) 
energy

$$$$
88:0
     RDKit          3D

 64 66  0  0  0  0  0  0  0  0999 V2000
   -2.2090   21.5220  -32.4440 C   0  0  0  0  0  0  0  0  0  0  0  0
   -2.8240   20.1550  -32.7200 C   0  0  0  0  0  0  0  0  0  0  0  0
   -4.0020   20.2840  -33.5130 O   0  0  0  0  0  0  0  0  0  0  0  0
   -4.7830   19.1950  -33.9190 C   0  0  0  0  0  0  0  0  0  0  0  0
   -4.4710   18.5330  -34.9460 O   0  0  0  0  0  0  0  0  0  0  0  0
   -5.9340   18.8180  -33.1460 N   0  0  0  0  0  0  0  0  0  0  0  0
   -6.3030   17.5670  -32.7560 C   0  0  0  0  0  0  0  0  0  0  0  0
   -5.6460   16.3080  -33.1760 C   0  0  0  0  0  0  0  0  0  0  0  0
   -5.3270   16.0760  -34.5490 N   0  0  0  0  0  0  0  0  0  0  0  0
   -5.3360   15.4400  -32.3190 O   0  0  0  0  0  0  0  0  0  0  0  0
   -7.4530   17.6210  -31.9700 C   0  0  0  0  0  0  0  0  0  0  0  0
   -7.7810   18.9550  -31.8950 C   0  0  0  0  0  0  0  0  0  0  0  0
   -8.8280   19.5840  -31.2260 C   0  0  0  0  0  0  0  0  0  0  0  0
   -8.9030   20.9850  -31.2890 C   0  0  0  0  0  0  0  0  0  0  0  0
   -7.9370   21.7280  -32.0140 C   0  0  0  0  0  0  0  0  0  0  0  0
   -7.9880   23.2310  -32.0150 C   0  0  0  0  0  0  0  0  0  0  0  0
   -6.7370   23.7900  -31.3930 C   0  0  0  0  0  0  0  0  0  0  0  0
   -5.4790   23.3130  -31.7870 C   0  0  0  0  0  0  0  0  0  0  0  0
   -4.3190   23.7880  -31.1670 C   0  0  0  0  0  0  0  0  0  0  0  0
   -4.3930   24.7450  -30.1480 C   0  0  0  0  0  0  0  0  0  0  0  0
   -3.1870   25.1710  -29.5690 O   0  0  0  0  0  0  0  0  0  0  0  0
   -2.4280   24.6220  -28.0840 Si  0  0  0  0  0  4  0  0  0  0  0  0
   -0.9380   25.7250  -27.8290 C   0  0  0  0  0  0  0  0  0  0  0  0
   -3.5250   24.8980  -26.5900 C   0  0  0  0  0  0  0  0  0  0  0  0
   -1.8430   22.8090  -28.2220 C   0  0  0  0  0  0  0  0  0  0  0  0
   -3.0690   21.8920  -28.3810 C   0  0  0  0  0  0  0  0  0  0  0  0
   -1.0660   22.3930  -26.9620 C   0  0  0  0  0  0  0  0  0  0  0  0
   -0.9280   22.6620  -29.4500 C   0  0  0  0  0  0  0  0  0  0  0  0
   -5.6550   25.2350  -29.7660 C   0  0  0  0  0  0  0  0  0  0  0  0
   -6.8170   24.7510  -30.3740 C   0  0  0  0  0  0  0  0  0  0  0  0
   -6.8860   21.0540  -32.6750 C   0  0  0  0  0  0  0  0  0  0  0  0
   -6.8480   19.6580  -32.6110 C   0  0  0  0  0  0  0  0  0  0  0  0
   -2.1381   21.6796  -31.3577 H   0  0  0  0  0  0  0  0  0  0  0  0
   -1.2035   21.5680  -32.8876 H   0  0  0  0  0  0  0  0  0  0  0  0
   -2.8416   22.3050  -32.8876 H   0  0  0  0  0  0  0  0  0  0  0  0
   -2.0935   19.5320  -33.2569 H   0  0  0  0  0  0  0  0  0  0  0  0
   -3.0922   19.6873  -31.7612 H   0  0  0  0  0  0  0  0  0  0  0  0
   -5.6230   16.7420  -35.2950 H   0  0  0  0  0  0  0  0  0  0  0  0
   -4.8280   15.2030  -34.8290 H   0  0  0  0  0  0  0  0  0  0  0  0
   -7.9852   16.7764  -31.5079 H   0  0  0  0  0  0  0  0  0  0  0  0
   -9.5736   19.0012  -30.6653 H   0  0  0  0  0  0  0  0  0  0  0  0
   -9.7187   21.5108  -30.7711 H   0  0  0  0  0  0  0  0  0  0  0  0
   -8.0721   23.5917  -33.0508 H   0  0  0  0  0  0  0  0  0  0  0  0
   -8.8598   23.5626  -31.4319 H   0  0  0  0  0  0  0  0  0  0  0  0
   -5.4040   22.5619  -32.5872 H   0  0  0  0  0  0  0  0  0  0  0  0
   -3.3375   23.4054  -31.4835 H   0  0  0  0  0  0  0  0  0  0  0  0
   -0.7596   25.8570  -26.7516 H   0  0  0  0  0  0  0  0  0  0  0  0
   -0.0549   25.2613  -28.2927 H   0  0  0  0  0  0  0  0  0  0  0  0
   -1.1236   26.7050  -28.2927 H   0  0  0  0  0  0  0  0  0  0  0  0
   -2.9378   24.7503  -25.6716 H   0  0  0  0  0  0  0  0  0  0  0  0
   -3.9214   25.9239  -26.6107 H   0  0  0  0  0  0  0  0  0  0  0  0
   -4.3597   24.1819  -26.6107 H   0  0  0  0  0  0  0  0  0  0  0  0
   -3.4468   21.6094  -27.3873 H   0  0  0  0  0  0  0  0  0  0  0  0
   -3.8561   22.4249  -28.9346 H   0  0  0  0  0  0  0  0  0  0  0  0
   -2.7802   20.9864  -28.9346 H   0  0  0  0  0  0  0  0  0  0  0  0
   -1.6299   22.6949  -26.0671 H   0  0  0  0  0  0  0  0  0  0  0  0
   -0.9300   21.3014  -26.9588 H   0  0  0  0  0  0  0  0  0  0  0  0
   -0.0822   22.8850  -26.9588 H   0  0  0  0  0  0  0  0  0  0  0  0
    0.1074   22.4957  -29.1179 H   0  0  0  0  0  0  0  0  0  0  0  0
   -1.2611   21.8058  -30.0550 H   0  0  0  0  0  0  0  0  0  0  0  0
   -0.9761   23.5794  -30.0550 H   0  0  0  0  0  0  0  0  0  0  0  0
   -5.7280   26.0045  -28.9833 H   0  0  0  0  0  0  0  0  0  0  0  0
   -7.7997   25.1258  -30.0516 H   0  0  0  0  0  0  0  0  0  0  0  0
   -6.1164   21.6139  -33.2265 H   0  0  0  0  0  0  0  0  0  0  0  0
  1  2  1  0
  2  3  1  0
  3  4  1  0
  4  5  2  0
  4  6  1  0
  6  7  1  0
  7  8  1  0
  8  9  1  0
  8 10  2  0
  7 11  2  0
 11 12  1  0
 12 13  2  0
 13 14  1  0
 14 15  2  0
 15 16  1  0
 16 17  1  0
 17 18  2  0
 18 19  1  0
 19 20  2  0
 20 21  1  0
 21 22  1  0
 22 23  1  0
 22 24  1  0
 22 25  1  0
 25 26  1  0
 25 27  1  0
 25 28  1  0
 20 29  1  0
 29 30  2  0
 15 31  1  0
 31 32  2  0
 32  6  1  0
 32 12  1  0
 30 17  1  0
  1 33  1  0
  1 34  1  0
  1 35  1  0
  2 36  1  0
  2 37  1  0
  9 38  1  0
  9 39  1  0
 11 40  1  0
 13 41  1  0
 14 42  1  0
 16 43  1  0
 16 44  1  0
 18 45  1  0
 19 46  1  0
 23 47  1  0
 23 48  1  0
 23 49  1  0
 24 50  1  0
 24 51  1  0
 24 52  1  0
 26 53  1  0
 26 54  1  0
 26 55  1  0
 27 56  1  0
 27 57  1  0
 27 58  1  0
 28 59  1  0
 28 60  1  0
 28 61  1  0
 29 62  1  0
 30 63  1  0
 31 64  1  0
M  END
>  <UniqueID>  (89) 
89

>  <SMILES>  (89) 
CCOC(=O)n1c(C(N)=O)cc2ccc(Cc3ccc(O[Si](C)(C)C(C)(C)C)cc3)cc21

>  <Energy>  (89) 
84.28781564653136

>  <Genealogy>  (89) 
CCOC(=O)n1c(C(N)=O)cc2ccc(Cc3ccc(O[Si](C)(C)C(C)(C)C)cc3)cc21 (3D coordinates assigned)
CCOC(=O)n1c(C(N)=O)cc2ccc(Cc3ccc(O[Si](C)(C)C(C)(C)C)cc3)cc21 (optimized conformer: 84.28781564653136 kcal/mol)

>  <smiles>  (89) 
CCOC(=O)n1c(C(N)=O)cc2ccc(Cc3ccc(O[Si](C)(C)C(C)(C)C)cc3)cc21

>  <score_type>  (89) 
oracle

>  <origin>  (89) 
adg

>  <m_score__min__energy>  (89) 
-10.529999999999999

>  <m_primary>  (89) 
energy

$$$$
89:0
     RDKit          3D

 39 41  0  0  0  0  0  0  0  0999 V2000
   -6.4770   17.5710  -31.9100 C   0  0  0  0  0  0  0  0  0  0  0  0
   -6.9830   18.4210  -33.0030 N   0  0  0  0  0  0  0  0  0  0  0  0
   -6.0910   18.3880  -34.1830 C   0  0  0  0  0  0  0  0  0  0  0  0
   -4.7380   19.0620  -33.8970 C   0  0  0  0  0  0  0  0  0  0  0  0
   -4.9160   20.2420  -33.0440 N   0  0  0  0  0  0  0  0  0  0  0  0
   -3.8050   20.7680  -32.2940 C   0  0  0  0  0  0  0  0  0  0  0  0
   -2.5690   20.0730  -32.2670 C   0  0  0  0  0  0  0  0  0  0  0  0
   -1.4780   20.5770  -31.5390 C   0  0  0  0  0  0  0  0  0  0  0  0
   -1.6540   21.7640  -30.8380 C   0  0  0  0  0  0  0  0  0  0  0  0
   -0.7580   22.4850  -30.0830 C   0  0  0  0  0  0  0  0  0  0  0  0
   -1.4690   23.5900  -29.6230 C   0  0  0  0  0  0  0  0  0  0  0  0
   -0.8930   24.6050  -28.7200 C   0  0  0  0  0  0  0  0  0  0  0  0
   -1.7060   25.6320  -28.1490 N   0  0  0  0  0  0  0  0  0  0  0  0
    0.3240   24.5330  -28.4030 O   0  0  0  0  0  0  0  0  0  0  0  0
   -2.7510   23.5650  -30.0850 N   0  0  0  0  0  0  0  0  0  0  0  0
   -3.7570   24.5810  -29.9290 C   0  0  0  0  0  0  0  0  0  0  0  0
   -4.5510   24.5440  -28.9520 O   0  0  0  0  0  0  0  0  0  0  0  0
   -3.8630   25.6140  -30.8510 O   0  0  0  0  0  0  0  0  0  0  0  0
   -2.8500   22.4380  -30.8260 C   0  0  0  0  0  0  0  0  0  0  0  0
   -3.9460   21.9690  -31.5600 C   0  0  0  0  0  0  0  0  0  0  0  0
   -6.2470   20.8500  -32.9630 C   0  0  0  0  0  0  0  0  0  0  0  0
   -7.2880   19.7990  -32.5350 C   0  0  0  0  0  0  0  0  0  0  0  0
   -6.7445   18.0203  -30.9422 H   0  0  0  0  0  0  0  0  0  0  0  0
   -6.9262   16.5698  -31.9861 H   0  0  0  0  0  0  0  0  0  0  0  0
   -5.3827   17.4886  -31.9861 H   0  0  0  0  0  0  0  0  0  0  0  0
   -5.9137   17.3399  -34.4658 H   0  0  0  0  0  0  0  0  0  0  0  0
   -6.5821   18.9403  -34.9977 H   0  0  0  0  0  0  0  0  0  0  0  0
   -4.0778   18.3446  -33.3876 H   0  0  0  0  0  0  0  0  0  0  0  0
   -4.2927   19.3797  -34.8513 H   0  0  0  0  0  0  0  0  0  0  0  0
   -2.4633   19.1292  -32.8220 H   0  0  0  0  0  0  0  0  0  0  0  0
   -0.5137   20.0480  -31.5244 H   0  0  0  0  0  0  0  0  0  0  0  0
    0.2960   22.2404  -29.8849 H   0  0  0  0  0  0  0  0  0  0  0  0
   -2.7440   25.6200  -28.2540 H   0  0  0  0  0  0  0  0  0  0  0  0
   -1.2730   26.3660  -27.5430 H   0  0  0  0  0  0  0  0  0  0  0  0
   -4.8965   22.5226  -31.5658 H   0  0  0  0  0  0  0  0  0  0  0  0
   -6.2295   21.6653  -32.2248 H   0  0  0  0  0  0  0  0  0  0  0  0
   -6.5217   21.2443  -33.9525 H   0  0  0  0  0  0  0  0  0  0  0  0
   -7.3372   19.7883  -31.4362 H   0  0  0  0  0  0  0  0  0  0  0  0
   -8.2425   20.0889  -32.9986 H   0  0  0  0  0  0  0  0  0  0  0  0
  1  2  1  0
  2  3  1  0
  3  4  1  0
  4  5  1  0
  5  6  1  0
  6  7  2  0
  7  8  1  0
  8  9  2  0
  9 10  1  0
 10 11  2  0
 11 12  1  0
 12 13  1  0
 12 14  2  0
 11 15  1  0
 15 16  1  0
 16 17  2  0
 16 18  1  0
 15 19  1  0
 19 20  2  0
  5 21  1  0
 21 22  1  0
 22  2  1  0
 20  6  1  0
 19  9  1  0
  1 23  1  0
  1 24  1  0
  1 25  1  0
  3 26  1  0
  3 27  1  0
  4 28  1  0
  4 29  1  0
  7 30  1  0
  8 31  1  0
 10 32  1  0
 13 33  1  0
 13 34  1  0
 20 35  1  0
 21 36  1  0
 21 37  1  0
 22 38  1  0
 22 39  1  0
M  CHG  1  18  -1
M  END
>  <UniqueID>  (90) 
90

>  <SMILES>  (90) 
CN1CCN(c2ccc3cc(C(N)=O)n(C(=O)[O-])c3c2)CC1

>  <Energy>  (90) 
91.66955654931725

>  <Genealogy>  (90) 
CN1CCN(c2ccc3cc(C(N)=O)n(C(=O)[O-])c3c2)CC1 (protonated)
CN1CCN(c2ccc3cc(C(N)=O)n(C(=O)[O-])c3c2)CC1 (3D coordinates assigned)
CN1CCN(c2ccc3cc(C(N)=O)n(C(=O)[O-])c3c2)CC1 (nonaromatic ring conformer: 91.66955654931725 kcal/mol)

>  <smiles>  (90) 
CN1CCN(c2ccc3cc(C(N)=O)n(C(=O)O)c3c2)CC1

>  <score_type>  (90) 
oracle

>  <origin>  (90) 
adg

>  <m_score__min__energy>  (90) 
-9.3900000000000006

>  <m_primary>  (90) 
energy

$$$$
90:0
     RDKit          3D

 24 25  0  0  0  0  0  0  0  0999 V2000
   -1.6270   25.6860  -28.9880 N   0  0  0  0  0  0  0  0  0  0  0  0
   -1.0690   24.3980  -29.2360 C   0  0  0  0  0  0  0  0  0  0  0  0
    0.1180   24.1630  -28.8830 O   0  0  0  0  0  0  0  0  0  0  0  0
   -1.8380   23.3590  -29.9510 C   0  0  0  0  0  0  0  0  0  0  0  0
   -1.3060   22.1210  -30.3030 C   0  0  0  0  0  0  0  0  0  0  0  0
   -2.2950   21.4890  -31.0210 C   0  0  0  0  0  0  0  0  0  0  0  0
   -2.3140   20.2220  -31.5940 C   0  0  0  0  0  0  0  0  0  0  0  0
   -3.4870   19.8100  -32.2470 C   0  0  0  0  0  0  0  0  0  0  0  0
   -4.6150   20.6690  -32.3240 C   0  0  0  0  0  0  0  0  0  0  0  0
   -5.8890   20.1900  -32.9710 C   0  0  0  0  0  0  0  0  0  0  0  0
   -6.4480   19.1950  -32.1920 F   0  0  0  0  0  0  0  0  0  0  0  0
   -6.7950   21.2300  -33.0920 F   0  0  0  0  0  0  0  0  0  0  0  0
   -5.6370   19.6860  -34.2350 F   0  0  0  0  0  0  0  0  0  0  0  0
   -4.5640   21.9400  -31.7060 C   0  0  0  0  0  0  0  0  0  0  0  0
   -3.3740   22.3320  -31.0800 C   0  0  0  0  0  0  0  0  0  0  0  0
   -3.1120   23.4840  -30.4240 N   0  0  0  0  0  0  0  0  0  0  0  0
   -4.0310   24.5660  -30.2050 C   0  0  0  0  0  0  0  0  0  0  0  0
   -3.8720   25.6660  -30.7970 O   0  0  0  0  0  0  0  0  0  0  0  0
   -5.0890   24.4190  -29.3170 O   0  0  0  0  0  0  0  0  0  0  0  0
   -2.6590   25.8340  -28.9960 H   0  0  0  0  0  0  0  0  0  0  0  0
   -0.3068   21.7311  -30.0588 H   0  0  0  0  0  0  0  0  0  0  0  0
   -1.4359   19.5619  -31.5374 H   0  0  0  0  0  0  0  0  0  0  0  0
   -3.5325   18.8105  -32.7040 H   0  0  0  0  0  0  0  0  0  0  0  0
   -5.4395   22.6059  -31.7167 H   0  0  0  0  0  0  0  0  0  0  0  0
  1  2  1  0
  2  3  2  0
  2  4  1  0
  4  5  2  0
  5  6  1  0
  6  7  2  0
  7  8  1  0
  8  9  2  0
  9 10  1  0
 10 11  1  0
 10 12  1  0
 10 13  1  0
  9 14  1  0
 14 15  2  0
 15 16  1  0
 16 17  1  0
 17 18  2  0
 17 19  1  0
 16  4  1  0
 15  6  1  0
  1 20  1  0
  5 21  1  0
  7 22  1  0
  8 23  1  0
 14 24  1  0
M  CHG  2   1  -1  19  -1
M  END
>  <UniqueID>  (91) 
91

>  <SMILES>  (91) 
[NH-]C(=O)c1cc2ccc(C(F)(F)F)cc2n1C(=O)[O-]

>  <Energy>  (91) 
65.2226382562094

>  <Genealogy>  (91) 
[NH-]C(=O)c1cc2ccc(C(F)(F)F)cc2n1C(=O)[O-] (protonated)
[NH-]C(=O)c1cc2ccc(C(F)(F)F)cc2n1C(=O)[O-] (3D coordinates assigned)
[NH-]C(=O)c1cc2ccc(C(F)(F)F)cc2n1C(=O)[O-] (optimized conformer: 65.2226382562094 kcal/mol)

>  <smiles>  (91) 
NC(=O)c1cc2ccc(C(F)(F)F)cc2n1C(=O)O

>  <score_type>  (91) 
oracle

>  <origin>  (91) 
adg

>  <m_score__min__energy>  (91) 
-9.6099999999999994

>  <m_primary>  (91) 
energy

$$$$
91:0
     RDKit          3D

 34 36  0  0  0  0  0  0  0  0999 V2000
   -2.4360   19.3510  -32.3220 C   0  0  0  0  0  0  0  0  0  0  0  0
   -3.1160   18.8050  -33.5360 C   0  0  0  0  0  0  0  0  0  0  0  0
   -2.4440   18.6280  -34.5880 O   0  0  0  0  0  0  0  0  0  0  0  0
   -4.5200   18.4990  -33.5290 N   0  0  0  0  0  0  0  0  0  0  0  0
   -5.1140   17.3540  -33.9670 C   0  0  0  0  0  0  0  0  0  0  0  0
   -4.4370   16.2460  -34.6730 C   0  0  0  0  0  0  0  0  0  0  0  0
   -3.5020   16.4960  -35.7240 N   0  0  0  0  0  0  0  0  0  0  0  0
   -4.7250   15.0560  -34.3750 O   0  0  0  0  0  0  0  0  0  0  0  0
   -6.4740   17.3620  -33.6750 C   0  0  0  0  0  0  0  0  0  0  0  0
   -6.7020   18.5630  -33.0430 C   0  0  0  0  0  0  0  0  0  0  0  0
   -7.8790   19.0830  -32.5120 C   0  0  0  0  0  0  0  0  0  0  0  0
   -7.8160   20.3280  -31.8660 C   0  0  0  0  0  0  0  0  0  0  0  0
   -6.5830   21.0240  -31.7470 C   0  0  0  0  0  0  0  0  0  0  0  0
   -6.5000   22.3300  -31.0530 C   0  0  0  0  0  0  0  0  0  0  0  0
   -7.3820   22.8340  -30.1080 C   0  0  0  0  0  0  0  0  0  0  0  0
   -6.8920   24.0740  -29.7540 C   0  0  0  0  0  0  0  0  0  0  0  0
   -5.7450   24.2500  -30.5010 C   0  0  0  0  0  0  0  0  0  0  0  0
   -4.8690   25.4260  -30.4690 C   0  0  0  0  0  0  0  0  0  0  0  0
   -5.3680   26.5810  -30.4480 O   0  0  0  0  0  0  0  0  0  0  0  0
   -3.4880   25.2720  -30.4600 O   0  0  0  0  0  0  0  0  0  0  0  0
   -5.5360   23.2010  -31.2620 O   0  0  0  0  0  0  0  0  0  0  0  0
   -5.4100   20.4580  -32.2980 C   0  0  0  0  0  0  0  0  0  0  0  0
   -5.5080   19.2280  -32.9610 C   0  0  0  0  0  0  0  0  0  0  0  0
   -2.9260   18.9576  -31.4191 H   0  0  0  0  0  0  0  0  0  0  0  0
   -1.3785   19.0483  -32.3267 H   0  0  0  0  0  0  0  0  0  0  0  0
   -2.5031   20.4489  -32.3267 H   0  0  0  0  0  0  0  0  0  0  0  0
   -2.9970   15.7010  -36.1750 H   0  0  0  0  0  0  0  0  0  0  0  0
   -3.3820   17.4510  -36.1260 H   0  0  0  0  0  0  0  0  0  0  0  0
   -7.2099   16.5763  -33.9010 H   0  0  0  0  0  0  0  0  0  0  0  0
   -8.8293   18.5353  -32.5959 H   0  0  0  0  0  0  0  0  0  0  0  0
   -8.7321   20.7698  -31.4470 H   0  0  0  0  0  0  0  0  0  0  0  0
   -8.2875   22.3445  -29.7201 H   0  0  0  0  0  0  0  0  0  0  0  0
   -7.3255   24.7767  -29.0272 H   0  0  0  0  0  0  0  0  0  0  0  0
   -4.4419   20.9724  -32.2079 H   0  0  0  0  0  0  0  0  0  0  0  0
  1  2  1  0
  2  3  2  0
  2  4  1  0
  4  5  1  0
  5  6  1  0
  6  7  1  0
  6  8  2  0
  5  9  2  0
  9 10  1  0
 10 11  2  0
 11 12  1  0
 12 13  2  0
 13 14  1  0
 14 15  2  0
 15 16  1  0
 16 17  2  0
 17 18  1  0
 18 19  2  0
 18 20  1  0
 17 21  1  0
 13 22  1  0
 22 23  2  0
 23  4  1  0
 23 10  1  0
 21 14  1  0
  1 24  1  0
  1 25  1  0
  1 26  1  0
  7 27  1  0
  7 28  1  0
  9 29  1  0
 11 30  1  0
 12 31  1  0
 15 32  1  0
 16 33  1  0
 22 34  1  0
M  CHG  1  20  -1
M  END
>  <UniqueID>  (92) 
92

>  <SMILES>  (92) 
CC(=O)n1c(C(N)=O)cc2ccc(-c3ccc(C(=O)[O-])o3)cc21

>  <Energy>  (92) 
101.82854597444273

>  <Genealogy>  (92) 
CC(=O)n1c(C(N)=O)cc2ccc(-c3ccc(C(=O)[O-])o3)cc21 (protonated)
CC(=O)n1c(C(N)=O)cc2ccc(-c3ccc(C(=O)[O-])o3)cc21 (3D coordinates assigned)
CC(=O)n1c(C(N)=O)cc2ccc(-c3ccc(C(=O)[O-])o3)cc21 (optimized conformer: 101.82854597444273 kcal/mol)

>  <smiles>  (92) 
CC(=O)n1c(C(N)=O)cc2ccc(-c3ccc(C(=O)O)o3)cc21

>  <score_type>  (92) 
oracle

>  <origin>  (92) 
adg

>  <m_score__min__energy>  (92) 
-9.1799999999999997

>  <m_primary>  (92) 
energy

$$$$
92:0
     RDKit          3D

 44 46  0  0  0  0  0  0  0  0999 V2000
   -0.8570   23.2070  -29.5670 C   0  0  0  0  0  0  0  0  0  0  0  0
   -1.9310   23.6460  -28.6120 C   0  0  0  0  0  0  0  0  0  0  0  0
   -1.6400   24.5970  -27.6180 C   0  0  0  0  0  0  0  0  0  0  0  0
   -2.6300   25.0090  -26.7240 C   0  0  0  0  0  0  0  0  0  0  0  0
   -3.9150   24.4720  -26.8060 C   0  0  0  0  0  0  0  0  0  0  0  0
   -4.2190   23.5290  -27.7910 C   0  0  0  0  0  0  0  0  0  0  0  0
   -3.2380   23.1230  -28.7160 C   0  0  0  0  0  0  0  0  0  0  0  0
   -3.5230   22.1370  -29.7210 N   0  0  0  0  0  0  0  0  0  0  0  0
   -4.0950   22.3760  -31.0130 C   0  0  0  0  0  0  0  0  0  0  0  0
   -3.4210   22.1720  -32.0580 O   0  0  0  0  0  0  0  0  0  0  0  0
   -5.4720   22.7690  -31.1170 N   0  0  0  0  0  0  0  0  0  0  0  0
   -6.0180   23.9800  -30.8120 C   0  0  0  0  0  0  0  0  0  0  0  0
   -5.2700   25.2070  -30.4680 C   0  0  0  0  0  0  0  0  0  0  0  0
   -3.8680   25.3010  -30.7070 N   0  0  0  0  0  0  0  0  0  0  0  0
   -5.8850   26.2030  -30.0030 O   0  0  0  0  0  0  0  0  0  0  0  0
   -7.4040   23.9390  -30.9460 C   0  0  0  0  0  0  0  0  0  0  0  0
   -7.6940   22.6580  -31.3550 C   0  0  0  0  0  0  0  0  0  0  0  0
   -8.9210   22.0620  -31.6320 C   0  0  0  0  0  0  0  0  0  0  0  0
   -8.9250   20.7090  -32.0120 C   0  0  0  0  0  0  0  0  0  0  0  0
   -7.7130   19.9790  -32.0980 C   0  0  0  0  0  0  0  0  0  0  0  0
   -7.7260   18.5320  -32.5170 C   0  0  0  0  0  0  0  0  0  0  0  0
   -6.3140   17.9360  -32.5880 C   0  0  0  0  0  0  0  0  0  0  0  0
   -5.9190   17.3150  -34.2180 S   0  0  0  0  0  0  0  0  0  0  0  0
   -6.8770   16.2210  -34.5960 O   0  0  0  0  0  0  0  0  0  0  0  0
   -6.0330   18.4340  -35.2120 O   0  0  0  0  0  0  0  0  0  0  0  0
   -4.3490   16.7140  -34.2400 O   0  0  0  0  0  0  0  0  0  0  0  0
   -6.4860   20.6180  -31.8080 C   0  0  0  0  0  0  0  0  0  0  0  0
   -6.5110   21.9710  -31.4510 C   0  0  0  0  0  0  0  0  0  0  0  0
    0.0151   22.8505  -28.9993 H   0  0  0  0  0  0  0  0  0  0  0  0
   -1.2398   22.3932  -30.2004 H   0  0  0  0  0  0  0  0  0  0  0  0
   -0.5602   24.0559  -30.2004 H   0  0  0  0  0  0  0  0  0  0  0  0
   -0.6267   25.0187  -27.5444 H   0  0  0  0  0  0  0  0  0  0  0  0
   -2.3964   25.7585  -25.9535 H   0  0  0  0  0  0  0  0  0  0  0  0
   -4.6901   24.7916  -26.0939 H   0  0  0  0  0  0  0  0  0  0  0  0
   -5.2309   23.1010  -27.8443 H   0  0  0  0  0  0  0  0  0  0  0  0
   -3.4760   26.0440  -31.3270 H   0  0  0  0  0  0  0  0  0  0  0  0
   -8.1158   24.7576  -30.7634 H   0  0  0  0  0  0  0  0  0  0  0  0
   -9.8585   22.6324  -31.5558 H   0  0  0  0  0  0  0  0  0  0  0  0
   -9.8780   20.2116  -32.2450 H   0  0  0  0  0  0  0  0  0  0  0  0
   -8.3167   17.9576  -31.7882 H   0  0  0  0  0  0  0  0  0  0  0  0
   -8.1670   18.4759  -33.5232 H   0  0  0  0  0  0  0  0  0  0  0  0
   -5.5868   18.7171  -32.3215 H   0  0  0  0  0  0  0  0  0  0  0  0
   -6.2708   17.0898  -31.8865 H   0  0  0  0  0  0  0  0  0  0  0  0
   -5.5360   20.0661  -31.8615 H   0  0  0  0  0  0  0  0  0  0  0  0
  1  2  1  0
  2  3  2  0
  3  4  1  0
  4  5  2  0
  5  6  1  0
  6  7  2  0
  7  8  1  0
  8  9  1  0
  9 10  2  0
  9 11  1  0
 11 12  1  0
 12 13  1  0
 13 14  1  0
 13 15  2  0
 12 16  2  0
 16 17  1  0
 17 18  2  0
 18 19  1  0
 19 20  2  0
 20 21  1  0
 21 22  1  0
 22 23  1  0
 23 24  2  0
 23 25  2  0
 23 26  1  0
 20 27  1  0
 27 28  2  0
  7  2  1  0
 28 11  1  0
 28 17  1  0
  1 29  1  0
  1 30  1  0
  1 31  1  0
  3 32  1  0
  4 33  1  0
  5 34  1  0
  6 35  1  0
 14 36  1  0
 16 37  1  0
 18 38  1  0
 19 39  1  0
 21 40  1  0
 21 41  1  0
 22 42  1  0
 22 43  1  0
 27 44  1  0
M  CHG  3   8  -1  14  -1  26  -1
M  END
>  <UniqueID>  (93) 
93

>  <SMILES>  (93) 
Cc1ccccc1[N-]C(=O)n1c(C([NH-])=O)cc2ccc(CCS(=O)(=O)[O-])cc21

>  <Energy>  (93) 
83.03880965210202

>  <Genealogy>  (93) 
Cc1ccccc1[N-]C(=O)n1c(C([NH-])=O)cc2ccc(CCS(=O)(=O)[O-])cc21 (protonated)
Cc1ccccc1[N-]C(=O)n1c(C([NH-])=O)cc2ccc(CCS(=O)(=O)[O-])cc21 (3D coordinates assigned)
Cc1ccccc1[N-]C(=O)n1c(C([NH-])=O)cc2ccc(CCS(=O)(=O)[O-])cc21 (optimized conformer: 83.03880965210202 kcal/mol)

>  <smiles>  (93) 
Cc1ccccc1NC(=O)n1c(C(N)=O)cc2ccc(CCS(=O)(=O)O)cc21

>  <score_type>  (93) 
oracle

>  <origin>  (93) 
adg

>  <m_score__min__energy>  (93) 
-12.52

>  <m_primary>  (93) 
energy

$$$$
93:0
     RDKit          3D

 39 41  0  0  0  0  0  0  0  0999 V2000
    1.6730   20.7260  -36.3110 C   0  0  0  0  0  0  0  0  0  0  0  0
    0.8030   21.4950  -35.3710 C   0  0  0  0  0  0  0  0  0  0  0  0
    0.9170   22.7460  -35.2870 O   0  0  0  0  0  0  0  0  0  0  0  0
   -0.1810   20.8190  -34.5930 N   0  0  0  0  0  0  0  0  0  0  0  0
   -1.2260   21.1760  -33.6150 C   0  0  0  0  0  0  0  0  0  0  0  0
   -1.7390   19.7800  -33.4190 C   0  0  0  0  0  0  0  0  0  0  0  0
   -3.2000   19.5030  -33.8580 C   0  0  0  0  0  0  0  0  0  0  0  0
   -4.2690   20.3480  -33.1980 C   0  0  0  0  0  0  0  0  0  0  0  0
   -5.6380   20.0060  -33.3410 C   0  0  0  0  0  0  0  0  0  0  0  0
   -6.6390   20.7720  -32.7200 C   0  0  0  0  0  0  0  0  0  0  0  0
   -6.2430   21.8670  -31.9580 C   0  0  0  0  0  0  0  0  0  0  0  0
   -7.0000   22.7580  -31.2340 C   0  0  0  0  0  0  0  0  0  0  0  0
   -6.0830   23.6360  -30.6550 C   0  0  0  0  0  0  0  0  0  0  0  0
   -6.4700   24.8200  -29.8560 C   0  0  0  0  0  0  0  0  0  0  0  0
   -5.6080   25.3250  -28.8340 N   0  0  0  0  0  0  0  0  0  0  0  0
   -7.5840   25.3770  -30.0480 O   0  0  0  0  0  0  0  0  0  0  0  0
   -4.8100   23.2970  -31.0070 N   0  0  0  0  0  0  0  0  0  0  0  0
   -3.5850   23.9170  -30.5780 C   0  0  0  0  0  0  0  0  0  0  0  0
   -2.5760   23.2140  -30.3080 O   0  0  0  0  0  0  0  0  0  0  0  0
   -3.4990   25.2990  -30.4690 O   0  0  0  0  0  0  0  0  0  0  0  0
   -4.9250   22.2130  -31.8050 C   0  0  0  0  0  0  0  0  0  0  0  0
   -3.9070   21.4530  -32.3940 C   0  0  0  0  0  0  0  0  0  0  0  0
   -0.6550   19.4370  -34.3990 C   0  0  0  0  0  0  0  0  0  0  0  0
    2.3755   20.1051  -35.7356 H   0  0  0  0  0  0  0  0  0  0  0  0
    1.0472   20.0804  -36.9447 H   0  0  0  0  0  0  0  0  0  0  0  0
    2.2369   21.4263  -36.9447 H   0  0  0  0  0  0  0  0  0  0  0  0
   -0.8141   21.6111  -32.6925 H   0  0  0  0  0  0  0  0  0  0  0  0
   -1.9559   21.9416  -33.9168 H   0  0  0  0  0  0  0  0  0  0  0  0
   -1.8512   19.2980  -32.4366 H   0  0  0  0  0  0  0  0  0  0  0  0
   -3.2618   19.6715  -34.9433 H   0  0  0  0  0  0  0  0  0  0  0  0
   -3.4093   18.4688  -33.5471 H   0  0  0  0  0  0  0  0  0  0  0  0
   -5.9194   19.1309  -33.9451 H   0  0  0  0  0  0  0  0  0  0  0  0
   -7.7024   20.5142  -32.8327 H   0  0  0  0  0  0  0  0  0  0  0  0
   -8.0952   22.7749  -31.1329 H   0  0  0  0  0  0  0  0  0  0  0  0
   -5.9070   26.1360  -28.2500 H   0  0  0  0  0  0  0  0  0  0  0  0
   -4.6550   24.9260  -28.6830 H   0  0  0  0  0  0  0  0  0  0  0  0
   -2.8494   21.7100  -32.2347 H   0  0  0  0  0  0  0  0  0  0  0  0
    0.1150   18.7800  -33.9684 H   0  0  0  0  0  0  0  0  0  0  0  0
   -0.9501   18.8764  -35.2983 H   0  0  0  0  0  0  0  0  0  0  0  0
  1  2  1  0
  2  3  2  0
  2  4  1  0
  4  5  1  0
  5  6  1  0
  6  7  1  0
  7  8  1  0
  8  9  2  0
  9 10  1  0
 10 11  2  0
 11 12  1  0
 12 13  2  0
 13 14  1  0
 14 15  1  0
 14 16  2  0
 13 17  1  0
 17 18  1  0
 18 19  2  0
 18 20  1  0
 17 21  1  0
 21 22  2  0
  6 23  1  0
 23  4  1  0
 22  8  1  0
 21 11  1  0
  1 24  1  0
  1 25  1  0
  1 26  1  0
  5 27  1  0
  5 28  1  0
  6 29  1  0
  7 30  1  0
  7 31  1  0
  9 32  1  0
 10 33  1  0
 12 34  1  0
 15 35  1  0
 15 36  1  0
 22 37  1  0
 23 38  1  0
 23 39  1  0
M  CHG  1  20  -1
M  END
>  <UniqueID>  (94) 
94

>  <SMILES>  (94) 
CC(=O)N1CC(Cc2ccc3cc(C(N)=O)n(C(=O)[O-])c3c2)C1

>  <Energy>  (94) 
123.7104272448164

>  <Genealogy>  (94) 
CC(=O)N1CC(Cc2ccc3cc(C(N)=O)n(C(=O)[O-])c3c2)C1 (protonated)
CC(=O)N1CC(Cc2ccc3cc(C(N)=O)n(C(=O)[O-])c3c2)C1 (3D coordinates assigned)
CC(=O)N1CC(Cc2ccc3cc(C(N)=O)n(C(=O)[O-])c3c2)C1 (nonaromatic ring conformer: 123.7104272448164 kcal/mol)

>  <smiles>  (94) 
CC(=O)N1CC(Cc2ccc3cc(C(N)=O)n(C(=O)O)c3c2)C1

>  <score_type>  (94) 
oracle

>  <origin>  (94) 
adg

>  <m_score__min__energy>  (94) 
-9.9900000000000002

>  <m_primary>  (94) 
energy

$$$$
94:0
     RDKit          3D

 38 39  0  0  0  0  0  0  0  0999 V2000
   -3.9840   23.0910  -28.0650 C   0  0  0  0  0  0  0  0  0  0  0  0
   -2.8810   22.6080  -29.0260 C   0  0  0  0  0  0  0  0  0  0  0  0
   -1.4840   22.8920  -28.4390 C   0  0  0  0  0  0  0  0  0  0  0  0
   -3.0340   21.0950  -29.2370 C   0  0  0  0  0  0  0  0  0  0  0  0
   -3.0240   23.2320  -30.3110 O   0  0  0  0  0  0  0  0  0  0  0  0
   -3.7430   22.7300  -31.4060 C   0  0  0  0  0  0  0  0  0  0  0  0
   -3.1450   22.2670  -32.4150 O   0  0  0  0  0  0  0  0  0  0  0  0
   -5.1780   22.7580  -31.3800 N   0  0  0  0  0  0  0  0  0  0  0  0
   -5.9850   23.7380  -30.8810 C   0  0  0  0  0  0  0  0  0  0  0  0
   -5.5290   25.0560  -30.3860 C   0  0  0  0  0  0  0  0  0  0  0  0
   -4.1920   25.5030  -30.6240 N   0  0  0  0  0  0  0  0  0  0  0  0
   -6.3080   25.7860  -29.7200 O   0  0  0  0  0  0  0  0  0  0  0  0
   -7.3240   23.3680  -30.9890 C   0  0  0  0  0  0  0  0  0  0  0  0
   -7.3130   22.1230  -31.5750 C   0  0  0  0  0  0  0  0  0  0  0  0
   -8.3700   21.2870  -31.9200 C   0  0  0  0  0  0  0  0  0  0  0  0
   -8.0660   20.0440  -32.5000 C   0  0  0  0  0  0  0  0  0  0  0  0
   -6.7180   19.6470  -32.7000 C   0  0  0  0  0  0  0  0  0  0  0  0
   -6.4050   18.3270  -33.3560 C   0  0  0  0  0  0  0  0  0  0  0  0
   -6.0840   18.5430  -34.6840 F   0  0  0  0  0  0  0  0  0  0  0  0
   -7.4950   17.4760  -33.2890 F   0  0  0  0  0  0  0  0  0  0  0  0
   -5.3360   17.7100  -32.7290 F   0  0  0  0  0  0  0  0  0  0  0  0
   -5.6730   20.5370  -32.3580 C   0  0  0  0  0  0  0  0  0  0  0  0
   -6.0070   21.7760  -31.8000 C   0  0  0  0  0  0  0  0  0  0  0  0
   -3.6539   22.9465  -27.0257 H   0  0  0  0  0  0  0  0  0  0  0  0
   -4.1826   24.1584  -28.2416 H   0  0  0  0  0  0  0  0  0  0  0  0
   -4.9031   22.5130  -28.2416 H   0  0  0  0  0  0  0  0  0  0  0  0
   -1.5387   22.8809  -27.3404 H   0  0  0  0  0  0  0  0  0  0  0  0
   -0.7793   22.1187  -28.7789 H   0  0  0  0  0  0  0  0  0  0  0  0
   -1.1372   23.8790  -28.7789 H   0  0  0  0  0  0  0  0  0  0  0  0
   -3.0849   20.5919  -28.2601 H   0  0  0  0  0  0  0  0  0  0  0  0
   -3.9570   20.8949  -29.8010 H   0  0  0  0  0  0  0  0  0  0  0  0
   -2.1698   20.7142  -29.8010 H   0  0  0  0  0  0  0  0  0  0  0  0
   -3.5340   24.9530  -31.2180 H   0  0  0  0  0  0  0  0  0  0  0  0
   -3.8690   26.4170  -30.2360 H   0  0  0  0  0  0  0  0  0  0  0  0
   -8.2035   23.9482  -30.6728 H   0  0  0  0  0  0  0  0  0  0  0  0
   -9.4127   21.5901  -31.7440 H   0  0  0  0  0  0  0  0  0  0  0  0
   -8.8818   19.3709  -32.8025 H   0  0  0  0  0  0  0  0  0  0  0  0
   -4.6216   20.2613  -32.5269 H   0  0  0  0  0  0  0  0  0  0  0  0
  1  2  1  0
  2  3  1  0
  2  4  1  0
  2  5  1  0
  5  6  1  0
  6  7  2  0
  6  8  1  0
  8  9  1  0
  9 10  1  0
 10 11  1  0
 10 12  2  0
  9 13  2  0
 13 14  1  0
 14 15  2  0
 15 16  1  0
 16 17  2  0
 17 18  1  0
 18 19  1  0
 18 20  1  0
 18 21  1  0
 17 22  1  0
 22 23  2  0
 23  8  1  0
 23 14  1  0
  1 24  1  0
  1 25  1  0
  1 26  1  0
  3 27  1  0
  3 28  1  0
  3 29  1  0
  4 30  1  0
  4 31  1  0
  4 32  1  0
 11 33  1  0
 11 34  1  0
 13 35  1  0
 15 36  1  0
 16 37  1  0
 22 38  1  0
M  END
>  <UniqueID>  (95) 
95

>  <SMILES>  (95) 
CC(C)(C)OC(=O)n1c(C(N)=O)cc2ccc(C(F)(F)F)cc21

>  <Energy>  (95) 
72.18323240138231

>  <Genealogy>  (95) 
CC(C)(C)OC(=O)n1c(C(N)=O)cc2ccc(C(F)(F)F)cc21 (3D coordinates assigned)
CC(C)(C)OC(=O)n1c(C(N)=O)cc2ccc(C(F)(F)F)cc21 (optimized conformer: 72.18323240138231 kcal/mol)

>  <smiles>  (95) 
CC(C)(C)OC(=O)n1c(C(N)=O)cc2ccc(C(F)(F)F)cc21

>  <score_type>  (95) 
oracle

>  <origin>  (95) 
adg

>  <m_score__min__energy>  (95) 
-8.3100000000000005

>  <m_primary>  (95) 
energy

$$$$
95:0
     RDKit          3D

 29 31  0  0  0  0  0  0  0  0999 V2000
   -1.6430   25.6690  -28.9650 N   0  0  0  0  0  0  0  0  0  0  0  0
   -1.0530   24.4000  -29.2370 C   0  0  0  0  0  0  0  0  0  0  0  0
    0.1150   24.1630  -28.8260 O   0  0  0  0  0  0  0  0  0  0  0  0
   -1.7660   23.3850  -30.0410 C   0  0  0  0  0  0  0  0  0  0  0  0
   -1.1810   22.1900  -30.4540 C   0  0  0  0  0  0  0  0  0  0  0  0
   -2.1260   21.5760  -31.2430 C   0  0  0  0  0  0  0  0  0  0  0  0
   -2.0800   20.3540  -31.9060 C   0  0  0  0  0  0  0  0  0  0  0  0
   -3.2170   19.9510  -32.6250 C   0  0  0  0  0  0  0  0  0  0  0  0
   -4.3810   20.7680  -32.6640 C   0  0  0  0  0  0  0  0  0  0  0  0
   -5.6290   20.3510  -33.4220 C   0  0  0  0  0  0  0  0  0  0  0  0
   -5.9750   18.8810  -33.3290 C   0  0  0  0  0  0  0  0  0  0  0  0
   -7.1630   19.1370  -32.6180 O   0  0  0  0  0  0  0  0  0  0  0  0
   -6.9280   20.5250  -32.6660 C   0  0  0  0  0  0  0  0  0  0  0  0
   -4.3850   22.0010  -31.9750 C   0  0  0  0  0  0  0  0  0  0  0  0
   -3.2320   22.3860  -31.2830 C   0  0  0  0  0  0  0  0  0  0  0  0
   -3.0270   23.5010  -30.5460 N   0  0  0  0  0  0  0  0  0  0  0  0
   -3.9890   24.5370  -30.2890 C   0  0  0  0  0  0  0  0  0  0  0  0
   -3.8630   25.6700  -30.8240 O   0  0  0  0  0  0  0  0  0  0  0  0
   -5.0540   24.3070  -29.4270 O   0  0  0  0  0  0  0  0  0  0  0  0
   -2.6770   25.8030  -29.0180 H   0  0  0  0  0  0  0  0  0  0  0  0
   -0.1772   21.8168  -30.2027 H   0  0  0  0  0  0  0  0  0  0  0  0
   -1.1802   19.7224  -31.8682 H   0  0  0  0  0  0  0  0  0  0  0  0
   -3.2075   18.9924  -33.1644 H   0  0  0  0  0  0  0  0  0  0  0  0
   -5.3932   20.8680  -34.3639 H   0  0  0  0  0  0  0  0  0  0  0  0
   -6.1432   18.4075  -34.3075 H   0  0  0  0  0  0  0  0  0  0  0  0
   -5.2373   18.1866  -32.9005 H   0  0  0  0  0  0  0  0  0  0  0  0
   -7.6924   21.0798  -33.2298 H   0  0  0  0  0  0  0  0  0  0  0  0
   -6.9249   21.0974  -31.7267 H   0  0  0  0  0  0  0  0  0  0  0  0
   -5.2766   22.6453  -31.9825 H   0  0  0  0  0  0  0  0  0  0  0  0
  1  2  1  0
  2  3  2  0
  2  4  1  0
  4  5  2  0
  5  6  1  0
  6  7  2  0
  7  8  1  0
  8  9  2  0
  9 10  1  0
 10 11  1  0
 11 12  1  0
 12 13  1  0
  9 14  1  0
 14 15  2  0
 15 16  1  0
 16 17  1  0
 17 18  2  0
 17 19  1  0
 16  4  1  0
 15  6  1  0
 13 10  1  0
  1 20  1  0
  5 21  1  0
  7 22  1  0
  8 23  1  0
 10 24  1  0
 11 25  1  0
 11 26  1  0
 13 27  1  0
 13 28  1  0
 14 29  1  0
M  CHG  2   1  -1  19  -1
M  END
>  <UniqueID>  (96) 
96

>  <SMILES>  (96) 
[NH-]C(=O)c1cc2ccc(C3COC3)cc2n1C(=O)[O-]

>  <Energy>  (96) 
136.055673472292

>  <Genealogy>  (96) 
[NH-]C(=O)c1cc2ccc(C3COC3)cc2n1C(=O)[O-] (protonated)
[NH-]C(=O)c1cc2ccc(C3COC3)cc2n1C(=O)[O-] (3D coordinates assigned)
[NH-]C(=O)c1cc2ccc(C3COC3)cc2n1C(=O)[O-] (nonaromatic ring conformer: 136.055673472292 kcal/mol)

>  <smiles>  (96) 
NC(=O)c1cc2ccc(C3COC3)cc2n1C(=O)O

>  <score_type>  (96) 
oracle

>  <origin>  (96) 
adg

>  <m_score__min__energy>  (96) 
-10.57

>  <m_primary>  (96) 
energy

$$$$
96:0
     RDKit          3D

 58 60  0  0  0  0  0  0  0  0999 V2000
   -1.6920   16.6960  -33.9190 C   0  0  0  0  0  0  0  0  0  0  0  0
   -2.5310   15.9690  -34.8780 N   0  0  0  0  0  0  0  0  0  0  0  0
   -3.8100   15.5330  -34.2810 C   0  0  0  0  0  0  0  0  0  0  0  0
   -4.7060   16.7170  -33.8350 C   0  0  0  0  0  0  0  0  0  0  0  0
   -4.7700   17.8010  -34.9470 C   0  0  0  0  0  0  0  0  0  0  0  0
   -6.0800   18.6070  -34.9400 C   0  0  0  0  0  0  0  0  0  0  0  0
   -6.6390   18.6770  -33.5840 N   0  0  0  0  0  0  0  0  0  0  0  0
   -6.8310   19.9440  -32.9260 C   0  0  0  0  0  0  0  0  0  0  0  0
   -8.1380   20.3990  -32.6140 C   0  0  0  0  0  0  0  0  0  0  0  0
   -8.3320   21.6250  -31.9560 C   0  0  0  0  0  0  0  0  0  0  0  0
   -7.2070   22.3740  -31.6250 C   0  0  0  0  0  0  0  0  0  0  0  0
   -7.1040   23.5810  -30.9700 C   0  0  0  0  0  0  0  0  0  0  0  0
   -5.7380   23.8510  -30.9020 C   0  0  0  0  0  0  0  0  0  0  0  0
   -5.1820   25.1030  -30.3490 C   0  0  0  0  0  0  0  0  0  0  0  0
   -3.9490   25.6140  -30.8510 N   0  0  0  0  0  0  0  0  0  0  0  0
   -5.7630   25.7100  -29.4110 O   0  0  0  0  0  0  0  0  0  0  0  0
   -5.0240   22.8450  -31.4850 N   0  0  0  0  0  0  0  0  0  0  0  0
   -3.5980   22.7060  -31.5800 C   0  0  0  0  0  0  0  0  0  0  0  0
   -2.8620   23.1260  -30.6480 O   0  0  0  0  0  0  0  0  0  0  0  0
   -3.0470   22.0680  -32.7020 O   0  0  0  0  0  0  0  0  0  0  0  0
   -2.2730   20.8610  -32.7020 C   0  0  0  0  0  0  0  0  0  0  0  0
   -0.7670   21.1850  -32.7370 C   0  0  0  0  0  0  0  0  0  0  0  0
   -2.5880   20.1230  -31.3920 C   0  0  0  0  0  0  0  0  0  0  0  0
   -2.6650   19.9630  -33.8900 C   0  0  0  0  0  0  0  0  0  0  0  0
   -5.9370   21.9530  -31.9250 C   0  0  0  0  0  0  0  0  0  0  0  0
   -5.7150   20.7270  -32.5590 C   0  0  0  0  0  0  0  0  0  0  0  0
   -6.9320   17.4250  -32.8690 C   0  0  0  0  0  0  0  0  0  0  0  0
   -6.1280   16.2490  -33.4500 C   0  0  0  0  0  0  0  0  0  0  0  0
   -1.9947   16.4337  -32.8945 H   0  0  0  0  0  0  0  0  0  0  0  0
   -0.6380   16.4209  -34.0717 H   0  0  0  0  0  0  0  0  0  0  0  0
   -1.8143   17.7785  -34.0717 H   0  0  0  0  0  0  0  0  0  0  0  0
   -1.9930   15.1600  -35.2600 H   0  0  0  0  0  0  0  0  0  0  0  0
   -2.7410   16.6160  -35.6740 H   0  0  0  0  0  0  0  0  0  0  0  0
   -4.3597   14.9387  -35.0257 H   0  0  0  0  0  0  0  0  0  0  0  0
   -3.5700   14.9457  -33.3824 H   0  0  0  0  0  0  0  0  0  0  0  0
   -4.2492   17.1569  -32.9362 H   0  0  0  0  0  0  0  0  0  0  0  0
   -3.9311   18.4979  -34.8032 H   0  0  0  0  0  0  0  0  0  0  0  0
   -4.7156   17.2783  -35.9134 H   0  0  0  0  0  0  0  0  0  0  0  0
   -5.8786   19.6265  -35.3006 H   0  0  0  0  0  0  0  0  0  0  0  0
   -6.8067   18.1065  -35.5967 H   0  0  0  0  0  0  0  0  0  0  0  0
   -9.0084   19.7856  -32.8901 H   0  0  0  0  0  0  0  0  0  0  0  0
   -9.3429   21.9821  -31.7099 H   0  0  0  0  0  0  0  0  0  0  0  0
   -7.9258   24.2010  -30.5824 H   0  0  0  0  0  0  0  0  0  0  0  0
   -3.0360   25.2870  -30.4670 H   0  0  0  0  0  0  0  0  0  0  0  0
   -0.3856   21.2671  -31.7085 H   0  0  0  0  0  0  0  0  0  0  0  0
   -0.2312   20.3816  -33.2637 H   0  0  0  0  0  0  0  0  0  0  0  0
   -0.6090   22.1377  -33.2637 H   0  0  0  0  0  0  0  0  0  0  0  0
   -2.3160   20.7602  -30.5376 H   0  0  0  0  0  0  0  0  0  0  0  0
   -3.6628   19.8927  -31.3502 H   0  0  0  0  0  0  0  0  0  0  0  0
   -2.0107   19.1876  -31.3502 H   0  0  0  0  0  0  0  0  0  0  0  0
   -3.0784   19.0159  -33.5130 H   0  0  0  0  0  0  0  0  0  0  0  0
   -3.4214   20.4751  -34.5028 H   0  0  0  0  0  0  0  0  0  0  0  0
   -1.7752   19.7565  -34.5028 H   0  0  0  0  0  0  0  0  0  0  0  0
   -4.6923   20.3797  -32.7675 H   0  0  0  0  0  0  0  0  0  0  0  0
   -6.6703   17.5486  -31.8078 H   0  0  0  0  0  0  0  0  0  0  0  0
   -8.0034   17.2029  -32.9819 H   0  0  0  0  0  0  0  0  0  0  0  0
   -6.0568   15.4498  -32.6975 H   0  0  0  0  0  0  0  0  0  0  0  0
   -6.6388   15.8724  -34.3485 H   0  0  0  0  0  0  0  0  0  0  0  0
  1  2  1  0
  2  3  1  0
  3  4  1  0
  4  5  1  0
  5  6  1  0
  6  7  1  0
  7  8  1  0
  8  9  2  0
  9 10  1  0
 10 11  2  0
 11 12  1  0
 12 13  2  0
 13 14  1  0
 14 15  1  0
 14 16  2  0
 13 17  1  0
 17 18  1  0
 18 19  2  0
 18 20  1  0
 20 21  1  0
 21 22  1  0
 21 23  1  0
 21 24  1  0
 17 25  1  0
 25 26  2  0
  7 27  1  0
 27 28  1  0
 28  4  1  0
 26  8  1  0
 25 11  1  0
  1 29  1  0
  1 30  1  0
  1 31  1  0
  2 32  1  0
  2 33  1  0
  3 34  1  0
  3 35  1  0
  4 36  1  0
  5 37  1  0
  5 38  1  0
  6 39  1  0
  6 40  1  0
  9 41  1  0
 10 42  1  0
 12 43  1  0
 15 44  1  0
 22 45  1  0
 22 46  1  0
 22 47  1  0
 23 48  1  0
 23 49  1  0
 23 50  1  0
 24 51  1  0
 24 52  1  0
 24 53  1  0
 26 54  1  0
 27 55  1  0
 27 56  1  0
 28 57  1  0
 28 58  1  0
M  CHG  2   2   1  15  -1
M  END
>  <UniqueID>  (97) 
97

>  <SMILES>  (97) 
C[NH2+]CC1CCN(c2ccc3cc(C([NH-])=O)n(C(=O)OC(C)(C)C)c3c2)CC1

>  <Energy>  (97) 
97.63735061594716

>  <Genealogy>  (97) 
C[NH2+]CC1CCN(c2ccc3cc(C([NH-])=O)n(C(=O)OC(C)(C)C)c3c2)CC1 (protonated)
C[NH2+]CC1CCN(c2ccc3cc(C([NH-])=O)n(C(=O)OC(C)(C)C)c3c2)CC1 (3D coordinates assigned)
C[NH2+]CC1CCN(c2ccc3cc(C([NH-])=O)n(C(=O)OC(C)(C)C)c3c2)CC1 (nonaromatic ring conformer: 97.63735061594716 kcal/mol)

>  <smiles>  (97) 
CNCC1CCN(c2ccc3cc(C(N)=O)n(C(=O)OC(C)(C)C)c3c2)CC1

>  <score_type>  (97) 
oracle

>  <origin>  (97) 
adg

>  <m_score__min__energy>  (97) 
-10.77

>  <m_primary>  (97) 
energy

$$$$
97:0
     RDKit          3D

 46 48  0  0  0  0  0  0  0  0999 V2000
   -3.8610   23.7830  -27.8100 C   0  0  0  0  0  0  0  0  0  0  0  0
   -3.5170   22.5820  -28.6760 C   0  0  0  0  0  0  0  0  0  0  0  0
   -2.9430   23.0270  -29.9000 O   0  0  0  0  0  0  0  0  0  0  0  0
   -3.4760   22.6940  -31.1500 C   0  0  0  0  0  0  0  0  0  0  0  0
   -2.7240   22.2670  -32.0680 O   0  0  0  0  0  0  0  0  0  0  0  0
   -4.8870   22.8200  -31.3780 N   0  0  0  0  0  0  0  0  0  0  0  0
   -5.6910   23.8740  -31.0630 C   0  0  0  0  0  0  0  0  0  0  0  0
   -5.2400   25.1930  -30.5730 C   0  0  0  0  0  0  0  0  0  0  0  0
   -3.9150   25.6550  -30.8220 N   0  0  0  0  0  0  0  0  0  0  0  0
   -6.0510   25.9450  -29.9680 O   0  0  0  0  0  0  0  0  0  0  0  0
   -7.0230   23.5760  -31.3410 C   0  0  0  0  0  0  0  0  0  0  0  0
   -7.0110   22.2970  -31.8500 C   0  0  0  0  0  0  0  0  0  0  0  0
   -8.0650   21.4930  -32.2730 C   0  0  0  0  0  0  0  0  0  0  0  0
   -7.7650   20.1940  -32.7180 C   0  0  0  0  0  0  0  0  0  0  0  0
   -6.4270   19.7230  -32.7300 C   0  0  0  0  0  0  0  0  0  0  0  0
   -6.1360   18.3800  -33.1590 N   0  0  0  0  0  0  0  0  0  0  0  0
   -5.8410   17.3360  -32.1730 C   0  0  0  0  0  0  0  0  0  0  0  0
   -5.0540   16.1830  -32.8190 C   0  0  0  0  0  0  0  0  0  0  0  0
   -4.0890   16.6710  -33.8320 N   0  0  0  0  0  0  0  0  0  0  0  0
   -3.0180   17.4790  -33.2150 C   0  0  0  0  0  0  0  0  0  0  0  0
   -4.7460   17.4020  -34.9530 C   0  0  0  0  0  0  0  0  0  0  0  0
   -6.1070   18.0240  -34.5810 C   0  0  0  0  0  0  0  0  0  0  0  0
   -5.3860   20.5690  -32.2830 C   0  0  0  0  0  0  0  0  0  0  0  0
   -5.7110   21.8630  -31.8630 C   0  0  0  0  0  0  0  0  0  0  0  0
   -3.7813   23.5047  -26.7488 H   0  0  0  0  0  0  0  0  0  0  0  0
   -3.1619   24.6040  -28.0273 H   0  0  0  0  0  0  0  0  0  0  0  0
   -4.8887   24.1094  -28.0273 H   0  0  0  0  0  0  0  0  0  0  0  0
   -2.7972   21.9416  -28.1452 H   0  0  0  0  0  0  0  0  0  0  0  0
   -4.4319   22.0091  -28.8876 H   0  0  0  0  0  0  0  0  0  0  0  0
   -3.1010   25.0010  -30.7800 H   0  0  0  0  0  0  0  0  0  0  0  0
   -7.8980   24.2245  -31.1867 H   0  0  0  0  0  0  0  0  0  0  0  0
   -9.1009   21.8626  -32.2595 H   0  0  0  0  0  0  0  0  0  0  0  0
   -8.5766   19.5354  -33.0607 H   0  0  0  0  0  0  0  0  0  0  0  0
   -5.2430   17.7686  -31.3573 H   0  0  0  0  0  0  0  0  0  0  0  0
   -6.7903   16.9405  -31.7828 H   0  0  0  0  0  0  0  0  0  0  0  0
   -4.5031   15.6447  -32.0336 H   0  0  0  0  0  0  0  0  0  0  0  0
   -5.7728   15.5213  -33.3244 H   0  0  0  0  0  0  0  0  0  0  0  0
   -3.6220   15.8240  -34.2380 H   0  0  0  0  0  0  0  0  0  0  0  0
   -3.0980   17.4187  -32.1196 H   0  0  0  0  0  0  0  0  0  0  0  0
   -2.0382   17.0931  -33.5329 H   0  0  0  0  0  0  0  0  0  0  0  0
   -3.1200   18.5271  -33.5329 H   0  0  0  0  0  0  0  0  0  0  0  0
   -4.0744   18.2091  -35.2808 H   0  0  0  0  0  0  0  0  0  0  0  0
   -4.9383   16.6642  -35.7459 H   0  0  0  0  0  0  0  0  0  0  0  0
   -6.2685   18.9294  -35.1844 H   0  0  0  0  0  0  0  0  0  0  0  0
   -6.9010   17.2893  -34.7806 H   0  0  0  0  0  0  0  0  0  0  0  0
   -4.3438   20.2174  -32.2659 H   0  0  0  0  0  0  0  0  0  0  0  0
  1  2  1  0
  2  3  1  0
  3  4  1  0
  4  5  2  0
  4  6  1  0
  6  7  1  0
  7  8  1  0
  8  9  1  0
  8 10  2  0
  7 11  2  0
 11 12  1  0
 12 13  2  0
 13 14  1  0
 14 15  2  0
 15 16  1  0
 16 17  1  0
 17 18  1  0
 18 19  1  0
 19 20  1  0
 19 21  1  0
 21 22  1  0
 15 23  1  0
 23 24  2  0
 24  6  1  0
 24 12  1  0
 22 16  1  0
  1 25  1  0
  1 26  1  0
  1 27  1  0
  2 28  1  0
  2 29  1  0
  9 30  1  0
 11 31  1  0
 13 32  1  0
 14 33  1  0
 17 34  1  0
 17 35  1  0
 18 36  1  0
 18 37  1  0
 19 38  1  0
 20 39  1  0
 20 40  1  0
 20 41  1  0
 21 42  1  0
 21 43  1  0
 22 44  1  0
 22 45  1  0
 23 46  1  0
M  CHG  2   9  -1  19   1
M  END
>  <UniqueID>  (98) 
98

>  <SMILES>  (98) 
CCOC(=O)n1c(C([NH-])=O)cc2ccc(N3CC[NH+](C)CC3)cc21

>  <Energy>  (98) 
92.36210996097883

>  <Genealogy>  (98) 
CCOC(=O)n1c(C([NH-])=O)cc2ccc(N3CC[NH+](C)CC3)cc21 (protonated)
CCOC(=O)n1c(C([NH-])=O)cc2ccc(N3CC[NH+](C)CC3)cc21 (3D coordinates assigned)
CCOC(=O)n1c(C([NH-])=O)cc2ccc(N3CC[NH+](C)CC3)cc21 (nonaromatic ring conformer: 92.36210996097883 kcal/mol)

>  <smiles>  (98) 
CCOC(=O)n1c(C(N)=O)cc2ccc(N3CCN(C)CC3)cc21

>  <score_type>  (98) 
oracle

>  <origin>  (98) 
adg

>  <m_score__min__energy>  (98) 
-9.6600000000000001

>  <m_primary>  (98) 
energy

$$$$
