0:0
     RDKit          3D

 62 66  0  0  0  0  0  0  0  0999 V2000
   -9.4920   21.5520  -30.5900 C   0  0  0  0  0  0  0  0  0  0  0  0
   -8.2180   22.1240  -31.0110 N   0  0  0  0  0  0  0  0  0  0  0  0
   -8.1460   23.1730  -31.9860 C   0  0  0  0  0  0  0  0  0  0  0  0
   -9.2040   23.6190  -32.5150 O   0  0  0  0  0  0  0  0  0  0  0  0
   -6.8040   23.7730  -32.3250 C   0  0  0  0  0  0  0  0  0  0  0  0
   -5.6010   22.9230  -31.8780 C   0  0  0  0  0  0  0  0  0  0  0  0
   -5.1090   23.2680  -30.4660 C   0  0  0  0  0  0  0  0  0  0  0  0
   -3.8170   24.0370  -30.4990 C   0  0  0  0  0  0  0  0  0  0  0  0
   -3.8210   25.2340  -30.8890 O   0  0  0  0  0  0  0  0  0  0  0  0
   -2.5810   23.4190  -30.1060 N   0  0  0  0  0  0  0  0  0  0  0  0
   -1.7140   23.8240  -29.1330 C   0  0  0  0  0  0  0  0  0  0  0  0
   -1.9090   24.9620  -28.2050 C   0  0  0  0  0  0  0  0  0  0  0  0
   -1.5510   26.2910  -28.5720 N   0  0  0  0  0  0  0  0  0  0  0  0
   -2.4250   24.7580  -27.0750 O   0  0  0  0  0  0  0  0  0  0  0  0
   -0.6200   22.9620  -29.0730 C   0  0  0  0  0  0  0  0  0  0  0  0
   -0.8430   22.0160  -30.0470 C   0  0  0  0  0  0  0  0  0  0  0  0
   -0.0820   20.9140  -30.4160 C   0  0  0  0  0  0  0  0  0  0  0  0
   -0.5650   20.0970  -31.4520 C   0  0  0  0  0  0  0  0  0  0  0  0
   -1.7830   20.4000  -32.1230 C   0  0  0  0  0  0  0  0  0  0  0  0
   -2.3140   19.4210  -33.1760 C   0  0  1  0  0  0  0  0  0  0  0  0
   -3.8090   19.2380  -33.0160 C   0  0  0  0  0  0  0  0  0  0  0  0
   -4.3640   18.1200  -32.4740 N   0  0  0  0  0  0  0  0  0  0  0  0
   -5.6720   18.4160  -32.4970 C   0  0  0  0  0  0  0  0  0  0  0  0
   -6.7370   17.6280  -32.0640 C   0  0  0  0  0  0  0  0  0  0  0  0
   -8.0360   18.1590  -32.1930 C   0  0  0  0  0  0  0  0  0  0  0  0
   -8.2320   19.4470  -32.7420 C   0  0  0  0  0  0  0  0  0  0  0  0
   -7.1300   20.2150  -33.1660 C   0  0  0  0  0  0  0  0  0  0  0  0
   -5.8630   19.6540  -33.0240 C   0  0  0  0  0  0  0  0  0  0  0  0
   -4.7040   20.1590  -33.3400 O   0  0  0  0  0  0  0  0  0  0  0  0
   -1.9170   19.9080  -34.6000 C   0  0  0  0  0  0  0  0  0  0  0  0
   -0.7220   19.0300  -35.0410 C   0  0  1  0  0  0  0  0  0  0  0  0
    0.6200   19.7580  -34.8870 C   0  0  0  0  0  0  0  0  0  0  0  0
   -0.7540   17.9010  -34.1860 O   0  0  0  0  0  0  0  0  0  0  0  0
   -1.6310   18.0890  -33.1390 C   0  0  0  0  0  0  0  0  0  0  0  0
   -1.7890   17.2310  -32.2330 O   0  0  0  0  0  0  0  0  0  0  0  0
   -2.5160   21.5470  -31.7170 C   0  0  0  0  0  0  0  0  0  0  0  0
   -2.0280   22.3190  -30.6580 C   0  0  0  0  0  0  0  0  0  0  0  0
   -9.5392   21.5308  -29.4912 H   0  0  0  0  0  0  0  0  0  0  0  0
  -10.3167   22.1663  -30.9806 H   0  0  0  0  0  0  0  0  0  0  0  0
   -9.5809   20.5276  -30.9806 H   0  0  0  0  0  0  0  0  0  0  0  0
   -7.3370   21.7670  -30.5740 H   0  0  0  0  0  0  0  0  0  0  0  0
   -6.7493   23.9011  -33.4161 H   0  0  0  0  0  0  0  0  0  0  0  0
   -6.7373   24.7260  -31.7797 H   0  0  0  0  0  0  0  0  0  0  0  0
   -5.8954   21.8633  -31.8965 H   0  0  0  0  0  0  0  0  0  0  0  0
   -4.7749   23.1343  -32.5730 H   0  0  0  0  0  0  0  0  0  0  0  0
   -5.8734   23.8770  -29.9611 H   0  0  0  0  0  0  0  0  0  0  0  0
   -4.9337   22.3266  -29.9246 H   0  0  0  0  0  0  0  0  0  0  0  0
   -1.2310   26.5160  -29.5410 H   0  0  0  0  0  0  0  0  0  0  0  0
    0.2404   23.0249  -28.3906 H   0  0  0  0  0  0  0  0  0  0  0  0
    0.8695   20.6879  -29.9126 H   0  0  0  0  0  0  0  0  0  0  0  0
    0.0087   19.2070  -31.7499 H   0  0  0  0  0  0  0  0  0  0  0  0
   -6.5697   16.6281  -31.6371 H   0  0  0  0  0  0  0  0  0  0  0  0
   -8.9032   17.5674  -31.8644 H   0  0  0  0  0  0  0  0  0  0  0  0
   -9.2504   19.8515  -32.8385 H   0  0  0  0  0  0  0  0  0  0  0  0
   -7.2649   21.2197  -33.5931 H   0  0  0  0  0  0  0  0  0  0  0  0
   -2.7601   19.7808  -35.2950 H   0  0  0  0  0  0  0  0  0  0  0  0
   -1.6501   20.9751  -34.5979 H   0  0  0  0  0  0  0  0  0  0  0  0
   -0.8076   18.7663  -36.1055 H   0  0  0  0  0  0  0  0  0  0  0  0
    0.8492   19.8823  -33.8183 H   0  0  0  0  0  0  0  0  0  0  0  0
    1.4147   19.1673  -35.3661 H   0  0  0  0  0  0  0  0  0  0  0  0
    0.5582   20.7462  -35.3661 H   0  0  0  0  0  0  0  0  0  0  0  0
   -3.4509   21.8231  -32.2266 H   0  0  0  0  0  0  0  0  0  0  0  0
  1  2  1  0
  2  3  1  0
  3  4  2  0
  3  5  1  0
  5  6  1  0
  6  7  1  0
  7  8  1  0
  8  9  2  0
  8 10  1  0
 10 11  1  0
 11 12  1  0
 12 13  1  0
 12 14  2  0
 11 15  2  0
 15 16  1  0
 16 17  2  0
 17 18  1  0
 18 19  2  0
 20 19  1  1
 20 21  1  0
 21 22  2  0
 22 23  1  0
 23 24  2  0
 24 25  1  0
 25 26  2  0
 26 27  1  0
 27 28  2  0
 28 29  1  0
 20 30  1  0
 30 31  1  0
 31 32  1  0
 31 33  1  0
 33 34  1  0
 34 35  2  0
 19 36  1  0
 36 37  2  0
 37 10  1  0
 37 16  1  0
 34 20  1  0
 29 21  1  0
 28 23  1  0
  1 38  1  0
  1 39  1  0
  1 40  1  0
  2 41  1  0
  5 42  1  0
  5 43  1  0
  6 44  1  0
  6 45  1  0
  7 46  1  0
  7 47  1  0
 13 48  1  0
 15 49  1  0
 17 50  1  0
 18 51  1  0
 24 52  1  0
 25 53  1  0
 26 54  1  0
 27 55  1  0
 30 56  1  0
 30 57  1  0
 31 58  1  6
 32 59  1  0
 32 60  1  0
 32 61  1  0
 36 62  1  0
M  CHG  1  13  -1
M  END
>  <UniqueID>  (1) 
1

>  <SMILES>  (1) 
CNC(=O)CCCC(=O)n1c(C([NH-])=O)cc2ccc([C@@]3(c4nc5ccccc5o4)C[C@@H](C)OC3=O)cc21

>  <Energy>  (1) 
147.5118738491477

>  <Genealogy>  (1) 
CNC(=O)CCCC(=O)n1c(C([NH-])=O)cc2ccc(C3(c4nc5ccccc5o4)CC(C)OC3=O)cc21 (protonated)
CNC(=O)CCCC(=O)n1c(C([NH-])=O)cc2ccc([C@@]3(c4nc5ccccc5o4)C[C@@H](C)OC3=O)cc21 (chirality)
CNC(=O)CCCC(=O)n1c(C([NH-])=O)cc2ccc([C@@]3(c4nc5ccccc5o4)C[C@@H](C)OC3=O)cc21 (3D coordinates assigned)
CNC(=O)CCCC(=O)n1c(C([NH-])=O)cc2ccc([C@@]3(c4nc5ccccc5o4)C[C@@H](C)OC3=O)cc21 (nonaromatic ring conformer: 147.5118738491477 kcal/mol)

>  <smiles>  (1) 
CNC(=O)CCCC(=O)n1c(C(N)=O)cc2ccc(C3(c4nc5ccccc5o4)CC(C)OC3=O)cc21

>  <score_type>  (1) 
oracle

>  <origin>  (1) 
adg

>  <m_score__min__energy>  (1) 
-11.68

>  <m_primary>  (1) 
energy

$$$$
1:0
     RDKit          3D

 36 37  0  0  0  0  0  0  0  0999 V2000
   -3.1250   19.4120  -33.8390 C   0  0  0  0  0  0  0  0  0  0  0  0
   -3.6080   18.1500  -33.1420 C   0  0  0  0  0  0  0  0  0  0  0  0
   -4.7750   17.6630  -33.7950 O   0  0  0  0  0  0  0  0  0  0  0  0
   -5.9310   18.4310  -33.9490 C   0  0  0  0  0  0  0  0  0  0  0  0
   -6.1120   19.1260  -34.9870 O   0  0  0  0  0  0  0  0  0  0  0  0
   -6.9400   18.4630  -32.8460 C   0  0  0  0  0  0  0  0  0  0  0  0
   -7.0940   19.8680  -32.3350 C   0  0  0  0  0  0  0  0  0  0  0  0
   -8.3740   20.4750  -32.2840 C   0  0  0  0  0  0  0  0  0  0  0  0
   -8.5180   21.8060  -31.8610 C   0  0  0  0  0  0  0  0  0  0  0  0
   -7.3690   22.5050  -31.5030 C   0  0  0  0  0  0  0  0  0  0  0  0
   -7.2160   23.8150  -31.1070 C   0  0  0  0  0  0  0  0  0  0  0  0
   -5.8460   23.9850  -30.9160 C   0  0  0  0  0  0  0  0  0  0  0  0
   -5.2430   25.2380  -30.4170 C   0  0  0  0  0  0  0  0  0  0  0  0
   -3.9560   25.6600  -30.8610 N   0  0  0  0  0  0  0  0  0  0  0  0
   -5.8510   25.9220  -29.5520 O   0  0  0  0  0  0  0  0  0  0  0  0
   -5.1780   22.8290  -31.1880 N   0  0  0  0  0  0  0  0  0  0  0  0
   -3.7570   22.6220  -31.2260 C   0  0  0  0  0  0  0  0  0  0  0  0
   -3.2420   21.9690  -32.1740 O   0  0  0  0  0  0  0  0  0  0  0  0
   -2.9490   23.1740  -30.2310 O   0  0  0  0  0  0  0  0  0  0  0  0
   -3.4180   23.1790  -28.5510 S   0  0  0  0  0  0  0  0  0  0  0  0
   -3.0980   24.8590  -28.3870 O   0  0  0  0  0  0  0  0  0  0  0  0
   -6.1250   21.9320  -31.5420 C   0  0  0  0  0  0  0  0  0  0  0  0
   -5.9500   20.6120  -31.9690 C   0  0  0  0  0  0  0  0  0  0  0  0
   -2.8386   20.1604  -33.0854 H   0  0  0  0  0  0  0  0  0  0  0  0
   -2.2547   19.1733  -34.4679 H   0  0  0  0  0  0  0  0  0  0  0  0
   -3.9323   19.8154  -34.4679 H   0  0  0  0  0  0  0  0  0  0  0  0
   -2.8192   17.3844  -33.1822 H   0  0  0  0  0  0  0  0  0  0  0  0
   -3.8444   18.3791  -32.0924 H   0  0  0  0  0  0  0  0  0  0  0  0
   -7.9080   18.1050  -33.2265 H   0  0  0  0  0  0  0  0  0  0  0  0
   -6.6004   17.8141  -32.0253 H   0  0  0  0  0  0  0  0  0  0  0  0
   -9.2628   19.8978  -32.5786 H   0  0  0  0  0  0  0  0  0  0  0  0
   -9.5087   22.2818  -31.8140 H   0  0  0  0  0  0  0  0  0  0  0  0
   -8.0069   24.5672  -30.9705 H   0  0  0  0  0  0  0  0  0  0  0  0
   -3.0860   25.2970  -30.4090 H   0  0  0  0  0  0  0  0  0  0  0  0
   -3.9090   25.3030  -28.7380 H   0  0  0  0  0  0  0  0  0  0  0  0
   -4.9466   20.1640  -32.0187 H   0  0  0  0  0  0  0  0  0  0  0  0
  1  2  1  0
  2  3  1  0
  3  4  1  0
  4  5  2  0
  4  6  1  0
  6  7  1  0
  7  8  2  0
  8  9  1  0
  9 10  2  0
 10 11  1  0
 11 12  2  0
 12 13  1  0
 13 14  1  0
 13 15  2  0
 12 16  1  0
 16 17  1  0
 17 18  2  0
 17 19  1  0
 19 20  1  0
 20 21  1  0
 16 22  1  0
 22 23  2  0
 23  7  1  0
 22 10  1  0
  1 24  1  0
  1 25  1  0
  1 26  1  0
  2 27  1  0
  2 28  1  0
  6 29  1  0
  6 30  1  0
  8 31  1  0
  9 32  1  0
 11 33  1  0
 14 34  1  0
 21 35  1  0
 23 36  1  0
M  CHG  1  14  -1
M  END
>  <UniqueID>  (2) 
2

>  <SMILES>  (2) 
CCOC(=O)Cc1ccc2cc(C([NH-])=O)n(C(=O)OSO)c2c1

>  <Energy>  (2) 
66.34846175331113

>  <Genealogy>  (2) 
CCOC(=O)Cc1ccc2cc(C([NH-])=O)n(C(=O)OSO)c2c1 (protonated)
CCOC(=O)Cc1ccc2cc(C([NH-])=O)n(C(=O)OSO)c2c1 (3D coordinates assigned)
CCOC(=O)Cc1ccc2cc(C([NH-])=O)n(C(=O)OSO)c2c1 (optimized conformer: 66.34846175331113 kcal/mol)

>  <smiles>  (2) 
CCOC(=O)Cc1ccc2cc(C(N)=O)n(C(=O)OSO)c2c1

>  <score_type>  (2) 
oracle

>  <origin>  (2) 
adg

>  <m_score__min__energy>  (2) 
-9.9000000000000004

>  <m_primary>  (2) 
energy

$$$$
2:0
     RDKit          3D

 44 46  0  0  0  0  0  0  0  0999 V2000
   -3.8470   25.1970  -30.2540 N   0  0  0  0  0  0  0  0  0  0  0  0
   -5.0900   24.6310  -29.8300 C   0  0  0  0  0  0  0  0  0  0  0  0
   -5.7780   25.2260  -28.9530 O   0  0  0  0  0  0  0  0  0  0  0  0
   -5.6090   23.4030  -30.4580 C   0  0  0  0  0  0  0  0  0  0  0  0
   -6.9290   23.2700  -30.8710 C   0  0  0  0  0  0  0  0  0  0  0  0
   -6.9980   22.0400  -31.4800 C   0  0  0  0  0  0  0  0  0  0  0  0
   -8.0780   21.4140  -32.0990 C   0  0  0  0  0  0  0  0  0  0  0  0
   -7.8660   20.1540  -32.6840 C   0  0  0  0  0  0  0  0  0  0  0  0
   -6.5900   19.5500  -32.6330 C   0  0  0  0  0  0  0  0  0  0  0  0
   -6.3640   18.3000  -33.3070 C   0  0  0  0  0  0  0  0  0  0  0  0
   -6.1650   17.2690  -33.8990 C   0  0  0  0  0  0  0  0  0  0  0  0
   -5.8950   16.0040  -34.6010 C   0  0  0  0  0  0  0  0  0  0  0  0
   -4.7580   15.2060  -33.9630 C   0  0  0  0  0  0  0  0  0  0  0  0
   -5.7390   14.0990  -33.6050 C   0  0  0  0  0  0  0  0  0  0  0  0
   -6.8750   14.8950  -34.2350 C   0  0  0  0  0  0  0  0  0  0  0  0
   -5.5200   20.1960  -31.9790 C   0  0  0  0  0  0  0  0  0  0  0  0
   -5.7490   21.4650  -31.4130 C   0  0  0  0  0  0  0  0  0  0  0  0
   -4.8800   22.2900  -30.7700 N   0  0  0  0  0  0  0  0  0  0  0  0
   -3.5260   21.9980  -30.3550 C   0  0  0  0  0  0  0  0  0  0  0  0
   -3.1160   20.7960  -30.3400 O   0  0  0  0  0  0  0  0  0  0  0  0
   -2.6410   23.0380  -30.0270 O   0  0  0  0  0  0  0  0  0  0  0  0
   -1.2520   22.8370  -29.7870 C   0  0  0  0  0  0  0  0  0  0  0  0
   -0.7150   23.9090  -29.0170 O   0  0  0  0  0  0  0  0  0  0  0  0
   -1.5070   24.8270  -28.3190 C   0  0  0  0  0  0  0  0  0  0  0  0
   -1.6070   26.0220  -28.7160 O   0  0  0  0  0  0  0  0  0  0  0  0
   -2.1690   24.4050  -27.0430 C   0  0  0  0  0  0  0  0  0  0  0  0
   -2.2630   25.4830  -26.1700 F   0  0  0  0  0  0  0  0  0  0  0  0
   -3.4470   23.9310  -27.3100 F   0  0  0  0  0  0  0  0  0  0  0  0
   -1.4280   23.3950  -26.4500 F   0  0  0  0  0  0  0  0  0  0  0  0
   -3.4870   26.0630  -29.7990 H   0  0  0  0  0  0  0  0  0  0  0  0
   -3.3200   24.8050  -31.0700 H   0  0  0  0  0  0  0  0  0  0  0  0
   -7.7454   23.9952  -30.7386 H   0  0  0  0  0  0  0  0  0  0  0  0
   -9.0681   21.8923  -32.1289 H   0  0  0  0  0  0  0  0  0  0  0  0
   -8.6975   19.6356  -33.1839 H   0  0  0  0  0  0  0  0  0  0  0  0
   -5.8196   16.3607  -35.6388 H   0  0  0  0  0  0  0  0  0  0  0  0
   -3.9726   14.8994  -34.6695 H   0  0  0  0  0  0  0  0  0  0  0  0
   -4.1239   15.6612  -33.1879 H   0  0  0  0  0  0  0  0  0  0  0  0
   -5.5338   13.1398  -34.1028 H   0  0  0  0  0  0  0  0  0  0  0  0
   -5.8196   13.7429  -32.5673 H   0  0  0  0  0  0  0  0  0  0  0  0
   -7.3410   14.4034  -35.1017 H   0  0  0  0  0  0  0  0  0  0  0  0
   -7.7827   15.1226  -33.6569 H   0  0  0  0  0  0  0  0  0  0  0  0
   -4.5306   19.7200  -31.9127 H   0  0  0  0  0  0  0  0  0  0  0  0
   -1.1128   21.8934  -29.2391 H   0  0  0  0  0  0  0  0  0  0  0  0
   -0.7276   22.7974  -30.7532 H   0  0  0  0  0  0  0  0  0  0  0  0
  1  2  1  0
  2  3  2  0
  2  4  1  0
  4  5  2  0
  5  6  1  0
  6  7  2  0
  7  8  1  0
  8  9  2  0
  9 10  1  0
 10 11  3  0
 11 12  1  0
 12 13  1  0
 13 14  1  0
 14 15  1  0
  9 16  1  0
 16 17  2  0
 17 18  1  0
 18 19  1  0
 19 20  2  0
 19 21  1  0
 21 22  1  0
 22 23  1  0
 23 24  1  0
 24 25  2  0
 24 26  1  0
 26 27  1  0
 26 28  1  0
 26 29  1  0
 18  4  1  0
 17  6  1  0
 15 12  1  0
  1 30  1  0
  1 31  1  0
  5 32  1  0
  7 33  1  0
  8 34  1  0
 12 35  1  0
 13 36  1  0
 13 37  1  0
 14 38  1  0
 14 39  1  0
 15 40  1  0
 15 41  1  0
 16 42  1  0
 22 43  1  0
 22 44  1  0
M  END
>  <UniqueID>  (3) 
3

>  <SMILES>  (3) 
NC(=O)c1cc2ccc(C#CC3CCC3)cc2n1C(=O)OCOC(=O)C(F)(F)F

>  <Energy>  (3) 
136.64983956185222

>  <Genealogy>  (3) 
NC(=O)c1cc2ccc(C#CC3CCC3)cc2n1C(=O)OCOC(=O)C(F)(F)F (3D coordinates assigned)
NC(=O)c1cc2ccc(C#CC3CCC3)cc2n1C(=O)OCOC(=O)C(F)(F)F (nonaromatic ring conformer: 136.64983956185222 kcal/mol)

>  <smiles>  (3) 
NC(=O)c1cc2ccc(C#CC3CCC3)cc2n1C(=O)OCOC(=O)C(F)(F)F

>  <score_type>  (3) 
oracle

>  <origin>  (3) 
adg

>  <m_score__min__energy>  (3) 
-8.5700000000000003

>  <m_primary>  (3) 
energy

$$$$
3:0
     RDKit          3D

 30 32  0  0  0  0  0  0  0  0999 V2000
   -3.1460   19.6560  -32.4780 C   0  0  0  0  0  0  0  0  0  0  0  0
   -4.2560   19.3590  -33.4370 C   0  0  0  0  0  0  0  0  0  0  0  0
   -3.9740   18.9330  -34.5890 O   0  0  0  0  0  0  0  0  0  0  0  0
   -5.6300   19.5030  -33.0460 N   0  0  0  0  0  0  0  0  0  0  0  0
   -6.6490   18.6120  -33.2170 C   0  0  0  0  0  0  0  0  0  0  0  0
   -6.5010   17.2280  -33.7180 C   0  0  0  0  0  0  0  0  0  0  0  0
   -5.5700   16.9210  -34.7570 N   0  0  0  0  0  0  0  0  0  0  0  0
   -7.2210   16.3070  -33.2480 O   0  0  0  0  0  0  0  0  0  0  0  0
   -7.8490   19.1530  -32.7590 C   0  0  0  0  0  0  0  0  0  0  0  0
   -7.5300   20.4070  -32.2920 C   0  0  0  0  0  0  0  0  0  0  0  0
   -8.3410   21.3870  -31.7260 C   0  0  0  0  0  0  0  0  0  0  0  0
   -7.7410   22.6010  -31.3480 C   0  0  0  0  0  0  0  0  0  0  0  0
   -6.3520   22.8170  -31.5440 C   0  0  0  0  0  0  0  0  0  0  0  0
   -5.7350   24.1010  -31.1510 C   0  0  0  0  0  0  0  0  0  0  0  0
   -6.4310   25.1590  -30.6870 N   0  0  0  0  0  0  0  0  0  0  0  0
   -5.4580   26.0640  -30.4720 C   0  0  0  0  0  0  0  0  0  0  0  0
   -4.2390   25.5870  -30.7840 N   0  0  0  0  0  0  0  0  0  0  0  0
   -4.4130   24.3490  -31.2120 N   0  0  0  0  0  0  0  0  0  0  0  0
   -5.5630   21.7950  -32.1220 C   0  0  0  0  0  0  0  0  0  0  0  0
   -6.1860   20.5930  -32.4760 C   0  0  0  0  0  0  0  0  0  0  0  0
   -3.5160   19.5570  -31.4468 H   0  0  0  0  0  0  0  0  0  0  0  0
   -2.3209   18.9470  -32.6412 H   0  0  0  0  0  0  0  0  0  0  0  0
   -2.7852   20.6823  -32.6412 H   0  0  0  0  0  0  0  0  0  0  0  0
   -4.9160   17.6410  -35.1310 H   0  0  0  0  0  0  0  0  0  0  0  0
   -5.5020   15.9470  -35.1280 H   0  0  0  0  0  0  0  0  0  0  0  0
   -8.8411   18.6779  -32.7689 H   0  0  0  0  0  0  0  0  0  0  0  0
   -9.4178   21.2167  -31.5791 H   0  0  0  0  0  0  0  0  0  0  0  0
   -8.3555   23.3929  -30.8949 H   0  0  0  0  0  0  0  0  0  0  0  0
   -5.6387   27.0778  -30.0854 H   0  0  0  0  0  0  0  0  0  0  0  0
   -4.4857   21.9416  -32.2892 H   0  0  0  0  0  0  0  0  0  0  0  0
  1  2  1  0
  2  3  2  0
  2  4  1  0
  4  5  1  0
  5  6  1  0
  6  7  1  0
  6  8  2  0
  5  9  2  0
  9 10  1  0
 10 11  2  0
 11 12  1  0
 12 13  2  0
 13 14  1  0
 14 15  2  0
 15 16  1  0
 16 17  2  0
 17 18  1  0
 13 19  1  0
 19 20  2  0
 20  4  1  0
 20 10  1  0
 18 14  1  0
  1 21  1  0
  1 22  1  0
  1 23  1  0
  7 24  1  0
  7 25  1  0
  9 26  1  0
 11 27  1  0
 12 28  1  0
 16 29  1  0
 19 30  1  0
M  CHG  1  18  -1
M  END
>  <UniqueID>  (4) 
4

>  <SMILES>  (4) 
CC(=O)n1c(C(N)=O)cc2ccc(-c3ncn[n-]3)cc21

>  <Energy>  (4) 
103.28764658692106

>  <Genealogy>  (4) 
CC(=O)n1c(C(N)=O)cc2ccc(-c3ncn[n-]3)cc21 (protonated)
CC(=O)n1c(C(N)=O)cc2ccc(-c3ncn[n-]3)cc21 (3D coordinates assigned)
CC(=O)n1c(C(N)=O)cc2ccc(-c3ncn[n-]3)cc21 (optimized conformer: 103.28764658692106 kcal/mol)

>  <smiles>  (4) 
CC(=O)n1c(C(N)=O)cc2ccc(-c3ncn[nH]3)cc21

>  <score_type>  (4) 
oracle

>  <origin>  (4) 
adg

>  <m_score__min__energy>  (4) 
-8.3900000000000006

>  <m_primary>  (4) 
energy

$$$$
4:0
     RDKit          3D

 25 26  0  0  0  0  0  0  0  0999 V2000
   -5.6370   26.4820  -30.1980 N   0  0  0  0  0  0  0  0  0  0  0  0
   -6.4120   25.3120  -29.9340 C   0  0  0  0  0  0  0  0  0  0  0  0
   -7.2330   25.3180  -28.9780 O   0  0  0  0  0  0  0  0  0  0  0  0
   -6.2250   24.0750  -30.7190 C   0  0  0  0  0  0  0  0  0  0  0  0
   -7.2770   23.3590  -31.2810 C   0  0  0  0  0  0  0  0  0  0  0  0
   -6.6950   22.2580  -31.8660 C   0  0  0  0  0  0  0  0  0  0  0  0
   -7.2760   21.2220  -32.5900 C   0  0  0  0  0  0  0  0  0  0  0  0
   -6.4280   20.2370  -33.1240 C   0  0  0  0  0  0  0  0  0  0  0  0
   -5.0260   20.2980  -32.9220 C   0  0  0  0  0  0  0  0  0  0  0  0
   -4.1230   19.2700  -33.5550 C   0  0  0  0  0  0  0  0  0  0  0  0
   -4.8010   18.6400  -34.5810 F   0  0  0  0  0  0  0  0  0  0  0  0
   -3.7310   18.3240  -32.6240 F   0  0  0  0  0  0  0  0  0  0  0  0
   -2.9850   19.8690  -34.0680 F   0  0  0  0  0  0  0  0  0  0  0  0
   -4.4730   21.3820  -32.2010 C   0  0  0  0  0  0  0  0  0  0  0  0
   -5.3410   22.3380  -31.6600 C   0  0  0  0  0  0  0  0  0  0  0  0
   -5.0360   23.4540  -30.9590 N   0  0  0  0  0  0  0  0  0  0  0  0
   -3.7180   23.9370  -30.6440 C   0  0  0  0  0  0  0  0  0  0  0  0
   -2.7570   23.1320  -30.5240 O   0  0  0  0  0  0  0  0  0  0  0  0
   -3.4900   25.2960  -30.4660 O   0  0  0  0  0  0  0  0  0  0  0  0
   -4.8350   26.4560  -30.8650 H   0  0  0  0  0  0  0  0  0  0  0  0
   -5.8100   27.3580  -29.6570 H   0  0  0  0  0  0  0  0  0  0  0  0
   -8.3459   23.6178  -31.2618 H   0  0  0  0  0  0  0  0  0  0  0  0
   -8.3648   21.1753  -32.7397 H   0  0  0  0  0  0  0  0  0  0  0  0
   -6.8573   19.4082  -33.7061 H   0  0  0  0  0  0  0  0  0  0  0  0
   -3.3847   21.4719  -32.0683 H   0  0  0  0  0  0  0  0  0  0  0  0
  1  2  1  0
  2  3  2  0
  2  4  1  0
  4  5  2  0
  5  6  1  0
  6  7  2  0
  7  8  1  0
  8  9  2  0
  9 10  1  0
 10 11  1  0
 10 12  1  0
 10 13  1  0
  9 14  1  0
 14 15  2  0
 15 16  1  0
 16 17  1  0
 17 18  2  0
 17 19  1  0
 16  4  1  0
 15  6  1  0
  1 20  1  0
  1 21  1  0
  5 22  1  0
  7 23  1  0
  8 24  1  0
 14 25  1  0
M  CHG  1  19  -1
M  END
>  <UniqueID>  (5) 
5

>  <SMILES>  (5) 
NC(=O)c1cc2ccc(C(F)(F)F)cc2n1C(=O)[O-]

>  <Energy>  (5) 
66.3474904136985

>  <Genealogy>  (5) 
NC(=O)c1cc2ccc(C(F)(F)F)cc2n1C(=O)[O-] (protonated)
NC(=O)c1cc2ccc(C(F)(F)F)cc2n1C(=O)[O-] (3D coordinates assigned)
NC(=O)c1cc2ccc(C(F)(F)F)cc2n1C(=O)[O-] (optimized conformer: 66.3474904136985 kcal/mol)

>  <smiles>  (5) 
NC(=O)c1cc2ccc(C(F)(F)F)cc2n1C(=O)O

>  <score_type>  (5) 
oracle

>  <origin>  (5) 
adg

>  <m_score__min__energy>  (5) 
-7.8499999999999996

>  <m_primary>  (5) 
energy

$$$$
5:0
     RDKit          3D

 31 32  0  0  0  0  0  0  0  0999 V2000
    1.7160   22.4880  -35.6000 C   0  0  0  0  0  0  0  0  0  0  0  0
    0.3830   22.3150  -35.1330 O   0  0  0  0  0  0  0  0  0  0  0  0
   -0.0720   21.1100  -34.5910 C   0  0  0  0  0  0  0  0  0  0  0  0
   -0.3930   20.1470  -35.3410 O   0  0  0  0  0  0  0  0  0  0  0  0
   -0.2270   20.9810  -33.1100 C   0  0  0  0  0  0  0  0  0  0  0  0
   -1.6760   21.1180  -32.7330 C   0  0  0  0  0  0  0  0  0  0  0  0
   -2.6140   20.1420  -33.1510 C   0  0  0  0  0  0  0  0  0  0  0  0
   -3.9660   20.2490  -32.7900 C   0  0  0  0  0  0  0  0  0  0  0  0
   -4.3460   21.3290  -31.9980 C   0  0  0  0  0  0  0  0  0  0  0  0
   -5.5900   21.6860  -31.5320 C   0  0  0  0  0  0  0  0  0  0  0  0
   -5.3880   22.8520  -30.8000 C   0  0  0  0  0  0  0  0  0  0  0  0
   -6.4640   23.5480  -30.0670 C   0  0  0  0  0  0  0  0  0  0  0  0
   -6.2090   24.7520  -29.3460 N   0  0  0  0  0  0  0  0  0  0  0  0
   -7.6170   23.0390  -30.0320 O   0  0  0  0  0  0  0  0  0  0  0  0
   -4.0730   23.2120  -30.8210 N   0  0  0  0  0  0  0  0  0  0  0  0
   -3.4860   24.4100  -30.2810 C   0  0  0  0  0  0  0  0  0  0  0  0
   -2.6210   24.3390  -29.3690 O   0  0  0  0  0  0  0  0  0  0  0  0
   -3.8670   25.6570  -30.7590 O   0  0  0  0  0  0  0  0  0  0  0  0
   -3.4470   22.2660  -31.5580 C   0  0  0  0  0  0  0  0  0  0  0  0
   -2.0970   22.1960  -31.9220 C   0  0  0  0  0  0  0  0  0  0  0  0
    2.3970   22.5764  -34.7407 H   0  0  0  0  0  0  0  0  0  0  0  0
    2.0063   21.6200  -36.2102 H   0  0  0  0  0  0  0  0  0  0  0  0
    1.7751   23.4014  -36.2102 H   0  0  0  0  0  0  0  0  0  0  0  0
    0.1417   19.9955  -32.7892 H   0  0  0  0  0  0  0  0  0  0  0  0
    0.3525   21.7742  -32.6149 H   0  0  0  0  0  0  0  0  0  0  0  0
   -2.2795   19.2923  -33.7643 H   0  0  0  0  0  0  0  0  0  0  0  0
   -4.7025   19.5027  -33.1225 H   0  0  0  0  0  0  0  0  0  0  0  0
   -6.5418   21.1614  -31.7019 H   0  0  0  0  0  0  0  0  0  0  0  0
   -5.2360   25.1060  -29.2140 H   0  0  0  0  0  0  0  0  0  0  0  0
   -6.9910   25.2510  -28.8650 H   0  0  0  0  0  0  0  0  0  0  0  0
   -1.3819   22.9609  -31.5852 H   0  0  0  0  0  0  0  0  0  0  0  0
  1  2  1  0
  2  3  1  0
  3  4  2  0
  3  5  1  0
  5  6  1  0
  6  7  2  0
  7  8  1  0
  8  9  2  0
  9 10  1  0
 10 11  2  0
 11 12  1  0
 12 13  1  0
 12 14  2  0
 11 15  1  0
 15 16  1  0
 16 17  2  0
 16 18  1  0
 15 19  1  0
 19 20  2  0
 20  6  1  0
 19  9  1  0
  1 21  1  0
  1 22  1  0
  1 23  1  0
  5 24  1  0
  5 25  1  0
  7 26  1  0
  8 27  1  0
 10 28  1  0
 13 29  1  0
 13 30  1  0
 20 31  1  0
M  CHG  1  18  -1
M  END
>  <UniqueID>  (6) 
6

>  <SMILES>  (6) 
COC(=O)Cc1ccc2cc(C(N)=O)n(C(=O)[O-])c2c1

>  <Energy>  (6) 
67.26250051594401

>  <Genealogy>  (6) 
COC(=O)Cc1ccc2cc(C(N)=O)n(C(=O)[O-])c2c1 (protonated)
COC(=O)Cc1ccc2cc(C(N)=O)n(C(=O)[O-])c2c1 (3D coordinates assigned)
COC(=O)Cc1ccc2cc(C(N)=O)n(C(=O)[O-])c2c1 (optimized conformer: 67.26250051594401 kcal/mol)

>  <smiles>  (6) 
COC(=O)Cc1ccc2cc(C(N)=O)n(C(=O)O)c2c1

>  <score_type>  (6) 
oracle

>  <origin>  (6) 
adg

>  <m_score__min__energy>  (6) 
-8.2300000000000004

>  <m_primary>  (6) 
energy

$$$$
6:0
     RDKit          3D

 25 26  0  0  0  0  0  0  0  0999 V2000
   -5.5040   26.4880  -30.3780 N   0  0  0  0  0  0  0  0  0  0  0  0
   -6.3430   25.4080  -29.9700 C   0  0  0  0  0  0  0  0  0  0  0  0
   -7.1450   25.5780  -29.0120 O   0  0  0  0  0  0  0  0  0  0  0  0
   -6.3380   24.1200  -30.6900 C   0  0  0  0  0  0  0  0  0  0  0  0
   -7.4980   23.4470  -31.0630 C   0  0  0  0  0  0  0  0  0  0  0  0
   -7.0690   22.3430  -31.7610 C   0  0  0  0  0  0  0  0  0  0  0  0
   -7.8040   21.3150  -32.3440 C   0  0  0  0  0  0  0  0  0  0  0  0
   -7.0990   20.2730  -32.9680 C   0  0  0  0  0  0  0  0  0  0  0  0
   -5.6820   20.2780  -32.9990 C   0  0  0  0  0  0  0  0  0  0  0  0
   -4.9400   19.1340  -33.6240 C   0  0  0  0  0  0  0  0  0  0  0  0
   -5.3280   17.6230  -32.7650 Cl  0  0  0  0  0  0  0  0  0  0  0  0
   -4.9700   21.3300  -32.3830 C   0  0  0  0  0  0  0  0  0  0  0  0
   -5.6970   22.3670  -31.7850 C   0  0  0  0  0  0  0  0  0  0  0  0
   -5.2320   23.4540  -31.1270 N   0  0  0  0  0  0  0  0  0  0  0  0
   -3.8580   23.7640  -30.8360 C   0  0  0  0  0  0  0  0  0  0  0  0
   -2.9790   22.8640  -30.8740 O   0  0  0  0  0  0  0  0  0  0  0  0
   -3.4870   25.0610  -30.5040 O   0  0  0  0  0  0  0  0  0  0  0  0
   -5.4940   27.3790  -29.8360 H   0  0  0  0  0  0  0  0  0  0  0  0
   -4.9520   26.4360  -31.2640 H   0  0  0  0  0  0  0  0  0  0  0  0
   -8.5366   23.7368  -30.8456 H   0  0  0  0  0  0  0  0  0  0  0  0
   -8.9037   21.3186  -32.3169 H   0  0  0  0  0  0  0  0  0  0  0  0
   -7.6515   19.4455  -33.4369 H   0  0  0  0  0  0  0  0  0  0  0  0
   -5.2352   19.0403  -34.6795 H   0  0  0  0  0  0  0  0  0  0  0  0
   -3.8583   19.3226  -33.5572 H   0  0  0  0  0  0  0  0  0  0  0  0
   -3.8701   21.3351  -32.3729 H   0  0  0  0  0  0  0  0  0  0  0  0
  1  2  1  0
  2  3  2  0
  2  4  1  0
  4  5  2  0
  5  6  1  0
  6  7  2  0
  7  8  1  0
  8  9  2  0
  9 10  1  0
 10 11  1  0
  9 12  1  0
 12 13  2  0
 13 14  1  0
 14 15  1  0
 15 16  2  0
 15 17  1  0
 14  4  1  0
 13  6  1  0
  1 18  1  0
  1 19  1  0
  5 20  1  0
  7 21  1  0
  8 22  1  0
 10 23  1  0
 10 24  1  0
 12 25  1  0
M  CHG  1  17  -1
M  END
>  <UniqueID>  (7) 
7

>  <SMILES>  (7) 
NC(=O)c1cc2ccc(CCl)cc2n1C(=O)[O-]

>  <Energy>  (7) 
64.53701029563393

>  <Genealogy>  (7) 
NC(=O)c1cc2ccc(CCl)cc2n1C(=O)[O-] (protonated)
NC(=O)c1cc2ccc(CCl)cc2n1C(=O)[O-] (3D coordinates assigned)
NC(=O)c1cc2ccc(CCl)cc2n1C(=O)[O-] (optimized conformer: 64.53701029563393 kcal/mol)

>  <smiles>  (7) 
NC(=O)c1cc2ccc(CCl)cc2n1C(=O)O

>  <score_type>  (7) 
oracle

>  <origin>  (7) 
adg

>  <m_score__min__energy>  (7) 
-8.3499999999999996

>  <m_primary>  (7) 
energy

$$$$
7:0
     RDKit          3D

 38 39  0  0  0  0  0  0  0  0999 V2000
   -4.5320   23.2120  -29.6570 C   0  0  0  0  0  0  0  0  0  0  0  0
   -5.0260   24.4960  -30.3470 C   0  0  0  0  0  0  0  0  0  0  0  0
   -5.8740   25.2980  -29.3400 C   0  0  0  0  0  0  0  0  0  0  0  0
   -3.9020   25.2610  -30.7100 O   0  0  0  0  0  0  0  0  0  0  0  0
   -5.8980   24.1630  -31.5950 C   0  0  0  0  0  0  0  0  0  0  0  0
   -7.3470   23.7190  -31.3060 C   0  0  0  0  0  0  0  0  0  0  0  0
   -7.6000   22.2760  -31.6620 C   0  0  0  0  0  0  0  0  0  0  0  0
   -8.8970   21.7230  -31.5160 C   0  0  0  0  0  0  0  0  0  0  0  0
   -9.1360   20.3710  -31.8110 C   0  0  0  0  0  0  0  0  0  0  0  0
   -8.0660   19.6030  -32.2590 C   0  0  0  0  0  0  0  0  0  0  0  0
   -8.0120   18.2650  -32.5770 C   0  0  0  0  0  0  0  0  0  0  0  0
   -6.6910   18.0280  -32.9430 C   0  0  0  0  0  0  0  0  0  0  0  0
   -6.2050   16.7190  -33.4220 C   0  0  0  0  0  0  0  0  0  0  0  0
   -5.1330   16.0420  -32.7650 N   0  0  0  0  0  0  0  0  0  0  0  0
   -6.7060   16.2150  -34.4630 O   0  0  0  0  0  0  0  0  0  0  0  0
   -5.9490   19.1670  -32.8440 N   0  0  0  0  0  0  0  0  0  0  0  0
   -4.5270   19.2950  -33.0080 C   0  0  0  0  0  0  0  0  0  0  0  0
   -3.7620   18.3340  -32.7290 O   0  0  0  0  0  0  0  0  0  0  0  0
   -3.9810   20.4790  -33.4870 O   0  0  0  0  0  0  0  0  0  0  0  0
   -6.8090   20.1250  -32.4270 C   0  0  0  0  0  0  0  0  0  0  0  0
   -6.5400   21.4650  -32.1220 C   0  0  0  0  0  0  0  0  0  0  0  0
   -4.5813   23.3400  -28.5656 H   0  0  0  0  0  0  0  0  0  0  0  0
   -5.1691   22.3666  -29.9561 H   0  0  0  0  0  0  0  0  0  0  0  0
   -3.4926   23.0116  -29.9561 H   0  0  0  0  0  0  0  0  0  0  0  0
   -5.5835   25.0233  -28.3152 H   0  0  0  0  0  0  0  0  0  0  0  0
   -5.7047   26.3741  -29.4931 H   0  0  0  0  0  0  0  0  0  0  0  0
   -6.9389   25.0690  -29.4931 H   0  0  0  0  0  0  0  0  0  0  0  0
   -4.0860   25.6770  -31.5930 H   0  0  0  0  0  0  0  0  0  0  0  0
   -5.9409   25.0630  -32.2260 H   0  0  0  0  0  0  0  0  0  0  0  0
   -5.4128   23.3006  -32.0754 H   0  0  0  0  0  0  0  0  0  0  0  0
   -7.5491   23.8566  -30.2335 H   0  0  0  0  0  0  0  0  0  0  0  0
   -8.0117   24.3346  -31.9299 H   0  0  0  0  0  0  0  0  0  0  0  0
   -9.7243   22.3591  -31.1682 H   0  0  0  0  0  0  0  0  0  0  0  0
  -10.1379   19.9329  -31.6916 H   0  0  0  0  0  0  0  0  0  0  0  0
   -8.8372   17.5382  -32.5479 H   0  0  0  0  0  0  0  0  0  0  0  0
   -4.5880   16.5060  -32.0060 H   0  0  0  0  0  0  0  0  0  0  0  0
   -4.8220   15.1030  -33.0990 H   0  0  0  0  0  0  0  0  0  0  0  0
   -5.5263   21.8761  -32.2382 H   0  0  0  0  0  0  0  0  0  0  0  0
  1  2  1  0
  2  3  1  0
  2  4  1  0
  2  5  1  0
  5  6  1  0
  6  7  1  0
  7  8  2  0
  8  9  1  0
  9 10  2  0
 10 11  1  0
 11 12  2  0
 12 13  1  0
 13 14  1  0
 13 15  2  0
 12 16  1  0
 16 17  1  0
 17 18  2  0
 17 19  1  0
 16 20  1  0
 20 21  2  0
 21  7  1  0
 20 10  1  0
  1 22  1  0
  1 23  1  0
  1 24  1  0
  3 25  1  0
  3 26  1  0
  3 27  1  0
  4 28  1  0
  5 29  1  0
  5 30  1  0
  6 31  1  0
  6 32  1  0
  8 33  1  0
  9 34  1  0
 11 35  1  0
 14 36  1  0
 14 37  1  0
 21 38  1  0
M  CHG  1  19  -1
M  END
>  <UniqueID>  (8) 
8

>  <SMILES>  (8) 
CC(C)(O)CCc1ccc2cc(C(N)=O)n(C(=O)[O-])c2c1

>  <Energy>  (8) 
73.57806816776548

>  <Genealogy>  (8) 
CC(C)(O)CCc1ccc2cc(C(N)=O)n(C(=O)[O-])c2c1 (protonated)
CC(C)(O)CCc1ccc2cc(C(N)=O)n(C(=O)[O-])c2c1 (3D coordinates assigned)
CC(C)(O)CCc1ccc2cc(C(N)=O)n(C(=O)[O-])c2c1 (optimized conformer: 73.57806816776548 kcal/mol)

>  <smiles>  (8) 
CC(C)(O)CCc1ccc2cc(C(N)=O)n(C(=O)O)c2c1

>  <score_type>  (8) 
oracle

>  <origin>  (8) 
adg

>  <m_score__min__energy>  (8) 
-9.0800000000000001

>  <m_primary>  (8) 
energy

$$$$
8:0
     RDKit          3D

 44 45  0  0  0  0  0  0  0  0999 V2000
   -3.9110   24.1360  -28.0260 C   0  0  0  0  0  0  0  0  0  0  0  0
   -2.8420   23.7990  -29.0530 C   0  0  0  0  0  0  0  0  0  0  0  0
   -3.3190   24.1220  -30.3550 O   0  0  0  0  0  0  0  0  0  0  0  0
   -3.7710   23.1550  -31.2570 C   0  0  0  0  0  0  0  0  0  0  0  0
   -2.9440   22.4670  -31.9180 O   0  0  0  0  0  0  0  0  0  0  0  0
   -5.1810   22.9460  -31.4360 N   0  0  0  0  0  0  0  0  0  0  0  0
   -6.1980   23.7590  -31.0330 C   0  0  0  0  0  0  0  0  0  0  0  0
   -6.0500   25.1130  -30.4640 C   0  0  0  0  0  0  0  0  0  0  0  0
   -4.9410   25.9440  -30.8090 N   0  0  0  0  0  0  0  0  0  0  0  0
   -6.9470   25.5650  -29.7030 O   0  0  0  0  0  0  0  0  0  0  0  0
   -7.4310   23.1620  -31.2800 C   0  0  0  0  0  0  0  0  0  0  0  0
   -7.1390   21.9520  -31.8640 C   0  0  0  0  0  0  0  0  0  0  0  0
   -7.9890   20.9500  -32.3110 C   0  0  0  0  0  0  0  0  0  0  0  0
   -7.4130   19.7880  -32.8480 C   0  0  0  0  0  0  0  0  0  0  0  0
   -5.9990   19.6230  -32.9110 C   0  0  0  0  0  0  0  0  0  0  0  0
   -5.4230   18.3380  -33.5340 C   0  0  0  0  0  0  0  0  0  0  0  0
   -5.7560   18.3430  -35.0410 C   0  0  0  0  0  0  0  0  0  0  0  0
   -3.8900   18.2150  -33.3790 C   0  0  0  0  0  0  0  0  0  0  0  0
   -6.0370   17.1260  -32.8540 C   0  0  0  0  0  0  0  0  0  0  0  0
   -7.2440   16.8330  -33.0770 O   0  0  0  0  0  0  0  0  0  0  0  0
   -5.2830   16.3570  -31.9590 O   0  0  0  0  0  0  0  0  0  0  0  0
   -4.6620   15.1340  -32.3360 C   0  0  0  0  0  0  0  0  0  0  0  0
   -5.1720   20.6850  -32.4530 C   0  0  0  0  0  0  0  0  0  0  0  0
   -5.7750   21.8420  -31.9460 C   0  0  0  0  0  0  0  0  0  0  0  0
   -3.5006   24.0066  -27.0136 H   0  0  0  0  0  0  0  0  0  0  0  0
   -4.2329   25.1792  -28.1606 H   0  0  0  0  0  0  0  0  0  0  0  0
   -4.7730   23.4660  -28.1606 H   0  0  0  0  0  0  0  0  0  0  0  0
   -1.9326   24.3803  -28.8406 H   0  0  0  0  0  0  0  0  0  0  0  0
   -2.6095   22.7250  -29.0027 H   0  0  0  0  0  0  0  0  0  0  0  0
   -4.8320   26.8830  -30.3660 H   0  0  0  0  0  0  0  0  0  0  0  0
   -4.2760   25.6690  -31.5650 H   0  0  0  0  0  0  0  0  0  0  0  0
   -8.4271   23.5712  -31.0557 H   0  0  0  0  0  0  0  0  0  0  0  0
   -9.0813   21.0631  -32.2464 H   0  0  0  0  0  0  0  0  0  0  0  0
   -8.0663   18.9887  -33.2278 H   0  0  0  0  0  0  0  0  0  0  0  0
   -6.8477   18.3594  -35.1752 H   0  0  0  0  0  0  0  0  0  0  0  0
   -5.3154   19.2346  -35.5109 H   0  0  0  0  0  0  0  0  0  0  0  0
   -5.3423   17.4385  -35.5109 H   0  0  0  0  0  0  0  0  0  0  0  0
   -3.6300   18.1941  -32.3104 H   0  0  0  0  0  0  0  0  0  0  0  0
   -3.5463   17.2864  -33.8582 H   0  0  0  0  0  0  0  0  0  0  0  0
   -3.4027   19.0769  -33.8582 H   0  0  0  0  0  0  0  0  0  0  0  0
   -4.3775   14.5737  -31.4332 H   0  0  0  0  0  0  0  0  0  0  0  0
   -5.3650   14.5347  -32.9332 H   0  0  0  0  0  0  0  0  0  0  0  0
   -3.7633   15.3479  -32.9332 H   0  0  0  0  0  0  0  0  0  0  0  0
   -4.0762   20.5988  -32.4964 H   0  0  0  0  0  0  0  0  0  0  0  0
  1  2  1  0
  2  3  1  0
  3  4  1  0
  4  5  2  0
  4  6  1  0
  6  7  1  0
  7  8  1  0
  8  9  1  0
  8 10  2  0
  7 11  2  0
 11 12  1  0
 12 13  2  0
 13 14  1  0
 14 15  2  0
 15 16  1  0
 16 17  1  0
 16 18  1  0
 16 19  1  0
 19 20  2  0
 19 21  1  0
 21 22  1  0
 15 23  1  0
 23 24  2  0
 24  6  1  0
 24 12  1  0
  1 25  1  0
  1 26  1  0
  1 27  1  0
  2 28  1  0
  2 29  1  0
  9 30  1  0
  9 31  1  0
 11 32  1  0
 13 33  1  0
 14 34  1  0
 17 35  1  0
 17 36  1  0
 17 37  1  0
 18 38  1  0
 18 39  1  0
 18 40  1  0
 22 41  1  0
 22 42  1  0
 22 43  1  0
 23 44  1  0
M  END
>  <UniqueID>  (9) 
9

>  <SMILES>  (9) 
CCOC(=O)n1c(C(N)=O)cc2ccc(C(C)(C)C(=O)OC)cc21

>  <Energy>  (9) 
78.43242352857484

>  <Genealogy>  (9) 
CCOC(=O)n1c(C(N)=O)cc2ccc(C(C)(C)C(=O)OC)cc21 (3D coordinates assigned)
CCOC(=O)n1c(C(N)=O)cc2ccc(C(C)(C)C(=O)OC)cc21 (optimized conformer: 78.43242352857484 kcal/mol)

>  <smiles>  (9) 
CCOC(=O)n1c(C(N)=O)cc2ccc(C(C)(C)C(=O)OC)cc21

>  <score_type>  (9) 
oracle

>  <origin>  (9) 
adg

>  <m_score__min__energy>  (9) 
-8.3000000000000007

>  <m_primary>  (9) 
energy

$$$$
9:0
     RDKit          3D

 37 38  0  0  0  0  0  0  0  0999 V2000
   -3.6160   16.7470  -34.3540 C   0  0  0  0  0  0  0  0  0  0  0  0
   -4.1990   17.8950  -33.7530 O   0  0  0  0  0  0  0  0  0  0  0  0
   -5.5670   18.1720  -33.8290 C   0  0  0  0  0  0  0  0  0  0  0  0
   -6.0920   18.5310  -34.9190 O   0  0  0  0  0  0  0  0  0  0  0  0
   -6.4250   17.9840  -32.6160 C   0  0  0  0  0  0  0  0  0  0  0  0
   -7.7690   18.7070  -32.7600 C   0  0  0  0  0  0  0  0  0  0  0  0
   -7.7130   20.1070  -32.2040 C   0  0  0  0  0  0  0  0  0  0  0  0
   -8.8640   20.6860  -31.6110 C   0  0  0  0  0  0  0  0  0  0  0  0
   -8.8060   21.9660  -31.0380 C   0  0  0  0  0  0  0  0  0  0  0  0
   -7.5900   22.6430  -31.0740 C   0  0  0  0  0  0  0  0  0  0  0  0
   -7.2490   23.8760  -30.5670 C   0  0  0  0  0  0  0  0  0  0  0  0
   -5.8990   24.0410  -30.8730 C   0  0  0  0  0  0  0  0  0  0  0  0
   -5.1450   25.2770  -30.5790 C   0  0  0  0  0  0  0  0  0  0  0  0
   -3.7300   25.2530  -30.4150 N   0  0  0  0  0  0  0  0  0  0  0  0
   -5.7540   26.3790  -30.5210 O   0  0  0  0  0  0  0  0  0  0  0  0
   -5.4230   22.9480  -31.5350 N   0  0  0  0  0  0  0  0  0  0  0  0
   -4.0720   22.6850  -31.9470 C   0  0  0  0  0  0  0  0  0  0  0  0
   -3.1190   22.8750  -31.1430 O   0  0  0  0  0  0  0  0  0  0  0  0
   -3.8220   22.1960  -33.2330 O   0  0  0  0  0  0  0  0  0  0  0  0
   -3.1860   20.9470  -33.4690 C   0  0  0  0  0  0  0  0  0  0  0  0
   -6.4700   22.1040  -31.6540 C   0  0  0  0  0  0  0  0  0  0  0  0
   -6.4950   20.8220  -32.2150 C   0  0  0  0  0  0  0  0  0  0  0  0
   -3.2669   16.0596  -33.5693 H   0  0  0  0  0  0  0  0  0  0  0  0
   -4.3657   16.2396  -34.9790 H   0  0  0  0  0  0  0  0  0  0  0  0
   -2.7641   17.0530  -34.9790 H   0  0  0  0  0  0  0  0  0  0  0  0
   -6.6109   16.9093  -32.4730 H   0  0  0  0  0  0  0  0  0  0  0  0
   -5.8959   18.4089  -31.7502 H   0  0  0  0  0  0  0  0  0  0  0  0
   -8.0338   18.7576  -33.8265 H   0  0  0  0  0  0  0  0  0  0  0  0
   -8.5236   18.1431  -32.1920 H   0  0  0  0  0  0  0  0  0  0  0  0
   -9.8111   20.1266  -31.6001 H   0  0  0  0  0  0  0  0  0  0  0  0
   -9.6942   22.4204  -30.5746 H   0  0  0  0  0  0  0  0  0  0  0  0
   -7.9028   24.5816  -30.0335 H   0  0  0  0  0  0  0  0  0  0  0  0
   -3.1000   25.0320  -31.2170 H   0  0  0  0  0  0  0  0  0  0  0  0
   -2.9438   20.4713  -32.5072 H   0  0  0  0  0  0  0  0  0  0  0  0
   -3.8614   20.2940  -34.0412 H   0  0  0  0  0  0  0  0  0  0  0  0
   -2.2606   21.1091  -34.0412 H   0  0  0  0  0  0  0  0  0  0  0  0
   -5.5876   20.3817  -32.6541 H   0  0  0  0  0  0  0  0  0  0  0  0
  1  2  1  0
  2  3  1  0
  3  4  2  0
  3  5  1  0
  5  6  1  0
  6  7  1  0
  7  8  2  0
  8  9  1  0
  9 10  2  0
 10 11  1  0
 11 12  2  0
 12 13  1  0
 13 14  1  0
 13 15  2  0
 12 16  1  0
 16 17  1  0
 17 18  2  0
 17 19  1  0
 19 20  1  0
 16 21  1  0
 21 22  2  0
 22  7  1  0
 21 10  1  0
  1 23  1  0
  1 24  1  0
  1 25  1  0
  5 26  1  0
  5 27  1  0
  6 28  1  0
  6 29  1  0
  8 30  1  0
  9 31  1  0
 11 32  1  0
 14 33  1  0
 20 34  1  0
 20 35  1  0
 20 36  1  0
 22 37  1  0
M  CHG  1  14  -1
M  END
>  <UniqueID>  (10) 
10

>  <SMILES>  (10) 
COC(=O)CCc1ccc2cc(C([NH-])=O)n(C(=O)OC)c2c1

>  <Energy>  (10) 
67.76434390864327

>  <Genealogy>  (10) 
COC(=O)CCc1ccc2cc(C([NH-])=O)n(C(=O)OC)c2c1 (protonated)
COC(=O)CCc1ccc2cc(C([NH-])=O)n(C(=O)OC)c2c1 (3D coordinates assigned)
COC(=O)CCc1ccc2cc(C([NH-])=O)n(C(=O)OC)c2c1 (optimized conformer: 67.76434390864327 kcal/mol)

>  <smiles>  (10) 
COC(=O)CCc1ccc2cc(C(N)=O)n(C(=O)OC)c2c1

>  <score_type>  (10) 
oracle

>  <origin>  (10) 
adg

>  <m_score__min__energy>  (10) 
-9.8399999999999999

>  <m_primary>  (10) 
energy

$$$$
10:0
     RDKit          3D

 38 40  0  0  0  0  0  0  0  0999 V2000
   -6.4710   16.2780  -33.8550 C   0  0  0  0  0  0  0  0  0  0  0  0
   -6.5940   17.6950  -33.3660 C   0  0  0  0  0  0  0  0  0  0  0  0
   -5.8870   18.7000  -33.9400 C   0  0  0  0  0  0  0  0  0  0  0  0
   -4.9830   18.4620  -34.9800 O   0  0  0  0  0  0  0  0  0  0  0  0
   -6.0130   20.1290  -33.4600 C   0  0  2  0  0  0  0  0  0  0  0  0
   -4.7500   20.5680  -32.7420 C   0  0  0  0  0  0  0  0  0  0  0  0
   -3.5890   19.7470  -32.7340 C   0  0  0  0  0  0  0  0  0  0  0  0
   -2.4270   20.1510  -32.0560 C   0  0  0  0  0  0  0  0  0  0  0  0
   -2.4550   21.3670  -31.3820 C   0  0  0  0  0  0  0  0  0  0  0  0
   -1.4660   22.0040  -30.6690 C   0  0  0  0  0  0  0  0  0  0  0  0
   -2.0410   23.1890  -30.2170 C   0  0  0  0  0  0  0  0  0  0  0  0
   -1.3440   24.1430  -29.3290 C   0  0  0  0  0  0  0  0  0  0  0  0
   -1.9400   25.3880  -28.9760 N   0  0  0  0  0  0  0  0  0  0  0  0
   -0.2260   23.8330  -28.8370 O   0  0  0  0  0  0  0  0  0  0  0  0
   -3.3340   23.2860  -30.6420 N   0  0  0  0  0  0  0  0  0  0  0  0
   -4.2420   24.3850  -30.4630 C   0  0  0  0  0  0  0  0  0  0  0  0
   -5.3640   24.2010  -29.9210 O   0  0  0  0  0  0  0  0  0  0  0  0
   -3.8810   25.6650  -30.8620 O   0  0  0  0  0  0  0  0  0  0  0  0
   -3.5720   22.1600  -31.3520 C   0  0  0  0  0  0  0  0  0  0  0  0
   -4.7370   21.7930  -32.0340 C   0  0  0  0  0  0  0  0  0  0  0  0
   -7.2510   20.3380  -32.5730 C   0  0  0  0  0  0  0  0  0  0  0  0
   -7.3540   19.2510  -31.5980 N   0  0  0  0  0  0  0  0  0  0  0  0
   -7.6190   17.9830  -32.2880 C   0  0  0  0  0  0  0  0  0  0  0  0
   -6.4119   15.5966  -32.9935 H   0  0  0  0  0  0  0  0  0  0  0  0
   -7.3504   16.0228  -34.4646 H   0  0  0  0  0  0  0  0  0  0  0  0
   -5.5608   16.1782  -34.4646 H   0  0  0  0  0  0  0  0  0  0  0  0
   -4.1180   17.9490  -34.8690 H   0  0  0  0  0  0  0  0  0  0  0  0
   -6.1469   20.7604  -34.3507 H   0  0  0  0  0  0  0  0  0  0  0  0
   -3.6010   18.7838  -33.2652 H   0  0  0  0  0  0  0  0  0  0  0  0
   -1.5227   19.5247  -32.0582 H   0  0  0  0  0  0  0  0  0  0  0  0
   -0.4388   21.6520  -30.4932 H   0  0  0  0  0  0  0  0  0  0  0  0
   -2.9000   25.6360  -29.3060 H   0  0  0  0  0  0  0  0  0  0  0  0
   -5.6243   22.4431  -32.0201 H   0  0  0  0  0  0  0  0  0  0  0  0
   -7.1616   21.2972  -32.0419 H   0  0  0  0  0  0  0  0  0  0  0  0
   -8.1519   20.3452  -33.2041 H   0  0  0  0  0  0  0  0  0  0  0  0
   -8.1730   19.4530  -30.9760 H   0  0  0  0  0  0  0  0  0  0  0  0
   -7.5972   17.1669  -31.5508 H   0  0  0  0  0  0  0  0  0  0  0  0
   -8.6048   18.0595  -32.7700 H   0  0  0  0  0  0  0  0  0  0  0  0
  1  2  1  0
  2  3  2  0
  3  4  1  0
  3  5  1  0
  5  6  1  0
  6  7  2  0
  7  8  1  0
  8  9  2  0
  9 10  1  0
 10 11  2  0
 11 12  1  0
 12 13  1  0
 12 14  2  0
 11 15  1  0
 15 16  1  0
 16 17  2  0
 16 18  1  0
 15 19  1  0
 19 20  2  0
  5 21  1  0
 21 22  1  0
 22 23  1  0
 23  2  1  0
 20  6  1  0
 19  9  1  0
  1 24  1  0
  1 25  1  0
  1 26  1  0
  4 27  1  0
  5 28  1  6
  7 29  1  0
  8 30  1  0
 10 31  1  0
 13 32  1  0
 20 33  1  0
 21 34  1  0
 21 35  1  0
 22 36  1  0
 23 37  1  0
 23 38  1  0
M  CHG  2  13  -1  18  -1
M  END
>  <UniqueID>  (11) 
11

>  <SMILES>  (11) 
CC1=C(O)[C@H](c2ccc3cc(C([NH-])=O)n(C(=O)[O-])c3c2)CNC1

>  <Energy>  (11) 
81.13040265352953

>  <Genealogy>  (11) 
CC1=C(O)[C@H](c2ccc3cc(C([NH-])=O)n(C(=O)[O-])c3c2)CNC1 (protonated)
CC1=C(O)[C@H](c2ccc3cc(C([NH-])=O)n(C(=O)[O-])c3c2)CNC1 (3D coordinates assigned)
CC1=C(O)[C@H](c2ccc3cc(C([NH-])=O)n(C(=O)[O-])c3c2)CNC1 (nonaromatic ring conformer: 81.13040265352953 kcal/mol)

>  <smiles>  (11) 
CC1=C(O)[C@H](c2ccc3cc(C(N)=O)n(C(=O)O)c3c2)CNC1

>  <score_type>  (11) 
oracle

>  <origin>  (11) 
adg

>  <m_score__min__energy>  (11) 
-11.949999999999999

>  <m_primary>  (11) 
energy

$$$$
11:0
     RDKit          3D

 44 45  0  0  0  0  0  0  0  0999 V2000
   -0.9360   23.6130  -29.2850 C   0  0  0  0  0  0  0  0  0  0  0  0
   -2.0240   24.4780  -28.7990 N   0  0  0  0  0  0  0  0  0  0  0  0
   -1.5430   25.4200  -27.7770 C   0  0  0  0  0  0  0  0  0  0  0  0
   -3.2110   23.7080  -28.3640 C   0  0  0  0  0  0  0  0  0  0  0  0
   -3.0490   22.1770  -28.4600 C   0  0  0  0  0  0  0  0  0  0  0  0
   -3.5050   21.7020  -29.7620 N   0  0  0  0  0  0  0  0  0  0  0  0
   -3.8710   22.5730  -30.8390 C   0  0  0  0  0  0  0  0  0  0  0  0
   -2.9740   23.0510  -31.5810 O   0  0  0  0  0  0  0  0  0  0  0  0
   -5.2460   22.8970  -31.0910 N   0  0  0  0  0  0  0  0  0  0  0  0
   -5.8750   24.0880  -30.8900 C   0  0  0  0  0  0  0  0  0  0  0  0
   -5.2300   25.3420  -30.4460 C   0  0  0  0  0  0  0  0  0  0  0  0
   -3.8980   25.6620  -30.8400 N   0  0  0  0  0  0  0  0  0  0  0  0
   -5.8670   26.1490  -29.7180 O   0  0  0  0  0  0  0  0  0  0  0  0
   -7.2360   23.9690  -31.1660 C   0  0  0  0  0  0  0  0  0  0  0  0
   -7.4190   22.6580  -31.5440 C   0  0  0  0  0  0  0  0  0  0  0  0
   -8.5840   21.9730  -31.8790 C   0  0  0  0  0  0  0  0  0  0  0  0
   -8.4810   20.6010  -32.1660 C   0  0  0  0  0  0  0  0  0  0  0  0
   -7.2230   19.9460  -32.1220 C   0  0  0  0  0  0  0  0  0  0  0  0
   -7.1330   18.4610  -32.3540 C   0  0  0  0  0  0  0  0  0  0  0  0
   -6.2580   18.1410  -33.5710 C   0  0  0  0  0  0  0  0  0  0  0  0
   -6.3990   19.1720  -34.5970 N   0  0  0  0  0  0  0  0  0  0  0  0
   -6.0630   20.6760  -31.7840 C   0  0  0  0  0  0  0  0  0  0  0  0
   -6.2000   22.0370  -31.4970 C   0  0  0  0  0  0  0  0  0  0  0  0
   -0.3971   23.1846  -28.4270 H   0  0  0  0  0  0  0  0  0  0  0  0
   -1.3580   22.8011  -29.8955 H   0  0  0  0  0  0  0  0  0  0  0  0
   -0.2401   24.2071  -29.8955 H   0  0  0  0  0  0  0  0  0  0  0  0
   -1.7508   25.0130  -26.7764 H   0  0  0  0  0  0  0  0  0  0  0  0
   -0.4593   25.5673  -27.8951 H   0  0  0  0  0  0  0  0  0  0  0  0
   -2.0591   26.3842  -27.8951 H   0  0  0  0  0  0  0  0  0  0  0  0
   -3.4232   23.9663  -27.3160 H   0  0  0  0  0  0  0  0  0  0  0  0
   -4.0289   23.9801  -29.0474 H   0  0  0  0  0  0  0  0  0  0  0  0
   -1.9888   21.9150  -28.3287 H   0  0  0  0  0  0  0  0  0  0  0  0
   -3.6537   21.7024  -27.6732 H   0  0  0  0  0  0  0  0  0  0  0  0
   -3.1020   25.0270  -30.6100 H   0  0  0  0  0  0  0  0  0  0  0  0
   -8.0016   24.7558  -31.0965 H   0  0  0  0  0  0  0  0  0  0  0  0
   -9.5545   22.4894  -31.9178 H   0  0  0  0  0  0  0  0  0  0  0  0
   -9.3840   20.0297  -32.4272 H   0  0  0  0  0  0  0  0  0  0  0  0
   -6.6968   17.9847  -31.4635 H   0  0  0  0  0  0  0  0  0  0  0  0
   -8.1461   18.0765  -32.5432 H   0  0  0  0  0  0  0  0  0  0  0  0
   -5.2057   18.0884  -33.2548 H   0  0  0  0  0  0  0  0  0  0  0  0
   -6.5796   17.1774  -33.9929 H   0  0  0  0  0  0  0  0  0  0  0  0
   -7.2910   19.6870  -34.4110 H   0  0  0  0  0  0  0  0  0  0  0  0
   -6.5160   18.6990  -35.5220 H   0  0  0  0  0  0  0  0  0  0  0  0
   -5.0783   20.1871  -31.7475 H   0  0  0  0  0  0  0  0  0  0  0  0
  1  2  1  0
  2  3  1  0
  2  4  1  0
  4  5  1  0
  5  6  1  0
  6  7  1  0
  7  8  2  0
  7  9  1  0
  9 10  1  0
 10 11  1  0
 11 12  1  0
 11 13  2  0
 10 14  2  0
 14 15  1  0
 15 16  2  0
 16 17  1  0
 17 18  2  0
 18 19  1  0
 19 20  1  0
 20 21  1  0
 18 22  1  0
 22 23  2  0
 23  9  1  0
 23 15  1  0
  1 24  1  0
  1 25  1  0
  1 26  1  0
  3 27  1  0
  3 28  1  0
  3 29  1  0
  4 30  1  0
  4 31  1  0
  5 32  1  0
  5 33  1  0
 12 34  1  0
 14 35  1  0
 16 36  1  0
 17 37  1  0
 19 38  1  0
 19 39  1  0
 20 40  1  0
 20 41  1  0
 21 42  1  0
 21 43  1  0
 22 44  1  0
M  CHG  2   6  -1  12  -1
M  END
>  <UniqueID>  (12) 
12

>  <SMILES>  (12) 
CN(C)CC[N-]C(=O)n1c(C([NH-])=O)cc2ccc(CCN)cc21

>  <Energy>  (12) 
77.16129801403746

>  <Genealogy>  (12) 
CN(C)CC[N-]C(=O)n1c(C([NH-])=O)cc2ccc(CCN)cc21 (protonated)
CN(C)CC[N-]C(=O)n1c(C([NH-])=O)cc2ccc(CCN)cc21 (3D coordinates assigned)
CN(C)CC[N-]C(=O)n1c(C([NH-])=O)cc2ccc(CCN)cc21 (optimized conformer: 77.16129801403746 kcal/mol)

>  <smiles>  (12) 
CN(C)CCNC(=O)n1c(C(N)=O)cc2ccc(CCN)cc21

>  <score_type>  (12) 
oracle

>  <origin>  (12) 
adg

>  <m_score__min__energy>  (12) 
-10.77

>  <m_primary>  (12) 
energy

$$$$
12:0
     RDKit          3D

 35 36  0  0  0  0  0  0  0  0999 V2000
   -4.9650   16.2590  -32.9790 C   0  0  0  0  0  0  0  0  0  0  0  0
   -4.9580   17.3150  -33.9310 O   0  0  0  0  0  0  0  0  0  0  0  0
   -6.0810   18.1090  -34.1830 C   0  0  0  0  0  0  0  0  0  0  0  0
   -6.1090   18.8890  -35.1740 O   0  0  0  0  0  0  0  0  0  0  0  0
   -7.2350   18.0700  -33.2350 C   0  0  0  0  0  0  0  0  0  0  0  0
   -7.3430   19.3780  -32.5040 C   0  0  0  0  0  0  0  0  0  0  0  0
   -8.5790   19.7780  -31.9370 C   0  0  0  0  0  0  0  0  0  0  0  0
   -8.6950   21.0070  -31.2680 C   0  0  0  0  0  0  0  0  0  0  0  0
   -7.5670   21.8210  -31.1980 C   0  0  0  0  0  0  0  0  0  0  0  0
   -7.3980   23.0480  -30.5990 C   0  0  0  0  0  0  0  0  0  0  0  0
   -6.0710   23.3980  -30.8410 C   0  0  0  0  0  0  0  0  0  0  0  0
   -5.4760   24.6950  -30.4500 C   0  0  0  0  0  0  0  0  0  0  0  0
   -5.8440   25.3250  -29.2220 N   0  0  0  0  0  0  0  0  0  0  0  0
   -4.6590   25.2730  -31.2150 O   0  0  0  0  0  0  0  0  0  0  0  0
   -5.4430   22.4230  -31.5600 N   0  0  0  0  0  0  0  0  0  0  0  0
   -4.0660   22.3790  -31.9670 C   0  0  0  0  0  0  0  0  0  0  0  0
   -3.1810   22.9330  -31.2580 O   0  0  0  0  0  0  0  0  0  0  0  0
   -3.7100   21.7130  -33.1450 O   0  0  0  0  0  0  0  0  0  0  0  0
   -2.9240   20.5280  -33.1480 C   0  0  0  0  0  0  0  0  0  0  0  0
   -6.3720   21.4640  -31.7690 C   0  0  0  0  0  0  0  0  0  0  0  0
   -6.2240   20.2340  -32.4230 C   0  0  0  0  0  0  0  0  0  0  0  0
   -4.9622   16.6811  -31.9632 H   0  0  0  0  0  0  0  0  0  0  0  0
   -5.8672   15.6454  -33.1186 H   0  0  0  0  0  0  0  0  0  0  0  0
   -4.0710   15.6335  -33.1186 H   0  0  0  0  0  0  0  0  0  0  0  0
   -8.1628   17.8893  -33.7976 H   0  0  0  0  0  0  0  0  0  0  0  0
   -7.0771   17.2609  -32.5066 H   0  0  0  0  0  0  0  0  0  0  0  0
   -9.4558   19.1192  -32.0219 H   0  0  0  0  0  0  0  0  0  0  0  0
   -9.6473   21.3174  -30.8132 H   0  0  0  0  0  0  0  0  0  0  0  0
   -8.1507   23.6294  -30.0463 H   0  0  0  0  0  0  0  0  0  0  0  0
   -6.4720   24.8530  -28.5350 H   0  0  0  0  0  0  0  0  0  0  0  0
   -5.4480   26.2590  -28.9730 H   0  0  0  0  0  0  0  0  0  0  0  0
   -2.7201   20.2206  -32.1117 H   0  0  0  0  0  0  0  0  0  0  0  0
   -3.4704   19.7269  -33.6673 H   0  0  0  0  0  0  0  0  0  0  0  0
   -1.9735   20.7198  -33.6673 H   0  0  0  0  0  0  0  0  0  0  0  0
   -5.2588   19.9425  -32.8628 H   0  0  0  0  0  0  0  0  0  0  0  0
  1  2  1  0
  2  3  1  0
  3  4  2  0
  3  5  1  0
  5  6  1  0
  6  7  2  0
  7  8  1  0
  8  9  2  0
  9 10  1  0
 10 11  2  0
 11 12  1  0
 12 13  1  0
 12 14  2  0
 11 15  1  0
 15 16  1  0
 16 17  2  0
 16 18  1  0
 18 19  1  0
 15 20  1  0
 20 21  2  0
 21  6  1  0
 20  9  1  0
  1 22  1  0
  1 23  1  0
  1 24  1  0
  5 25  1  0
  5 26  1  0
  7 27  1  0
  8 28  1  0
 10 29  1  0
 13 30  1  0
 13 31  1  0
 19 32  1  0
 19 33  1  0
 19 34  1  0
 21 35  1  0
M  END
>  <UniqueID>  (13) 
13

>  <SMILES>  (13) 
COC(=O)Cc1ccc2cc(C(N)=O)n(C(=O)OC)c2c1

>  <Energy>  (13) 
67.35913948984978

>  <Genealogy>  (13) 
COC(=O)Cc1ccc2cc(C(N)=O)n(C(=O)OC)c2c1 (3D coordinates assigned)
COC(=O)Cc1ccc2cc(C(N)=O)n(C(=O)OC)c2c1 (optimized conformer: 67.35913948984978 kcal/mol)

>  <smiles>  (13) 
COC(=O)Cc1ccc2cc(C(N)=O)n(C(=O)OC)c2c1

>  <score_type>  (13) 
oracle

>  <origin>  (13) 
adg

>  <m_score__min__energy>  (13) 
-7.8099999999999996

>  <m_primary>  (13) 
energy

$$$$
13:0
     RDKit          3D

 34 35  0  0  0  0  0  0  0  0999 V2000
   -1.6470   25.6580  -28.9490 N   0  0  0  0  0  0  0  0  0  0  0  0
   -1.1070   24.3640  -29.2050 C   0  0  0  0  0  0  0  0  0  0  0  0
   -0.0420   24.0150  -28.6300 O   0  0  0  0  0  0  0  0  0  0  0  0
   -1.8090   23.4080  -30.0860 C   0  0  0  0  0  0  0  0  0  0  0  0
   -1.2170   22.2490  -30.5830 C   0  0  0  0  0  0  0  0  0  0  0  0
   -2.2130   21.5950  -31.2690 C   0  0  0  0  0  0  0  0  0  0  0  0
   -2.1780   20.3910  -31.9660 C   0  0  0  0  0  0  0  0  0  0  0  0
   -3.3540   19.9630  -32.6030 C   0  0  0  0  0  0  0  0  0  0  0  0
   -4.5320   20.7500  -32.5470 C   0  0  0  0  0  0  0  0  0  0  0  0
   -5.7920   20.2710  -33.2130 C   0  0  0  0  0  0  0  0  0  0  0  0
   -6.3310   19.0780  -32.4890 C   0  0  0  0  0  0  0  0  0  0  0  0
   -6.3090   19.0480  -31.2290 O   0  0  0  0  0  0  0  0  0  0  0  0
   -6.8110   17.9560  -33.2360 N   0  0  0  0  0  0  0  0  0  0  0  0
   -5.9670   16.8530  -33.6850 C   0  0  0  0  0  0  0  0  0  0  0  0
   -5.1620   17.2540  -34.9240 C   0  0  0  0  0  0  0  0  0  0  0  0
   -5.7000   18.3990  -35.5260 O   0  0  0  0  0  0  0  0  0  0  0  0
   -4.5330   21.9620  -31.8210 C   0  0  0  0  0  0  0  0  0  0  0  0
   -3.3520   22.3540  -31.1800 C   0  0  0  0  0  0  0  0  0  0  0  0
   -3.1200   23.4730  -30.4580 N   0  0  0  0  0  0  0  0  0  0  0  0
   -4.0440   24.5490  -30.2290 C   0  0  0  0  0  0  0  0  0  0  0  0
   -3.8760   25.6630  -30.7910 O   0  0  0  0  0  0  0  0  0  0  0  0
   -5.1150   24.3810  -29.3610 O   0  0  0  0  0  0  0  0  0  0  0  0
   -2.6760   25.8290  -28.9920 H   0  0  0  0  0  0  0  0  0  0  0  0
   -0.1736   21.9256  -30.4539 H   0  0  0  0  0  0  0  0  0  0  0  0
   -1.2565   19.7924  -32.0165 H   0  0  0  0  0  0  0  0  0  0  0  0
   -3.3613   19.0088  -33.1502 H   0  0  0  0  0  0  0  0  0  0  0  0
   -6.5413   21.0761  -33.1970 H   0  0  0  0  0  0  0  0  0  0  0  0
   -5.5672   19.9915  -34.2529 H   0  0  0  0  0  0  0  0  0  0  0  0
   -5.2727   16.5782  -32.8772 H   0  0  0  0  0  0  0  0  0  0  0  0
   -6.6106   15.9992  -33.9437 H   0  0  0  0  0  0  0  0  0  0  0  0
   -4.1230   17.4589  -34.6266 H   0  0  0  0  0  0  0  0  0  0  0  0
   -5.2007   16.4273  -35.6486 H   0  0  0  0  0  0  0  0  0  0  0  0
   -6.5640   18.5800  -35.0720 H   0  0  0  0  0  0  0  0  0  0  0  0
   -5.4395   22.5823  -31.7610 H   0  0  0  0  0  0  0  0  0  0  0  0
  1  2  1  0
  2  3  2  0
  2  4  1  0
  4  5  2  0
  5  6  1  0
  6  7  2  0
  7  8  1  0
  8  9  2  0
  9 10  1  0
 10 11  1  0
 11 12  2  0
 11 13  1  0
 13 14  1  0
 14 15  1  0
 15 16  1  0
  9 17  1  0
 17 18  2  0
 18 19  1  0
 19 20  1  0
 20 21  2  0
 20 22  1  0
 19  4  1  0
 18  6  1  0
  1 23  1  0
  5 24  1  0
  7 25  1  0
  8 26  1  0
 10 27  1  0
 10 28  1  0
 14 29  1  0
 14 30  1  0
 15 31  1  0
 15 32  1  0
 16 33  1  0
 17 34  1  0
M  CHG  3   1  -1  13  -1  22  -1
M  END
>  <UniqueID>  (14) 
14

>  <SMILES>  (14) 
[NH-]C(=O)c1cc2ccc(CC(=O)[N-]CCO)cc2n1C(=O)[O-]

>  <Energy>  (14) 
68.57922096583442

>  <Genealogy>  (14) 
[NH-]C(=O)c1cc2ccc(CC(=O)[N-]CCO)cc2n1C(=O)[O-] (protonated)
[NH-]C(=O)c1cc2ccc(CC(=O)[N-]CCO)cc2n1C(=O)[O-] (3D coordinates assigned)
[NH-]C(=O)c1cc2ccc(CC(=O)[N-]CCO)cc2n1C(=O)[O-] (optimized conformer: 68.57922096583442 kcal/mol)

>  <smiles>  (14) 
NC(=O)c1cc2ccc(CC(=O)NCCO)cc2n1C(=O)O

>  <score_type>  (14) 
oracle

>  <origin>  (14) 
adg

>  <m_score__min__energy>  (14) 
-10.02

>  <m_primary>  (14) 
energy

$$$$
14:0
     RDKit          3D

 42 44  0  0  0  0  0  0  0  0999 V2000
   -7.6100   22.3360  -30.8400 C   0  0  0  0  0  0  0  0  0  0  0  0
   -6.6390   23.3330  -31.4630 C   0  0  0  0  0  0  0  0  0  0  0  0
   -6.1460   24.2370  -30.4760 O   0  0  0  0  0  0  0  0  0  0  0  0
   -4.7870   24.5280  -30.3120 C   0  0  0  0  0  0  0  0  0  0  0  0
   -4.2750   25.5330  -30.8780 O   0  0  0  0  0  0  0  0  0  0  0  0
   -3.9550   23.6570  -29.4720 C   0  0  0  0  0  0  0  0  0  0  0  0
   -4.2650   23.4780  -28.2640 O   0  0  0  0  0  0  0  0  0  0  0  0
   -2.8040   22.9920  -30.0180 N   0  0  0  0  0  0  0  0  0  0  0  0
   -1.4910   23.3060  -29.8290 C   0  0  0  0  0  0  0  0  0  0  0  0
   -0.9820   24.4760  -29.0830 C   0  0  0  0  0  0  0  0  0  0  0  0
   -1.7830   25.6500  -28.9730 N   0  0  0  0  0  0  0  0  0  0  0  0
    0.1450   24.4430  -28.5230 O   0  0  0  0  0  0  0  0  0  0  0  0
   -0.6730   22.3910  -30.4900 C   0  0  0  0  0  0  0  0  0  0  0  0
   -1.5330   21.5000  -31.0920 C   0  0  0  0  0  0  0  0  0  0  0  0
   -1.2640   20.3770  -31.8690 C   0  0  0  0  0  0  0  0  0  0  0  0
   -2.3530   19.6250  -32.3410 C   0  0  0  0  0  0  0  0  0  0  0  0
   -3.6870   19.9960  -32.0210 C   0  0  0  0  0  0  0  0  0  0  0  0
   -4.8340   19.1950  -32.5200 C   0  0  0  0  0  0  0  0  0  0  0  0
   -4.6570   18.2610  -33.5560 C   0  0  0  0  0  0  0  0  0  0  0  0
   -5.7370   17.5040  -34.0180 C   0  0  0  0  0  0  0  0  0  0  0  0
   -7.0040   17.6690  -33.4540 C   0  0  0  0  0  0  0  0  0  0  0  0
   -7.1990   18.6000  -32.4180 C   0  0  0  0  0  0  0  0  0  0  0  0
   -8.4860   18.7990  -31.8150 N   0  0  0  0  0  0  0  0  0  0  0  0
   -9.1960   19.7700  -32.0820 N   0  0  0  0  0  0  0  0  0  0  0  0
   -9.9050   20.7380  -32.3480 N   0  0  0  0  0  0  0  0  0  0  0  0
   -6.1140   19.3560  -31.9580 C   0  0  0  0  0  0  0  0  0  0  0  0
   -3.9140   21.1400  -31.2210 C   0  0  0  0  0  0  0  0  0  0  0  0
   -2.8120   21.8830  -30.7880 C   0  0  0  0  0  0  0  0  0  0  0  0
   -7.5479   22.3998  -29.7436 H   0  0  0  0  0  0  0  0  0  0  0  0
   -8.6347   22.5711  -31.1635 H   0  0  0  0  0  0  0  0  0  0  0  0
   -7.3479   21.3178  -31.1635 H   0  0  0  0  0  0  0  0  0  0  0  0
   -5.7940   22.7859  -31.9065 H   0  0  0  0  0  0  0  0  0  0  0  0
   -7.1686   23.9075  -32.2373 H   0  0  0  0  0  0  0  0  0  0  0  0
   -2.7550   25.6740  -29.3530 H   0  0  0  0  0  0  0  0  0  0  0  0
    0.4265   22.3826  -30.5235 H   0  0  0  0  0  0  0  0  0  0  0  0
   -0.2299   20.0869  -32.1064 H   0  0  0  0  0  0  0  0  0  0  0  0
   -2.1708   18.7382  -32.9659 H   0  0  0  0  0  0  0  0  0  0  0  0
   -3.6623   18.1253  -34.0056 H   0  0  0  0  0  0  0  0  0  0  0  0
   -5.5887   16.7756  -34.8288 H   0  0  0  0  0  0  0  0  0  0  0  0
   -7.8506   17.0699  -33.8206 H   0  0  0  0  0  0  0  0  0  0  0  0
   -6.2640   20.0845  -31.1476 H   0  0  0  0  0  0  0  0  0  0  0  0
   -4.9361   21.4388  -30.9454 H   0  0  0  0  0  0  0  0  0  0  0  0
  1  2  1  0
  2  3  1  0
  3  4  1  0
  4  5  2  0
  4  6  1  0
  6  7  2  0
  6  8  1  0
  8  9  1  0
  9 10  1  0
 10 11  1  0
 10 12  2  0
  9 13  2  0
 13 14  1  0
 14 15  2  0
 15 16  1  0
 16 17  2  0
 17 18  1  0
 18 19  2  0
 19 20  1  0
 20 21  2  0
 21 22  1  0
 22 23  1  0
 23 24  2  0
 24 25  2  0
 22 26  2  0
 17 27  1  0
 27 28  2  0
 28  8  1  0
 28 14  1  0
 26 18  1  0
  1 29  1  0
  1 30  1  0
  1 31  1  0
  2 32  1  0
  2 33  1  0
 11 34  1  0
 13 35  1  0
 15 36  1  0
 16 37  1  0
 19 38  1  0
 20 39  1  0
 21 40  1  0
 26 41  1  0
 27 42  1  0
M  CHG  3  11  -1  24   1  25  -1
M  END
>  <UniqueID>  (15) 
15

>  <SMILES>  (15) 
CCOC(=O)C(=O)n1c(C([NH-])=O)cc2ccc(-c3cccc(N=[N+]=[N-])c3)cc21

>  <Energy>  (15) 
84.07854688296497

>  <Genealogy>  (15) 
CCOC(=O)C(=O)n1c(C([NH-])=O)cc2ccc(-c3cccc(N=[N+]=[N-])c3)cc21 (protonated)
CCOC(=O)C(=O)n1c(C([NH-])=O)cc2ccc(-c3cccc(N=[N+]=[N-])c3)cc21 (3D coordinates assigned)
CCOC(=O)C(=O)n1c(C([NH-])=O)cc2ccc(-c3cccc(N=[N+]=[N-])c3)cc21 (optimized conformer: 84.07854688296497 kcal/mol)

>  <smiles>  (15) 
CCOC(=O)C(=O)n1c(C(N)=O)cc2ccc(-c3cccc(N=[N+]=[N-])c3)cc21

>  <score_type>  (15) 
oracle

>  <origin>  (15) 
adg

>  <m_score__min__energy>  (15) 
-11.960000000000001

>  <m_primary>  (15) 
energy

$$$$
15:0
     RDKit          3D

 36 38  0  0  0  0  0  0  0  0999 V2000
   -6.6800   16.4720  -33.8090 C   0  0  0  0  0  0  0  0  0  0  0  0
   -6.6790   17.8960  -33.4970 N   0  0  0  0  0  0  0  0  0  0  0  0
   -7.5470   18.5310  -32.5220 C   0  0  0  0  0  0  0  0  0  0  0  0
   -7.2050   20.0340  -32.5650 C   0  0  0  0  0  0  0  0  0  0  0  0
   -5.9540   20.1940  -33.4590 C   0  0  1  0  0  0  0  0  0  0  0  0
   -4.7340   20.6320  -32.6730 C   0  0  0  0  0  0  0  0  0  0  0  0
   -3.5760   19.8110  -32.6090 C   0  0  0  0  0  0  0  0  0  0  0  0
   -2.4440   20.2210  -31.8870 C   0  0  0  0  0  0  0  0  0  0  0  0
   -2.4980   21.4450  -31.2290 C   0  0  0  0  0  0  0  0  0  0  0  0
   -1.5350   22.0930  -30.4900 C   0  0  0  0  0  0  0  0  0  0  0  0
   -2.1270   23.2850  -30.0810 C   0  0  0  0  0  0  0  0  0  0  0  0
   -1.4530   24.2650  -29.2070 C   0  0  0  0  0  0  0  0  0  0  0  0
   -2.1880   25.3020  -28.5540 N   0  0  0  0  0  0  0  0  0  0  0  0
   -0.2180   24.1530  -28.9860 O   0  0  0  0  0  0  0  0  0  0  0  0
   -3.4010   23.3800  -30.5580 N   0  0  0  0  0  0  0  0  0  0  0  0
   -4.2920   24.5030  -30.4500 C   0  0  0  0  0  0  0  0  0  0  0  0
   -3.8640   25.6740  -30.6290 O   0  0  0  0  0  0  0  0  0  0  0  0
   -5.6350   24.3120  -30.1480 O   0  0  0  0  0  0  0  0  0  0  0  0
   -3.6140   22.2420  -31.2570 C   0  0  0  0  0  0  0  0  0  0  0  0
   -4.7490   21.8690  -31.9890 C   0  0  0  0  0  0  0  0  0  0  0  0
   -5.7710   18.8380  -34.0260 C   0  0  0  0  0  0  0  0  0  0  0  0
   -4.9020   18.5470  -34.8910 O   0  0  0  0  0  0  0  0  0  0  0  0
   -6.6804   15.8919  -32.8744 H   0  0  0  0  0  0  0  0  0  0  0  0
   -7.5783   16.2254  -34.3940 H   0  0  0  0  0  0  0  0  0  0  0  0
   -5.7820   16.2242  -34.3940 H   0  0  0  0  0  0  0  0  0  0  0  0
   -8.6023   18.3712  -32.7881 H   0  0  0  0  0  0  0  0  0  0  0  0
   -7.3978   18.1121  -31.5159 H   0  0  0  0  0  0  0  0  0  0  0  0
   -8.0469   20.5998  -32.9905 H   0  0  0  0  0  0  0  0  0  0  0  0
   -7.0128   20.4193  -31.5528 H   0  0  0  0  0  0  0  0  0  0  0  0
   -6.0814   20.9752  -34.2229 H   0  0  0  0  0  0  0  0  0  0  0  0
   -3.5664   18.8429  -33.1313 H   0  0  0  0  0  0  0  0  0  0  0  0
   -1.5418   19.5932  -31.8431 H   0  0  0  0  0  0  0  0  0  0  0  0
   -0.5154   21.7439  -30.2695 H   0  0  0  0  0  0  0  0  0  0  0  0
   -1.6900   26.0100  -27.9710 H   0  0  0  0  0  0  0  0  0  0  0  0
   -3.2320   25.3200  -28.5790 H   0  0  0  0  0  0  0  0  0  0  0  0
   -5.6318   22.5239  -32.0305 H   0  0  0  0  0  0  0  0  0  0  0  0
  1  2  1  0
  2  3  1  0
  3  4  1  0
  4  5  1  0
  5  6  1  0
  6  7  2  0
  7  8  1  0
  8  9  2  0
  9 10  1  0
 10 11  2  0
 11 12  1  0
 12 13  1  0
 12 14  2  0
 11 15  1  0
 15 16  1  0
 16 17  2  0
 16 18  1  0
 15 19  1  0
 19 20  2  0
  5 21  1  0
 21 22  2  0
 21  2  1  0
 20  6  1  0
 19  9  1  0
  1 23  1  0
  1 24  1  0
  1 25  1  0
  3 26  1  0
  3 27  1  0
  4 28  1  0
  4 29  1  0
  5 30  1  6
  7 31  1  0
  8 32  1  0
 10 33  1  0
 13 34  1  0
 13 35  1  0
 20 36  1  0
M  CHG  1  18  -1
M  END
>  <UniqueID>  (16) 
16

>  <SMILES>  (16) 
CN1CC[C@@H](c2ccc3cc(C(N)=O)n(C(=O)[O-])c3c2)C1=O

>  <Energy>  (16) 
83.02185640443903

>  <Genealogy>  (16) 
CN1CCC(c2ccc3cc(C(N)=O)n(C(=O)[O-])c3c2)C1=O (protonated)
CN1CC[C@@H](c2ccc3cc(C(N)=O)n(C(=O)[O-])c3c2)C1=O (chirality)
CN1CC[C@@H](c2ccc3cc(C(N)=O)n(C(=O)[O-])c3c2)C1=O (3D coordinates assigned)
CN1CC[C@@H](c2ccc3cc(C(N)=O)n(C(=O)[O-])c3c2)C1=O (nonaromatic ring conformer: 83.02185640443903 kcal/mol)

>  <smiles>  (16) 
CN1CCC(c2ccc3cc(C(N)=O)n(C(=O)O)c3c2)C1=O

>  <score_type>  (16) 
oracle

>  <origin>  (16) 
adg

>  <m_score__min__energy>  (16) 
-9.4900000000000002

>  <m_primary>  (16) 
energy

$$$$
16:0
     RDKit          3D

 45 48  0  0  0  0  0  0  0  0999 V2000
    0.6590   22.7990  -27.6130 C   0  0  0  0  0  0  0  0  0  0  0  0
   -0.0730   24.0170  -28.0710 C   0  0  0  0  0  0  0  0  0  0  0  0
    0.0610   25.2100  -27.5420 O   0  0  0  0  0  0  0  0  0  0  0  0
   -0.7450   25.9950  -28.2210 C   0  0  0  0  0  0  0  0  0  0  0  0
   -0.8780   27.2250  -27.9890 O   0  0  0  0  0  0  0  0  0  0  0  0
   -1.3950   25.3570  -29.1670 O   0  0  0  0  0  0  0  0  0  0  0  0
   -0.9940   24.1100  -29.1000 C   0  0  0  0  0  0  0  0  0  0  0  0
   -1.4730   23.0180  -30.0080 C   0  0  0  0  0  0  0  0  0  0  0  0
   -2.8910   23.0740  -30.1370 O   0  0  0  0  0  0  0  0  0  0  0  0
   -3.5700   22.6800  -31.2970 C   0  0  0  0  0  0  0  0  0  0  0  0
   -2.9330   22.2430  -32.2920 O   0  0  0  0  0  0  0  0  0  0  0  0
   -4.9980   22.8050  -31.3600 N   0  0  0  0  0  0  0  0  0  0  0  0
   -5.7510   23.9110  -31.1040 C   0  0  0  0  0  0  0  0  0  0  0  0
   -5.2580   25.1810  -30.5330 C   0  0  0  0  0  0  0  0  0  0  0  0
   -3.9590   25.6740  -30.8500 N   0  0  0  0  0  0  0  0  0  0  0  0
   -5.9780   25.8200  -29.7190 O   0  0  0  0  0  0  0  0  0  0  0  0
   -7.0930   23.6640  -31.3860 C   0  0  0  0  0  0  0  0  0  0  0  0
   -7.1390   22.3590  -31.8230 C   0  0  0  0  0  0  0  0  0  0  0  0
   -8.2180   21.5980  -32.2570 C   0  0  0  0  0  0  0  0  0  0  0  0
   -7.9690   20.2860  -32.6890 C   0  0  0  0  0  0  0  0  0  0  0  0
   -6.6510   19.7550  -32.6920 C   0  0  0  0  0  0  0  0  0  0  0  0
   -6.3960   18.3700  -33.1680 C   0  0  0  0  0  0  0  0  0  0  0  0
   -7.2530   17.2780  -33.0970 C   0  0  0  0  0  0  0  0  0  0  0  0
   -6.6340   16.2080  -33.6260 N   0  0  0  0  0  0  0  0  0  0  0  0
   -5.4320   16.5720  -34.0390 N   0  0  0  0  0  0  0  0  0  0  0  0
   -4.4410   15.6620  -34.5970 C   0  0  0  0  0  0  0  0  0  0  0  0
   -5.2430   17.8770  -33.7660 C   0  0  0  0  0  0  0  0  0  0  0  0
   -5.5810   20.5670  -32.2430 C   0  0  0  0  0  0  0  0  0  0  0  0
   -5.8620   21.8640  -31.8000 C   0  0  0  0  0  0  0  0  0  0  0  0
    0.6749   22.7726  -26.5134 H   0  0  0  0  0  0  0  0  0  0  0  0
    0.1509   21.9009  -27.9941 H   0  0  0  0  0  0  0  0  0  0  0  0
    1.6905   22.8262  -27.9941 H   0  0  0  0  0  0  0  0  0  0  0  0
   -1.0125   23.1412  -30.9993 H   0  0  0  0  0  0  0  0  0  0  0  0
   -1.1889   22.0448  -29.5811 H   0  0  0  0  0  0  0  0  0  0  0  0
   -3.1040   25.2250  -30.4560 H   0  0  0  0  0  0  0  0  0  0  0  0
   -7.9362   24.3627  -31.2817 H   0  0  0  0  0  0  0  0  0  0  0  0
   -9.2372   22.0118  -32.2618 H   0  0  0  0  0  0  0  0  0  0  0  0
   -8.8064   19.6597  -33.0302 H   0  0  0  0  0  0  0  0  0  0  0  0
   -8.2698   17.2876  -32.6773 H   0  0  0  0  0  0  0  0  0  0  0  0
   -7.0220   15.2410  -33.6910 H   0  0  0  0  0  0  0  0  0  0  0  0
   -3.8989   15.1642  -33.7795 H   0  0  0  0  0  0  0  0  0  0  0  0
   -4.9453   14.9057  -35.2165 H   0  0  0  0  0  0  0  0  0  0  0  0
   -3.7304   16.2288  -35.2165 H   0  0  0  0  0  0  0  0  0  0  0  0
   -4.3313   18.4541  -33.9799 H   0  0  0  0  0  0  0  0  0  0  0  0
   -4.5493   20.1854  -32.2426 H   0  0  0  0  0  0  0  0  0  0  0  0
  1  2  1  0
  2  3  1  0
  3  4  1  0
  4  5  2  0
  4  6  1  0
  6  7  1  0
  7  8  1  0
  8  9  1  0
  9 10  1  0
 10 11  2  0
 10 12  1  0
 12 13  1  0
 13 14  1  0
 14 15  1  0
 14 16  2  0
 13 17  2  0
 17 18  1  0
 18 19  2  0
 19 20  1  0
 20 21  2  0
 21 22  1  0
 22 23  1  0
 23 24  2  0
 24 25  1  0
 25 26  1  0
 25 27  1  0
 21 28  1  0
 28 29  2  0
  7  2  2  0
 29 12  1  0
 29 18  1  0
 27 22  2  0
  1 30  1  0
  1 31  1  0
  1 32  1  0
  8 33  1  0
  8 34  1  0
 15 35  1  0
 17 36  1  0
 19 37  1  0
 20 38  1  0
 23 39  1  0
 24 40  1  0
 26 41  1  0
 26 42  1  0
 26 43  1  0
 27 44  1  0
 28 45  1  0
M  CHG  2  15  -1  24   1
M  END
>  <UniqueID>  (17) 
17

>  <SMILES>  (17) 
Cc1oc(=O)oc1COC(=O)n1c(C([NH-])=O)cc2ccc(-c3c[nH+]n(C)c3)cc21

>  <Energy>  (17) 
149.41998915967312

>  <Genealogy>  (17) 
Cc1oc(=O)oc1COC(=O)n1c(C([NH-])=O)cc2ccc(-c3c[nH+]n(C)c3)cc21 (protonated)
Cc1oc(=O)oc1COC(=O)n1c(C([NH-])=O)cc2ccc(-c3c[nH+]n(C)c3)cc21 (3D coordinates assigned)
Cc1oc(=O)oc1COC(=O)n1c(C([NH-])=O)cc2ccc(-c3c[nH+]n(C)c3)cc21 (optimized conformer: 149.41998915967312 kcal/mol)

>  <smiles>  (17) 
Cc1oc(=O)oc1COC(=O)n1c(C(N)=O)cc2ccc(-c3cnn(C)c3)cc21

>  <score_type>  (17) 
oracle

>  <origin>  (17) 
adg

>  <m_score__min__energy>  (17) 
-11.24

>  <m_primary>  (17) 
energy

$$$$
17:0
     RDKit          3D

 49 51  0  0  0  0  0  0  0  0999 V2000
    1.1450   16.9010  -35.6830 N   0  0  0  0  0  0  0  0  0  0  0  0
    0.2630   16.2120  -34.8010 C   0  0  0  0  0  0  0  0  0  0  0  0
    0.6350   15.1290  -34.2780 O   0  0  0  0  0  0  0  0  0  0  0  0
   -1.0570   16.7950  -34.4780 C   0  0  0  0  0  0  0  0  0  0  0  0
   -2.2650   16.2310  -34.8830 C   0  0  0  0  0  0  0  0  0  0  0  0
   -3.2370   17.1120  -34.4690 C   0  0  0  0  0  0  0  0  0  0  0  0
   -4.6200   17.0480  -34.6060 C   0  0  0  0  0  0  0  0  0  0  0  0
   -5.3850   18.0920  -34.0610 C   0  0  0  0  0  0  0  0  0  0  0  0
   -4.7610   19.1710  -33.3830 C   0  0  0  0  0  0  0  0  0  0  0  0
   -5.5760   20.2690  -32.8080 C   0  0  0  0  0  0  0  0  0  0  0  0
   -6.8090   19.9830  -32.2010 C   0  0  0  0  0  0  0  0  0  0  0  0
   -7.5860   21.0050  -31.6500 C   0  0  0  0  0  0  0  0  0  0  0  0
   -8.7790   20.6930  -31.0780 F   0  0  0  0  0  0  0  0  0  0  0  0
   -7.1380   22.3360  -31.6880 C   0  0  0  0  0  0  0  0  0  0  0  0
   -7.9880   23.4460  -31.1250 C   0  0  0  0  0  0  0  0  0  0  0  0
   -7.2050   24.3040  -30.3430 O   0  0  0  0  0  0  0  0  0  0  0  0
   -5.9160   22.6300  -32.3180 C   0  0  0  0  0  0  0  0  0  0  0  0
   -5.4810   23.9140  -32.4090 F   0  0  0  0  0  0  0  0  0  0  0  0
   -5.1370   21.6060  -32.8690 C   0  0  0  0  0  0  0  0  0  0  0  0
   -3.9780   21.9270  -33.4980 F   0  0  0  0  0  0  0  0  0  0  0  0
   -3.3510   19.2020  -33.2690 C   0  0  0  0  0  0  0  0  0  0  0  0
   -2.6130   18.1570  -33.8380 C   0  0  0  0  0  0  0  0  0  0  0  0
   -1.2740   17.9760  -33.8310 N   0  0  0  0  0  0  0  0  0  0  0  0
   -0.3040   18.8380  -33.2160 C   0  0  0  0  0  0  0  0  0  0  0  0
    0.8330   18.9820  -33.7410 O   0  0  0  0  0  0  0  0  0  0  0  0
   -0.6190   19.4920  -32.0190 O   0  0  0  0  0  0  0  0  0  0  0  0
   -0.9000   20.8880  -31.9360 C   0  0  0  0  0  0  0  0  0  0  0  0
   -2.1140   21.1370  -31.0330 C   0  0  0  0  0  0  0  0  0  0  0  0
   -2.1270   22.5630  -30.4820 C   0  0  0  0  0  0  0  0  0  0  0  0
   -3.0800   23.3320  -31.1780 O   0  0  0  0  0  0  0  0  0  0  0  0
   -3.7630   24.4480  -30.1020 S   0  0  0  0  0  0  0  0  0  0  0  0
   -4.6410   25.4180  -30.8430 O   0  0  0  0  0  0  0  0  0  0  0  0
   -4.5700   23.7360  -29.0520 O   0  0  0  0  0  0  0  0  0  0  0  0
   -2.5270   25.3000  -29.3510 O   0  0  0  0  0  0  0  0  0  0  0  0
    1.4160   17.8930  -35.5040 H   0  0  0  0  0  0  0  0  0  0  0  0
   -2.4106   15.2821  -35.4201 H   0  0  0  0  0  0  0  0  0  0  0  0
   -5.0997   16.2053  -35.1254 H   0  0  0  0  0  0  0  0  0  0  0  0
   -6.4803   18.0730  -34.1609 H   0  0  0  0  0  0  0  0  0  0  0  0
   -7.1670   18.9438  -32.1588 H   0  0  0  0  0  0  0  0  0  0  0  0
   -8.4365   24.0158  -31.9522 H   0  0  0  0  0  0  0  0  0  0  0  0
   -8.7794   23.0099  -30.4977 H   0  0  0  0  0  0  0  0  0  0  0  0
   -6.2690   23.9810  -30.4190 H   0  0  0  0  0  0  0  0  0  0  0  0
   -2.8465   20.0276  -32.7457 H   0  0  0  0  0  0  0  0  0  0  0  0
   -0.0256   21.4094  -31.5194 H   0  0  0  0  0  0  0  0  0  0  0  0
   -1.1220   21.2675  -32.9443 H   0  0  0  0  0  0  0  0  0  0  0  0
   -3.0318   20.9721  -31.6164 H   0  0  0  0  0  0  0  0  0  0  0  0
   -2.0566   20.4417  -30.1825 H   0  0  0  0  0  0  0  0  0  0  0  0
   -2.3859   22.5397  -29.4132 H   0  0  0  0  0  0  0  0  0  0  0  0
   -1.1314   23.0126  -30.6111 H   0  0  0  0  0  0  0  0  0  0  0  0
  1  2  1  0
  2  3  2  0
  2  4  1  0
  4  5  2  0
  5  6  1  0
  6  7  2  0
  7  8  1  0
  8  9  2  0
  9 10  1  0
 10 11  2  0
 11 12  1  0
 12 13  1  0
 12 14  2  0
 14 15  1  0
 15 16  1  0
 14 17  1  0
 17 18  1  0
 17 19  2  0
 19 20  1  0
  9 21  1  0
 21 22  2  0
 22 23  1  0
 23 24  1  0
 24 25  2  0
 24 26  1  0
 26 27  1  0
 27 28  1  0
 28 29  1  0
 29 30  1  0
 30 31  1  0
 31 32  2  0
 31 33  2  0
 31 34  1  0
 23  4  1  0
 22  6  1  0
 19 10  1  0
  1 35  1  0
  5 36  1  0
  7 37  1  0
  8 38  1  0
 11 39  1  0
 15 40  1  0
 15 41  1  0
 16 42  1  0
 21 43  1  0
 27 44  1  0
 27 45  1  0
 28 46  1  0
 28 47  1  0
 29 48  1  0
 29 49  1  0
M  CHG  2   1  -1  34  -1
M  END
>  <UniqueID>  (18) 
18

>  <SMILES>  (18) 
[NH-]C(=O)c1cc2ccc(-c3cc(F)c(CO)c(F)c3F)cc2n1C(=O)OCCCOS(=O)(=O)[O-]

>  <Energy>  (18) 
91.85889581944981

>  <Genealogy>  (18) 
[NH-]C(=O)c1cc2ccc(-c3cc(F)c(CO)c(F)c3F)cc2n1C(=O)OCCCOS(=O)(=O)[O-] (protonated)
[NH-]C(=O)c1cc2ccc(-c3cc(F)c(CO)c(F)c3F)cc2n1C(=O)OCCCOS(=O)(=O)[O-] (3D coordinates assigned)
[NH-]C(=O)c1cc2ccc(-c3cc(F)c(CO)c(F)c3F)cc2n1C(=O)OCCCOS(=O)(=O)[O-] (optimized conformer: 91.85889581944981 kcal/mol)

>  <smiles>  (18) 
NC(=O)c1cc2ccc(-c3cc(F)c(CO)c(F)c3F)cc2n1C(=O)OCCCOS(=O)(=O)O

>  <score_type>  (18) 
oracle

>  <origin>  (18) 
adg

>  <m_score__min__energy>  (18) 
-13.710000000000001

>  <m_primary>  (18) 
energy

$$$$
18:0
     RDKit          3D

 32 34  0  0  0  0  0  0  0  0999 V2000
   -1.2360   25.1790  -29.2620 N   0  0  0  0  0  0  0  0  0  0  0  0
   -1.0540   23.7690  -29.3910 C   0  0  0  0  0  0  0  0  0  0  0  0
    0.0000   23.2390  -28.9460 O   0  0  0  0  0  0  0  0  0  0  0  0
   -2.0450   22.9300  -30.0950 C   0  0  0  0  0  0  0  0  0  0  0  0
   -1.7740   21.6410  -30.5440 C   0  0  0  0  0  0  0  0  0  0  0  0
   -2.9180   21.2350  -31.1910 C   0  0  0  0  0  0  0  0  0  0  0  0
   -3.2080   20.0280  -31.8180 C   0  0  0  0  0  0  0  0  0  0  0  0
   -4.4870   19.8630  -32.3720 C   0  0  0  0  0  0  0  0  0  0  0  0
   -5.4570   20.8990  -32.2840 C   0  0  0  0  0  0  0  0  0  0  0  0
   -6.8510   20.7350  -32.8630 C   0  0  0  0  0  0  0  0  0  0  0  0
   -7.4160   19.3180  -32.7640 C   0  0  0  0  0  0  0  0  0  0  0  0
   -8.5330   19.8300  -31.8630 C   0  0  0  0  0  0  0  0  0  0  0  0
   -7.9750   21.2450  -31.9630 C   0  0  0  0  0  0  0  0  0  0  0  0
   -5.1220   22.1090  -31.6360 C   0  0  0  0  0  0  0  0  0  0  0  0
   -3.8310   22.2550  -31.1120 C   0  0  0  0  0  0  0  0  0  0  0  0
   -3.3090   23.3050  -30.4370 N   0  0  0  0  0  0  0  0  0  0  0  0
   -3.9970   24.5100  -30.0590 C   0  0  0  0  0  0  0  0  0  0  0  0
   -4.7280   24.5300  -29.0340 O   0  0  0  0  0  0  0  0  0  0  0  0
   -3.8630   25.6660  -30.8180 O   0  0  0  0  0  0  0  0  0  0  0  0
   -2.0080   25.6710  -29.7640 H   0  0  0  0  0  0  0  0  0  0  0  0
   -0.5440   25.7510  -28.7280 H   0  0  0  0  0  0  0  0  0  0  0  0
   -0.8439   21.0691  -30.4102 H   0  0  0  0  0  0  0  0  0  0  0  0
   -2.4572   19.2263  -31.8780 H   0  0  0  0  0  0  0  0  0  0  0  0
   -4.7420   18.9213  -32.8802 H   0  0  0  0  0  0  0  0  0  0  0  0
   -6.6732   21.1956  -33.8460 H   0  0  0  0  0  0  0  0  0  0  0  0
   -7.7648   18.9051  -33.7221 H   0  0  0  0  0  0  0  0  0  0  0  0
   -6.7763   18.4837  -32.4403 H   0  0  0  0  0  0  0  0  0  0  0  0
   -9.5406   19.7146  -32.2890 H   0  0  0  0  0  0  0  0  0  0  0  0
   -8.7057   19.3705  -30.8786 H   0  0  0  0  0  0  0  0  0  0  0  0
   -8.6518   21.9616  -32.4513 H   0  0  0  0  0  0  0  0  0  0  0  0
   -7.7442   21.8191  -31.0535 H   0  0  0  0  0  0  0  0  0  0  0  0
   -5.8598   22.9198  -31.5448 H   0  0  0  0  0  0  0  0  0  0  0  0
  1  2  1  0
  2  3  2  0
  2  4  1  0
  4  5  2  0
  5  6  1  0
  6  7  2  0
  7  8  1  0
  8  9  2  0
  9 10  1  0
 10 11  1  0
 11 12  1  0
 12 13  1  0
  9 14  1  0
 14 15  2  0
 15 16  1  0
 16 17  1  0
 17 18  2  0
 17 19  1  0
 16  4  1  0
 15  6  1  0
 13 10  1  0
  1 20  1  0
  1 21  1  0
  5 22  1  0
  7 23  1  0
  8 24  1  0
 10 25  1  0
 11 26  1  0
 11 27  1  0
 12 28  1  0
 12 29  1  0
 13 30  1  0
 13 31  1  0
 14 32  1  0
M  CHG  1  19  -1
M  END
>  <UniqueID>  (19) 
19

>  <SMILES>  (19) 
NC(=O)c1cc2ccc(C3CCC3)cc2n1C(=O)[O-]

>  <Energy>  (19) 
134.69121041391878

>  <Genealogy>  (19) 
NC(=O)c1cc2ccc(C3CCC3)cc2n1C(=O)[O-] (protonated)
NC(=O)c1cc2ccc(C3CCC3)cc2n1C(=O)[O-] (3D coordinates assigned)
NC(=O)c1cc2ccc(C3CCC3)cc2n1C(=O)[O-] (nonaromatic ring conformer: 134.69121041391878 kcal/mol)

>  <smiles>  (19) 
NC(=O)c1cc2ccc(C3CCC3)cc2n1C(=O)O

>  <score_type>  (19) 
oracle

>  <origin>  (19) 
adg

>  <m_score__min__energy>  (19) 
-9.2899999999999991

>  <m_primary>  (19) 
energy

$$$$
19:0
     RDKit          3D

 44 46  0  0  0  0  0  0  0  0999 V2000
   -3.3340   18.9520  -33.6100 C   0  0  0  0  0  0  0  0  0  0  0  0
   -4.4720   18.1260  -33.4060 O   0  0  0  0  0  0  0  0  0  0  0  0
   -5.7100   18.3870  -34.0020 C   0  0  0  0  0  0  0  0  0  0  0  0
   -5.8040   18.5320  -35.2520 O   0  0  0  0  0  0  0  0  0  0  0  0
   -6.9340   18.4880  -33.1480 C   0  0  0  0  0  0  0  0  0  0  0  0
   -7.0820   19.8850  -32.6100 C   0  0  0  0  0  0  0  0  0  0  0  0
   -8.3720   20.4410  -32.4230 C   0  0  0  0  0  0  0  0  0  0  0  0
   -8.5240   21.7390  -31.9090 C   0  0  0  0  0  0  0  0  0  0  0  0
   -7.3730   22.4470  -31.5760 C   0  0  0  0  0  0  0  0  0  0  0  0
   -7.2310   23.7260  -31.0860 C   0  0  0  0  0  0  0  0  0  0  0  0
   -5.8590   23.9170  -30.9450 C   0  0  0  0  0  0  0  0  0  0  0  0
   -5.2650   25.1400  -30.3660 C   0  0  0  0  0  0  0  0  0  0  0  0
   -4.0250   25.6510  -30.8480 N   0  0  0  0  0  0  0  0  0  0  0  0
   -5.8360   25.7120  -29.4000 O   0  0  0  0  0  0  0  0  0  0  0  0
   -5.1770   22.8030  -31.3380 N   0  0  0  0  0  0  0  0  0  0  0  0
   -3.7530   22.6340  -31.4260 C   0  0  0  0  0  0  0  0  0  0  0  0
   -3.2510   22.0320  -32.4140 O   0  0  0  0  0  0  0  0  0  0  0  0
   -2.9300   23.1500  -30.4180 O   0  0  0  0  0  0  0  0  0  0  0  0
   -1.5770   22.7440  -30.2200 C   0  0  0  0  0  0  0  0  0  0  0  0
   -1.0270   23.2510  -28.8840 C   0  0  0  0  0  0  0  0  0  0  0  0
   -1.7090   24.5550  -28.4520 C   0  0  0  0  0  0  0  0  0  0  0  0
   -1.5760   25.6790  -29.2500 F   0  0  0  0  0  0  0  0  0  0  0  0
   -1.7470   24.8480  -26.9610 C   0  0  0  0  0  0  0  0  0  0  0  0
   -3.0210   24.4450  -27.6950 C   0  0  0  0  0  0  0  0  0  0  0  0
   -6.1190   21.9130  -31.7210 C   0  0  0  0  0  0  0  0  0  0  0  0
   -5.9370   20.6280  -32.2480 C   0  0  0  0  0  0  0  0  0  0  0  0
   -2.9198   19.2526  -32.6363 H   0  0  0  0  0  0  0  0  0  0  0  0
   -2.5730   18.3946  -34.1758 H   0  0  0  0  0  0  0  0  0  0  0  0
   -3.6282   19.8483  -34.1758 H   0  0  0  0  0  0  0  0  0  0  0  0
   -7.8188   18.2358  -33.7509 H   0  0  0  0  0  0  0  0  0  0  0  0
   -6.8404   17.7880  -32.3046 H   0  0  0  0  0  0  0  0  0  0  0  0
   -9.2627   19.8502  -32.6829 H   0  0  0  0  0  0  0  0  0  0  0  0
   -9.5216   22.1823  -31.7738 H   0  0  0  0  0  0  0  0  0  0  0  0
   -8.0315   24.4443  -30.8550 H   0  0  0  0  0  0  0  0  0  0  0  0
   -3.1160   25.2980  -30.4750 H   0  0  0  0  0  0  0  0  0  0  0  0
   -1.5284   21.6451  -30.2323 H   0  0  0  0  0  0  0  0  0  0  0  0
   -0.9669   23.1728  -31.0286 H   0  0  0  0  0  0  0  0  0  0  0  0
   -1.1994   22.4854  -28.1132 H   0  0  0  0  0  0  0  0  0  0  0  0
    0.0480   23.4489  -29.0070 H   0  0  0  0  0  0  0  0  0  0  0  0
   -1.2771   24.1515  -26.2510 H   0  0  0  0  0  0  0  0  0  0  0  0
   -1.4490   25.6954  -26.3261 H   0  0  0  0  0  0  0  0  0  0  0  0
   -3.4710   23.4576  -27.5146 H   0  0  0  0  0  0  0  0  0  0  0  0
   -4.0244   24.8811  -27.8093 H   0  0  0  0  0  0  0  0  0  0  0  0
   -4.9283   20.2085  -32.3765 H   0  0  0  0  0  0  0  0  0  0  0  0
  1  2  1  0
  2  3  1  0
  3  4  2  0
  3  5  1  0
  5  6  1  0
  6  7  2  0
  7  8  1  0
  8  9  2  0
  9 10  1  0
 10 11  2  0
 11 12  1  0
 12 13  1  0
 12 14  2  0
 11 15  1  0
 15 16  1  0
 16 17  2  0
 16 18  1  0
 18 19  1  0
 19 20  1  0
 20 21  1  0
 21 22  1  0
 21 23  1  0
 23 24  1  0
 15 25  1  0
 25 26  2  0
 26  6  1  0
 25  9  1  0
 24 21  1  0
  1 27  1  0
  1 28  1  0
  1 29  1  0
  5 30  1  0
  5 31  1  0
  7 32  1  0
  8 33  1  0
 10 34  1  0
 13 35  1  0
 19 36  1  0
 19 37  1  0
 20 38  1  0
 20 39  1  0
 23 40  1  0
 23 41  1  0
 24 42  1  0
 24 43  1  0
 26 44  1  0
M  CHG  1  13  -1
M  END
>  <UniqueID>  (20) 
20

>  <SMILES>  (20) 
COC(=O)Cc1ccc2cc(C([NH-])=O)n(C(=O)OCCC3(F)CC3)c2c1

>  <Energy>  (20) 
342.1922003361309

>  <Genealogy>  (20) 
COC(=O)Cc1ccc2cc(C([NH-])=O)n(C(=O)OCCC3(F)CC3)c2c1 (protonated)
COC(=O)Cc1ccc2cc(C([NH-])=O)n(C(=O)OCCC3(F)CC3)c2c1 (3D coordinates assigned)
COC(=O)Cc1ccc2cc(C([NH-])=O)n(C(=O)OCCC3(F)CC3)c2c1 (nonaromatic ring conformer: 342.1922003361309 kcal/mol)

>  <smiles>  (20) 
COC(=O)Cc1ccc2cc(C(N)=O)n(C(=O)OCCC3(F)CC3)c2c1

>  <score_type>  (20) 
oracle

>  <origin>  (20) 
adg

>  <m_score__min__energy>  (20) 
-10.91

>  <m_primary>  (20) 
energy

$$$$
20:0
     RDKit          3D

 39 40  0  0  0  0  0  0  0  0999 V2000
   -5.3910   17.8220  -34.9540 C   0  0  0  0  0  0  0  0  0  0  0  0
   -6.4270   17.0360  -34.4080 O   0  0  0  0  0  0  0  0  0  0  0  0
   -6.1320   16.6960  -33.0670 C   0  0  0  0  0  0  0  0  0  0  0  0
   -6.8440   17.6560  -32.1090 C   0  0  0  0  0  0  0  0  0  0  0  0
   -7.4890   18.7400  -32.8490 N   0  0  0  0  0  0  0  0  0  0  0  0
   -7.5420   20.1120  -32.4120 C   0  0  0  0  0  0  0  0  0  0  0  0
   -8.7720   20.8180  -32.2960 C   0  0  0  0  0  0  0  0  0  0  0  0
   -8.7950   22.1560  -31.8650 C   0  0  0  0  0  0  0  0  0  0  0  0
   -7.5840   22.7650  -31.5580 C   0  0  0  0  0  0  0  0  0  0  0  0
   -7.3160   24.0440  -31.1200 C   0  0  0  0  0  0  0  0  0  0  0  0
   -5.9310   24.0990  -30.9680 C   0  0  0  0  0  0  0  0  0  0  0  0
   -5.2020   25.2730  -30.4460 C   0  0  0  0  0  0  0  0  0  0  0  0
   -3.8630   25.5230  -30.8660 N   0  0  0  0  0  0  0  0  0  0  0  0
   -5.7570   26.0700  -29.6440 O   0  0  0  0  0  0  0  0  0  0  0  0
   -5.3700   22.9050  -31.3100 N   0  0  0  0  0  0  0  0  0  0  0  0
   -3.9800   22.5520  -31.3120 C   0  0  0  0  0  0  0  0  0  0  0  0
   -3.2540   22.8970  -30.3410 O   0  0  0  0  0  0  0  0  0  0  0  0
   -3.4030   21.6960  -32.4080 C   0  0  0  0  0  0  0  0  0  0  0  0
   -4.2110   21.7510  -33.5300 F   0  0  0  0  0  0  0  0  0  0  0  0
   -2.1490   22.1760  -32.7480 F   0  0  0  0  0  0  0  0  0  0  0  0
   -3.2810   20.2360  -31.9570 C   0  0  0  0  0  0  0  0  0  0  0  0
   -3.9460   20.0650  -30.7570 F   0  0  0  0  0  0  0  0  0  0  0  0
   -3.8410   19.3930  -32.9020 F   0  0  0  0  0  0  0  0  0  0  0  0
   -1.9510   19.9010  -31.7800 F   0  0  0  0  0  0  0  0  0  0  0  0
   -6.3920   22.0980  -31.6570 C   0  0  0  0  0  0  0  0  0  0  0  0
   -6.3350   20.7690  -32.0810 C   0  0  0  0  0  0  0  0  0  0  0  0
   -4.8018   18.2690  -34.1397 H   0  0  0  0  0  0  0  0  0  0  0  0
   -4.7387   17.1895  -35.5741 H   0  0  0  0  0  0  0  0  0  0  0  0
   -5.8244   18.6205  -35.5741 H   0  0  0  0  0  0  0  0  0  0  0  0
   -6.4707   15.6682  -32.8698 H   0  0  0  0  0  0  0  0  0  0  0  0
   -5.0460   16.7704  -32.9084 H   0  0  0  0  0  0  0  0  0  0  0  0
   -7.6067   17.1015  -31.5427 H   0  0  0  0  0  0  0  0  0  0  0  0
   -6.1001   18.0888  -31.4240 H   0  0  0  0  0  0  0  0  0  0  0  0
   -7.9280   18.4930  -33.7650 H   0  0  0  0  0  0  0  0  0  0  0  0
   -9.7156   20.3111  -32.5464 H   0  0  0  0  0  0  0  0  0  0  0  0
   -9.7438   22.7049  -31.7734 H   0  0  0  0  0  0  0  0  0  0  0  0
   -8.0404   24.8498  -30.9307 H   0  0  0  0  0  0  0  0  0  0  0  0
   -3.0550   25.0750  -30.3780 H   0  0  0  0  0  0  0  0  0  0  0  0
   -5.3711   20.2443  -32.1559 H   0  0  0  0  0  0  0  0  0  0  0  0
  1  2  1  0
  2  3  1  0
  3  4  1  0
  4  5  1  0
  5  6  1  0
  6  7  2  0
  7  8  1  0
  8  9  2  0
  9 10  1  0
 10 11  2  0
 11 12  1  0
 12 13  1  0
 12 14  2  0
 11 15  1  0
 15 16  1  0
 16 17  2  0
 16 18  1  0
 18 19  1  0
 18 20  1  0
 18 21  1  0
 21 22  1  0
 21 23  1  0
 21 24  1  0
 15 25  1  0
 25 26  2  0
 26  6  1  0
 25  9  1  0
  1 27  1  0
  1 28  1  0
  1 29  1  0
  3 30  1  0
  3 31  1  0
  4 32  1  0
  4 33  1  0
  5 34  1  0
  7 35  1  0
  8 36  1  0
 10 37  1  0
 13 38  1  0
 26 39  1  0
M  CHG  1  13  -1
M  END
>  <UniqueID>  (21) 
21

>  <SMILES>  (21) 
COCCNc1ccc2cc(C([NH-])=O)n(C(=O)C(F)(F)C(F)(F)F)c2c1

>  <Energy>  (21) 
76.50160654320086

>  <Genealogy>  (21) 
COCCNc1ccc2cc(C([NH-])=O)n(C(=O)C(F)(F)C(F)(F)F)c2c1 (protonated)
COCCNc1ccc2cc(C([NH-])=O)n(C(=O)C(F)(F)C(F)(F)F)c2c1 (3D coordinates assigned)
COCCNc1ccc2cc(C([NH-])=O)n(C(=O)C(F)(F)C(F)(F)F)c2c1 (optimized conformer: 76.50160654320086 kcal/mol)

>  <smiles>  (21) 
COCCNc1ccc2cc(C(N)=O)n(C(=O)C(F)(F)C(F)(F)F)c2c1

>  <score_type>  (21) 
oracle

>  <origin>  (21) 
adg

>  <m_score__min__energy>  (21) 
-9.3900000000000006

>  <m_primary>  (21) 
energy

$$$$
21:0
     RDKit          3D

 26 27  0  0  0  0  0  0  0  0999 V2000
   -1.6190   25.6710  -28.9700 N   0  0  0  0  0  0  0  0  0  0  0  0
   -1.0430   24.3890  -29.2110 C   0  0  0  0  0  0  0  0  0  0  0  0
    0.0470   24.0890  -28.6550 O   0  0  0  0  0  0  0  0  0  0  0  0
   -1.7320   23.3910  -30.0540 C   0  0  0  0  0  0  0  0  0  0  0  0
   -1.1140   22.2410  -30.5390 C   0  0  0  0  0  0  0  0  0  0  0  0
   -2.1040   21.5410  -31.1870 C   0  0  0  0  0  0  0  0  0  0  0  0
   -2.0460   20.3230  -31.8600 C   0  0  0  0  0  0  0  0  0  0  0  0
   -3.2220   19.8440  -32.4600 C   0  0  0  0  0  0  0  0  0  0  0  0
   -4.4220   20.5930  -32.3920 C   0  0  0  0  0  0  0  0  0  0  0  0
   -5.6800   20.0610  -33.0210 C   0  0  0  0  0  0  0  0  0  0  0  0
   -5.4380   18.6920  -33.5710 C   0  0  0  0  0  0  0  0  0  0  0  0
   -5.4470   17.6910  -32.8070 O   0  0  0  0  0  0  0  0  0  0  0  0
   -5.2520   18.5150  -34.9360 O   0  0  0  0  0  0  0  0  0  0  0  0
   -4.4470   21.8200  -31.6920 C   0  0  0  0  0  0  0  0  0  0  0  0
   -3.2640   22.2640  -31.0880 C   0  0  0  0  0  0  0  0  0  0  0  0
   -3.0520   23.4060  -30.3960 N   0  0  0  0  0  0  0  0  0  0  0  0
   -4.0060   24.4560  -30.1690 C   0  0  0  0  0  0  0  0  0  0  0  0
   -4.9730   24.2790  -29.3820 O   0  0  0  0  0  0  0  0  0  0  0  0
   -3.8870   25.6680  -30.8370 O   0  0  0  0  0  0  0  0  0  0  0  0
   -2.6490   25.8190  -29.0470 H   0  0  0  0  0  0  0  0  0  0  0  0
   -0.0580   21.9538  -30.4273 H   0  0  0  0  0  0  0  0  0  0  0  0
   -1.1070   19.7531  -31.9198 H   0  0  0  0  0  0  0  0  0  0  0  0
   -3.2109   18.8787  -32.9873 H   0  0  0  0  0  0  0  0  0  0  0  0
   -6.4747   20.0133  -32.2619 H   0  0  0  0  0  0  0  0  0  0  0  0
   -5.9850   20.7299  -33.8393 H   0  0  0  0  0  0  0  0  0  0  0  0
   -5.3719   22.4114  -31.6232 H   0  0  0  0  0  0  0  0  0  0  0  0
  1  2  1  0
  2  3  2  0
  2  4  1  0
  4  5  2  0
  5  6  1  0
  6  7  2  0
  7  8  1  0
  8  9  2  0
  9 10  1  0
 10 11  1  0
 11 12  2  0
 11 13  1  0
  9 14  1  0
 14 15  2  0
 15 16  1  0
 16 17  1  0
 17 18  2  0
 17 19  1  0
 16  4  1  0
 15  6  1  0
  1 20  1  0
  5 21  1  0
  7 22  1  0
  8 23  1  0
 10 24  1  0
 10 25  1  0
 14 26  1  0
M  CHG  3   1  -1  13  -1  19  -1
M  END
>  <UniqueID>  (22) 
22

>  <SMILES>  (22) 
[NH-]C(=O)c1cc2ccc(CC(=O)[O-])cc2n1C(=O)[O-]

>  <Energy>  (22) 
64.85566555676793

>  <Genealogy>  (22) 
[NH-]C(=O)c1cc2ccc(CC(=O)[O-])cc2n1C(=O)[O-] (protonated)
[NH-]C(=O)c1cc2ccc(CC(=O)[O-])cc2n1C(=O)[O-] (3D coordinates assigned)
[NH-]C(=O)c1cc2ccc(CC(=O)[O-])cc2n1C(=O)[O-] (optimized conformer: 64.85566555676793 kcal/mol)

>  <smiles>  (22) 
NC(=O)c1cc2ccc(CC(=O)O)cc2n1C(=O)O

>  <score_type>  (22) 
oracle

>  <origin>  (22) 
adg

>  <m_score__min__energy>  (22) 
-9.7699999999999996

>  <m_primary>  (22) 
energy

$$$$
22:0
     RDKit          3D

 30 32  0  0  0  0  0  0  0  0999 V2000
   -1.5660   25.6640  -29.0740 N   0  0  0  0  0  0  0  0  0  0  0  0
   -0.9090   24.4010  -29.0120 C   0  0  0  0  0  0  0  0  0  0  0  0
    0.0950   24.2640  -28.2620 O   0  0  0  0  0  0  0  0  0  0  0  0
   -1.3530   23.2700  -29.8530 C   0  0  0  0  0  0  0  0  0  0  0  0
   -0.5400   22.1800  -30.1600 C   0  0  0  0  0  0  0  0  0  0  0  0
   -1.2770   21.4080  -31.0270 C   0  0  0  0  0  0  0  0  0  0  0  0
   -0.9560   20.2030  -31.6460 C   0  0  0  0  0  0  0  0  0  0  0  0
   -1.9220   19.6120  -32.4770 C   0  0  0  0  0  0  0  0  0  0  0  0
   -3.1880   20.2200  -32.6570 C   0  0  0  0  0  0  0  0  0  0  0  0
   -4.2040   19.5900  -33.5690 C   0  0  0  0  0  0  0  0  0  0  0  0
   -5.5820   19.9040  -33.0850 C   0  0  0  0  0  0  0  0  0  0  0  0
   -6.1450   21.1240  -33.1120 N   0  0  0  0  0  0  0  0  0  0  0  0
   -7.3730   21.0070  -32.6380 N   0  0  0  0  0  0  0  0  0  0  0  0
   -7.5160   19.7000  -32.3390 C   0  0  0  0  0  0  0  0  0  0  0  0
   -8.9750   19.0010  -31.6720 Cl  0  0  0  0  0  0  0  0  0  0  0  0
   -6.4250   19.0180  -32.6120 O   0  0  0  0  0  0  0  0  0  0  0  0
   -3.4760   21.4480  -32.0200 C   0  0  0  0  0  0  0  0  0  0  0  0
   -2.4870   22.0250  -31.2140 C   0  0  0  0  0  0  0  0  0  0  0  0
   -2.5510   23.1700  -30.4980 N   0  0  0  0  0  0  0  0  0  0  0  0
   -3.6890   24.0400  -30.3850 C   0  0  0  0  0  0  0  0  0  0  0  0
   -3.5720   25.2740  -30.6080 O   0  0  0  0  0  0  0  0  0  0  0  0
   -4.9240   23.5320  -30.0010 O   0  0  0  0  0  0  0  0  0  0  0  0
   -1.2150   26.4210  -29.7030 H   0  0  0  0  0  0  0  0  0  0  0  0
    0.4756   21.9799  -29.7877 H   0  0  0  0  0  0  0  0  0  0  0  0
    0.0239   19.7284  -31.4891 H   0  0  0  0  0  0  0  0  0  0  0  0
   -1.6928   18.6679  -32.9928 H   0  0  0  0  0  0  0  0  0  0  0  0
   -4.0756   19.9856  -34.5874 H   0  0  0  0  0  0  0  0  0  0  0  0
   -4.0606   18.4994  -33.5742 H   0  0  0  0  0  0  0  0  0  0  0  0
   -5.7140   22.0150  -33.4480 H   0  0  0  0  0  0  0  0  0  0  0  0
   -4.4517   21.9379  -32.1538 H   0  0  0  0  0  0  0  0  0  0  0  0
  1  2  1  0
  2  3  2  0
  2  4  1  0
  4  5  2  0
  5  6  1  0
  6  7  2  0
  7  8  1  0
  8  9  2  0
  9 10  1  0
 10 11  1  0
 11 12  2  0
 12 13  1  0
 13 14  2  0
 14 15  1  0
 14 16  1  0
  9 17  1  0
 17 18  2  0
 18 19  1  0
 19 20  1  0
 20 21  2  0
 20 22  1  0
 19  4  1  0
 18  6  1  0
 16 11  1  0
  1 23  1  0
  5 24  1  0
  7 25  1  0
  8 26  1  0
 10 27  1  0
 10 28  1  0
 12 29  1  0
 17 30  1  0
M  CHG  3   1  -1  12   1  22  -1
M  END
>  <UniqueID>  (23) 
23

>  <SMILES>  (23) 
[NH-]C(=O)c1cc2ccc(Cc3[nH+]nc(Cl)o3)cc2n1C(=O)[O-]

>  <Energy>  (23) 
105.75492773831253

>  <Genealogy>  (23) 
[NH-]C(=O)c1cc2ccc(Cc3[nH+]nc(Cl)o3)cc2n1C(=O)[O-] (protonated)
[NH-]C(=O)c1cc2ccc(Cc3[nH+]nc(Cl)o3)cc2n1C(=O)[O-] (3D coordinates assigned)
[NH-]C(=O)c1cc2ccc(Cc3[nH+]nc(Cl)o3)cc2n1C(=O)[O-] (optimized conformer: 105.75492773831253 kcal/mol)

>  <smiles>  (23) 
NC(=O)c1cc2ccc(Cc3nnc(Cl)o3)cc2n1C(=O)O

>  <score_type>  (23) 
oracle

>  <origin>  (23) 
adg

>  <m_score__min__energy>  (23) 
-11.41

>  <m_primary>  (23) 
energy

$$$$
23:0
     RDKit          3D

 59 60  0  0  0  0  0  0  0  0999 V2000
   -1.3080   25.4590  -26.8280 C   0  0  0  0  0  0  0  0  0  0  0  0
   -1.8410   25.1980  -28.1940 C   0  0  0  0  0  0  0  0  0  0  0  0
   -1.2420   25.6680  -29.1980 O   0  0  0  0  0  0  0  0  0  0  0  0
   -2.9970   24.4250  -28.3510 O   0  0  0  0  0  0  0  0  0  0  0  0
   -3.0270   23.0240  -28.1100 C   0  0  0  0  0  0  0  0  0  0  0  0
   -2.7200   22.2620  -29.3960 C   0  0  0  0  0  0  0  0  0  0  0  0
   -2.9720   23.0810  -30.5360 O   0  0  0  0  0  0  0  0  0  0  0  0
   -3.8670   22.7380  -31.5560 C   0  0  0  0  0  0  0  0  0  0  0  0
   -3.4490   22.2390  -32.6360 O   0  0  0  0  0  0  0  0  0  0  0  0
   -5.2700   22.9850  -31.3790 N   0  0  0  0  0  0  0  0  0  0  0  0
   -5.8710   24.0770  -30.8250 C   0  0  0  0  0  0  0  0  0  0  0  0
   -5.1980   25.3280  -30.4180 C   0  0  0  0  0  0  0  0  0  0  0  0
   -3.8720   25.6280  -30.8470 N   0  0  0  0  0  0  0  0  0  0  0  0
   -5.8220   26.1680  -29.7150 O   0  0  0  0  0  0  0  0  0  0  0  0
   -7.2520   23.8950  -30.7660 C   0  0  0  0  0  0  0  0  0  0  0  0
   -7.4800   22.6520  -31.3110 C   0  0  0  0  0  0  0  0  0  0  0  0
   -8.6730   21.9580  -31.4900 C   0  0  0  0  0  0  0  0  0  0  0  0
   -8.6090   20.6740  -32.0600 C   0  0  0  0  0  0  0  0  0  0  0  0
   -7.3640   20.1130  -32.4380 C   0  0  0  0  0  0  0  0  0  0  0  0
   -7.3020   18.7230  -33.0170 C   0  0  0  0  0  0  0  0  0  0  0  0
   -6.1650   17.9040  -32.3930 C   0  0  0  0  0  0  0  0  0  0  0  0
   -4.9720   17.8880  -33.2670 N   0  0  0  0  0  0  0  0  0  0  0  0
   -5.2980   18.2120  -34.6670 C   0  0  0  0  0  0  0  0  0  0  0  0
   -3.8640   18.7160  -32.7380 C   0  0  0  0  0  0  0  0  0  0  0  0
   -2.9560   19.3230  -33.8430 C   0  0  0  0  0  0  0  0  0  0  0  0
   -1.6060   19.7110  -33.3730 N   0  0  0  0  0  0  0  0  0  0  0  0
   -1.5430   19.9330  -31.9200 C   0  0  0  0  0  0  0  0  0  0  0  0
   -1.0460   20.8540  -34.1110 C   0  0  0  0  0  0  0  0  0  0  0  0
   -6.1730   20.8440  -32.2280 C   0  0  0  0  0  0  0  0  0  0  0  0
   -6.2680   22.1260  -31.6750 C   0  0  0  0  0  0  0  0  0  0  0  0
   -2.0311   25.1049  -26.0784 H   0  0  0  0  0  0  0  0  0  0  0  0
   -0.3547   24.9258  -26.6983 H   0  0  0  0  0  0  0  0  0  0  0  0
   -1.1446   26.5390  -26.6983 H   0  0  0  0  0  0  0  0  0  0  0  0
   -2.2748   22.7700  -27.3486 H   0  0  0  0  0  0  0  0  0  0  0  0
   -4.0295   22.7418  -27.7559 H   0  0  0  0  0  0  0  0  0  0  0  0
   -1.6621   21.9605  -29.3940 H   0  0  0  0  0  0  0  0  0  0  0  0
   -3.3680   21.3746  -29.4462 H   0  0  0  0  0  0  0  0  0  0  0  0
   -3.0430   25.2640  -30.3250 H   0  0  0  0  0  0  0  0  0  0  0  0
   -8.0005   24.5961  -30.3683 H   0  0  0  0  0  0  0  0  0  0  0  0
   -9.6360   22.4001  -31.1948 H   0  0  0  0  0  0  0  0  0  0  0  0
   -9.5344   20.0996  -32.2139 H   0  0  0  0  0  0  0  0  0  0  0  0
   -8.2573   18.2127  -32.8245 H   0  0  0  0  0  0  0  0  0  0  0  0
   -7.1137   18.8074  -34.0975 H   0  0  0  0  0  0  0  0  0  0  0  0
   -5.8934   18.3482  -31.4240 H   0  0  0  0  0  0  0  0  0  0  0  0
   -6.5137   16.8689  -32.2625 H   0  0  0  0  0  0  0  0  0  0  0  0
   -6.0780   18.9872  -34.6919 H   0  0  0  0  0  0  0  0  0  0  0  0
   -4.3966   18.5824  -35.1771 H   0  0  0  0  0  0  0  0  0  0  0  0
   -5.6628   17.3083  -35.1771 H   0  0  0  0  0  0  0  0  0  0  0  0
   -4.2958   19.5404  -32.1515 H   0  0  0  0  0  0  0  0  0  0  0  0
   -3.2307   18.0545  -32.1286 H   0  0  0  0  0  0  0  0  0  0  0  0
   -2.8416   18.5776  -34.6438 H   0  0  0  0  0  0  0  0  0  0  0  0
   -3.4486   20.2446  -34.1865 H   0  0  0  0  0  0  0  0  0  0  0  0
   -1.8069   19.0030  -31.3952 H   0  0  0  0  0  0  0  0  0  0  0  0
   -0.5235   20.2358  -31.6392 H   0  0  0  0  0  0  0  0  0  0  0  0
   -2.2515   20.7262  -31.6392 H   0  0  0  0  0  0  0  0  0  0  0  0
   -0.6776   21.6060  -33.3977 H   0  0  0  0  0  0  0  0  0  0  0  0
   -0.2143   20.5101  -34.7435 H   0  0  0  0  0  0  0  0  0  0  0  0
   -1.8274   21.3004  -34.7435 H   0  0  0  0  0  0  0  0  0  0  0  0
   -5.1950   20.4157  -32.4928 H   0  0  0  0  0  0  0  0  0  0  0  0
  1  2  1  0
  2  3  2  0
  2  4  1  0
  4  5  1  0
  5  6  1  0
  6  7  1  0
  7  8  1  0
  8  9  2  0
  8 10  1  0
 10 11  1  0
 11 12  1  0
 12 13  1  0
 12 14  2  0
 11 15  2  0
 15 16  1  0
 16 17  2  0
 17 18  1  0
 18 19  2  0
 19 20  1  0
 20 21  1  0
 21 22  1  0
 22 23  1  0
 22 24  1  0
 24 25  1  0
 25 26  1  0
 26 27  1  0
 26 28  1  0
 19 29  1  0
 29 30  2  0
 30 10  1  0
 30 16  1  0
  1 31  1  0
  1 32  1  0
  1 33  1  0
  5 34  1  0
  5 35  1  0
  6 36  1  0
  6 37  1  0
 13 38  1  0
 15 39  1  0
 17 40  1  0
 18 41  1  0
 20 42  1  0
 20 43  1  0
 21 44  1  0
 21 45  1  0
 23 46  1  0
 23 47  1  0
 23 48  1  0
 24 49  1  0
 24 50  1  0
 25 51  1  0
 25 52  1  0
 27 53  1  0
 27 54  1  0
 27 55  1  0
 28 56  1  0
 28 57  1  0
 28 58  1  0
 29 59  1  0
M  CHG  1  13  -1
M  END
>  <UniqueID>  (24) 
24

>  <SMILES>  (24) 
CC(=O)OCCOC(=O)n1c(C([NH-])=O)cc2ccc(CCN(C)CCN(C)C)cc21

>  <Energy>  (24) 
91.66063764850374

>  <Genealogy>  (24) 
CC(=O)OCCOC(=O)n1c(C([NH-])=O)cc2ccc(CCN(C)CCN(C)C)cc21 (protonated)
CC(=O)OCCOC(=O)n1c(C([NH-])=O)cc2ccc(CCN(C)CCN(C)C)cc21 (3D coordinates assigned)
CC(=O)OCCOC(=O)n1c(C([NH-])=O)cc2ccc(CCN(C)CCN(C)C)cc21 (optimized conformer: 91.66063764850374 kcal/mol)

>  <smiles>  (24) 
CC(=O)OCCOC(=O)n1c(C(N)=O)cc2ccc(CCN(C)CCN(C)C)cc21

>  <score_type>  (24) 
oracle

>  <origin>  (24) 
adg

>  <m_score__min__energy>  (24) 
-10.359999999999999

>  <m_primary>  (24) 
energy

$$$$
24:0
     RDKit          3D

 47 48  0  0  0  0  0  0  0  0999 V2000
   -2.1120   17.1790  -34.8680 N   0  0  0  0  0  0  0  0  0  0  0  0
   -3.5080   17.4600  -34.9250 C   0  0  0  0  0  0  0  0  0  0  0  0
   -4.2370   16.8010  -35.7110 O   0  0  0  0  0  0  0  0  0  0  0  0
   -4.0880   18.4910  -34.0400 C   0  0  0  0  0  0  0  0  0  0  0  0
   -5.4310   18.5240  -33.6700 C   0  0  0  0  0  0  0  0  0  0  0  0
   -5.5730   19.6630  -32.9100 C   0  0  0  0  0  0  0  0  0  0  0  0
   -6.6940   20.1760  -32.2670 C   0  0  0  0  0  0  0  0  0  0  0  0
   -6.5390   21.3520  -31.5130 C   0  0  0  0  0  0  0  0  0  0  0  0
   -5.2760   21.9870  -31.4030 C   0  0  0  0  0  0  0  0  0  0  0  0
   -5.1650   23.1800  -30.6020 N   0  0  0  0  0  0  0  0  0  0  0  0
   -6.1050   24.3010  -30.6430 C   0  0  0  0  0  0  0  0  0  0  0  0
   -5.3700   25.6300  -30.4590 C   0  0  0  0  0  0  0  0  0  0  0  0
   -3.9280   25.4140  -30.4890 N   0  0  0  0  0  0  0  0  0  0  0  0
   -4.1620   21.4370  -32.0830 C   0  0  0  0  0  0  0  0  0  0  0  0
   -4.3490   20.2740  -32.8390 C   0  0  0  0  0  0  0  0  0  0  0  0
   -3.4280   19.5680  -33.5280 N   0  0  0  0  0  0  0  0  0  0  0  0
   -2.0250   19.8580  -33.6140 C   0  0  0  0  0  0  0  0  0  0  0  0
   -1.6100   20.7160  -34.4400 O   0  0  0  0  0  0  0  0  0  0  0  0
   -1.1290   19.2000  -32.7630 O   0  0  0  0  0  0  0  0  0  0  0  0
   -1.0670   19.4230  -31.3560 C   0  0  0  0  0  0  0  0  0  0  0  0
   -1.1170   20.9160  -31.0310 C   0  0  0  0  0  0  0  0  0  0  0  0
   -1.0540   21.0930  -29.6350 O   0  0  0  0  0  0  0  0  0  0  0  0
   -2.0200   22.4360  -29.2230 P   0  0  1  0  0  0  0  0  0  0  0  0
   -2.3090   23.2190  -30.4830 O   0  0  0  0  0  0  0  0  0  0  0  0
   -3.4780   21.8710  -28.5720 O   0  0  0  0  0  0  0  0  0  0  0  0
   -1.1890   23.4250  -28.1110 O   0  0  0  0  0  0  0  0  0  0  0  0
   -2.1090   24.8390  -27.8800 P   0  0  1  0  0  0  0  0  0  0  0  0
   -1.9770   25.3410  -26.4580 O   0  0  0  0  0  0  0  0  0  0  0  0
   -1.6180   26.0480  -28.9570 O   0  0  0  0  0  0  0  0  0  0  0  0
   -3.7360   24.4820  -28.1770 O   0  0  0  0  0  0  0  0  0  0  0  0
   -1.4430   17.8620  -34.4480 H   0  0  0  0  0  0  0  0  0  0  0  0
   -6.2122   17.7945  -33.9301 H   0  0  0  0  0  0  0  0  0  0  0  0
   -7.6713   19.6773  -32.3459 H   0  0  0  0  0  0  0  0  0  0  0  0
   -7.4103   21.7861  -31.0007 H   0  0  0  0  0  0  0  0  0  0  0  0
   -4.3600   23.2600  -29.9400 H   0  0  0  0  0  0  0  0  0  0  0  0
   -6.6202   24.3048  -31.6149 H   0  0  0  0  0  0  0  0  0  0  0  0
   -6.8321   24.1829  -29.8261 H   0  0  0  0  0  0  0  0  0  0  0  0
   -5.6519   26.3170  -31.2706 H   0  0  0  0  0  0  0  0  0  0  0  0
   -5.6487   26.0639  -29.4874 H   0  0  0  0  0  0  0  0  0  0  0  0
   -3.7430   24.4190  -30.2290 H   0  0  0  0  0  0  0  0  0  0  0  0
   -3.5030   26.0030  -29.7370 H   0  0  0  0  0  0  0  0  0  0  0  0
   -3.1724   21.9130  -32.0185 H   0  0  0  0  0  0  0  0  0  0  0  0
   -1.9203   18.9222  -30.8752 H   0  0  0  0  0  0  0  0  0  0  0  0
   -0.1168   19.0159  -30.9800 H   0  0  0  0  0  0  0  0  0  0  0  0
   -0.2634   21.4234  -31.5042 H   0  0  0  0  0  0  0  0  0  0  0  0
   -2.0551   21.3443  -31.4138 H   0  0  0  0  0  0  0  0  0  0  0  0
   -3.7200   23.8720  -28.9570 H   0  0  0  0  0  0  0  0  0  0  0  0
  1  2  1  0
  2  3  2  0
  2  4  1  0
  4  5  2  0
  5  6  1  0
  6  7  2  0
  7  8  1  0
  8  9  2  0
  9 10  1  0
 10 11  1  0
 11 12  1  0
 12 13  1  0
  9 14  1  0
 14 15  2  0
 15 16  1  0
 16 17  1  0
 17 18  2  0
 17 19  1  0
 19 20  1  0
 20 21  1  0
 21 22  1  0
 22 23  1  0
 23 24  2  0
 23 25  1  1
 23 26  1  0
 26 27  1  0
 27 28  2  0
 27 29  1  6
 27 30  1  0
 16  4  1  0
 15  6  1  0
  1 31  1  0
  5 32  1  0
  7 33  1  0
  8 34  1  0
 10 35  1  0
 11 36  1  0
 11 37  1  0
 12 38  1  0
 12 39  1  0
 13 40  1  0
 13 41  1  0
 14 42  1  0
 20 43  1  0
 20 44  1  0
 21 45  1  0
 21 46  1  0
 30 47  1  0
M  CHG  3   1  -1  25  -1  29  -1
M  END
>  <UniqueID>  (25) 
25

>  <SMILES>  (25) 
[NH-]C(=O)c1cc2ccc(NCCN)cc2n1C(=O)OCCO[P@@](=O)([O-])O[P@@](=O)([O-])O

>  <Energy>  (25) 
72.18165767864046

>  <Genealogy>  (25) 
[NH-]C(=O)c1cc2ccc(NCCN)cc2n1C(=O)OCCOP(=O)([O-])OP(=O)([O-])O (protonated)
[NH-]C(=O)c1cc2ccc(NCCN)cc2n1C(=O)OCCO[P@@](=O)([O-])O[P@@](=O)([O-])O (chirality)
[NH-]C(=O)c1cc2ccc(NCCN)cc2n1C(=O)OCCO[P@@](=O)([O-])O[P@@](=O)([O-])O (3D coordinates assigned)
[NH-]C(=O)c1cc2ccc(NCCN)cc2n1C(=O)OCCO[P@@](=O)([O-])O[P@@](=O)([O-])O (optimized conformer: 72.18165767864046 kcal/mol)

>  <smiles>  (25) 
NCCNc1ccc2cc(C(N)=O)n(C(=O)OCCOP(=O)(O)OP(=O)(O)O)c2c1

>  <score_type>  (25) 
oracle

>  <origin>  (25) 
adg

>  <m_score__min__energy>  (25) 
-13.06

>  <m_primary>  (25) 
energy

$$$$
25:0
     RDKit          3D

 35 36  0  0  0  0  0  0  0  0999 V2000
   -8.9790   18.6010  -31.9910 C   0  0  0  0  0  0  0  0  0  0  0  0
   -7.8380   17.7980  -32.4080 N   0  0  0  0  0  0  0  0  0  0  0  0
   -6.4510   18.1420  -32.2700 C   0  0  0  0  0  0  0  0  0  0  0  0
   -5.9270   18.0530  -31.1280 O   0  0  0  0  0  0  0  0  0  0  0  0
   -5.6010   18.6660  -33.4120 C   0  0  1  0  0  0  0  0  0  0  0  0
   -6.1180   18.2080  -34.7010 N   0  0  0  0  0  0  0  0  0  0  0  0
   -5.5050   20.2050  -33.3860 C   0  0  0  0  0  0  0  0  0  0  0  0
   -4.2910   20.6780  -32.6270 C   0  0  0  0  0  0  0  0  0  0  0  0
   -3.0770   19.9490  -32.6990 C   0  0  0  0  0  0  0  0  0  0  0  0
   -1.9280   20.4040  -32.0330 C   0  0  0  0  0  0  0  0  0  0  0  0
   -2.0220   21.5860  -31.3030 C   0  0  0  0  0  0  0  0  0  0  0  0
   -1.0600   22.2660  -30.5930 C   0  0  0  0  0  0  0  0  0  0  0  0
   -1.7030   23.3920  -30.0820 C   0  0  0  0  0  0  0  0  0  0  0  0
   -1.0470   24.3610  -29.1800 C   0  0  0  0  0  0  0  0  0  0  0  0
   -1.6120   25.6490  -28.9520 N   0  0  0  0  0  0  0  0  0  0  0  0
    0.0010   24.0280  -28.5640 O   0  0  0  0  0  0  0  0  0  0  0  0
   -3.0110   23.4120  -30.4700 N   0  0  0  0  0  0  0  0  0  0  0  0
   -3.9860   24.4400  -30.2300 C   0  0  0  0  0  0  0  0  0  0  0  0
   -4.9420   24.2380  -29.4360 O   0  0  0  0  0  0  0  0  0  0  0  0
   -3.8690   25.6760  -30.8530 O   0  0  0  0  0  0  0  0  0  0  0  0
   -3.1910   22.2980  -31.2130 C   0  0  0  0  0  0  0  0  0  0  0  0
   -4.3460   21.8780  -31.8830 C   0  0  0  0  0  0  0  0  0  0  0  0
   -9.0234   18.6323  -30.8923 H   0  0  0  0  0  0  0  0  0  0  0  0
   -8.8708   19.6231  -32.3828 H   0  0  0  0  0  0  0  0  0  0  0  0
   -9.9046   18.1542  -32.3828 H   0  0  0  0  0  0  0  0  0  0  0  0
   -4.5866   18.2618  -33.2789 H   0  0  0  0  0  0  0  0  0  0  0  0
   -6.4720   19.0410  -35.2260 H   0  0  0  0  0  0  0  0  0  0  0  0
   -6.9540   17.6030  -34.5280 H   0  0  0  0  0  0  0  0  0  0  0  0
   -5.4450   20.5754  -34.4200 H   0  0  0  0  0  0  0  0  0  0  0  0
   -6.3992   20.5946  -32.8775 H   0  0  0  0  0  0  0  0  0  0  0  0
   -3.0351   19.0175  -33.2826 H   0  0  0  0  0  0  0  0  0  0  0  0
   -0.9827   19.8441  -32.0862 H   0  0  0  0  0  0  0  0  0  0  0  0
   -0.0062   21.9813  -30.4572 H   0  0  0  0  0  0  0  0  0  0  0  0
   -2.6380   25.8120  -29.0570 H   0  0  0  0  0  0  0  0  0  0  0  0
   -5.2733   22.4674  -31.8316 H   0  0  0  0  0  0  0  0  0  0  0  0
  1  2  1  0
  2  3  1  0
  3  4  2  0
  3  5  1  0
  5  6  1  0
  5  7  1  0
  7  8  1  0
  8  9  2  0
  9 10  1  0
 10 11  2  0
 11 12  1  0
 12 13  2  0
 13 14  1  0
 14 15  1  0
 14 16  2  0
 13 17  1  0
 17 18  1  0
 18 19  2  0
 18 20  1  0
 17 21  1  0
 21 22  2  0
 22  8  1  0
 21 11  1  0
  1 23  1  0
  1 24  1  0
  1 25  1  0
  5 26  1  1
  6 27  1  0
  6 28  1  0
  7 29  1  0
  7 30  1  0
  9 31  1  0
 10 32  1  0
 12 33  1  0
 15 34  1  0
 22 35  1  0
M  CHG  3   2  -1  15  -1  20  -1
M  END
>  <UniqueID>  (26) 
26

>  <SMILES>  (26) 
C[N-]C(=O)[C@@H](N)Cc1ccc2cc(C([NH-])=O)n(C(=O)[O-])c2c1

>  <Energy>  (26) 
71.60020109754198

>  <Genealogy>  (26) 
C[N-]C(=O)[C@@H](N)Cc1ccc2cc(C([NH-])=O)n(C(=O)[O-])c2c1 (protonated)
C[N-]C(=O)[C@@H](N)Cc1ccc2cc(C([NH-])=O)n(C(=O)[O-])c2c1 (3D coordinates assigned)
C[N-]C(=O)[C@@H](N)Cc1ccc2cc(C([NH-])=O)n(C(=O)[O-])c2c1 (optimized conformer: 71.60020109754198 kcal/mol)

>  <smiles>  (26) 
CNC(=O)[C@@H](N)Cc1ccc2cc(C(N)=O)n(C(=O)O)c2c1

>  <score_type>  (26) 
oracle

>  <origin>  (26) 
adg

>  <m_score__min__energy>  (26) 
-10.880000000000001

>  <m_primary>  (26) 
energy

$$$$
26:0
     RDKit          3D

 38 39  0  0  0  0  0  0  0  0999 V2000
   -8.9930   18.7800  -31.7660 C   0  0  0  0  0  0  0  0  0  0  0  0
   -9.3720   20.1170  -32.3980 C   0  0  0  0  0  0  0  0  0  0  0  0
   -9.4370   21.2290  -31.3420 C   0  0  0  0  0  0  0  0  0  0  0  0
   -9.3620   22.6300  -31.9580 C   0  0  0  0  0  0  0  0  0  0  0  0
   -8.0220   23.1210  -31.9540 O   0  0  0  0  0  0  0  0  0  0  0  0
   -7.0900   22.8360  -30.9490 C   0  0  0  0  0  0  0  0  0  0  0  0
   -7.4340   22.8550  -29.7350 O   0  0  0  0  0  0  0  0  0  0  0  0
   -5.7400   22.5000  -31.3050 N   0  0  0  0  0  0  0  0  0  0  0  0
   -4.6160   23.2380  -31.0820 C   0  0  0  0  0  0  0  0  0  0  0  0
   -4.5490   24.4760  -30.2740 C   0  0  0  0  0  0  0  0  0  0  0  0
   -5.2780   24.5890  -29.0500 N   0  0  0  0  0  0  0  0  0  0  0  0
   -3.8680   25.4550  -30.6740 O   0  0  0  0  0  0  0  0  0  0  0  0
   -3.5050   22.6160  -31.6490 C   0  0  0  0  0  0  0  0  0  0  0  0
   -3.9880   21.4670  -32.2330 C   0  0  0  0  0  0  0  0  0  0  0  0
   -3.3190   20.4760  -32.9460 C   0  0  0  0  0  0  0  0  0  0  0  0
   -4.0760   19.4110  -33.4620 C   0  0  0  0  0  0  0  0  0  0  0  0
   -5.4800   19.3670  -33.2740 C   0  0  0  0  0  0  0  0  0  0  0  0
   -6.2730   18.2130  -33.8100 C   0  0  0  0  0  0  0  0  0  0  0  0
   -6.1220   20.3820  -32.5320 C   0  0  0  0  0  0  0  0  0  0  0  0
   -5.3400   21.4200  -32.0130 C   0  0  0  0  0  0  0  0  0  0  0  0
   -9.0191   18.8719  -30.6702 H   0  0  0  0  0  0  0  0  0  0  0  0
   -9.7075   18.0074  -32.0862 H   0  0  0  0  0  0  0  0  0  0  0  0
   -7.9793   18.4973  -32.0862 H   0  0  0  0  0  0  0  0  0  0  0  0
   -8.6188   20.3833  -33.1541 H   0  0  0  0  0  0  0  0  0  0  0  0
  -10.3650   20.0158  -32.8602 H   0  0  0  0  0  0  0  0  0  0  0  0
  -10.3843   21.1366  -30.7906 H   0  0  0  0  0  0  0  0  0  0  0  0
   -8.5684   21.1096  -30.6778 H   0  0  0  0  0  0  0  0  0  0  0  0
   -9.7258   22.5865  -32.9952 H   0  0  0  0  0  0  0  0  0  0  0  0
   -9.9853   23.3096  -31.3583 H   0  0  0  0  0  0  0  0  0  0  0  0
   -5.2530   25.4800  -28.5070 H   0  0  0  0  0  0  0  0  0  0  0  0
   -5.8090   23.7810  -28.6570 H   0  0  0  0  0  0  0  0  0  0  0  0
   -2.4632   22.9686  -31.6331 H   0  0  0  0  0  0  0  0  0  0  0  0
   -2.2310   20.5253  -33.1006 H   0  0  0  0  0  0  0  0  0  0  0  0
   -3.5746   18.6042  -34.0168 H   0  0  0  0  0  0  0  0  0  0  0  0
   -6.6769   17.6252  -32.9725 H   0  0  0  0  0  0  0  0  0  0  0  0
   -7.1022   18.5922  -34.4254 H   0  0  0  0  0  0  0  0  0  0  0  0
   -5.6217   17.5749  -34.4254 H   0  0  0  0  0  0  0  0  0  0  0  0
   -7.2091   20.3576  -32.3660 H   0  0  0  0  0  0  0  0  0  0  0  0
  1  2  1  0
  2  3  1  0
  3  4  1  0
  4  5  1  0
  5  6  1  0
  6  7  2  0
  6  8  1  0
  8  9  1  0
  9 10  1  0
 10 11  1  0
 10 12  2  0
  9 13  2  0
 13 14  1  0
 14 15  2  0
 15 16  1  0
 16 17  2  0
 17 18  1  0
 17 19  1  0
 19 20  2  0
 20  8  1  0
 20 14  1  0
  1 21  1  0
  1 22  1  0
  1 23  1  0
  2 24  1  0
  2 25  1  0
  3 26  1  0
  3 27  1  0
  4 28  1  0
  4 29  1  0
 11 30  1  0
 11 31  1  0
 13 32  1  0
 15 33  1  0
 16 34  1  0
 18 35  1  0
 18 36  1  0
 18 37  1  0
 19 38  1  0
M  END
>  <UniqueID>  (27) 
27

>  <SMILES>  (27) 
CCCCOC(=O)n1c(C(N)=O)cc2ccc(C)cc21

>  <Energy>  (27) 
68.53082461710075

>  <Genealogy>  (27) 
CCCCOC(=O)n1c(C(N)=O)cc2ccc(C)cc21 (3D coordinates assigned)
CCCCOC(=O)n1c(C(N)=O)cc2ccc(C)cc21 (optimized conformer: 68.53082461710075 kcal/mol)

>  <smiles>  (27) 
CCCCOC(=O)n1c(C(N)=O)cc2ccc(C)cc21

>  <score_type>  (27) 
oracle

>  <origin>  (27) 
adg

>  <m_score__min__energy>  (27) 
-8.1899999999999995

>  <m_primary>  (27) 
energy

$$$$
27:0
     RDKit          3D

 40 42  0  0  0  0  0  0  0  0999 V2000
   -5.0460   23.5020  -29.4470 C   0  0  0  0  0  0  0  0  0  0  0  0
   -3.9210   23.9990  -30.2990 C   0  0  0  0  0  0  0  0  0  0  0  0
   -4.0110   25.1340  -30.8390 O   0  0  0  0  0  0  0  0  0  0  0  0
   -2.7430   23.2030  -30.5010 N   0  0  0  0  0  0  0  0  0  0  0  0
   -1.5090   23.3880  -29.9510 C   0  0  0  0  0  0  0  0  0  0  0  0
   -1.0970   24.5310  -29.1080 C   0  0  0  0  0  0  0  0  0  0  0  0
   -1.9360   25.6720  -28.9530 N   0  0  0  0  0  0  0  0  0  0  0  0
    0.0280   24.5130  -28.5410 O   0  0  0  0  0  0  0  0  0  0  0  0
   -0.6420   22.3710  -30.3460 C   0  0  0  0  0  0  0  0  0  0  0  0
   -1.3880   21.5520  -31.1630 C   0  0  0  0  0  0  0  0  0  0  0  0
   -1.0300   20.3840  -31.8280 C   0  0  0  0  0  0  0  0  0  0  0  0
   -2.0140   19.7330  -32.5910 C   0  0  0  0  0  0  0  0  0  0  0  0
   -3.3330   20.2480  -32.6700 C   0  0  0  0  0  0  0  0  0  0  0  0
   -4.3070   19.5540  -33.4730 N   0  0  0  0  0  0  0  0  0  0  0  0
   -5.3930   18.7350  -32.9320 C   0  0  0  0  0  0  0  0  0  0  0  0
   -6.5700   19.5930  -32.5410 C   0  0  0  0  0  0  0  0  0  0  0  0
   -6.5210   20.9870  -32.7010 C   0  0  0  0  0  0  0  0  0  0  0  0
   -7.6180   21.7780  -32.3480 C   0  0  0  0  0  0  0  0  0  0  0  0
   -8.7690   21.1870  -31.8180 C   0  0  0  0  0  0  0  0  0  0  0  0
   -9.8560   21.9870  -31.4730 O   0  0  0  0  0  0  0  0  0  0  0  0
   -8.8180   19.7980  -31.6390 C   0  0  0  0  0  0  0  0  0  0  0  0
   -7.7220   19.0050  -31.9940 C   0  0  0  0  0  0  0  0  0  0  0  0
   -3.6600   21.4290  -31.9620 C   0  0  0  0  0  0  0  0  0  0  0  0
   -2.6530   22.0730  -31.2360 C   0  0  0  0  0  0  0  0  0  0  0  0
   -4.7815   23.6189  -28.3857 H   0  0  0  0  0  0  0  0  0  0  0  0
   -5.9547   24.0824  -29.6645 H   0  0  0  0  0  0  0  0  0  0  0  0
   -5.2289   22.4393  -29.6645 H   0  0  0  0  0  0  0  0  0  0  0  0
   -2.9070   25.6810  -29.3370 H   0  0  0  0  0  0  0  0  0  0  0  0
    0.4143   22.2487  -30.0646 H   0  0  0  0  0  0  0  0  0  0  0  0
   -0.0083   19.9824  -31.7587 H   0  0  0  0  0  0  0  0  0  0  0  0
   -1.7578   18.8115  -33.1344 H   0  0  0  0  0  0  0  0  0  0  0  0
   -4.2700   19.6700  -34.5110 H   0  0  0  0  0  0  0  0  0  0  0  0
   -5.7130   18.0109  -33.6958 H   0  0  0  0  0  0  0  0  0  0  0  0
   -5.0264   18.2118  -32.0366 H   0  0  0  0  0  0  0  0  0  0  0  0
   -5.6141   21.4594  -33.1065 H   0  0  0  0  0  0  0  0  0  0  0  0
   -7.5757   22.8683  -32.4875 H   0  0  0  0  0  0  0  0  0  0  0  0
  -10.0090   22.2880  -30.5170 H   0  0  0  0  0  0  0  0  0  0  0  0
   -9.7204   19.3304  -31.2184 H   0  0  0  0  0  0  0  0  0  0  0  0
   -7.7625   17.9160  -31.8441 H   0  0  0  0  0  0  0  0  0  0  0  0
   -4.6835   21.8315  -31.9823 H   0  0  0  0  0  0  0  0  0  0  0  0
  1  2  1  0
  2  3  2  0
  2  4  1  0
  4  5  1  0
  5  6  1  0
  6  7  1  0
  6  8  2  0
  5  9  2  0
  9 10  1  0
 10 11  2  0
 11 12  1  0
 12 13  2  0
 13 14  1  0
 14 15  1  0
 15 16  1  0
 16 17  2  0
 17 18  1  0
 18 19  2  0
 19 20  1  0
 19 21  1  0
 21 22  2  0
 13 23  1  0
 23 24  2  0
 24  4  1  0
 24 10  1  0
 22 16  1  0
  1 25  1  0
  1 26  1  0
  1 27  1  0
  7 28  1  0
  9 29  1  0
 11 30  1  0
 12 31  1  0
 14 32  1  0
 15 33  1  0
 15 34  1  0
 17 35  1  0
 18 36  1  0
 20 37  1  0
 21 38  1  0
 22 39  1  0
 23 40  1  0
M  CHG  1   7  -1
M  END
>  <UniqueID>  (28) 
28

>  <SMILES>  (28) 
CC(=O)n1c(C([NH-])=O)cc2ccc(NCc3ccc(O)cc3)cc21

>  <Energy>  (28) 
78.69927732773684

>  <Genealogy>  (28) 
CC(=O)n1c(C([NH-])=O)cc2ccc(NCc3ccc(O)cc3)cc21 (protonated)
CC(=O)n1c(C([NH-])=O)cc2ccc(NCc3ccc(O)cc3)cc21 (3D coordinates assigned)
CC(=O)n1c(C([NH-])=O)cc2ccc(NCc3ccc(O)cc3)cc21 (optimized conformer: 78.69927732773684 kcal/mol)

>  <smiles>  (28) 
CC(=O)n1c(C(N)=O)cc2ccc(NCc3ccc(O)cc3)cc21

>  <score_type>  (28) 
oracle

>  <origin>  (28) 
adg

>  <m_score__min__energy>  (28) 
-11.140000000000001

>  <m_primary>  (28) 
energy

$$$$
28:0
     RDKit          3D

 38 39  0  0  0  0  0  0  0  0999 V2000
   -3.8650   21.6480  -33.4290 C   0  0  0  0  0  0  0  0  0  0  0  0
   -3.4660   21.4180  -32.1730 C   0  0  0  0  0  0  0  0  0  0  0  0
   -2.1750   20.6830  -31.9370 C   0  0  0  0  0  0  0  0  0  0  0  0
   -4.2610   21.9220  -31.0240 C   0  0  0  0  0  0  0  0  0  0  0  0
   -3.7200   22.0610  -29.8940 O   0  0  0  0  0  0  0  0  0  0  0  0
   -5.6450   22.2690  -31.1840 N   0  0  0  0  0  0  0  0  0  0  0  0
   -6.2360   23.4650  -30.9060 C   0  0  0  0  0  0  0  0  0  0  0  0
   -5.5220   24.6870  -30.4720 C   0  0  0  0  0  0  0  0  0  0  0  0
   -5.8570   25.3390  -29.2440 N   0  0  0  0  0  0  0  0  0  0  0  0
   -4.6110   25.1760  -31.1920 O   0  0  0  0  0  0  0  0  0  0  0  0
   -7.6090   23.3920  -31.1510 C   0  0  0  0  0  0  0  0  0  0  0  0
   -7.8380   22.1030  -31.5780 C   0  0  0  0  0  0  0  0  0  0  0  0
   -9.0220   21.4790  -31.9570 C   0  0  0  0  0  0  0  0  0  0  0  0
   -8.9610   20.1280  -32.3420 C   0  0  0  0  0  0  0  0  0  0  0  0
   -7.7280   19.4260  -32.3210 C   0  0  0  0  0  0  0  0  0  0  0  0
   -7.6670   17.9930  -32.7680 C   0  0  0  0  0  0  0  0  0  0  0  0
   -6.3350   17.4110  -32.4250 C   0  0  0  0  0  0  0  0  0  0  0  0
   -6.1120   16.9980  -31.2540 O   0  0  0  0  0  0  0  0  0  0  0  0
   -5.3300   17.3750  -33.3960 O   0  0  0  0  0  0  0  0  0  0  0  0
   -5.3910   18.1460  -34.5910 C   0  0  0  0  0  0  0  0  0  0  0  0
   -6.5470   20.0960  -31.9360 C   0  0  0  0  0  0  0  0  0  0  0  0
   -6.6360   21.4450  -31.5820 C   0  0  0  0  0  0  0  0  0  0  0  0
   -4.8068   22.1842  -33.6174 H   0  0  0  0  0  0  0  0  0  0  0  0
   -3.2513   21.3009  -34.2733 H   0  0  0  0  0  0  0  0  0  0  0  0
   -2.0017   20.5843  -30.8552 H   0  0  0  0  0  0  0  0  0  0  0  0
   -2.2340   19.6831  -32.3916 H   0  0  0  0  0  0  0  0  0  0  0  0
   -1.3452   21.2441  -32.3916 H   0  0  0  0  0  0  0  0  0  0  0  0
   -6.5550   24.9350  -28.5830 H   0  0  0  0  0  0  0  0  0  0  0  0
   -5.3670   26.2190  -28.9700 H   0  0  0  0  0  0  0  0  0  0  0  0
   -8.3510   24.1948  -31.0287 H   0  0  0  0  0  0  0  0  0  0  0  0
   -9.9766   22.0256  -31.9556 H   0  0  0  0  0  0  0  0  0  0  0  0
   -9.8774   19.6106  -32.6623 H   0  0  0  0  0  0  0  0  0  0  0  0
   -8.4573   17.4190  -32.2621 H   0  0  0  0  0  0  0  0  0  0  0  0
   -7.8135   17.9463  -33.8572 H   0  0  0  0  0  0  0  0  0  0  0  0
   -5.4754   19.2125  -34.3353 H   0  0  0  0  0  0  0  0  0  0  0  0
   -4.4770   17.9815  -35.1806 H   0  0  0  0  0  0  0  0  0  0  0  0
   -6.2677   17.8398  -35.1806 H   0  0  0  0  0  0  0  0  0  0  0  0
   -5.5812   19.5699  -31.9151 H   0  0  0  0  0  0  0  0  0  0  0  0
  1  2  2  0
  2  3  1  0
  2  4  1  0
  4  5  2  0
  4  6  1  0
  6  7  1  0
  7  8  1  0
  8  9  1  0
  8 10  2  0
  7 11  2  0
 11 12  1  0
 12 13  2  0
 13 14  1  0
 14 15  2  0
 15 16  1  0
 16 17  1  0
 17 18  2  0
 17 19  1  0
 19 20  1  0
 15 21  1  0
 21 22  2  0
 22  6  1  0
 22 12  1  0
  1 23  1  0
  1 24  1  0
  3 25  1  0
  3 26  1  0
  3 27  1  0
  9 28  1  0
  9 29  1  0
 11 30  1  0
 13 31  1  0
 14 32  1  0
 16 33  1  0
 16 34  1  0
 20 35  1  0
 20 36  1  0
 20 37  1  0
 21 38  1  0
M  END
>  <UniqueID>  (29) 
29

>  <SMILES>  (29) 
C=C(C)C(=O)n1c(C(N)=O)cc2ccc(CC(=O)OC)cc21

>  <Energy>  (29) 
71.66148418275645

>  <Genealogy>  (29) 
C=C(C)C(=O)n1c(C(N)=O)cc2ccc(CC(=O)OC)cc21 (3D coordinates assigned)
C=C(C)C(=O)n1c(C(N)=O)cc2ccc(CC(=O)OC)cc21 (optimized conformer: 71.66148418275645 kcal/mol)

>  <smiles>  (29) 
C=C(C)C(=O)n1c(C(N)=O)cc2ccc(CC(=O)OC)cc21

>  <score_type>  (29) 
oracle

>  <origin>  (29) 
adg

>  <m_score__min__energy>  (29) 
-8.3599999999999994

>  <m_primary>  (29) 
energy

$$$$
29:0
     RDKit          3D

 35 36  0  0  0  0  0  0  0  0999 V2000
    0.7430   22.6690  -35.3260 N   0  0  0  0  0  0  0  0  0  0  0  0
    0.3380   21.6120  -35.0860 C   0  0  0  0  0  0  0  0  0  0  0  0
   -0.1700   20.2700  -34.7800 C   0  0  0  0  0  0  0  0  0  0  0  0
   -1.6190   20.3120  -34.2900 C   0  0  0  0  0  0  0  0  0  0  0  0
   -1.8910   19.2310  -33.3980 O   0  0  0  0  0  0  0  0  0  0  0  0
   -3.1360   18.6020  -33.2880 C   0  0  0  0  0  0  0  0  0  0  0  0
   -3.2430   17.3580  -33.4640 O   0  0  0  0  0  0  0  0  0  0  0  0
   -4.3080   19.3890  -33.0170 N   0  0  0  0  0  0  0  0  0  0  0  0
   -5.5800   19.1810  -33.4620 C   0  0  0  0  0  0  0  0  0  0  0  0
   -6.0610   17.9930  -34.1990 C   0  0  0  0  0  0  0  0  0  0  0  0
   -5.3640   17.5080  -35.3430 N   0  0  0  0  0  0  0  0  0  0  0  0
   -7.0730   17.3680  -33.7830 O   0  0  0  0  0  0  0  0  0  0  0  0
   -6.4150   20.2200  -33.0600 C   0  0  0  0  0  0  0  0  0  0  0  0
   -5.6130   21.0750  -32.3390 C   0  0  0  0  0  0  0  0  0  0  0  0
   -5.9220   22.2820  -31.7190 C   0  0  0  0  0  0  0  0  0  0  0  0
   -4.8850   22.9760  -31.0750 C   0  0  0  0  0  0  0  0  0  0  0  0
   -3.5670   22.4540  -31.0610 C   0  0  0  0  0  0  0  0  0  0  0  0
   -2.4570   23.2290  -30.4100 C   0  0  0  0  0  0  0  0  0  0  0  0
   -3.1050   24.7620  -29.6760 P   0  0  0  0  0  0  0  0  0  0  0  0
   -4.0820   24.4280  -28.5730 O   0  0  0  0  0  0  0  0  0  0  0  0
   -3.8890   25.6750  -30.8640 O   0  0  0  0  0  0  0  0  0  0  0  0
   -1.8230   25.6600  -29.0370 O   0  0  0  0  0  0  0  0  0  0  0  0
   -3.2900   21.2300  -31.7090 C   0  0  0  0  0  0  0  0  0  0  0  0
   -4.3460   20.5510  -32.3270 C   0  0  0  0  0  0  0  0  0  0  0  0
   -0.1189   19.6534  -35.6895 H   0  0  0  0  0  0  0  0  0  0  0  0
    0.4509   19.8425  -33.9789 H   0  0  0  0  0  0  0  0  0  0  0  0
   -1.7936   21.2631  -33.7657 H   0  0  0  0  0  0  0  0  0  0  0  0
   -2.2852   20.2228  -35.1608 H   0  0  0  0  0  0  0  0  0  0  0  0
   -4.3250   17.4140  -35.3380 H   0  0  0  0  0  0  0  0  0  0  0  0
   -7.4881   20.3335  -33.2734 H   0  0  0  0  0  0  0  0  0  0  0  0
   -6.9473   22.6802  -31.7330 H   0  0  0  0  0  0  0  0  0  0  0  0
   -5.0973   23.9335  -30.5768 H   0  0  0  0  0  0  0  0  0  0  0  0
   -1.9990   22.6141  -29.6212 H   0  0  0  0  0  0  0  0  0  0  0  0
   -1.7054   23.4860  -31.1709 H   0  0  0  0  0  0  0  0  0  0  0  0
   -2.2692   20.8205  -31.7274 H   0  0  0  0  0  0  0  0  0  0  0  0
  1  2  3  0
  2  3  1  0
  3  4  1  0
  4  5  1  0
  5  6  1  0
  6  7  2  0
  6  8  1  0
  8  9  1  0
  9 10  1  0
 10 11  1  0
 10 12  2  0
  9 13  2  0
 13 14  1  0
 14 15  2  0
 15 16  1  0
 16 17  2  0
 17 18  1  0
 18 19  1  0
 19 20  2  0
 19 21  1  0
 19 22  1  0
 17 23  1  0
 23 24  2  0
 24  8  1  0
 24 14  1  0
  3 25  1  0
  3 26  1  0
  4 27  1  0
  4 28  1  0
 11 29  1  0
 13 30  1  0
 15 31  1  0
 16 32  1  0
 18 33  1  0
 18 34  1  0
 23 35  1  0
M  CHG  3  11  -1  21  -1  22  -1
M  END
>  <UniqueID>  (30) 
30

>  <SMILES>  (30) 
N#CCCOC(=O)n1c(C([NH-])=O)cc2ccc(CP(=O)([O-])[O-])cc21

>  <Energy>  (30) 
65.80611906619595

>  <Genealogy>  (30) 
N#CCCOC(=O)n1c(C([NH-])=O)cc2ccc(CP(=O)([O-])[O-])cc21 (protonated)
N#CCCOC(=O)n1c(C([NH-])=O)cc2ccc(CP(=O)([O-])[O-])cc21 (3D coordinates assigned)
N#CCCOC(=O)n1c(C([NH-])=O)cc2ccc(CP(=O)([O-])[O-])cc21 (optimized conformer: 65.80611906619595 kcal/mol)

>  <smiles>  (30) 
N#CCCOC(=O)n1c(C(N)=O)cc2ccc(CP(=O)(O)O)cc21

>  <score_type>  (30) 
oracle

>  <origin>  (30) 
adg

>  <m_score__min__energy>  (30) 
-11.460000000000001

>  <m_primary>  (30) 
energy

$$$$
30:0
     RDKit          3D

 30 32  0  0  0  0  0  0  0  0999 V2000
   -3.2600   22.8440  -28.9220 C   0  0  0  0  0  0  0  0  0  0  0  0
   -2.8610   23.1400  -30.2550 O   0  0  0  0  0  0  0  0  0  0  0  0
   -3.5990   22.7330  -31.3710 C   0  0  0  0  0  0  0  0  0  0  0  0
   -3.0200   22.2110  -32.3620 O   0  0  0  0  0  0  0  0  0  0  0  0
   -5.0270   22.8910  -31.3760 N   0  0  0  0  0  0  0  0  0  0  0  0
   -5.7490   23.9470  -30.9050 C   0  0  0  0  0  0  0  0  0  0  0  0
   -5.1990   25.2380  -30.4430 C   0  0  0  0  0  0  0  0  0  0  0  0
   -3.8980   25.6640  -30.8390 N   0  0  0  0  0  0  0  0  0  0  0  0
   -5.9050   25.9980  -29.7290 O   0  0  0  0  0  0  0  0  0  0  0  0
   -7.1140   23.6830  -30.9910 C   0  0  0  0  0  0  0  0  0  0  0  0
   -7.2080   22.4260  -31.5410 C   0  0  0  0  0  0  0  0  0  0  0  0
   -8.3320   21.6620  -31.8390 C   0  0  0  0  0  0  0  0  0  0  0  0
   -8.1330   20.3790  -32.3740 C   0  0  0  0  0  0  0  0  0  0  0  0
   -6.8240   19.8770  -32.5990 C   0  0  0  0  0  0  0  0  0  0  0  0
   -6.6480   18.5140  -33.1540 C   0  0  0  0  0  0  0  0  0  0  0  0
   -6.6500   17.3870  -32.4150 N   0  0  0  0  0  0  0  0  0  0  0  0
   -6.4680   16.4020  -33.2840 N   0  0  0  0  0  0  0  0  0  0  0  0
   -6.3590   16.8950  -34.5080 N   0  0  0  0  0  0  0  0  0  0  0  0
   -6.4670   18.2100  -34.4540 N   0  0  0  0  0  0  0  0  0  0  0  0
   -5.7070   20.6870  -32.2800 C   0  0  0  0  0  0  0  0  0  0  0  0
   -5.9360   21.9680  -31.7640 C   0  0  0  0  0  0  0  0  0  0  0  0
   -2.5824   23.3467  -28.2162 H   0  0  0  0  0  0  0  0  0  0  0  0
   -4.2882   23.1995  -28.7595 H   0  0  0  0  0  0  0  0  0  0  0  0
   -3.2180   21.7569  -28.7595 H   0  0  0  0  0  0  0  0  0  0  0  0
   -3.0440   25.2920  -30.3680 H   0  0  0  0  0  0  0  0  0  0  0  0
   -7.9410   24.3402  -30.6842 H   0  0  0  0  0  0  0  0  0  0  0  0
   -9.3454   22.0511  -31.6610 H   0  0  0  0  0  0  0  0  0  0  0  0
   -9.0035   19.7540  -32.6223 H   0  0  0  0  0  0  0  0  0  0  0  0
   -6.4190   18.8440  -35.2800 H   0  0  0  0  0  0  0  0  0  0  0  0
   -4.6823   20.3178  -32.4342 H   0  0  0  0  0  0  0  0  0  0  0  0
  1  2  1  0
  2  3  1  0
  3  4  2  0
  3  5  1  0
  5  6  1  0
  6  7  1  0
  7  8  1  0
  7  9  2  0
  6 10  2  0
 10 11  1  0
 11 12  2  0
 12 13  1  0
 13 14  2  0
 14 15  1  0
 15 16  2  0
 16 17  1  0
 17 18  1  0
 18 19  2  0
 14 20  1  0
 20 21  2  0
 21  5  1  0
 21 11  1  0
 19 15  1  0
  1 22  1  0
  1 23  1  0
  1 24  1  0
  8 25  1  0
 10 26  1  0
 12 27  1  0
 13 28  1  0
 19 29  1  0
 20 30  1  0
M  CHG  3   8  -1  17  -1  19   1
M  END
>  <UniqueID>  (31) 
31

>  <SMILES>  (31) 
COC(=O)n1c(C([NH-])=O)cc2ccc(-c3n[n-]n[nH+]3)cc21

>  <Energy>  (31) 
110.48102357086428

>  <Genealogy>  (31) 
COC(=O)n1c(C([NH-])=O)cc2ccc(-c3n[n-]n[nH+]3)cc21 (protonated)
COC(=O)n1c(C([NH-])=O)cc2ccc(-c3n[n-]n[nH+]3)cc21 (3D coordinates assigned)
COC(=O)n1c(C([NH-])=O)cc2ccc(-c3n[n-]n[nH+]3)cc21 (optimized conformer: 110.48102357086428 kcal/mol)

>  <smiles>  (31) 
COC(=O)n1c(C(N)=O)cc2ccc(-c3nn[nH]n3)cc21

>  <score_type>  (31) 
oracle

>  <origin>  (31) 
adg

>  <m_score__min__energy>  (31) 
-10.300000000000001

>  <m_primary>  (31) 
energy

$$$$
31:0
     RDKit          3D

 32 33  0  0  0  0  0  0  0  0999 V2000
   -2.7740   20.7870  -32.5100 C   0  0  0  0  0  0  0  0  0  0  0  0
   -3.3280   22.0960  -32.5420 O   0  0  0  0  0  0  0  0  0  0  0  0
   -3.8280   22.7320  -31.4020 C   0  0  0  0  0  0  0  0  0  0  0  0
   -3.0440   23.1120  -30.4890 O   0  0  0  0  0  0  0  0  0  0  0  0
   -5.2390   22.9730  -31.2820 N   0  0  0  0  0  0  0  0  0  0  0  0
   -5.8540   24.0820  -30.7790 C   0  0  0  0  0  0  0  0  0  0  0  0
   -5.1910   25.3490  -30.4100 C   0  0  0  0  0  0  0  0  0  0  0  0
   -3.8670   25.6400  -30.8490 N   0  0  0  0  0  0  0  0  0  0  0  0
   -5.8200   26.2110  -29.7380 O   0  0  0  0  0  0  0  0  0  0  0  0
   -7.2330   23.8970  -30.7310 C   0  0  0  0  0  0  0  0  0  0  0  0
   -7.4500   22.6340  -31.2340 C   0  0  0  0  0  0  0  0  0  0  0  0
   -8.6400   21.9340  -31.4110 C   0  0  0  0  0  0  0  0  0  0  0  0
   -8.5650   20.6300  -31.9290 C   0  0  0  0  0  0  0  0  0  0  0  0
   -7.3110   20.0490  -32.2420 C   0  0  0  0  0  0  0  0  0  0  0  0
   -7.2440   18.6610  -32.8150 C   0  0  0  0  0  0  0  0  0  0  0  0
   -5.9970   18.5000  -33.6290 C   0  0  0  0  0  0  0  0  0  0  0  0
   -5.9950   18.8220  -35.0210 N   0  0  0  0  0  0  0  0  0  0  0  0
   -4.9320   18.1160  -33.0760 O   0  0  0  0  0  0  0  0  0  0  0  0
   -6.1250   20.7940  -32.0580 C   0  0  0  0  0  0  0  0  0  0  0  0
   -6.2310   22.0970  -31.5580 C   0  0  0  0  0  0  0  0  0  0  0  0
   -2.6402   20.4709  -31.4649 H   0  0  0  0  0  0  0  0  0  0  0  0
   -3.4537   20.0886  -33.0202 H   0  0  0  0  0  0  0  0  0  0  0  0
   -1.7995   20.7887  -33.0202 H   0  0  0  0  0  0  0  0  0  0  0  0
   -3.0360   25.2770  -30.3310 H   0  0  0  0  0  0  0  0  0  0  0  0
   -7.9889   24.6090  -30.3681 H   0  0  0  0  0  0  0  0  0  0  0  0
   -9.6086   22.3873  -31.1535 H   0  0  0  0  0  0  0  0  0  0  0  0
   -9.4882   20.0549  -32.0931 H   0  0  0  0  0  0  0  0  0  0  0  0
   -7.2400   17.9284  -31.9944 H   0  0  0  0  0  0  0  0  0  0  0  0
   -8.1192   18.4952  -33.4604 H   0  0  0  0  0  0  0  0  0  0  0  0
   -5.1210   18.7260  -35.5820 H   0  0  0  0  0  0  0  0  0  0  0  0
   -6.8640   19.1610  -35.4890 H   0  0  0  0  0  0  0  0  0  0  0  0
   -5.1434   20.3612  -32.3014 H   0  0  0  0  0  0  0  0  0  0  0  0
  1  2  1  0
  2  3  1  0
  3  4  2  0
  3  5  1  0
  5  6  1  0
  6  7  1  0
  7  8  1  0
  7  9  2  0
  6 10  2  0
 10 11  1  0
 11 12  2  0
 12 13  1  0
 13 14  2  0
 14 15  1  0
 15 16  1  0
 16 17  1  0
 16 18  2  0
 14 19  1  0
 19 20  2  0
 20  5  1  0
 20 11  1  0
  1 21  1  0
  1 22  1  0
  1 23  1  0
  8 24  1  0
 10 25  1  0
 12 26  1  0
 13 27  1  0
 15 28  1  0
 15 29  1  0
 17 30  1  0
 17 31  1  0
 19 32  1  0
M  CHG  1   8  -1
M  END
>  <UniqueID>  (32) 
32

>  <SMILES>  (32) 
COC(=O)n1c(C([NH-])=O)cc2ccc(CC(N)=O)cc21

>  <Energy>  (32) 
66.10774152089085

>  <Genealogy>  (32) 
COC(=O)n1c(C([NH-])=O)cc2ccc(CC(N)=O)cc21 (protonated)
COC(=O)n1c(C([NH-])=O)cc2ccc(CC(N)=O)cc21 (3D coordinates assigned)
COC(=O)n1c(C([NH-])=O)cc2ccc(CC(N)=O)cc21 (optimized conformer: 66.10774152089085 kcal/mol)

>  <smiles>  (32) 
COC(=O)n1c(C(N)=O)cc2ccc(CC(N)=O)cc21

>  <score_type>  (32) 
oracle

>  <origin>  (32) 
adg

>  <m_score__min__energy>  (32) 
-10.02

>  <m_primary>  (32) 
energy

$$$$
32:0
     RDKit          3D

 43 45  0  0  0  0  0  0  0  0999 V2000
   -2.3360   15.4470  -35.6590 C   0  0  0  0  0  0  0  0  0  0  0  0
   -2.6900   16.6580  -35.0030 O   0  0  0  0  0  0  0  0  0  0  0  0
   -3.0330   16.7080  -33.6460 C   0  0  0  0  0  0  0  0  0  0  0  0
   -2.3740   16.0420  -32.8000 O   0  0  0  0  0  0  0  0  0  0  0  0
   -4.1560   17.5120  -33.2250 N   0  0  1  0  0  0  0  0  0  0  0  0
   -4.5460   18.4780  -34.2940 C   0  0  0  0  0  0  0  0  0  0  0  0
   -6.0630   18.5500  -34.5620 C   0  0  0  0  0  0  0  0  0  0  0  0
   -6.9200   18.5180  -33.2780 C   0  0  2  0  0  0  0  0  0  0  0  0
   -7.0820   19.9090  -32.6840 C   0  0  0  0  0  0  0  0  0  0  0  0
   -8.3660   20.4450  -32.3950 C   0  0  0  0  0  0  0  0  0  0  0  0
   -8.5030   21.7220  -31.8270 C   0  0  0  0  0  0  0  0  0  0  0  0
   -7.3460   22.4370  -31.5410 C   0  0  0  0  0  0  0  0  0  0  0  0
   -7.1930   23.6980  -31.0120 C   0  0  0  0  0  0  0  0  0  0  0  0
   -5.8170   23.9090  -30.9500 C   0  0  0  0  0  0  0  0  0  0  0  0
   -5.2080   25.1160  -30.3560 C   0  0  0  0  0  0  0  0  0  0  0  0
   -3.9740   25.6320  -30.8470 N   0  0  0  0  0  0  0  0  0  0  0  0
   -5.7600   25.6720  -29.3680 O   0  0  0  0  0  0  0  0  0  0  0  0
   -5.1450   22.8240  -31.4290 N   0  0  0  0  0  0  0  0  0  0  0  0
   -3.7290   22.6850  -31.6210 C   0  0  0  0  0  0  0  0  0  0  0  0
   -3.2780   22.1610  -32.6740 O   0  0  0  0  0  0  0  0  0  0  0  0
   -2.8410   23.1500  -30.6580 O   0  0  0  0  0  0  0  0  0  0  0  0
   -6.0960   21.9310  -31.7850 C   0  0  0  0  0  0  0  0  0  0  0  0
   -5.9290   20.6690  -32.3680 C   0  0  0  0  0  0  0  0  0  0  0  0
   -6.4260   17.4740  -32.2420 C   0  0  0  0  0  0  0  0  0  0  0  0
   -5.2560   16.6370  -32.7720 C   0  0  0  0  0  0  0  0  0  0  0  0
   -2.1105   14.6755  -34.9080 H   0  0  0  0  0  0  0  0  0  0  0  0
   -3.1739   15.1123  -36.2882 H   0  0  0  0  0  0  0  0  0  0  0  0
   -1.4498   15.6163  -36.2882 H   0  0  0  0  0  0  0  0  0  0  0  0
   -3.8380   18.0630  -32.3920 H   0  0  0  0  0  0  0  0  0  0  0  0
   -4.0452   18.1800  -35.2269 H   0  0  0  0  0  0  0  0  0  0  0  0
   -4.2404   19.4751  -33.9442 H   0  0  0  0  0  0  0  0  0  0  0  0
   -6.3461   17.6928  -35.1905 H   0  0  0  0  0  0  0  0  0  0  0  0
   -6.2579   19.5134  -35.0558 H   0  0  0  0  0  0  0  0  0  0  0  0
   -7.9224   18.1752  -33.5742 H   0  0  0  0  0  0  0  0  0  0  0  0
   -9.2647   19.8516  -32.6192 H   0  0  0  0  0  0  0  0  0  0  0  0
   -9.4965   22.1438  -31.6148 H   0  0  0  0  0  0  0  0  0  0  0  0
   -7.9884   24.3924  -30.7034 H   0  0  0  0  0  0  0  0  0  0  0  0
   -3.0620   25.2900  -30.4700 H   0  0  0  0  0  0  0  0  0  0  0  0
   -4.9231   20.2757  -32.5764 H   0  0  0  0  0  0  0  0  0  0  0  0
   -7.2593   16.8001  -31.9940 H   0  0  0  0  0  0  0  0  0  0  0  0
   -6.0739   18.0208  -31.3549 H   0  0  0  0  0  0  0  0  0  0  0  0
   -5.6029   16.0248  -33.6175 H   0  0  0  0  0  0  0  0  0  0  0  0
   -4.8857   15.9912  -31.9622 H   0  0  0  0  0  0  0  0  0  0  0  0
  1  2  1  0
  2  3  1  0
  3  4  2  0
  3  5  1  0
  5  6  1  0
  6  7  1  0
  7  8  1  0
  8  9  1  0
  9 10  2  0
 10 11  1  0
 11 12  2  0
 12 13  1  0
 13 14  2  0
 14 15  1  0
 15 16  1  0
 15 17  2  0
 14 18  1  0
 18 19  1  0
 19 20  2  0
 19 21  1  0
 18 22  1  0
 22 23  2  0
  8 24  1  0
 24 25  1  0
 25  5  1  0
 23  9  1  0
 22 12  1  0
  1 26  1  0
  1 27  1  0
  1 28  1  0
  5 29  1  1
  6 30  1  0
  6 31  1  0
  7 32  1  0
  7 33  1  0
  8 34  1  6
 10 35  1  0
 11 36  1  0
 13 37  1  0
 16 38  1  0
 23 39  1  0
 24 40  1  0
 24 41  1  0
 25 42  1  0
 25 43  1  0
M  CHG  3   5   1  16  -1  21  -1
M  END
>  <UniqueID>  (33) 
33

>  <SMILES>  (33) 
COC(=O)[NH+]1CCC(c2ccc3cc(C([NH-])=O)n(C(=O)[O-])c3c2)CC1

>  <Energy>  (33) 
94.38104631615977

>  <Genealogy>  (33) 
COC(=O)[NH+]1CCC(c2ccc3cc(C([NH-])=O)n(C(=O)[O-])c3c2)CC1 (protonated)
COC(=O)[NH+]1CCC(c2ccc3cc(C([NH-])=O)n(C(=O)[O-])c3c2)CC1 (3D coordinates assigned)
COC(=O)[NH+]1CCC(c2ccc3cc(C([NH-])=O)n(C(=O)[O-])c3c2)CC1 (nonaromatic ring conformer: 94.38104631615977 kcal/mol)

>  <smiles>  (33) 
COC(=O)N1CCC(c2ccc3cc(C(N)=O)n(C(=O)O)c3c2)CC1

>  <score_type>  (33) 
oracle

>  <origin>  (33) 
adg

>  <m_score__min__energy>  (33) 
-11.41

>  <m_primary>  (33) 
energy

$$$$
33:0
     RDKit          3D

 44 45  0  0  0  0  0  0  0  0999 V2000
   -1.9290   17.2180  -33.5420 C   0  0  0  0  0  0  0  0  0  0  0  0
   -2.6270   18.5190  -33.1270 C   0  0  1  0  0  0  0  0  0  0  0  0
   -1.8110   19.7490  -33.5650 C   0  0  0  0  0  0  0  0  0  0  0  0
   -2.4830   20.4740  -34.5630 O   0  0  0  0  0  0  0  0  0  0  0  0
   -3.9770   18.5760  -33.6940 N   0  0  0  0  0  0  0  0  0  0  0  0
   -5.1210   18.0670  -32.9930 C   0  0  0  0  0  0  0  0  0  0  0  0
   -4.9720   17.2770  -32.0210 O   0  0  0  0  0  0  0  0  0  0  0  0
   -6.4970   18.5100  -33.3820 C   0  0  0  0  0  0  0  0  0  0  0  0
   -6.7290   19.9160  -32.9020 C   0  0  0  0  0  0  0  0  0  0  0  0
   -8.0500   20.4130  -32.7770 C   0  0  0  0  0  0  0  0  0  0  0  0
   -8.2860   21.6910  -32.2450 C   0  0  0  0  0  0  0  0  0  0  0  0
   -7.1860   22.4440  -31.8420 C   0  0  0  0  0  0  0  0  0  0  0  0
   -7.1310   23.6810  -31.2440 C   0  0  0  0  0  0  0  0  0  0  0  0
   -5.7770   23.9250  -31.0230 C   0  0  0  0  0  0  0  0  0  0  0  0
   -5.2610   25.1800  -30.4460 C   0  0  0  0  0  0  0  0  0  0  0  0
   -3.9850   25.6730  -30.8480 N   0  0  0  0  0  0  0  0  0  0  0  0
   -5.9200   25.8070  -29.5750 O   0  0  0  0  0  0  0  0  0  0  0  0
   -5.0240   22.8790  -31.4630 N   0  0  0  0  0  0  0  0  0  0  0  0
   -3.6040   22.6990  -31.3440 C   0  0  0  0  0  0  0  0  0  0  0  0
   -2.9570   22.1660  -32.2860 O   0  0  0  0  0  0  0  0  0  0  0  0
   -2.9310   23.0900  -30.1430 N   0  0  0  0  0  0  0  0  0  0  0  0
   -1.4900   22.9740  -29.9550 C   0  0  0  0  0  0  0  0  0  0  0  0
   -0.9510   24.2320  -29.3530 C   0  0  0  0  0  0  0  0  0  0  0  0
    0.2000   24.2490  -28.8400 O   0  0  0  0  0  0  0  0  0  0  0  0
   -1.7390   25.3760  -29.3110 O   0  0  0  0  0  0  0  0  0  0  0  0
   -5.9010   21.9810  -31.9640 C   0  0  0  0  0  0  0  0  0  0  0  0
   -5.6380   20.7080  -32.4830 C   0  0  0  0  0  0  0  0  0  0  0  0
   -1.6294   16.6597  -32.6428 H   0  0  0  0  0  0  0  0  0  0  0  0
   -2.6199   16.6060  -34.1404 H   0  0  0  0  0  0  0  0  0  0  0  0
   -1.0370   17.4552  -34.1404 H   0  0  0  0  0  0  0  0  0  0  0  0
   -2.7014   18.5313  -32.0296 H   0  0  0  0  0  0  0  0  0  0  0  0
   -1.6498   20.4015  -32.6942 H   0  0  0  0  0  0  0  0  0  0  0  0
   -0.8498   19.4028  -33.9728 H   0  0  0  0  0  0  0  0  0  0  0  0
   -2.5310   21.4160  -34.2530 H   0  0  0  0  0  0  0  0  0  0  0  0
   -4.1320   19.0740  -34.6000 H   0  0  0  0  0  0  0  0  0  0  0  0
   -6.5967   18.4759  -34.4769 H   0  0  0  0  0  0  0  0  0  0  0  0
   -7.2395   17.8404  -32.9235 H   0  0  0  0  0  0  0  0  0  0  0  0
   -8.8986   19.7919  -33.0997 H   0  0  0  0  0  0  0  0  0  0  0  0
   -9.3085   22.0853  -32.1495 H   0  0  0  0  0  0  0  0  0  0  0  0
   -7.9765   24.3385  -30.9933 H   0  0  0  0  0  0  0  0  0  0  0  0
   -3.1080   25.2410  -30.4890 H   0  0  0  0  0  0  0  0  0  0  0  0
   -1.2768   22.1286  -29.2843 H   0  0  0  0  0  0  0  0  0  0  0  0
   -1.0105   22.8057  -30.9306 H   0  0  0  0  0  0  0  0  0  0  0  0
   -4.6066   20.3339  -32.5625 H   0  0  0  0  0  0  0  0  0  0  0  0
  1  2  1  0
  2  3  1  0
  3  4  1  0
  2  5  1  0
  5  6  1  0
  6  7  2  0
  6  8  1  0
  8  9  1  0
  9 10  2  0
 10 11  1  0
 11 12  2  0
 12 13  1  0
 13 14  2  0
 14 15  1  0
 15 16  1  0
 15 17  2  0
 14 18  1  0
 18 19  1  0
 19 20  2  0
 19 21  1  0
 21 22  1  0
 22 23  1  0
 23 24  2  0
 23 25  1  0
 18 26  1  0
 26 27  2  0
 27  9  1  0
 26 12  1  0
  1 28  1  0
  1 29  1  0
  1 30  1  0
  2 31  1  1
  3 32  1  0
  3 33  1  0
  4 34  1  0
  5 35  1  0
  8 36  1  0
  8 37  1  0
 10 38  1  0
 11 39  1  0
 13 40  1  0
 16 41  1  0
 22 42  1  0
 22 43  1  0
 27 44  1  0
M  CHG  3  16  -1  21  -1  25  -1
M  END
>  <UniqueID>  (34) 
34

>  <SMILES>  (34) 
C[C@@H](CO)NC(=O)Cc1ccc2cc(C([NH-])=O)n(C(=O)[N-]CC(=O)[O-])c2c1

>  <Energy>  (34) 
71.6240897767429

>  <Genealogy>  (34) 
CC(CO)NC(=O)Cc1ccc2cc(C([NH-])=O)n(C(=O)[N-]CC(=O)[O-])c2c1 (protonated)
C[C@@H](CO)NC(=O)Cc1ccc2cc(C([NH-])=O)n(C(=O)[N-]CC(=O)[O-])c2c1 (chirality)
C[C@@H](CO)NC(=O)Cc1ccc2cc(C([NH-])=O)n(C(=O)[N-]CC(=O)[O-])c2c1 (3D coordinates assigned)
C[C@@H](CO)NC(=O)Cc1ccc2cc(C([NH-])=O)n(C(=O)[N-]CC(=O)[O-])c2c1 (optimized conformer: 71.6240897767429 kcal/mol)

>  <smiles>  (34) 
CC(CO)NC(=O)Cc1ccc2cc(C(N)=O)n(C(=O)NCC(=O)O)c2c1

>  <score_type>  (34) 
oracle

>  <origin>  (34) 
adg

>  <m_score__min__energy>  (34) 
-12.630000000000001

>  <m_primary>  (34) 
energy

$$$$
34:0
     RDKit          3D

 25 26  0  0  0  0  0  0  0  0999 V2000
   -1.2350   25.1490  -29.2970 N   0  0  0  0  0  0  0  0  0  0  0  0
   -1.1790   23.7220  -29.3330 C   0  0  0  0  0  0  0  0  0  0  0  0
   -0.3460   23.1180  -28.6060 O   0  0  0  0  0  0  0  0  0  0  0  0
   -2.1230   22.9410  -30.1560 C   0  0  0  0  0  0  0  0  0  0  0  0
   -1.7980   21.7210  -30.7430 C   0  0  0  0  0  0  0  0  0  0  0  0
   -2.9520   21.2940  -31.3560 C   0  0  0  0  0  0  0  0  0  0  0  0
   -3.1920   20.1480  -32.1080 C   0  0  0  0  0  0  0  0  0  0  0  0
   -4.4720   19.9790  -32.6620 C   0  0  0  0  0  0  0  0  0  0  0  0
   -5.4810   20.9520  -32.4550 C   0  0  0  0  0  0  0  0  0  0  0  0
   -6.8280   20.7850  -33.0940 C   0  0  0  0  0  0  0  0  0  0  0  0
   -7.9240   19.6110  -32.0130 Br  0  0  0  0  0  0  0  0  0  0  0  0
   -5.1980   22.1110  -31.6990 C   0  0  0  0  0  0  0  0  0  0  0  0
   -3.9200   22.2440  -31.1410 C   0  0  0  0  0  0  0  0  0  0  0  0
   -3.4230   23.2660  -30.4060 N   0  0  0  0  0  0  0  0  0  0  0  0
   -4.0910   24.4960  -30.0760 C   0  0  0  0  0  0  0  0  0  0  0  0
   -4.8880   24.5490  -29.1020 O   0  0  0  0  0  0  0  0  0  0  0  0
   -3.8690   25.6400  -30.8330 O   0  0  0  0  0  0  0  0  0  0  0  0
   -0.5360   25.6860  -28.7370 H   0  0  0  0  0  0  0  0  0  0  0  0
   -2.0140   25.6690  -29.7560 H   0  0  0  0  0  0  0  0  0  0  0  0
   -0.8251   21.2081  -30.7209 H   0  0  0  0  0  0  0  0  0  0  0  0
   -2.4034   19.3971  -32.2640 H   0  0  0  0  0  0  0  0  0  0  0  0
   -4.6928   19.0836  -33.2616 H   0  0  0  0  0  0  0  0  0  0  0  0
   -7.3169   21.7668  -33.1778 H   0  0  0  0  0  0  0  0  0  0  0  0
   -6.7037   20.3468  -34.0953 H   0  0  0  0  0  0  0  0  0  0  0  0
   -5.9615   22.8892  -31.5522 H   0  0  0  0  0  0  0  0  0  0  0  0
  1  2  1  0
  2  3  2  0
  2  4  1  0
  4  5  2  0
  5  6  1  0
  6  7  2  0
  7  8  1  0
  8  9  2  0
  9 10  1  0
 10 11  1  0
  9 12  1  0
 12 13  2  0
 13 14  1  0
 14 15  1  0
 15 16  2  0
 15 17  1  0
 14  4  1  0
 13  6  1  0
  1 18  1  0
  1 19  1  0
  5 20  1  0
  7 21  1  0
  8 22  1  0
 10 23  1  0
 10 24  1  0
 12 25  1  0
M  CHG  1  17  -1
M  END
>  <UniqueID>  (35) 
35

>  <SMILES>  (35) 
NC(=O)c1cc2ccc(CBr)cc2n1C(=O)[O-]

>  <Energy>  (35) 
64.46867375857923

>  <Genealogy>  (35) 
NC(=O)c1cc2ccc(CBr)cc2n1C(=O)[O-] (protonated)
NC(=O)c1cc2ccc(CBr)cc2n1C(=O)[O-] (3D coordinates assigned)
NC(=O)c1cc2ccc(CBr)cc2n1C(=O)[O-] (optimized conformer: 64.46867375857923 kcal/mol)

>  <smiles>  (35) 
NC(=O)c1cc2ccc(CBr)cc2n1C(=O)O

>  <score_type>  (35) 
oracle

>  <origin>  (35) 
adg

>  <m_score__min__energy>  (35) 
-8.4600000000000009

>  <m_primary>  (35) 
energy

$$$$
35:0
     RDKit          3D

 34 35  0  0  0  0  0  0  0  0999 V2000
   -9.4510   20.7730  -31.9860 C   0  0  0  0  0  0  0  0  0  0  0  0
   -9.4790   22.0640  -31.6460 C   0  0  0  0  0  0  0  0  0  0  0  0
   -8.3080   22.9770  -31.8920 C   0  0  0  0  0  0  0  0  0  0  0  0
   -7.2160   22.8200  -30.8650 C   0  0  0  0  0  0  0  0  0  0  0  0
   -7.4910   23.0360  -29.6550 O   0  0  0  0  0  0  0  0  0  0  0  0
   -5.8710   22.4470  -31.2250 N   0  0  0  0  0  0  0  0  0  0  0  0
   -4.7360   23.1760  -31.0230 C   0  0  0  0  0  0  0  0  0  0  0  0
   -4.6430   24.4710  -30.3140 C   0  0  0  0  0  0  0  0  0  0  0  0
   -5.3620   24.7200  -29.1040 N   0  0  0  0  0  0  0  0  0  0  0  0
   -3.8770   25.3640  -30.7640 O   0  0  0  0  0  0  0  0  0  0  0  0
   -3.6390   22.5480  -31.6070 C   0  0  0  0  0  0  0  0  0  0  0  0
   -4.1380   21.4050  -32.1850 C   0  0  0  0  0  0  0  0  0  0  0  0
   -3.4870   20.4220  -32.9250 C   0  0  0  0  0  0  0  0  0  0  0  0
   -4.2600   19.3760  -33.4550 C   0  0  0  0  0  0  0  0  0  0  0  0
   -5.6640   19.3480  -33.2610 C   0  0  0  0  0  0  0  0  0  0  0  0
   -6.4800   18.2150  -33.8200 C   0  0  0  0  0  0  0  0  0  0  0  0
   -7.1570   17.4640  -32.7150 C   0  0  0  0  0  0  0  0  0  0  0  0
   -8.1290   17.9380  -32.1490 O   0  0  0  0  0  0  0  0  0  0  0  0
   -6.2880   20.3620  -32.5030 C   0  0  0  0  0  0  0  0  0  0  0  0
   -5.4900   21.3720  -31.9530 C   0  0  0  0  0  0  0  0  0  0  0  0
  -10.3250   20.1340  -31.7916 H   0  0  0  0  0  0  0  0  0  0  0  0
   -8.5539   20.3485  -32.4605 H   0  0  0  0  0  0  0  0  0  0  0  0
  -10.3841   22.4720  -31.1724 H   0  0  0  0  0  0  0  0  0  0  0  0
   -7.8909   22.7531  -32.8849 H   0  0  0  0  0  0  0  0  0  0  0  0
   -8.6765   24.0114  -31.8266 H   0  0  0  0  0  0  0  0  0  0  0  0
   -5.3190   25.6610  -28.6570 H   0  0  0  0  0  0  0  0  0  0  0  0
   -5.8570   23.9550  -28.5990 H   0  0  0  0  0  0  0  0  0  0  0  0
   -2.5946   22.8933  -31.6060 H   0  0  0  0  0  0  0  0  0  0  0  0
   -2.4002   20.4632  -33.0897 H   0  0  0  0  0  0  0  0  0  0  0  0
   -3.7720   18.5719  -34.0253 H   0  0  0  0  0  0  0  0  0  0  0  0
   -7.2416   18.6194  -34.5030 H   0  0  0  0  0  0  0  0  0  0  0  0
   -5.8129   17.5282  -34.3616 H   0  0  0  0  0  0  0  0  0  0  0  0
   -6.7754   16.4780  -32.4113 H   0  0  0  0  0  0  0  0  0  0  0  0
   -7.3770   20.3586  -32.3479 H   0  0  0  0  0  0  0  0  0  0  0  0
  1  2  2  0
  2  3  1  0
  3  4  1  0
  4  5  2  0
  4  6  1  0
  6  7  1  0
  7  8  1  0
  8  9  1  0
  8 10  2  0
  7 11  2  0
 11 12  1  0
 12 13  2  0
 13 14  1  0
 14 15  2  0
 15 16  1  0
 16 17  1  0
 17 18  2  0
 15 19  1  0
 19 20  2  0
 20  6  1  0
 20 12  1  0
  1 21  1  0
  1 22  1  0
  2 23  1  0
  3 24  1  0
  3 25  1  0
  9 26  1  0
  9 27  1  0
 11 28  1  0
 13 29  1  0
 14 30  1  0
 16 31  1  0
 16 32  1  0
 17 33  1  0
 19 34  1  0
M  END
>  <UniqueID>  (36) 
36

>  <SMILES>  (36) 
C=CCC(=O)n1c(C(N)=O)cc2ccc(CC=O)cc21

>  <Energy>  (36) 
69.48055437556442

>  <Genealogy>  (36) 
C=CCC(=O)n1c(C(N)=O)cc2ccc(CC=O)cc21 (3D coordinates assigned)
C=CCC(=O)n1c(C(N)=O)cc2ccc(CC=O)cc21 (optimized conformer: 69.48055437556442 kcal/mol)

>  <smiles>  (36) 
C=CCC(=O)n1c(C(N)=O)cc2ccc(CC=O)cc21

>  <score_type>  (36) 
oracle

>  <origin>  (36) 
adg

>  <m_score__min__energy>  (36) 
-8.0899999999999999

>  <m_primary>  (36) 
energy

$$$$
36:0
     RDKit          3D

 47 49  0  0  0  0  0  0  0  0999 V2000
   -2.9440   25.3010  -30.4800 H   0  0  0  0  0  0  0  0  0  0  0  0
   -3.8730   25.6040  -30.8440 N   0  0  0  0  0  0  0  0  0  0  0  0
   -5.0660   24.9150  -30.4760 C   0  0  0  0  0  0  0  0  0  0  0  0
   -5.8570   25.4510  -29.6540 O   0  0  0  0  0  0  0  0  0  0  0  0
   -5.4010   23.6020  -31.0660 C   0  0  0  0  0  0  0  0  0  0  0  0
   -6.7010   23.2000  -31.3700 C   0  0  0  0  0  0  0  0  0  0  0  0
   -7.6305   23.7622  -31.1971 H   0  0  0  0  0  0  0  0  0  0  0  0
   -6.5740   21.9490  -31.9330 C   0  0  0  0  0  0  0  0  0  0  0  0
   -7.5470   21.0760  -32.4090 C   0  0  0  0  0  0  0  0  0  0  0  0
   -8.6125   21.3487  -32.3891 H   0  0  0  0  0  0  0  0  0  0  0  0
   -7.1260   19.8350  -32.9160 C   0  0  0  0  0  0  0  0  0  0  0  0
   -7.8720   19.1268  -33.3057 H   0  0  0  0  0  0  0  0  0  0  0  0
   -5.7510   19.4830  -32.9320 C   0  0  0  0  0  0  0  0  0  0  0  0
   -5.3170   18.1660  -33.4640 C   0  0  0  0  0  0  0  0  0  0  0  0
   -6.2340   17.1050  -33.5750 C   0  0  0  0  0  0  0  0  0  0  0  0
   -7.2794   17.2543  -33.2671 H   0  0  0  0  0  0  0  0  0  0  0  0
   -5.8280   15.8570  -34.0750 C   0  0  0  0  0  0  0  0  0  0  0  0
   -6.8070   14.7240  -34.1930 C   0  0  0  0  0  0  0  0  0  0  0  0
   -7.2998   14.5721  -33.2214 H   0  0  0  0  0  0  0  0  0  0  0  0
   -7.7570   15.0270  -35.1520 F   0  0  0  0  0  0  0  0  0  0  0  0
   -6.1420   13.5680  -34.5590 F   0  0  0  0  0  0  0  0  0  0  0  0
   -4.4950   15.6740  -34.4700 C   0  0  0  0  0  0  0  0  0  0  0  0
   -4.1701   14.6977  -34.8590 H   0  0  0  0  0  0  0  0  0  0  0  0
   -3.5750   16.7240  -34.3730 C   0  0  0  0  0  0  0  0  0  0  0  0
   -1.8990   16.4800  -34.8520 S   0  0  0  0  0  0  0  0  0  0  0  0
   -1.1830   17.8010  -34.8890 O   0  0  0  0  0  0  0  0  0  0  0  0
   -1.8420   15.8630  -36.2210 O   0  0  0  0  0  0  0  0  0  0  0  0
   -1.1020   15.4040  -33.6820 C   0  0  0  0  0  0  0  0  0  0  0  0
   -1.3438   15.7305  -32.6598 H   0  0  0  0  0  0  0  0  0  0  0  0
   -1.4563   14.3734  -33.8312 H   0  0  0  0  0  0  0  0  0  0  0  0
   -0.0128   15.4425  -33.8312 H   0  0  0  0  0  0  0  0  0  0  0  0
   -3.9860   17.9620  -33.8650 C   0  0  0  0  0  0  0  0  0  0  0  0
   -3.2595   18.7834  -33.7789 H   0  0  0  0  0  0  0  0  0  0  0  0
   -4.7940   20.4000  -32.4340 C   0  0  0  0  0  0  0  0  0  0  0  0
   -3.7232   20.1481  -32.4273 H   0  0  0  0  0  0  0  0  0  0  0  0
   -5.2420   21.6330  -31.9510 C   0  0  0  0  0  0  0  0  0  0  0  0
   -4.5090   22.6390  -31.4300 N   0  0  0  0  0  0  0  0  0  0  0  0
   -3.0900   22.6270  -31.2060 C   0  0  0  0  0  0  0  0  0  0  0  0
   -2.6010   23.3990  -30.3380 O   0  0  0  0  0  0  0  0  0  0  0  0
   -2.1970   21.7140  -31.9630 C   0  0  0  0  0  0  0  0  0  0  0  0
   -1.1800   20.9980  -31.2440 N   0  0  0  0  0  0  0  0  0  0  0  0
   -0.7260   20.1390  -31.6210 H   0  0  0  0  0  0  0  0  0  0  0  0
   -0.9720   21.2300  -30.2480 H   0  0  0  0  0  0  0  0  0  0  0  0
   -2.3450   21.5730  -33.2550 N   0  0  0  0  0  0  0  0  0  0  0  0
   -3.1120   22.0800  -33.7500 H   0  0  0  0  0  0  0  0  0  0  0  0
   -1.5060   20.8190  -34.0520 O   0  0  0  0  0  0  0  0  0  0  0  0
   -1.6460   19.8340  -34.2340 H   0  0  0  0  0  0  0  0  0  0  0  0
  1  2  1  0
  2  3  1  0
  3  4  2  0
  3  5  1  0
  5  6  2  0
  6  7  1  0
  6  8  1  0
  8  9  2  0
  9 10  1  0
  9 11  1  0
 11 12  1  0
 11 13  2  0
 13 14  1  0
 14 15  2  0
 15 16  1  0
 15 17  1  0
 17 18  1  0
 18 19  1  0
 18 20  1  0
 18 21  1  0
 17 22  2  0
 22 23  1  0
 22 24  1  0
 24 25  1  0
 25 26  2  0
 25 27  2  0
 25 28  1  0
 28 29  1  0
 28 30  1  0
 28 31  1  0
 24 32  2  0
 32 33  1  0
 13 34  1  0
 34 35  1  0
 34 36  2  0
 36 37  1  0
 37 38  1  0
 38 39  2  0
 38 40  1  0
 40 41  1  0
 41 42  1  0
 41 43  1  0
 40 44  2  0
 44 45  1  0
 44 46  1  0
 46 47  1  0
 37  5  1  0
 36  8  1  0
 32 14  1  0
M  CHG  2   2  -1  44   1
M  END
>  <UniqueID>  (37) 
37

>  <SMILES>  (37) 
CS(=O)(=O)c1cc(-c2ccc3cc(C([NH-])=O)n(C(=O)/C(N)=[NH+]/O)c3c2)cc(C(F)F)c1

>  <Energy>  (37) 
93.92417243346806

>  <Genealogy>  (37) 
CS(=O)(=O)c1cc(-c2ccc3cc(C([NH-])=O)n(C(=O)/C(N)=[NH+]/O)c3c2)cc(C(F)F)c1 (protonated)
CS(=O)(=O)c1cc(-c2ccc3cc(C([NH-])=O)n(C(=O)/C(N)=[NH+]/O)c3c2)cc(C(F)F)c1 (cis-trans isomerization)
CS(=O)(=O)c1cc(-c2ccc3cc(C([NH-])=O)n(C(=O)/C(N)=[NH+]/O)c3c2)cc(C(F)F)c1 (3D coordinates assigned)
CS(=O)(=O)c1cc(-c2ccc3cc(C([NH-])=O)n(C(=O)/C(N)=[NH+]/O)c3c2)cc(C(F)F)c1 (optimized conformer: 93.92417243346806 kcal/mol)

>  <smiles>  (37) 
CS(=O)(=O)c1cc(-c2ccc3cc(C(N)=O)n(C(=O)/C(N)=N/O)c3c2)cc(C(F)F)c1

>  <score_type>  (37) 
oracle

>  <origin>  (37) 
adg

>  <m_score__min__energy>  (37) 
-11.15

>  <m_primary>  (37) 
energy

$$$$
37:0
     RDKit          3D

 43 44  0  0  0  0  0  0  0  0999 V2000
   -8.3120   18.2010  -32.0330 C   0  0  0  0  0  0  0  0  0  0  0  0
   -7.2200   17.2170  -32.1550 N   0  0  0  0  0  0  0  0  0  0  0  0
   -6.1210   17.5960  -31.2530 C   0  0  0  0  0  0  0  0  0  0  0  0
   -6.7370   17.1290  -33.5500 C   0  0  0  0  0  0  0  0  0  0  0  0
   -5.3510   17.7780  -33.6790 C   0  0  0  0  0  0  0  0  0  0  0  0
   -5.4280   19.1910  -34.2760 C   0  0  0  0  0  0  0  0  0  0  0  0
   -5.5180   20.2220  -33.2260 N   0  0  0  0  0  0  0  0  0  0  0  0
   -6.8310   20.7700  -32.8630 C   0  0  0  0  0  0  0  0  0  0  0  0
   -4.3370   20.6820  -32.5300 C   0  0  0  0  0  0  0  0  0  0  0  0
   -3.1440   19.9120  -32.5600 C   0  0  0  0  0  0  0  0  0  0  0  0
   -1.9890   20.3450  -31.8900 C   0  0  0  0  0  0  0  0  0  0  0  0
   -2.0470   21.5530  -31.2040 C   0  0  0  0  0  0  0  0  0  0  0  0
   -1.0850   22.1930  -30.4580 C   0  0  0  0  0  0  0  0  0  0  0  0
   -1.6910   23.3590  -29.9940 C   0  0  0  0  0  0  0  0  0  0  0  0
   -0.9780   24.3920  -29.2150 C   0  0  0  0  0  0  0  0  0  0  0  0
   -1.5340   25.7000  -29.0970 N   0  0  0  0  0  0  0  0  0  0  0  0
    0.0990   24.1230  -28.6210 O   0  0  0  0  0  0  0  0  0  0  0  0
   -2.9800   23.4330  -30.4320 N   0  0  0  0  0  0  0  0  0  0  0  0
   -3.9570   24.4390  -30.1190 C   0  0  0  0  0  0  0  0  0  0  0  0
   -4.8440   24.2170  -29.2520 O   0  0  0  0  0  0  0  0  0  0  0  0
   -3.9170   25.6780  -30.7480 O   0  0  0  0  0  0  0  0  0  0  0  0
   -3.1800   22.3210  -31.1750 C   0  0  0  0  0  0  0  0  0  0  0  0
   -4.3530   21.9050  -31.8160 C   0  0  0  0  0  0  0  0  0  0  0  0
   -8.5197   18.3882  -30.9691 H   0  0  0  0  0  0  0  0  0  0  0  0
   -8.0141   19.1415  -32.5194 H   0  0  0  0  0  0  0  0  0  0  0  0
   -9.2166   17.8071  -32.5194 H   0  0  0  0  0  0  0  0  0  0  0  0
   -6.4482   17.4832  -30.2089 H   0  0  0  0  0  0  0  0  0  0  0  0
   -5.2538   16.9450  -31.4379 H   0  0  0  0  0  0  0  0  0  0  0  0
   -5.8394   18.6432  -31.4379 H   0  0  0  0  0  0  0  0  0  0  0  0
   -6.6707   16.0712  -33.8445 H   0  0  0  0  0  0  0  0  0  0  0  0
   -7.4422   17.6606  -34.2058 H   0  0  0  0  0  0  0  0  0  0  0  0
   -4.8937   17.8393  -32.6804 H   0  0  0  0  0  0  0  0  0  0  0  0
   -4.7476   17.1563  -34.3568 H   0  0  0  0  0  0  0  0  0  0  0  0
   -4.5258   19.3733  -34.8783 H   0  0  0  0  0  0  0  0  0  0  0  0
   -6.3346   19.2526  -34.8959 H   0  0  0  0  0  0  0  0  0  0  0  0
   -6.9223   20.8081  -31.7675 H   0  0  0  0  0  0  0  0  0  0  0  0
   -6.9312   21.7851  -33.2748 H   0  0  0  0  0  0  0  0  0  0  0  0
   -7.6231   20.1274  -33.2748 H   0  0  0  0  0  0  0  0  0  0  0  0
   -3.1248   18.9631  -33.1160 H   0  0  0  0  0  0  0  0  0  0  0  0
   -1.0660   19.7468  -31.9072 H   0  0  0  0  0  0  0  0  0  0  0  0
   -0.0553   21.8559  -30.2679 H   0  0  0  0  0  0  0  0  0  0  0  0
   -2.5660   25.8390  -29.0200 H   0  0  0  0  0  0  0  0  0  0  0  0
   -5.2672   22.5147  -31.7662 H   0  0  0  0  0  0  0  0  0  0  0  0
  1  2  1  0
  2  3  1  0
  2  4  1  0
  4  5  1  0
  5  6  1  0
  6  7  1  0
  7  8  1  0
  7  9  1  0
  9 10  2  0
 10 11  1  0
 11 12  2  0
 12 13  1  0
 13 14  2  0
 14 15  1  0
 15 16  1  0
 15 17  2  0
 14 18  1  0
 18 19  1  0
 19 20  2  0
 19 21  1  0
 18 22  1  0
 22 23  2  0
 23  9  1  0
 22 12  1  0
  1 24  1  0
  1 25  1  0
  1 26  1  0
  3 27  1  0
  3 28  1  0
  3 29  1  0
  4 30  1  0
  4 31  1  0
  5 32  1  0
  5 33  1  0
  6 34  1  0
  6 35  1  0
  8 36  1  0
  8 37  1  0
  8 38  1  0
 10 39  1  0
 11 40  1  0
 13 41  1  0
 16 42  1  0
 23 43  1  0
M  CHG  2  16  -1  21  -1
M  END
>  <UniqueID>  (38) 
38

>  <SMILES>  (38) 
CN(C)CCCN(C)c1ccc2cc(C([NH-])=O)n(C(=O)[O-])c2c1

>  <Energy>  (38) 
80.83524381173396

>  <Genealogy>  (38) 
CN(C)CCCN(C)c1ccc2cc(C([NH-])=O)n(C(=O)[O-])c2c1 (protonated)
CN(C)CCCN(C)c1ccc2cc(C([NH-])=O)n(C(=O)[O-])c2c1 (3D coordinates assigned)
CN(C)CCCN(C)c1ccc2cc(C([NH-])=O)n(C(=O)[O-])c2c1 (optimized conformer: 80.83524381173396 kcal/mol)

>  <smiles>  (38) 
CN(C)CCCN(C)c1ccc2cc(C(N)=O)n(C(=O)O)c2c1

>  <score_type>  (38) 
oracle

>  <origin>  (38) 
adg

>  <m_score__min__energy>  (38) 
-11.06

>  <m_primary>  (38) 
energy

$$$$
38:0
     RDKit          3D

 38 39  0  0  0  0  0  0  0  0999 V2000
   -8.4470   23.1570  -31.9490 C   0  0  0  0  0  0  0  0  0  0  0  0
   -9.0240   21.7830  -31.6320 C   0  0  0  0  0  0  0  0  0  0  0  0
   -8.5280   20.8070  -32.5450 O   0  0  0  0  0  0  0  0  0  0  0  0
   -7.6520   19.7800  -32.1770 C   0  0  0  0  0  0  0  0  0  0  0  0
   -8.0820   18.7680  -31.5570 O   0  0  0  0  0  0  0  0  0  0  0  0
   -6.2580   19.8750  -32.5100 N   0  0  0  0  0  0  0  0  0  0  0  0
   -5.5760   19.1480  -33.4390 C   0  0  0  0  0  0  0  0  0  0  0  0
   -6.1070   17.9950  -34.1950 C   0  0  0  0  0  0  0  0  0  0  0  0
   -6.9950   17.0570  -33.5860 N   0  0  0  0  0  0  0  0  0  0  0  0
   -5.7270   17.8060  -35.3810 O   0  0  0  0  0  0  0  0  0  0  0  0
   -4.2660   19.6030  -33.5570 C   0  0  0  0  0  0  0  0  0  0  0  0
   -4.1570   20.6330  -32.6490 C   0  0  0  0  0  0  0  0  0  0  0  0
   -3.0690   21.4470  -32.3470 C   0  0  0  0  0  0  0  0  0  0  0  0
   -3.2480   22.4530  -31.3840 C   0  0  0  0  0  0  0  0  0  0  0  0
   -4.5070   22.6410  -30.7610 C   0  0  0  0  0  0  0  0  0  0  0  0
   -4.6810   23.7070  -29.7160 C   0  0  0  0  0  0  0  0  0  0  0  0
   -3.8850   24.9180  -30.0840 C   0  0  0  0  0  0  0  0  0  0  0  0
   -4.2340   25.6240  -31.0690 O   0  0  0  0  0  0  0  0  0  0  0  0
   -2.7030   25.2390  -29.3450 N   0  0  0  0  0  0  0  0  0  0  0  0
   -1.6810   24.2520  -29.0310 C   0  0  0  0  0  0  0  0  0  0  0  0
   -5.5860   21.7900  -31.0870 C   0  0  0  0  0  0  0  0  0  0  0  0
   -5.3740   20.7790  -32.0320 C   0  0  0  0  0  0  0  0  0  0  0  0
   -8.2246   23.6866  -31.0109 H   0  0  0  0  0  0  0  0  0  0  0  0
   -7.5218   23.0404  -32.5325 H   0  0  0  0  0  0  0  0  0  0  0  0
   -9.1780   23.7359  -32.5325 H   0  0  0  0  0  0  0  0  0  0  0  0
   -8.7385   21.4985  -30.6085 H   0  0  0  0  0  0  0  0  0  0  0  0
  -10.1193   21.8290  -31.7230 H   0  0  0  0  0  0  0  0  0  0  0  0
   -7.3930   16.2720  -34.1480 H   0  0  0  0  0  0  0  0  0  0  0  0
   -7.1910   17.0860  -32.5610 H   0  0  0  0  0  0  0  0  0  0  0  0
   -3.4849   19.2217  -34.2311 H   0  0  0  0  0  0  0  0  0  0  0  0
   -2.0994   21.3065  -32.8471 H   0  0  0  0  0  0  0  0  0  0  0  0
   -2.4027   23.1016  -31.1104 H   0  0  0  0  0  0  0  0  0  0  0  0
   -5.7448   23.9778  -29.6454 H   0  0  0  0  0  0  0  0  0  0  0  0
   -4.3287   23.3239  -28.7469 H   0  0  0  0  0  0  0  0  0  0  0  0
   -1.5845   24.1588  -27.9392 H   0  0  0  0  0  0  0  0  0  0  0  0
   -1.9669   23.2795  -29.4582 H   0  0  0  0  0  0  0  0  0  0  0  0
   -0.7190   24.5716  -29.4582 H   0  0  0  0  0  0  0  0  0  0  0  0
   -6.5689   21.9184  -30.6101 H   0  0  0  0  0  0  0  0  0  0  0  0
  1  2  1  0
  2  3  1  0
  3  4  1  0
  4  5  2  0
  4  6  1  0
  6  7  1  0
  7  8  1  0
  8  9  1  0
  8 10  2  0
  7 11  2  0
 11 12  1  0
 12 13  2  0
 13 14  1  0
 14 15  2  0
 15 16  1  0
 16 17  1  0
 17 18  2  0
 17 19  1  0
 19 20  1  0
 15 21  1  0
 21 22  2  0
 22  6  1  0
 22 12  1  0
  1 23  1  0
  1 24  1  0
  1 25  1  0
  2 26  1  0
  2 27  1  0
  9 28  1  0
  9 29  1  0
 11 30  1  0
 13 31  1  0
 14 32  1  0
 16 33  1  0
 16 34  1  0
 20 35  1  0
 20 36  1  0
 20 37  1  0
 21 38  1  0
M  CHG  1  19  -1
M  END
>  <UniqueID>  (39) 
39

>  <SMILES>  (39) 
CCOC(=O)n1c(C(N)=O)cc2ccc(CC(=O)[N-]C)cc21

>  <Energy>  (39) 
68.46946933050256

>  <Genealogy>  (39) 
CCOC(=O)n1c(C(N)=O)cc2ccc(CC(=O)[N-]C)cc21 (protonated)
CCOC(=O)n1c(C(N)=O)cc2ccc(CC(=O)[N-]C)cc21 (3D coordinates assigned)
CCOC(=O)n1c(C(N)=O)cc2ccc(CC(=O)[N-]C)cc21 (optimized conformer: 68.46946933050256 kcal/mol)

>  <smiles>  (39) 
CCOC(=O)n1c(C(N)=O)cc2ccc(CC(=O)NC)cc21

>  <score_type>  (39) 
oracle

>  <origin>  (39) 
adg

>  <m_score__min__energy>  (39) 
-8.9299999999999997

>  <m_primary>  (39) 
energy

$$$$
39:0
     RDKit          3D

 31 33  0  0  0  0  0  0  0  0999 V2000
   -1.3340   25.7710  -29.0520 N   0  0  0  0  0  0  0  0  0  0  0  0
   -0.8600   24.4480  -29.2950 C   0  0  0  0  0  0  0  0  0  0  0  0
    0.3040   24.1350  -28.9300 O   0  0  0  0  0  0  0  0  0  0  0  0
   -1.7310   23.4300  -29.9170 C   0  0  0  0  0  0  0  0  0  0  0  0
   -1.2640   22.1960  -30.3640 C   0  0  0  0  0  0  0  0  0  0  0  0
   -2.3810   21.5130  -30.7860 C   0  0  0  0  0  0  0  0  0  0  0  0
   -2.4970   20.2420  -31.3360 C   0  0  0  0  0  0  0  0  0  0  0  0
   -3.7770   19.8000  -31.7120 C   0  0  0  0  0  0  0  0  0  0  0  0
   -4.9130   20.6340  -31.5410 C   0  0  0  0  0  0  0  0  0  0  0  0
   -6.2610   20.1660  -31.9490 C   0  0  0  0  0  0  0  0  0  0  0  0
   -6.4660   18.8260  -32.3230 C   0  0  0  0  0  0  0  0  0  0  0  0
   -7.7390   18.4060  -32.7130 C   0  0  0  0  0  0  0  0  0  0  0  0
   -8.7950   19.3150  -32.7270 C   0  0  0  0  0  0  0  0  0  0  0  0
  -10.0360   18.9170  -33.1030 F   0  0  0  0  0  0  0  0  0  0  0  0
   -8.5630   20.6380  -32.3500 C   0  0  0  0  0  0  0  0  0  0  0  0
   -7.3160   21.0350  -31.9740 N   0  0  0  0  0  0  0  0  0  0  0  0
   -4.7510   21.9210  -30.9760 C   0  0  0  0  0  0  0  0  0  0  0  0
   -3.4670   22.3270  -30.5940 C   0  0  0  0  0  0  0  0  0  0  0  0
   -3.0850   23.5100  -30.0650 N   0  0  0  0  0  0  0  0  0  0  0  0
   -3.9350   24.6390  -29.8020 C   0  0  0  0  0  0  0  0  0  0  0  0
   -3.8750   25.6630  -30.5320 O   0  0  0  0  0  0  0  0  0  0  0  0
   -4.8480   24.6000  -28.7560 O   0  0  0  0  0  0  0  0  0  0  0  0
   -2.3560   25.9680  -28.9690 H   0  0  0  0  0  0  0  0  0  0  0  0
   -0.2224   21.8426  -30.3768 H   0  0  0  0  0  0  0  0  0  0  0  0
   -1.6135   19.6012  -31.4729 H   0  0  0  0  0  0  0  0  0  0  0  0
   -3.9001   18.7959  -32.1439 H   0  0  0  0  0  0  0  0  0  0  0  0
   -5.6284   18.1131  -32.3084 H   0  0  0  0  0  0  0  0  0  0  0  0
   -7.9080   17.3600  -33.0085 H   0  0  0  0  0  0  0  0  0  0  0  0
   -9.3903   21.3629  -32.3565 H   0  0  0  0  0  0  0  0  0  0  0  0
   -7.1860   22.0290  -31.6790 H   0  0  0  0  0  0  0  0  0  0  0  0
   -5.6151   22.5879  -30.8399 H   0  0  0  0  0  0  0  0  0  0  0  0
  1  2  1  0
  2  3  2  0
  2  4  1  0
  4  5  2  0
  5  6  1  0
  6  7  2  0
  7  8  1  0
  8  9  2  0
  9 10  1  0
 10 11  2  0
 11 12  1  0
 12 13  2  0
 13 14  1  0
 13 15  1  0
 15 16  2  0
  9 17  1  0
 17 18  2  0
 18 19  1  0
 19 20  1  0
 20 21  2  0
 20 22  1  0
 19  4  1  0
 18  6  1  0
 16 10  1  0
  1 23  1  0
  5 24  1  0
  7 25  1  0
  8 26  1  0
 11 27  1  0
 12 28  1  0
 15 29  1  0
 16 30  1  0
 17 31  1  0
M  CHG  3   1  -1  16   1  22  -1
M  END
>  <UniqueID>  (40) 
40

>  <SMILES>  (40) 
[NH-]C(=O)c1cc2ccc(-c3ccc(F)c[nH+]3)cc2n1C(=O)[O-]

>  <Energy>  (40) 
78.98658190870023

>  <Genealogy>  (40) 
[NH-]C(=O)c1cc2ccc(-c3ccc(F)c[nH+]3)cc2n1C(=O)[O-] (protonated)
[NH-]C(=O)c1cc2ccc(-c3ccc(F)c[nH+]3)cc2n1C(=O)[O-] (3D coordinates assigned)
[NH-]C(=O)c1cc2ccc(-c3ccc(F)c[nH+]3)cc2n1C(=O)[O-] (optimized conformer: 78.98658190870023 kcal/mol)

>  <smiles>  (40) 
NC(=O)c1cc2ccc(-c3ccc(F)cn3)cc2n1C(=O)O

>  <score_type>  (40) 
oracle

>  <origin>  (40) 
adg

>  <m_score__min__energy>  (40) 
-10.27

>  <m_primary>  (40) 
energy

$$$$
40:0
     RDKit          3D

 39 41  0  0  0  0  0  0  0  0999 V2000
   -2.3920   17.1430  -33.8470 C   0  0  0  0  0  0  0  0  0  0  0  0
   -3.5470   17.4590  -33.0810 O   0  0  0  0  0  0  0  0  0  0  0  0
   -4.3880   18.5290  -33.3880 C   0  0  0  0  0  0  0  0  0  0  0  0
   -3.9500   19.5100  -34.0530 O   0  0  0  0  0  0  0  0  0  0  0  0
   -5.7580   18.5060  -32.9530 N   0  0  0  0  0  0  0  0  0  0  0  0
   -6.6770   17.5250  -33.1790 C   0  0  0  0  0  0  0  0  0  0  0  0
   -6.3950   16.1930  -33.7470 C   0  0  0  0  0  0  0  0  0  0  0  0
   -5.2390   15.4510  -33.3560 N   0  0  0  0  0  0  0  0  0  0  0  0
   -7.2170   15.6740  -34.5460 O   0  0  0  0  0  0  0  0  0  0  0  0
   -7.9400   17.9250  -32.7560 C   0  0  0  0  0  0  0  0  0  0  0  0
   -7.7670   19.1900  -32.2440 C   0  0  0  0  0  0  0  0  0  0  0  0
   -8.6980   20.0690  -31.7040 C   0  0  0  0  0  0  0  0  0  0  0  0
   -8.2500   21.3320  -31.2880 C   0  0  0  0  0  0  0  0  0  0  0  0
   -6.8850   21.7060  -31.4220 C   0  0  0  0  0  0  0  0  0  0  0  0
   -6.4340   23.0130  -30.9900 N   0  0  0  0  0  0  0  0  0  0  0  0
   -7.0460   23.7640  -29.9000 C   0  0  0  0  0  0  0  0  0  0  0  0
   -6.1780   24.9990  -29.6970 C   0  0  0  0  0  0  0  0  0  0  0  0
   -5.3490   25.1270  -30.9760 C   0  0  1  0  0  0  0  0  0  0  0  0
   -4.0590   25.6360  -30.7320 O   0  0  0  0  0  0  0  0  0  0  0  0
   -5.3200   23.7300  -31.5950 C   0  0  0  0  0  0  0  0  0  0  0  0
   -5.9720   20.7800  -31.9840 C   0  0  0  0  0  0  0  0  0  0  0  0
   -6.4430   19.5200  -32.3740 C   0  0  0  0  0  0  0  0  0  0  0  0
   -1.5550   16.9140  -33.1709 H   0  0  0  0  0  0  0  0  0  0  0  0
   -2.6006   16.2689  -34.4814 H   0  0  0  0  0  0  0  0  0  0  0  0
   -2.1266   18.0015  -34.4814 H   0  0  0  0  0  0  0  0  0  0  0  0
   -4.6350   15.7710  -32.5690 H   0  0  0  0  0  0  0  0  0  0  0  0
   -5.0360   14.5270  -33.7960 H   0  0  0  0  0  0  0  0  0  0  0  0
   -8.8771   17.3522  -32.8177 H   0  0  0  0  0  0  0  0  0  0  0  0
   -9.7556   19.7830  -31.6055 H   0  0  0  0  0  0  0  0  0  0  0  0
   -8.9661   22.0438  -30.8514 H   0  0  0  0  0  0  0  0  0  0  0  0
   -8.0715   24.0582  -30.1680 H   0  0  0  0  0  0  0  0  0  0  0  0
   -7.1073   23.1611  -28.9820 H   0  0  0  0  0  0  0  0  0  0  0  0
   -6.8054   25.8912  -29.5540 H   0  0  0  0  0  0  0  0  0  0  0  0
   -5.5417   24.9098  -28.8041 H   0  0  0  0  0  0  0  0  0  0  0  0
   -5.7987   25.8548  -31.6674 H   0  0  0  0  0  0  0  0  0  0  0  0
   -3.5730   25.6680  -31.5970 H   0  0  0  0  0  0  0  0  0  0  0  0
   -5.4485   23.7901  -32.6858 H   0  0  0  0  0  0  0  0  0  0  0  0
   -4.3611   23.2228  -31.4127 H   0  0  0  0  0  0  0  0  0  0  0  0
   -4.9123   21.0458  -32.1118 H   0  0  0  0  0  0  0  0  0  0  0  0
  1  2  1  0
  2  3  1  0
  3  4  2  0
  3  5  1  0
  5  6  1  0
  6  7  1  0
  7  8  1  0
  7  9  2  0
  6 10  2  0
 10 11  1  0
 11 12  2  0
 12 13  1  0
 13 14  2  0
 14 15  1  0
 15 16  1  0
 16 17  1  0
 17 18  1  0
 18 19  1  0
 18 20  1  0
 14 21  1  0
 21 22  2  0
 22  5  1  0
 22 11  1  0
 20 15  1  0
  1 23  1  0
  1 24  1  0
  1 25  1  0
  8 26  1  0
  8 27  1  0
 10 28  1  0
 12 29  1  0
 13 30  1  0
 16 31  1  0
 16 32  1  0
 17 33  1  0
 17 34  1  0
 18 35  1  6
 19 36  1  0
 20 37  1  0
 20 38  1  0
 21 39  1  0
M  END
>  <UniqueID>  (41) 
41

>  <SMILES>  (41) 
COC(=O)n1c(C(N)=O)cc2ccc(N3CC[C@@H](O)C3)cc21

>  <Energy>  (41) 
80.96724966850132

>  <Genealogy>  (41) 
COC(=O)n1c(C(N)=O)cc2ccc(N3CC[C@@H](O)C3)cc21 (chirality)
COC(=O)n1c(C(N)=O)cc2ccc(N3CC[C@@H](O)C3)cc21 (3D coordinates assigned)
COC(=O)n1c(C(N)=O)cc2ccc(N3CC[C@@H](O)C3)cc21 (nonaromatic ring conformer: 80.96724966850132 kcal/mol)

>  <smiles>  (41) 
COC(=O)n1c(C(N)=O)cc2ccc(N3CCC(O)C3)cc21

>  <score_type>  (41) 
oracle

>  <origin>  (41) 
adg

>  <m_score__min__energy>  (41) 
-8.1500000000000004

>  <m_primary>  (41) 
energy

$$$$
41:0
     RDKit          3D

 43 45  0  0  0  0  0  0  0  0999 V2000
   -1.0050   21.1180  -33.6020 C   0  0  0  0  0  0  0  0  0  0  0  0
   -0.7510   19.3510  -33.2500 S   0  0  0  0  0  0  0  0  0  0  0  0
   -2.4950   18.9520  -33.3710 C   0  0  0  0  0  0  0  0  0  0  0  0
   -2.9450   17.6590  -33.0940 C   0  0  0  0  0  0  0  0  0  0  0  0
   -4.3060   17.3600  -33.1940 C   0  0  0  0  0  0  0  0  0  0  0  0
   -5.2040   18.3640  -33.5840 C   0  0  0  0  0  0  0  0  0  0  0  0
   -6.6760   18.0860  -33.6650 C   0  0  0  0  0  0  0  0  0  0  0  0
   -7.3360   18.2810  -32.2970 C   0  0  0  0  0  0  0  0  0  0  0  0
   -7.4090   19.7430  -31.9500 C   0  0  0  0  0  0  0  0  0  0  0  0
   -8.6430   20.4340  -32.0400 C   0  0  0  0  0  0  0  0  0  0  0  0
   -8.7140   21.8100  -31.7630 C   0  0  0  0  0  0  0  0  0  0  0  0
   -7.5400   22.4640  -31.4020 C   0  0  0  0  0  0  0  0  0  0  0  0
   -7.3200   23.7920  -31.1170 C   0  0  0  0  0  0  0  0  0  0  0  0
   -5.9550   23.8910  -30.8480 C   0  0  0  0  0  0  0  0  0  0  0  0
   -5.2930   25.1480  -30.4380 C   0  0  0  0  0  0  0  0  0  0  0  0
   -3.8840   25.3180  -30.5820 N   0  0  0  0  0  0  0  0  0  0  0  0
   -5.9750   26.0730  -29.9220 O   0  0  0  0  0  0  0  0  0  0  0  0
   -5.3580   22.6710  -30.9630 N   0  0  0  0  0  0  0  0  0  0  0  0
   -3.9590   22.3670  -30.8390 C   0  0  0  0  0  0  0  0  0  0  0  0
   -3.4050   21.8090  -29.5680 C   0  0  0  0  0  0  0  0  0  0  0  0
   -3.1860   22.5630  -31.8150 O   0  0  0  0  0  0  0  0  0  0  0  0
   -6.3400   21.8090  -31.3050 C   0  0  0  0  0  0  0  0  0  0  0  0
   -6.2360   20.4450  -31.5940 C   0  0  0  0  0  0  0  0  0  0  0  0
   -4.7400   19.6190  -33.8420 N   0  0  0  0  0  0  0  0  0  0  0  0
   -3.4210   19.9310  -33.7510 C   0  0  0  0  0  0  0  0  0  0  0  0
   -1.0847   21.6727  -32.6554 H   0  0  0  0  0  0  0  0  0  0  0  0
   -0.1529   21.5026  -34.1817 H   0  0  0  0  0  0  0  0  0  0  0  0
   -1.9309   21.2470  -34.1817 H   0  0  0  0  0  0  0  0  0  0  0  0
   -2.2293   16.8779  -32.7978 H   0  0  0  0  0  0  0  0  0  0  0  0
   -4.6698   16.3466  -32.9689 H   0  0  0  0  0  0  0  0  0  0  0  0
   -7.1349   18.7748  -34.3895 H   0  0  0  0  0  0  0  0  0  0  0  0
   -6.8236   17.0441  -33.9853 H   0  0  0  0  0  0  0  0  0  0  0  0
   -8.3536   17.8641  -32.3235 H   0  0  0  0  0  0  0  0  0  0  0  0
   -6.7339   17.7645  -31.5350 H   0  0  0  0  0  0  0  0  0  0  0  0
   -9.5534   19.8885  -32.3292 H   0  0  0  0  0  0  0  0  0  0  0  0
   -9.6682   22.3532  -31.8295 H   0  0  0  0  0  0  0  0  0  0  0  0
   -8.0628   24.6032  -31.1041 H   0  0  0  0  0  0  0  0  0  0  0  0
   -3.4940   26.0430  -31.2240 H   0  0  0  0  0  0  0  0  0  0  0  0
   -3.8905   22.2980  -28.7106 H   0  0  0  0  0  0  0  0  0  0  0  0
   -3.5958   20.7264  -29.5290 H   0  0  0  0  0  0  0  0  0  0  0  0
   -2.3210   21.9920  -29.5290 H   0  0  0  0  0  0  0  0  0  0  0  0
   -5.2646   19.9311  -31.5453 H   0  0  0  0  0  0  0  0  0  0  0  0
   -3.0805   20.9525  -33.9758 H   0  0  0  0  0  0  0  0  0  0  0  0
  1  2  1  0
  2  3  1  0
  3  4  2  0
  4  5  1  0
  5  6  2  0
  6  7  1  0
  7  8  1  0
  8  9  1  0
  9 10  2  0
 10 11  1  0
 11 12  2  0
 12 13  1  0
 13 14  2  0
 14 15  1  0
 15 16  1  0
 15 17  2  0
 14 18  1  0
 18 19  1  0
 19 20  1  0
 19 21  2  0
 18 22  1  0
 22 23  2  0
  6 24  1  0
 24 25  2  0
 25  3  1  0
 23  9  1  0
 22 12  1  0
  1 26  1  0
  1 27  1  0
  1 28  1  0
  4 29  1  0
  5 30  1  0
  7 31  1  0
  7 32  1  0
  8 33  1  0
  8 34  1  0
 10 35  1  0
 11 36  1  0
 13 37  1  0
 16 38  1  0
 20 39  1  0
 20 40  1  0
 20 41  1  0
 23 42  1  0
 25 43  1  0
M  CHG  1  16  -1
M  END
>  <UniqueID>  (42) 
42

>  <SMILES>  (42) 
CSc1ccc(CCc2ccc3cc(C([NH-])=O)n(C(C)=O)c3c2)nc1

>  <Energy>  (42) 
76.72800635183843

>  <Genealogy>  (42) 
CSc1ccc(CCc2ccc3cc(C([NH-])=O)n(C(C)=O)c3c2)nc1 (protonated)
CSc1ccc(CCc2ccc3cc(C([NH-])=O)n(C(C)=O)c3c2)nc1 (3D coordinates assigned)
CSc1ccc(CCc2ccc3cc(C([NH-])=O)n(C(C)=O)c3c2)nc1 (optimized conformer: 76.72800635183843 kcal/mol)

>  <smiles>  (42) 
CSc1ccc(CCc2ccc3cc(C(N)=O)n(C(C)=O)c3c2)nc1

>  <score_type>  (42) 
oracle

>  <origin>  (42) 
adg

>  <m_score__min__energy>  (42) 
-11.34

>  <m_primary>  (42) 
energy

$$$$
42:0
     RDKit          3D

 44 45  0  0  0  0  0  0  0  0999 V2000
   -8.9350   19.2880  -32.3360 C   0  0  0  0  0  0  0  0  0  0  0  0
   -7.7680   18.6330  -31.6010 C   0  0  0  0  0  0  0  0  0  0  0  0
   -7.1750   17.4980  -32.4420 C   0  0  0  0  0  0  0  0  0  0  0  0
   -6.7750   19.6260  -31.3410 O   0  0  0  0  0  0  0  0  0  0  0  0
   -6.1350   20.3680  -32.3400 C   0  0  0  0  0  0  0  0  0  0  0  0
   -6.7900   21.1880  -33.0400 O   0  0  0  0  0  0  0  0  0  0  0  0
   -4.7270   20.1930  -32.5690 N   0  0  0  0  0  0  0  0  0  0  0  0
   -4.1290   19.4840  -33.5680 C   0  0  0  0  0  0  0  0  0  0  0  0
   -4.8170   18.6100  -34.5400 C   0  0  0  0  0  0  0  0  0  0  0  0
   -6.1210   18.9280  -35.0250 N   0  0  0  0  0  0  0  0  0  0  0  0
   -4.2670   17.5360  -34.9030 O   0  0  0  0  0  0  0  0  0  0  0  0
   -2.7470   19.6400  -33.5250 C   0  0  0  0  0  0  0  0  0  0  0  0
   -2.5080   20.4630  -32.4480 C   0  0  0  0  0  0  0  0  0  0  0  0
   -1.3060   20.9450  -31.9410 C   0  0  0  0  0  0  0  0  0  0  0  0
   -1.3550   21.7980  -30.8260 C   0  0  0  0  0  0  0  0  0  0  0  0
   -2.5980   22.1680  -30.2550 C   0  0  0  0  0  0  0  0  0  0  0  0
   -2.6420   23.0620  -29.0450 C   0  0  0  0  0  0  0  0  0  0  0  0
   -2.6590   24.5060  -29.4680 C   0  0  0  0  0  0  0  0  0  0  0  0
   -1.8880   25.3140  -28.8870 O   0  0  0  0  0  0  0  0  0  0  0  0
   -3.5270   25.0100  -30.4940 N   0  0  0  0  0  0  0  0  0  0  0  0
   -5.2360   24.7470  -30.6140 S   0  0  0  0  0  0  0  0  0  0  0  0
   -5.7660   23.5820  -29.3770 C   0  0  0  0  0  0  0  0  0  0  0  0
   -5.5390   24.1750  -31.9700 O   0  0  0  0  0  0  0  0  0  0  0  0
   -5.9770   26.0450  -30.4620 O   0  0  0  0  0  0  0  0  0  0  0  0
   -3.7980   21.6550  -30.7950 C   0  0  0  0  0  0  0  0  0  0  0  0
   -3.7190   20.7860  -31.8890 C   0  0  0  0  0  0  0  0  0  0  0  0
   -9.6506   19.6897  -31.6035 H   0  0  0  0  0  0  0  0  0  0  0  0
   -8.5580   20.1063  -32.9670 H   0  0  0  0  0  0  0  0  0  0  0  0
   -9.4372   18.5399  -32.9670 H   0  0  0  0  0  0  0  0  0  0  0  0
   -8.1236   18.2042  -30.6525 H   0  0  0  0  0  0  0  0  0  0  0  0
   -6.7694   16.7218  -31.7764 H   0  0  0  0  0  0  0  0  0  0  0  0
   -7.9609   17.0627  -33.0767 H   0  0  0  0  0  0  0  0  0  0  0  0
   -6.3688   17.8946  -33.0767 H   0  0  0  0  0  0  0  0  0  0  0  0
   -6.5790   18.3150  -35.7360 H   0  0  0  0  0  0  0  0  0  0  0  0
   -6.6710   19.7170  -34.6190 H   0  0  0  0  0  0  0  0  0  0  0  0
   -2.0041   19.1996  -34.2063 H   0  0  0  0  0  0  0  0  0  0  0  0
   -0.3456   20.6666  -32.3994 H   0  0  0  0  0  0  0  0  0  0  0  0
   -0.4200   22.1822  -30.3922 H   0  0  0  0  0  0  0  0  0  0  0  0
   -3.5497   22.8427  -28.4637 H   0  0  0  0  0  0  0  0  0  0  0  0
   -1.7491   22.8781  -28.4294 H   0  0  0  0  0  0  0  0  0  0  0  0
   -5.5767   23.9981  -28.3765 H   0  0  0  0  0  0  0  0  0  0  0  0
   -6.8419   23.3859  -29.4950 H   0  0  0  0  0  0  0  0  0  0  0  0
   -5.2069   22.6421  -29.4950 H   0  0  0  0  0  0  0  0  0  0  0  0
   -4.7721   21.9321  -30.3656 H   0  0  0  0  0  0  0  0  0  0  0  0
  1  2  1  0
  2  3  1  0
  2  4  1  0
  4  5  1  0
  5  6  2  0
  5  7  1  0
  7  8  1  0
  8  9  1  0
  9 10  1  0
  9 11  2  0
  8 12  2  0
 12 13  1  0
 13 14  2  0
 14 15  1  0
 15 16  2  0
 16 17  1  0
 17 18  1  0
 18 19  2  0
 18 20  1  0
 20 21  1  0
 21 22  1  0
 21 23  2  0
 21 24  2  0
 16 25  1  0
 25 26  2  0
 26  7  1  0
 26 13  1  0
  1 27  1  0
  1 28  1  0
  1 29  1  0
  2 30  1  0
  3 31  1  0
  3 32  1  0
  3 33  1  0
 10 34  1  0
 10 35  1  0
 12 36  1  0
 14 37  1  0
 15 38  1  0
 17 39  1  0
 17 40  1  0
 22 41  1  0
 22 42  1  0
 22 43  1  0
 25 44  1  0
M  CHG  1  20  -1
M  END
>  <UniqueID>  (43) 
43

>  <SMILES>  (43) 
CC(C)OC(=O)n1c(C(N)=O)cc2ccc(CC(=O)[N-]S(C)(=O)=O)cc21

>  <Energy>  (43) 
73.48051271841685

>  <Genealogy>  (43) 
CC(C)OC(=O)n1c(C(N)=O)cc2ccc(CC(=O)[N-]S(C)(=O)=O)cc21 (protonated)
CC(C)OC(=O)n1c(C(N)=O)cc2ccc(CC(=O)[N-]S(C)(=O)=O)cc21 (3D coordinates assigned)
CC(C)OC(=O)n1c(C(N)=O)cc2ccc(CC(=O)[N-]S(C)(=O)=O)cc21 (optimized conformer: 73.48051271841685 kcal/mol)

>  <smiles>  (43) 
CC(C)OC(=O)n1c(C(N)=O)cc2ccc(CC(=O)NS(C)(=O)=O)cc21

>  <score_type>  (43) 
oracle

>  <origin>  (43) 
adg

>  <m_score__min__energy>  (43) 
-9.9399999999999995

>  <m_primary>  (43) 
energy

$$$$
43:0
     RDKit          3D

 42 44  0  0  0  0  0  0  0  0999 V2000
   -4.8440   17.8980  -33.1370 C   0  0  0  0  0  0  0  0  0  0  0  0
   -6.2260   17.9170  -32.4480 C   0  0  0  0  0  0  0  0  0  0  0  0
   -7.2290   17.2330  -33.4090 C   0  0  0  0  0  0  0  0  0  0  0  0
   -6.1540   17.0800  -31.1470 C   0  0  0  0  0  0  0  0  0  0  0  0
   -5.3640   15.9360  -31.3440 O   0  0  0  0  0  0  0  0  0  0  0  0
   -6.6050   19.3760  -32.1120 C   0  0  0  0  0  0  0  0  0  0  0  0
   -7.9450   19.8640  -32.2150 C   0  0  0  0  0  0  0  0  0  0  0  0
   -8.2560   21.2030  -31.9220 C   0  0  0  0  0  0  0  0  0  0  0  0
   -7.2260   22.0430  -31.5240 C   0  0  0  0  0  0  0  0  0  0  0  0
   -7.2440   23.3890  -31.2390 C   0  0  0  0  0  0  0  0  0  0  0  0
   -5.9250   23.7180  -30.9410 C   0  0  0  0  0  0  0  0  0  0  0  0
   -5.4960   25.0710  -30.5330 C   0  0  0  0  0  0  0  0  0  0  0  0
   -4.1790   25.5500  -30.8140 N   0  0  0  0  0  0  0  0  0  0  0  0
   -6.2900   25.7990  -29.8800 O   0  0  0  0  0  0  0  0  0  0  0  0
   -5.1200   22.6220  -31.0460 N   0  0  0  0  0  0  0  0  0  0  0  0
   -3.6860   22.5830  -30.9820 C   0  0  0  0  0  0  0  0  0  0  0  0
   -3.0140   22.5800  -32.0460 O   0  0  0  0  0  0  0  0  0  0  0  0
   -3.0360   22.5890  -29.7040 N   0  0  0  0  0  0  0  0  0  0  0  0
   -2.6420   23.7360  -28.9420 C   0  0  0  0  0  0  0  0  0  0  0  0
   -2.7320   23.9080  -27.5730 C   0  0  0  0  0  0  0  0  0  0  0  0
   -2.2150   25.1700  -27.3720 C   0  0  0  0  0  0  0  0  0  0  0  0
   -1.8730   25.6710  -28.5380 O   0  0  0  0  0  0  0  0  0  0  0  0
   -2.1220   24.8380  -29.5080 N   0  0  0  0  0  0  0  0  0  0  0  0
   -5.9360   21.6040  -31.4010 C   0  0  0  0  0  0  0  0  0  0  0  0
   -5.5900   20.2810  -31.6990 C   0  0  0  0  0  0  0  0  0  0  0  0
   -4.0532   17.8871  -32.3724 H   0  0  0  0  0  0  0  0  0  0  0  0
   -4.7595   16.9986  -33.7647 H   0  0  0  0  0  0  0  0  0  0  0  0
   -4.7349   18.7947  -33.7647 H   0  0  0  0  0  0  0  0  0  0  0  0
   -7.9983   16.7084  -32.8234 H   0  0  0  0  0  0  0  0  0  0  0  0
   -7.7067   17.9944  -34.0432 H   0  0  0  0  0  0  0  0  0  0  0  0
   -6.6946   16.5103  -34.0432 H   0  0  0  0  0  0  0  0  0  0  0  0
   -5.7126   17.6918  -30.3464 H   0  0  0  0  0  0  0  0  0  0  0  0
   -7.1708   16.7675  -30.8670 H   0  0  0  0  0  0  0  0  0  0  0  0
   -5.2950   15.4900  -30.4610 H   0  0  0  0  0  0  0  0  0  0  0  0
   -8.7467   19.1794  -32.5291 H   0  0  0  0  0  0  0  0  0  0  0  0
   -9.2879   21.5748  -32.0060 H   0  0  0  0  0  0  0  0  0  0  0  0
   -8.1147   24.0612  -31.2453 H   0  0  0  0  0  0  0  0  0  0  0  0
   -3.4480   24.9190  -31.2100 H   0  0  0  0  0  0  0  0  0  0  0  0
   -3.9000   26.5160  -30.5260 H   0  0  0  0  0  0  0  0  0  0  0  0
   -3.1231   23.2050  -26.8227 H   0  0  0  0  0  0  0  0  0  0  0  0
   -2.1069   25.6729  -26.3997 H   0  0  0  0  0  0  0  0  0  0  0  0
   -4.5457   19.9459  -31.6146 H   0  0  0  0  0  0  0  0  0  0  0  0
  1  2  1  0
  2  3  1  0
  2  4  1  0
  4  5  1  0
  2  6  1  0
  6  7  2  0
  7  8  1  0
  8  9  2  0
  9 10  1  0
 10 11  2  0
 11 12  1  0
 12 13  1  0
 12 14  2  0
 11 15  1  0
 15 16  1  0
 16 17  2  0
 16 18  1  0
 18 19  1  0
 19 20  1  0
 20 21  2  0
 21 22  1  0
 22 23  1  0
 15 24  1  0
 24 25  2  0
 25  6  1  0
 24  9  1  0
 23 19  2  0
  1 26  1  0
  1 27  1  0
  1 28  1  0
  3 29  1  0
  3 30  1  0
  3 31  1  0
  4 32  1  0
  4 33  1  0
  5 34  1  0
  7 35  1  0
  8 36  1  0
 10 37  1  0
 13 38  1  0
 13 39  1  0
 20 40  1  0
 21 41  1  0
 25 42  1  0
M  CHG  1  18  -1
M  END
>  <UniqueID>  (44) 
44

>  <SMILES>  (44) 
CC(C)(CO)c1ccc2cc(C(N)=O)n(C(=O)[N-]c3ccon3)c2c1

>  <Energy>  (44) 
117.9680751923024

>  <Genealogy>  (44) 
CC(C)(CO)c1ccc2cc(C(N)=O)n(C(=O)[N-]c3ccon3)c2c1 (protonated)
CC(C)(CO)c1ccc2cc(C(N)=O)n(C(=O)[N-]c3ccon3)c2c1 (3D coordinates assigned)
CC(C)(CO)c1ccc2cc(C(N)=O)n(C(=O)[N-]c3ccon3)c2c1 (optimized conformer: 117.9680751923024 kcal/mol)

>  <smiles>  (44) 
CC(C)(CO)c1ccc2cc(C(N)=O)n(C(=O)Nc3ccon3)c2c1

>  <score_type>  (44) 
oracle

>  <origin>  (44) 
adg

>  <m_score__min__energy>  (44) 
-10.84

>  <m_primary>  (44) 
energy

$$$$
44:0
     RDKit          3D

 61 62  0  0  0  0  0  0  0  0999 V2000
   -2.2010   20.0620  -33.2450 C   0  0  0  0  0  0  0  0  0  0  0  0
   -3.7180   20.1180  -33.4210 C   0  0  0  0  0  0  0  0  0  0  0  0
   -4.2610   18.9480  -34.2670 C   0  0  0  0  0  0  0  0  0  0  0  0
   -5.7750   18.7200  -34.0850 C   0  0  0  0  0  0  0  0  0  0  0  0
   -6.1130   17.9620  -32.7630 C   0  0  1  0  0  0  0  0  0  0  0  0
   -7.5160   18.3740  -32.2240 C   0  0  0  0  0  0  0  0  0  0  0  0
   -7.5730   19.8500  -31.9090 C   0  0  0  0  0  0  0  0  0  0  0  0
   -8.7720   20.5870  -32.0900 C   0  0  0  0  0  0  0  0  0  0  0  0
   -8.7950   21.9760  -31.8710 C   0  0  0  0  0  0  0  0  0  0  0  0
   -7.6110   22.5980  -31.4810 C   0  0  0  0  0  0  0  0  0  0  0  0
   -7.3340   23.9310  -31.2750 C   0  0  0  0  0  0  0  0  0  0  0  0
   -5.9740   23.9830  -30.9670 C   0  0  0  0  0  0  0  0  0  0  0  0
   -5.2650   25.2290  -30.6060 C   0  0  0  0  0  0  0  0  0  0  0  0
   -3.8570   25.3500  -30.7850 N   0  0  0  0  0  0  0  0  0  0  0  0
   -5.9050   26.1850  -30.0940 O   0  0  0  0  0  0  0  0  0  0  0  0
   -5.4340   22.7320  -30.9830 N   0  0  0  0  0  0  0  0  0  0  0  0
   -4.0530   22.3600  -30.8730 C   0  0  0  0  0  0  0  0  0  0  0  0
   -3.2710   22.5680  -31.8390 O   0  0  0  0  0  0  0  0  0  0  0  0
   -3.6090   21.7040  -29.7150 O   0  0  0  0  0  0  0  0  0  0  0  0
   -3.0480   22.3230  -28.5480 C   0  0  0  0  0  0  0  0  0  0  0  0
   -1.8910   23.2170  -29.0220 C   0  0  0  0  0  0  0  0  0  0  0  0
   -4.1030   23.2070  -27.8540 C   0  0  0  0  0  0  0  0  0  0  0  0
   -2.4980   21.2640  -27.5750 C   0  0  0  0  0  0  0  0  0  0  0  0
   -6.4500   21.8970  -31.2900 C   0  0  0  0  0  0  0  0  0  0  0  0
   -6.3980   20.5150  -31.4920 C   0  0  0  0  0  0  0  0  0  0  0  0
   -5.9480   16.4840  -32.9230 N   0  0  0  0  0  0  0  0  0  0  0  0
   -4.5570   16.0190  -32.7580 C   0  0  0  0  0  0  0  0  0  0  0  0
   -6.4900   16.0170  -34.2150 C   0  0  0  0  0  0  0  0  0  0  0  0
   -1.9564   20.0530  -32.1726 H   0  0  0  0  0  0  0  0  0  0  0  0
   -1.8105   19.1488  -33.7179 H   0  0  0  0  0  0  0  0  0  0  0  0
   -1.7442   20.9439  -33.7179 H   0  0  0  0  0  0  0  0  0  0  0  0
   -4.1894   20.0829  -32.4277 H   0  0  0  0  0  0  0  0  0  0  0  0
   -3.9575   21.0516  -33.9512 H   0  0  0  0  0  0  0  0  0  0  0  0
   -4.0646   19.1626  -35.3278 H   0  0  0  0  0  0  0  0  0  0  0  0
   -3.7494   18.0347  -33.9293 H   0  0  0  0  0  0  0  0  0  0  0  0
   -6.2792   19.6975  -34.0694 H   0  0  0  0  0  0  0  0  0  0  0  0
   -6.1216   18.0982  -34.9236 H   0  0  0  0  0  0  0  0  0  0  0  0
   -5.3872   18.2634  -31.9934 H   0  0  0  0  0  0  0  0  0  0  0  0
   -8.2747   18.1409  -32.9856 H   0  0  0  0  0  0  0  0  0  0  0  0
   -7.7091   17.8142  -31.2970 H   0  0  0  0  0  0  0  0  0  0  0  0
   -9.6899   20.0683  -32.4038 H   0  0  0  0  0  0  0  0  0  0  0  0
   -9.7211   22.5546  -32.0038 H   0  0  0  0  0  0  0  0  0  0  0  0
   -8.0358   24.7756  -31.3395 H   0  0  0  0  0  0  0  0  0  0  0  0
   -3.2990   24.5710  -31.1940 H   0  0  0  0  0  0  0  0  0  0  0  0
   -1.3619   23.6258  -28.1485 H   0  0  0  0  0  0  0  0  0  0  0  0
   -1.1924   22.6218  -29.6283 H   0  0  0  0  0  0  0  0  0  0  0  0
   -2.2907   24.0432  -29.6283 H   0  0  0  0  0  0  0  0  0  0  0  0
   -3.9961   23.1174  -26.7629 H   0  0  0  0  0  0  0  0  0  0  0  0
   -3.9561   24.2556  -28.1519 H   0  0  0  0  0  0  0  0  0  0  0  0
   -5.1097   22.8788  -28.1519 H   0  0  0  0  0  0  0  0  0  0  0  0
   -2.6691   21.5934  -26.5395 H   0  0  0  0  0  0  0  0  0  0  0  0
   -3.0130   20.3070  -27.7452 H   0  0  0  0  0  0  0  0  0  0  0  0
   -1.4189   21.1350  -27.7452 H   0  0  0  0  0  0  0  0  0  0  0  0
   -5.4636   19.9576  -31.3300 H   0  0  0  0  0  0  0  0  0  0  0  0
   -6.5210   16.0070  -32.1850 H   0  0  0  0  0  0  0  0  0  0  0  0
   -4.3214   15.9402  -31.6864 H   0  0  0  0  0  0  0  0  0  0  0  0
   -4.4412   15.0333  -33.2323 H   0  0  0  0  0  0  0  0  0  0  0  0
   -3.8717   16.7369  -33.2323 H   0  0  0  0  0  0  0  0  0  0  0  0
   -7.3119   15.3088  -34.0334 H   0  0  0  0  0  0  0  0  0  0  0  0
   -6.8672   16.8776  -34.7870 H   0  0  0  0  0  0  0  0  0  0  0  0
   -5.6946   15.5168  -34.7870 H   0  0  0  0  0  0  0  0  0  0  0  0
  1  2  1  0
  2  3  1  0
  3  4  1  0
  4  5  1  0
  5  6  1  0
  6  7  1  0
  7  8  2  0
  8  9  1  0
  9 10  2  0
 10 11  1  0
 11 12  2  0
 12 13  1  0
 13 14  1  0
 13 15  2  0
 12 16  1  0
 16 17  1  0
 17 18  2  0
 17 19  1  0
 19 20  1  0
 20 21  1  0
 20 22  1  0
 20 23  1  0
 16 24  1  0
 24 25  2  0
  5 26  1  0
 26 27  1  0
 26 28  1  0
 25  7  1  0
 24 10  1  0
  1 29  1  0
  1 30  1  0
  1 31  1  0
  2 32  1  0
  2 33  1  0
  3 34  1  0
  3 35  1  0
  4 36  1  0
  4 37  1  0
  5 38  1  1
  6 39  1  0
  6 40  1  0
  8 41  1  0
  9 42  1  0
 11 43  1  0
 14 44  1  0
 21 45  1  0
 21 46  1  0
 21 47  1  0
 22 48  1  0
 22 49  1  0
 22 50  1  0
 23 51  1  0
 23 52  1  0
 23 53  1  0
 25 54  1  0
 26 55  1  0
 27 56  1  0
 27 57  1  0
 27 58  1  0
 28 59  1  0
 28 60  1  0
 28 61  1  0
M  CHG  2  14  -1  26   1
M  END
>  <UniqueID>  (45) 
45

>  <SMILES>  (45) 
CCCC[C@@H](Cc1ccc2cc(C([NH-])=O)n(C(=O)OC(C)(C)C)c2c1)[NH+](C)C

>  <Energy>  (45) 
93.45662315020355

>  <Genealogy>  (45) 
CCCCC(Cc1ccc2cc(C([NH-])=O)n(C(=O)OC(C)(C)C)c2c1)[NH+](C)C (protonated)
CCCC[C@@H](Cc1ccc2cc(C([NH-])=O)n(C(=O)OC(C)(C)C)c2c1)[NH+](C)C (chirality)
CCCC[C@@H](Cc1ccc2cc(C([NH-])=O)n(C(=O)OC(C)(C)C)c2c1)[NH+](C)C (3D coordinates assigned)
CCCC[C@@H](Cc1ccc2cc(C([NH-])=O)n(C(=O)OC(C)(C)C)c2c1)[NH+](C)C (optimized conformer: 93.45662315020355 kcal/mol)

>  <smiles>  (45) 
CCCCC(Cc1ccc2cc(C(N)=O)n(C(=O)OC(C)(C)C)c2c1)N(C)C

>  <score_type>  (45) 
oracle

>  <origin>  (45) 
adg

>  <m_score__min__energy>  (45) 
-10.789999999999999

>  <m_primary>  (45) 
energy

$$$$
45:0
     RDKit          3D

 32 33  0  0  0  0  0  0  0  0999 V2000
   -7.6020   21.6330  -31.9890 C   0  0  0  0  0  0  0  0  0  0  0  0
   -7.1090   20.2390  -32.4090 C   0  0  1  0  0  0  0  0  0  0  0  0
   -8.1670   19.4850  -33.0880 N   0  0  0  0  0  0  0  0  0  0  0  0
   -5.8330   20.2970  -33.2750 C   0  0  0  0  0  0  0  0  0  0  0  0
   -4.6020   20.7190  -32.5100 C   0  0  0  0  0  0  0  0  0  0  0  0
   -3.4780   19.8580  -32.4380 C   0  0  0  0  0  0  0  0  0  0  0  0
   -2.3260   20.2420  -31.7320 C   0  0  0  0  0  0  0  0  0  0  0  0
   -2.3230   21.4910  -31.1190 C   0  0  0  0  0  0  0  0  0  0  0  0
   -1.3510   22.1000  -30.3590 C   0  0  0  0  0  0  0  0  0  0  0  0
   -1.8860   23.3350  -29.9960 C   0  0  0  0  0  0  0  0  0  0  0  0
   -1.1300   24.3560  -29.2420 C   0  0  0  0  0  0  0  0  0  0  0  0
   -1.6880   25.6420  -28.9880 N   0  0  0  0  0  0  0  0  0  0  0  0
    0.0440   24.1070  -28.8590 O   0  0  0  0  0  0  0  0  0  0  0  0
   -3.1420   23.4810  -30.5050 N   0  0  0  0  0  0  0  0  0  0  0  0
   -4.0600   24.5650  -30.2840 C   0  0  0  0  0  0  0  0  0  0  0  0
   -3.8810   25.6750  -30.8500 O   0  0  0  0  0  0  0  0  0  0  0  0
   -5.1670   24.3880  -29.4640 O   0  0  0  0  0  0  0  0  0  0  0  0
   -3.3940   22.3440  -31.1930 C   0  0  0  0  0  0  0  0  0  0  0  0
   -4.5630   21.9790  -31.8710 C   0  0  0  0  0  0  0  0  0  0  0  0
   -7.6251   21.6984  -30.8912 H   0  0  0  0  0  0  0  0  0  0  0  0
   -6.9201   22.3986  -32.3876 H   0  0  0  0  0  0  0  0  0  0  0  0
   -8.6136   21.7997  -32.3876 H   0  0  0  0  0  0  0  0  0  0  0  0
   -6.8431   19.7086  -31.4827 H   0  0  0  0  0  0  0  0  0  0  0  0
   -8.5190   20.0570  -33.8890 H   0  0  0  0  0  0  0  0  0  0  0  0
   -7.7680   18.6070  -33.4930 H   0  0  0  0  0  0  0  0  0  0  0  0
   -5.6540   19.2974  -33.6978 H   0  0  0  0  0  0  0  0  0  0  0  0
   -6.0052   21.0556  -34.0527 H   0  0  0  0  0  0  0  0  0  0  0  0
   -3.5083   18.8797  -32.9399 H   0  0  0  0  0  0  0  0  0  0  0  0
   -1.4532   19.5758  -31.6658 H   0  0  0  0  0  0  0  0  0  0  0  0
   -0.3620   21.6978  -30.0942 H   0  0  0  0  0  0  0  0  0  0  0  0
   -2.7190   25.7960  -29.0150 H   0  0  0  0  0  0  0  0  0  0  0  0
   -5.4294   22.6558  -31.9056 H   0  0  0  0  0  0  0  0  0  0  0  0
  1  2  1  0
  2  3  1  0
  2  4  1  0
  4  5  1  0
  5  6  2  0
  6  7  1  0
  7  8  2  0
  8  9  1  0
  9 10  2  0
 10 11  1  0
 11 12  1  0
 11 13  2  0
 10 14  1  0
 14 15  1  0
 15 16  2  0
 15 17  1  0
 14 18  1  0
 18 19  2  0
 19  5  1  0
 18  8  1  0
  1 20  1  0
  1 21  1  0
  1 22  1  0
  2 23  1  1
  3 24  1  0
  3 25  1  0
  4 26  1  0
  4 27  1  0
  6 28  1  0
  7 29  1  0
  9 30  1  0
 12 31  1  0
 19 32  1  0
M  CHG  2  12  -1  17  -1
M  END
>  <UniqueID>  (46) 
46

>  <SMILES>  (46) 
C[C@@H](N)Cc1ccc2cc(C([NH-])=O)n(C(=O)[O-])c2c1

>  <Energy>  (46) 
68.26728447718264

>  <Genealogy>  (46) 
C[C@@H](N)Cc1ccc2cc(C([NH-])=O)n(C(=O)[O-])c2c1 (protonated)
C[C@@H](N)Cc1ccc2cc(C([NH-])=O)n(C(=O)[O-])c2c1 (3D coordinates assigned)
C[C@@H](N)Cc1ccc2cc(C([NH-])=O)n(C(=O)[O-])c2c1 (optimized conformer: 68.26728447718264 kcal/mol)

>  <smiles>  (46) 
C[C@@H](N)Cc1ccc2cc(C(N)=O)n(C(=O)O)c2c1

>  <score_type>  (46) 
oracle

>  <origin>  (46) 
adg

>  <m_score__min__energy>  (46) 
-10.93

>  <m_primary>  (46) 
energy

$$$$
46:0
     RDKit          3D

 34 35  0  0  0  0  0  0  0  0999 V2000
   -5.3540   17.8230  -35.1700 C   0  0  0  0  0  0  0  0  0  0  0  0
   -4.5950   17.9390  -33.8410 C   0  0  1  0  0  0  0  0  0  0  0  0
   -3.3900   16.9890  -33.7520 C   0  0  0  0  0  0  0  0  0  0  0  0
   -2.2070   17.7030  -33.9890 O   0  0  0  0  0  0  0  0  0  0  0  0
   -4.2150   19.3280  -33.5330 N   0  0  0  0  0  0  0  0  0  0  0  0
   -5.0470   20.3600  -32.9600 C   0  0  0  0  0  0  0  0  0  0  0  0
   -6.4540   20.2500  -33.1040 C   0  0  0  0  0  0  0  0  0  0  0  0
   -7.3160   21.2110  -32.5510 C   0  0  0  0  0  0  0  0  0  0  0  0
   -6.7500   22.2720  -31.8570 C   0  0  0  0  0  0  0  0  0  0  0  0
   -7.3520   23.3210  -31.2010 C   0  0  0  0  0  0  0  0  0  0  0  0
   -6.3050   24.0720  -30.6690 C   0  0  0  0  0  0  0  0  0  0  0  0
   -6.4930   25.3530  -29.9510 C   0  0  0  0  0  0  0  0  0  0  0  0
   -5.6440   26.4710  -30.2160 N   0  0  0  0  0  0  0  0  0  0  0  0
   -7.3890   25.4600  -29.0710 O   0  0  0  0  0  0  0  0  0  0  0  0
   -5.1040   23.5060  -30.9810 N   0  0  0  0  0  0  0  0  0  0  0  0
   -3.7960   23.9440  -30.5740 C   0  0  0  0  0  0  0  0  0  0  0  0
   -2.9080   23.1030  -30.2730 O   0  0  0  0  0  0  0  0  0  0  0  0
   -3.4940   25.2990  -30.5210 O   0  0  0  0  0  0  0  0  0  0  0  0
   -5.3940   22.4050  -31.7100 C   0  0  0  0  0  0  0  0  0  0  0  0
   -4.5130   21.4500  -32.2310 C   0  0  0  0  0  0  0  0  0  0  0  0
   -6.4230   17.6596  -34.9687 H   0  0  0  0  0  0  0  0  0  0  0  0
   -5.2272   18.7510  -35.7469 H   0  0  0  0  0  0  0  0  0  0  0  0
   -4.9558   16.9753  -35.7469 H   0  0  0  0  0  0  0  0  0  0  0  0
   -5.3045   17.6156  -33.0651 H   0  0  0  0  0  0  0  0  0  0  0  0
   -3.3515   16.5403  -32.7484 H   0  0  0  0  0  0  0  0  0  0  0  0
   -3.4946   16.1962  -34.5073 H   0  0  0  0  0  0  0  0  0  0  0  0
   -1.9890   17.5650  -34.9470 H   0  0  0  0  0  0  0  0  0  0  0  0
   -3.1910   19.5320  -33.5880 H   0  0  0  0  0  0  0  0  0  0  0  0
   -6.8765   19.3985  -33.6576 H   0  0  0  0  0  0  0  0  0  0  0  0
   -8.4068   21.1257  -32.6643 H   0  0  0  0  0  0  0  0  0  0  0  0
   -8.4297   23.5238  -31.1147 H   0  0  0  0  0  0  0  0  0  0  0  0
   -4.9280   26.4400  -30.9750 H   0  0  0  0  0  0  0  0  0  0  0  0
   -5.7600   27.3560  -29.6750 H   0  0  0  0  0  0  0  0  0  0  0  0
   -3.4279   21.5445  -32.0772 H   0  0  0  0  0  0  0  0  0  0  0  0
  1  2  1  0
  2  3  1  0
  3  4  1  0
  2  5  1  0
  5  6  1  0
  6  7  2  0
  7  8  1  0
  8  9  2  0
  9 10  1  0
 10 11  2  0
 11 12  1  0
 12 13  1  0
 12 14  2  0
 11 15  1  0
 15 16  1  0
 16 17  2  0
 16 18  1  0
 15 19  1  0
 19 20  2  0
 20  6  1  0
 19  9  1  0
  1 21  1  0
  1 22  1  0
  1 23  1  0
  2 24  1  1
  3 25  1  0
  3 26  1  0
  4 27  1  0
  5 28  1  0
  7 29  1  0
  8 30  1  0
 10 31  1  0
 13 32  1  0
 13 33  1  0
 20 34  1  0
M  CHG  1  18  -1
M  END
>  <UniqueID>  (47) 
47

>  <SMILES>  (47) 
C[C@@H](CO)Nc1ccc2cc(C(N)=O)n(C(=O)[O-])c2c1

>  <Energy>  (47) 
73.99519072486396

>  <Genealogy>  (47) 
C[C@@H](CO)Nc1ccc2cc(C(N)=O)n(C(=O)[O-])c2c1 (protonated)
C[C@@H](CO)Nc1ccc2cc(C(N)=O)n(C(=O)[O-])c2c1 (3D coordinates assigned)
C[C@@H](CO)Nc1ccc2cc(C(N)=O)n(C(=O)[O-])c2c1 (optimized conformer: 73.99519072486396 kcal/mol)

>  <smiles>  (47) 
C[C@@H](CO)Nc1ccc2cc(C(N)=O)n(C(=O)O)c2c1

>  <score_type>  (47) 
oracle

>  <origin>  (47) 
adg

>  <m_score__min__energy>  (47) 
-8.6099999999999994

>  <m_primary>  (47) 
energy

$$$$
47:0
     RDKit          3D

 30 31  0  0  0  0  0  0  0  0999 V2000
   -6.8400   16.5910  -34.2170 N   0  0  0  0  0  0  0  0  0  0  0  0
   -5.8120   17.4910  -34.6360 C   0  0  0  0  0  0  0  0  0  0  0  0
   -5.1810   17.2470  -35.6980 O   0  0  0  0  0  0  0  0  0  0  0  0
   -5.4610   18.6720  -33.8170 C   0  0  0  0  0  0  0  0  0  0  0  0
   -4.2130   19.2920  -33.8440 C   0  0  0  0  0  0  0  0  0  0  0  0
   -4.3320   20.3900  -33.0230 C   0  0  0  0  0  0  0  0  0  0  0  0
   -3.3880   21.3510  -32.6750 C   0  0  0  0  0  0  0  0  0  0  0  0
   -3.7780   22.3600  -31.7780 C   0  0  0  0  0  0  0  0  0  0  0  0
   -5.0920   22.3890  -31.2490 C   0  0  0  0  0  0  0  0  0  0  0  0
   -5.4840   23.4480  -30.2500 C   0  0  0  0  0  0  0  0  0  0  0  0
   -4.3250   23.7990  -29.3090 C   0  0  0  0  0  0  0  0  0  0  0  0
   -3.4980   24.9250  -29.8480 C   0  0  0  0  0  0  0  0  0  0  0  0
   -3.9000   25.5900  -30.8380 O   0  0  0  0  0  0  0  0  0  0  0  0
   -2.2610   25.2120  -29.2830 O   0  0  0  0  0  0  0  0  0  0  0  0
   -6.0200   21.3920  -31.6210 C   0  0  0  0  0  0  0  0  0  0  0  0
   -5.6110   20.4090  -32.5310 C   0  0  0  0  0  0  0  0  0  0  0  0
   -6.3180   19.3600  -33.0090 N   0  0  0  0  0  0  0  0  0  0  0  0
   -7.6720   19.0140  -32.6690 C   0  0  0  0  0  0  0  0  0  0  0  0
   -7.9250   17.9230  -32.0940 O   0  0  0  0  0  0  0  0  0  0  0  0
   -8.7130   19.8860  -32.9580 O   0  0  0  0  0  0  0  0  0  0  0  0
   -7.4210   16.7860  -33.3730 H   0  0  0  0  0  0  0  0  0  0  0  0
   -7.0520   15.7380  -34.7820 H   0  0  0  0  0  0  0  0  0  0  0  0
   -3.3216   18.9715  -34.4032 H   0  0  0  0  0  0  0  0  0  0  0  0
   -2.3692   21.3219  -33.0887 H   0  0  0  0  0  0  0  0  0  0  0  0
   -3.0555   23.1354  -31.4835 H   0  0  0  0  0  0  0  0  0  0  0  0
   -5.7889   24.3546  -30.7932 H   0  0  0  0  0  0  0  0  0  0  0  0
   -6.3118   23.0549  -29.6416 H   0  0  0  0  0  0  0  0  0  0  0  0
   -4.7354   24.0936  -28.3319 H   0  0  0  0  0  0  0  0  0  0  0  0
   -3.6795   22.9135  -29.2136 H   0  0  0  0  0  0  0  0  0  0  0  0
   -7.0389   21.3874  -31.2064 H   0  0  0  0  0  0  0  0  0  0  0  0
  1  2  1  0
  2  3  2  0
  2  4  1  0
  4  5  2  0
  5  6  1  0
  6  7  2  0
  7  8  1  0
  8  9  2  0
  9 10  1  0
 10 11  1  0
 11 12  1  0
 12 13  2  0
 12 14  1  0
  9 15  1  0
 15 16  2  0
 16 17  1  0
 17 18  1  0
 18 19  2  0
 18 20  1  0
 17  4  1  0
 16  6  1  0
  1 21  1  0
  1 22  1  0
  5 23  1  0
  7 24  1  0
  8 25  1  0
 10 26  1  0
 10 27  1  0
 11 28  1  0
 11 29  1  0
 15 30  1  0
M  CHG  2  14  -1  20  -1
M  END
>  <UniqueID>  (48) 
48

>  <SMILES>  (48) 
NC(=O)c1cc2ccc(CCC(=O)[O-])cc2n1C(=O)[O-]

>  <Energy>  (48) 
66.11324772862922

>  <Genealogy>  (48) 
NC(=O)c1cc2ccc(CCC(=O)[O-])cc2n1C(=O)[O-] (protonated)
NC(=O)c1cc2ccc(CCC(=O)[O-])cc2n1C(=O)[O-] (3D coordinates assigned)
NC(=O)c1cc2ccc(CCC(=O)[O-])cc2n1C(=O)[O-] (optimized conformer: 66.11324772862922 kcal/mol)

>  <smiles>  (48) 
NC(=O)c1cc2ccc(CCC(=O)O)cc2n1C(=O)O

>  <score_type>  (48) 
oracle

>  <origin>  (48) 
adg

>  <m_score__min__energy>  (48) 
-9.6099999999999994

>  <m_primary>  (48) 
energy

$$$$
48:0
     RDKit          3D

 38 39  0  0  0  0  0  0  0  0999 V2000
   -7.3830   20.6870  -32.5970 C   0  0  0  0  0  0  0  0  0  0  0  0
   -6.1580   20.4010  -33.4770 C   0  0  2  0  0  0  0  0  0  0  0  0
   -6.1700   18.9580  -33.9470 C   0  0  0  0  0  0  0  0  0  0  0  0
   -6.0250   18.7270  -35.1810 O   0  0  0  0  0  0  0  0  0  0  0  0
   -6.2870   17.8440  -33.0320 N   0  0  0  0  0  0  0  0  0  0  0  0
   -6.3590   18.0460  -31.5810 C   0  0  0  0  0  0  0  0  0  0  0  0
   -6.3080   16.4810  -33.5780 C   0  0  0  0  0  0  0  0  0  0  0  0
   -4.8540   20.7320  -32.7680 C   0  0  0  0  0  0  0  0  0  0  0  0
   -3.7780   19.8060  -32.8200 C   0  0  0  0  0  0  0  0  0  0  0  0
   -2.5750   20.0600  -32.1440 C   0  0  0  0  0  0  0  0  0  0  0  0
   -2.4670   21.2450  -31.4240 C   0  0  0  0  0  0  0  0  0  0  0  0
   -1.4330   21.7140  -30.6470 C   0  0  0  0  0  0  0  0  0  0  0  0
   -1.8790   22.9320  -30.1420 C   0  0  0  0  0  0  0  0  0  0  0  0
   -1.0480   23.8080  -29.2920 C   0  0  0  0  0  0  0  0  0  0  0  0
   -1.3190   25.2070  -29.1830 N   0  0  0  0  0  0  0  0  0  0  0  0
   -0.0480   23.3270  -28.6980 O   0  0  0  0  0  0  0  0  0  0  0  0
   -3.1430   23.2020  -30.5760 N   0  0  0  0  0  0  0  0  0  0  0  0
   -3.9880   24.2960  -30.1810 C   0  0  0  0  0  0  0  0  0  0  0  0
   -4.8590   24.1360  -29.2860 O   0  0  0  0  0  0  0  0  0  0  0  0
   -3.8590   25.5400  -30.7860 O   0  0  0  0  0  0  0  0  0  0  0  0
   -3.4870   22.1580  -31.3650 C   0  0  0  0  0  0  0  0  0  0  0  0
   -4.7080   21.9200  -32.0100 C   0  0  0  0  0  0  0  0  0  0  0  0
   -7.0967   20.6201  -31.5370 H   0  0  0  0  0  0  0  0  0  0  0  0
   -7.7608   21.6975  -32.8117 H   0  0  0  0  0  0  0  0  0  0  0  0
   -8.1692   19.9483  -32.8117 H   0  0  0  0  0  0  0  0  0  0  0  0
   -6.2202   21.0596  -34.3559 H   0  0  0  0  0  0  0  0  0  0  0  0
   -6.0325   17.1301  -31.0666 H   0  0  0  0  0  0  0  0  0  0  0  0
   -5.7032   18.8812  -31.2941 H   0  0  0  0  0  0  0  0  0  0  0  0
   -7.3952   18.2781  -31.2941 H   0  0  0  0  0  0  0  0  0  0  0  0
   -6.3192   15.7551  -32.7516 H   0  0  0  0  0  0  0  0  0  0  0  0
   -7.2083   16.3473  -34.1957 H   0  0  0  0  0  0  0  0  0  0  0  0
   -5.4122   16.3196  -34.1957 H   0  0  0  0  0  0  0  0  0  0  0  0
   -3.8895   18.8769  -33.3983 H   0  0  0  0  0  0  0  0  0  0  0  0
   -1.7417   19.3429  -32.1824 H   0  0  0  0  0  0  0  0  0  0  0  0
   -0.4622   21.2302  -30.4641 H   0  0  0  0  0  0  0  0  0  0  0  0
   -0.7430   25.8040  -28.5490 H   0  0  0  0  0  0  0  0  0  0  0  0
   -2.0350   25.6670  -29.7880 H   0  0  0  0  0  0  0  0  0  0  0  0
   -5.5355   22.6402  -31.9295 H   0  0  0  0  0  0  0  0  0  0  0  0
  1  2  1  0
  2  3  1  0
  3  4  2  0
  3  5  1  0
  5  6  1  0
  5  7  1  0
  2  8  1  0
  8  9  2  0
  9 10  1  0
 10 11  2  0
 11 12  1  0
 12 13  2  0
 13 14  1  0
 14 15  1  0
 14 16  2  0
 13 17  1  0
 17 18  1  0
 18 19  2  0
 18 20  1  0
 17 21  1  0
 21 22  2  0
 22  8  1  0
 21 11  1  0
  1 23  1  0
  1 24  1  0
  1 25  1  0
  2 26  1  6
  6 27  1  0
  6 28  1  0
  6 29  1  0
  7 30  1  0
  7 31  1  0
  7 32  1  0
  9 33  1  0
 10 34  1  0
 12 35  1  0
 15 36  1  0
 15 37  1  0
 22 38  1  0
M  CHG  1  20  -1
M  END
>  <UniqueID>  (49) 
49

>  <SMILES>  (49) 
C[C@H](C(=O)N(C)C)c1ccc2cc(C(N)=O)n(C(=O)[O-])c2c1

>  <Energy>  (49) 
75.88756740840041

>  <Genealogy>  (49) 
CC(C(=O)N(C)C)c1ccc2cc(C(N)=O)n(C(=O)[O-])c2c1 (protonated)
C[C@H](C(=O)N(C)C)c1ccc2cc(C(N)=O)n(C(=O)[O-])c2c1 (chirality)
C[C@H](C(=O)N(C)C)c1ccc2cc(C(N)=O)n(C(=O)[O-])c2c1 (3D coordinates assigned)
C[C@H](C(=O)N(C)C)c1ccc2cc(C(N)=O)n(C(=O)[O-])c2c1 (optimized conformer: 75.88756740840041 kcal/mol)

>  <smiles>  (49) 
CC(C(=O)N(C)C)c1ccc2cc(C(N)=O)n(C(=O)O)c2c1

>  <score_type>  (49) 
oracle

>  <origin>  (49) 
adg

>  <m_score__min__energy>  (49) 
-9.2899999999999991

>  <m_primary>  (49) 
energy

$$$$
49:0
     RDKit          3D

 38 40  0  0  0  0  0  0  0  0999 V2000
   -8.3080   21.9720  -30.7610 C   0  0  0  0  0  0  0  0  0  0  0  0
   -9.1710   20.8750  -30.9670 O   0  0  0  0  0  0  0  0  0  0  0  0
   -9.3090   20.6050  -32.3500 C   0  0  0  0  0  0  0  0  0  0  0  0
   -8.7400   19.2150  -32.6840 C   0  0  2  0  0  0  0  0  0  0  0  0
   -9.1030   18.2690  -31.7090 O   0  0  0  0  0  0  0  0  0  0  0  0
   -7.2470   19.2720  -32.8360 C   0  0  0  0  0  0  0  0  0  0  0  0
   -6.5560   18.5500  -33.7430 N   0  0  0  0  0  0  0  0  0  0  0  0
   -5.2760   18.8970  -33.5120 C   0  0  0  0  0  0  0  0  0  0  0  0
   -5.2390   19.8110  -32.4770 C   0  0  0  0  0  0  0  0  0  0  0  0
   -4.0530   20.4670  -31.8820 C   0  0  0  0  0  0  0  0  0  0  0  0
   -2.7980   19.8080  -31.9280 C   0  0  0  0  0  0  0  0  0  0  0  0
   -1.6490   20.4070  -31.3840 C   0  0  0  0  0  0  0  0  0  0  0  0
   -1.7840   21.6590  -30.7930 C   0  0  0  0  0  0  0  0  0  0  0  0
   -0.8350   22.4710  -30.2170 C   0  0  0  0  0  0  0  0  0  0  0  0
   -1.5240   23.6070  -29.8010 C   0  0  0  0  0  0  0  0  0  0  0  0
   -0.8910   24.7110  -29.0500 C   0  0  0  0  0  0  0  0  0  0  0  0
   -1.5720   25.9460  -28.8460 N   0  0  0  0  0  0  0  0  0  0  0  0
    0.2490   24.5430  -28.5390 O   0  0  0  0  0  0  0  0  0  0  0  0
   -2.8480   23.5060  -30.1170 N   0  0  0  0  0  0  0  0  0  0  0  0
   -3.8750   24.4940  -29.9370 C   0  0  0  0  0  0  0  0  0  0  0  0
   -4.7650   24.3340  -29.0600 O   0  0  0  0  0  0  0  0  0  0  0  0
   -3.8830   25.6490  -30.7100 O   0  0  0  0  0  0  0  0  0  0  0  0
   -2.9910   22.3050  -30.7210 C   0  0  0  0  0  0  0  0  0  0  0  0
   -4.1470   21.7410  -31.2730 C   0  0  0  0  0  0  0  0  0  0  0  0
   -6.4720   20.0180  -32.0830 O   0  0  0  0  0  0  0  0  0  0  0  0
   -8.1773   22.1381  -29.6815 H   0  0  0  0  0  0  0  0  0  0  0  0
   -7.3310   21.7613  -31.2205 H   0  0  0  0  0  0  0  0  0  0  0  0
   -8.7428   22.8719  -31.2205 H   0  0  0  0  0  0  0  0  0  0  0  0
  -10.3748   20.6351  -32.6207 H   0  0  0  0  0  0  0  0  0  0  0  0
   -8.7531   21.3646  -32.9193 H   0  0  0  0  0  0  0  0  0  0  0  0
   -9.1741   18.8966  -33.6433 H   0  0  0  0  0  0  0  0  0  0  0  0
   -9.0810   18.7200  -30.8250 H   0  0  0  0  0  0  0  0  0  0  0  0
   -4.4014   18.5147  -34.0588 H   0  0  0  0  0  0  0  0  0  0  0  0
   -2.7230   18.8151  -32.3955 H   0  0  0  0  0  0  0  0  0  0  0  0
   -0.6729   19.9014  -31.4243 H   0  0  0  0  0  0  0  0  0  0  0  0
    0.2403   22.2663  -30.1081 H   0  0  0  0  0  0  0  0  0  0  0  0
   -2.6060   26.0160  -28.9710 H   0  0  0  0  0  0  0  0  0  0  0  0
   -5.1073   22.2761  -31.2343 H   0  0  0  0  0  0  0  0  0  0  0  0
  1  2  1  0
  2  3  1  0
  3  4  1  0
  4  5  1  0
  4  6  1  0
  6  7  2  0
  7  8  1  0
  8  9  2  0
  9 10  1  0
 10 11  2  0
 11 12  1  0
 12 13  2  0
 13 14  1  0
 14 15  2  0
 15 16  1  0
 16 17  1  0
 16 18  2  0
 15 19  1  0
 19 20  1  0
 20 21  2  0
 20 22  1  0
 19 23  1  0
 23 24  2  0
  9 25  1  0
 25  6  1  0
 24 10  1  0
 23 13  1  0
  1 26  1  0
  1 27  1  0
  1 28  1  0
  3 29  1  0
  3 30  1  0
  4 31  1  6
  5 32  1  0
  8 33  1  0
 11 34  1  0
 12 35  1  0
 14 36  1  0
 17 37  1  0
 24 38  1  0
M  CHG  2  17  -1  22  -1
M  END
>  <UniqueID>  (50) 
50

>  <SMILES>  (50) 
COC[C@H](O)c1ncc(-c2ccc3cc(C([NH-])=O)n(C(=O)[O-])c3c2)o1

>  <Energy>  (50) 
111.35415424549836

>  <Genealogy>  (50) 
COCC(O)c1ncc(-c2ccc3cc(C([NH-])=O)n(C(=O)[O-])c3c2)o1 (protonated)
COC[C@H](O)c1ncc(-c2ccc3cc(C([NH-])=O)n(C(=O)[O-])c3c2)o1 (chirality)
COC[C@H](O)c1ncc(-c2ccc3cc(C([NH-])=O)n(C(=O)[O-])c3c2)o1 (3D coordinates assigned)
COC[C@H](O)c1ncc(-c2ccc3cc(C([NH-])=O)n(C(=O)[O-])c3c2)o1 (optimized conformer: 111.35415424549836 kcal/mol)

>  <smiles>  (50) 
COCC(O)c1ncc(-c2ccc3cc(C(N)=O)n(C(=O)O)c3c2)o1

>  <score_type>  (50) 
oracle

>  <origin>  (50) 
adg

>  <m_score__min__energy>  (50) 
-10.9

>  <m_primary>  (50) 
energy

$$$$
50:0
     RDKit          3D

 37 38  0  0  0  0  0  0  0  0999 V2000
   -1.9230   24.1470  -28.4420 C   0  0  0  0  0  0  0  0  0  0  0  0
   -3.0500   23.3670  -27.7540 C   0  0  0  0  0  0  0  0  0  0  0  0
   -4.0710   24.3270  -27.1310 C   0  0  0  0  0  0  0  0  0  0  0  0
   -3.7110   22.3690  -28.7250 C   0  0  0  0  0  0  0  0  0  0  0  0
   -3.0820   22.3870  -30.0080 O   0  0  0  0  0  0  0  0  0  0  0  0
   -3.7820   22.4530  -31.2190 C   0  0  0  0  0  0  0  0  0  0  0  0
   -3.1790   22.2990  -32.3160 O   0  0  0  0  0  0  0  0  0  0  0  0
   -5.2000   22.6680  -31.2060 N   0  0  0  0  0  0  0  0  0  0  0  0
   -5.8700   23.7820  -30.7990 C   0  0  0  0  0  0  0  0  0  0  0  0
   -5.2600   25.0810  -30.4440 C   0  0  0  0  0  0  0  0  0  0  0  0
   -3.8570   25.2910  -30.5740 N   0  0  0  0  0  0  0  0  0  0  0  0
   -5.9940   26.0320  -30.0650 O   0  0  0  0  0  0  0  0  0  0  0  0
   -7.2460   23.5620  -30.8260 C   0  0  0  0  0  0  0  0  0  0  0  0
   -7.4000   22.2690  -31.2730 C   0  0  0  0  0  0  0  0  0  0  0  0
   -8.5550   21.5180  -31.4600 C   0  0  0  0  0  0  0  0  0  0  0  0
   -8.4150   20.1870  -31.8870 C   0  0  0  0  0  0  0  0  0  0  0  0
   -7.1310   19.6340  -32.1270 C   0  0  0  0  0  0  0  0  0  0  0  0
   -6.9910   18.1850  -32.5210 C   0  0  0  0  0  0  0  0  0  0  0  0
   -8.1860   17.5110  -32.3410 F   0  0  0  0  0  0  0  0  0  0  0  0
   -6.6270   18.1080  -33.8530 F   0  0  0  0  0  0  0  0  0  0  0  0
   -6.0230   17.5620  -31.7520 F   0  0  0  0  0  0  0  0  0  0  0  0
   -5.9790   20.4220  -31.9000 C   0  0  0  0  0  0  0  0  0  0  0  0
   -6.1510   21.7510  -31.4950 C   0  0  0  0  0  0  0  0  0  0  0  0
   -1.2710   24.5983  -27.6796 H   0  0  0  0  0  0  0  0  0  0  0  0
   -1.3337   23.4626  -29.0699 H   0  0  0  0  0  0  0  0  0  0  0  0
   -2.3560   24.9396  -29.0699 H   0  0  0  0  0  0  0  0  0  0  0  0
   -2.6127   22.7749  -26.9366 H   0  0  0  0  0  0  0  0  0  0  0  0
   -4.0082   24.2679  -26.0344 H   0  0  0  0  0  0  0  0  0  0  0  0
   -3.8533   25.3551  -27.4559 H   0  0  0  0  0  0  0  0  0  0  0  0
   -5.0838   24.0465  -27.4559 H   0  0  0  0  0  0  0  0  0  0  0  0
   -3.6328   21.3560  -28.3035 H   0  0  0  0  0  0  0  0  0  0  0  0
   -4.7636   22.6611  -28.8542 H   0  0  0  0  0  0  0  0  0  0  0  0
   -3.4810   26.0170  -31.2240 H   0  0  0  0  0  0  0  0  0  0  0  0
   -8.0402   24.2709  -30.5490 H   0  0  0  0  0  0  0  0  0  0  0  0
   -9.5489   21.9531  -31.2790 H   0  0  0  0  0  0  0  0  0  0  0  0
   -9.3110   19.5668  -32.0369 H   0  0  0  0  0  0  0  0  0  0  0  0
   -4.9722   20.0010  -32.0383 H   0  0  0  0  0  0  0  0  0  0  0  0
  1  2  1  0
  2  3  1  0
  2  4  1  0
  4  5  1  0
  5  6  1  0
  6  7  2  0
  6  8  1  0
  8  9  1  0
  9 10  1  0
 10 11  1  0
 10 12  2  0
  9 13  2  0
 13 14  1  0
 14 15  2  0
 15 16  1  0
 16 17  2  0
 17 18  1  0
 18 19  1  0
 18 20  1  0
 18 21  1  0
 17 22  1  0
 22 23  2  0
 23  8  1  0
 23 14  1  0
  1 24  1  0
  1 25  1  0
  1 26  1  0
  2 27  1  0
  3 28  1  0
  3 29  1  0
  3 30  1  0
  4 31  1  0
  4 32  1  0
 11 33  1  0
 13 34  1  0
 15 35  1  0
 16 36  1  0
 22 37  1  0
M  CHG  1  11  -1
M  END
>  <UniqueID>  (51) 
51

>  <SMILES>  (51) 
CC(C)COC(=O)n1c(C([NH-])=O)cc2ccc(C(F)(F)F)cc21

>  <Energy>  (51) 
70.57899641010391

>  <Genealogy>  (51) 
CC(C)COC(=O)n1c(C([NH-])=O)cc2ccc(C(F)(F)F)cc21 (protonated)
CC(C)COC(=O)n1c(C([NH-])=O)cc2ccc(C(F)(F)F)cc21 (3D coordinates assigned)
CC(C)COC(=O)n1c(C([NH-])=O)cc2ccc(C(F)(F)F)cc21 (optimized conformer: 70.57899641010391 kcal/mol)

>  <smiles>  (51) 
CC(C)COC(=O)n1c(C(N)=O)cc2ccc(C(F)(F)F)cc21

>  <score_type>  (51) 
oracle

>  <origin>  (51) 
adg

>  <m_score__min__energy>  (51) 
-9.8599999999999994

>  <m_primary>  (51) 
energy

$$$$
51:0
     RDKit          3D

 40 41  0  0  0  0  0  0  0  0999 V2000
    1.1320   21.9450  -35.7890 C   0  0  0  0  0  0  0  0  0  0  0  0
    0.3280   22.2540  -34.6720 O   0  0  0  0  0  0  0  0  0  0  0  0
   -0.5550   21.1840  -34.3860 C   0  0  0  0  0  0  0  0  0  0  0  0
   -0.9290   21.1630  -32.8980 C   0  0  0  0  0  0  0  0  0  0  0  0
   -2.4240   20.9280  -32.6720 C   0  0  0  0  0  0  0  0  0  0  0  0
   -3.1220   22.1680  -32.6930 O   0  0  0  0  0  0  0  0  0  0  0  0
   -3.6590   22.7560  -31.5440 C   0  0  0  0  0  0  0  0  0  0  0  0
   -2.8980   23.1510  -30.6190 O   0  0  0  0  0  0  0  0  0  0  0  0
   -5.0830   22.8870  -31.4100 N   0  0  0  0  0  0  0  0  0  0  0  0
   -5.7820   23.9900  -31.0180 C   0  0  0  0  0  0  0  0  0  0  0  0
   -5.2050   25.2350  -30.4730 C   0  0  0  0  0  0  0  0  0  0  0  0
   -3.8980   25.6620  -30.8440 N   0  0  0  0  0  0  0  0  0  0  0  0
   -5.8570   25.9060  -29.6280 O   0  0  0  0  0  0  0  0  0  0  0  0
   -7.1520   23.7640  -31.1270 C   0  0  0  0  0  0  0  0  0  0  0  0
   -7.2750   22.4750  -31.5930 C   0  0  0  0  0  0  0  0  0  0  0  0
   -8.4140   21.7400  -31.9030 C   0  0  0  0  0  0  0  0  0  0  0  0
   -8.2440   20.4390  -32.4050 C   0  0  0  0  0  0  0  0  0  0  0  0
   -6.9450   19.9010  -32.5870 C   0  0  0  0  0  0  0  0  0  0  0  0
   -6.7750   18.5260  -33.1710 C   0  0  0  0  0  0  0  0  0  0  0  0
   -5.5970   18.5000  -34.0900 C   0  0  0  0  0  0  0  0  0  0  0  0
   -5.7650   18.5470  -35.3380 O   0  0  0  0  0  0  0  0  0  0  0  0
   -4.3090   18.4750  -33.5700 O   0  0  0  0  0  0  0  0  0  0  0  0
   -5.8110   20.6810  -32.2740 C   0  0  0  0  0  0  0  0  0  0  0  0
   -6.0110   21.9670  -31.7570 C   0  0  0  0  0  0  0  0  0  0  0  0
    2.1076   21.5700  -35.4461 H   0  0  0  0  0  0  0  0  0  0  0  0
    0.6355   21.1736  -36.3960 H   0  0  0  0  0  0  0  0  0  0  0  0
    1.2799   22.8503  -36.3960 H   0  0  0  0  0  0  0  0  0  0  0  0
   -1.4698   21.3024  -34.9853 H   0  0  0  0  0  0  0  0  0  0  0  0
   -0.0516   20.2380  -34.6344 H   0  0  0  0  0  0  0  0  0  0  0  0
   -0.3667   20.3566  -32.4044 H   0  0  0  0  0  0  0  0  0  0  0  0
   -0.6784   22.1478  -32.4768 H   0  0  0  0  0  0  0  0  0  0  0  0
   -2.8145   20.2770  -33.4681 H   0  0  0  0  0  0  0  0  0  0  0  0
   -2.5694   20.4492  -31.6924 H   0  0  0  0  0  0  0  0  0  0  0  0
   -3.0530   25.2960  -30.3530 H   0  0  0  0  0  0  0  0  0  0  0  0
   -7.9641   24.4673  -30.8906 H   0  0  0  0  0  0  0  0  0  0  0  0
   -9.4185   22.1648  -31.7594 H   0  0  0  0  0  0  0  0  0  0  0  0
   -9.1260   19.8327  -32.6589 H   0  0  0  0  0  0  0  0  0  0  0  0
   -6.6179   17.8022  -32.3577 H   0  0  0  0  0  0  0  0  0  0  0  0
   -7.6797   18.2615  -33.7381 H   0  0  0  0  0  0  0  0  0  0  0  0
   -4.7956   20.2886  -32.4322 H   0  0  0  0  0  0  0  0  0  0  0  0
  1  2  1  0
  2  3  1  0
  3  4  1  0
  4  5  1  0
  5  6  1  0
  6  7  1  0
  7  8  2  0
  7  9  1  0
  9 10  1  0
 10 11  1  0
 11 12  1  0
 11 13  2  0
 10 14  2  0
 14 15  1  0
 15 16  2  0
 16 17  1  0
 17 18  2  0
 18 19  1  0
 19 20  1  0
 20 21  2  0
 20 22  1  0
 18 23  1  0
 23 24  2  0
 24  9  1  0
 24 15  1  0
  1 25  1  0
  1 26  1  0
  1 27  1  0
  3 28  1  0
  3 29  1  0
  4 30  1  0
  4 31  1  0
  5 32  1  0
  5 33  1  0
 12 34  1  0
 14 35  1  0
 16 36  1  0
 17 37  1  0
 19 38  1  0
 19 39  1  0
 23 40  1  0
M  CHG  2  12  -1  22  -1
M  END
>  <UniqueID>  (52) 
52

>  <SMILES>  (52) 
COCCCOC(=O)n1c(C([NH-])=O)cc2ccc(CC(=O)[O-])cc21

>  <Energy>  (52) 
73.50467515009264

>  <Genealogy>  (52) 
COCCCOC(=O)n1c(C([NH-])=O)cc2ccc(CC(=O)[O-])cc21 (protonated)
COCCCOC(=O)n1c(C([NH-])=O)cc2ccc(CC(=O)[O-])cc21 (3D coordinates assigned)
COCCCOC(=O)n1c(C([NH-])=O)cc2ccc(CC(=O)[O-])cc21 (optimized conformer: 73.50467515009264 kcal/mol)

>  <smiles>  (52) 
COCCCOC(=O)n1c(C(N)=O)cc2ccc(CC(=O)O)cc21

>  <score_type>  (52) 
oracle

>  <origin>  (52) 
adg

>  <m_score__min__energy>  (52) 
-10.07

>  <m_primary>  (52) 
energy

$$$$
52:0
     RDKit          3D

 48 51  0  0  0  0  0  0  0  0999 V2000
   -9.1120   22.6220  -31.9890 C   0  0  0  0  0  0  0  0  0  0  0  0
   -8.0230   23.0580  -31.7080 C   0  0  0  0  0  0  0  0  0  0  0  0
   -6.6980   23.5870  -31.3660 C   0  0  0  0  0  0  0  0  0  0  0  0
   -6.5410   23.7320  -29.8520 C   0  0  0  0  0  0  0  0  0  0  0  0
   -5.1640   23.7840  -29.4780 O   0  0  0  0  0  0  0  0  0  0  0  0
   -4.1410   24.1720  -30.3510 C   0  0  0  0  0  0  0  0  0  0  0  0
   -4.1830   25.2940  -30.9260 O   0  0  0  0  0  0  0  0  0  0  0  0
   -3.0480   23.2770  -30.6080 N   0  0  0  0  0  0  0  0  0  0  0  0
   -1.8030   23.3020  -30.0530 C   0  0  0  0  0  0  0  0  0  0  0  0
   -1.2570   24.3740  -29.1950 C   0  0  0  0  0  0  0  0  0  0  0  0
   -1.9880   25.5750  -28.9690 N   0  0  0  0  0  0  0  0  0  0  0  0
   -0.1070   24.2460  -28.6940 O   0  0  0  0  0  0  0  0  0  0  0  0
   -1.0610   22.2000  -30.4700 C   0  0  0  0  0  0  0  0  0  0  0  0
   -1.8940   21.4950  -31.3080 C   0  0  0  0  0  0  0  0  0  0  0  0
   -1.6770   20.3040  -31.9920 C   0  0  0  0  0  0  0  0  0  0  0  0
   -2.7300   19.7820  -32.7610 C   0  0  0  0  0  0  0  0  0  0  0  0
   -3.9810   20.4530  -32.8340 C   0  0  0  0  0  0  0  0  0  0  0  0
   -5.0890   19.9350  -33.6000 N   0  0  0  0  0  0  0  0  0  0  0  0
   -6.2820   19.2810  -33.0460 C   0  0  1  0  0  0  0  0  0  0  0  0
   -7.5970   20.0840  -33.1210 C   0  0  0  0  0  0  0  0  0  0  0  0
   -8.7730   19.2730  -32.4570 C   0  0  0  0  0  0  0  0  0  0  0  0
   -8.3920   17.9310  -31.9030 N   0  0  0  0  0  0  0  0  0  0  0  0
   -6.9550   17.5980  -32.0420 C   0  0  1  0  0  0  0  0  0  0  0  0
   -6.5360   17.8420  -33.4890 C   0  0  0  0  0  0  0  0  0  0  0  0
   -6.1180   18.7950  -31.6070 C   0  0  0  0  0  0  0  0  0  0  0  0
   -4.1580   21.6580  -32.1170 C   0  0  0  0  0  0  0  0  0  0  0  0
   -3.0860   22.1640  -31.3750 C   0  0  0  0  0  0  0  0  0  0  0  0
  -10.1051   22.2244  -32.2453 H   0  0  0  0  0  0  0  0  0  0  0  0
   -5.9273   22.8988  -31.7435 H   0  0  0  0  0  0  0  0  0  0  0  0
   -6.5868   24.5796  -31.8269 H   0  0  0  0  0  0  0  0  0  0  0  0
   -7.0362   24.6589  -29.5271 H   0  0  0  0  0  0  0  0  0  0  0  0
   -7.0002   22.8569  -29.3689 H   0  0  0  0  0  0  0  0  0  0  0  0
   -2.9660   25.6840  -29.3200 H   0  0  0  0  0  0  0  0  0  0  0  0
   -0.0281   21.9468  -30.1891 H   0  0  0  0  0  0  0  0  0  0  0  0
   -0.7086   19.7856  -31.9326 H   0  0  0  0  0  0  0  0  0  0  0  0
   -2.5848   18.8421  -33.3137 H   0  0  0  0  0  0  0  0  0  0  0  0
   -5.0090   19.9700  -34.6420 H   0  0  0  0  0  0  0  0  0  0  0  0
   -7.4697   21.0388  -32.5897 H   0  0  0  0  0  0  0  0  0  0  0  0
   -7.8426   20.2695  -34.1771 H   0  0  0  0  0  0  0  0  0  0  0  0
   -9.1806   19.8777  -31.6335 H   0  0  0  0  0  0  0  0  0  0  0  0
   -9.4990   19.0765  -33.2597 H   0  0  0  0  0  0  0  0  0  0  0  0
   -8.6330   17.9030  -30.8840 H   0  0  0  0  0  0  0  0  0  0  0  0
   -6.8322   16.6149  -31.5640 H   0  0  0  0  0  0  0  0  0  0  0  0
   -5.6423   17.2898  -33.8153 H   0  0  0  0  0  0  0  0  0  0  0  0
   -7.1768   17.5867  -34.3459 H   0  0  0  0  0  0  0  0  0  0  0  0
   -6.5823   19.4356  -30.8428 H   0  0  0  0  0  0  0  0  0  0  0  0
   -5.1362   18.6903  -31.1222 H   0  0  0  0  0  0  0  0  0  0  0  0
   -5.1214   22.1882  -32.1421 H   0  0  0  0  0  0  0  0  0  0  0  0
  1  2  3  0
  2  3  1  0
  3  4  1  0
  4  5  1  0
  5  6  1  0
  6  7  2  0
  6  8  1  0
  8  9  1  0
  9 10  1  0
 10 11  1  0
 10 12  2  0
  9 13  2  0
 13 14  1  0
 14 15  2  0
 15 16  1  0
 16 17  2  0
 17 18  1  0
 19 18  1  6
 19 20  1  0
 20 21  1  0
 21 22  1  0
 22 23  1  0
 23 24  1  0
 23 25  1  0
 17 26  1  0
 26 27  2  0
 27  8  1  0
 27 14  1  0
 24 19  1  0
 25 19  1  0
  1 28  1  0
  3 29  1  0
  3 30  1  0
  4 31  1  0
  4 32  1  0
 11 33  1  0
 13 34  1  0
 15 35  1  0
 16 36  1  0
 18 37  1  0
 20 38  1  0
 20 39  1  0
 21 40  1  0
 21 41  1  0
 22 42  1  0
 23 43  1  1
 24 44  1  0
 24 45  1  0
 25 46  1  0
 25 47  1  0
 26 48  1  0
M  CHG  1  11  -1
M  END
>  <UniqueID>  (53) 
53

>  <SMILES>  (53) 
C#CCCOC(=O)n1c(C([NH-])=O)cc2ccc(NC34CCNC(C3)C4)cc21

>  <Energy>  (53) 
178.2352905587797

>  <Genealogy>  (53) 
C#CCCOC(=O)n1c(C([NH-])=O)cc2ccc(NC34CCNC(C3)C4)cc21 (protonated)
C#CCCOC(=O)n1c(C([NH-])=O)cc2ccc(NC34CCNC(C3)C4)cc21 (3D coordinates assigned)
C#CCCOC(=O)n1c(C([NH-])=O)cc2ccc(NC34CCNC(C3)C4)cc21 (nonaromatic ring conformer: 178.2352905587797 kcal/mol)

>  <smiles>  (53) 
C#CCCOC(=O)n1c(C(N)=O)cc2ccc(NC34CCNC(C3)C4)cc21

>  <score_type>  (53) 
oracle

>  <origin>  (53) 
adg

>  <m_score__min__energy>  (53) 
-11.699999999999999

>  <m_primary>  (53) 
energy

$$$$
53:0
     RDKit          3D

 28 29  0  0  0  0  0  0  0  0999 V2000
   -3.7650   25.2020  -30.4600 N   0  0  0  0  0  0  0  0  0  0  0  0
   -5.1500   25.2660  -30.7900 C   0  0  0  0  0  0  0  0  0  0  0  0
   -5.7370   26.3810  -30.7690 O   0  0  0  0  0  0  0  0  0  0  0  0
   -5.9150   24.0420  -31.1140 C   0  0  0  0  0  0  0  0  0  0  0  0
   -7.2730   23.8890  -30.8390 C   0  0  0  0  0  0  0  0  0  0  0  0
   -7.5810   22.6050  -31.2260 C   0  0  0  0  0  0  0  0  0  0  0  0
   -8.7950   21.9240  -31.1880 C   0  0  0  0  0  0  0  0  0  0  0  0
   -8.8290   20.6100  -31.6830 C   0  0  0  0  0  0  0  0  0  0  0  0
   -7.6620   20.0120  -32.2220 C   0  0  0  0  0  0  0  0  0  0  0  0
   -7.7060   18.5990  -32.7310 C   0  0  0  0  0  0  0  0  0  0  0  0
   -6.4240   18.2620  -33.4230 C   0  0  0  0  0  0  0  0  0  0  0  0
   -6.1250   18.8210  -34.5110 O   0  0  0  0  0  0  0  0  0  0  0  0
   -5.5820   17.2920  -32.8930 O   0  0  0  0  0  0  0  0  0  0  0  0
   -6.4460   20.7300  -32.2360 C   0  0  0  0  0  0  0  0  0  0  0  0
   -6.4380   22.0290  -31.7150 C   0  0  0  0  0  0  0  0  0  0  0  0
   -5.4050   22.8980  -31.6510 N   0  0  0  0  0  0  0  0  0  0  0  0
   -4.0730   22.6700  -32.1350 C   0  0  0  0  0  0  0  0  0  0  0  0
   -3.8540   22.2840  -33.4910 N   0  0  0  0  0  0  0  0  0  0  0  0
   -3.0890   22.8150  -31.3620 O   0  0  0  0  0  0  0  0  0  0  0  0
   -3.0510   24.9660  -31.1840 H   0  0  0  0  0  0  0  0  0  0  0  0
   -7.9538   24.6360  -30.4048 H   0  0  0  0  0  0  0  0  0  0  0  0
   -9.6998   22.4006  -30.7827 H   0  0  0  0  0  0  0  0  0  0  0  0
   -9.7693   20.0399  -31.6522 H   0  0  0  0  0  0  0  0  0  0  0  0
   -7.8542   17.9119  -31.8849 H   0  0  0  0  0  0  0  0  0  0  0  0
   -8.5373   18.4990  -33.4444 H   0  0  0  0  0  0  0  0  0  0  0  0
   -5.5295   20.2803  -32.6455 H   0  0  0  0  0  0  0  0  0  0  0  0
   -4.6600   22.0970  -34.1270 H   0  0  0  0  0  0  0  0  0  0  0  0
   -2.8820   22.1470  -33.8500 H   0  0  0  0  0  0  0  0  0  0  0  0
  1  2  1  0
  2  3  2  0
  2  4  1  0
  4  5  2  0
  5  6  1  0
  6  7  2  0
  7  8  1  0
  8  9  2  0
  9 10  1  0
 10 11  1  0
 11 12  2  0
 11 13  1  0
  9 14  1  0
 14 15  2  0
 15 16  1  0
 16 17  1  0
 17 18  1  0
 17 19  2  0
 16  4  1  0
 15  6  1  0
  1 20  1  0
  5 21  1  0
  7 22  1  0
  8 23  1  0
 10 24  1  0
 10 25  1  0
 14 26  1  0
 18 27  1  0
 18 28  1  0
M  CHG  2   1  -1  13  -1
M  END
>  <UniqueID>  (54) 
54

>  <SMILES>  (54) 
[NH-]C(=O)c1cc2ccc(CC(=O)[O-])cc2n1C(N)=O

>  <Energy>  (54) 
65.33662440218173

>  <Genealogy>  (54) 
[NH-]C(=O)c1cc2ccc(CC(=O)[O-])cc2n1C(N)=O (protonated)
[NH-]C(=O)c1cc2ccc(CC(=O)[O-])cc2n1C(N)=O (3D coordinates assigned)
[NH-]C(=O)c1cc2ccc(CC(=O)[O-])cc2n1C(N)=O (optimized conformer: 65.33662440218173 kcal/mol)

>  <smiles>  (54) 
NC(=O)c1cc2ccc(CC(=O)O)cc2n1C(N)=O

>  <score_type>  (54) 
oracle

>  <origin>  (54) 
adg

>  <m_score__min__energy>  (54) 
-10.32

>  <m_primary>  (54) 
energy

$$$$
54:0
     RDKit          3D

 37 39  0  0  0  0  0  0  0  0999 V2000
   -1.2660   25.2180  -29.2230 N   0  0  0  0  0  0  0  0  0  0  0  0
   -0.9960   23.8240  -29.3730 C   0  0  0  0  0  0  0  0  0  0  0  0
    0.0660   23.3460  -28.8930 O   0  0  0  0  0  0  0  0  0  0  0  0
   -1.9050   22.9470  -30.1380 C   0  0  0  0  0  0  0  0  0  0  0  0
   -1.5410   21.6870  -30.6020 C   0  0  0  0  0  0  0  0  0  0  0  0
   -2.6270   21.2330  -31.3110 C   0  0  0  0  0  0  0  0  0  0  0  0
   -2.8200   20.0260  -31.9750 C   0  0  0  0  0  0  0  0  0  0  0  0
   -4.0620   19.8040  -32.5920 C   0  0  0  0  0  0  0  0  0  0  0  0
   -5.0890   20.7820  -32.5390 C   0  0  0  0  0  0  0  0  0  0  0  0
   -6.4400   20.4860  -33.1750 C   0  0  0  0  0  0  0  0  0  0  0  0
   -7.6320   20.8930  -32.2690 C   0  0  0  0  0  0  0  0  0  0  0  0
   -8.6730   19.7740  -32.1440 C   0  0  0  0  0  0  0  0  0  0  0  0
   -8.0510   18.5250  -31.6870 N   0  0  0  0  0  0  0  0  0  0  0  0
   -6.9560   18.0400  -32.5540 C   0  0  0  0  0  0  0  0  0  0  0  0
   -6.5240   19.0220  -33.6600 C   0  0  0  0  0  0  0  0  0  0  0  0
   -4.8540   21.9920  -31.8420 C   0  0  0  0  0  0  0  0  0  0  0  0
   -3.6010   22.1970  -31.2530 C   0  0  0  0  0  0  0  0  0  0  0  0
   -3.1720   23.2580  -30.5310 N   0  0  0  0  0  0  0  0  0  0  0  0
   -3.9440   24.4100  -30.1480 C   0  0  0  0  0  0  0  0  0  0  0  0
   -3.8630   25.4800  -30.8050 O   0  0  0  0  0  0  0  0  0  0  0  0
   -4.7940   24.3510  -29.0510 O   0  0  0  0  0  0  0  0  0  0  0  0
   -0.6310   25.8160  -28.6490 H   0  0  0  0  0  0  0  0  0  0  0  0
   -2.0460   25.6750  -29.7460 H   0  0  0  0  0  0  0  0  0  0  0  0
   -0.5869   21.1652  -30.4365 H   0  0  0  0  0  0  0  0  0  0  0  0
   -2.0238   19.2681  -32.0156 H   0  0  0  0  0  0  0  0  0  0  0  0
   -4.2414   18.8581  -33.1242 H   0  0  0  0  0  0  0  0  0  0  0  0
   -6.5242   21.1234  -34.0676 H   0  0  0  0  0  0  0  0  0  0  0  0
   -7.2488   21.1340  -31.2665 H   0  0  0  0  0  0  0  0  0  0  0  0
   -8.1244   21.7624  -32.7290 H   0  0  0  0  0  0  0  0  0  0  0  0
   -9.4430   20.0783  -31.4198 H   0  0  0  0  0  0  0  0  0  0  0  0
   -9.1214   19.6005  -33.1334 H   0  0  0  0  0  0  0  0  0  0  0  0
   -7.6830   18.6760  -30.7190 H   0  0  0  0  0  0  0  0  0  0  0  0
   -6.0820   17.8343  -31.9186 H   0  0  0  0  0  0  0  0  0  0  0  0
   -7.3401   17.1458  -33.0667 H   0  0  0  0  0  0  0  0  0  0  0  0
   -5.5333   18.7187  -34.0294 H   0  0  0  0  0  0  0  0  0  0  0  0
   -7.2891   18.9825  -34.4493 H   0  0  0  0  0  0  0  0  0  0  0  0
   -5.6413   22.7564  -31.7649 H   0  0  0  0  0  0  0  0  0  0  0  0
  1  2  1  0
  2  3  2  0
  2  4  1  0
  4  5  2  0
  5  6  1  0
  6  7  2  0
  7  8  1  0
  8  9  2  0
  9 10  1  0
 10 11  1  0
 11 12  1  0
 12 13  1  0
 13 14  1  0
 14 15  1  0
  9 16  1  0
 16 17  2  0
 17 18  1  0
 18 19  1  0
 19 20  2  0
 19 21  1  0
 18  4  1  0
 17  6  1  0
 15 10  1  0
  1 22  1  0
  1 23  1  0
  5 24  1  0
  7 25  1  0
  8 26  1  0
 10 27  1  0
 11 28  1  0
 11 29  1  0
 12 30  1  0
 12 31  1  0
 13 32  1  0
 14 33  1  0
 14 34  1  0
 15 35  1  0
 15 36  1  0
 16 37  1  0
M  CHG  1  21  -1
M  END
>  <UniqueID>  (55) 
55

>  <SMILES>  (55) 
NC(=O)c1cc2ccc(C3CCNCC3)cc2n1C(=O)[O-]

>  <Energy>  (55) 
86.93045519743106

>  <Genealogy>  (55) 
NC(=O)c1cc2ccc(C3CCNCC3)cc2n1C(=O)[O-] (protonated)
NC(=O)c1cc2ccc(C3CCNCC3)cc2n1C(=O)[O-] (3D coordinates assigned)
NC(=O)c1cc2ccc(C3CCNCC3)cc2n1C(=O)[O-] (nonaromatic ring conformer: 86.93045519743106 kcal/mol)

>  <smiles>  (55) 
NC(=O)c1cc2ccc(C3CCNCC3)cc2n1C(=O)O

>  <score_type>  (55) 
oracle

>  <origin>  (55) 
adg

>  <m_score__min__energy>  (55) 
-9.7200000000000006

>  <m_primary>  (55) 
energy

$$$$
55:0
     RDKit          3D

 52 54  0  0  0  0  0  0  0  0999 V2000
   -7.2500   22.6880  -30.1040 C   0  0  0  0  0  0  0  0  0  0  0  0
   -7.4290   23.3470  -31.4730 C   0  0  0  0  0  0  0  0  0  0  0  0
   -6.1770   24.1050  -31.9460 C   0  0  0  0  0  0  0  0  0  0  0  0
   -5.7210   25.2050  -30.9740 C   0  0  0  0  0  0  0  0  0  0  0  0
   -4.3870   24.9890  -30.5230 O   0  0  0  0  0  0  0  0  0  0  0  0
   -3.9800   23.8400  -29.8360 C   0  0  0  0  0  0  0  0  0  0  0  0
   -4.5790   23.4740  -28.7890 O   0  0  0  0  0  0  0  0  0  0  0  0
   -2.8460   23.0990  -30.3070 N   0  0  0  0  0  0  0  0  0  0  0  0
   -1.5390   23.2630  -29.9610 C   0  0  0  0  0  0  0  0  0  0  0  0
   -0.9900   24.3670  -29.1460 C   0  0  0  0  0  0  0  0  0  0  0  0
   -1.7180   25.5790  -28.9670 N   0  0  0  0  0  0  0  0  0  0  0  0
    0.1560   24.2560  -28.6360 O   0  0  0  0  0  0  0  0  0  0  0  0
   -0.7520   22.2680  -30.5400 C   0  0  0  0  0  0  0  0  0  0  0  0
   -1.6270   21.4850  -31.2590 C   0  0  0  0  0  0  0  0  0  0  0  0
   -1.3900   20.3420  -32.0170 C   0  0  0  0  0  0  0  0  0  0  0  0
   -2.4910   19.7130  -32.6220 C   0  0  0  0  0  0  0  0  0  0  0  0
   -3.8010   20.2280  -32.4500 C   0  0  0  0  0  0  0  0  0  0  0  0
   -4.9750   19.5520  -33.1050 C   0  0  0  0  0  0  0  0  0  0  0  0
   -6.2410   20.4300  -33.1110 C   0  0  0  0  0  0  0  0  0  0  0  0
   -7.4920   19.6380  -33.2820 N   0  0  1  0  0  0  0  0  0  0  0  0
   -7.2830   18.1950  -33.0390 C   0  0  0  0  0  0  0  0  0  0  0  0
   -7.6810   17.9000  -31.5900 C   0  0  0  0  0  0  0  0  0  0  0  0
   -8.6890   18.9760  -31.2300 C   0  0  0  0  0  0  0  0  0  0  0  0
   -8.4630   19.9890  -32.2840 C   0  0  0  0  0  0  0  0  0  0  0  0
   -9.0970   21.0320  -32.3250 O   0  0  0  0  0  0  0  0  0  0  0  0
   -4.0020   21.3880  -31.6700 C   0  0  0  0  0  0  0  0  0  0  0  0
   -2.8840   22.0060  -31.1000 C   0  0  0  0  0  0  0  0  0  0  0  0
   -7.4504   23.4256  -29.3130 H   0  0  0  0  0  0  0  0  0  0  0  0
   -7.9522   21.8468  -30.0073 H   0  0  0  0  0  0  0  0  0  0  0  0
   -6.2187   22.3177  -30.0073 H   0  0  0  0  0  0  0  0  0  0  0  0
   -7.6640   22.5649  -32.2100 H   0  0  0  0  0  0  0  0  0  0  0  0
   -8.2418   24.0823  -31.3794 H   0  0  0  0  0  0  0  0  0  0  0  0
   -5.3562   23.3821  -32.0632 H   0  0  0  0  0  0  0  0  0  0  0  0
   -6.4373   24.5990  -32.8937 H   0  0  0  0  0  0  0  0  0  0  0  0
   -5.7712   26.1770  -31.4866 H   0  0  0  0  0  0  0  0  0  0  0  0
   -6.3865   25.1866  -30.0983 H   0  0  0  0  0  0  0  0  0  0  0  0
   -2.7050   25.6660  -29.2940 H   0  0  0  0  0  0  0  0  0  0  0  0
    0.3358   22.1367  -30.4430 H   0  0  0  0  0  0  0  0  0  0  0  0
   -0.3720   19.9434  -32.1386 H   0  0  0  0  0  0  0  0  0  0  0  0
   -2.3354   18.8128  -33.2347 H   0  0  0  0  0  0  0  0  0  0  0  0
   -4.7079   19.3130  -34.1450 H   0  0  0  0  0  0  0  0  0  0  0  0
   -5.2025   18.6460  -32.5242 H   0  0  0  0  0  0  0  0  0  0  0  0
   -6.2966   20.9732  -32.1561 H   0  0  0  0  0  0  0  0  0  0  0  0
   -6.1640   21.1166  -33.9669 H   0  0  0  0  0  0  0  0  0  0  0  0
   -7.9040   19.7670  -34.2360 H   0  0  0  0  0  0  0  0  0  0  0  0
   -7.9083   17.6058  -33.7258 H   0  0  0  0  0  0  0  0  0  0  0  0
   -6.2302   17.9259  -33.2099 H   0  0  0  0  0  0  0  0  0  0  0  0
   -8.1365   16.9019  -31.5102 H   0  0  0  0  0  0  0  0  0  0  0  0
   -6.8127   17.9061  -30.9147 H   0  0  0  0  0  0  0  0  0  0  0  0
   -9.7170   18.5864  -31.2665 H   0  0  0  0  0  0  0  0  0  0  0  0
   -8.5669   19.3687  -30.2098 H   0  0  0  0  0  0  0  0  0  0  0  0
   -5.0120   21.7952  -31.5146 H   0  0  0  0  0  0  0  0  0  0  0  0
  1  2  1  0
  2  3  1  0
  3  4  1  0
  4  5  1  0
  5  6  1  0
  6  7  2  0
  6  8  1  0
  8  9  1  0
  9 10  1  0
 10 11  1  0
 10 12  2  0
  9 13  2  0
 13 14  1  0
 14 15  2  0
 15 16  1  0
 16 17  2  0
 17 18  1  0
 18 19  1  0
 19 20  1  0
 20 21  1  0
 21 22  1  0
 22 23  1  0
 23 24  1  0
 24 25  2  0
 17 26  1  0
 26 27  2  0
 27  8  1  0
 27 14  1  0
 24 20  1  0
  1 28  1  0
  1 29  1  0
  1 30  1  0
  2 31  1  0
  2 32  1  0
  3 33  1  0
  3 34  1  0
  4 35  1  0
  4 36  1  0
 11 37  1  0
 13 38  1  0
 15 39  1  0
 16 40  1  0
 18 41  1  0
 18 42  1  0
 19 43  1  0
 19 44  1  0
 20 45  1  6
 21 46  1  0
 21 47  1  0
 22 48  1  0
 22 49  1  0
 23 50  1  0
 23 51  1  0
 26 52  1  0
M  CHG  2  11  -1  20   1
M  END
>  <UniqueID>  (56) 
56

>  <SMILES>  (56) 
CCCCOC(=O)n1c(C([NH-])=O)cc2ccc(CC[N@H+]3CCCC3=O)cc21

>  <Energy>  (56) 
88.67744853982688

>  <Genealogy>  (56) 
CCCCOC(=O)n1c(C([NH-])=O)cc2ccc(CC[NH+]3CCCC3=O)cc21 (protonated)
CCCCOC(=O)n1c(C([NH-])=O)cc2ccc(CC[N@H+]3CCCC3=O)cc21 (chirality)
CCCCOC(=O)n1c(C([NH-])=O)cc2ccc(CC[N@H+]3CCCC3=O)cc21 (3D coordinates assigned)
CCCCOC(=O)n1c(C([NH-])=O)cc2ccc(CC[N@H+]3CCCC3=O)cc21 (nonaromatic ring conformer: 88.67744853982688 kcal/mol)

>  <smiles>  (56) 
CCCCOC(=O)n1c(C(N)=O)cc2ccc(CCN3CCCC3=O)cc21

>  <score_type>  (56) 
oracle

>  <origin>  (56) 
adg

>  <m_score__min__energy>  (56) 
-11.32

>  <m_primary>  (56) 
energy

$$$$
56:0
     RDKit          3D

 43 44  0  0  0  0  0  0  0  0999 V2000
   -9.4130   21.6100  -31.5850 C   0  0  0  0  0  0  0  0  0  0  0  0
   -9.1150   20.2770  -32.2640 C   0  0  0  0  0  0  0  0  0  0  0  0
   -7.9160   20.3660  -33.0320 O   0  0  0  0  0  0  0  0  0  0  0  0
   -6.7000   19.8030  -32.6240 C   0  0  0  0  0  0  0  0  0  0  0  0
   -6.6230   19.1760  -31.5320 O   0  0  0  0  0  0  0  0  0  0  0  0
   -5.4950   19.9460  -33.5220 C   0  0  2  0  0  0  0  0  0  0  0  0
   -5.1120   18.6280  -34.2100 C   0  0  0  0  0  0  0  0  0  0  0  0
   -4.3110   20.4830  -32.7440 C   0  0  0  0  0  0  0  0  0  0  0  0
   -3.0950   19.7550  -32.7120 C   0  0  0  0  0  0  0  0  0  0  0  0
   -1.9940   20.2270  -31.9790 C   0  0  0  0  0  0  0  0  0  0  0  0
   -2.1330   21.4290  -31.2910 C   0  0  0  0  0  0  0  0  0  0  0  0
   -1.2360   22.1060  -30.4990 C   0  0  0  0  0  0  0  0  0  0  0  0
   -1.9070   23.2500  -30.0720 C   0  0  0  0  0  0  0  0  0  0  0  0
   -1.2700   24.3150  -29.2710 C   0  0  0  0  0  0  0  0  0  0  0  0
   -1.9650   25.5200  -28.9650 N   0  0  0  0  0  0  0  0  0  0  0  0
   -0.0740   24.1800  -28.8930 O   0  0  0  0  0  0  0  0  0  0  0  0
   -3.1770   23.2720  -30.5710 N   0  0  0  0  0  0  0  0  0  0  0  0
   -4.2060   24.2420  -30.3260 C   0  0  0  0  0  0  0  0  0  0  0  0
   -4.1450   25.3770  -30.8740 O   0  0  0  0  0  0  0  0  0  0  0  0
   -5.2600   23.9310  -29.4580 O   0  0  0  0  0  0  0  0  0  0  0  0
   -6.5230   23.4390  -29.8990 C   0  0  0  0  0  0  0  0  0  0  0  0
   -6.7760   23.8360  -31.3490 C   0  0  0  0  0  0  0  0  0  0  0  0
   -3.2970   22.1520  -31.3160 C   0  0  0  0  0  0  0  0  0  0  0  0
   -4.4200   21.6910  -32.0130 C   0  0  0  0  0  0  0  0  0  0  0  0
   -9.3839   21.4799  -30.4931 H   0  0  0  0  0  0  0  0  0  0  0  0
   -8.6585   22.3516  -31.8861 H   0  0  0  0  0  0  0  0  0  0  0  0
  -10.4115   21.9597  -31.8861 H   0  0  0  0  0  0  0  0  0  0  0  0
   -8.9966   19.4980  -31.4965 H   0  0  0  0  0  0  0  0  0  0  0  0
   -9.9496   20.0241  -32.9344 H   0  0  0  0  0  0  0  0  0  0  0  0
   -5.7729   20.6610  -34.3104 H   0  0  0  0  0  0  0  0  0  0  0  0
   -4.8908   17.8670  -33.4472 H   0  0  0  0  0  0  0  0  0  0  0  0
   -5.9478   18.2857  -34.8379 H   0  0  0  0  0  0  0  0  0  0  0  0
   -4.2229   18.7870  -34.8379 H   0  0  0  0  0  0  0  0  0  0  0  0
   -3.0129   18.8093  -33.2678 H   0  0  0  0  0  0  0  0  0  0  0  0
   -1.0498   19.6635  -31.9494 H   0  0  0  0  0  0  0  0  0  0  0  0
   -0.2060   21.8075  -30.2541 H   0  0  0  0  0  0  0  0  0  0  0  0
   -2.9410   25.6790  -29.3010 H   0  0  0  0  0  0  0  0  0  0  0  0
   -6.5323   22.3421  -29.8175 H   0  0  0  0  0  0  0  0  0  0  0  0
   -7.3130   23.8737  -29.2689 H   0  0  0  0  0  0  0  0  0  0  0  0
   -7.3670   24.7633  -31.3775 H   0  0  0  0  0  0  0  0  0  0  0  0
   -5.8144   23.9982  -31.8579 H   0  0  0  0  0  0  0  0  0  0  0  0
   -7.3292   23.0329  -31.8579 H   0  0  0  0  0  0  0  0  0  0  0  0
   -5.3649   22.2538  -31.9934 H   0  0  0  0  0  0  0  0  0  0  0  0
  1  2  1  0
  2  3  1  0
  3  4  1  0
  4  5  2  0
  4  6  1  0
  6  7  1  0
  6  8  1  0
  8  9  2  0
  9 10  1  0
 10 11  2  0
 11 12  1  0
 12 13  2  0
 13 14  1  0
 14 15  1  0
 14 16  2  0
 13 17  1  0
 17 18  1  0
 18 19  2  0
 18 20  1  0
 20 21  1  0
 21 22  1  0
 17 23  1  0
 23 24  2  0
 24  8  1  0
 23 11  1  0
  1 25  1  0
  1 26  1  0
  1 27  1  0
  2 28  1  0
  2 29  1  0
  6 30  1  6
  7 31  1  0
  7 32  1  0
  7 33  1  0
  9 34  1  0
 10 35  1  0
 12 36  1  0
 15 37  1  0
 21 38  1  0
 21 39  1  0
 22 40  1  0
 22 41  1  0
 22 42  1  0
 24 43  1  0
M  CHG  1  15  -1
M  END
>  <UniqueID>  (57) 
57

>  <SMILES>  (57) 
CCOC(=O)[C@H](C)c1ccc2cc(C([NH-])=O)n(C(=O)OCC)c2c1

>  <Energy>  (57) 
71.30151374979917

>  <Genealogy>  (57) 
CCOC(=O)C(C)c1ccc2cc(C([NH-])=O)n(C(=O)OCC)c2c1 (protonated)
CCOC(=O)[C@H](C)c1ccc2cc(C([NH-])=O)n(C(=O)OCC)c2c1 (chirality)
CCOC(=O)[C@H](C)c1ccc2cc(C([NH-])=O)n(C(=O)OCC)c2c1 (3D coordinates assigned)
CCOC(=O)[C@H](C)c1ccc2cc(C([NH-])=O)n(C(=O)OCC)c2c1 (optimized conformer: 71.30151374979917 kcal/mol)

>  <smiles>  (57) 
CCOC(=O)C(C)c1ccc2cc(C(N)=O)n(C(=O)OCC)c2c1

>  <score_type>  (57) 
oracle

>  <origin>  (57) 
adg

>  <m_score__min__energy>  (57) 
-9.7699999999999996

>  <m_primary>  (57) 
energy

$$$$
57:0
     RDKit          3D

 42 44  0  0  0  0  0  0  0  0999 V2000
   -7.6220   18.0820  -31.8710 C   0  0  0  0  0  0  0  0  0  0  0  0
   -8.5330   19.1600  -31.4600 N   0  0  0  0  0  0  0  0  0  0  0  0
   -9.4510   19.5410  -32.5400 C   0  0  0  0  0  0  0  0  0  0  0  0
   -9.7860   21.0200  -32.3450 C   0  0  0  0  0  0  0  0  0  0  0  0
   -8.7970   21.5240  -31.2950 C   0  0  2  0  0  0  0  0  0  0  0  0
   -8.1430   22.8710  -31.6540 C   0  0  0  0  0  0  0  0  0  0  0  0
   -6.9960   23.1360  -30.8450 O   0  0  0  0  0  0  0  0  0  0  0  0
   -5.7890   23.6540  -31.3310 C   0  0  0  0  0  0  0  0  0  0  0  0
   -5.6930   24.8750  -31.6370 O   0  0  0  0  0  0  0  0  0  0  0  0
   -4.6660   22.7790  -31.5160 N   0  0  0  0  0  0  0  0  0  0  0  0
   -3.3960   22.9300  -31.0420 C   0  0  0  0  0  0  0  0  0  0  0  0
   -2.9400   23.9620  -30.0860 C   0  0  0  0  0  0  0  0  0  0  0  0
   -3.4820   25.2790  -30.1130 N   0  0  0  0  0  0  0  0  0  0  0  0
   -2.0960   23.6620  -29.2000 O   0  0  0  0  0  0  0  0  0  0  0  0
   -2.5730   21.9110  -31.5160 C   0  0  0  0  0  0  0  0  0  0  0  0
   -3.3850   21.1170  -32.2930 C   0  0  0  0  0  0  0  0  0  0  0  0
   -3.0840   19.9670  -33.0180 C   0  0  0  0  0  0  0  0  0  0  0  0
   -4.1170   19.3670  -33.7580 C   0  0  0  0  0  0  0  0  0  0  0  0
   -5.4180   19.9270  -33.7660 C   0  0  0  0  0  0  0  0  0  0  0  0
   -6.4570   19.3130  -34.5320 N   0  0  0  0  0  0  0  0  0  0  0  0
   -5.6860   21.0940  -33.0210 C   0  0  0  0  0  0  0  0  0  0  0  0
   -4.6430   21.6620  -32.2770 C   0  0  0  0  0  0  0  0  0  0  0  0
   -7.8050   20.3820  -31.1150 C   0  0  0  0  0  0  0  0  0  0  0  0
   -7.2076   17.5916  -30.9778 H   0  0  0  0  0  0  0  0  0  0  0  0
   -8.1743   17.3441  -32.4714 H   0  0  0  0  0  0  0  0  0  0  0  0
   -6.8024   18.5036  -32.4714 H   0  0  0  0  0  0  0  0  0  0  0  0
   -8.9682   19.3891  -33.5166 H   0  0  0  0  0  0  0  0  0  0  0  0
  -10.3629   18.9264  -32.5136 H   0  0  0  0  0  0  0  0  0  0  0  0
   -9.6598   21.5710  -33.2886 H   0  0  0  0  0  0  0  0  0  0  0  0
  -10.8293   21.1652  -32.0279 H   0  0  0  0  0  0  0  0  0  0  0  0
   -9.3028   21.7656  -30.3485 H   0  0  0  0  0  0  0  0  0  0  0  0
   -7.8362   22.8476  -32.7101 H   0  0  0  0  0  0  0  0  0  0  0  0
   -8.8799   23.6676  -31.4740 H   0  0  0  0  0  0  0  0  0  0  0  0
   -3.7610   25.7300  -31.0120 H   0  0  0  0  0  0  0  0  0  0  0  0
   -1.5012   21.7708  -31.3123 H   0  0  0  0  0  0  0  0  0  0  0  0
   -2.0696   19.5416  -33.0117 H   0  0  0  0  0  0  0  0  0  0  0  0
   -3.9133   18.4538  -34.3365 H   0  0  0  0  0  0  0  0  0  0  0  0
   -7.2910   18.8930  -34.0610 H   0  0  0  0  0  0  0  0  0  0  0  0
   -6.4020   19.2740  -35.5740 H   0  0  0  0  0  0  0  0  0  0  0  0
   -6.6884   21.5470  -33.0238 H   0  0  0  0  0  0  0  0  0  0  0  0
   -6.9424   20.5154  -31.7845 H   0  0  0  0  0  0  0  0  0  0  0  0
   -7.4157   20.3435  -30.0869 H   0  0  0  0  0  0  0  0  0  0  0  0
  1  2  1  0
  2  3  1  0
  3  4  1  0
  4  5  1  0
  5  6  1  0
  6  7  1  0
  7  8  1  0
  8  9  2  0
  8 10  1  0
 10 11  1  0
 11 12  1  0
 12 13  1  0
 12 14  2  0
 11 15  2  0
 15 16  1  0
 16 17  2  0
 17 18  1  0
 18 19  2  0
 19 20  1  0
 19 21  1  0
 21 22  2  0
  5 23  1  0
 23  2  1  0
 22 10  1  0
 22 16  1  0
  1 24  1  0
  1 25  1  0
  1 26  1  0
  3 27  1  0
  3 28  1  0
  4 29  1  0
  4 30  1  0
  5 31  1  1
  6 32  1  0
  6 33  1  0
 13 34  1  0
 15 35  1  0
 17 36  1  0
 18 37  1  0
 20 38  1  0
 20 39  1  0
 21 40  1  0
 23 41  1  0
 23 42  1  0
M  CHG  1  13  -1
M  END
>  <UniqueID>  (58) 
58

>  <SMILES>  (58) 
CN1CC[C@H](COC(=O)n2c(C([NH-])=O)cc3ccc(N)cc32)C1

>  <Energy>  (58) 
83.00230845136566

>  <Genealogy>  (58) 
CN1CCC(COC(=O)n2c(C([NH-])=O)cc3ccc(N)cc32)C1 (protonated)
CN1CC[C@H](COC(=O)n2c(C([NH-])=O)cc3ccc(N)cc32)C1 (chirality)
CN1CC[C@H](COC(=O)n2c(C([NH-])=O)cc3ccc(N)cc32)C1 (3D coordinates assigned)
CN1CC[C@H](COC(=O)n2c(C([NH-])=O)cc3ccc(N)cc32)C1 (nonaromatic ring conformer: 83.00230845136566 kcal/mol)

>  <smiles>  (58) 
CN1CCC(COC(=O)n2c(C(N)=O)cc3ccc(N)cc32)C1

>  <score_type>  (58) 
oracle

>  <origin>  (58) 
adg

>  <m_score__min__energy>  (58) 
-10.26

>  <m_primary>  (58) 
energy

$$$$
58:0
     RDKit          3D

 37 39  0  0  0  0  0  0  0  0999 V2000
   -1.6330   25.9000  -28.7450 N   0  0  0  0  0  0  0  0  0  0  0  0
   -0.8650   24.7000  -28.8360 C   0  0  0  0  0  0  0  0  0  0  0  0
    0.2490   24.6340  -28.2530 O   0  0  0  0  0  0  0  0  0  0  0  0
   -1.3230   23.5590  -29.6550 C   0  0  0  0  0  0  0  0  0  0  0  0
   -0.5140   22.4710  -29.9700 C   0  0  0  0  0  0  0  0  0  0  0  0
   -1.2810   21.6740  -30.7860 C   0  0  0  0  0  0  0  0  0  0  0  0
   -0.9790   20.4540  -31.3810 C   0  0  0  0  0  0  0  0  0  0  0  0
   -1.9770   19.8280  -32.1460 C   0  0  0  0  0  0  0  0  0  0  0  0
   -3.2560   20.4220  -32.2960 C   0  0  0  0  0  0  0  0  0  0  0  0
   -4.2800   19.7580  -33.0630 N   0  0  0  0  0  0  0  0  0  0  0  0
   -3.9570   18.5220  -33.7960 C   0  0  0  0  0  0  0  0  0  0  0  0
   -4.7260   17.3360  -33.2150 C   0  0  0  0  0  0  0  0  0  0  0  0
   -6.4740   17.6850  -33.2310 S   0  0  0  0  0  0  0  0  0  0  0  0
   -7.0510   17.4720  -31.8590 O   0  0  0  0  0  0  0  0  0  0  0  0
   -7.1700   16.7880  -34.2150 O   0  0  0  0  0  0  0  0  0  0  0  0
   -6.6840   19.3870  -33.7170 C   0  0  0  0  0  0  0  0  0  0  0  0
   -5.6620   20.2780  -32.9990 C   0  0  0  0  0  0  0  0  0  0  0  0
   -3.5260   21.6620  -31.6720 C   0  0  0  0  0  0  0  0  0  0  0  0
   -2.5050   22.2750  -30.9330 C   0  0  0  0  0  0  0  0  0  0  0  0
   -2.5470   23.4370  -30.2410 N   0  0  0  0  0  0  0  0  0  0  0  0
   -3.6910   24.2900  -30.0630 C   0  0  0  0  0  0  0  0  0  0  0  0
   -4.5730   24.0010  -29.2130 O   0  0  0  0  0  0  0  0  0  0  0  0
   -3.8360   25.4420  -30.8250 O   0  0  0  0  0  0  0  0  0  0  0  0
   -2.4720   26.0510  -29.3490 H   0  0  0  0  0  0  0  0  0  0  0  0
   -1.3140   26.6800  -28.1300 H   0  0  0  0  0  0  0  0  0  0  0  0
    0.5183   22.2881  -29.6371 H   0  0  0  0  0  0  0  0  0  0  0  0
    0.0119   19.9929  -31.2563 H   0  0  0  0  0  0  0  0  0  0  0  0
   -1.7640   18.8657  -32.6345 H   0  0  0  0  0  0  0  0  0  0  0  0
   -4.2307   18.6471  -34.8540 H   0  0  0  0  0  0  0  0  0  0  0  0
   -2.8787   18.3257  -33.7027 H   0  0  0  0  0  0  0  0  0  0  0  0
   -4.5269   16.4395  -33.8205 H   0  0  0  0  0  0  0  0  0  0  0  0
   -4.3992   17.1631  -32.1790 H   0  0  0  0  0  0  0  0  0  0  0  0
   -6.5402   19.4739  -34.8041 H   0  0  0  0  0  0  0  0  0  0  0  0
   -7.6978   19.7141  -33.4425 H   0  0  0  0  0  0  0  0  0  0  0  0
   -5.6811   21.2746  -33.4642 H   0  0  0  0  0  0  0  0  0  0  0  0
   -5.9479   20.3082  -31.9372 H   0  0  0  0  0  0  0  0  0  0  0  0
   -4.5149   22.1347  -31.7645 H   0  0  0  0  0  0  0  0  0  0  0  0
  1  2  1  0
  2  3  2  0
  2  4  1  0
  4  5  2  0
  5  6  1  0
  6  7  2  0
  7  8  1  0
  8  9  2  0
  9 10  1  0
 10 11  1  0
 11 12  1  0
 12 13  1  0
 13 14  2  0
 13 15  2  0
 13 16  1  0
 16 17  1  0
  9 18  1  0
 18 19  2  0
 19 20  1  0
 20 21  1  0
 21 22  2  0
 21 23  1  0
 20  4  1  0
 19  6  1  0
 17 10  1  0
  1 24  1  0
  1 25  1  0
  5 26  1  0
  7 27  1  0
  8 28  1  0
 11 29  1  0
 11 30  1  0
 12 31  1  0
 12 32  1  0
 16 33  1  0
 16 34  1  0
 17 35  1  0
 17 36  1  0
 18 37  1  0
M  CHG  1  23  -1
M  END
>  <UniqueID>  (59) 
59

>  <SMILES>  (59) 
NC(=O)c1cc2ccc(N3CCS(=O)(=O)CC3)cc2n1C(=O)[O-]

>  <Energy>  (59) 
78.17580385513298

>  <Genealogy>  (59) 
NC(=O)c1cc2ccc(N3CCS(=O)(=O)CC3)cc2n1C(=O)[O-] (protonated)
NC(=O)c1cc2ccc(N3CCS(=O)(=O)CC3)cc2n1C(=O)[O-] (3D coordinates assigned)
NC(=O)c1cc2ccc(N3CCS(=O)(=O)CC3)cc2n1C(=O)[O-] (nonaromatic ring conformer: 78.17580385513298 kcal/mol)

>  <smiles>  (59) 
NC(=O)c1cc2ccc(N3CCS(=O)(=O)CC3)cc2n1C(=O)O

>  <score_type>  (59) 
oracle

>  <origin>  (59) 
adg

>  <m_score__min__energy>  (59) 
-9.4800000000000004

>  <m_primary>  (59) 
energy

$$$$
59:0
     RDKit          3D

 61 62  0  0  0  0  0  0  0  0999 V2000
   -1.1010   26.0650  -27.3420 C   0  0  0  0  0  0  0  0  0  0  0  0
   -1.8630   24.8950  -27.9970 C   0  0  0  0  0  0  0  0  0  0  0  0
   -0.9540   23.6550  -28.1170 C   0  0  0  0  0  0  0  0  0  0  0  0
   -3.0740   24.5380  -27.1200 C   0  0  0  0  0  0  0  0  0  0  0  0
   -2.3690   25.2780  -29.2840 O   0  0  0  0  0  0  0  0  0  0  0  0
   -3.2820   24.5560  -30.0660 C   0  0  0  0  0  0  0  0  0  0  0  0
   -3.2800   23.2950  -30.0760 O   0  0  0  0  0  0  0  0  0  0  0  0
   -4.2290   25.2750  -30.8580 N   0  0  0  0  0  0  0  0  0  0  0  0
   -5.6660   25.2100  -30.6270 C   0  0  0  0  0  0  0  0  0  0  0  0
   -6.0050   23.9370  -29.8570 C   0  0  0  0  0  0  0  0  0  0  0  0
   -6.5340   22.9590  -30.7340 O   0  0  0  0  0  0  0  0  0  0  0  0
   -7.5590   23.4940  -31.5520 C   0  0  0  0  0  0  0  0  0  0  0  0
   -8.6300   22.4390  -31.8420 C   0  0  0  0  0  0  0  0  0  0  0  0
   -8.2260   21.1220  -31.3500 N   0  0  0  0  0  0  0  0  0  0  0  0
   -8.7710   19.9170  -31.8970 C   0  0  0  0  0  0  0  0  0  0  0  0
   -9.6040   19.9670  -32.8430 O   0  0  0  0  0  0  0  0  0  0  0  0
   -8.3700   18.6860  -31.3720 O   0  0  0  0  0  0  0  0  0  0  0  0
   -7.0950   18.1120  -31.6440 C   0  0  0  0  0  0  0  0  0  0  0  0
   -6.6840   18.4470  -33.0750 C   0  0  0  0  0  0  0  0  0  0  0  0
   -5.4600   19.3230  -33.0880 C   0  0  0  0  0  0  0  0  0  0  0  0
   -5.5510   20.6730  -32.6670 C   0  0  0  0  0  0  0  0  0  0  0  0
   -4.4260   21.5120  -32.7070 C   0  0  0  0  0  0  0  0  0  0  0  0
   -3.2280   20.9760  -33.1700 C   0  0  0  0  0  0  0  0  0  0  0  0
   -1.9980   21.5700  -33.3360 C   0  0  0  0  0  0  0  0  0  0  0  0
   -1.1700   20.5710  -33.8440 C   0  0  0  0  0  0  0  0  0  0  0  0
    0.2740   20.7610  -34.0830 C   0  0  0  0  0  0  0  0  0  0  0  0
    1.2150   19.7480  -33.7350 N   0  0  0  0  0  0  0  0  0  0  0  0
    0.6910   21.8530  -34.5560 O   0  0  0  0  0  0  0  0  0  0  0  0
   -1.8630   19.4070  -33.9970 N   0  0  0  0  0  0  0  0  0  0  0  0
   -1.3980   18.1790  -34.5810 C   0  0  0  0  0  0  0  0  0  0  0  0
   -1.8990   17.0790  -34.2320 O   0  0  0  0  0  0  0  0  0  0  0  0
   -0.4100   18.1970  -35.5570 O   0  0  0  0  0  0  0  0  0  0  0  0
   -3.1210   19.6700  -33.5760 C   0  0  0  0  0  0  0  0  0  0  0  0
   -4.2310   18.8170  -33.5660 C   0  0  0  0  0  0  0  0  0  0  0  0
   -1.1602   25.9741  -26.2474 H   0  0  0  0  0  0  0  0  0  0  0  0
   -0.0470   26.0375  -27.6557 H   0  0  0  0  0  0  0  0  0  0  0  0
   -1.5523   27.0179  -27.6557 H   0  0  0  0  0  0  0  0  0  0  0  0
   -0.6902   23.2951  -27.1116 H   0  0  0  0  0  0  0  0  0  0  0  0
   -1.4861   22.8617  -28.6625 H   0  0  0  0  0  0  0  0  0  0  0  0
   -0.0374   23.9237  -28.6625 H   0  0  0  0  0  0  0  0  0  0  0  0
   -2.7953   24.6202  -26.0591 H   0  0  0  0  0  0  0  0  0  0  0  0
   -3.9006   25.2307  -27.3367 H   0  0  0  0  0  0  0  0  0  0  0  0
   -3.3926   23.5077  -27.3367 H   0  0  0  0  0  0  0  0  0  0  0  0
   -5.9826   26.0864  -30.0424 H   0  0  0  0  0  0  0  0  0  0  0  0
   -6.1908   25.2022  -31.5937 H   0  0  0  0  0  0  0  0  0  0  0  0
   -5.0925   23.5450  -29.3841 H   0  0  0  0  0  0  0  0  0  0  0  0
   -6.7560   24.1726  -29.0885 H   0  0  0  0  0  0  0  0  0  0  0  0
   -8.0237   24.3472  -31.0360 H   0  0  0  0  0  0  0  0  0  0  0  0
   -7.1161   23.8179  -32.5054 H   0  0  0  0  0  0  0  0  0  0  0  0
   -9.5670   22.7343  -31.3473 H   0  0  0  0  0  0  0  0  0  0  0  0
   -8.7683   22.3751  -32.9314 H   0  0  0  0  0  0  0  0  0  0  0  0
   -7.5310   21.0390  -30.5730 H   0  0  0  0  0  0  0  0  0  0  0  0
   -6.3516   18.5202  -30.9434 H   0  0  0  0  0  0  0  0  0  0  0  0
   -7.1500   17.0200  -31.5233 H   0  0  0  0  0  0  0  0  0  0  0  0
   -6.4656   17.5141  -33.6154 H   0  0  0  0  0  0  0  0  0  0  0  0
   -7.5094   18.9870  -33.5618 H   0  0  0  0  0  0  0  0  0  0  0  0
   -6.5121   21.0673  -32.3054 H   0  0  0  0  0  0  0  0  0  0  0  0
   -4.4895   22.5611  -32.3823 H   0  0  0  0  0  0  0  0  0  0  0  0
   -1.7260   22.6126  -33.1146 H   0  0  0  0  0  0  0  0  0  0  0  0
    1.1590   18.7960  -34.1590 H   0  0  0  0  0  0  0  0  0  0  0  0
   -4.1482   17.7793  -33.9213 H   0  0  0  0  0  0  0  0  0  0  0  0
  1  2  1  0
  2  3  1  0
  2  4  1  0
  2  5  1  0
  5  6  1  0
  6  7  2  0
  6  8  1  0
  8  9  1  0
  9 10  1  0
 10 11  1  0
 11 12  1  0
 12 13  1  0
 13 14  1  0
 14 15  1  0
 15 16  2  0
 15 17  1  0
 17 18  1  0
 18 19  1  0
 19 20  1  0
 20 21  2  0
 21 22  1  0
 22 23  2  0
 23 24  1  0
 24 25  2  0
 25 26  1  0
 26 27  1  0
 26 28  2  0
 25 29  1  0
 29 30  1  0
 30 31  2  0
 30 32  1  0
 29 33  1  0
 33 34  2  0
 34 20  1  0
 33 23  1  0
  1 35  1  0
  1 36  1  0
  1 37  1  0
  3 38  1  0
  3 39  1  0
  3 40  1  0
  4 41  1  0
  4 42  1  0
  4 43  1  0
  9 44  1  0
  9 45  1  0
 10 46  1  0
 10 47  1  0
 12 48  1  0
 12 49  1  0
 13 50  1  0
 13 51  1  0
 14 52  1  0
 18 53  1  0
 18 54  1  0
 19 55  1  0
 19 56  1  0
 21 57  1  0
 22 58  1  0
 24 59  1  0
 27 60  1  0
 34 61  1  0
M  CHG  3   8  -1  27  -1  32  -1
M  END
>  <UniqueID>  (60) 
60

>  <SMILES>  (60) 
CC(C)(C)OC(=O)[N-]CCOCCNC(=O)OCCc1ccc2cc(C([NH-])=O)n(C(=O)[O-])c2c1

>  <Energy>  (60) 
85.43282049159488

>  <Genealogy>  (60) 
CC(C)(C)OC(=O)[N-]CCOCCNC(=O)OCCc1ccc2cc(C([NH-])=O)n(C(=O)[O-])c2c1 (protonated)
CC(C)(C)OC(=O)[N-]CCOCCNC(=O)OCCc1ccc2cc(C([NH-])=O)n(C(=O)[O-])c2c1 (3D coordinates assigned)
CC(C)(C)OC(=O)[N-]CCOCCNC(=O)OCCc1ccc2cc(C([NH-])=O)n(C(=O)[O-])c2c1 (optimized conformer: 85.43282049159488 kcal/mol)

>  <smiles>  (60) 
CC(C)(C)OC(=O)NCCOCCNC(=O)OCCc1ccc2cc(C(N)=O)n(C(=O)O)c2c1

>  <score_type>  (60) 
oracle

>  <origin>  (60) 
adg

>  <m_score__min__energy>  (60) 
-12.619999999999999

>  <m_primary>  (60) 
energy

$$$$
60:0
     RDKit          3D

 49 51  0  0  0  0  0  0  0  0999 V2000
   -3.1570   18.2920  -34.2060 C   0  0  0  0  0  0  0  0  0  0  0  0
   -4.1020   17.3180  -34.7780 N   0  0  0  0  0  0  0  0  0  0  0  0
   -3.3720   16.2870  -35.5330 C   0  0  0  0  0  0  0  0  0  0  0  0
   -4.9300   16.7110  -33.7150 C   0  0  0  0  0  0  0  0  0  0  0  0
   -6.1140   17.6320  -33.3520 C   0  0  0  0  0  0  0  0  0  0  0  0
   -6.3510   18.8250  -34.2060 N   0  0  0  0  0  0  0  0  0  0  0  0
   -6.5610   20.0260  -33.4270 C   0  0  0  0  0  0  0  0  0  0  0  0
   -7.8790   20.4330  -33.0840 C   0  0  0  0  0  0  0  0  0  0  0  0
   -8.0970   21.5700  -32.2870 C   0  0  0  0  0  0  0  0  0  0  0  0
   -6.9840   22.2880  -31.8610 C   0  0  0  0  0  0  0  0  0  0  0  0
   -6.9020   23.3960  -31.0480 C   0  0  0  0  0  0  0  0  0  0  0  0
   -5.5410   23.6740  -30.9370 C   0  0  0  0  0  0  0  0  0  0  0  0
   -4.9990   24.8210  -30.1870 C   0  0  0  0  0  0  0  0  0  0  0  0
   -3.9520   25.6200  -30.7350 N   0  0  0  0  0  0  0  0  0  0  0  0
   -5.4870   25.1240  -29.0660 O   0  0  0  0  0  0  0  0  0  0  0  0
   -4.8090   22.7680  -31.6430 N   0  0  0  0  0  0  0  0  0  0  0  0
   -3.3780   22.6730  -31.7340 C   0  0  0  0  0  0  0  0  0  0  0  0
   -2.8540   21.9270  -32.6040 O   0  0  0  0  0  0  0  0  0  0  0  0
   -2.5770   23.3990  -30.8450 O   0  0  0  0  0  0  0  0  0  0  0  0
   -2.3640   23.0190  -29.4860 C   0  0  0  0  0  0  0  0  0  0  0  0
   -1.4320   24.0050  -28.7820 C   0  0  0  0  0  0  0  0  0  0  0  0
   -0.1140   23.6980  -29.0700 F   0  0  0  0  0  0  0  0  0  0  0  0
   -1.6970   25.3010  -29.1880 F   0  0  0  0  0  0  0  0  0  0  0  0
   -5.7040   21.9240  -32.1990 C   0  0  0  0  0  0  0  0  0  0  0  0
   -5.4570   20.7790  -32.9600 C   0  0  0  0  0  0  0  0  0  0  0  0
   -7.2710   17.0770  -32.5200 C   0  0  0  0  0  0  0  0  0  0  0  0
   -6.2060   17.9280  -31.8500 C   0  0  0  0  0  0  0  0  0  0  0  0
   -3.2022   18.2454  -33.1079 H   0  0  0  0  0  0  0  0  0  0  0  0
   -2.1369   18.0536  -34.5414 H   0  0  0  0  0  0  0  0  0  0  0  0
   -3.4261   19.3045  -34.5414 H   0  0  0  0  0  0  0  0  0  0  0  0
   -2.8827   15.5959  -34.8309 H   0  0  0  0  0  0  0  0  0  0  0  0
   -4.0769   15.7282  -36.1662 H   0  0  0  0  0  0  0  0  0  0  0  0
   -2.6108   16.7662  -36.1662 H   0  0  0  0  0  0  0  0  0  0  0  0
   -5.3194   15.7448  -34.0682 H   0  0  0  0  0  0  0  0  0  0  0  0
   -4.3066   16.5675  -32.8201 H   0  0  0  0  0  0  0  0  0  0  0  0
   -7.1990   18.6630  -34.7960 H   0  0  0  0  0  0  0  0  0  0  0  0
   -5.5690   18.9750  -34.8840 H   0  0  0  0  0  0  0  0  0  0  0  0
   -8.7390   19.8509  -33.4468 H   0  0  0  0  0  0  0  0  0  0  0  0
   -9.1145   21.8821  -32.0091 H   0  0  0  0  0  0  0  0  0  0  0  0
   -7.7345   23.9455  -30.5843 H   0  0  0  0  0  0  0  0  0  0  0  0
   -2.9590   25.3010  -30.7140 H   0  0  0  0  0  0  0  0  0  0  0  0
   -3.3308   23.0006  -28.9617 H   0  0  0  0  0  0  0  0  0  0  0  0
   -1.8980   22.0227  -29.4692 H   0  0  0  0  0  0  0  0  0  0  0  0
   -1.6025   23.9265  -27.6981 H   0  0  0  0  0  0  0  0  0  0  0  0
   -4.4272   20.4692  -33.1913 H   0  0  0  0  0  0  0  0  0  0  0  0
   -8.2867   17.4764  -32.6571 H   0  0  0  0  0  0  0  0  0  0  0  0
   -7.6874   16.0745  -32.3426 H   0  0  0  0  0  0  0  0  0  0  0  0
   -6.4509   18.9430  -31.5038 H   0  0  0  0  0  0  0  0  0  0  0  0
   -5.5337   17.7961  -30.9894 H   0  0  0  0  0  0  0  0  0  0  0  0
  1  2  1  0
  2  3  1  0
  2  4  1  0
  4  5  1  0
  5  6  1  0
  6  7  1  0
  7  8  2  0
  8  9  1  0
  9 10  2  0
 10 11  1  0
 11 12  2  0
 12 13  1  0
 13 14  1  0
 13 15  2  0
 12 16  1  0
 16 17  1  0
 17 18  2  0
 17 19  1  0
 19 20  1  0
 20 21  1  0
 21 22  1  0
 21 23  1  0
 16 24  1  0
 24 25  2  0
  5 26  1  0
 26 27  1  0
 27  5  1  0
 25  7  1  0
 24 10  1  0
  1 28  1  0
  1 29  1  0
  1 30  1  0
  3 31  1  0
  3 32  1  0
  3 33  1  0
  4 34  1  0
  4 35  1  0
  6 36  1  0
  6 37  1  0
  8 38  1  0
  9 39  1  0
 11 40  1  0
 14 41  1  0
 20 42  1  0
 20 43  1  0
 21 44  1  0
 25 45  1  0
 26 46  1  0
 26 47  1  0
 27 48  1  0
 27 49  1  0
M  CHG  2   6   1  14  -1
M  END
>  <UniqueID>  (61) 
61

>  <SMILES>  (61) 
CN(C)CC1([NH2+]c2ccc3cc(C([NH-])=O)n(C(=O)OCC(F)F)c3c2)CC1

>  <Energy>  (61) 
357.46457617981116

>  <Genealogy>  (61) 
CN(C)CC1([NH2+]c2ccc3cc(C([NH-])=O)n(C(=O)OCC(F)F)c3c2)CC1 (protonated)
CN(C)CC1([NH2+]c2ccc3cc(C([NH-])=O)n(C(=O)OCC(F)F)c3c2)CC1 (3D coordinates assigned)
CN(C)CC1([NH2+]c2ccc3cc(C([NH-])=O)n(C(=O)OCC(F)F)c3c2)CC1 (nonaromatic ring conformer: 357.46457617981116 kcal/mol)

>  <smiles>  (61) 
CN(C)CC1(Nc2ccc3cc(C(N)=O)n(C(=O)OCC(F)F)c3c2)CC1

>  <score_type>  (61) 
oracle

>  <origin>  (61) 
adg

>  <m_score__min__energy>  (61) 
-9.3000000000000007

>  <m_primary>  (61) 
energy

$$$$
61:0
     RDKit          3D

 43 44  0  0  0  0  0  0  0  0999 V2000
   -2.9690   25.2990  -30.0420 H   0  0  0  0  0  0  0  0  0  0  0  0
   -3.6360   25.2800  -30.8450 N   0  0  0  0  0  0  0  0  0  0  0  0
   -5.0440   25.3070  -30.6310 C   0  0  0  0  0  0  0  0  0  0  0  0
   -5.5740   26.3590  -30.1860 O   0  0  0  0  0  0  0  0  0  0  0  0
   -5.8920   24.1220  -30.9050 C   0  0  0  0  0  0  0  0  0  0  0  0
   -7.2840   24.1790  -30.9660 C   0  0  0  0  0  0  0  0  0  0  0  0
   -7.9216   25.0634  -30.8202 H   0  0  0  0  0  0  0  0  0  0  0  0
   -7.6910   22.8960  -31.2470 C   0  0  0  0  0  0  0  0  0  0  0  0
   -8.9680   22.3860  -31.4400 C   0  0  0  0  0  0  0  0  0  0  0  0
   -9.8544   23.0313  -31.3519 H   0  0  0  0  0  0  0  0  0  0  0  0
   -9.0950   21.0220  -31.7510 C   0  0  0  0  0  0  0  0  0  0  0  0
  -10.0964   20.5922  -31.9011 H   0  0  0  0  0  0  0  0  0  0  0  0
   -7.9490   20.1870  -31.8750 C   0  0  0  0  0  0  0  0  0  0  0  0
   -8.0890   18.7790  -32.1980 N   0  0  0  0  0  0  0  0  0  0  0  0
   -7.1290   18.1200  -33.0930 C   0  0  0  0  0  0  0  0  0  0  0  0
   -6.3683   17.5978  -32.4942 H   0  0  0  0  0  0  0  0  0  0  0  0
   -7.6581   17.3938  -33.7276 H   0  0  0  0  0  0  0  0  0  0  0  0
   -6.6415   18.8748  -33.7276 H   0  0  0  0  0  0  0  0  0  0  0  0
   -9.1940   17.9910  -31.6380 C   0  0  0  0  0  0  0  0  0  0  0  0
   -9.1479   18.0239  -30.5395 H   0  0  0  0  0  0  0  0  0  0  0  0
  -10.1525   18.4106  -31.9775 H   0  0  0  0  0  0  0  0  0  0  0  0
   -9.1095   16.9481  -31.9775 H   0  0  0  0  0  0  0  0  0  0  0  0
   -6.6650   20.7580  -31.6760 C   0  0  0  0  0  0  0  0  0  0  0  0
   -5.7578   20.1443  -31.7781 H   0  0  0  0  0  0  0  0  0  0  0  0
   -6.5730   22.1140  -31.3480 C   0  0  0  0  0  0  0  0  0  0  0  0
   -5.4580   22.8450  -31.1170 N   0  0  0  0  0  0  0  0  0  0  0  0
   -4.1020   22.3810  -31.2280 C   0  0  0  0  0  0  0  0  0  0  0  0
   -3.4200   22.7200  -32.2320 O   0  0  0  0  0  0  0  0  0  0  0  0
   -3.5100   21.4130  -30.2780 C   0  0  0  0  0  0  0  0  0  0  0  0
   -4.0046   20.4335  -30.2009 H   0  0  0  0  0  0  0  0  0  0  0  0
   -2.4320   21.6050  -29.5000 C   0  0  0  0  0  0  0  0  0  0  0  0
   -2.1837   20.8024  -28.7900 H   0  0  0  0  0  0  0  0  0  0  0  0
   -1.5290   22.8120  -29.5040 C   0  0  0  0  0  0  0  0  0  0  0  0
   -0.4917   22.4772  -29.3560 H   0  0  0  0  0  0  0  0  0  0  0  0
   -1.6551   23.3211  -30.4709 H   0  0  0  0  0  0  0  0  0  0  0  0
   -1.8860   23.8170  -28.3960 C   0  0  1  0  0  0  0  0  0  0  0  0
   -1.7025   23.3468  -27.4186 H   0  0  0  0  0  0  0  0  0  0  0  0
   -1.0310   25.0430  -28.5390 C   0  0  0  0  0  0  0  0  0  0  0  0
   -1.5280   26.1170  -28.9690 O   0  0  0  0  0  0  0  0  0  0  0  0
    0.3080   25.0090  -28.1650 O   0  0  0  0  0  0  0  0  0  0  0  0
   -3.3000   24.1920  -28.4770 N   0  0  0  0  0  0  0  0  0  0  0  0
   -3.3630   25.2190  -28.6600 H   0  0  0  0  0  0  0  0  0  0  0  0
   -3.7140   23.7290  -29.3210 H   0  0  0  0  0  0  0  0  0  0  0  0
  1  2  1  0
  2  3  1  0
  3  4  2  0
  3  5  1  0
  5  6  2  0
  6  7  1  0
  6  8  1  0
  8  9  2  0
  9 10  1  0
  9 11  1  0
 11 12  1  0
 11 13  2  0
 13 14  1  0
 14 15  1  0
 15 16  1  0
 15 17  1  0
 15 18  1  0
 14 19  1  0
 19 20  1  0
 19 21  1  0
 19 22  1  0
 13 23  1  0
 23 24  1  0
 23 25  2  0
 25 26  1  0
 26 27  1  0
 27 28  2  0
 27 29  1  0
 29 30  1  0
 29 31  2  0
 31 32  1  0
 31 33  1  0
 33 34  1  0
 33 35  1  0
 33 36  1  0
 36 37  1  1
 36 38  1  0
 38 39  2  0
 38 40  1  0
 36 41  1  0
 41 42  1  0
 41 43  1  0
 26  5  1  0
 25  8  1  0
M  CHG  2   2  -1  40  -1
M  END
>  <UniqueID>  (62) 
62

>  <SMILES>  (62) 
CN(C)c1ccc2cc(C([NH-])=O)n(C(=O)/C=C\C[C@H](N)C(=O)[O-])c2c1

>  <Energy>  (62) 
82.28919650485976

>  <Genealogy>  (62) 
CN(C)c1ccc2cc(C([NH-])=O)n(C(=O)C=CCC(N)C(=O)[O-])c2c1 (protonated)
CN(C)c1ccc2cc(C([NH-])=O)n(C(=O)C=CC[C@H](N)C(=O)[O-])c2c1 (chirality)
CN(C)c1ccc2cc(C([NH-])=O)n(C(=O)/C=C\C[C@H](N)C(=O)[O-])c2c1 (cis-trans isomerization)
CN(C)c1ccc2cc(C([NH-])=O)n(C(=O)/C=C\C[C@H](N)C(=O)[O-])c2c1 (3D coordinates assigned)
CN(C)c1ccc2cc(C([NH-])=O)n(C(=O)/C=C\C[C@H](N)C(=O)[O-])c2c1 (optimized conformer: 82.28919650485976 kcal/mol)

>  <smiles>  (62) 
CN(C)c1ccc2cc(C(N)=O)n(C(=O)C=CCC(N)C(=O)O)c2c1

>  <score_type>  (62) 
oracle

>  <origin>  (62) 
adg

>  <m_score__min__energy>  (62) 
-12.550000000000001

>  <m_primary>  (62) 
energy

$$$$
62:0
     RDKit          3D

 42 43  0  0  0  0  0  0  0  0999 V2000
   -3.6760   17.4240  -34.8150 C   0  0  0  0  0  0  0  0  0  0  0  0
   -5.0980   16.9210  -34.5880 C   0  0  0  0  0  0  0  0  0  0  0  0
   -5.9560   17.9950  -34.2080 O   0  0  0  0  0  0  0  0  0  0  0  0
   -5.8400   18.6800  -32.9940 C   0  0  0  0  0  0  0  0  0  0  0  0
   -5.8190   18.0470  -31.9010 O   0  0  0  0  0  0  0  0  0  0  0  0
   -5.7900   20.1830  -33.0030 C   0  0  0  0  0  0  0  0  0  0  0  0
   -7.0150   20.7720  -32.3560 C   0  0  0  0  0  0  0  0  0  0  0  0
   -7.7010   20.0620  -31.5710 O   0  0  0  0  0  0  0  0  0  0  0  0
   -7.4160   22.0770  -32.6670 O   0  0  0  0  0  0  0  0  0  0  0  0
   -8.1660   22.9000  -31.7760 C   0  0  0  0  0  0  0  0  0  0  0  0
   -7.2440   23.8740  -31.0520 C   0  0  0  0  0  0  0  0  0  0  0  0
   -4.5230   20.6970  -32.3490 C   0  0  0  0  0  0  0  0  0  0  0  0
   -3.3380   19.9160  -32.3990 C   0  0  0  0  0  0  0  0  0  0  0  0
   -2.1520   20.3700  -31.8010 C   0  0  0  0  0  0  0  0  0  0  0  0
   -2.1780   21.5970  -31.1460 C   0  0  0  0  0  0  0  0  0  0  0  0
   -1.1680   22.2810  -30.5090 C   0  0  0  0  0  0  0  0  0  0  0  0
   -1.7540   23.4550  -30.0430 C   0  0  0  0  0  0  0  0  0  0  0  0
   -1.0360   24.4520  -29.2220 C   0  0  0  0  0  0  0  0  0  0  0  0
   -1.6020   25.7330  -28.9600 N   0  0  0  0  0  0  0  0  0  0  0  0
    0.0730   24.1490  -28.7030 O   0  0  0  0  0  0  0  0  0  0  0  0
   -3.0740   23.5000  -30.3870 N   0  0  0  0  0  0  0  0  0  0  0  0
   -4.0040   24.5740  -30.1770 C   0  0  0  0  0  0  0  0  0  0  0  0
   -3.8590   25.6700  -30.7810 O   0  0  0  0  0  0  0  0  0  0  0  0
   -5.0900   24.4070  -29.3250 O   0  0  0  0  0  0  0  0  0  0  0  0
   -3.3170   22.3520  -31.0590 C   0  0  0  0  0  0  0  0  0  0  0  0
   -4.5090   21.9350  -31.6590 C   0  0  0  0  0  0  0  0  0  0  0  0
   -3.1887   17.5964  -33.8440 H   0  0  0  0  0  0  0  0  0  0  0  0
   -3.1074   16.6724  -35.3823 H   0  0  0  0  0  0  0  0  0  0  0  0
   -3.7064   18.3659  -35.3823 H   0  0  0  0  0  0  0  0  0  0  0  0
   -5.4743   16.4693  -35.5177 H   0  0  0  0  0  0  0  0  0  0  0  0
   -5.0853   16.1746  -33.7801 H   0  0  0  0  0  0  0  0  0  0  0  0
   -5.7766   20.5089  -34.0535 H   0  0  0  0  0  0  0  0  0  0  0  0
   -8.9145   23.4669  -32.3490 H   0  0  0  0  0  0  0  0  0  0  0  0
   -8.6649   22.2605  -31.0330 H   0  0  0  0  0  0  0  0  0  0  0  0
   -7.3609   23.7505  -29.9652 H   0  0  0  0  0  0  0  0  0  0  0  0
   -6.2006   23.6698  -31.3341 H   0  0  0  0  0  0  0  0  0  0  0  0
   -7.5051   24.9046  -31.3341 H   0  0  0  0  0  0  0  0  0  0  0  0
   -3.3497   18.9434  -32.9126 H   0  0  0  0  0  0  0  0  0  0  0  0
   -1.2292   19.7732  -31.8489 H   0  0  0  0  0  0  0  0  0  0  0  0
   -0.1202   21.9670  -30.3927 H   0  0  0  0  0  0  0  0  0  0  0  0
   -2.6350   25.8800  -28.9790 H   0  0  0  0  0  0  0  0  0  0  0  0
   -5.4161   22.5541  -31.5969 H   0  0  0  0  0  0  0  0  0  0  0  0
  1  2  1  0
  2  3  1  0
  3  4  1  0
  4  5  2  0
  4  6  1  0
  6  7  1  0
  7  8  2  0
  7  9  1  0
  9 10  1  0
 10 11  1  0
  6 12  1  0
 12 13  2  0
 13 14  1  0
 14 15  2  0
 15 16  1  0
 16 17  2  0
 17 18  1  0
 18 19  1  0
 18 20  2  0
 17 21  1  0
 21 22  1  0
 22 23  2  0
 22 24  1  0
 21 25  1  0
 25 26  2  0
 26 12  1  0
 25 15  1  0
  1 27  1  0
  1 28  1  0
  1 29  1  0
  2 30  1  0
  2 31  1  0
  6 32  1  0
 10 33  1  0
 10 34  1  0
 11 35  1  0
 11 36  1  0
 11 37  1  0
 13 38  1  0
 14 39  1  0
 16 40  1  0
 19 41  1  0
 26 42  1  0
M  CHG  2  19  -1  24  -1
M  END
>  <UniqueID>  (63) 
63

>  <SMILES>  (63) 
CCOC(=O)C(C(=O)OCC)c1ccc2cc(C([NH-])=O)n(C(=O)[O-])c2c1

>  <Energy>  (63) 
73.11430061394047

>  <Genealogy>  (63) 
CCOC(=O)C(C(=O)OCC)c1ccc2cc(C([NH-])=O)n(C(=O)[O-])c2c1 (protonated)
CCOC(=O)C(C(=O)OCC)c1ccc2cc(C([NH-])=O)n(C(=O)[O-])c2c1 (3D coordinates assigned)
CCOC(=O)C(C(=O)OCC)c1ccc2cc(C([NH-])=O)n(C(=O)[O-])c2c1 (optimized conformer: 73.11430061394047 kcal/mol)

>  <smiles>  (63) 
CCOC(=O)C(C(=O)OCC)c1ccc2cc(C(N)=O)n(C(=O)O)c2c1

>  <score_type>  (63) 
oracle

>  <origin>  (63) 
adg

>  <m_score__min__energy>  (63) 
-10.869999999999999

>  <m_primary>  (63) 
energy

$$$$
63:0
     RDKit          3D

 46 48  0  0  0  0  0  0  0  0999 V2000
   -1.6920   25.9200  -28.6250 N   0  0  0  0  0  0  0  0  0  0  0  0
   -0.8710   24.7760  -28.8400 C   0  0  0  0  0  0  0  0  0  0  0  0
    0.2430   24.7010  -28.2580 O   0  0  0  0  0  0  0  0  0  0  0  0
   -1.3220   23.6630  -29.7040 C   0  0  0  0  0  0  0  0  0  0  0  0
   -0.4930   22.6200  -30.1110 C   0  0  0  0  0  0  0  0  0  0  0  0
   -1.2990   21.7790  -30.8440 C   0  0  0  0  0  0  0  0  0  0  0  0
   -0.9920   20.5900  -31.5000 C   0  0  0  0  0  0  0  0  0  0  0  0
   -2.0180   19.9430  -32.2070 C   0  0  0  0  0  0  0  0  0  0  0  0
   -3.3270   20.4920  -32.2540 C   0  0  0  0  0  0  0  0  0  0  0  0
   -4.4200   19.7840  -33.0350 C   0  0  0  0  0  0  0  0  0  0  0  0
   -5.5950   20.7420  -33.3170 C   0  0  0  0  0  0  0  0  0  0  0  0
   -6.8200   19.9540  -33.8010 C   0  0  0  0  0  0  0  0  0  0  0  0
   -7.2810   18.9230  -32.8350 N   0  0  0  0  0  0  0  0  0  0  0  0
   -8.8050   19.3710  -32.1010 S   0  0  0  0  0  0  0  0  0  0  0  0
   -9.1450   18.4140  -30.9910 O   0  0  0  0  0  0  0  0  0  0  0  0
   -9.8980   19.3310  -33.1320 O   0  0  0  0  0  0  0  0  0  0  0  0
   -8.7090   21.0300  -31.4530 C   0  0  0  0  0  0  0  0  0  0  0  0
   -9.2200   21.9170  -32.3830 F   0  0  0  0  0  0  0  0  0  0  0  0
   -9.4500   21.1140  -30.2890 F   0  0  0  0  0  0  0  0  0  0  0  0
   -7.3970   21.3610  -31.1780 F   0  0  0  0  0  0  0  0  0  0  0  0
   -6.3020   18.5880  -31.7790 C   0  0  0  0  0  0  0  0  0  0  0  0
   -4.8810   18.4750  -32.3420 C   0  0  0  0  0  0  0  0  0  0  0  0
   -3.5930   21.7090  -31.5810 C   0  0  0  0  0  0  0  0  0  0  0  0
   -2.5570   22.3190  -30.8680 C   0  0  0  0  0  0  0  0  0  0  0  0
   -2.5900   23.4750  -30.1690 N   0  0  0  0  0  0  0  0  0  0  0  0
   -3.7140   24.3580  -30.0220 C   0  0  0  0  0  0  0  0  0  0  0  0
   -3.8680   25.3090  -30.8350 O   0  0  0  0  0  0  0  0  0  0  0  0
   -4.7320   24.1540  -28.9390 C   0  0  0  0  0  0  0  0  0  0  0  0
   -4.2620   24.6710  -27.7250 O   0  0  0  0  0  0  0  0  0  0  0  0
   -2.6790   25.9450  -28.9660 H   0  0  0  0  0  0  0  0  0  0  0  0
    0.5779   22.4952  -29.8929 H   0  0  0  0  0  0  0  0  0  0  0  0
    0.0241   20.1700  -31.4654 H   0  0  0  0  0  0  0  0  0  0  0  0
   -1.8054   18.9994  -32.7309 H   0  0  0  0  0  0  0  0  0  0  0  0
   -3.9973   19.4806  -34.0042 H   0  0  0  0  0  0  0  0  0  0  0  0
   -5.8524   21.2822  -32.3940 H   0  0  0  0  0  0  0  0  0  0  0  0
   -5.2958   21.4548  -34.0996 H   0  0  0  0  0  0  0  0  0  0  0  0
   -7.6437   20.6623  -33.9738 H   0  0  0  0  0  0  0  0  0  0  0  0
   -6.5234   19.4270  -34.7199 H   0  0  0  0  0  0  0  0  0  0  0  0
   -6.3204   19.3764  -31.0121 H   0  0  0  0  0  0  0  0  0  0  0  0
   -6.5799   17.6146  -31.3487 H   0  0  0  0  0  0  0  0  0  0  0  0
   -4.1899   18.2486  -31.5167 H   0  0  0  0  0  0  0  0  0  0  0  0
   -4.8791   17.6745  -33.0965 H   0  0  0  0  0  0  0  0  0  0  0  0
   -4.5935   22.1647  -31.6185 H   0  0  0  0  0  0  0  0  0  0  0  0
   -5.6640   24.6685  -29.2157 H   0  0  0  0  0  0  0  0  0  0  0  0
   -4.9168   23.0761  -28.8207 H   0  0  0  0  0  0  0  0  0  0  0  0
   -3.6780   25.4380  -27.9600 H   0  0  0  0  0  0  0  0  0  0  0  0
  1  2  1  0
  2  3  2  0
  2  4  1  0
  4  5  2  0
  5  6  1  0
  6  7  2  0
  7  8  1  0
  8  9  2  0
  9 10  1  0
 10 11  1  0
 11 12  1  0
 12 13  1  0
 13 14  1  0
 14 15  2  0
 14 16  2  0
 14 17  1  0
 17 18  1  0
 17 19  1  0
 17 20  1  0
 13 21  1  0
 21 22  1  0
  9 23  1  0
 23 24  2  0
 24 25  1  0
 25 26  1  0
 26 27  2  0
 26 28  1  0
 28 29  1  0
 25  4  1  0
 24  6  1  0
 22 10  1  0
  1 30  1  0
  5 31  1  0
  7 32  1  0
  8 33  1  0
 10 34  1  0
 11 35  1  0
 11 36  1  0
 12 37  1  0
 12 38  1  0
 21 39  1  0
 21 40  1  0
 22 41  1  0
 22 42  1  0
 23 43  1  0
 28 44  1  0
 28 45  1  0
 29 46  1  0
M  CHG  1   1  -1
M  END
>  <UniqueID>  (64) 
64

>  <SMILES>  (64) 
[NH-]C(=O)c1cc2ccc(C3CCN(S(=O)(=O)C(F)(F)F)CC3)cc2n1C(=O)CO

>  <Energy>  (64) 
89.35058775844715

>  <Genealogy>  (64) 
[NH-]C(=O)c1cc2ccc(C3CCN(S(=O)(=O)C(F)(F)F)CC3)cc2n1C(=O)CO (protonated)
[NH-]C(=O)c1cc2ccc(C3CCN(S(=O)(=O)C(F)(F)F)CC3)cc2n1C(=O)CO (3D coordinates assigned)
[NH-]C(=O)c1cc2ccc(C3CCN(S(=O)(=O)C(F)(F)F)CC3)cc2n1C(=O)CO (nonaromatic ring conformer: 89.35058775844715 kcal/mol)

>  <smiles>  (64) 
NC(=O)c1cc2ccc(C3CCN(S(=O)(=O)C(F)(F)F)CC3)cc2n1C(=O)CO

>  <score_type>  (64) 
oracle

>  <origin>  (64) 
adg

>  <m_score__min__energy>  (64) 
-11.41

>  <m_primary>  (64) 
energy

$$$$
64:0
     RDKit          3D

 66 70  0  0  0  0  0  0  0  0999 V2000
   -4.3650   15.1950  -34.3380 N   0  0  0  0  0  0  0  0  0  0  0  0
   -4.9630   15.6560  -33.1210 C   0  0  0  0  0  0  0  0  0  0  0  0
   -4.9520   14.9110  -32.1070 O   0  0  0  0  0  0  0  0  0  0  0  0
   -5.5640   17.0050  -33.0590 C   0  0  0  0  0  0  0  0  0  0  0  0
   -6.8120   17.2790  -32.5030 C   0  0  0  0  0  0  0  0  0  0  0  0
   -6.9620   18.6480  -32.5830 C   0  0  0  0  0  0  0  0  0  0  0  0
   -7.9430   19.4690  -32.0200 C   0  0  0  0  0  0  0  0  0  0  0  0
   -7.7480   20.8590  -32.0780 C   0  0  0  0  0  0  0  0  0  0  0  0
   -6.6000   21.4030  -32.7140 C   0  0  0  0  0  0  0  0  0  0  0  0
   -6.3800   22.8300  -32.7120 N   0  0  0  0  0  0  0  0  0  0  0  0
   -6.2110   23.3670  -31.3320 C   0  0  0  0  0  0  0  0  0  0  0  0
   -6.1130   24.9170  -31.3640 C   0  0  0  0  0  0  0  0  0  0  0  0
   -5.1850   25.4250  -30.2540 C   0  0  0  0  0  0  0  0  0  0  0  0
   -3.8480   24.9890  -30.4370 O   0  0  0  0  0  0  0  0  0  0  0  0
   -3.7260   23.6290  -30.8450 C   0  0  0  0  0  0  0  0  0  0  0  0
   -4.9770   22.7610  -30.6080 C   0  0  0  0  0  0  0  0  0  0  0  0
   -5.6420   20.5310  -33.2820 C   0  0  0  0  0  0  0  0  0  0  0  0
   -5.8470   19.1480  -33.1960 C   0  0  0  0  0  0  0  0  0  0  0  0
   -4.9740   18.1590  -33.4820 N   0  0  0  0  0  0  0  0  0  0  0  0
   -3.6050   18.3480  -33.8630 C   0  0  0  0  0  0  0  0  0  0  0  0
   -3.2090   17.8990  -34.9720 O   0  0  0  0  0  0  0  0  0  0  0  0
   -2.6560   18.9280  -32.9480 N   0  0  0  0  0  0  0  0  0  0  0  0
   -1.3250   18.3140  -32.7920 C   0  0  0  0  0  0  0  0  0  0  0  0
   -0.2710   19.3430  -32.3760 C   0  0  0  0  0  0  0  0  0  0  0  0
   -0.7350   20.1900  -31.1710 C   0  0  0  0  0  0  0  0  0  0  0  0
   -0.8600   19.3420  -29.9470 N   0  0  0  0  0  0  0  0  0  0  0  0
   -1.2540   20.1260  -28.7520 C   0  0  0  0  0  0  0  0  0  0  0  0
   -1.3610   19.2050  -27.5140 C   0  0  0  0  0  0  0  0  0  0  0  0
   -0.3850   18.1720  -27.4360 O   0  0  0  0  0  0  0  0  0  0  0  0
    0.7580   18.4830  -28.2010 C   0  0  0  0  0  0  0  0  0  0  0  0
    0.3930   18.5770  -29.6960 C   0  0  0  0  0  0  0  0  0  0  0  0
   -2.0560   20.8860  -31.5930 C   0  0  0  0  0  0  0  0  0  0  0  0
   -3.1310   19.8460  -31.9060 C   0  0  0  0  0  0  0  0  0  0  0  0
   -3.8950   15.8520  -35.0010 H   0  0  0  0  0  0  0  0  0  0  0  0
   -7.5280   16.5549  -32.0871 H   0  0  0  0  0  0  0  0  0  0  0  0
   -8.8388   19.0406  -31.5468 H   0  0  0  0  0  0  0  0  0  0  0  0
   -8.4913   21.5326  -31.6267 H   0  0  0  0  0  0  0  0  0  0  0  0
   -7.1890   23.2850  -33.1960 H   0  0  0  0  0  0  0  0  0  0  0  0
   -5.5300   23.0520  -33.2820 H   0  0  0  0  0  0  0  0  0  0  0  0
   -7.1009   23.0710  -30.7571 H   0  0  0  0  0  0  0  0  0  0  0  0
   -5.7157   25.2335  -32.3397 H   0  0  0  0  0  0  0  0  0  0  0  0
   -7.1169   25.3379  -31.2056 H   0  0  0  0  0  0  0  0  0  0  0  0
   -5.2026   26.5249  -30.2523 H   0  0  0  0  0  0  0  0  0  0  0  0
   -5.5463   25.0193  -29.2975 H   0  0  0  0  0  0  0  0  0  0  0  0
   -3.5005   23.6151  -31.9215 H   0  0  0  0  0  0  0  0  0  0  0  0
   -2.9287   23.1933  -30.2248 H   0  0  0  0  0  0  0  0  0  0  0  0
   -4.7924   21.7481  -30.9954 H   0  0  0  0  0  0  0  0  0  0  0  0
   -5.1830   22.7249  -29.5281 H   0  0  0  0  0  0  0  0  0  0  0  0
   -4.7494   20.9329  -33.7837 H   0  0  0  0  0  0  0  0  0  0  0  0
   -1.3820   17.5309  -32.0216 H   0  0  0  0  0  0  0  0  0  0  0  0
   -1.0268   17.8916  -33.7629 H   0  0  0  0  0  0  0  0  0  0  0  0
    0.6540   18.8138  -32.1032 H   0  0  0  0  0  0  0  0  0  0  0  0
   -0.1046   20.0220  -33.2253 H   0  0  0  0  0  0  0  0  0  0  0  0
   -0.0002   20.9628  -30.9010 H   0  0  0  0  0  0  0  0  0  0  0  0
   -0.4978   20.9020  -28.5622 H   0  0  0  0  0  0  0  0  0  0  0  0
   -2.2339   20.5903  -28.9371 H   0  0  0  0  0  0  0  0  0  0  0  0
   -1.2644   19.8318  -26.6152 H   0  0  0  0  0  0  0  0  0  0  0  0
   -2.3336   18.6978  -27.5965 H   0  0  0  0  0  0  0  0  0  0  0  0
    1.1671   19.4476  -27.8662 H   0  0  0  0  0  0  0  0  0  0  0  0
    1.5063   17.6883  -28.0650 H   0  0  0  0  0  0  0  0  0  0  0  0
    1.2184   19.0740  -30.2268 H   0  0  0  0  0  0  0  0  0  0  0  0
    0.2277   17.5513  -30.0573 H   0  0  0  0  0  0  0  0  0  0  0  0
   -2.4038   21.5309  -30.7725 H   0  0  0  0  0  0  0  0  0  0  0  0
   -1.8694   21.4880  -32.4945 H   0  0  0  0  0  0  0  0  0  0  0  0
   -3.3607   19.2745  -30.9946 H   0  0  0  0  0  0  0  0  0  0  0  0
   -4.0357   20.3595  -32.2635 H   0  0  0  0  0  0  0  0  0  0  0  0
  1  2  1  0
  2  3  2  0
  2  4  1  0
  4  5  2  0
  5  6  1  0
  6  7  2  0
  7  8  1  0
  8  9  2  0
  9 10  1  0
 10 11  1  0
 11 12  1  0
 12 13  1  0
 13 14  1  0
 14 15  1  0
 15 16  1  0
  9 17  1  0
 17 18  2  0
 18 19  1  0
 19 20  1  0
 20 21  2  0
 20 22  1  0
 22 23  1  0
 23 24  1  0
 24 25  1  0
 25 26  1  0
 26 27  1  0
 27 28  1  0
 28 29  1  0
 29 30  1  0
 30 31  1  0
 25 32  1  0
 32 33  1  0
 19  4  1  0
 33 22  1  0
 18  6  1  0
 31 26  1  0
 16 11  1  0
  1 34  1  0
  5 35  1  0
  7 36  1  0
  8 37  1  0
 10 38  1  0
 10 39  1  0
 11 40  1  0
 12 41  1  0
 12 42  1  0
 13 43  1  0
 13 44  1  0
 15 45  1  0
 15 46  1  0
 16 47  1  0
 16 48  1  0
 17 49  1  0
 23 50  1  0
 23 51  1  0
 24 52  1  0
 24 53  1  0
 25 54  1  0
 27 55  1  0
 27 56  1  0
 28 57  1  0
 28 58  1  0
 30 59  1  0
 30 60  1  0
 31 61  1  0
 31 62  1  0
 32 63  1  0
 32 64  1  0
 33 65  1  0
 33 66  1  0
M  CHG  2   1  -1  10   1
M  END
>  <UniqueID>  (65) 
65

>  <SMILES>  (65) 
[NH-]C(=O)c1cc2ccc([NH2+]C3CCOCC3)cc2n1C(=O)N1CCC(N2CCOCC2)CC1

>  <Energy>  (65) 
138.9278452553423

>  <Genealogy>  (65) 
[NH-]C(=O)c1cc2ccc([NH2+]C3CCOCC3)cc2n1C(=O)N1CCC(N2CCOCC2)CC1 (protonated)
[NH-]C(=O)c1cc2ccc([NH2+]C3CCOCC3)cc2n1C(=O)N1CCC(N2CCOCC2)CC1 (3D coordinates assigned)
[NH-]C(=O)c1cc2ccc([NH2+]C3CCOCC3)cc2n1C(=O)N1CCC(N2CCOCC2)CC1 (nonaromatic ring conformer: 138.9278452553423 kcal/mol)

>  <smiles>  (65) 
NC(=O)c1cc2ccc(NC3CCOCC3)cc2n1C(=O)N1CCC(N2CCOCC2)CC1

>  <score_type>  (65) 
oracle

>  <origin>  (65) 
adg

>  <m_score__min__energy>  (65) 
-13.02

>  <m_primary>  (65) 
energy

$$$$
65:0
     RDKit          3D

 42 44  0  0  0  0  0  0  0  0999 V2000
   -4.1690   25.6680  -30.6400 N   0  0  0  0  0  0  0  0  0  0  0  0
   -5.4840   25.1820  -30.3810 C   0  0  0  0  0  0  0  0  0  0  0  0
   -6.2930   25.9030  -29.7400 O   0  0  0  0  0  0  0  0  0  0  0  0
   -5.8940   23.8590  -30.8980 C   0  0  0  0  0  0  0  0  0  0  0  0
   -7.1990   23.5550  -31.2840 C   0  0  0  0  0  0  0  0  0  0  0  0
   -7.1760   22.2220  -31.6260 C   0  0  0  0  0  0  0  0  0  0  0  0
   -8.1940   21.4020  -32.0980 C   0  0  0  0  0  0  0  0  0  0  0  0
   -7.8770   20.0680  -32.4060 C   0  0  0  0  0  0  0  0  0  0  0  0
   -6.5540   19.5780  -32.2460 C   0  0  0  0  0  0  0  0  0  0  0  0
   -6.2260   18.1720  -32.5890 C   0  0  0  0  0  0  0  0  0  0  0  0
   -5.7000   17.3010  -31.6190 C   0  0  0  0  0  0  0  0  0  0  0  0
   -5.3970   15.9820  -31.9630 C   0  0  0  0  0  0  0  0  0  0  0  0
   -5.6080   15.5390  -33.2320 N   0  0  0  0  0  0  0  0  0  0  0  0
   -6.1160   16.3570  -34.1920 C   0  0  0  0  0  0  0  0  0  0  0  0
   -6.4340   17.6830  -33.8900 C   0  0  0  0  0  0  0  0  0  0  0  0
   -5.5470   20.4470  -31.7610 C   0  0  0  0  0  0  0  0  0  0  0  0
   -5.8970   21.7650  -31.4460 C   0  0  0  0  0  0  0  0  0  0  0  0
   -5.0970   22.7590  -31.0010 N   0  0  0  0  0  0  0  0  0  0  0  0
   -3.6840   22.6730  -30.7720 C   0  0  0  0  0  0  0  0  0  0  0  0
   -2.8790   23.0640  -31.6610 O   0  0  0  0  0  0  0  0  0  0  0  0
   -3.2080   22.1800  -29.5500 O   0  0  0  0  0  0  0  0  0  0  0  0
   -3.8190   22.4560  -28.2910 C   0  0  0  0  0  0  0  0  0  0  0  0
   -3.7510   23.9500  -27.9600 C   0  0  0  0  0  0  0  0  0  0  0  0
   -2.3250   24.5060  -28.0300 C   0  0  0  0  0  0  0  0  0  0  0  0
   -2.0210   24.8950  -29.3420 O   0  0  0  0  0  0  0  0  0  0  0  0
   -3.3890   25.0110  -30.8660 H   0  0  0  0  0  0  0  0  0  0  0  0
   -8.0628   24.2356  -31.3097 H   0  0  0  0  0  0  0  0  0  0  0  0
   -9.2169   21.7856  -32.2266 H   0  0  0  0  0  0  0  0  0  0  0  0
   -8.6642   19.3946  -32.7759 H   0  0  0  0  0  0  0  0  0  0  0  0
   -5.5277   17.6572  -30.5926 H   0  0  0  0  0  0  0  0  0  0  0  0
   -4.9862   15.2986  -31.2052 H   0  0  0  0  0  0  0  0  0  0  0  0
   -5.3770   14.5490  -33.4720 H   0  0  0  0  0  0  0  0  0  0  0  0
   -6.2771   15.9730  -35.2101 H   0  0  0  0  0  0  0  0  0  0  0  0
   -6.8460   18.3425  -34.6680 H   0  0  0  0  0  0  0  0  0  0  0  0
   -4.5128   20.0942  -31.6346 H   0  0  0  0  0  0  0  0  0  0  0  0
   -4.8731   22.1438  -28.3273 H   0  0  0  0  0  0  0  0  0  0  0  0
   -3.2776   21.9006  -27.5110 H   0  0  0  0  0  0  0  0  0  0  0  0
   -4.3784   24.4986  -28.6779 H   0  0  0  0  0  0  0  0  0  0  0  0
   -4.1078   24.0785  -26.9274 H   0  0  0  0  0  0  0  0  0  0  0  0
   -2.2417   25.3775  -27.3641 H   0  0  0  0  0  0  0  0  0  0  0  0
   -1.6188   23.7237  -27.7148 H   0  0  0  0  0  0  0  0  0  0  0  0
   -2.5730   24.3280  -29.9420 H   0  0  0  0  0  0  0  0  0  0  0  0
  1  2  1  0
  2  3  2  0
  2  4  1  0
  4  5  2  0
  5  6  1  0
  6  7  2  0
  7  8  1  0
  8  9  2  0
  9 10  1  0
 10 11  2  0
 11 12  1  0
 12 13  2  0
 13 14  1  0
 14 15  2  0
  9 16  1  0
 16 17  2  0
 17 18  1  0
 18 19  1  0
 19 20  2  0
 19 21  1  0
 21 22  1  0
 22 23  1  0
 23 24  1  0
 24 25  1  0
 18  4  1  0
 17  6  1  0
 15 10  1  0
  1 26  1  0
  5 27  1  0
  7 28  1  0
  8 29  1  0
 11 30  1  0
 12 31  1  0
 13 32  1  0
 14 33  1  0
 15 34  1  0
 16 35  1  0
 22 36  1  0
 22 37  1  0
 23 38  1  0
 23 39  1  0
 24 40  1  0
 24 41  1  0
 25 42  1  0
M  CHG  2   1  -1  13   1
M  END
>  <UniqueID>  (66) 
66

>  <SMILES>  (66) 
[NH-]C(=O)c1cc2ccc(-c3cc[nH+]cc3)cc2n1C(=O)OCCCO

>  <Energy>  (66) 
83.63754136448995

>  <Genealogy>  (66) 
[NH-]C(=O)c1cc2ccc(-c3cc[nH+]cc3)cc2n1C(=O)OCCCO (protonated)
[NH-]C(=O)c1cc2ccc(-c3cc[nH+]cc3)cc2n1C(=O)OCCCO (3D coordinates assigned)
[NH-]C(=O)c1cc2ccc(-c3cc[nH+]cc3)cc2n1C(=O)OCCCO (optimized conformer: 83.63754136448995 kcal/mol)

>  <smiles>  (66) 
NC(=O)c1cc2ccc(-c3ccncc3)cc2n1C(=O)OCCCO

>  <score_type>  (66) 
oracle

>  <origin>  (66) 
adg

>  <m_score__min__energy>  (66) 
-10.960000000000001

>  <m_primary>  (66) 
energy

$$$$
66:0
     RDKit          3D

 48 49  0  0  0  0  0  0  0  0999 V2000
   -4.2560   13.3050  -31.1130 C   0  0  0  0  0  0  0  0  0  0  0  0
   -3.9750   14.2250  -32.2960 C   0  0  0  0  0  0  0  0  0  0  0  0
   -5.1450   14.9590  -32.6510 O   0  0  0  0  0  0  0  0  0  0  0  0
   -5.9550   14.6350  -33.7440 C   0  0  0  0  0  0  0  0  0  0  0  0
   -5.8790   13.5000  -34.2910 O   0  0  0  0  0  0  0  0  0  0  0  0
   -6.8970   15.6630  -34.2960 C   0  0  0  0  0  0  0  0  0  0  0  0
   -6.6930   16.9900  -33.6850 N   0  0  0  0  0  0  0  0  0  0  0  0
   -6.1020   17.9910  -34.5950 C   0  0  0  0  0  0  0  0  0  0  0  0
   -4.5660   18.0140  -34.5360 C   0  0  0  0  0  0  0  0  0  0  0  0
   -4.0960   19.1240  -33.6360 C   0  0  0  0  0  0  0  0  0  0  0  0
   -2.7340   19.2040  -33.2490 C   0  0  0  0  0  0  0  0  0  0  0  0
   -2.2780   20.2700  -32.4570 C   0  0  0  0  0  0  0  0  0  0  0  0
   -3.2000   21.2380  -32.0700 C   0  0  0  0  0  0  0  0  0  0  0  0
   -3.0210   22.3940  -31.3430 C   0  0  0  0  0  0  0  0  0  0  0  0
   -4.2780   22.9940  -31.2870 C   0  0  0  0  0  0  0  0  0  0  0  0
   -4.5550   24.2330  -30.5310 C   0  0  0  0  0  0  0  0  0  0  0  0
   -3.5890   25.2770  -30.4580 N   0  0  0  0  0  0  0  0  0  0  0  0
   -5.6770   24.3900  -29.9810 O   0  0  0  0  0  0  0  0  0  0  0  0
   -5.1960   22.2430  -31.9570 N   0  0  0  0  0  0  0  0  0  0  0  0
   -6.5710   22.5620  -32.2220 C   0  0  0  0  0  0  0  0  0  0  0  0
   -6.9280   23.7680  -32.3190 O   0  0  0  0  0  0  0  0  0  0  0  0
   -7.5110   21.5320  -32.3490 O   0  0  0  0  0  0  0  0  0  0  0  0
   -7.7810   20.5900  -31.3150 C   0  0  0  0  0  0  0  0  0  0  0  0
   -7.8530   19.2070  -31.8810 C   0  0  0  0  0  0  0  0  0  0  0  0
   -8.6830   18.9390  -32.7880 O   0  0  0  0  0  0  0  0  0  0  0  0
   -6.9730   18.2270  -31.4420 O   0  0  0  0  0  0  0  0  0  0  0  0
   -4.5210   21.1700  -32.4280 C   0  0  0  0  0  0  0  0  0  0  0  0
   -5.0010   20.1280  -33.2300 C   0  0  0  0  0  0  0  0  0  0  0  0
   -4.0885   13.8533  -30.1742 H   0  0  0  0  0  0  0  0  0  0  0  0
   -5.3001   12.9613  -31.1557 H   0  0  0  0  0  0  0  0  0  0  0  0
   -3.5821   12.4366  -31.1557 H   0  0  0  0  0  0  0  0  0  0  0  0
   -3.1752   14.9294  -32.0239 H   0  0  0  0  0  0  0  0  0  0  0  0
   -3.6667   13.6122  -33.1559 H   0  0  0  0  0  0  0  0  0  0  0  0
   -6.7367   15.7441  -35.3812 H   0  0  0  0  0  0  0  0  0  0  0  0
   -7.9229   15.3393  -34.0663 H   0  0  0  0  0  0  0  0  0  0  0  0
   -6.0660   16.8830  -32.8540 H   0  0  0  0  0  0  0  0  0  0  0  0
   -7.6140   17.3430  -33.3350 H   0  0  0  0  0  0  0  0  0  0  0  0
   -6.4110   17.7564  -35.6243 H   0  0  0  0  0  0  0  0  0  0  0  0
   -6.4612   18.9811  -34.2776 H   0  0  0  0  0  0  0  0  0  0  0  0
   -4.2032   17.0517  -34.1456 H   0  0  0  0  0  0  0  0  0  0  0  0
   -4.1709   18.1821  -35.5487 H   0  0  0  0  0  0  0  0  0  0  0  0
   -2.0287   18.4242  -33.5721 H   0  0  0  0  0  0  0  0  0  0  0  0
   -1.2235   20.3380  -32.1515 H   0  0  0  0  0  0  0  0  0  0  0  0
   -2.0848   22.7651  -30.9005 H   0  0  0  0  0  0  0  0  0  0  0  0
   -3.5060   25.9860  -31.2210 H   0  0  0  0  0  0  0  0  0  0  0  0
   -6.9778   20.6340  -30.5647 H   0  0  0  0  0  0  0  0  0  0  0  0
   -8.7457   20.8370  -30.8478 H   0  0  0  0  0  0  0  0  0  0  0  0
   -6.0570   20.0926  -33.5361 H   0  0  0  0  0  0  0  0  0  0  0  0
  1  2  1  0
  2  3  1  0
  3  4  1  0
  4  5  2  0
  4  6  1  0
  6  7  1  0
  7  8  1  0
  8  9  1  0
  9 10  1  0
 10 11  2  0
 11 12  1  0
 12 13  2  0
 13 14  1  0
 14 15  2  0
 15 16  1  0
 16 17  1  0
 16 18  2  0
 15 19  1  0
 19 20  1  0
 20 21  2  0
 20 22  1  0
 22 23  1  0
 23 24  1  0
 24 25  2  0
 24 26  1  0
 19 27  1  0
 27 28  2  0
 28 10  1  0
 27 13  1  0
  1 29  1  0
  1 30  1  0
  1 31  1  0
  2 32  1  0
  2 33  1  0
  6 34  1  0
  6 35  1  0
  7 36  1  0
  7 37  1  0
  8 38  1  0
  8 39  1  0
  9 40  1  0
  9 41  1  0
 11 42  1  0
 12 43  1  0
 14 44  1  0
 17 45  1  0
 23 46  1  0
 23 47  1  0
 28 48  1  0
M  CHG  3   7   1  17  -1  26  -1
M  END
>  <UniqueID>  (67) 
67

>  <SMILES>  (67) 
CCOC(=O)C[NH2+]CCc1ccc2cc(C([NH-])=O)n(C(=O)OCC(=O)[O-])c2c1

>  <Energy>  (67) 
78.53211244005146

>  <Genealogy>  (67) 
CCOC(=O)C[NH2+]CCc1ccc2cc(C([NH-])=O)n(C(=O)OCC(=O)[O-])c2c1 (protonated)
CCOC(=O)C[NH2+]CCc1ccc2cc(C([NH-])=O)n(C(=O)OCC(=O)[O-])c2c1 (3D coordinates assigned)
CCOC(=O)C[NH2+]CCc1ccc2cc(C([NH-])=O)n(C(=O)OCC(=O)[O-])c2c1 (optimized conformer: 78.53211244005146 kcal/mol)

>  <smiles>  (67) 
CCOC(=O)CNCCc1ccc2cc(C(N)=O)n(C(=O)OCC(=O)O)c2c1

>  <score_type>  (67) 
oracle

>  <origin>  (67) 
adg

>  <m_score__min__energy>  (67) 
-11.029999999999999

>  <m_primary>  (67) 
energy

$$$$
67:0
     RDKit          3D

 34 36  0  0  0  0  0  0  0  0999 V2000
    0.7450   24.4800  -24.2240 N   0  0  0  0  0  0  0  0  0  0  0  0
    0.9060   24.3490  -25.6370 C   0  0  0  0  0  0  0  0  0  0  0  0
    1.9130   24.8610  -26.1940 O   0  0  0  0  0  0  0  0  0  0  0  0
   -0.1200   23.6840  -26.4640 C   0  0  0  0  0  0  0  0  0  0  0  0
   -0.5870   22.3970  -26.2130 C   0  0  0  0  0  0  0  0  0  0  0  0
   -1.4680   22.1250  -27.2340 C   0  0  0  0  0  0  0  0  0  0  0  0
   -2.2360   20.9890  -27.4720 C   0  0  0  0  0  0  0  0  0  0  0  0
   -3.0920   20.9930  -28.5860 C   0  0  0  0  0  0  0  0  0  0  0  0
   -3.1650   22.1260  -29.4350 C   0  0  0  0  0  0  0  0  0  0  0  0
   -4.0940   22.1290  -30.5890 C   0  0  0  0  0  0  0  0  0  0  0  0
   -4.2480   20.9360  -31.3150 C   0  0  0  0  0  0  0  0  0  0  0  0
   -5.1680   20.8530  -32.3590 C   0  0  0  0  0  0  0  0  0  0  0  0
   -5.9490   21.9580  -32.6930 C   0  0  0  0  0  0  0  0  0  0  0  0
   -5.8040   23.1580  -31.9940 C   0  0  0  0  0  0  0  0  0  0  0  0
   -6.5530   24.2230  -32.3760 F   0  0  0  0  0  0  0  0  0  0  0  0
   -4.8690   23.2690  -30.9430 C   0  0  0  0  0  0  0  0  0  0  0  0
   -4.6910   24.5820  -30.2720 C   0  0  0  0  0  0  0  0  0  0  0  0
   -5.2650   24.8290  -29.1800 O   0  0  0  0  0  0  0  0  0  0  0  0
   -3.8600   25.5480  -30.8290 O   0  0  0  0  0  0  0  0  0  0  0  0
   -2.3800   23.2670  -29.1540 C   0  0  0  0  0  0  0  0  0  0  0  0
   -1.5190   23.2270  -28.0500 C   0  0  0  0  0  0  0  0  0  0  0  0
   -0.6970   24.1960  -27.5870 N   0  0  0  0  0  0  0  0  0  0  0  0
   -0.5630   25.5330  -28.1030 C   0  0  0  0  0  0  0  0  0  0  0  0
    0.4240   26.2450  -27.7830 O   0  0  0  0  0  0  0  0  0  0  0  0
   -1.5210   26.0500  -28.9670 O   0  0  0  0  0  0  0  0  0  0  0  0
   -0.1490   24.2160  -23.7560 H   0  0  0  0  0  0  0  0  0  0  0  0
    1.4980   24.9210  -23.6500 H   0  0  0  0  0  0  0  0  0  0  0  0
   -0.3106   21.7380  -25.3767 H   0  0  0  0  0  0  0  0  0  0  0  0
   -2.1746   20.1143  -26.8078 H   0  0  0  0  0  0  0  0  0  0  0  0
   -3.7109   20.1095  -28.8013 H   0  0  0  0  0  0  0  0  0  0  0  0
   -3.6365   20.0588  -31.0570 H   0  0  0  0  0  0  0  0  0  0  0  0
   -5.2778   19.9134  -32.9204 H   0  0  0  0  0  0  0  0  0  0  0  0
   -6.6820   21.8845  -33.5099 H   0  0  0  0  0  0  0  0  0  0  0  0
   -2.4436   24.1645  -29.7868 H   0  0  0  0  0  0  0  0  0  0  0  0
  1  2  1  0
  2  3  2  0
  2  4  1  0
  4  5  2  0
  5  6  1  0
  6  7  2  0
  7  8  1  0
  8  9  2  0
  9 10  1  0
 10 11  2  0
 11 12  1  0
 12 13  2  0
 13 14  1  0
 14 15  1  0
 14 16  2  0
 16 17  1  0
 17 18  2  0
 17 19  1  0
  9 20  1  0
 20 21  2  0
 21 22  1  0
 22 23  1  0
 23 24  2  0
 23 25  1  0
 22  4  1  0
 21  6  1  0
 16 10  1  0
  1 26  1  0
  1 27  1  0
  5 28  1  0
  7 29  1  0
  8 30  1  0
 11 31  1  0
 12 32  1  0
 13 33  1  0
 20 34  1  0
M  CHG  2  19  -1  25  -1
M  END
>  <UniqueID>  (68) 
68

>  <SMILES>  (68) 
NC(=O)c1cc2ccc(-c3cccc(F)c3C(=O)[O-])cc2n1C(=O)[O-]

>  <Energy>  (68) 
88.94832276704204

>  <Genealogy>  (68) 
NC(=O)c1cc2ccc(-c3cccc(F)c3C(=O)[O-])cc2n1C(=O)[O-] (protonated)
NC(=O)c1cc2ccc(-c3cccc(F)c3C(=O)[O-])cc2n1C(=O)[O-] (3D coordinates assigned)
NC(=O)c1cc2ccc(-c3cccc(F)c3C(=O)[O-])cc2n1C(=O)[O-] (optimized conformer: 88.94832276704204 kcal/mol)

>  <smiles>  (68) 
NC(=O)c1cc2ccc(-c3cccc(F)c3C(=O)O)cc2n1C(=O)O

>  <score_type>  (68) 
oracle

>  <origin>  (68) 
adg

>  <m_score__min__energy>  (68) 
-10.81

>  <m_primary>  (68) 
energy

$$$$
68:0
     RDKit          3D

 36 37  0  0  0  0  0  0  0  0999 V2000
   -2.3140   21.8610  -31.1490 C   0  0  0  0  0  0  0  0  0  0  0  0
   -2.0290   21.4970  -32.6010 C   0  0  0  0  0  0  0  0  0  0  0  0
   -3.2460   21.2730  -33.3090 O   0  0  0  0  0  0  0  0  0  0  0  0
   -4.0030   20.1010  -33.1910 C   0  0  0  0  0  0  0  0  0  0  0  0
   -3.4360   18.9740  -33.2040 O   0  0  0  0  0  0  0  0  0  0  0  0
   -5.4300   20.1830  -33.0510 N   0  0  0  0  0  0  0  0  0  0  0  0
   -6.3480   19.2160  -33.3350 C   0  0  0  0  0  0  0  0  0  0  0  0
   -6.0700   17.9300  -34.0040 C   0  0  0  0  0  0  0  0  0  0  0  0
   -4.9360   17.7690  -34.8580 N   0  0  0  0  0  0  0  0  0  0  0  0
   -6.8760   16.9730  -33.8630 O   0  0  0  0  0  0  0  0  0  0  0  0
   -7.6240   19.6210  -32.9530 C   0  0  0  0  0  0  0  0  0  0  0  0
   -7.4630   20.8860  -32.4340 C   0  0  0  0  0  0  0  0  0  0  0  0
   -8.4030   21.7520  -31.8850 C   0  0  0  0  0  0  0  0  0  0  0  0
   -7.9500   22.9840  -31.3850 C   0  0  0  0  0  0  0  0  0  0  0  0
   -6.5750   23.3230  -31.4380 C   0  0  0  0  0  0  0  0  0  0  0  0
   -6.0950   24.6260  -30.8550 C   0  0  0  0  0  0  0  0  0  0  0  0
   -4.7220   24.4670  -30.1920 C   0  0  0  0  0  0  0  0  0  0  0  0
   -3.7650   25.2740  -30.8230 O   0  0  0  0  0  0  0  0  0  0  0  0
   -5.6480   22.4130  -31.9910 C   0  0  0  0  0  0  0  0  0  0  0  0
   -6.1300   21.2020  -32.5030 C   0  0  0  0  0  0  0  0  0  0  0  0
   -1.7734   21.1705  -30.4850 H   0  0  0  0  0  0  0  0  0  0  0  0
   -1.9800   22.8913  -30.9569 H   0  0  0  0  0  0  0  0  0  0  0  0
   -3.3944   21.7839  -30.9569 H   0  0  0  0  0  0  0  0  0  0  0  0
   -1.4787   22.3207  -33.0791 H   0  0  0  0  0  0  0  0  0  0  0  0
   -1.4293   20.5752  -32.6250 H   0  0  0  0  0  0  0  0  0  0  0  0
   -4.3470   18.5850  -35.1330 H   0  0  0  0  0  0  0  0  0  0  0  0
   -4.7320   16.8390  -35.2880 H   0  0  0  0  0  0  0  0  0  0  0  0
   -8.5607   19.0519  -33.0460 H   0  0  0  0  0  0  0  0  0  0  0  0
   -9.4681   21.4804  -31.8437 H   0  0  0  0  0  0  0  0  0  0  0  0
   -8.6693   23.6924  -30.9482 H   0  0  0  0  0  0  0  0  0  0  0  0
   -6.0202   25.3726  -31.6594 H   0  0  0  0  0  0  0  0  0  0  0  0
   -6.8151   24.9500  -30.0892 H   0  0  0  0  0  0  0  0  0  0  0  0
   -4.7972   24.7580  -29.1339 H   0  0  0  0  0  0  0  0  0  0  0  0
   -4.4088   23.4162  -30.2803 H   0  0  0  0  0  0  0  0  0  0  0  0
   -4.2100   25.6770  -31.6130 H   0  0  0  0  0  0  0  0  0  0  0  0
   -4.5740   22.6493  -32.0190 H   0  0  0  0  0  0  0  0  0  0  0  0
  1  2  1  0
  2  3  1  0
  3  4  1  0
  4  5  2  0
  4  6  1  0
  6  7  1  0
  7  8  1  0
  8  9  1  0
  8 10  2  0
  7 11  2  0
 11 12  1  0
 12 13  2  0
 13 14  1  0
 14 15  2  0
 15 16  1  0
 16 17  1  0
 17 18  1  0
 15 19  1  0
 19 20  2  0
 20  6  1  0
 20 12  1  0
  1 21  1  0
  1 22  1  0
  1 23  1  0
  2 24  1  0
  2 25  1  0
  9 26  1  0
  9 27  1  0
 11 28  1  0
 13 29  1  0
 14 30  1  0
 16 31  1  0
 16 32  1  0
 17 33  1  0
 17 34  1  0
 18 35  1  0
 19 36  1  0
M  END
>  <UniqueID>  (69) 
69

>  <SMILES>  (69) 
CCOC(=O)n1c(C(N)=O)cc2ccc(CCO)cc21

>  <Energy>  (69) 
68.48485423286267

>  <Genealogy>  (69) 
CCOC(=O)n1c(C(N)=O)cc2ccc(CCO)cc21 (3D coordinates assigned)
CCOC(=O)n1c(C(N)=O)cc2ccc(CCO)cc21 (optimized conformer: 68.48485423286267 kcal/mol)

>  <smiles>  (69) 
CCOC(=O)n1c(C(N)=O)cc2ccc(CCO)cc21

>  <score_type>  (69) 
oracle

>  <origin>  (69) 
adg

>  <m_score__min__energy>  (69) 
-8.0199999999999996

>  <m_primary>  (69) 
energy

$$$$
69:0
     RDKit          3D

 42 44  0  0  0  0  0  0  0  0999 V2000
   -9.2200   21.9310  -31.1770 C   0  0  0  0  0  0  0  0  0  0  0  0
   -9.1010   20.7060  -31.8930 O   0  0  0  0  0  0  0  0  0  0  0  0
   -7.8810   20.1260  -32.2700 C   0  0  0  0  0  0  0  0  0  0  0  0
   -7.6400   18.7420  -32.1770 C   0  0  0  0  0  0  0  0  0  0  0  0
   -6.4030   18.2150  -32.5550 C   0  0  0  0  0  0  0  0  0  0  0  0
   -5.3850   19.0600  -33.0290 C   0  0  0  0  0  0  0  0  0  0  0  0
   -4.0170   18.5050  -33.3340 C   0  0  0  0  0  0  0  0  0  0  0  0
   -3.0570   19.6000  -33.8260 C   0  0  0  0  0  0  0  0  0  0  0  0
   -2.3510   20.2780  -32.6790 C   0  0  0  0  0  0  0  0  0  0  0  0
   -1.2830   19.6260  -32.0160 C   0  0  0  0  0  0  0  0  0  0  0  0
   -0.6820   20.2040  -30.8870 C   0  0  0  0  0  0  0  0  0  0  0  0
   -1.1730   21.4280  -30.4410 C   0  0  0  0  0  0  0  0  0  0  0  0
   -0.8240   22.1710  -29.3370 C   0  0  0  0  0  0  0  0  0  0  0  0
   -1.6740   23.2730  -29.3510 C   0  0  0  0  0  0  0  0  0  0  0  0
   -1.6090   24.3610  -28.3550 C   0  0  0  0  0  0  0  0  0  0  0  0
   -1.6550   25.7320  -28.7530 N   0  0  0  0  0  0  0  0  0  0  0  0
   -1.4540   24.0780  -27.1370 O   0  0  0  0  0  0  0  0  0  0  0  0
   -2.5250   23.2130  -30.4130 N   0  0  0  0  0  0  0  0  0  0  0  0
   -3.6380   24.0800  -30.6930 C   0  0  0  0  0  0  0  0  0  0  0  0
   -3.5630   25.3120  -30.4410 O   0  0  0  0  0  0  0  0  0  0  0  0
   -4.8100   23.5700  -31.2370 O   0  0  0  0  0  0  0  0  0  0  0  0
   -2.2010   22.0800  -31.0760 C   0  0  0  0  0  0  0  0  0  0  0  0
   -2.8200   21.5220  -32.2010 C   0  0  0  0  0  0  0  0  0  0  0  0
   -5.6270   20.4380  -33.1220 C   0  0  0  0  0  0  0  0  0  0  0  0
   -6.8670   20.9640  -32.7510 C   0  0  0  0  0  0  0  0  0  0  0  0
   -9.2002   21.7274  -30.0962 H   0  0  0  0  0  0  0  0  0  0  0  0
   -8.3819   22.5928  -31.4408 H   0  0  0  0  0  0  0  0  0  0  0  0
  -10.1698   22.4191  -31.4408 H   0  0  0  0  0  0  0  0  0  0  0  0
   -8.4296   18.0726  -31.8049 H   0  0  0  0  0  0  0  0  0  0  0  0
   -6.2245   17.1321  -32.4813 H   0  0  0  0  0  0  0  0  0  0  0  0
   -3.6038   18.0526  -32.4204 H   0  0  0  0  0  0  0  0  0  0  0  0
   -4.1208   17.7554  -34.1323 H   0  0  0  0  0  0  0  0  0  0  0  0
   -2.3058   19.1446  -34.4881 H   0  0  0  0  0  0  0  0  0  0  0  0
   -3.6468   20.3580  -34.3624 H   0  0  0  0  0  0  0  0  0  0  0  0
   -0.9208   18.6568  -32.3896 H   0  0  0  0  0  0  0  0  0  0  0  0
    0.1513   19.7052  -30.3705 H   0  0  0  0  0  0  0  0  0  0  0  0
   -0.0400   21.9427  -28.6000 H   0  0  0  0  0  0  0  0  0  0  0  0
   -1.6450   26.4880  -28.0330 H   0  0  0  0  0  0  0  0  0  0  0  0
   -1.6110   26.0020  -29.7610 H   0  0  0  0  0  0  0  0  0  0  0  0
   -3.6518   22.0399  -32.7009 H   0  0  0  0  0  0  0  0  0  0  0  0
   -4.8361   21.1086  -33.4891 H   0  0  0  0  0  0  0  0  0  0  0  0
   -7.0485   22.0455  -32.8374 H   0  0  0  0  0  0  0  0  0  0  0  0
  1  2  1  0
  2  3  1  0
  3  4  2  0
  4  5  1  0
  5  6  2  0
  6  7  1  0
  7  8  1  0
  8  9  1  0
  9 10  2  0
 10 11  1  0
 11 12  2  0
 12 13  1  0
 13 14  2  0
 14 15  1  0
 15 16  1  0
 15 17  2  0
 14 18  1  0
 18 19  1  0
 19 20  2  0
 19 21  1  0
 18 22  1  0
 22 23  2  0
  6 24  1  0
 24 25  2  0
 25  3  1  0
 23  9  1  0
 22 12  1  0
  1 26  1  0
  1 27  1  0
  1 28  1  0
  4 29  1  0
  5 30  1  0
  7 31  1  0
  7 32  1  0
  8 33  1  0
  8 34  1  0
 10 35  1  0
 11 36  1  0
 13 37  1  0
 16 38  1  0
 16 39  1  0
 23 40  1  0
 24 41  1  0
 25 42  1  0
M  CHG  1  21  -1
M  END
>  <UniqueID>  (70) 
70

>  <SMILES>  (70) 
COc1ccc(CCc2ccc3cc(C(N)=O)n(C(=O)[O-])c3c2)cc1

>  <Energy>  (70) 
79.04597201863339

>  <Genealogy>  (70) 
COc1ccc(CCc2ccc3cc(C(N)=O)n(C(=O)[O-])c3c2)cc1 (protonated)
COc1ccc(CCc2ccc3cc(C(N)=O)n(C(=O)[O-])c3c2)cc1 (3D coordinates assigned)
COc1ccc(CCc2ccc3cc(C(N)=O)n(C(=O)[O-])c3c2)cc1 (optimized conformer: 79.04597201863339 kcal/mol)

>  <smiles>  (70) 
COc1ccc(CCc2ccc3cc(C(N)=O)n(C(=O)O)c3c2)cc1

>  <score_type>  (70) 
oracle

>  <origin>  (70) 
adg

>  <m_score__min__energy>  (70) 
-9.5600000000000005

>  <m_primary>  (70) 
energy

$$$$
70:0
     RDKit          3D

 37 39  0  0  0  0  0  0  0  0999 V2000
   -1.4610   25.7900  -28.9140 N   0  0  0  0  0  0  0  0  0  0  0  0
   -0.9180   24.4780  -29.0780 C   0  0  0  0  0  0  0  0  0  0  0  0
    0.1590   24.1820  -28.4950 O   0  0  0  0  0  0  0  0  0  0  0  0
   -1.5880   23.4870  -29.9490 C   0  0  0  0  0  0  0  0  0  0  0  0
   -0.9770   22.3240  -30.4130 C   0  0  0  0  0  0  0  0  0  0  0  0
   -1.9590   21.6420  -31.0930 C   0  0  0  0  0  0  0  0  0  0  0  0
   -1.8980   20.4270  -31.7710 C   0  0  0  0  0  0  0  0  0  0  0  0
   -3.0620   19.9700  -32.4070 C   0  0  0  0  0  0  0  0  0  0  0  0
   -4.2620   20.7240  -32.3510 C   0  0  0  0  0  0  0  0  0  0  0  0
   -5.5000   20.2320  -33.0540 C   0  0  0  0  0  0  0  0  0  0  0  0
   -6.7760   21.0330  -32.7130 C   0  0  0  0  0  0  0  0  0  0  0  0
   -7.9470   20.3250  -31.9810 C   0  0  0  0  0  0  0  0  0  0  0  0
   -8.3010   18.9290  -32.4710 C   0  0  0  0  0  0  0  0  0  0  0  0
   -9.6810   19.3040  -32.7880 N   0  0  0  0  0  0  0  0  0  0  0  0
   -9.3830   20.6700  -32.3510 C   0  0  0  0  0  0  0  0  0  0  0  0
   -4.2780   21.9630  -31.6730 C   0  0  0  0  0  0  0  0  0  0  0  0
   -3.1070   22.3860  -31.0300 C   0  0  0  0  0  0  0  0  0  0  0  0
   -2.8970   23.5240  -30.3300 N   0  0  0  0  0  0  0  0  0  0  0  0
   -3.8440   24.5820  -30.1040 C   0  0  0  0  0  0  0  0  0  0  0  0
   -3.8490   25.6010  -30.8440 O   0  0  0  0  0  0  0  0  0  0  0  0
   -4.7520   24.5000  -29.0560 O   0  0  0  0  0  0  0  0  0  0  0  0
   -0.9590   26.4940  -28.3290 H   0  0  0  0  0  0  0  0  0  0  0  0
   -2.3770   26.0540  -29.3370 H   0  0  0  0  0  0  0  0  0  0  0  0
    0.0689   22.0164  -30.2666 H   0  0  0  0  0  0  0  0  0  0  0  0
   -0.9660   19.8437  -31.8067 H   0  0  0  0  0  0  0  0  0  0  0  0
   -3.0438   19.0165  -32.9551 H   0  0  0  0  0  0  0  0  0  0  0  0
   -5.3305   20.2967  -34.1389 H   0  0  0  0  0  0  0  0  0  0  0  0
   -5.6711   19.2003  -32.7129 H   0  0  0  0  0  0  0  0  0  0  0  0
   -6.4650   21.8764  -32.0791 H   0  0  0  0  0  0  0  0  0  0  0  0
   -7.1978   21.2807  -33.6982 H   0  0  0  0  0  0  0  0  0  0  0  0
   -7.5417   20.5509  -30.9836 H   0  0  0  0  0  0  0  0  0  0  0  0
   -7.7206   18.6148  -33.3510 H   0  0  0  0  0  0  0  0  0  0  0  0
   -8.1258   18.0735  -31.8021 H   0  0  0  0  0  0  0  0  0  0  0  0
   -9.8000   19.2990  -33.8280 H   0  0  0  0  0  0  0  0  0  0  0  0
   -9.4598   21.4135  -33.1580 H   0  0  0  0  0  0  0  0  0  0  0  0
  -10.0282   21.1353  -31.5912 H   0  0  0  0  0  0  0  0  0  0  0  0
   -5.1877   22.5809  -31.6503 H   0  0  0  0  0  0  0  0  0  0  0  0
  1  2  1  0
  2  3  2  0
  2  4  1  0
  4  5  2  0
  5  6  1  0
  6  7  2  0
  7  8  1  0
  8  9  2  0
  9 10  1  0
 10 11  1  0
 11 12  1  0
 12 13  1  0
 13 14  1  0
 14 15  1  0
  9 16  1  0
 16 17  2  0
 17 18  1  0
 18 19  1  0
 19 20  2  0
 19 21  1  0
 18  4  1  0
 17  6  1  0
 15 12  1  0
  1 22  1  0
  1 23  1  0
  5 24  1  0
  7 25  1  0
  8 26  1  0
 10 27  1  0
 10 28  1  0
 11 29  1  0
 11 30  1  0
 12 31  1  0
 13 32  1  0
 13 33  1  0
 14 34  1  0
 15 35  1  0
 15 36  1  0
 16 37  1  0
M  CHG  1  21  -1
M  END
>  <UniqueID>  (71) 
71

>  <SMILES>  (71) 
NC(=O)c1cc2ccc(CCC3CNC3)cc2n1C(=O)[O-]

>  <Energy>  (71) 
146.78412729246446

>  <Genealogy>  (71) 
NC(=O)c1cc2ccc(CCC3CNC3)cc2n1C(=O)[O-] (protonated)
NC(=O)c1cc2ccc(CCC3CNC3)cc2n1C(=O)[O-] (3D coordinates assigned)
NC(=O)c1cc2ccc(CCC3CNC3)cc2n1C(=O)[O-] (nonaromatic ring conformer: 146.78412729246446 kcal/mol)

>  <smiles>  (71) 
NC(=O)c1cc2ccc(CCC3CNC3)cc2n1C(=O)O

>  <score_type>  (71) 
oracle

>  <origin>  (71) 
adg

>  <m_score__min__energy>  (71) 
-9.4399999999999995

>  <m_primary>  (71) 
energy

$$$$
71:0
     RDKit          3D

 39 40  0  0  0  0  0  0  0  0999 V2000
   -1.5600   19.0020  -33.3240 C   0  0  0  0  0  0  0  0  0  0  0  0
   -1.9120   20.3830  -32.9840 N   0  0  0  0  0  0  0  0  0  0  0  0
   -0.9360   21.2710  -32.3460 C   0  0  0  0  0  0  0  0  0  0  0  0
   -3.2270   20.8820  -33.2810 C   0  0  0  0  0  0  0  0  0  0  0  0
   -4.0710   20.1320  -33.8450 O   0  0  0  0  0  0  0  0  0  0  0  0
   -3.5580   22.2010  -32.9380 O   0  0  0  0  0  0  0  0  0  0  0  0
   -3.9680   22.6280  -31.6680 C   0  0  0  0  0  0  0  0  0  0  0  0
   -3.1400   22.7320  -30.7230 O   0  0  0  0  0  0  0  0  0  0  0  0
   -5.3470   22.9680  -31.4490 N   0  0  0  0  0  0  0  0  0  0  0  0
   -5.8420   24.1150  -30.9040 C   0  0  0  0  0  0  0  0  0  0  0  0
   -5.0670   25.3330  -30.5900 C   0  0  0  0  0  0  0  0  0  0  0  0
   -3.6480   25.2860  -30.4660 N   0  0  0  0  0  0  0  0  0  0  0  0
   -5.6600   26.4390  -30.4800 O   0  0  0  0  0  0  0  0  0  0  0  0
   -7.2230   24.0250  -30.7460 C   0  0  0  0  0  0  0  0  0  0  0  0
   -7.5640   22.7790  -31.2220 C   0  0  0  0  0  0  0  0  0  0  0  0
   -8.8070   22.1560  -31.2860 C   0  0  0  0  0  0  0  0  0  0  0  0
   -8.8620   20.8470  -31.7930 C   0  0  0  0  0  0  0  0  0  0  0  0
   -7.6820   20.1890  -32.2230 C   0  0  0  0  0  0  0  0  0  0  0  0
   -7.7470   18.7710  -32.7160 C   0  0  0  0  0  0  0  0  0  0  0  0
   -6.4610   18.3980  -33.3850 C   0  0  0  0  0  0  0  0  0  0  0  0
   -6.1250   18.9450  -34.6600 N   0  0  0  0  0  0  0  0  0  0  0  0
   -5.6510   17.6270  -32.8020 O   0  0  0  0  0  0  0  0  0  0  0  0
   -6.4360   20.8500  -32.1320 C   0  0  0  0  0  0  0  0  0  0  0  0
   -6.4140   22.1610  -31.6410 C   0  0  0  0  0  0  0  0  0  0  0  0
   -1.4125   18.4232  -32.4003 H   0  0  0  0  0  0  0  0  0  0  0  0
   -2.3719   18.5512  -33.9135 H   0  0  0  0  0  0  0  0  0  0  0  0
   -0.6313   18.9948  -33.9135 H   0  0  0  0  0  0  0  0  0  0  0  0
   -1.0258   21.1893  -31.2527 H   0  0  0  0  0  0  0  0  0  0  0  0
    0.0796   20.9807  -32.6532 H   0  0  0  0  0  0  0  0  0  0  0  0
   -1.1293   22.3094  -32.6532 H   0  0  0  0  0  0  0  0  0  0  0  0
   -3.0580   24.8430  -31.2040 H   0  0  0  0  0  0  0  0  0  0  0  0
   -7.8977   24.7874  -30.3295 H   0  0  0  0  0  0  0  0  0  0  0  0
   -9.7181   22.6726  -30.9500 H   0  0  0  0  0  0  0  0  0  0  0  0
   -9.8296   20.3277  -31.8570 H   0  0  0  0  0  0  0  0  0  0  0  0
   -7.9223   18.0976  -31.8641 H   0  0  0  0  0  0  0  0  0  0  0  0
   -8.5690   18.6800  -33.4413 H   0  0  0  0  0  0  0  0  0  0  0  0
   -5.2180   18.6970  -35.1170 H   0  0  0  0  0  0  0  0  0  0  0  0
   -6.7750   19.5990  -35.1470 H   0  0  0  0  0  0  0  0  0  0  0  0
   -5.5071   20.3472  -32.4392 H   0  0  0  0  0  0  0  0  0  0  0  0
  1  2  1  0
  2  3  1  0
  2  4  1  0
  4  5  2  0
  4  6  1  0
  6  7  1  0
  7  8  2  0
  7  9  1  0
  9 10  1  0
 10 11  1  0
 11 12  1  0
 11 13  2  0
 10 14  2  0
 14 15  1  0
 15 16  2  0
 16 17  1  0
 17 18  2  0
 18 19  1  0
 19 20  1  0
 20 21  1  0
 20 22  2  0
 18 23  1  0
 23 24  2  0
 24  9  1  0
 24 15  1  0
  1 25  1  0
  1 26  1  0
  1 27  1  0
  3 28  1  0
  3 29  1  0
  3 30  1  0
 12 31  1  0
 14 32  1  0
 16 33  1  0
 17 34  1  0
 19 35  1  0
 19 36  1  0
 21 37  1  0
 21 38  1  0
 23 39  1  0
M  CHG  1  12  -1
M  END
>  <UniqueID>  (72) 
72

>  <SMILES>  (72) 
CN(C)C(=O)OC(=O)n1c(C([NH-])=O)cc2ccc(CC(N)=O)cc21

>  <Energy>  (72) 
71.8390993442805

>  <Genealogy>  (72) 
CN(C)C(=O)OC(=O)n1c(C([NH-])=O)cc2ccc(CC(N)=O)cc21 (protonated)
CN(C)C(=O)OC(=O)n1c(C([NH-])=O)cc2ccc(CC(N)=O)cc21 (3D coordinates assigned)
CN(C)C(=O)OC(=O)n1c(C([NH-])=O)cc2ccc(CC(N)=O)cc21 (optimized conformer: 71.8390993442805 kcal/mol)

>  <smiles>  (72) 
CN(C)C(=O)OC(=O)n1c(C(N)=O)cc2ccc(CC(N)=O)cc21

>  <score_type>  (72) 
oracle

>  <origin>  (72) 
adg

>  <m_score__min__energy>  (72) 
-10.08

>  <m_primary>  (72) 
energy

$$$$
72:0
     RDKit          3D

 40 42  0  0  0  0  0  0  0  0999 V2000
   -8.3900   23.0170  -32.0480 C   0  0  0  0  0  0  0  0  0  0  0  0
   -8.0180   21.5620  -32.1320 C   0  0  0  0  0  0  0  0  0  0  0  0
   -9.0030   20.5710  -31.9890 C   0  0  0  0  0  0  0  0  0  0  0  0
  -10.2930   20.9100  -31.7370 F   0  0  0  0  0  0  0  0  0  0  0  0
   -8.6640   19.2210  -32.1020 C   0  0  0  0  0  0  0  0  0  0  0  0
   -9.6160   18.2700  -31.9400 F   0  0  0  0  0  0  0  0  0  0  0  0
   -7.3460   18.8450  -32.3790 C   0  0  0  0  0  0  0  0  0  0  0  0
   -7.0430   17.5240  -32.4370 F   0  0  0  0  0  0  0  0  0  0  0  0
   -6.3520   19.8250  -32.5590 C   0  0  0  0  0  0  0  0  0  0  0  0
   -4.9580   19.4520  -32.8960 C   0  0  0  0  0  0  0  0  0  0  0  0
   -4.5500   18.2910  -32.6240 O   0  0  0  0  0  0  0  0  0  0  0  0
   -3.9960   20.4320  -33.5150 C   0  0  0  0  0  0  0  0  0  0  0  0
   -3.0370   20.9660  -32.4830 C   0  0  0  0  0  0  0  0  0  0  0  0
   -1.7670   20.3610  -32.3040 C   0  0  0  0  0  0  0  0  0  0  0  0
   -0.8480   20.8880  -31.3800 C   0  0  0  0  0  0  0  0  0  0  0  0
   -1.2270   22.0110  -30.6510 C   0  0  0  0  0  0  0  0  0  0  0  0
   -0.5230   22.7370  -29.7190 C   0  0  0  0  0  0  0  0  0  0  0  0
   -1.3800   23.7630  -29.3260 C   0  0  0  0  0  0  0  0  0  0  0  0
   -1.0610   24.7400  -28.2600 C   0  0  0  0  0  0  0  0  0  0  0  0
   -2.0980   25.4820  -27.6170 N   0  0  0  0  0  0  0  0  0  0  0  0
    0.1370   24.9490  -27.9330 O   0  0  0  0  0  0  0  0  0  0  0  0
   -2.5670   23.6770  -29.9910 N   0  0  0  0  0  0  0  0  0  0  0  0
   -3.6770   24.5880  -29.9200 C   0  0  0  0  0  0  0  0  0  0  0  0
   -3.8560   25.4460  -30.8230 O   0  0  0  0  0  0  0  0  0  0  0  0
   -4.5540   24.5430  -28.8430 O   0  0  0  0  0  0  0  0  0  0  0  0
   -2.4580   22.5970  -30.7980 C   0  0  0  0  0  0  0  0  0  0  0  0
   -3.3870   22.1040  -31.7220 C   0  0  0  0  0  0  0  0  0  0  0  0
   -6.6970   21.1850  -32.4320 C   0  0  0  0  0  0  0  0  0  0  0  0
   -5.7530   22.1430  -32.6350 F   0  0  0  0  0  0  0  0  0  0  0  0
   -8.4663   23.3156  -30.9921 H   0  0  0  0  0  0  0  0  0  0  0  0
   -7.6177   23.6222  -32.5453 H   0  0  0  0  0  0  0  0  0  0  0  0
   -9.3580   23.1773  -32.5453 H   0  0  0  0  0  0  0  0  0  0  0  0
   -3.4266   19.9259  -34.3085 H   0  0  0  0  0  0  0  0  0  0  0  0
   -4.5694   21.2732  -33.9316 H   0  0  0  0  0  0  0  0  0  0  0  0
   -1.4987   19.4717  -32.8932 H   0  0  0  0  0  0  0  0  0  0  0  0
    0.1404   20.4268  -31.2376 H   0  0  0  0  0  0  0  0  0  0  0  0
    0.4994   22.5479  -29.3600 H   0  0  0  0  0  0  0  0  0  0  0  0
   -1.8580   26.1970  -26.8940 H   0  0  0  0  0  0  0  0  0  0  0  0
   -3.1040   25.2990  -27.8230 H   0  0  0  0  0  0  0  0  0  0  0  0
   -4.3650   22.5904  -31.8524 H   0  0  0  0  0  0  0  0  0  0  0  0
  1  2  1  0
  2  3  2  0
  3  4  1  0
  3  5  1  0
  5  6  1  0
  5  7  2  0
  7  8  1  0
  7  9  1  0
  9 10  1  0
 10 11  2  0
 10 12  1  0
 12 13  1  0
 13 14  2  0
 14 15  1  0
 15 16  2  0
 16 17  1  0
 17 18  2  0
 18 19  1  0
 19 20  1  0
 19 21  2  0
 18 22  1  0
 22 23  1  0
 23 24  2  0
 23 25  1  0
 22 26  1  0
 26 27  2  0
  9 28  2  0
 28 29  1  0
 28  2  1  0
 27 13  1  0
 26 16  1  0
  1 30  1  0
  1 31  1  0
  1 32  1  0
 12 33  1  0
 12 34  1  0
 14 35  1  0
 15 36  1  0
 17 37  1  0
 20 38  1  0
 20 39  1  0
 27 40  1  0
M  CHG  1  25  -1
M  END
>  <UniqueID>  (73) 
73

>  <SMILES>  (73) 
Cc1c(F)c(F)c(F)c(C(=O)Cc2ccc3cc(C(N)=O)n(C(=O)[O-])c3c2)c1F

>  <Energy>  (73) 
86.05324977498405

>  <Genealogy>  (73) 
Cc1c(F)c(F)c(F)c(C(=O)Cc2ccc3cc(C(N)=O)n(C(=O)[O-])c3c2)c1F (protonated)
Cc1c(F)c(F)c(F)c(C(=O)Cc2ccc3cc(C(N)=O)n(C(=O)[O-])c3c2)c1F (3D coordinates assigned)
Cc1c(F)c(F)c(F)c(C(=O)Cc2ccc3cc(C(N)=O)n(C(=O)[O-])c3c2)c1F (optimized conformer: 86.05324977498405 kcal/mol)

>  <smiles>  (73) 
Cc1c(F)c(F)c(F)c(C(=O)Cc2ccc3cc(C(N)=O)n(C(=O)O)c3c2)c1F

>  <score_type>  (73) 
oracle

>  <origin>  (73) 
adg

>  <m_score__min__energy>  (73) 
-10

>  <m_primary>  (73) 
energy

$$$$
73:0
     RDKit          3D

 60 62  0  0  0  0  0  0  0  0999 V2000
   -2.0890   20.5130  -28.9510 C   0  0  0  0  0  0  0  0  0  0  0  0
   -1.2050   20.0260  -27.7880 C   0  0  0  0  0  0  0  0  0  0  0  0
   -0.8070   21.2380  -26.9280 C   0  0  0  0  0  0  0  0  0  0  0  0
   -1.9990   19.0280  -26.9280 C   0  0  0  0  0  0  0  0  0  0  0  0
    0.3620   19.1620  -28.4570 Si  0  0  0  0  0  4  0  0  0  0  0  0
    1.9120   20.0640  -27.9160 C   0  0  0  0  0  0  0  0  0  0  0  0
    0.4910   17.4370  -27.7460 C   0  0  0  0  0  0  0  0  0  0  0  0
    0.2630   18.9570  -30.1850 O   0  0  0  0  0  0  0  0  0  0  0  0
    0.7010   20.0980  -30.8920 C   0  0  0  0  0  0  0  0  0  0  0  0
   -0.0220   20.2460  -32.2120 C   0  0  0  0  0  0  0  0  0  0  0  0
    0.5770   20.9760  -33.2460 C   0  0  0  0  0  0  0  0  0  0  0  0
   -0.0790   21.1400  -34.4600 C   0  0  0  0  0  0  0  0  0  0  0  0
   -1.3440   20.5840  -34.6360 C   0  0  0  0  0  0  0  0  0  0  0  0
   -1.9480   19.8840  -33.6270 N   0  0  0  0  0  0  0  0  0  0  0  0
   -3.3010   19.3440  -33.8460 C   0  0  0  0  0  0  0  0  0  0  0  0
   -4.3320   20.2480  -33.2230 C   0  0  0  0  0  0  0  0  0  0  0  0
   -5.7090   20.0180  -33.4670 C   0  0  0  0  0  0  0  0  0  0  0  0
   -6.6840   20.8690  -32.9200 C   0  0  0  0  0  0  0  0  0  0  0  0
   -6.2530   21.9310  -32.1290 C   0  0  0  0  0  0  0  0  0  0  0  0
   -6.9810   22.9130  -31.4960 C   0  0  0  0  0  0  0  0  0  0  0  0
   -6.0400   23.7110  -30.8520 C   0  0  0  0  0  0  0  0  0  0  0  0
   -6.3990   24.8470  -29.9800 C   0  0  0  0  0  0  0  0  0  0  0  0
   -5.5150   25.3030  -28.9560 N   0  0  0  0  0  0  0  0  0  0  0  0
   -7.5330   25.3840  -30.0990 O   0  0  0  0  0  0  0  0  0  0  0  0
   -4.7780   23.2550  -31.0870 N   0  0  0  0  0  0  0  0  0  0  0  0
   -3.5400   23.8740  -30.6990 C   0  0  0  0  0  0  0  0  0  0  0  0
   -3.4790   25.1170  -30.5050 O   0  0  0  0  0  0  0  0  0  0  0  0
   -2.3950   23.1040  -30.5270 O   0  0  0  0  0  0  0  0  0  0  0  0
   -4.9260   22.1590  -31.8690 C   0  0  0  0  0  0  0  0  0  0  0  0
   -3.9320   21.3410  -32.4220 C   0  0  0  0  0  0  0  0  0  0  0  0
   -1.3160   19.7220  -32.4160 C   0  0  0  0  0  0  0  0  0  0  0  0
   -1.8940   19.1060  -31.4770 O   0  0  0  0  0  0  0  0  0  0  0  0
   -2.9855   21.0069  -28.5482 H   0  0  0  0  0  0  0  0  0  0  0  0
   -1.5231   21.2267  -29.5678 H   0  0  0  0  0  0  0  0  0  0  0  0
   -2.3898   19.6533  -29.5678 H   0  0  0  0  0  0  0  0  0  0  0  0
   -0.8930   20.9761  -25.8631 H   0  0  0  0  0  0  0  0  0  0  0  0
    0.2316   21.5220  -27.1530 H   0  0  0  0  0  0  0  0  0  0  0  0
   -1.4750   22.0825  -27.1530 H   0  0  0  0  0  0  0  0  0  0  0  0
   -1.8273   19.2439  -25.8631 H   0  0  0  0  0  0  0  0  0  0  0  0
   -3.0716   19.1224  -27.1529 H   0  0  0  0  0  0  0  0  0  0  0  0
   -1.6659   18.0041  -27.1529 H   0  0  0  0  0  0  0  0  0  0  0  0
    1.9565   20.0899  -26.8172 H   0  0  0  0  0  0  0  0  0  0  0  0
    2.7966   19.5396  -28.3065 H   0  0  0  0  0  0  0  0  0  0  0  0
    1.8931   21.0922  -28.3065 H   0  0  0  0  0  0  0  0  0  0  0  0
    0.4869   17.4920  -26.6474 H   0  0  0  0  0  0  0  0  0  0  0  0
   -0.3647   16.8352  -28.0862 H   0  0  0  0  0  0  0  0  0  0  0  0
    1.4266   16.9692  -28.0862 H   0  0  0  0  0  0  0  0  0  0  0  0
    0.5123   20.9919  -30.2793 H   0  0  0  0  0  0  0  0  0  0  0  0
    1.7753   19.9834  -31.0989 H   0  0  0  0  0  0  0  0  0  0  0  0
    1.5715   21.4217  -33.0966 H   0  0  0  0  0  0  0  0  0  0  0  0
    0.3969   21.7044  -35.2755 H   0  0  0  0  0  0  0  0  0  0  0  0
   -1.8636   20.7091  -35.5974 H   0  0  0  0  0  0  0  0  0  0  0  0
   -3.4908   19.2680  -34.9268 H   0  0  0  0  0  0  0  0  0  0  0  0
   -3.3690   18.3497  -33.3805 H   0  0  0  0  0  0  0  0  0  0  0  0
   -6.0172   19.1656  -34.0902 H   0  0  0  0  0  0  0  0  0  0  0  0
   -7.7544   20.7016  -33.1106 H   0  0  0  0  0  0  0  0  0  0  0  0
   -8.0736   23.0399  -31.4986 H   0  0  0  0  0  0  0  0  0  0  0  0
   -5.7670   26.1350  -28.3780 H   0  0  0  0  0  0  0  0  0  0  0  0
   -4.6470   24.7740  -28.7170 H   0  0  0  0  0  0  0  0  0  0  0  0
   -2.8669   21.5446  -32.2372 H   0  0  0  0  0  0  0  0  0  0  0  0
  1  2  1  0
  2  3  1  0
  2  4  1  0
  2  5  1  0
  5  6  1  0
  5  7  1  0
  5  8  1  0
  8  9  1  0
  9 10  1  0
 10 11  2  0
 11 12  1  0
 12 13  2  0
 13 14  1  0
 14 15  1  0
 15 16  1  0
 16 17  2  0
 17 18  1  0
 18 19  2  0
 19 20  1  0
 20 21  2  0
 21 22  1  0
 22 23  1  0
 22 24  2  0
 21 25  1  0
 25 26  1  0
 26 27  2  0
 26 28  1  0
 25 29  1  0
 29 30  2  0
 14 31  1  0
 31 32  2  0
 31 10  1  0
 30 16  1  0
 29 19  1  0
  1 33  1  0
  1 34  1  0
  1 35  1  0
  3 36  1  0
  3 37  1  0
  3 38  1  0
  4 39  1  0
  4 40  1  0
  4 41  1  0
  6 42  1  0
  6 43  1  0
  6 44  1  0
  7 45  1  0
  7 46  1  0
  7 47  1  0
  9 48  1  0
  9 49  1  0
 11 50  1  0
 12 51  1  0
 13 52  1  0
 15 53  1  0
 15 54  1  0
 17 55  1  0
 18 56  1  0
 20 57  1  0
 23 58  1  0
 23 59  1  0
 30 60  1  0
M  CHG  1  28  -1
M  END
>  <UniqueID>  (74) 
74

>  <SMILES>  (74) 
CC(C)(C)[Si](C)(C)OCc1cccn(Cc2ccc3cc(C(N)=O)n(C(=O)[O-])c3c2)c1=O

>  <Energy>  (74) 
89.86837008098246

>  <Genealogy>  (74) 
CC(C)(C)[Si](C)(C)OCc1cccn(Cc2ccc3cc(C(N)=O)n(C(=O)[O-])c3c2)c1=O (protonated)
CC(C)(C)[Si](C)(C)OCc1cccn(Cc2ccc3cc(C(N)=O)n(C(=O)[O-])c3c2)c1=O (3D coordinates assigned)
CC(C)(C)[Si](C)(C)OCc1cccn(Cc2ccc3cc(C(N)=O)n(C(=O)[O-])c3c2)c1=O (optimized conformer: 89.86837008098246 kcal/mol)

>  <smiles>  (74) 
CC(C)(C)[Si](C)(C)OCc1cccn(Cc2ccc3cc(C(N)=O)n(C(=O)O)c3c2)c1=O

>  <score_type>  (74) 
oracle

>  <origin>  (74) 
adg

>  <m_score__min__energy>  (74) 
-10.68

>  <m_primary>  (74) 
energy

$$$$
74:0
     RDKit          3D

 54 58  0  0  0  0  0  0  0  0999 V2000
   -0.1900   14.3160  -33.7570 C   0  0  0  0  0  0  0  0  0  0  0  0
   -1.2940   14.4220  -34.6500 O   0  0  0  0  0  0  0  0  0  0  0  0
   -2.4190   15.2310  -34.4260 C   0  0  0  0  0  0  0  0  0  0  0  0
   -2.8290   16.2250  -35.3470 C   0  0  0  0  0  0  0  0  0  0  0  0
   -3.9500   17.0270  -35.0900 C   0  0  0  0  0  0  0  0  0  0  0  0
   -4.6750   16.8290  -33.9050 C   0  0  0  0  0  0  0  0  0  0  0  0
   -4.2670   15.8460  -33.0110 C   0  0  0  0  0  0  0  0  0  0  0  0
   -5.2920   15.8260  -31.6790 S   0  0  0  0  0  0  0  0  0  0  0  0
   -6.2260   17.0870  -32.2990 C   0  0  0  0  0  0  0  0  0  0  0  0
   -7.2230   17.5730  -31.7000 O   0  0  0  0  0  0  0  0  0  0  0  0
   -5.7850   17.5280  -33.5070 N   0  0  0  0  0  0  0  0  0  0  0  0
   -6.4030   18.6560  -34.2190 C   0  0  0  0  0  0  0  0  0  0  0  0
   -6.4980   19.8580  -33.3170 C   0  0  0  0  0  0  0  0  0  0  0  0
   -7.7610   20.4220  -33.0080 C   0  0  0  0  0  0  0  0  0  0  0  0
   -7.8590   21.5350  -32.1570 C   0  0  0  0  0  0  0  0  0  0  0  0
   -6.6810   22.0620  -31.6330 C   0  0  0  0  0  0  0  0  0  0  0  0
   -6.4930   23.1180  -30.7740 C   0  0  0  0  0  0  0  0  0  0  0  0
   -5.1160   23.1960  -30.5790 C   0  0  0  0  0  0  0  0  0  0  0  0
   -4.4690   24.2670  -29.7920 C   0  0  0  0  0  0  0  0  0  0  0  0
   -3.7350   25.2910  -30.4570 N   0  0  0  0  0  0  0  0  0  0  0  0
   -4.5210   24.2630  -28.5330 O   0  0  0  0  0  0  0  0  0  0  0  0
   -4.4760   22.2160  -31.2820 N   0  0  0  0  0  0  0  0  0  0  0  0
   -3.0700   21.9100  -31.2900 C   0  0  0  0  0  0  0  0  0  0  0  0
   -2.3570   22.2410  -32.2750 O   0  0  0  0  0  0  0  0  0  0  0  0
   -2.4920   21.2680  -30.1910 O   0  0  0  0  0  0  0  0  0  0  0  0
   -1.1120   21.3880  -29.8660 C   0  0  0  0  0  0  0  0  0  0  0  0
   -0.8270   22.7340  -29.2730 C   0  0  0  0  0  0  0  0  0  0  0  0
   -1.3930   23.8470  -29.6780 O   0  0  0  0  0  0  0  0  0  0  0  0
   -0.8600   24.8080  -28.9590 C   0  0  0  0  0  0  0  0  0  0  0  0
   -1.1740   26.0210  -29.0740 O   0  0  0  0  0  0  0  0  0  0  0  0
    0.0320   24.3640  -28.1060 O   0  0  0  0  0  0  0  0  0  0  0  0
    0.0850   23.0650  -28.2820 C   0  0  0  0  0  0  0  0  0  0  0  0
    0.9730   22.1450  -27.5090 C   0  0  0  0  0  0  0  0  0  0  0  0
   -5.4510   21.5360  -31.9280 C   0  0  0  0  0  0  0  0  0  0  0  0
   -5.3260   20.4190  -32.7620 C   0  0  0  0  0  0  0  0  0  0  0  0
   -3.1530   15.0410  -33.2440 C   0  0  0  0  0  0  0  0  0  0  0  0
   -2.7830   14.0970  -32.3440 F   0  0  0  0  0  0  0  0  0  0  0  0
   -0.5531   14.3509  -32.7193 H   0  0  0  0  0  0  0  0  0  0  0  0
    0.3322   13.3636  -33.9309 H   0  0  0  0  0  0  0  0  0  0  0  0
    0.5038   15.1517  -33.9309 H   0  0  0  0  0  0  0  0  0  0  0  0
   -2.2601   16.3701  -36.2772 H   0  0  0  0  0  0  0  0  0  0  0  0
   -4.2572   17.8015  -35.8081 H   0  0  0  0  0  0  0  0  0  0  0  0
   -5.7909   18.9094  -35.0971 H   0  0  0  0  0  0  0  0  0  0  0  0
   -7.4160   18.3663  -34.5350 H   0  0  0  0  0  0  0  0  0  0  0  0
   -8.6733   19.9838  -33.4389 H   0  0  0  0  0  0  0  0  0  0  0  0
   -8.8360   21.9769  -31.9119 H   0  0  0  0  0  0  0  0  0  0  0  0
   -7.2662   23.7647  -30.3336 H   0  0  0  0  0  0  0  0  0  0  0  0
   -2.6910   25.2950  -30.4500 H   0  0  0  0  0  0  0  0  0  0  0  0
   -0.8423   20.6078  -29.1390 H   0  0  0  0  0  0  0  0  0  0  0  0
   -0.5189   21.2717  -30.7851 H   0  0  0  0  0  0  0  0  0  0  0  0
    0.8183   22.3053  -26.4318 H   0  0  0  0  0  0  0  0  0  0  0  0
    0.7310   21.1025  -27.7631 H   0  0  0  0  0  0  0  0  0  0  0  0
    2.0235   22.3500  -27.7631 H   0  0  0  0  0  0  0  0  0  0  0  0
   -4.3379   19.9877  -32.9804 H   0  0  0  0  0  0  0  0  0  0  0  0
  1  2  1  0
  2  3  1  0
  3  4  2  0
  4  5  1  0
  5  6  2  0
  6  7  1  0
  7  8  1  0
  8  9  1  0
  9 10  2  0
  9 11  1  0
 11 12  1  0
 12 13  1  0
 13 14  2  0
 14 15  1  0
 15 16  2  0
 16 17  1  0
 17 18  2  0
 18 19  1  0
 19 20  1  0
 19 21  2  0
 18 22  1  0
 22 23  1  0
 23 24  2  0
 23 25  1  0
 25 26  1  0
 26 27  1  0
 27 28  1  0
 28 29  1  0
 29 30  2  0
 29 31  1  0
 31 32  1  0
 32 33  1  0
 22 34  1  0
 34 35  2  0
  7 36  2  0
 36 37  1  0
 36  3  1  0
 11  6  1  0
 35 13  1  0
 34 16  1  0
 32 27  2  0
  1 38  1  0
  1 39  1  0
  1 40  1  0
  4 41  1  0
  5 42  1  0
 12 43  1  0
 12 44  1  0
 14 45  1  0
 15 46  1  0
 17 47  1  0
 20 48  1  0
 26 49  1  0
 26 50  1  0
 33 51  1  0
 33 52  1  0
 33 53  1  0
 35 54  1  0
M  CHG  1  20  -1
M  END
>  <UniqueID>  (75) 
75

>  <SMILES>  (75) 
COc1ccc2c(sc(=O)n2Cc2ccc3cc(C([NH-])=O)n(C(=O)OCc4oc(=O)oc4C)c3c2)c1F

>  <Energy>  (75) 
160.7001608686367

>  <Genealogy>  (75) 
COc1ccc2c(sc(=O)n2Cc2ccc3cc(C([NH-])=O)n(C(=O)OCc4oc(=O)oc4C)c3c2)c1F (protonated)
COc1ccc2c(sc(=O)n2Cc2ccc3cc(C([NH-])=O)n(C(=O)OCc4oc(=O)oc4C)c3c2)c1F (3D coordinates assigned)
COc1ccc2c(sc(=O)n2Cc2ccc3cc(C([NH-])=O)n(C(=O)OCc4oc(=O)oc4C)c3c2)c1F (optimized conformer: 160.7001608686367 kcal/mol)

>  <smiles>  (75) 
COc1ccc2c(sc(=O)n2Cc2ccc3cc(C(N)=O)n(C(=O)OCc4oc(=O)oc4C)c3c2)c1F

>  <score_type>  (75) 
oracle

>  <origin>  (75) 
adg

>  <m_score__min__energy>  (75) 
-12

>  <m_primary>  (75) 
energy

$$$$
75:0
     RDKit          3D

 33 34  0  0  0  0  0  0  0  0999 V2000
   -3.4530   21.7720  -33.3970 C   0  0  0  0  0  0  0  0  0  0  0  0
   -3.2410   21.6760  -32.0860 C   0  0  0  0  0  0  0  0  0  0  0  0
   -3.8540   22.5990  -31.1130 C   0  0  0  0  0  0  0  0  0  0  0  0
   -3.1560   23.1220  -30.2020 O   0  0  0  0  0  0  0  0  0  0  0  0
   -5.2530   22.9110  -31.2000 N   0  0  0  0  0  0  0  0  0  0  0  0
   -5.8710   24.0730  -30.8500 C   0  0  0  0  0  0  0  0  0  0  0  0
   -5.1980   25.3210  -30.4280 C   0  0  0  0  0  0  0  0  0  0  0  0
   -3.8660   25.6150  -30.8430 N   0  0  0  0  0  0  0  0  0  0  0  0
   -5.8190   26.1550  -29.7160 O   0  0  0  0  0  0  0  0  0  0  0  0
   -7.2520   23.9550  -30.9980 C   0  0  0  0  0  0  0  0  0  0  0  0
   -7.4620   22.6740  -31.4540 C   0  0  0  0  0  0  0  0  0  0  0  0
   -8.6510   22.0100  -31.7460 C   0  0  0  0  0  0  0  0  0  0  0  0
   -8.5710   20.6700  -32.1590 C   0  0  0  0  0  0  0  0  0  0  0  0
   -7.3170   20.0210  -32.2710 C   0  0  0  0  0  0  0  0  0  0  0  0
   -7.2500   18.5690  -32.6660 C   0  0  0  0  0  0  0  0  0  0  0  0
   -5.8030   18.0900  -32.8340 C   0  0  0  0  0  0  0  0  0  0  0  0
   -5.2280   18.5160  -34.1500 C   0  0  0  0  0  0  0  0  0  0  0  0
   -4.0160   18.8490  -34.2340 O   0  0  0  0  0  0  0  0  0  0  0  0
   -6.0180   18.5030  -35.2920 O   0  0  0  0  0  0  0  0  0  0  0  0
   -6.1320   20.7250  -31.9570 C   0  0  0  0  0  0  0  0  0  0  0  0
   -6.2400   22.0640  -31.5650 C   0  0  0  0  0  0  0  0  0  0  0  0
   -2.9737   21.0602  -34.0852 H   0  0  0  0  0  0  0  0  0  0  0  0
   -4.1074   22.5631  -33.7918 H   0  0  0  0  0  0  0  0  0  0  0  0
   -2.5828   20.8769  -31.7142 H   0  0  0  0  0  0  0  0  0  0  0  0
   -3.0460   25.2980  -30.2800 H   0  0  0  0  0  0  0  0  0  0  0  0
   -8.0125   24.7230  -30.7936 H   0  0  0  0  0  0  0  0  0  0  0  0
   -9.6220   22.5190  -31.6560 H   0  0  0  0  0  0  0  0  0  0  0  0
   -9.4922   20.1185  -32.3981 H   0  0  0  0  0  0  0  0  0  0  0  0
   -7.7365   17.9651  -31.8859 H   0  0  0  0  0  0  0  0  0  0  0  0
   -7.7623   18.4539  -33.6326 H   0  0  0  0  0  0  0  0  0  0  0  0
   -5.1910   18.5131  -32.0238 H   0  0  0  0  0  0  0  0  0  0  0  0
   -5.7992   16.9906  -32.7977 H   0  0  0  0  0  0  0  0  0  0  0  0
   -5.1502   20.2329  -32.0192 H   0  0  0  0  0  0  0  0  0  0  0  0
  1  2  2  0
  2  3  1  0
  3  4  2  0
  3  5  1  0
  5  6  1  0
  6  7  1  0
  7  8  1  0
  7  9  2  0
  6 10  2  0
 10 11  1  0
 11 12  2  0
 12 13  1  0
 13 14  2  0
 14 15  1  0
 15 16  1  0
 16 17  1  0
 17 18  2  0
 17 19  1  0
 14 20  1  0
 20 21  2  0
 21  5  1  0
 21 11  1  0
  1 22  1  0
  1 23  1  0
  2 24  1  0
  8 25  1  0
 10 26  1  0
 12 27  1  0
 13 28  1  0
 15 29  1  0
 15 30  1  0
 16 31  1  0
 16 32  1  0
 20 33  1  0
M  CHG  2   8  -1  19  -1
M  END
>  <UniqueID>  (76) 
76

>  <SMILES>  (76) 
C=CC(=O)n1c(C([NH-])=O)cc2ccc(CCC(=O)[O-])cc21

>  <Energy>  (76) 
68.04421505612757

>  <Genealogy>  (76) 
C=CC(=O)n1c(C([NH-])=O)cc2ccc(CCC(=O)[O-])cc21 (protonated)
C=CC(=O)n1c(C([NH-])=O)cc2ccc(CCC(=O)[O-])cc21 (3D coordinates assigned)
C=CC(=O)n1c(C([NH-])=O)cc2ccc(CCC(=O)[O-])cc21 (optimized conformer: 68.04421505612757 kcal/mol)

>  <smiles>  (76) 
C=CC(=O)n1c(C(N)=O)cc2ccc(CCC(=O)O)cc21

>  <score_type>  (76) 
oracle

>  <origin>  (76) 
adg

>  <m_score__min__energy>  (76) 
-10.380000000000001

>  <m_primary>  (76) 
energy

$$$$
76:0
     RDKit          3D

 39 41  0  0  0  0  0  0  0  0999 V2000
   -0.9170   23.3150  -29.1770 C   0  0  0  0  0  0  0  0  0  0  0  0
   -2.2350   23.4290  -28.4860 C   0  0  0  0  0  0  0  0  0  0  0  0
   -2.6240   24.4690  -27.7850 O   0  0  0  0  0  0  0  0  0  0  0  0
   -3.8280   24.1780  -27.3470 C   0  0  0  0  0  0  0  0  0  0  0  0
   -4.5170   24.9530  -26.6340 O   0  0  0  0  0  0  0  0  0  0  0  0
   -4.2350   22.9920  -27.7360 O   0  0  0  0  0  0  0  0  0  0  0  0
   -3.2550   22.4930  -28.4540 C   0  0  0  0  0  0  0  0  0  0  0  0
   -3.2830   21.1410  -29.1000 C   0  0  0  0  0  0  0  0  0  0  0  0
   -3.6250   21.2610  -30.4770 O   0  0  0  0  0  0  0  0  0  0  0  0
   -3.9880   22.4750  -31.0750 C   0  0  0  0  0  0  0  0  0  0  0  0
   -3.1120   23.2090  -31.6080 O   0  0  0  0  0  0  0  0  0  0  0  0
   -5.3670   22.8710  -31.1040 N   0  0  0  0  0  0  0  0  0  0  0  0
   -5.8980   24.0700  -30.7310 C   0  0  0  0  0  0  0  0  0  0  0  0
   -5.1340   25.2850  -30.3800 C   0  0  0  0  0  0  0  0  0  0  0  0
   -3.7100   25.2700  -30.3350 N   0  0  0  0  0  0  0  0  0  0  0  0
   -5.7470   26.3640  -30.1610 O   0  0  0  0  0  0  0  0  0  0  0  0
   -7.2890   24.0300  -30.8030 C   0  0  0  0  0  0  0  0  0  0  0  0
   -7.5970   22.7620  -31.2380 C   0  0  0  0  0  0  0  0  0  0  0  0
   -8.8350   22.1730  -31.4780 C   0  0  0  0  0  0  0  0  0  0  0  0
   -8.8570   20.8330  -31.8960 C   0  0  0  0  0  0  0  0  0  0  0  0
   -7.6500   20.1040  -32.0500 C   0  0  0  0  0  0  0  0  0  0  0  0
   -7.6860   18.6760  -32.5160 C   0  0  0  0  0  0  0  0  0  0  0  0
   -6.3570   18.0290  -32.2880 C   0  0  0  0  0  0  0  0  0  0  0  0
   -6.1170   17.4450  -31.1980 O   0  0  0  0  0  0  0  0  0  0  0  0
   -5.4010   18.0310  -33.2940 O   0  0  0  0  0  0  0  0  0  0  0  0
   -6.4120   20.7390  -31.8090 C   0  0  0  0  0  0  0  0  0  0  0  0
   -6.4190   22.0810  -31.4120 C   0  0  0  0  0  0  0  0  0  0  0  0
   -0.1148   23.2456  -28.4275 H   0  0  0  0  0  0  0  0  0  0  0  0
   -0.9098   22.4129  -29.8064 H   0  0  0  0  0  0  0  0  0  0  0  0
   -0.7550   24.2025  -29.8064 H   0  0  0  0  0  0  0  0  0  0  0  0
   -2.2904   20.6753  -29.0114 H   0  0  0  0  0  0  0  0  0  0  0  0
   -4.0365   20.5179  -28.5960 H   0  0  0  0  0  0  0  0  0  0  0  0
   -3.1450   25.3750  -31.2070 H   0  0  0  0  0  0  0  0  0  0  0  0
   -7.9922   24.8411  -30.5627 H   0  0  0  0  0  0  0  0  0  0  0  0
   -9.7679   22.7403  -31.3442 H   0  0  0  0  0  0  0  0  0  0  0  0
   -9.8195   20.3437  -32.1061 H   0  0  0  0  0  0  0  0  0  0  0  0
   -8.4582   18.1293  -31.9549 H   0  0  0  0  0  0  0  0  0  0  0  0
   -7.9187   18.6531  -33.5909 H   0  0  0  0  0  0  0  0  0  0  0  0
   -5.4653   20.1922  -31.9303 H   0  0  0  0  0  0  0  0  0  0  0  0
  1  2  1  0
  2  3  1  0
  3  4  1  0
  4  5  2  0
  4  6  1  0
  6  7  1  0
  7  8  1  0
  8  9  1  0
  9 10  1  0
 10 11  2  0
 10 12  1  0
 12 13  1  0
 13 14  1  0
 14 15  1  0
 14 16  2  0
 13 17  2  0
 17 18  1  0
 18 19  2  0
 19 20  1  0
 20 21  2  0
 21 22  1  0
 22 23  1  0
 23 24  2  0
 23 25  1  0
 21 26  1  0
 26 27  2  0
  7  2  2  0
 27 12  1  0
 27 18  1  0
  1 28  1  0
  1 29  1  0
  1 30  1  0
  8 31  1  0
  8 32  1  0
 15 33  1  0
 17 34  1  0
 19 35  1  0
 20 36  1  0
 22 37  1  0
 22 38  1  0
 26 39  1  0
M  CHG  2  15  -1  25  -1
M  END
>  <UniqueID>  (77) 
77

>  <SMILES>  (77) 
Cc1oc(=O)oc1COC(=O)n1c(C([NH-])=O)cc2ccc(CC(=O)[O-])cc21

>  <Energy>  (77) 
108.35036719105173

>  <Genealogy>  (77) 
Cc1oc(=O)oc1COC(=O)n1c(C([NH-])=O)cc2ccc(CC(=O)[O-])cc21 (protonated)
Cc1oc(=O)oc1COC(=O)n1c(C([NH-])=O)cc2ccc(CC(=O)[O-])cc21 (3D coordinates assigned)
Cc1oc(=O)oc1COC(=O)n1c(C([NH-])=O)cc2ccc(CC(=O)[O-])cc21 (optimized conformer: 108.35036719105173 kcal/mol)

>  <smiles>  (77) 
Cc1oc(=O)oc1COC(=O)n1c(C(N)=O)cc2ccc(CC(=O)O)cc21

>  <score_type>  (77) 
oracle

>  <origin>  (77) 
adg

>  <m_score__min__energy>  (77) 
-11.06

>  <m_primary>  (77) 
energy

$$$$
77:0
     RDKit          3D

 51 52  0  0  0  0  0  0  0  0999 V2000
   -0.7670   20.9390  -27.1800 C   0  0  0  0  0  0  0  0  0  0  0  0
   -1.7220   21.1600  -28.2860 N   0  0  0  0  0  0  0  0  0  0  0  0
   -3.0870   20.8260  -27.8270 C   0  0  0  0  0  0  0  0  0  0  0  0
   -1.5890   22.4940  -28.9720 C   0  0  0  0  0  0  0  0  0  0  0  0
   -1.5160   22.2970  -30.5120 C   0  0  0  0  0  0  0  0  0  0  0  0
   -0.2360   23.1270  -28.5540 C   0  0  0  0  0  0  0  0  0  0  0  0
   -2.7640   23.4660  -28.5970 C   0  0  0  0  0  0  0  0  0  0  0  0
   -2.7150   24.7940  -29.3190 C   0  0  0  0  0  0  0  0  0  0  0  0
   -1.9100   25.6740  -28.9160 O   0  0  0  0  0  0  0  0  0  0  0  0
   -3.5110   25.0750  -30.4760 N   0  0  0  0  0  0  0  0  0  0  0  0
   -4.9290   25.4240  -30.4840 C   0  0  0  0  0  0  0  0  0  0  0  0
   -5.7170   24.4210  -29.6400 C   0  0  0  0  0  0  0  0  0  0  0  0
   -6.1250   23.2340  -30.4750 C   0  0  0  0  0  0  0  0  0  0  0  0
   -7.4910   23.0030  -30.7660 C   0  0  0  0  0  0  0  0  0  0  0  0
   -7.8720   21.9710  -31.6390 C   0  0  0  0  0  0  0  0  0  0  0  0
   -6.8680   21.1920  -32.2050 C   0  0  0  0  0  0  0  0  0  0  0  0
   -6.9540   20.1820  -33.1360 C   0  0  0  0  0  0  0  0  0  0  0  0
   -5.6400   19.7970  -33.3830 C   0  0  0  0  0  0  0  0  0  0  0  0
   -5.2750   18.6980  -34.2980 C   0  0  0  0  0  0  0  0  0  0  0  0
   -4.0540   17.9750  -34.1350 N   0  0  0  0  0  0  0  0  0  0  0  0
   -6.0780   18.3560  -35.2060 O   0  0  0  0  0  0  0  0  0  0  0  0
   -4.7700   20.5450  -32.6460 N   0  0  0  0  0  0  0  0  0  0  0  0
   -3.3350   20.5480  -32.7230 C   0  0  0  0  0  0  0  0  0  0  0  0
   -2.6670   19.6350  -32.1680 O   0  0  0  0  0  0  0  0  0  0  0  0
   -2.6690   21.5520  -33.4140 O   0  0  0  0  0  0  0  0  0  0  0  0
   -5.5400   21.3910  -31.9230 C   0  0  0  0  0  0  0  0  0  0  0  0
   -5.1330   22.4170  -31.0630 C   0  0  0  0  0  0  0  0  0  0  0  0
   -1.2862   21.0592  -26.2177 H   0  0  0  0  0  0  0  0  0  0  0  0
   -0.3545   19.9217  -27.2495 H   0  0  0  0  0  0  0  0  0  0  0  0
    0.0505   21.6717  -27.2495 H   0  0  0  0  0  0  0  0  0  0  0  0
   -3.1128   20.8197  -26.7273 H   0  0  0  0  0  0  0  0  0  0  0  0
   -3.7954   21.5773  -28.2061 H   0  0  0  0  0  0  0  0  0  0  0  0
   -3.3685   19.8325  -28.2061 H   0  0  0  0  0  0  0  0  0  0  0  0
   -1.1417   21.2870  -30.7351 H   0  0  0  0  0  0  0  0  0  0  0  0
   -2.5195   22.4202  -30.9454 H   0  0  0  0  0  0  0  0  0  0  0  0
   -0.8351   23.0444  -30.9454 H   0  0  0  0  0  0  0  0  0  0  0  0
   -0.1693   23.1582  -27.4565 H   0  0  0  0  0  0  0  0  0  0  0  0
    0.5910   22.5223  -28.9546 H   0  0  0  0  0  0  0  0  0  0  0  0
   -0.1702   24.1494  -28.9546 H   0  0  0  0  0  0  0  0  0  0  0  0
   -3.7149   22.9718  -28.8451 H   0  0  0  0  0  0  0  0  0  0  0  0
   -2.6684   23.6829  -27.5228 H   0  0  0  0  0  0  0  0  0  0  0  0
   -5.0585   26.4333  -30.0663 H   0  0  0  0  0  0  0  0  0  0  0  0
   -5.3022   25.3988  -31.5184 H   0  0  0  0  0  0  0  0  0  0  0  0
   -5.0884   24.0775  -28.8053 H   0  0  0  0  0  0  0  0  0  0  0  0
   -6.6223   24.9134  -29.2552 H   0  0  0  0  0  0  0  0  0  0  0  0
   -8.2613   23.6379  -30.3039 H   0  0  0  0  0  0  0  0  0  0  0  0
   -8.9316   21.7844  -31.8681 H   0  0  0  0  0  0  0  0  0  0  0  0
   -7.8670   19.7675  -33.5884 H   0  0  0  0  0  0  0  0  0  0  0  0
   -3.7930   17.2280  -34.8160 H   0  0  0  0  0  0  0  0  0  0  0  0
   -3.4490   18.1200  -33.2970 H   0  0  0  0  0  0  0  0  0  0  0  0
   -4.0668   22.5836  -30.8498 H   0  0  0  0  0  0  0  0  0  0  0  0
  1  2  1  0
  2  3  1  0
  2  4  1  0
  4  5  1  0
  4  6  1  0
  4  7  1  0
  7  8  1  0
  8  9  2  0
  8 10  1  0
 10 11  1  0
 11 12  1  0
 12 13  1  0
 13 14  2  0
 14 15  1  0
 15 16  2  0
 16 17  1  0
 17 18  2  0
 18 19  1  0
 19 20  1  0
 19 21  2  0
 18 22  1  0
 22 23  1  0
 23 24  2  0
 23 25  1  0
 22 26  1  0
 26 27  2  0
 27 13  1  0
 26 16  1  0
  1 28  1  0
  1 29  1  0
  1 30  1  0
  3 31  1  0
  3 32  1  0
  3 33  1  0
  5 34  1  0
  5 35  1  0
  5 36  1  0
  6 37  1  0
  6 38  1  0
  6 39  1  0
  7 40  1  0
  7 41  1  0
 11 42  1  0
 11 43  1  0
 12 44  1  0
 12 45  1  0
 14 46  1  0
 15 47  1  0
 17 48  1  0
 20 49  1  0
 20 50  1  0
 27 51  1  0
M  CHG  2  10  -1  25  -1
M  END
>  <UniqueID>  (78) 
78

>  <SMILES>  (78) 
CN(C)C(C)(C)CC(=O)[N-]CCc1ccc2cc(C(N)=O)n(C(=O)[O-])c2c1

>  <Energy>  (78) 
93.53894827098141

>  <Genealogy>  (78) 
CN(C)C(C)(C)CC(=O)[N-]CCc1ccc2cc(C(N)=O)n(C(=O)[O-])c2c1 (protonated)
CN(C)C(C)(C)CC(=O)[N-]CCc1ccc2cc(C(N)=O)n(C(=O)[O-])c2c1 (3D coordinates assigned)
CN(C)C(C)(C)CC(=O)[N-]CCc1ccc2cc(C(N)=O)n(C(=O)[O-])c2c1 (optimized conformer: 93.53894827098141 kcal/mol)

>  <smiles>  (78) 
CN(C)C(C)(C)CC(=O)NCCc1ccc2cc(C(N)=O)n(C(=O)O)c2c1

>  <score_type>  (78) 
oracle

>  <origin>  (78) 
adg

>  <m_score__min__energy>  (78) 
-9.7599999999999998

>  <m_primary>  (78) 
energy

$$$$
78:0
     RDKit          3D

 33 34  0  0  0  0  0  0  0  0999 V2000
   -8.4350   23.1450  -31.9580 C   0  0  0  0  0  0  0  0  0  0  0  0
   -7.3440   22.9670  -30.9510 C   0  0  0  0  0  0  0  0  0  0  0  0
   -7.6140   23.0810  -29.7260 O   0  0  0  0  0  0  0  0  0  0  0  0
   -5.9990   22.6700  -31.3610 N   0  0  0  0  0  0  0  0  0  0  0  0
   -4.8710   23.3730  -31.0570 C   0  0  0  0  0  0  0  0  0  0  0  0
   -4.8370   24.6640  -30.3330 C   0  0  0  0  0  0  0  0  0  0  0  0
   -5.4600   24.8050  -29.0550 N   0  0  0  0  0  0  0  0  0  0  0  0
   -4.2380   25.6530  -30.8330 O   0  0  0  0  0  0  0  0  0  0  0  0
   -3.7460   22.7400  -31.5870 C   0  0  0  0  0  0  0  0  0  0  0  0
   -4.2240   21.6170  -32.2230 C   0  0  0  0  0  0  0  0  0  0  0  0
   -3.5390   20.6140  -32.9030 C   0  0  0  0  0  0  0  0  0  0  0  0
   -4.2860   19.5480  -33.4310 C   0  0  0  0  0  0  0  0  0  0  0  0
   -5.6930   19.5010  -33.2670 C   0  0  0  0  0  0  0  0  0  0  0  0
   -6.4830   18.3350  -33.8050 C   0  0  0  0  0  0  0  0  0  0  0  0
   -7.1040   17.4900  -32.6840 C   0  0  0  0  0  0  0  0  0  0  0  0
   -8.2810   18.1700  -32.0460 C   0  0  0  0  0  0  0  0  0  0  0  0
   -8.9870   18.9270  -32.6940 O   0  0  0  0  0  0  0  0  0  0  0  0
   -6.3530   20.5360  -32.5670 C   0  0  0  0  0  0  0  0  0  0  0  0
   -5.5870   21.5960  -32.0700 C   0  0  0  0  0  0  0  0  0  0  0  0
   -9.3918   23.3011  -31.4383 H   0  0  0  0  0  0  0  0  0  0  0  0
   -8.2133   24.0188  -32.5883 H   0  0  0  0  0  0  0  0  0  0  0  0
   -8.5025   22.2460  -32.5883 H   0  0  0  0  0  0  0  0  0  0  0  0
   -6.0220   24.0330  -28.6340 H   0  0  0  0  0  0  0  0  0  0  0  0
   -5.3960   25.7110  -28.5390 H   0  0  0  0  0  0  0  0  0  0  0  0
   -2.6990   23.0689  -31.5123 H   0  0  0  0  0  0  0  0  0  0  0  0
   -2.4464   20.6549  -33.0232 H   0  0  0  0  0  0  0  0  0  0  0  0
   -3.7740   18.7419  -33.9770 H   0  0  0  0  0  0  0  0  0  0  0  0
   -7.2891   18.7192  -34.4473 H   0  0  0  0  0  0  0  0  0  0  0  0
   -5.7932   17.6916  -34.3709 H   0  0  0  0  0  0  0  0  0  0  0  0
   -7.4358   16.5301  -33.1064 H   0  0  0  0  0  0  0  0  0  0  0  0
   -6.3380   17.3430  -31.9084 H   0  0  0  0  0  0  0  0  0  0  0  0
   -8.5092   17.9847  -30.9860 H   0  0  0  0  0  0  0  0  0  0  0  0
   -7.4423   20.5089  -32.4165 H   0  0  0  0  0  0  0  0  0  0  0  0
  1  2  1  0
  2  3  2  0
  2  4  1  0
  4  5  1  0
  5  6  1  0
  6  7  1  0
  6  8  2  0
  5  9  2  0
  9 10  1  0
 10 11  2  0
 11 12  1  0
 12 13  2  0
 13 14  1  0
 14 15  1  0
 15 16  1  0
 16 17  2  0
 13 18  1  0
 18 19  2  0
 19  4  1  0
 19 10  1  0
  1 20  1  0
  1 21  1  0
  1 22  1  0
  7 23  1  0
  7 24  1  0
  9 25  1  0
 11 26  1  0
 12 27  1  0
 14 28  1  0
 14 29  1  0
 15 30  1  0
 15 31  1  0
 16 32  1  0
 18 33  1  0
M  END
>  <UniqueID>  (79) 
79

>  <SMILES>  (79) 
CC(=O)n1c(C(N)=O)cc2ccc(CCC=O)cc21

>  <Energy>  (79) 
67.63130158494091

>  <Genealogy>  (79) 
CC(=O)n1c(C(N)=O)cc2ccc(CCC=O)cc21 (3D coordinates assigned)
CC(=O)n1c(C(N)=O)cc2ccc(CCC=O)cc21 (optimized conformer: 67.63130158494091 kcal/mol)

>  <smiles>  (79) 
CC(=O)n1c(C(N)=O)cc2ccc(CCC=O)cc21

>  <score_type>  (79) 
oracle

>  <origin>  (79) 
adg

>  <m_score__min__energy>  (79) 
-8.3900000000000006

>  <m_primary>  (79) 
energy

$$$$
79:0
     RDKit          3D

 34 35  0  0  0  0  0  0  0  0999 V2000
   -8.7890   19.9270  -31.4590 C   0  0  0  0  0  0  0  0  0  0  0  0
   -7.5320   19.5700  -32.1240 N   0  0  0  0  0  0  0  0  0  0  0  0
   -7.0940   18.1710  -32.1600 C   0  0  0  0  0  0  0  0  0  0  0  0
   -6.7420   20.6180  -32.7310 C   0  0  0  0  0  0  0  0  0  0  0  0
   -7.1390   21.8140  -32.6680 O   0  0  0  0  0  0  0  0  0  0  0  0
   -5.4610   20.3340  -33.4740 C   0  0  0  0  0  0  0  0  0  0  0  0
   -4.2620   20.7920  -32.6870 C   0  0  0  0  0  0  0  0  0  0  0  0
   -3.0970   19.9860  -32.6230 C   0  0  0  0  0  0  0  0  0  0  0  0
   -1.9820   20.3950  -31.8740 C   0  0  0  0  0  0  0  0  0  0  0  0
   -2.0590   21.6100  -31.2000 C   0  0  0  0  0  0  0  0  0  0  0  0
   -1.1400   22.2290  -30.3840 C   0  0  0  0  0  0  0  0  0  0  0  0
   -1.7490   23.4110  -29.9700 C   0  0  0  0  0  0  0  0  0  0  0  0
   -1.0690   24.4270  -29.1400 C   0  0  0  0  0  0  0  0  0  0  0  0
   -1.6370   25.7200  -28.9490 N   0  0  0  0  0  0  0  0  0  0  0  0
    0.0540   24.1650  -28.6310 O   0  0  0  0  0  0  0  0  0  0  0  0
   -3.0010   23.5160  -30.5020 N   0  0  0  0  0  0  0  0  0  0  0  0
   -3.9820   24.5370  -30.2560 C   0  0  0  0  0  0  0  0  0  0  0  0
   -3.8710   25.6690  -30.7930 O   0  0  0  0  0  0  0  0  0  0  0  0
   -5.0500   24.2900  -29.4020 O   0  0  0  0  0  0  0  0  0  0  0  0
   -3.1740   22.4070  -31.2550 C   0  0  0  0  0  0  0  0  0  0  0  0
   -4.3070   22.0140  -31.9780 C   0  0  0  0  0  0  0  0  0  0  0  0
   -8.6509   19.8878  -30.3684 H   0  0  0  0  0  0  0  0  0  0  0  0
   -9.0842   20.9445  -31.7548 H   0  0  0  0  0  0  0  0  0  0  0  0
   -9.5750   19.2166  -31.7548 H   0  0  0  0  0  0  0  0  0  0  0  0
   -6.9769   17.7969  -31.1322 H   0  0  0  0  0  0  0  0  0  0  0  0
   -7.8454   17.5650  -32.6874 H   0  0  0  0  0  0  0  0  0  0  0  0
   -6.1312   18.1017  -32.6874 H   0  0  0  0  0  0  0  0  0  0  0  0
   -5.3816   19.2513  -33.6513 H   0  0  0  0  0  0  0  0  0  0  0  0
   -5.4823   20.8826  -34.4272 H   0  0  0  0  0  0  0  0  0  0  0  0
   -3.0665   19.0299  -33.1661 H   0  0  0  0  0  0  0  0  0  0  0  0
   -1.0755   19.7741  -31.8216 H   0  0  0  0  0  0  0  0  0  0  0  0
   -0.1366   21.8668  -30.1155 H   0  0  0  0  0  0  0  0  0  0  0  0
   -2.6710   25.8610  -28.9760 H   0  0  0  0  0  0  0  0  0  0  0  0
   -5.2105   22.6413  -31.9938 H   0  0  0  0  0  0  0  0  0  0  0  0
  1  2  1  0
  2  3  1  0
  2  4  1  0
  4  5  2  0
  4  6  1  0
  6  7  1  0
  7  8  2  0
  8  9  1  0
  9 10  2  0
 10 11  1  0
 11 12  2  0
 12 13  1  0
 13 14  1  0
 13 15  2  0
 12 16  1  0
 16 17  1  0
 17 18  2  0
 17 19  1  0
 16 20  1  0
 20 21  2  0
 21  7  1  0
 20 10  1  0
  1 22  1  0
  1 23  1  0
  1 24  1  0
  3 25  1  0
  3 26  1  0
  3 27  1  0
  6 28  1  0
  6 29  1  0
  8 30  1  0
  9 31  1  0
 11 32  1  0
 14 33  1  0
 21 34  1  0
M  CHG  2  14  -1  19  -1
M  END
>  <UniqueID>  (80) 
80

>  <SMILES>  (80) 
CN(C)C(=O)Cc1ccc2cc(C([NH-])=O)n(C(=O)[O-])c2c1

>  <Energy>  (80) 
70.53946088026228

>  <Genealogy>  (80) 
CN(C)C(=O)Cc1ccc2cc(C([NH-])=O)n(C(=O)[O-])c2c1 (protonated)
CN(C)C(=O)Cc1ccc2cc(C([NH-])=O)n(C(=O)[O-])c2c1 (3D coordinates assigned)
CN(C)C(=O)Cc1ccc2cc(C([NH-])=O)n(C(=O)[O-])c2c1 (optimized conformer: 70.53946088026228 kcal/mol)

>  <smiles>  (80) 
CN(C)C(=O)Cc1ccc2cc(C(N)=O)n(C(=O)O)c2c1

>  <score_type>  (80) 
oracle

>  <origin>  (80) 
adg

>  <m_score__min__energy>  (80) 
-11.16

>  <m_primary>  (80) 
energy

$$$$
80:0
     RDKit          3D

 37 38  0  0  0  0  0  0  0  0999 V2000
   -2.6640   19.6950  -33.7620 C   0  0  0  0  0  0  0  0  0  0  0  0
   -2.8850   20.5450  -32.5100 C   0  0  0  0  0  0  0  0  0  0  0  0
   -3.4690   21.9310  -32.8330 C   0  0  0  0  0  0  0  0  0  0  0  0
   -3.9120   22.6870  -31.6070 C   0  0  0  0  0  0  0  0  0  0  0  0
   -3.0720   23.0130  -30.7270 O   0  0  0  0  0  0  0  0  0  0  0  0
   -5.3090   22.9120  -31.3640 N   0  0  0  0  0  0  0  0  0  0  0  0
   -5.9120   24.0460  -30.9090 C   0  0  0  0  0  0  0  0  0  0  0  0
   -5.2200   25.2620  -30.4390 C   0  0  0  0  0  0  0  0  0  0  0  0
   -3.8840   25.5280  -30.8590 N   0  0  0  0  0  0  0  0  0  0  0  0
   -5.8070   26.0870  -29.6910 O   0  0  0  0  0  0  0  0  0  0  0  0
   -7.2960   23.8800  -30.8720 C   0  0  0  0  0  0  0  0  0  0  0  0
   -7.5210   22.5960  -31.3140 C   0  0  0  0  0  0  0  0  0  0  0  0
   -8.7150   21.8980  -31.4740 C   0  0  0  0  0  0  0  0  0  0  0  0
   -8.6460   20.5810  -31.9600 C   0  0  0  0  0  0  0  0  0  0  0  0
   -7.3960   19.9950  -32.2860 C   0  0  0  0  0  0  0  0  0  0  0  0
   -7.3330   18.5780  -32.7850 C   0  0  0  0  0  0  0  0  0  0  0  0
   -6.1120   18.3800  -33.6300 C   0  0  0  0  0  0  0  0  0  0  0  0
   -6.0790   18.8600  -34.9740 N   0  0  0  0  0  0  0  0  0  0  0  0
   -5.1210   17.7580  -33.1650 O   0  0  0  0  0  0  0  0  0  0  0  0
   -6.2060   20.7300  -32.0990 C   0  0  0  0  0  0  0  0  0  0  0  0
   -6.3050   22.0340  -31.6020 C   0  0  0  0  0  0  0  0  0  0  0  0
   -2.3974   18.6695  -33.4666 H   0  0  0  0  0  0  0  0  0  0  0  0
   -3.5871   19.6761  -34.3600 H   0  0  0  0  0  0  0  0  0  0  0  0
   -1.8486   20.1281  -34.3600 H   0  0  0  0  0  0  0  0  0  0  0  0
   -3.5814   20.0157  -31.8430 H   0  0  0  0  0  0  0  0  0  0  0  0
   -1.9054   20.6984  -32.0336 H   0  0  0  0  0  0  0  0  0  0  0  0
   -2.6996   22.5231  -33.3502 H   0  0  0  0  0  0  0  0  0  0  0  0
   -4.3589   21.7735  -33.4602 H   0  0  0  0  0  0  0  0  0  0  0  0
   -3.0690   25.1670  -30.3170 H   0  0  0  0  0  0  0  0  0  0  0  0
   -8.0481   24.6182  -30.5566 H   0  0  0  0  0  0  0  0  0  0  0  0
   -9.6813   22.3624  -31.2279 H   0  0  0  0  0  0  0  0  0  0  0  0
   -9.5705   19.9989  -32.0888 H   0  0  0  0  0  0  0  0  0  0  0  0
   -7.2955   17.8918  -31.9261 H   0  0  0  0  0  0  0  0  0  0  0  0
   -8.2267   18.3717  -33.3923 H   0  0  0  0  0  0  0  0  0  0  0  0
   -6.8960   19.3710  -35.3770 H   0  0  0  0  0  0  0  0  0  0  0  0
   -5.2350   18.7030  -35.5690 H   0  0  0  0  0  0  0  0  0  0  0  0
   -5.2267   20.2894  -32.3376 H   0  0  0  0  0  0  0  0  0  0  0  0
  1  2  1  0
  2  3  1  0
  3  4  1  0
  4  5  2  0
  4  6  1  0
  6  7  1  0
  7  8  1  0
  8  9  1  0
  8 10  2  0
  7 11  2  0
 11 12  1  0
 12 13  2  0
 13 14  1  0
 14 15  2  0
 15 16  1  0
 16 17  1  0
 17 18  1  0
 17 19  2  0
 15 20  1  0
 20 21  2  0
 21  6  1  0
 21 12  1  0
  1 22  1  0
  1 23  1  0
  1 24  1  0
  2 25  1  0
  2 26  1  0
  3 27  1  0
  3 28  1  0
  9 29  1  0
 11 30  1  0
 13 31  1  0
 14 32  1  0
 16 33  1  0
 16 34  1  0
 18 35  1  0
 18 36  1  0
 20 37  1  0
M  CHG  1   9  -1
M  END
>  <UniqueID>  (81) 
81

>  <SMILES>  (81) 
CCCC(=O)n1c(C([NH-])=O)cc2ccc(CC(N)=O)cc21

>  <Energy>  (81) 
70.36468893138742

>  <Genealogy>  (81) 
CCCC(=O)n1c(C([NH-])=O)cc2ccc(CC(N)=O)cc21 (protonated)
CCCC(=O)n1c(C([NH-])=O)cc2ccc(CC(N)=O)cc21 (3D coordinates assigned)
CCCC(=O)n1c(C([NH-])=O)cc2ccc(CC(N)=O)cc21 (optimized conformer: 70.36468893138742 kcal/mol)

>  <smiles>  (81) 
CCCC(=O)n1c(C(N)=O)cc2ccc(CC(N)=O)cc21

>  <score_type>  (81) 
oracle

>  <origin>  (81) 
adg

>  <m_score__min__energy>  (81) 
-10.48

>  <m_primary>  (81) 
energy

$$$$
81:0
     RDKit          3D

 35 36  0  0  0  0  0  0  0  0999 V2000
   -1.1370   21.1470  -33.5920 C   0  0  0  0  0  0  0  0  0  0  0  0
   -2.4780   20.6670  -33.0270 C   0  0  0  0  0  0  0  0  0  0  0  0
   -3.0110   19.4910  -33.8420 C   0  0  0  0  0  0  0  0  0  0  0  0
   -3.4350   21.7270  -33.0670 O   0  0  0  0  0  0  0  0  0  0  0  0
   -3.8860   22.4080  -31.9310 C   0  0  0  0  0  0  0  0  0  0  0  0
   -3.0690   23.0050  -31.1790 O   0  0  0  0  0  0  0  0  0  0  0  0
   -5.2900   22.4310  -31.6260 N   0  0  0  0  0  0  0  0  0  0  0  0
   -5.9690   23.3810  -30.9220 C   0  0  0  0  0  0  0  0  0  0  0  0
   -5.4130   24.6760  -30.4680 C   0  0  0  0  0  0  0  0  0  0  0  0
   -5.8250   25.2530  -29.2270 N   0  0  0  0  0  0  0  0  0  0  0  0
   -4.5880   25.2980  -31.1890 O   0  0  0  0  0  0  0  0  0  0  0  0
   -7.3030   23.0100  -30.7640 C   0  0  0  0  0  0  0  0  0  0  0  0
   -7.4220   21.7960  -31.3980 C   0  0  0  0  0  0  0  0  0  0  0  0
   -8.5310   20.9660  -31.5420 C   0  0  0  0  0  0  0  0  0  0  0  0
   -8.3630   19.7520  -32.2280 C   0  0  0  0  0  0  0  0  0  0  0  0
   -7.0970   19.3910  -32.7550 C   0  0  0  0  0  0  0  0  0  0  0  0
   -6.9150   18.0790  -33.4630 C   0  0  0  0  0  0  0  0  0  0  0  0
   -6.1100   18.2530  -34.5750 F   0  0  0  0  0  0  0  0  0  0  0  0
   -6.3220   17.1690  -32.6070 F   0  0  0  0  0  0  0  0  0  0  0  0
   -5.9920   20.2560  -32.5830 C   0  0  0  0  0  0  0  0  0  0  0  0
   -6.1940   21.4670  -31.9110 C   0  0  0  0  0  0  0  0  0  0  0  0
   -0.4561   21.3907  -32.7632 H   0  0  0  0  0  0  0  0  0  0  0  0
   -0.6934   20.3518  -34.2092 H   0  0  0  0  0  0  0  0  0  0  0  0
   -1.2988   22.0430  -34.2092 H   0  0  0  0  0  0  0  0  0  0  0  0
   -2.3172   20.3483  -31.9865 H   0  0  0  0  0  0  0  0  0  0  0  0
   -3.3675   18.7044  -33.1607 H   0  0  0  0  0  0  0  0  0  0  0  0
   -3.8428   19.8315  -34.4762 H   0  0  0  0  0  0  0  0  0  0  0  0
   -2.2067   19.0899  -34.4762 H   0  0  0  0  0  0  0  0  0  0  0  0
   -6.4720   24.7480  -28.5810 H   0  0  0  0  0  0  0  0  0  0  0  0
   -5.4480   26.1800  -28.9300 H   0  0  0  0  0  0  0  0  0  0  0  0
   -8.0933   23.5699  -30.2425 H   0  0  0  0  0  0  0  0  0  0  0  0
   -9.5100   21.2529  -31.1305 H   0  0  0  0  0  0  0  0  0  0  0  0
   -9.2207   19.0756  -32.3576 H   0  0  0  0  0  0  0  0  0  0  0  0
   -7.8984   17.7016  -33.7801 H   0  0  0  0  0  0  0  0  0  0  0  0
   -4.9981   19.9840  -32.9678 H   0  0  0  0  0  0  0  0  0  0  0  0
  1  2  1  0
  2  3  1  0
  2  4  1  0
  4  5  1  0
  5  6  2  0
  5  7  1  0
  7  8  1  0
  8  9  1  0
  9 10  1  0
  9 11  2  0
  8 12  2  0
 12 13  1  0
 13 14  2  0
 14 15  1  0
 15 16  2  0
 16 17  1  0
 17 18  1  0
 17 19  1  0
 16 20  1  0
 20 21  2  0
 21  7  1  0
 21 13  1  0
  1 22  1  0
  1 23  1  0
  1 24  1  0
  2 25  1  0
  3 26  1  0
  3 27  1  0
  3 28  1  0
 10 29  1  0
 10 30  1  0
 12 31  1  0
 14 32  1  0
 15 33  1  0
 17 34  1  0
 20 35  1  0
M  END
>  <UniqueID>  (82) 
82

>  <SMILES>  (82) 
CC(C)OC(=O)n1c(C(N)=O)cc2ccc(C(F)F)cc21

>  <Energy>  (82) 
67.01571270884803

>  <Genealogy>  (82) 
CC(C)OC(=O)n1c(C(N)=O)cc2ccc(C(F)F)cc21 (3D coordinates assigned)
CC(C)OC(=O)n1c(C(N)=O)cc2ccc(C(F)F)cc21 (optimized conformer: 67.01571270884803 kcal/mol)

>  <smiles>  (82) 
CC(C)OC(=O)n1c(C(N)=O)cc2ccc(C(F)F)cc21

>  <score_type>  (82) 
oracle

>  <origin>  (82) 
adg

>  <m_score__min__energy>  (82) 
-7.9400000000000004

>  <m_primary>  (82) 
energy

$$$$
82:0
     RDKit          3D

 35 37  0  0  0  0  0  0  0  0999 V2000
   -6.7510   20.9850  -32.1870 C   0  0  0  0  0  0  0  0  0  0  0  0
   -6.1540   19.9600  -33.0400 N   0  0  0  0  0  0  0  0  0  0  0  0
   -6.8600   19.1740  -33.8400 N   0  0  0  0  0  0  0  0  0  0  0  0
   -6.0270   18.3210  -34.4660 C   0  0  0  0  0  0  0  0  0  0  0  0
   -4.7410   18.5860  -34.0450 C   0  0  0  0  0  0  0  0  0  0  0  0
   -3.6090   17.9660  -34.4600 F   0  0  0  0  0  0  0  0  0  0  0  0
   -4.8430   19.6380  -33.1540 C   0  0  0  0  0  0  0  0  0  0  0  0
   -3.7180   20.2810  -32.4420 C   0  0  0  0  0  0  0  0  0  0  0  0
   -2.4450   19.6560  -32.3870 C   0  0  0  0  0  0  0  0  0  0  0  0
   -1.3770   20.2630  -31.7040 C   0  0  0  0  0  0  0  0  0  0  0  0
   -1.6110   21.4840  -31.0790 C   0  0  0  0  0  0  0  0  0  0  0  0
   -0.7620   22.2910  -30.3540 C   0  0  0  0  0  0  0  0  0  0  0  0
   -1.5350   23.3820  -29.9620 C   0  0  0  0  0  0  0  0  0  0  0  0
   -1.0400   24.4750  -29.0990 C   0  0  0  0  0  0  0  0  0  0  0  0
   -1.8060   25.6690  -28.9550 N   0  0  0  0  0  0  0  0  0  0  0  0
    0.0650   24.3750  -28.5030 O   0  0  0  0  0  0  0  0  0  0  0  0
   -2.8060   23.2560  -30.4330 N   0  0  0  0  0  0  0  0  0  0  0  0
   -3.9040   24.1680  -30.2780 C   0  0  0  0  0  0  0  0  0  0  0  0
   -3.8600   25.2940  -30.8400 O   0  0  0  0  0  0  0  0  0  0  0  0
   -5.0610   23.8390  -29.3810 C   0  0  0  0  0  0  0  0  0  0  0  0
   -5.9210   22.9820  -30.0440 F   0  0  0  0  0  0  0  0  0  0  0  0
   -4.5990   23.2190  -28.2350 F   0  0  0  0  0  0  0  0  0  0  0  0
   -5.7520   24.9840  -29.0300 F   0  0  0  0  0  0  0  0  0  0  0  0
   -2.8390   22.0890  -31.1070 C   0  0  0  0  0  0  0  0  0  0  0  0
   -3.9190   21.5140  -31.7830 C   0  0  0  0  0  0  0  0  0  0  0  0
   -6.5961   20.7190  -31.1309 H   0  0  0  0  0  0  0  0  0  0  0  0
   -6.2771   21.9559  -32.3939 H   0  0  0  0  0  0  0  0  0  0  0  0
   -7.8293   21.0518  -32.3939 H   0  0  0  0  0  0  0  0  0  0  0  0
   -7.8970   19.2100  -33.9520 H   0  0  0  0  0  0  0  0  0  0  0  0
   -6.3218   17.5461  -35.1889 H   0  0  0  0  0  0  0  0  0  0  0  0
   -2.2926   18.6866  -32.8840 H   0  0  0  0  0  0  0  0  0  0  0  0
   -0.3860   19.7871  -31.6647 H   0  0  0  0  0  0  0  0  0  0  0  0
    0.3004   22.1121  -30.1318 H   0  0  0  0  0  0  0  0  0  0  0  0
   -2.8010   25.7080  -29.2710 H   0  0  0  0  0  0  0  0  0  0  0  0
   -4.9009   22.0094  -31.8013 H   0  0  0  0  0  0  0  0  0  0  0  0
  1  2  1  0
  2  3  1  0
  3  4  2  0
  4  5  1  0
  5  6  1  0
  5  7  2  0
  7  8  1  0
  8  9  2  0
  9 10  1  0
 10 11  2  0
 11 12  1  0
 12 13  2  0
 13 14  1  0
 14 15  1  0
 14 16  2  0
 13 17  1  0
 17 18  1  0
 18 19  2  0
 18 20  1  0
 20 21  1  0
 20 22  1  0
 20 23  1  0
 17 24  1  0
 24 25  2  0
  7  2  1  0
 25  8  1  0
 24 11  1  0
  1 26  1  0
  1 27  1  0
  1 28  1  0
  3 29  1  0
  4 30  1  0
  9 31  1  0
 10 32  1  0
 12 33  1  0
 15 34  1  0
 25 35  1  0
M  CHG  2   3   1  15  -1
M  END
>  <UniqueID>  (83) 
83

>  <SMILES>  (83) 
Cn1[nH+]cc(F)c1-c1ccc2cc(C([NH-])=O)n(C(=O)C(F)(F)F)c2c1

>  <Energy>  (83) 
113.33981386343787

>  <Genealogy>  (83) 
Cn1[nH+]cc(F)c1-c1ccc2cc(C([NH-])=O)n(C(=O)C(F)(F)F)c2c1 (protonated)
Cn1[nH+]cc(F)c1-c1ccc2cc(C([NH-])=O)n(C(=O)C(F)(F)F)c2c1 (3D coordinates assigned)
Cn1[nH+]cc(F)c1-c1ccc2cc(C([NH-])=O)n(C(=O)C(F)(F)F)c2c1 (optimized conformer: 113.33981386343787 kcal/mol)

>  <smiles>  (83) 
Cn1ncc(F)c1-c1ccc2cc(C(N)=O)n(C(=O)C(F)(F)F)c2c1

>  <score_type>  (83) 
oracle

>  <origin>  (83) 
adg

>  <m_score__min__energy>  (83) 
-9.6899999999999995

>  <m_primary>  (83) 
energy

$$$$
83:0
     RDKit          3D

 56 58  0  0  0  0  0  0  0  0999 V2000
    0.2530   20.4950  -31.6410 C   0  0  0  0  0  0  0  0  0  0  0  0
    0.5440   21.3440  -32.7450 O   0  0  0  0  0  0  0  0  0  0  0  0
    0.0670   21.0970  -34.0360 C   0  0  0  0  0  0  0  0  0  0  0  0
    0.3130   21.9060  -34.9700 O   0  0  0  0  0  0  0  0  0  0  0  0
   -0.6840   19.9010  -34.3000 N   0  0  0  0  0  0  0  0  0  0  0  0
   -0.2260   18.7110  -34.7840 C   0  0  0  0  0  0  0  0  0  0  0  0
    1.1370   18.4410  -35.2860 C   0  0  0  0  0  0  0  0  0  0  0  0
    1.8710   19.4420  -35.9880 N   0  0  0  0  0  0  0  0  0  0  0  0
    1.6430   17.2980  -35.1370 O   0  0  0  0  0  0  0  0  0  0  0  0
   -1.2560   17.7720  -34.8250 C   0  0  0  0  0  0  0  0  0  0  0  0
   -2.3700   18.4320  -34.3580 C   0  0  0  0  0  0  0  0  0  0  0  0
   -3.6720   17.9760  -34.1810 C   0  0  0  0  0  0  0  0  0  0  0  0
   -4.6190   18.8710  -33.6570 C   0  0  0  0  0  0  0  0  0  0  0  0
   -4.2510   20.1980  -33.3090 C   0  0  0  0  0  0  0  0  0  0  0  0
   -5.2550   21.1390  -32.7490 C   0  0  0  0  0  0  0  0  0  0  0  0
   -6.5930   20.7440  -32.5820 C   0  0  0  0  0  0  0  0  0  0  0  0
   -7.5400   21.6340  -32.0530 C   0  0  0  0  0  0  0  0  0  0  0  0
   -8.9740   21.2140  -31.8970 C   0  0  0  0  0  0  0  0  0  0  0  0
   -7.1460   22.9310  -31.6900 C   0  0  0  0  0  0  0  0  0  0  0  0
   -8.0560   23.8050  -31.1880 F   0  0  0  0  0  0  0  0  0  0  0  0
   -5.8130   23.3330  -31.8290 C   0  0  0  0  0  0  0  0  0  0  0  0
   -5.4600   24.6380  -31.4490 O   0  0  0  0  0  0  0  0  0  0  0  0
   -4.9070   24.9970  -30.2140 C   0  0  0  0  0  0  0  0  0  0  0  0
   -5.6460   25.2500  -29.2230 O   0  0  0  0  0  0  0  0  0  0  0  0
   -3.4870   25.1250  -30.1020 N   0  0  0  0  0  0  0  0  0  0  0  0
   -2.7030   24.5300  -29.0210 C   0  0  2  0  0  0  0  0  0  0  0  0
   -1.3470   25.1790  -28.9370 C   0  0  0  0  0  0  0  0  0  0  0  0
   -1.2300   26.4330  -28.9870 O   0  0  0  0  0  0  0  0  0  0  0  0
   -0.2080   24.3910  -28.8280 O   0  0  0  0  0  0  0  0  0  0  0  0
   -2.6180   22.9940  -29.2190 C   0  0  0  0  0  0  0  0  0  0  0  0
   -3.9160   22.2640  -28.8350 C   0  0  0  0  0  0  0  0  0  0  0  0
   -2.2030   22.6290  -30.6510 C   0  0  0  0  0  0  0  0  0  0  0  0
   -4.8760   22.4410  -32.3780 C   0  0  0  0  0  0  0  0  0  0  0  0
   -2.9140   20.6190  -33.5010 C   0  0  0  0  0  0  0  0  0  0  0  0
   -1.9980   19.7140  -34.0490 C   0  0  0  0  0  0  0  0  0  0  0  0
    0.4389   21.0375  -30.7023 H   0  0  0  0  0  0  0  0  0  0  0  0
   -0.8021   20.1868  -31.6836 H   0  0  0  0  0  0  0  0  0  0  0  0
    0.8972   19.6044  -31.6836 H   0  0  0  0  0  0  0  0  0  0  0  0
    1.5790   20.4440  -35.9550 H   0  0  0  0  0  0  0  0  0  0  0  0
   -1.1919   16.7260  -35.1595 H   0  0  0  0  0  0  0  0  0  0  0  0
   -3.9517   16.9451  -34.4436 H   0  0  0  0  0  0  0  0  0  0  0  0
   -5.6584   18.5403  -33.5144 H   0  0  0  0  0  0  0  0  0  0  0  0
   -6.9009   19.7276  -32.8686 H   0  0  0  0  0  0  0  0  0  0  0  0
   -9.2206   21.1418  -30.8274 H   0  0  0  0  0  0  0  0  0  0  0  0
   -9.6281   21.9583  -32.3747 H   0  0  0  0  0  0  0  0  0  0  0  0
   -9.1232   20.2344  -32.3747 H   0  0  0  0  0  0  0  0  0  0  0  0
   -3.2010   24.7109  -28.0570 H   0  0  0  0  0  0  0  0  0  0  0  0
   -1.8357   22.6481  -28.5274 H   0  0  0  0  0  0  0  0  0  0  0  0
   -3.9998   22.2169  -27.7392 H   0  0  0  0  0  0  0  0  0  0  0  0
   -4.7786   22.8093  -29.2456 H   0  0  0  0  0  0  0  0  0  0  0  0
   -3.8981   21.2437  -29.2456 H   0  0  0  0  0  0  0  0  0  0  0  0
   -1.3774   21.9028  -30.6197 H   0  0  0  0  0  0  0  0  0  0  0  0
   -3.0603   22.1869  -31.1798 H   0  0  0  0  0  0  0  0  0  0  0  0
   -1.8740   23.5357  -31.1798 H   0  0  0  0  0  0  0  0  0  0  0  0
   -3.8344   22.7652  -32.5190 H   0  0  0  0  0  0  0  0  0  0  0  0
   -2.6009   21.6368  -33.2252 H   0  0  0  0  0  0  0  0  0  0  0  0
  1  2  1  0
  2  3  1  0
  3  4  2  0
  3  5  1  0
  5  6  1  0
  6  7  1  0
  7  8  1  0
  7  9  2  0
  6 10  2  0
 10 11  1  0
 11 12  2  0
 12 13  1  0
 13 14  2  0
 14 15  1  0
 15 16  2  0
 16 17  1  0
 17 18  1  0
 17 19  2  0
 19 20  1  0
 19 21  1  0
 21 22  1  0
 22 23  1  0
 23 24  2  0
 23 25  1  0
 25 26  1  0
 26 27  1  0
 27 28  2  0
 27 29  1  0
 26 30  1  0
 30 31  1  0
 30 32  1  0
 21 33  2  0
 14 34  1  0
 34 35  2  0
 35  5  1  0
 35 11  1  0
 33 15  1  0
  1 36  1  0
  1 37  1  0
  1 38  1  0
  8 39  1  0
 10 40  1  0
 12 41  1  0
 13 42  1  0
 16 43  1  0
 18 44  1  0
 18 45  1  0
 18 46  1  0
 26 47  1  1
 30 48  1  0
 31 49  1  0
 31 50  1  0
 31 51  1  0
 32 52  1  0
 32 53  1  0
 32 54  1  0
 33 55  1  0
 34 56  1  0
M  CHG  3   8  -1  25  -1  29  -1
M  END
>  <UniqueID>  (84) 
84

>  <SMILES>  (84) 
COC(=O)n1c(C([NH-])=O)cc2ccc(-c3cc(C)c(F)c(OC(=O)[N-][C@H](C(=O)[O-])C(C)C)c3)cc21

>  <Energy>  (84) 
98.6683603029287

>  <Genealogy>  (84) 
COC(=O)n1c(C([NH-])=O)cc2ccc(-c3cc(C)c(F)c(OC(=O)[N-][C@H](C(=O)[O-])C(C)C)c3)cc21 (protonated)
COC(=O)n1c(C([NH-])=O)cc2ccc(-c3cc(C)c(F)c(OC(=O)[N-][C@H](C(=O)[O-])C(C)C)c3)cc21 (3D coordinates assigned)
COC(=O)n1c(C([NH-])=O)cc2ccc(-c3cc(C)c(F)c(OC(=O)[N-][C@H](C(=O)[O-])C(C)C)c3)cc21 (optimized conformer: 98.6683603029287 kcal/mol)

>  <smiles>  (84) 
COC(=O)n1c(C(N)=O)cc2ccc(-c3cc(C)c(F)c(OC(=O)N[C@H](C(=O)O)C(C)C)c3)cc21

>  <score_type>  (84) 
oracle

>  <origin>  (84) 
adg

>  <m_score__min__energy>  (84) 
-12.890000000000001

>  <m_primary>  (84) 
energy

$$$$
84:0
     RDKit          3D

 37 38  0  0  0  0  0  0  0  0999 V2000
   -2.7950   20.9490  -29.3440 C   0  0  0  0  0  0  0  0  0  0  0  0
   -3.2660   22.3100  -29.6200 N   0  0  0  0  0  0  0  0  0  0  0  0
   -3.2510   23.3250  -28.5570 C   0  0  0  0  0  0  0  0  0  0  0  0
   -1.8430   23.4920  -27.9770 C   0  0  0  0  0  0  0  0  0  0  0  0
   -1.1910   24.7380  -28.4890 C   0  0  0  0  0  0  0  0  0  0  0  0
   -1.8890   25.6730  -28.9650 O   0  0  0  0  0  0  0  0  0  0  0  0
    0.1930   24.8530  -28.4760 O   0  0  0  0  0  0  0  0  0  0  0  0
   -3.7960   22.6270  -30.9230 C   0  0  0  0  0  0  0  0  0  0  0  0
   -3.0270   22.7170  -31.9190 O   0  0  0  0  0  0  0  0  0  0  0  0
   -5.2000   22.8480  -31.1050 N   0  0  0  0  0  0  0  0  0  0  0  0
   -5.8910   24.0040  -30.9170 C   0  0  0  0  0  0  0  0  0  0  0  0
   -5.3110   25.2830  -30.4600 C   0  0  0  0  0  0  0  0  0  0  0  0
   -3.9830   25.6380  -30.8400 N   0  0  0  0  0  0  0  0  0  0  0  0
   -5.9760   26.0690  -29.7350 O   0  0  0  0  0  0  0  0  0  0  0  0
   -7.2450   23.8090  -31.1920 C   0  0  0  0  0  0  0  0  0  0  0  0
   -7.3550   22.4860  -31.5600 C   0  0  0  0  0  0  0  0  0  0  0  0
   -8.4720   21.7450  -31.9380 C   0  0  0  0  0  0  0  0  0  0  0  0
   -8.2830   20.3910  -32.2650 C   0  0  0  0  0  0  0  0  0  0  0  0
   -6.9900   19.8070  -32.2190 C   0  0  0  0  0  0  0  0  0  0  0  0
   -6.8110   18.3570  -32.5650 C   0  0  0  0  0  0  0  0  0  0  0  0
   -7.9880   17.6740  -32.3240 F   0  0  0  0  0  0  0  0  0  0  0  0
   -6.4740   18.2310  -33.8990 F   0  0  0  0  0  0  0  0  0  0  0  0
   -5.8820   20.5910  -31.8280 C   0  0  0  0  0  0  0  0  0  0  0  0
   -6.1040   21.9310  -31.5020 C   0  0  0  0  0  0  0  0  0  0  0  0
   -2.7411   20.7932  -28.2564 H   0  0  0  0  0  0  0  0  0  0  0  0
   -3.4941   20.2227  -29.7843 H   0  0  0  0  0  0  0  0  0  0  0  0
   -1.7966   20.8102  -29.7843 H   0  0  0  0  0  0  0  0  0  0  0  0
   -3.5849   24.2868  -28.9734 H   0  0  0  0  0  0  0  0  0  0  0  0
   -3.9253   22.9988  -27.7515 H   0  0  0  0  0  0  0  0  0  0  0  0
   -1.9109   23.5471  -26.8805 H   0  0  0  0  0  0  0  0  0  0  0  0
   -1.2348   22.6288  -28.2851 H   0  0  0  0  0  0  0  0  0  0  0  0
   -3.1730   25.0280  -30.5950 H   0  0  0  0  0  0  0  0  0  0  0  0
   -8.0526   24.5532  -31.1285 H   0  0  0  0  0  0  0  0  0  0  0  0
   -9.4705   22.2047  -31.9794 H   0  0  0  0  0  0  0  0  0  0  0  0
   -9.1468   19.7771  -32.5599 H   0  0  0  0  0  0  0  0  0  0  0  0
   -6.0063   17.9360  -31.9444 H   0  0  0  0  0  0  0  0  0  0  0  0
   -4.8718   20.1581  -31.7815 H   0  0  0  0  0  0  0  0  0  0  0  0
  1  2  1  0
  2  3  1  0
  3  4  1  0
  4  5  1  0
  5  6  2  0
  5  7  1  0
  2  8  1  0
  8  9  2  0
  8 10  1  0
 10 11  1  0
 11 12  1  0
 12 13  1  0
 12 14  2  0
 11 15  2  0
 15 16  1  0
 16 17  2  0
 17 18  1  0
 18 19  2  0
 19 20  1  0
 20 21  1  0
 20 22  1  0
 19 23  1  0
 23 24  2  0
 24 10  1  0
 24 16  1  0
  1 25  1  0
  1 26  1  0
  1 27  1  0
  3 28  1  0
  3 29  1  0
  4 30  1  0
  4 31  1  0
 13 32  1  0
 15 33  1  0
 17 34  1  0
 18 35  1  0
 20 36  1  0
 23 37  1  0
M  CHG  2   7  -1  13  -1
M  END
>  <UniqueID>  (85) 
85

>  <SMILES>  (85) 
CN(CCC(=O)[O-])C(=O)n1c(C([NH-])=O)cc2ccc(C(F)F)cc21

>  <Energy>  (85) 
70.26827245945977

>  <Genealogy>  (85) 
CN(CCC(=O)[O-])C(=O)n1c(C([NH-])=O)cc2ccc(C(F)F)cc21 (protonated)
CN(CCC(=O)[O-])C(=O)n1c(C([NH-])=O)cc2ccc(C(F)F)cc21 (3D coordinates assigned)
CN(CCC(=O)[O-])C(=O)n1c(C([NH-])=O)cc2ccc(C(F)F)cc21 (optimized conformer: 70.26827245945977 kcal/mol)

>  <smiles>  (85) 
CN(CCC(=O)O)C(=O)n1c(C(N)=O)cc2ccc(C(F)F)cc21

>  <score_type>  (85) 
oracle

>  <origin>  (85) 
adg

>  <m_score__min__energy>  (85) 
-12.15

>  <m_primary>  (85) 
energy

$$$$
85:0
     RDKit          3D

 39 40  0  0  0  0  0  0  0  0999 V2000
   -4.2220   23.0250  -28.0540 C   0  0  0  0  0  0  0  0  0  0  0  0
   -2.9430   22.6160  -28.8110 C   0  0  0  0  0  0  0  0  0  0  0  0
   -2.8210   21.0820  -28.8840 C   0  0  0  0  0  0  0  0  0  0  0  0
   -1.7230   23.1760  -28.0630 C   0  0  0  0  0  0  0  0  0  0  0  0
   -2.9310   23.1880  -30.1260 O   0  0  0  0  0  0  0  0  0  0  0  0
   -3.6460   22.7270  -31.2420 C   0  0  0  0  0  0  0  0  0  0  0  0
   -3.0600   22.1260  -32.1820 O   0  0  0  0  0  0  0  0  0  0  0  0
   -5.0680   22.9220  -31.3000 N   0  0  0  0  0  0  0  0  0  0  0  0
   -5.7740   24.0170  -30.9000 C   0  0  0  0  0  0  0  0  0  0  0  0
   -5.2000   25.3070  -30.4620 C   0  0  0  0  0  0  0  0  0  0  0  0
   -3.8740   25.6620  -30.8500 N   0  0  0  0  0  0  0  0  0  0  0  0
   -5.8540   26.0840  -29.7180 O   0  0  0  0  0  0  0  0  0  0  0  0
   -7.1420   23.7930  -31.0370 C   0  0  0  0  0  0  0  0  0  0  0  0
   -7.2540   22.5180  -31.5420 C   0  0  0  0  0  0  0  0  0  0  0  0
   -8.3890   21.7800  -31.8640 C   0  0  0  0  0  0  0  0  0  0  0  0
   -8.2100   20.4730  -32.3470 C   0  0  0  0  0  0  0  0  0  0  0  0
   -6.9090   19.9250  -32.4780 C   0  0  0  0  0  0  0  0  0  0  0  0
   -6.7290   18.5310  -33.0130 C   0  0  0  0  0  0  0  0  0  0  0  0
   -5.6980   18.5270  -34.0960 C   0  0  0  0  0  0  0  0  0  0  0  0
   -6.0470   18.6060  -35.3030 O   0  0  0  0  0  0  0  0  0  0  0  0
   -4.3490   18.4870  -33.7700 O   0  0  0  0  0  0  0  0  0  0  0  0
   -5.7800   20.7070  -32.1510 C   0  0  0  0  0  0  0  0  0  0  0  0
   -5.9890   22.0130  -31.6910 C   0  0  0  0  0  0  0  0  0  0  0  0
   -4.0411   22.9672  -26.9705 H   0  0  0  0  0  0  0  0  0  0  0  0
   -4.4952   24.0553  -28.3256 H   0  0  0  0  0  0  0  0  0  0  0  0
   -5.0423   22.3444  -28.3256 H   0  0  0  0  0  0  0  0  0  0  0  0
   -2.7881   20.6679  -27.8654 H   0  0  0  0  0  0  0  0  0  0  0  0
   -3.6892   20.6702  -29.4193 H   0  0  0  0  0  0  0  0  0  0  0  0
   -1.8986   20.8126  -29.4193 H   0  0  0  0  0  0  0  0  0  0  0  0
   -1.8907   23.0990  -26.9786 H   0  0  0  0  0  0  0  0  0  0  0  0
   -0.8278   22.5987  -28.3375 H   0  0  0  0  0  0  0  0  0  0  0  0
   -1.5772   24.2312  -28.3375 H   0  0  0  0  0  0  0  0  0  0  0  0
   -3.0470   25.2990  -30.3250 H   0  0  0  0  0  0  0  0  0  0  0  0
   -7.9592   24.4878  -30.7932 H   0  0  0  0  0  0  0  0  0  0  0  0
   -9.3956   22.2070  -31.7440 H   0  0  0  0  0  0  0  0  0  0  0  0
   -9.0865   19.8698  -32.6259 H   0  0  0  0  0  0  0  0  0  0  0  0
   -6.4037   17.8675  -32.1982 H   0  0  0  0  0  0  0  0  0  0  0  0
   -7.6855   18.1762  -33.4243 H   0  0  0  0  0  0  0  0  0  0  0  0
   -4.7629   20.3011  -32.2548 H   0  0  0  0  0  0  0  0  0  0  0  0
  1  2  1  0
  2  3  1  0
  2  4  1  0
  2  5  1  0
  5  6  1  0
  6  7  2  0
  6  8  1  0
  8  9  1  0
  9 10  1  0
 10 11  1  0
 10 12  2  0
  9 13  2  0
 13 14  1  0
 14 15  2  0
 15 16  1  0
 16 17  2  0
 17 18  1  0
 18 19  1  0
 19 20  2  0
 19 21  1  0
 17 22  1  0
 22 23  2  0
 23  8  1  0
 23 14  1  0
  1 24  1  0
  1 25  1  0
  1 26  1  0
  3 27  1  0
  3 28  1  0
  3 29  1  0
  4 30  1  0
  4 31  1  0
  4 32  1  0
 11 33  1  0
 13 34  1  0
 15 35  1  0
 16 36  1  0
 18 37  1  0
 18 38  1  0
 22 39  1  0
M  CHG  2  11  -1  21  -1
M  END
>  <UniqueID>  (86) 
86

>  <SMILES>  (86) 
CC(C)(C)OC(=O)n1c(C([NH-])=O)cc2ccc(CC(=O)[O-])cc21

>  <Energy>  (86) 
71.13954460594103

>  <Genealogy>  (86) 
CC(C)(C)OC(=O)n1c(C([NH-])=O)cc2ccc(CC(=O)[O-])cc21 (protonated)
CC(C)(C)OC(=O)n1c(C([NH-])=O)cc2ccc(CC(=O)[O-])cc21 (3D coordinates assigned)
CC(C)(C)OC(=O)n1c(C([NH-])=O)cc2ccc(CC(=O)[O-])cc21 (optimized conformer: 71.13954460594103 kcal/mol)

>  <smiles>  (86) 
CC(C)(C)OC(=O)n1c(C(N)=O)cc2ccc(CC(=O)O)cc21

>  <score_type>  (86) 
oracle

>  <origin>  (86) 
adg

>  <m_score__min__energy>  (86) 
-9.9000000000000004

>  <m_primary>  (86) 
energy

$$$$
86:0
     RDKit          3D

 57 60  0  0  0  0  0  0  0  0999 V2000
   -0.6760   21.4500  -31.3110 N   0  0  0  0  0  0  0  0  0  0  0  0
   -1.3020   22.3120  -30.3600 C   0  0  0  0  0  0  0  0  0  0  0  0
   -0.6360   22.7190  -29.3720 O   0  0  0  0  0  0  0  0  0  0  0  0
   -2.7060   22.7420  -30.5370 C   0  0  0  0  0  0  0  0  0  0  0  0
   -3.2820   23.8180  -29.8670 C   0  0  0  0  0  0  0  0  0  0  0  0
   -4.6050   23.8130  -30.2470 C   0  0  0  0  0  0  0  0  0  0  0  0
   -5.6460   24.6610  -29.8750 C   0  0  0  0  0  0  0  0  0  0  0  0
   -6.9140   24.4320  -30.4440 C   0  0  0  0  0  0  0  0  0  0  0  0
   -7.1230   23.3700  -31.3610 C   0  0  0  0  0  0  0  0  0  0  0  0
   -8.4850   23.1800  -31.9880 C   0  0  0  0  0  0  0  0  0  0  0  0
   -9.0390   21.8120  -31.7320 C   0  0  0  0  0  0  0  0  0  0  0  0
   -9.5710   21.5500  -30.6180 O   0  0  0  0  0  0  0  0  0  0  0  0
   -8.9000   20.8160  -32.7070 O   0  0  0  0  0  0  0  0  0  0  0  0
   -7.9050   19.8280  -32.6990 C   0  0  0  0  0  0  0  0  0  0  0  0
   -6.8510   19.8080  -33.6300 C   0  0  0  0  0  0  0  0  0  0  0  0
   -5.8980   18.7880  -33.5690 C   0  0  0  0  0  0  0  0  0  0  0  0
   -5.9810   17.8230  -32.6050 N   0  0  0  0  0  0  0  0  0  0  0  0
   -5.0590   16.7280  -32.6050 C   0  0  0  0  0  0  0  0  0  0  0  0
   -5.1430   15.8680  -31.6820 O   0  0  0  0  0  0  0  0  0  0  0  0
   -4.0460   16.5680  -33.5700 O   0  0  0  0  0  0  0  0  0  0  0  0
   -2.7480   17.1080  -33.6080 C   0  0  0  0  0  0  0  0  0  0  0  0
   -2.5250   18.1310  -34.5430 C   0  0  0  0  0  0  0  0  0  0  0  0
   -1.3000   18.8010  -34.5940 C   0  0  0  0  0  0  0  0  0  0  0  0
   -0.2750   18.4600  -33.7040 C   0  0  0  0  0  0  0  0  0  0  0  0
    0.9790   19.2940  -33.6320 C   0  0  0  0  0  0  0  0  0  0  0  0
    0.6680   20.6350  -33.2570 O   0  0  0  0  0  0  0  0  0  0  0  0
    0.1020   21.5290  -34.1470 N   0  0  0  0  0  0  0  0  0  0  0  0
   -1.1370   21.6950  -34.1890 O   0  0  0  0  0  0  0  0  0  0  0  0
    0.9130   22.2400  -34.9990 O   0  0  0  0  0  0  0  0  0  0  0  0
   -0.4610   17.3830  -32.8150 C   0  0  0  0  0  0  0  0  0  0  0  0
   -1.6840   16.7060  -32.7770 C   0  0  0  0  0  0  0  0  0  0  0  0
   -6.9810   17.8460  -31.6770 C   0  0  0  0  0  0  0  0  0  0  0  0
   -7.9430   18.8550  -31.7000 C   0  0  0  0  0  0  0  0  0  0  0  0
   -6.0340   22.5490  -31.7300 C   0  0  0  0  0  0  0  0  0  0  0  0
   -4.7930   22.7740  -31.1220 C   0  0  0  0  0  0  0  0  0  0  0  0
   -3.6370   22.1040  -31.3070 N   0  0  0  0  0  0  0  0  0  0  0  0
   -3.4440   20.9640  -32.1650 C   0  0  0  0  0  0  0  0  0  0  0  0
   -3.7980   21.0060  -33.3730 O   0  0  0  0  0  0  0  0  0  0  0  0
   -2.8800   19.7960  -31.6640 O   0  0  0  0  0  0  0  0  0  0  0  0
    0.3190   21.1550  -31.1830 H   0  0  0  0  0  0  0  0  0  0  0  0
   -1.2010   21.0700  -32.1240 H   0  0  0  0  0  0  0  0  0  0  0  0
   -2.7864   24.5210  -29.1814 H   0  0  0  0  0  0  0  0  0  0  0  0
   -5.4831   25.4817  -29.1610 H   0  0  0  0  0  0  0  0  0  0  0  0
   -7.7553   25.0869  -30.1731 H   0  0  0  0  0  0  0  0  0  0  0  0
   -9.1756   23.9263  -31.5683 H   0  0  0  0  0  0  0  0  0  0  0  0
   -8.3765   23.3027  -33.0757 H   0  0  0  0  0  0  0  0  0  0  0  0
   -6.7774   20.5896  -34.4005 H   0  0  0  0  0  0  0  0  0  0  0  0
   -5.0769   18.7617  -34.3005 H   0  0  0  0  0  0  0  0  0  0  0  0
   -3.3252   18.4088  -35.2448 H   0  0  0  0  0  0  0  0  0  0  0  0
   -1.1408   19.5981  -35.3351 H   0  0  0  0  0  0  0  0  0  0  0  0
    1.6606   18.8587  -32.8864 H   0  0  0  0  0  0  0  0  0  0  0  0
    1.4563   19.3040  -34.6230 H   0  0  0  0  0  0  0  0  0  0  0  0
    0.3580   17.0738  -32.1490 H   0  0  0  0  0  0  0  0  0  0  0  0
   -1.8160   15.8541  -32.0938 H   0  0  0  0  0  0  0  0  0  0  0  0
   -7.0286   17.0633  -30.9056 H   0  0  0  0  0  0  0  0  0  0  0  0
   -8.7301   18.8838  -30.9322 H   0  0  0  0  0  0  0  0  0  0  0  0
   -6.1582   21.7516  -32.4775 H   0  0  0  0  0  0  0  0  0  0  0  0
  1  2  1  0
  2  3  2  0
  2  4  1  0
  4  5  2  0
  5  6  1  0
  6  7  2  0
  7  8  1  0
  8  9  2  0
  9 10  1  0
 10 11  1  0
 11 12  2  0
 11 13  1  0
 13 14  1  0
 14 15  2  0
 15 16  1  0
 16 17  2  0
 17 18  1  0
 18 19  2  0
 18 20  1  0
 20 21  1  0
 21 22  2  0
 22 23  1  0
 23 24  2  0
 24 25  1  0
 25 26  1  0
 26 27  1  0
 27 28  2  0
 27 29  1  0
 24 30  1  0
 30 31  2  0
 17 32  1  0
 32 33  2  0
  9 34  1  0
 34 35  2  0
 35 36  1  0
 36 37  1  0
 37 38  2  0
 37 39  1  0
 36  4  1  0
 35  6  1  0
 33 14  1  0
 31 21  1  0
  1 40  1  0
  1 41  1  0
  5 42  1  0
  7 43  1  0
  8 44  1  0
 10 45  1  0
 10 46  1  0
 15 47  1  0
 16 48  1  0
 22 49  1  0
 23 50  1  0
 25 51  1  0
 25 52  1  0
 30 53  1  0
 31 54  1  0
 32 55  1  0
 33 56  1  0
 34 57  1  0
M  CHG  4  17   1  27   1  29  -1  39  -1
M  END
>  <UniqueID>  (87) 
87

>  <SMILES>  (87) 
NC(=O)c1cc2ccc(CC(=O)Oc3cc[n+](C(=O)Oc4ccc(CO[N+](=O)[O-])cc4)cc3)cc2n1C(=O)[O-]

>  <Energy>  (87) 
118.17905175510501

>  <Genealogy>  (87) 
NC(=O)c1cc2ccc(CC(=O)Oc3cc[n+](C(=O)Oc4ccc(CO[N+](=O)[O-])cc4)cc3)cc2n1C(=O)[O-] (protonated)
NC(=O)c1cc2ccc(CC(=O)Oc3cc[n+](C(=O)Oc4ccc(CO[N+](=O)[O-])cc4)cc3)cc2n1C(=O)[O-] (3D coordinates assigned)
NC(=O)c1cc2ccc(CC(=O)Oc3cc[n+](C(=O)Oc4ccc(CO[N+](=O)[O-])cc4)cc3)cc2n1C(=O)[O-] (optimized conformer: 118.17905175510501 kcal/mol)

>  <smiles>  (87) 
NC(=O)c1cc2ccc(CC(=O)Oc3cc[n+](C(=O)Oc4ccc(CO[N+](=O)[O-])cc4)cc3)cc2n1C(=O)O

>  <score_type>  (87) 
oracle

>  <origin>  (87) 
adg

>  <m_score__min__energy>  (87) 
-10.83

>  <m_primary>  (87) 
energy

$$$$
87:0
     RDKit          3D

 39 40  0  0  0  0  0  0  0  0999 V2000
   -9.1410   18.9450  -32.1640 C   0  0  0  0  0  0  0  0  0  0  0  0
   -8.2850   19.8680  -32.9280 N   0  0  0  0  0  0  0  0  0  0  0  0
   -8.2610   21.2060  -32.3040 C   0  0  0  0  0  0  0  0  0  0  0  0
   -6.9250   19.3270  -33.1710 C   0  0  0  0  0  0  0  0  0  0  0  0
   -5.7610   20.2900  -32.8220 C   0  0  0  0  0  0  0  0  0  0  0  0
   -4.3870   19.6810  -33.1370 C   0  0  0  0  0  0  0  0  0  0  0  0
   -3.3110   20.3590  -32.3310 C   0  0  0  0  0  0  0  0  0  0  0  0
   -2.0130   19.7940  -32.2590 C   0  0  0  0  0  0  0  0  0  0  0  0
   -0.9970   20.4290  -31.5270 C   0  0  0  0  0  0  0  0  0  0  0  0
   -1.3010   21.6320  -30.8960 C   0  0  0  0  0  0  0  0  0  0  0  0
   -0.5150   22.4410  -30.1090 C   0  0  0  0  0  0  0  0  0  0  0  0
   -1.3340   23.5060  -29.7400 C   0  0  0  0  0  0  0  0  0  0  0  0
   -0.8590   24.6610  -28.9500 C   0  0  0  0  0  0  0  0  0  0  0  0
   -1.5990   25.8790  -28.9600 N   0  0  0  0  0  0  0  0  0  0  0  0
    0.1740   24.5730  -28.2350 O   0  0  0  0  0  0  0  0  0  0  0  0
   -2.5800   23.3580  -30.2740 N   0  0  0  0  0  0  0  0  0  0  0  0
   -3.7280   24.2010  -30.0740 C   0  0  0  0  0  0  0  0  0  0  0  0
   -3.8270   25.2970  -30.6860 O   0  0  0  0  0  0  0  0  0  0  0  0
   -4.7530   23.8000  -29.2270 O   0  0  0  0  0  0  0  0  0  0  0  0
   -2.5430   22.2070  -30.9810 C   0  0  0  0  0  0  0  0  0  0  0  0
   -3.5800   21.5870  -31.6890 C   0  0  0  0  0  0  0  0  0  0  0  0
   -8.9883   19.1097  -31.0872 H   0  0  0  0  0  0  0  0  0  0  0  0
  -10.1956   19.1286  -32.4171 H   0  0  0  0  0  0  0  0  0  0  0  0
   -8.8786   17.9072  -32.4171 H   0  0  0  0  0  0  0  0  0  0  0  0
   -8.7310   19.9850  -33.8690 H   0  0  0  0  0  0  0  0  0  0  0  0
   -8.2629   21.1000  -31.2091 H   0  0  0  0  0  0  0  0  0  0  0  0
   -7.3531   21.7413  -32.6190 H   0  0  0  0  0  0  0  0  0  0  0  0
   -9.1491   21.7735  -32.6190 H   0  0  0  0  0  0  0  0  0  0  0  0
   -6.8073   18.4167  -32.5649 H   0  0  0  0  0  0  0  0  0  0  0  0
   -6.8572   19.1448  -34.2537 H   0  0  0  0  0  0  0  0  0  0  0  0
   -5.8801   21.2150  -33.4052 H   0  0  0  0  0  0  0  0  0  0  0  0
   -5.8013   20.4890  -31.7409 H   0  0  0  0  0  0  0  0  0  0  0  0
   -4.4016   18.6089  -32.8914 H   0  0  0  0  0  0  0  0  0  0  0  0
   -4.1723   19.8228  -34.2065 H   0  0  0  0  0  0  0  0  0  0  0  0
   -1.7998   18.8497  -32.7813 H   0  0  0  0  0  0  0  0  0  0  0  0
    0.0087   19.9892  -31.4543 H   0  0  0  0  0  0  0  0  0  0  0  0
    0.5370   22.2811  -29.8301 H   0  0  0  0  0  0  0  0  0  0  0  0
   -2.6420   25.8730  -29.0220 H   0  0  0  0  0  0  0  0  0  0  0  0
   -4.5786   22.0452  -31.7434 H   0  0  0  0  0  0  0  0  0  0  0  0
  1  2  1  0
  2  3  1  0
  2  4  1  0
  4  5  1  0
  5  6  1  0
  6  7  1  0
  7  8  2  0
  8  9  1  0
  9 10  2  0
 10 11  1  0
 11 12  2  0
 12 13  1  0
 13 14  1  0
 13 15  2  0
 12 16  1  0
 16 17  1  0
 17 18  2  0
 17 19  1  0
 16 20  1  0
 20 21  2  0
 21  7  1  0
 20 10  1  0
  1 22  1  0
  1 23  1  0
  1 24  1  0
  2 25  1  0
  3 26  1  0
  3 27  1  0
  3 28  1  0
  4 29  1  0
  4 30  1  0
  5 31  1  0
  5 32  1  0
  6 33  1  0
  6 34  1  0
  8 35  1  0
  9 36  1  0
 11 37  1  0
 14 38  1  0
 21 39  1  0
M  CHG  3   2   1  14  -1  19  -1
M  END
>  <UniqueID>  (88) 
88

>  <SMILES>  (88) 
C[NH+](C)CCCc1ccc2cc(C([NH-])=O)n(C(=O)[O-])c2c1

>  <Energy>  (88) 
79.60860998512186

>  <Genealogy>  (88) 
C[NH+](C)CCCc1ccc2cc(C([NH-])=O)n(C(=O)[O-])c2c1 (protonated)
C[NH+](C)CCCc1ccc2cc(C([NH-])=O)n(C(=O)[O-])c2c1 (3D coordinates assigned)
C[NH+](C)CCCc1ccc2cc(C([NH-])=O)n(C(=O)[O-])c2c1 (optimized conformer: 79.60860998512186 kcal/mol)

>  <smiles>  (88) 
CN(C)CCCc1ccc2cc(C(N)=O)n(C(=O)O)c2c1

>  <score_type>  (88) 
oracle

>  <origin>  (88) 
adg

>  <m_score__min__energy>  (88) 
-10.619999999999999

>  <m_primary>  (88) 
energy

$$$$
88:0
     RDKit          3D

 57 61  0  0  0  0  0  0  0  0999 V2000
   -3.7250   25.2630  -30.4550 N   0  0  0  0  0  0  0  0  0  0  0  0
   -5.1350   25.3630  -30.6390 C   0  0  0  0  0  0  0  0  0  0  0  0
   -5.7090   26.4640  -30.4220 O   0  0  0  0  0  0  0  0  0  0  0  0
   -5.9390   24.1820  -31.0180 C   0  0  0  0  0  0  0  0  0  0  0  0
   -7.3190   24.1110  -30.8440 C   0  0  0  0  0  0  0  0  0  0  0  0
   -7.6700   22.8380  -31.2270 C   0  0  0  0  0  0  0  0  0  0  0  0
   -8.9210   22.2280  -31.2570 C   0  0  0  0  0  0  0  0  0  0  0  0
   -8.9950   20.9050  -31.7230 C   0  0  0  0  0  0  0  0  0  0  0  0
   -7.8310   20.2280  -32.1660 C   0  0  0  0  0  0  0  0  0  0  0  0
   -7.9250   18.8010  -32.6400 C   0  0  0  0  0  0  0  0  0  0  0  0
   -6.7540   17.9870  -32.1450 C   0  0  0  0  0  0  0  0  0  0  0  0
   -6.6340   17.7890  -30.9040 O   0  0  0  0  0  0  0  0  0  0  0  0
   -5.7440   17.4780  -33.0450 N   0  0  0  0  0  0  0  0  0  0  0  0
   -5.0280   16.2450  -32.6910 C   0  0  0  0  0  0  0  0  0  0  0  0
   -3.6490   16.2230  -33.3550 C   0  0  0  0  0  0  0  0  0  0  0  0
   -3.7570   16.4680  -34.7430 O   0  0  0  0  0  0  0  0  0  0  0  0
   -4.2130   17.7900  -34.9520 C   0  0  0  0  0  0  0  0  0  0  0  0
   -5.6410   17.9680  -34.4250 C   0  0  0  0  0  0  0  0  0  0  0  0
   -6.5770   20.8770  -32.1120 C   0  0  0  0  0  0  0  0  0  0  0  0
   -6.5290   22.1890  -31.6230 C   0  0  0  0  0  0  0  0  0  0  0  0
   -5.4550   23.0020  -31.5000 N   0  0  0  0  0  0  0  0  0  0  0  0
   -4.1070   22.7010  -31.8970 C   0  0  0  0  0  0  0  0  0  0  0  0
   -3.1610   22.8350  -31.0720 O   0  0  0  0  0  0  0  0  0  0  0  0
   -3.8520   22.2370  -33.1900 O   0  0  0  0  0  0  0  0  0  0  0  0
   -3.4870   20.8870  -33.4720 C   0  0  0  0  0  0  0  0  0  0  0  0
   -1.9900   20.7700  -33.7750 C   0  0  0  0  0  0  0  0  0  0  0  0
   -1.8340   19.9530  -32.5000 C   0  0  0  0  0  0  0  0  0  0  0  0
   -3.3240   20.0470  -32.1990 C   0  0  0  0  0  0  0  0  0  0  0  0
   -0.8400   20.4230  -31.4440 C   0  0  0  0  0  0  0  0  0  0  0  0
   -0.1760   19.0470  -31.5220 C   0  0  0  0  0  0  0  0  0  0  0  0
    1.1220   19.1040  -32.0040 F   0  0  0  0  0  0  0  0  0  0  0  0
   -0.2710   18.3360  -30.3370 F   0  0  0  0  0  0  0  0  0  0  0  0
   -1.1800   18.5790  -32.5780 C   0  0  0  0  0  0  0  0  0  0  0  0
   -3.0990   24.9910  -31.2450 H   0  0  0  0  0  0  0  0  0  0  0  0
   -7.9865   24.9049  -30.4778 H   0  0  0  0  0  0  0  0  0  0  0  0
   -9.8225   22.7648  -30.9264 H   0  0  0  0  0  0  0  0  0  0  0  0
   -9.9662   20.3889  -31.7444 H   0  0  0  0  0  0  0  0  0  0  0  0
   -8.8573   18.3570  -32.2610 H   0  0  0  0  0  0  0  0  0  0  0  0
   -7.9145   18.7962  -33.7399 H   0  0  0  0  0  0  0  0  0  0  0  0
   -4.9058   16.1970  -31.5989 H   0  0  0  0  0  0  0  0  0  0  0  0
   -5.6089   15.3799  -33.0433 H   0  0  0  0  0  0  0  0  0  0  0  0
   -3.0169   16.9996  -32.8997 H   0  0  0  0  0  0  0  0  0  0  0  0
   -3.2013   15.2294  -33.2058 H   0  0  0  0  0  0  0  0  0  0  0  0
   -3.5456   18.4882  -34.4256 H   0  0  0  0  0  0  0  0  0  0  0  0
   -4.2101   17.9950  -36.0327 H   0  0  0  0  0  0  0  0  0  0  0  0
   -5.9062   19.0352  -34.4510 H   0  0  0  0  0  0  0  0  0  0  0  0
   -6.3293   17.3909  -35.0600 H   0  0  0  0  0  0  0  0  0  0  0  0
   -5.6621   20.3653  -32.4453 H   0  0  0  0  0  0  0  0  0  0  0  0
   -4.2360   20.5954  -34.2229 H   0  0  0  0  0  0  0  0  0  0  0  0
   -1.7547   20.2207  -34.6985 H   0  0  0  0  0  0  0  0  0  0  0  0
   -1.3747   21.6634  -33.9573 H   0  0  0  0  0  0  0  0  0  0  0  0
   -3.8538   19.0832  -32.2190 H   0  0  0  0  0  0  0  0  0  0  0  0
   -3.6872   20.4100  -31.2262 H   0  0  0  0  0  0  0  0  0  0  0  0
   -0.1978   21.2575  -31.7621 H   0  0  0  0  0  0  0  0  0  0  0  0
   -1.1798   20.8402  -30.4846 H   0  0  0  0  0  0  0  0  0  0  0  0
   -0.7354   18.3408  -33.5555 H   0  0  0  0  0  0  0  0  0  0  0  0
   -1.7662   17.6584  -32.4410 H   0  0  0  0  0  0  0  0  0  0  0  0
  1  2  1  0
  2  3  2  0
  2  4  1  0
  4  5  2  0
  5  6  1  0
  6  7  2  0
  7  8  1  0
  8  9  2  0
  9 10  1  0
 10 11  1  0
 11 12  2  0
 11 13  1  0
 13 14  1  0
 14 15  1  0
 15 16  1  0
 16 17  1  0
 17 18  1  0
  9 19  1  0
 19 20  2  0
 20 21  1  0
 21 22  1  0
 22 23  2  0
 22 24  1  0
 24 25  1  0
 25 26  1  0
 26 27  1  0
 27 28  1  0
 27 29  1  0
 29 30  1  0
 30 31  1  0
 30 32  1  0
 30 33  1  0
 21  4  1  0
 28 25  1  0
 20  6  1  0
 33 27  1  0
 18 13  1  0
  1 34  1  0
  5 35  1  0
  7 36  1  0
  8 37  1  0
 10 38  1  0
 10 39  1  0
 14 40  1  0
 14 41  1  0
 15 42  1  0
 15 43  1  0
 17 44  1  0
 17 45  1  0
 18 46  1  0
 18 47  1  0
 19 48  1  0
 25 49  1  0
 26 50  1  0
 26 51  1  0
 28 52  1  0
 28 53  1  0
 29 54  1  0
 29 55  1  0
 33 56  1  0
 33 57  1  0
M  CHG  1   1  -1
M  END
>  <UniqueID>  (89) 
89

>  <SMILES>  (89) 
[NH-]C(=O)c1cc2ccc(CC(=O)N3CCOCC3)cc2n1C(=O)OC1CC2(C1)CC(F)(F)C2

>  <Energy>  (89) 
228.77598258439474

>  <Genealogy>  (89) 
[NH-]C(=O)c1cc2ccc(CC(=O)N3CCOCC3)cc2n1C(=O)OC1CC2(C1)CC(F)(F)C2 (protonated)
[NH-]C(=O)c1cc2ccc(CC(=O)N3CCOCC3)cc2n1C(=O)OC1CC2(C1)CC(F)(F)C2 (3D coordinates assigned)
[NH-]C(=O)c1cc2ccc(CC(=O)N3CCOCC3)cc2n1C(=O)OC1CC2(C1)CC(F)(F)C2 (nonaromatic ring conformer: 228.77598258439474 kcal/mol)

>  <smiles>  (89) 
NC(=O)c1cc2ccc(CC(=O)N3CCOCC3)cc2n1C(=O)OC1CC2(C1)CC(F)(F)C2

>  <score_type>  (89) 
oracle

>  <origin>  (89) 
adg

>  <m_score__min__energy>  (89) 
-12.34

>  <m_primary>  (89) 
energy

$$$$
89:0
     RDKit          3D

 29 30  0  0  0  0  0  0  0  0999 V2000
   -3.1950   22.5780  -28.9830 C   0  0  0  0  0  0  0  0  0  0  0  0
   -3.0220   23.1770  -30.2610 O   0  0  0  0  0  0  0  0  0  0  0  0
   -3.7080   22.7390  -31.3980 C   0  0  0  0  0  0  0  0  0  0  0  0
   -3.0710   22.3040  -32.3960 O   0  0  0  0  0  0  0  0  0  0  0  0
   -5.1450   22.7860  -31.4300 N   0  0  0  0  0  0  0  0  0  0  0  0
   -5.9530   23.7650  -30.9330 C   0  0  0  0  0  0  0  0  0  0  0  0
   -5.5070   25.0680  -30.4010 C   0  0  0  0  0  0  0  0  0  0  0  0
   -4.1680   25.5290  -30.5960 N   0  0  0  0  0  0  0  0  0  0  0  0
   -6.3360   25.8120  -29.8130 O   0  0  0  0  0  0  0  0  0  0  0  0
   -7.2920   23.3990  -31.0390 C   0  0  0  0  0  0  0  0  0  0  0  0
   -7.2830   22.1580  -31.6330 C   0  0  0  0  0  0  0  0  0  0  0  0
   -8.3420   21.3240  -31.9730 C   0  0  0  0  0  0  0  0  0  0  0  0
   -8.0420   20.0780  -32.5490 C   0  0  0  0  0  0  0  0  0  0  0  0
   -6.6950   19.6760  -32.7470 C   0  0  0  0  0  0  0  0  0  0  0  0
   -6.3860   18.3520  -33.3980 C   0  0  0  0  0  0  0  0  0  0  0  0
   -6.0800   18.5600  -34.7300 F   0  0  0  0  0  0  0  0  0  0  0  0
   -5.3090   17.7420  -32.7780 F   0  0  0  0  0  0  0  0  0  0  0  0
   -7.4730   17.5000  -33.3130 F   0  0  0  0  0  0  0  0  0  0  0  0
   -5.6470   20.5630  -32.4080 C   0  0  0  0  0  0  0  0  0  0  0  0
   -5.9760   21.8080  -31.8560 C   0  0  0  0  0  0  0  0  0  0  0  0
   -2.9810   23.3190  -28.1987 H   0  0  0  0  0  0  0  0  0  0  0  0
   -4.2318   22.2250  -28.8808 H   0  0  0  0  0  0  0  0  0  0  0  0
   -2.5060   21.7266  -28.8808 H   0  0  0  0  0  0  0  0  0  0  0  0
   -3.8610   26.4350  -30.1780 H   0  0  0  0  0  0  0  0  0  0  0  0
   -3.5090   25.0190  -31.2230 H   0  0  0  0  0  0  0  0  0  0  0  0
   -8.1698   23.9783  -30.7167 H   0  0  0  0  0  0  0  0  0  0  0  0
   -9.3836   21.6304  -31.7964 H   0  0  0  0  0  0  0  0  0  0  0  0
   -8.8598   19.4067  -32.8498 H   0  0  0  0  0  0  0  0  0  0  0  0
   -4.5966   20.2816  -32.5741 H   0  0  0  0  0  0  0  0  0  0  0  0
  1  2  1  0
  2  3  1  0
  3  4  2  0
  3  5  1  0
  5  6  1  0
  6  7  1  0
  7  8  1  0
  7  9  2  0
  6 10  2  0
 10 11  1  0
 11 12  2  0
 12 13  1  0
 13 14  2  0
 14 15  1  0
 15 16  1  0
 15 17  1  0
 15 18  1  0
 14 19  1  0
 19 20  2  0
 20  5  1  0
 20 11  1  0
  1 21  1  0
  1 22  1  0
  1 23  1  0
  8 24  1  0
  8 25  1  0
 10 26  1  0
 12 27  1  0
 13 28  1  0
 19 29  1  0
M  END
>  <UniqueID>  (90) 
90

>  <SMILES>  (90) 
COC(=O)n1c(C(N)=O)cc2ccc(C(F)(F)F)cc21

>  <Energy>  (90) 
67.48599070813744

>  <Genealogy>  (90) 
COC(=O)n1c(C(N)=O)cc2ccc(C(F)(F)F)cc21 (3D coordinates assigned)
COC(=O)n1c(C(N)=O)cc2ccc(C(F)(F)F)cc21 (optimized conformer: 67.48599070813744 kcal/mol)

>  <smiles>  (90) 
COC(=O)n1c(C(N)=O)cc2ccc(C(F)(F)F)cc21

>  <score_type>  (90) 
oracle

>  <origin>  (90) 
adg

>  <m_score__min__energy>  (90) 
-7.5

>  <m_primary>  (90) 
energy

$$$$
90:0
     RDKit          3D

 53 54  0  0  0  0  0  0  0  0999 V2000
    0.4940   21.9990  -35.7250 C   0  0  0  0  0  0  0  0  0  0  0  0
    0.0090   21.8790  -34.5400 N   0  0  0  0  0  0  0  0  0  0  0  0
   -1.0910   20.9860  -34.2540 C   0  0  0  0  0  0  0  0  0  0  0  0
   -1.3290   20.9340  -32.7390 C   0  0  0  0  0  0  0  0  0  0  0  0
   -2.8180   21.0950  -32.3310 C   0  0  0  0  0  0  0  0  0  0  0  0
   -3.5330   21.8980  -33.4390 C   0  0  0  0  0  0  0  0  0  0  0  0
   -2.9270   21.8490  -30.9880 C   0  0  0  0  0  0  0  0  0  0  0  0
   -3.3950   19.7840  -32.2230 O   0  0  0  0  0  0  0  0  0  0  0  0
   -4.1640   19.1290  -33.1960 C   0  0  0  0  0  0  0  0  0  0  0  0
   -3.6900   18.8780  -34.3360 O   0  0  0  0  0  0  0  0  0  0  0  0
   -5.5090   18.7390  -32.8830 N   0  0  0  0  0  0  0  0  0  0  0  0
   -6.0630   17.5030  -33.0200 C   0  0  0  0  0  0  0  0  0  0  0  0
   -5.3300   16.2640  -33.3480 C   0  0  0  0  0  0  0  0  0  0  0  0
   -4.5400   16.1650  -34.5340 N   0  0  0  0  0  0  0  0  0  0  0  0
   -5.3560   15.2970  -32.5400 O   0  0  0  0  0  0  0  0  0  0  0  0
   -7.4280   17.5400  -32.7480 C   0  0  0  0  0  0  0  0  0  0  0  0
   -7.6960   18.8500  -32.4260 C   0  0  0  0  0  0  0  0  0  0  0  0
   -8.8990   19.4570  -32.0740 C   0  0  0  0  0  0  0  0  0  0  0  0
   -8.8890   20.8390  -31.8180 C   0  0  0  0  0  0  0  0  0  0  0  0
   -7.6920   21.5860  -31.9400 C   0  0  0  0  0  0  0  0  0  0  0  0
   -7.6890   23.0620  -31.6380 C   0  0  0  0  0  0  0  0  0  0  0  0
   -6.5580   23.7770  -32.3850 C   0  0  0  0  0  0  0  0  0  0  0  0
   -5.3600   23.8060  -31.6080 O   0  0  0  0  0  0  0  0  0  0  0  0
   -5.0600   24.8180  -30.6860 C   0  0  0  0  0  0  0  0  0  0  0  0
   -6.1220   25.3030  -29.7580 C   0  0  0  0  0  0  0  0  0  0  0  0
   -3.9000   25.3050  -30.6130 O   0  0  0  0  0  0  0  0  0  0  0  0
   -6.4890   20.9350  -32.2940 C   0  0  0  0  0  0  0  0  0  0  0  0
   -6.5230   19.5540  -32.5180 C   0  0  0  0  0  0  0  0  0  0  0  0
    1.3317   22.6877  -35.9093 H   0  0  0  0  0  0  0  0  0  0  0  0
    0.0712   21.4129  -36.5543 H   0  0  0  0  0  0  0  0  0  0  0  0
   -1.9994   21.3514  -34.7553 H   0  0  0  0  0  0  0  0  0  0  0  0
   -0.8490   19.9778  -34.6213 H   0  0  0  0  0  0  0  0  0  0  0  0
   -0.9703   19.9637  -32.3650 H   0  0  0  0  0  0  0  0  0  0  0  0
   -0.7839   21.7829  -32.3006 H   0  0  0  0  0  0  0  0  0  0  0  0
   -4.1977   22.6446  -32.9799 H   0  0  0  0  0  0  0  0  0  0  0  0
   -2.7846   22.4080  -34.0633 H   0  0  0  0  0  0  0  0  0  0  0  0
   -4.1261   21.2135  -34.0633 H   0  0  0  0  0  0  0  0  0  0  0  0
   -2.8238   21.1353  -30.1574 H   0  0  0  0  0  0  0  0  0  0  0  0
   -2.1285   22.6029  -30.9249 H   0  0  0  0  0  0  0  0  0  0  0  0
   -3.9063   22.3459  -30.9249 H   0  0  0  0  0  0  0  0  0  0  0  0
   -4.3710   16.9980  -35.1390 H   0  0  0  0  0  0  0  0  0  0  0  0
   -4.0640   15.2680  -34.7730 H   0  0  0  0  0  0  0  0  0  0  0  0
   -8.1393   16.7016  -32.7831 H   0  0  0  0  0  0  0  0  0  0  0  0
   -9.8281   18.8730  -31.9987 H   0  0  0  0  0  0  0  0  0  0  0  0
   -9.8193   21.3449  -31.5202 H   0  0  0  0  0  0  0  0  0  0  0  0
   -8.6524   23.4936  -31.9470 H   0  0  0  0  0  0  0  0  0  0  0  0
   -7.5331   23.1966  -30.5575 H   0  0  0  0  0  0  0  0  0  0  0  0
   -6.3605   23.2469  -33.3284 H   0  0  0  0  0  0  0  0  0  0  0  0
   -6.8711   24.8135  -32.5792 H   0  0  0  0  0  0  0  0  0  0  0  0
   -5.7961   25.1542  -28.7180 H   0  0  0  0  0  0  0  0  0  0  0  0
   -6.3035   26.3733  -29.9358 H   0  0  0  0  0  0  0  0  0  0  0  0
   -7.0497   24.7393  -29.9358 H   0  0  0  0  0  0  0  0  0  0  0  0
   -5.5497   21.4992  -32.3910 H   0  0  0  0  0  0  0  0  0  0  0  0
  1  2  2  0
  2  3  1  0
  3  4  1  0
  4  5  1  0
  5  6  1  0
  5  7  1  0
  5  8  1  0
  8  9  1  0
  9 10  2  0
  9 11  1  0
 11 12  1  0
 12 13  1  0
 13 14  1  0
 13 15  2  0
 12 16  2  0
 16 17  1  0
 17 18  2  0
 18 19  1  0
 19 20  2  0
 20 21  1  0
 21 22  1  0
 22 23  1  0
 23 24  1  0
 24 25  1  0
 24 26  2  0
 20 27  1  0
 27 28  2  0
 28 11  1  0
 28 17  1  0
  1 29  1  0
  1 30  1  0
  3 31  1  0
  3 32  1  0
  4 33  1  0
  4 34  1  0
  6 35  1  0
  6 36  1  0
  6 37  1  0
  7 38  1  0
  7 39  1  0
  7 40  1  0
 14 41  1  0
 14 42  1  0
 16 43  1  0
 18 44  1  0
 19 45  1  0
 21 46  1  0
 21 47  1  0
 22 48  1  0
 22 49  1  0
 25 50  1  0
 25 51  1  0
 25 52  1  0
 27 53  1  0
M  END
>  <UniqueID>  (91) 
91

>  <SMILES>  (91) 
C=NCCC(C)(C)OC(=O)n1c(C(N)=O)cc2ccc(CCOC(C)=O)cc21

>  <Energy>  (91) 
77.39288425883628

>  <Genealogy>  (91) 
C=NCCC(C)(C)OC(=O)n1c(C(N)=O)cc2ccc(CCOC(C)=O)cc21 (3D coordinates assigned)
C=NCCC(C)(C)OC(=O)n1c(C(N)=O)cc2ccc(CCOC(C)=O)cc21 (optimized conformer: 77.39288425883628 kcal/mol)

>  <smiles>  (91) 
C=NCCC(C)(C)OC(=O)n1c(C(N)=O)cc2ccc(CCOC(C)=O)cc21

>  <score_type>  (91) 
oracle

>  <origin>  (91) 
adg

>  <m_score__min__energy>  (91) 
-8.6300000000000008

>  <m_primary>  (91) 
energy

$$$$
91:0
     RDKit          3D

 49 50  0  0  0  0  0  0  0  0999 V2000
   -5.6820   18.6030  -34.5630 C   0  0  0  0  0  0  0  0  0  0  0  0
   -6.0340   17.5930  -33.6260 O   0  0  0  0  0  0  0  0  0  0  0  0
   -6.6920   17.8780  -32.4240 C   0  0  0  0  0  0  0  0  0  0  0  0
   -6.1870   17.5430  -31.3180 O   0  0  0  0  0  0  0  0  0  0  0  0
   -8.0270   18.5520  -32.4560 C   0  0  0  0  0  0  0  0  0  0  0  0
   -7.8900   19.9810  -32.0130 C   0  0  0  0  0  0  0  0  0  0  0  0
   -9.0390   20.8000  -31.8740 C   0  0  0  0  0  0  0  0  0  0  0  0
   -8.9130   22.1540  -31.5130 C   0  0  0  0  0  0  0  0  0  0  0  0
   -7.6320   22.6580  -31.3050 C   0  0  0  0  0  0  0  0  0  0  0  0
   -7.2190   23.9390  -31.0050 C   0  0  0  0  0  0  0  0  0  0  0  0
   -5.8290   23.8760  -30.9500 C   0  0  0  0  0  0  0  0  0  0  0  0
   -4.9720   25.0270  -30.6010 C   0  0  0  0  0  0  0  0  0  0  0  0
   -3.6820   24.8430  -30.0120 N   0  0  0  0  0  0  0  0  0  0  0  0
   -5.4080   26.1970  -30.7750 O   0  0  0  0  0  0  0  0  0  0  0  0
   -5.3990   22.6100  -31.2130 N   0  0  0  0  0  0  0  0  0  0  0  0
   -4.0470   22.1690  -31.3990 C   0  0  0  0  0  0  0  0  0  0  0  0
   -3.6220   21.9200  -32.5610 O   0  0  0  0  0  0  0  0  0  0  0  0
   -3.1990   22.0470  -30.2920 O   0  0  0  0  0  0  0  0  0  0  0  0
   -1.7850   21.9210  -30.4170 C   0  0  0  0  0  0  0  0  0  0  0  0
   -1.1000   22.3000  -29.1010 C   0  0  0  0  0  0  0  0  0  0  0  0
   -0.6410   23.7680  -29.0600 C   0  0  0  0  0  0  0  0  0  0  0  0
   -1.6530   24.6670  -28.4600 N   0  0  0  0  0  0  0  0  0  0  0  0
   -2.3960   23.9440  -27.4150 C   0  0  0  0  0  0  0  0  0  0  0  0
   -1.0250   25.8640  -27.8680 C   0  0  0  0  0  0  0  0  0  0  0  0
   -6.5120   21.8760  -31.4240 C   0  0  0  0  0  0  0  0  0  0  0  0
   -6.6060   20.5290  -31.7940 C   0  0  0  0  0  0  0  0  0  0  0  0
   -5.3663   19.5088  -34.0245 H   0  0  0  0  0  0  0  0  0  0  0  0
   -4.8556   18.2452  -35.1947 H   0  0  0  0  0  0  0  0  0  0  0  0
   -6.5518   18.8364  -35.1947 H   0  0  0  0  0  0  0  0  0  0  0  0
   -8.4247   18.5247  -33.4812 H   0  0  0  0  0  0  0  0  0  0  0  0
   -8.7139   18.0267  -31.7761 H   0  0  0  0  0  0  0  0  0  0  0  0
  -10.0374   20.3732  -32.0499 H   0  0  0  0  0  0  0  0  0  0  0  0
   -9.7997   22.7949  -31.3986 H   0  0  0  0  0  0  0  0  0  0  0  0
   -7.8531   24.8232  -30.8434 H   0  0  0  0  0  0  0  0  0  0  0  0
   -3.0910   25.6730  -29.7770 H   0  0  0  0  0  0  0  0  0  0  0  0
   -3.3510   23.8980  -29.7170 H   0  0  0  0  0  0  0  0  0  0  0  0
   -1.5343   20.8803  -30.6702 H   0  0  0  0  0  0  0  0  0  0  0  0
   -1.4341   22.5966  -31.2109 H   0  0  0  0  0  0  0  0  0  0  0  0
   -1.8084   22.1316  -28.2765 H   0  0  0  0  0  0  0  0  0  0  0  0
   -0.2013   21.6727  -29.0067 H   0  0  0  0  0  0  0  0  0  0  0  0
    0.2825   23.8314  -28.4657 H   0  0  0  0  0  0  0  0  0  0  0  0
   -0.4803   24.0948  -30.0980 H   0  0  0  0  0  0  0  0  0  0  0  0
   -2.0534   24.2774  -26.4243 H   0  0  0  0  0  0  0  0  0  0  0  0
   -3.4713   24.1509  -27.5199 H   0  0  0  0  0  0  0  0  0  0  0  0
   -2.2185   22.8635  -27.5199 H   0  0  0  0  0  0  0  0  0  0  0  0
   -1.0623   25.7930  -26.7709 H   0  0  0  0  0  0  0  0  0  0  0  0
    0.0230   25.9284  -28.1959 H   0  0  0  0  0  0  0  0  0  0  0  0
   -1.5676   26.7629  -28.1959 H   0  0  0  0  0  0  0  0  0  0  0  0
   -5.7026   19.9124  -31.9113 H   0  0  0  0  0  0  0  0  0  0  0  0
  1  2  1  0
  2  3  1  0
  3  4  2  0
  3  5  1  0
  5  6  1  0
  6  7  2  0
  7  8  1  0
  8  9  2  0
  9 10  1  0
 10 11  2  0
 11 12  1  0
 12 13  1  0
 12 14  2  0
 11 15  1  0
 15 16  1  0
 16 17  2  0
 16 18  1  0
 18 19  1  0
 19 20  1  0
 20 21  1  0
 21 22  1  0
 22 23  1  0
 22 24  1  0
 15 25  1  0
 25 26  2  0
 26  6  1  0
 25  9  1  0
  1 27  1  0
  1 28  1  0
  1 29  1  0
  5 30  1  0
  5 31  1  0
  7 32  1  0
  8 33  1  0
 10 34  1  0
 13 35  1  0
 13 36  1  0
 19 37  1  0
 19 38  1  0
 20 39  1  0
 20 40  1  0
 21 41  1  0
 21 42  1  0
 23 43  1  0
 23 44  1  0
 23 45  1  0
 24 46  1  0
 24 47  1  0
 24 48  1  0
 26 49  1  0
M  END
>  <UniqueID>  (92) 
92

>  <SMILES>  (92) 
COC(=O)Cc1ccc2cc(C(N)=O)n(C(=O)OCCCN(C)C)c2c1

>  <Energy>  (92) 
77.71257308414164

>  <Genealogy>  (92) 
COC(=O)Cc1ccc2cc(C(N)=O)n(C(=O)OCCCN(C)C)c2c1 (3D coordinates assigned)
COC(=O)Cc1ccc2cc(C(N)=O)n(C(=O)OCCCN(C)C)c2c1 (optimized conformer: 77.71257308414164 kcal/mol)

>  <smiles>  (92) 
COC(=O)Cc1ccc2cc(C(N)=O)n(C(=O)OCCCN(C)C)c2c1

>  <score_type>  (92) 
oracle

>  <origin>  (92) 
adg

>  <m_score__min__energy>  (92) 
-8.2799999999999994

>  <m_primary>  (92) 
energy

$$$$
92:0
     RDKit          3D

 39 40  0  0  0  0  0  0  0  0999 V2000
   -3.8370   25.3680  -30.8500 N   0  0  0  0  0  0  0  0  0  0  0  0
   -5.2080   25.2330  -30.4830 C   0  0  0  0  0  0  0  0  0  0  0  0
   -5.7400   26.1090  -29.7500 O   0  0  0  0  0  0  0  0  0  0  0  0
   -5.9930   24.0510  -30.8970 C   0  0  0  0  0  0  0  0  0  0  0  0
   -7.3660   24.0920  -31.1320 C   0  0  0  0  0  0  0  0  0  0  0  0
   -7.7300   22.7910  -31.3900 C   0  0  0  0  0  0  0  0  0  0  0  0
   -8.9790   22.2550  -31.6900 C   0  0  0  0  0  0  0  0  0  0  0  0
   -9.0630   20.8740  -31.9320 C   0  0  0  0  0  0  0  0  0  0  0  0
   -7.9030   20.0630  -31.8840 C   0  0  0  0  0  0  0  0  0  0  0  0
   -8.0030   18.5780  -32.1230 C   0  0  0  0  0  0  0  0  0  0  0  0
   -6.6270   17.9160  -32.0670 C   0  0  0  0  0  0  0  0  0  0  0  0
   -6.3330   17.3280  -33.3120 O   0  0  0  0  0  0  0  0  0  0  0  0
   -5.4990   18.4620  -34.2540 S   0  0  0  0  0  0  0  0  0  0  0  0
   -4.3090   18.9890  -33.5000 O   0  0  0  0  0  0  0  0  0  0  0  0
   -6.4230   19.6040  -34.5660 O   0  0  0  0  0  0  0  0  0  0  0  0
   -4.9930   17.7630  -35.6970 O   0  0  0  0  0  0  0  0  0  0  0  0
   -6.6550   20.6400  -31.5660 C   0  0  0  0  0  0  0  0  0  0  0  0
   -6.6020   22.0160  -31.3140 C   0  0  0  0  0  0  0  0  0  0  0  0
   -5.5240   22.7760  -31.0160 N   0  0  0  0  0  0  0  0  0  0  0  0
   -4.1590   22.3280  -30.9410 C   0  0  0  0  0  0  0  0  0  0  0  0
   -3.4240   22.3730  -31.9640 O   0  0  0  0  0  0  0  0  0  0  0  0
   -3.6610   21.8190  -29.7380 O   0  0  0  0  0  0  0  0  0  0  0  0
   -2.5230   22.3640  -29.0690 C   0  0  0  0  0  0  0  0  0  0  0  0
   -1.9300   23.4000  -29.8200 O   0  0  0  0  0  0  0  0  0  0  0  0
   -1.1110   24.4770  -28.7740 P   0  0  0  0  0  0  0  0  0  0  0  0
   -1.6830   24.3460  -27.3800 O   0  0  0  0  0  0  0  0  0  0  0  0
   -1.2450   26.0860  -29.2820 O   0  0  0  0  0  0  0  0  0  0  0  0
    0.5250   24.0540  -28.7340 O   0  0  0  0  0  0  0  0  0  0  0  0
   -3.0790   25.2670  -30.1400 H   0  0  0  0  0  0  0  0  0  0  0  0
   -8.0196   24.9766  -31.1148 H   0  0  0  0  0  0  0  0  0  0  0  0
   -9.8734   22.8937  -31.7362 H   0  0  0  0  0  0  0  0  0  0  0  0
  -10.0378   20.4186  -32.1607 H   0  0  0  0  0  0  0  0  0  0  0  0
   -8.6472   18.1327  -31.3505 H   0  0  0  0  0  0  0  0  0  0  0  0
   -8.4283   18.4139  -33.1241 H   0  0  0  0  0  0  0  0  0  0  0  0
   -5.8656   18.6742  -31.8317 H   0  0  0  0  0  0  0  0  0  0  0  0
   -6.6275   17.1393  -31.2880 H   0  0  0  0  0  0  0  0  0  0  0  0
   -5.7455   20.0232  -31.5173 H   0  0  0  0  0  0  0  0  0  0  0  0
   -2.8390   22.7645  -28.0944 H   0  0  0  0  0  0  0  0  0  0  0  0
   -1.7810   21.5622  -28.9404 H   0  0  0  0  0  0  0  0  0  0  0  0
  1  2  1  0
  2  3  2  0
  2  4  1  0
  4  5  2  0
  5  6  1  0
  6  7  2  0
  7  8  1  0
  8  9  2  0
  9 10  1  0
 10 11  1  0
 11 12  1  0
 12 13  1  0
 13 14  2  0
 13 15  2  0
 13 16  1  0
  9 17  1  0
 17 18  2  0
 18 19  1  0
 19 20  1  0
 20 21  2  0
 20 22  1  0
 22 23  1  0
 23 24  1  0
 24 25  1  0
 25 26  2  0
 25 27  1  0
 25 28  1  0
 19  4  1  0
 18  6  1  0
  1 29  1  0
  5 30  1  0
  7 31  1  0
  8 32  1  0
 10 33  1  0
 10 34  1  0
 11 35  1  0
 11 36  1  0
 17 37  1  0
 23 38  1  0
 23 39  1  0
M  CHG  4   1  -1  16  -1  27  -1  28  -1
M  END
>  <UniqueID>  (93) 
93

>  <SMILES>  (93) 
[NH-]C(=O)c1cc2ccc(CCOS(=O)(=O)[O-])cc2n1C(=O)OCOP(=O)([O-])[O-]

>  <Energy>  (93) 
73.83339032806637

>  <Genealogy>  (93) 
[NH-]C(=O)c1cc2ccc(CCOS(=O)(=O)[O-])cc2n1C(=O)OCOP(=O)([O-])[O-] (protonated)
[NH-]C(=O)c1cc2ccc(CCOS(=O)(=O)[O-])cc2n1C(=O)OCOP(=O)([O-])[O-] (3D coordinates assigned)
[NH-]C(=O)c1cc2ccc(CCOS(=O)(=O)[O-])cc2n1C(=O)OCOP(=O)([O-])[O-] (optimized conformer: 73.83339032806637 kcal/mol)

>  <smiles>  (93) 
NC(=O)c1cc2ccc(CCOS(=O)(=O)O)cc2n1C(=O)OCOP(=O)(O)O

>  <score_type>  (93) 
oracle

>  <origin>  (93) 
adg

>  <m_score__min__energy>  (93) 
-14.210000000000001

>  <m_primary>  (93) 
energy

$$$$
93:0
     RDKit          3D

 37 39  0  0  0  0  0  0  0  0999 V2000
   -1.3500   18.3340  -34.2930 C   0  0  0  0  0  0  0  0  0  0  0  0
   -0.9710   19.7780  -34.3080 C   0  0  0  0  0  0  0  0  0  0  0  0
    0.1420   20.2520  -34.8160 O   0  0  0  0  0  0  0  0  0  0  0  0
    0.0960   21.5520  -34.6340 C   0  0  0  0  0  0  0  0  0  0  0  0
    1.0050   22.3410  -35.0000 O   0  0  0  0  0  0  0  0  0  0  0  0
   -1.0040   21.9380  -34.0290 O   0  0  0  0  0  0  0  0  0  0  0  0
   -1.6980   20.8460  -33.8110 C   0  0  0  0  0  0  0  0  0  0  0  0
   -3.0380   20.8140  -33.1410 C   0  0  0  0  0  0  0  0  0  0  0  0
   -3.5000   22.1410  -32.9030 O   0  0  0  0  0  0  0  0  0  0  0  0
   -3.8730   22.6070  -31.6370 C   0  0  0  0  0  0  0  0  0  0  0  0
   -3.0050   22.7700  -30.7360 O   0  0  0  0  0  0  0  0  0  0  0  0
   -5.2550   22.8740  -31.3560 N   0  0  0  0  0  0  0  0  0  0  0  0
   -5.8190   24.0630  -31.0020 C   0  0  0  0  0  0  0  0  0  0  0  0
   -5.0880   25.3010  -30.6590 C   0  0  0  0  0  0  0  0  0  0  0  0
   -3.6750   25.2930  -30.4760 N   0  0  0  0  0  0  0  0  0  0  0  0
   -5.7260   26.3730  -30.4810 O   0  0  0  0  0  0  0  0  0  0  0  0
   -7.2040   23.9420  -30.9210 C   0  0  0  0  0  0  0  0  0  0  0  0
   -7.4740   22.6300  -31.2350 C   0  0  0  0  0  0  0  0  0  0  0  0
   -8.6920   21.9610  -31.3120 C   0  0  0  0  0  0  0  0  0  0  0  0
   -8.6770   20.6060  -31.6870 C   0  0  0  0  0  0  0  0  0  0  0  0
   -7.4560   19.9550  -32.0020 C   0  0  0  0  0  0  0  0  0  0  0  0
   -7.4500   18.4920  -32.3690 C   0  0  0  0  0  0  0  0  0  0  0  0
   -6.9290   18.3440  -33.6400 F   0  0  0  0  0  0  0  0  0  0  0  0
   -6.6770   17.7670  -31.4780 F   0  0  0  0  0  0  0  0  0  0  0  0
   -8.7350   17.9770  -32.3460 F   0  0  0  0  0  0  0  0  0  0  0  0
   -6.2370   20.6640  -31.8890 C   0  0  0  0  0  0  0  0  0  0  0  0
   -6.2820   22.0070  -31.4950 C   0  0  0  0  0  0  0  0  0  0  0  0
   -1.4404   17.9894  -33.2523 H   0  0  0  0  0  0  0  0  0  0  0  0
   -2.3131   18.2023  -34.8078 H   0  0  0  0  0  0  0  0  0  0  0  0
   -0.5757   17.7463  -34.8078 H   0  0  0  0  0  0  0  0  0  0  0  0
   -3.7560   20.2898  -33.7889 H   0  0  0  0  0  0  0  0  0  0  0  0
   -2.9466   20.2875  -32.1795 H   0  0  0  0  0  0  0  0  0  0  0  0
   -3.0400   24.8990  -31.2050 H   0  0  0  0  0  0  0  0  0  0  0  0
   -7.9281   24.7282  -30.6612 H   0  0  0  0  0  0  0  0  0  0  0  0
   -9.6372   22.4764  -31.0864 H   0  0  0  0  0  0  0  0  0  0  0  0
   -9.6217   20.0446  -31.7367 H   0  0  0  0  0  0  0  0  0  0  0  0
   -5.2771   20.1722  -32.1054 H   0  0  0  0  0  0  0  0  0  0  0  0
  1  2  1  0
  2  3  1  0
  3  4  1  0
  4  5  2  0
  4  6  1  0
  6  7  1  0
  7  8  1  0
  8  9  1  0
  9 10  1  0
 10 11  2  0
 10 12  1  0
 12 13  1  0
 13 14  1  0
 14 15  1  0
 14 16  2  0
 13 17  2  0
 17 18  1  0
 18 19  2  0
 19 20  1  0
 20 21  2  0
 21 22  1  0
 22 23  1  0
 22 24  1  0
 22 25  1  0
 21 26  1  0
 26 27  2  0
  7  2  2  0
 27 12  1  0
 27 18  1  0
  1 28  1  0
  1 29  1  0
  1 30  1  0
  8 31  1  0
  8 32  1  0
 15 33  1  0
 17 34  1  0
 19 35  1  0
 20 36  1  0
 26 37  1  0
M  CHG  1  15  -1
M  END
>  <UniqueID>  (94) 
94

>  <SMILES>  (94) 
Cc1oc(=O)oc1COC(=O)n1c(C([NH-])=O)cc2ccc(C(F)(F)F)cc21

>  <Energy>  (94) 
108.75298953184209

>  <Genealogy>  (94) 
Cc1oc(=O)oc1COC(=O)n1c(C([NH-])=O)cc2ccc(C(F)(F)F)cc21 (protonated)
Cc1oc(=O)oc1COC(=O)n1c(C([NH-])=O)cc2ccc(C(F)(F)F)cc21 (3D coordinates assigned)
Cc1oc(=O)oc1COC(=O)n1c(C([NH-])=O)cc2ccc(C(F)(F)F)cc21 (optimized conformer: 108.75298953184209 kcal/mol)

>  <smiles>  (94) 
Cc1oc(=O)oc1COC(=O)n1c(C(N)=O)cc2ccc(C(F)(F)F)cc21

>  <score_type>  (94) 
oracle

>  <origin>  (94) 
adg

>  <m_score__min__energy>  (94) 
-10.5

>  <m_primary>  (94) 
energy

$$$$
94:0
     RDKit          3D

 38 39  0  0  0  0  0  0  0  0999 V2000
   -3.8480   23.8540  -27.7440 C   0  0  0  0  0  0  0  0  0  0  0  0
   -3.1870   22.7340  -28.5420 C   0  0  0  0  0  0  0  0  0  0  0  0
   -2.8780   23.1740  -29.8620 O   0  0  0  0  0  0  0  0  0  0  0  0
   -3.4950   22.6630  -31.0100 C   0  0  0  0  0  0  0  0  0  0  0  0
   -2.8070   22.1050  -31.9090 O   0  0  0  0  0  0  0  0  0  0  0  0
   -4.9130   22.8000  -31.1760 N   0  0  0  0  0  0  0  0  0  0  0  0
   -5.6910   23.8830  -30.8870 C   0  0  0  0  0  0  0  0  0  0  0  0
   -5.2040   25.2190  -30.4800 C   0  0  0  0  0  0  0  0  0  0  0  0
   -3.8980   25.6640  -30.8380 N   0  0  0  0  0  0  0  0  0  0  0  0
   -5.9690   25.9950  -29.8490 O   0  0  0  0  0  0  0  0  0  0  0  0
   -7.0350   23.5920  -31.1080 C   0  0  0  0  0  0  0  0  0  0  0  0
   -7.0580   22.2910  -31.5550 C   0  0  0  0  0  0  0  0  0  0  0  0
   -8.1350   21.4880  -31.9170 C   0  0  0  0  0  0  0  0  0  0  0  0
   -7.8680   20.1690  -32.3170 C   0  0  0  0  0  0  0  0  0  0  0  0
   -6.5390   19.6710  -32.3420 C   0  0  0  0  0  0  0  0  0  0  0  0
   -6.2790   18.2370  -32.7630 C   0  0  1  0  0  0  0  0  0  0  0  0
   -7.5470   17.3850  -32.6130 C   0  0  0  0  0  0  0  0  0  0  0  0
   -5.7260   18.1800  -34.2010 C   0  0  0  0  0  0  0  0  0  0  0  0
   -6.1440   19.2970  -34.9400 O   0  0  0  0  0  0  0  0  0  0  0  0
   -5.4720   20.5210  -31.9630 C   0  0  0  0  0  0  0  0  0  0  0  0
   -5.7660   21.8360  -31.5880 C   0  0  0  0  0  0  0  0  0  0  0  0
   -3.7312   23.6560  -26.6683 H   0  0  0  0  0  0  0  0  0  0  0  0
   -3.3712   24.8132  -27.9942 H   0  0  0  0  0  0  0  0  0  0  0  0
   -4.9182   23.9002  -27.9942 H   0  0  0  0  0  0  0  0  0  0  0  0
   -2.2592   22.4286  -28.0362 H   0  0  0  0  0  0  0  0  0  0  0  0
   -3.8831   21.8846  -28.6050 H   0  0  0  0  0  0  0  0  0  0  0  0
   -3.0510   25.2750  -30.3670 H   0  0  0  0  0  0  0  0  0  0  0  0
   -7.8955   24.2605  -30.9572 H   0  0  0  0  0  0  0  0  0  0  0  0
   -9.1644   21.8748  -31.8906 H   0  0  0  0  0  0  0  0  0  0  0  0
   -8.6993   19.5131  -32.6148 H   0  0  0  0  0  0  0  0  0  0  0  0
   -5.5140   17.8139  -32.0954 H   0  0  0  0  0  0  0  0  0  0  0  0
   -7.7658   17.2380  -31.5450 H   0  0  0  0  0  0  0  0  0  0  0  0
   -8.3929   17.8987  -33.0932 H   0  0  0  0  0  0  0  0  0  0  0  0
   -7.3910   16.4077  -33.0932 H   0  0  0  0  0  0  0  0  0  0  0  0
   -4.6268   18.1626  -34.1643 H   0  0  0  0  0  0  0  0  0  0  0  0
   -6.1071   17.2711  -34.6896 H   0  0  0  0  0  0  0  0  0  0  0  0
   -7.1370   19.3040  -34.9080 H   0  0  0  0  0  0  0  0  0  0  0  0
   -4.4346   20.1552  -31.9635 H   0  0  0  0  0  0  0  0  0  0  0  0
  1  2  1  0
  2  3  1  0
  3  4  1  0
  4  5  2  0
  4  6  1  0
  6  7  1  0
  7  8  1  0
  8  9  1  0
  8 10  2  0
  7 11  2  0
 11 12  1  0
 12 13  2  0
 13 14  1  0
 14 15  2  0
 15 16  1  0
 16 17  1  0
 16 18  1  0
 18 19  1  0
 15 20  1  0
 20 21  2  0
 21  6  1  0
 21 12  1  0
  1 22  1  0
  1 23  1  0
  1 24  1  0
  2 25  1  0
  2 26  1  0
  9 27  1  0
 11 28  1  0
 13 29  1  0
 14 30  1  0
 16 31  1  1
 17 32  1  0
 17 33  1  0
 17 34  1  0
 18 35  1  0
 18 36  1  0
 19 37  1  0
 20 38  1  0
M  CHG  1   9  -1
M  END
>  <UniqueID>  (95) 
95

>  <SMILES>  (95) 
CCOC(=O)n1c(C([NH-])=O)cc2ccc([C@@H](C)CO)cc21

>  <Energy>  (95) 
70.16087620830804

>  <Genealogy>  (95) 
CCOC(=O)n1c(C([NH-])=O)cc2ccc([C@@H](C)CO)cc21 (protonated)
CCOC(=O)n1c(C([NH-])=O)cc2ccc([C@@H](C)CO)cc21 (3D coordinates assigned)
CCOC(=O)n1c(C([NH-])=O)cc2ccc([C@@H](C)CO)cc21 (optimized conformer: 70.16087620830804 kcal/mol)

>  <smiles>  (95) 
CCOC(=O)n1c(C(N)=O)cc2ccc([C@@H](C)CO)cc21

>  <score_type>  (95) 
oracle

>  <origin>  (95) 
adg

>  <m_score__min__energy>  (95) 
-9.7400000000000002

>  <m_primary>  (95) 
energy

$$$$
95:0
     RDKit          3D

 41 42  0  0  0  0  0  0  0  0999 V2000
   -3.1120   22.6710  -29.1470 C   0  0  0  0  0  0  0  0  0  0  0  0
   -3.0380   23.1710  -30.4770 O   0  0  0  0  0  0  0  0  0  0  0  0
   -3.8580   22.7000  -31.5070 C   0  0  0  0  0  0  0  0  0  0  0  0
   -3.3470   22.2290  -32.5590 O   0  0  0  0  0  0  0  0  0  0  0  0
   -5.2890   22.7510  -31.3650 N   0  0  0  0  0  0  0  0  0  0  0  0
   -6.0460   23.8130  -30.9700 C   0  0  0  0  0  0  0  0  0  0  0  0
   -5.5330   25.0910  -30.4380 C   0  0  0  0  0  0  0  0  0  0  0  0
   -4.2090   25.5380  -30.7330 N   0  0  0  0  0  0  0  0  0  0  0  0
   -6.2560   25.7720  -29.6620 O   0  0  0  0  0  0  0  0  0  0  0  0
   -7.4030   23.5200  -31.0830 C   0  0  0  0  0  0  0  0  0  0  0  0
   -7.4580   22.2280  -31.5510 C   0  0  0  0  0  0  0  0  0  0  0  0
   -8.5600   21.4340  -31.8600 C   0  0  0  0  0  0  0  0  0  0  0  0
   -8.3210   20.1450  -32.3650 C   0  0  0  0  0  0  0  0  0  0  0  0
   -6.9980   19.6850  -32.5580 C   0  0  0  0  0  0  0  0  0  0  0  0
   -6.7670   18.3670  -33.0870 C   0  0  0  0  0  0  0  0  0  0  0  0
   -6.5720   17.2630  -33.5280 C   0  0  0  0  0  0  0  0  0  0  0  0
   -6.3250   15.9220  -34.0640 C   0  0  0  0  0  0  0  0  0  0  0  0
   -5.3610   15.1850  -33.1760 C   0  0  0  0  0  0  0  0  0  0  0  0
   -4.6390   15.8580  -32.3910 O   0  0  0  0  0  0  0  0  0  0  0  0
   -5.2130   13.7470  -33.2290 N   0  0  0  0  0  0  0  0  0  0  0  0
   -6.0460   12.9330  -34.1230 C   0  0  0  0  0  0  0  0  0  0  0  0
   -4.2130   13.1040  -32.3710 C   0  0  0  0  0  0  0  0  0  0  0  0
   -5.9040   20.5130  -32.2370 C   0  0  0  0  0  0  0  0  0  0  0  0
   -6.1670   21.7850  -31.7150 C   0  0  0  0  0  0  0  0  0  0  0  0
   -2.9891   23.5011  -28.4358 H   0  0  0  0  0  0  0  0  0  0  0  0
   -4.0905   22.1941  -28.9885 H   0  0  0  0  0  0  0  0  0  0  0  0
   -2.3136   21.9312  -28.9885 H   0  0  0  0  0  0  0  0  0  0  0  0
   -3.8730   26.4570  -30.3690 H   0  0  0  0  0  0  0  0  0  0  0  0
   -3.5290   24.9200  -31.2290 H   0  0  0  0  0  0  0  0  0  0  0  0
   -8.2502   24.1811  -30.8480 H   0  0  0  0  0  0  0  0  0  0  0  0
   -9.5852   21.8046  -31.7132 H   0  0  0  0  0  0  0  0  0  0  0  0
   -9.1689   19.4892  -32.6119 H   0  0  0  0  0  0  0  0  0  0  0  0
   -7.2740   15.3677  -34.1113 H   0  0  0  0  0  0  0  0  0  0  0  0
   -5.8942   16.0089  -35.0724 H   0  0  0  0  0  0  0  0  0  0  0  0
   -6.7057   12.2884  -33.5236 H   0  0  0  0  0  0  0  0  0  0  0  0
   -6.6559   13.5928  -34.7576 H   0  0  0  0  0  0  0  0  0  0  0  0
   -5.4005   12.3080  -34.7576 H   0  0  0  0  0  0  0  0  0  0  0  0
   -4.4734   13.2714  -31.3155 H   0  0  0  0  0  0  0  0  0  0  0  0
   -4.1934   12.0236  -32.5769 H   0  0  0  0  0  0  0  0  0  0  0  0
   -3.2219   13.5345  -32.5769 H   0  0  0  0  0  0  0  0  0  0  0  0
   -4.8708   20.1690  -32.3925 H   0  0  0  0  0  0  0  0  0  0  0  0
  1  2  1  0
  2  3  1  0
  3  4  2  0
  3  5  1  0
  5  6  1  0
  6  7  1  0
  7  8  1  0
  7  9  2  0
  6 10  2  0
 10 11  1  0
 11 12  2  0
 12 13  1  0
 13 14  2  0
 14 15  1  0
 15 16  3  0
 16 17  1  0
 17 18  1  0
 18 19  2  0
 18 20  1  0
 20 21  1  0
 20 22  1  0
 14 23  1  0
 23 24  2  0
 24  5  1  0
 24 11  1  0
  1 25  1  0
  1 26  1  0
  1 27  1  0
  8 28  1  0
  8 29  1  0
 10 30  1  0
 12 31  1  0
 13 32  1  0
 17 33  1  0
 17 34  1  0
 21 35  1  0
 21 36  1  0
 21 37  1  0
 22 38  1  0
 22 39  1  0
 22 40  1  0
 23 41  1  0
M  END
>  <UniqueID>  (96) 
96

>  <SMILES>  (96) 
COC(=O)n1c(C(N)=O)cc2ccc(C#CCC(=O)N(C)C)cc21

>  <Energy>  (96) 
70.19123271613269

>  <Genealogy>  (96) 
COC(=O)n1c(C(N)=O)cc2ccc(C#CCC(=O)N(C)C)cc21 (3D coordinates assigned)
COC(=O)n1c(C(N)=O)cc2ccc(C#CCC(=O)N(C)C)cc21 (optimized conformer: 70.19123271613269 kcal/mol)

>  <smiles>  (96) 
COC(=O)n1c(C(N)=O)cc2ccc(C#CCC(=O)N(C)C)cc21

>  <score_type>  (96) 
oracle

>  <origin>  (96) 
adg

>  <m_score__min__energy>  (96) 
-8.4499999999999993

>  <m_primary>  (96) 
energy

$$$$
96:0
     RDKit          3D

 37 38  0  0  0  0  0  0  0  0999 V2000
   -7.8150   22.9800  -31.9630 C   0  0  0  0  0  0  0  0  0  0  0  0
   -8.1200   21.4890  -31.8450 C   0  0  0  0  0  0  0  0  0  0  0  0
   -9.6300   21.2450  -31.9180 C   0  0  0  0  0  0  0  0  0  0  0  0
   -7.4590   20.7980  -32.9050 O   0  0  0  0  0  0  0  0  0  0  0  0
   -6.6000   19.7100  -32.7050 C   0  0  0  0  0  0  0  0  0  0  0  0
   -7.0660   18.5810  -32.3910 O   0  0  0  0  0  0  0  0  0  0  0  0
   -5.1810   19.8890  -32.8410 N   0  0  0  0  0  0  0  0  0  0  0  0
   -4.3500   19.2600  -33.7190 C   0  0  0  0  0  0  0  0  0  0  0  0
   -4.7250   18.1340  -34.6030 C   0  0  0  0  0  0  0  0  0  0  0  0
   -6.0890   17.9150  -34.9650 N   0  0  0  0  0  0  0  0  0  0  0  0
   -3.8360   17.3740  -35.0690 O   0  0  0  0  0  0  0  0  0  0  0  0
   -3.0530   19.7620  -33.6090 C   0  0  0  0  0  0  0  0  0  0  0  0
   -3.1170   20.7240  -32.6270 C   0  0  0  0  0  0  0  0  0  0  0  0
   -2.1190   21.5550  -32.1250 C   0  0  0  0  0  0  0  0  0  0  0  0
   -2.4740   22.4850  -31.1350 C   0  0  0  0  0  0  0  0  0  0  0  0
   -3.8090   22.5670  -30.6660 C   0  0  0  0  0  0  0  0  0  0  0  0
   -4.1860   23.6020  -29.6430 C   0  0  0  0  0  0  0  0  0  0  0  0
   -3.5220   24.9030  -29.9630 C   0  0  0  0  0  0  0  0  0  0  0  0
   -3.9980   25.6570  -30.8520 O   0  0  0  0  0  0  0  0  0  0  0  0
   -2.3430   25.2580  -29.3180 O   0  0  0  0  0  0  0  0  0  0  0  0
   -4.7970   21.7140  -31.2080 C   0  0  0  0  0  0  0  0  0  0  0  0
   -4.4120   20.7830  -32.1800 C   0  0  0  0  0  0  0  0  0  0  0  0
   -7.7257   23.4167  -30.9574 H   0  0  0  0  0  0  0  0  0  0  0  0
   -6.8698   23.1189  -32.5083 H   0  0  0  0  0  0  0  0  0  0  0  0
   -8.6297   23.4789  -32.5083 H   0  0  0  0  0  0  0  0  0  0  0  0
   -7.7586   21.1163  -30.8752 H   0  0  0  0  0  0  0  0  0  0  0  0
  -10.0404   21.1787  -30.8996 H   0  0  0  0  0  0  0  0  0  0  0  0
  -10.1104   22.0772  -32.4534 H   0  0  0  0  0  0  0  0  0  0  0  0
   -9.8239   20.3039  -32.4534 H   0  0  0  0  0  0  0  0  0  0  0  0
   -6.3390   17.1410  -35.6190 H   0  0  0  0  0  0  0  0  0  0  0  0
   -6.8580   18.4940  -34.5610 H   0  0  0  0  0  0  0  0  0  0  0  0
   -2.1676   19.4543  -34.1847 H   0  0  0  0  0  0  0  0  0  0  0  0
   -1.0846   21.4850  -32.4926 H   0  0  0  0  0  0  0  0  0  0  0  0
   -1.7085   23.1567  -30.7192 H   0  0  0  0  0  0  0  0  0  0  0  0
   -5.2774   23.7390  -29.6485 H   0  0  0  0  0  0  0  0  0  0  0  0
   -3.8575   23.2638  -28.6492 H   0  0  0  0  0  0  0  0  0  0  0  0
   -5.8430   21.7800  -30.8742 H   0  0  0  0  0  0  0  0  0  0  0  0
  1  2  1  0
  2  3  1  0
  2  4  1  0
  4  5  1  0
  5  6  2  0
  5  7  1  0
  7  8  1  0
  8  9  1  0
  9 10  1  0
  9 11  2  0
  8 12  2  0
 12 13  1  0
 13 14  2  0
 14 15  1  0
 15 16  2  0
 16 17  1  0
 17 18  1  0
 18 19  2  0
 18 20  1  0
 16 21  1  0
 21 22  2  0
 22  7  1  0
 22 13  1  0
  1 23  1  0
  1 24  1  0
  1 25  1  0
  2 26  1  0
  3 27  1  0
  3 28  1  0
  3 29  1  0
 10 30  1  0
 10 31  1  0
 12 32  1  0
 14 33  1  0
 15 34  1  0
 17 35  1  0
 17 36  1  0
 21 37  1  0
M  CHG  1  20  -1
M  END
>  <UniqueID>  (97) 
97

>  <SMILES>  (97) 
CC(C)OC(=O)n1c(C(N)=O)cc2ccc(CC(=O)[O-])cc21

>  <Energy>  (97) 
67.62956994243997

>  <Genealogy>  (97) 
CC(C)OC(=O)n1c(C(N)=O)cc2ccc(CC(=O)[O-])cc21 (protonated)
CC(C)OC(=O)n1c(C(N)=O)cc2ccc(CC(=O)[O-])cc21 (3D coordinates assigned)
CC(C)OC(=O)n1c(C(N)=O)cc2ccc(CC(=O)[O-])cc21 (optimized conformer: 67.62956994243997 kcal/mol)

>  <smiles>  (97) 
CC(C)OC(=O)n1c(C(N)=O)cc2ccc(CC(=O)O)cc21

>  <score_type>  (97) 
oracle

>  <origin>  (97) 
adg

>  <m_score__min__energy>  (97) 
-9.7799999999999994

>  <m_primary>  (97) 
energy

$$$$
97:0
     RDKit          3D

 44 46  0  0  0  0  0  0  0  0999 V2000
   -4.1370   23.8900  -27.6190 C   0  0  0  0  0  0  0  0  0  0  0  0
   -2.8450   23.9270  -28.3330 N   0  0  0  0  0  0  0  0  0  0  0  0
   -1.8980   24.7910  -27.6090 C   0  0  0  0  0  0  0  0  0  0  0  0
   -1.0680   23.9100  -26.6750 C   0  0  0  0  0  0  0  0  0  0  0  0
   -1.3440   22.4780  -27.1050 C   0  0  0  0  0  0  0  0  0  0  0  0
   -2.1530   22.6210  -28.3900 C   0  0  1  0  0  0  0  0  0  0  0  0
   -3.0440   21.4030  -28.7260 C   0  0  0  0  0  0  0  0  0  0  0  0
   -3.3840   21.3630  -30.1100 O   0  0  0  0  0  0  0  0  0  0  0  0
   -3.8640   22.4780  -30.8030 C   0  0  0  0  0  0  0  0  0  0  0  0
   -3.0630   23.3440  -31.2500 O   0  0  0  0  0  0  0  0  0  0  0  0
   -5.2780   22.6430  -30.9940 N   0  0  0  0  0  0  0  0  0  0  0  0
   -6.0040   23.7900  -30.8800 C   0  0  0  0  0  0  0  0  0  0  0  0
   -5.4960   25.0890  -30.3940 C   0  0  0  0  0  0  0  0  0  0  0  0
   -4.1870   25.5470  -30.7360 N   0  0  0  0  0  0  0  0  0  0  0  0
   -6.2070   25.7800  -29.6170 O   0  0  0  0  0  0  0  0  0  0  0  0
   -7.3320   23.5700  -31.2330 C   0  0  0  0  0  0  0  0  0  0  0  0
   -7.4030   22.2340  -31.5570 C   0  0  0  0  0  0  0  0  0  0  0  0
   -8.4890   21.4710  -31.9770 C   0  0  0  0  0  0  0  0  0  0  0  0
   -8.2690   20.1140  -32.2660 C   0  0  0  0  0  0  0  0  0  0  0  0
   -6.9700   19.5520  -32.1650 C   0  0  0  0  0  0  0  0  0  0  0  0
   -6.7500   18.0870  -32.4430 C   0  0  0  0  0  0  0  0  0  0  0  0
   -7.9600   17.4270  -32.5670 F   0  0  0  0  0  0  0  0  0  0  0  0
   -6.0380   17.4940  -31.4140 F   0  0  0  0  0  0  0  0  0  0  0  0
   -6.0390   17.9490  -33.6200 F   0  0  0  0  0  0  0  0  0  0  0  0
   -5.8960   20.3570  -31.7190 C   0  0  0  0  0  0  0  0  0  0  0  0
   -6.1500   21.6980  -31.4090 C   0  0  0  0  0  0  0  0  0  0  0  0
   -3.9566   23.8952  -26.5339 H   0  0  0  0  0  0  0  0  0  0  0  0
   -4.7342   24.7714  -27.8956 H   0  0  0  0  0  0  0  0  0  0  0  0
   -4.6827   22.9759  -27.8956 H   0  0  0  0  0  0  0  0  0  0  0  0
   -1.2370   25.3014  -28.3249 H   0  0  0  0  0  0  0  0  0  0  0  0
   -2.4426   25.5517  -27.0305 H   0  0  0  0  0  0  0  0  0  0  0  0
    0.0021   24.1421  -26.7796 H   0  0  0  0  0  0  0  0  0  0  0  0
   -1.3330   24.0749  -25.6202 H   0  0  0  0  0  0  0  0  0  0  0  0
   -0.4036   21.9396  -27.2942 H   0  0  0  0  0  0  0  0  0  0  0  0
   -1.8772   21.9025  -26.3340 H   0  0  0  0  0  0  0  0  0  0  0  0
   -1.4797   22.6192  -29.2599 H   0  0  0  0  0  0  0  0  0  0  0  0
   -2.5016   20.4821  -28.4656 H   0  0  0  0  0  0  0  0  0  0  0  0
   -3.9752   21.4897  -28.1469 H   0  0  0  0  0  0  0  0  0  0  0  0
   -3.5080   24.9240  -31.2270 H   0  0  0  0  0  0  0  0  0  0  0  0
   -3.8610   26.4860  -30.4190 H   0  0  0  0  0  0  0  0  0  0  0  0
   -8.1495   24.3058  -31.2496 H   0  0  0  0  0  0  0  0  0  0  0  0
   -9.4892   21.9172  -32.0795 H   0  0  0  0  0  0  0  0  0  0  0  0
   -9.1134   19.4799  -32.5741 H   0  0  0  0  0  0  0  0  0  0  0  0
   -4.8837   19.9385  -31.6180 H   0  0  0  0  0  0  0  0  0  0  0  0
  1  2  1  0
  2  3  1  0
  3  4  1  0
  4  5  1  0
  5  6  1  0
  6  7  1  0
  7  8  1  0
  8  9  1  0
  9 10  2  0
  9 11  1  0
 11 12  1  0
 12 13  1  0
 13 14  1  0
 13 15  2  0
 12 16  2  0
 16 17  1  0
 17 18  2  0
 18 19  1  0
 19 20  2  0
 20 21  1  0
 21 22  1  0
 21 23  1  0
 21 24  1  0
 20 25  1  0
 25 26  2  0
  6  2  1  0
 26 11  1  0
 26 17  1  0
  1 27  1  0
  1 28  1  0
  1 29  1  0
  3 30  1  0
  3 31  1  0
  4 32  1  0
  4 33  1  0
  5 34  1  0
  5 35  1  0
  6 36  1  6
  7 37  1  0
  7 38  1  0
 14 39  1  0
 14 40  1  0
 16 41  1  0
 18 42  1  0
 19 43  1  0
 25 44  1  0
M  END
>  <UniqueID>  (98) 
98

>  <SMILES>  (98) 
CN1CCC[C@H]1COC(=O)n1c(C(N)=O)cc2ccc(C(F)(F)F)cc21

>  <Energy>  (98) 
88.93303179834864

>  <Genealogy>  (98) 
CN1CCC[C@H]1COC(=O)n1c(C(N)=O)cc2ccc(C(F)(F)F)cc21 (3D coordinates assigned)
CN1CCC[C@H]1COC(=O)n1c(C(N)=O)cc2ccc(C(F)(F)F)cc21 (nonaromatic ring conformer: 88.93303179834864 kcal/mol)

>  <smiles>  (98) 
CN1CCC[C@H]1COC(=O)n1c(C(N)=O)cc2ccc(C(F)(F)F)cc21

>  <score_type>  (98) 
oracle

>  <origin>  (98) 
adg

>  <m_score__min__energy>  (98) 
-9.1500000000000004

>  <m_primary>  (98) 
energy

$$$$
