0:0
     RDKit          3D

 36 37  0  0  0  0  0  0  0  0999 V2000
   -3.5110   25.6760  -29.7680 H   0  0  0  0  0  0  0  0  0  0  0  0
   -4.2450   25.6610  -30.5110 N   0  0  0  0  0  0  0  0  0  0  0  0
   -5.5600   25.1900  -30.2350 C   0  0  0  0  0  0  0  0  0  0  0  0
   -6.3010   25.8520  -29.4600 O   0  0  0  0  0  0  0  0  0  0  0  0
   -6.0550   23.9230  -30.8140 C   0  0  0  0  0  0  0  0  0  0  0  0
   -7.3770   23.7140  -31.2050 C   0  0  0  0  0  0  0  0  0  0  0  0
   -8.2029   24.4400  -31.1767 H   0  0  0  0  0  0  0  0  0  0  0  0
   -7.4300   22.4070  -31.6340 C   0  0  0  0  0  0  0  0  0  0  0  0
   -8.4970   21.6740  -32.1480 C   0  0  0  0  0  0  0  0  0  0  0  0
   -9.4987   22.1189  -32.2410 H   0  0  0  0  0  0  0  0  0  0  0  0
   -8.2530   20.3480  -32.5440 C   0  0  0  0  0  0  0  0  0  0  0  0
   -9.0746   19.7393  -32.9495 H   0  0  0  0  0  0  0  0  0  0  0  0
   -6.9580   19.7900  -32.4250 C   0  0  0  0  0  0  0  0  0  0  0  0
   -6.7190   18.4350  -32.8440 C   0  0  0  0  0  0  0  0  0  0  0  0
   -6.5160   17.3000  -33.1960 C   0  0  0  0  0  0  0  0  0  0  0  0
   -6.2700   15.9190  -33.6240 C   0  0  0  0  0  0  0  0  0  0  0  0
   -5.2753   15.8533  -34.0889 H   0  0  0  0  0  0  0  0  0  0  0  0
   -6.3165   15.2555  -32.7479 H   0  0  0  0  0  0  0  0  0  0  0  0
   -7.2430   15.5250  -34.5520 O   0  0  0  0  0  0  0  0  0  0  0  0
   -7.1500   14.5410  -34.6620 H   0  0  0  0  0  0  0  0  0  0  0  0
   -5.8990   20.5600  -31.9030 C   0  0  0  0  0  0  0  0  0  0  0  0
   -4.8853   20.1422  -31.8149 H   0  0  0  0  0  0  0  0  0  0  0  0
   -6.1750   21.8720  -31.5000 C   0  0  0  0  0  0  0  0  0  0  0  0
   -5.3210   22.7880  -30.9950 N   0  0  0  0  0  0  0  0  0  0  0  0
   -3.9140   22.6120  -30.7790 C   0  0  0  0  0  0  0  0  0  0  0  0
   -3.1250   22.7510  -31.7510 O   0  0  0  0  0  0  0  0  0  0  0  0
   -3.4220   22.2640  -29.4270 C   0  0  0  0  0  0  0  0  0  0  0  0
   -4.1285   21.7475  -28.7606 H   0  0  0  0  0  0  0  0  0  0  0  0
   -2.1990   22.5160  -28.9330 C   0  0  0  0  0  0  0  0  0  0  0  0
   -1.9896   22.1671  -27.9110 H   0  0  0  0  0  0  0  0  0  0  0  0
   -1.0900   23.2330  -29.6530 C   0  0  0  0  0  0  0  0  0  0  0  0
   -0.1847   22.6086  -29.6276 H   0  0  0  0  0  0  0  0  0  0  0  0
   -1.4111   23.4140  -30.6894 H   0  0  0  0  0  0  0  0  0  0  0  0
   -0.7880   24.5550  -29.0160 C   0  0  0  0  0  0  0  0  0  0  0  0
    0.2020   24.6790  -28.2470 O   0  0  0  0  0  0  0  0  0  0  0  0
   -1.5750   25.6630  -29.3050 O   0  0  0  0  0  0  0  0  0  0  0  0
  1  2  1  0
  2  3  1  0
  3  4  2  0
  3  5  1  0
  5  6  2  0
  6  7  1  0
  6  8  1  0
  8  9  2  0
  9 10  1  0
  9 11  1  0
 11 12  1  0
 11 13  2  0
 13 14  1  0
 14 15  3  0
 15 16  1  0
 16 17  1  0
 16 18  1  0
 16 19  1  0
 19 20  1  0
 13 21  1  0
 21 22  1  0
 21 23  2  0
 23 24  1  0
 24 25  1  0
 25 26  2  0
 25 27  1  0
 27 28  1  0
 27 29  2  0
 29 30  1  0
 29 31  1  0
 31 32  1  0
 31 33  1  0
 31 34  1  0
 34 35  2  0
 34 36  1  0
 24  5  1  0
 23  8  1  0
M  CHG  2   2  -1  36  -1
M  END
>  <UniqueID>  (1) 
1

>  <SMILES>  (1) 
[NH-]C(=O)c1cc2ccc(C#CCO)cc2n1C(=O)/C=C\CC(=O)[O-]

>  <Energy>  (1) 
71.59989928572303

>  <Genealogy>  (1) 
[NH-]C(=O)c1cc2ccc(C#CCO)cc2n1C(=O)C=CCC(=O)[O-] (protonated)
[NH-]C(=O)c1cc2ccc(C#CCO)cc2n1C(=O)/C=C\CC(=O)[O-] (cis-trans isomerization)
[NH-]C(=O)c1cc2ccc(C#CCO)cc2n1C(=O)/C=C\CC(=O)[O-] (3D coordinates assigned)
[NH-]C(=O)c1cc2ccc(C#CCO)cc2n1C(=O)/C=C\CC(=O)[O-] (optimized conformer: 71.59989928572303 kcal/mol)

>  <smiles>  (1) 
NC(=O)c1cc2ccc(C#CCO)cc2n1C(=O)C=CCC(=O)O

>  <score_type>  (1) 
oracle

>  <origin>  (1) 
adg

>  <m_score__min__energy>  (1) 
-12.73

>  <m_primary>  (1) 
energy

$$$$
1:0
     RDKit          3D

 40 41  0  0  0  0  0  0  0  0999 V2000
   -5.8960   17.0050  -32.3290 C   0  0  0  0  0  0  0  0  0  0  0  0
   -6.1390   18.1790  -32.1980 C   0  0  0  0  0  0  0  0  0  0  0  0
   -6.4320   19.5780  -32.0290 C   0  0  0  0  0  0  0  0  0  0  0  0
   -7.7430   20.0560  -32.2520 C   0  0  0  0  0  0  0  0  0  0  0  0
   -8.0500   21.4110  -32.0510 C   0  0  0  0  0  0  0  0  0  0  0  0
   -7.0260   22.2550  -31.6280 C   0  0  0  0  0  0  0  0  0  0  0  0
   -7.0480   23.6030  -31.3340 C   0  0  0  0  0  0  0  0  0  0  0  0
   -5.7450   23.9140  -30.9460 C   0  0  0  0  0  0  0  0  0  0  0  0
   -5.2930   25.2670  -30.5670 C   0  0  0  0  0  0  0  0  0  0  0  0
   -3.9510   25.6720  -30.8320 N   0  0  0  0  0  0  0  0  0  0  0  0
   -6.0740   26.0620  -29.9910 O   0  0  0  0  0  0  0  0  0  0  0  0
   -4.9580   22.8060  -30.9980 N   0  0  0  0  0  0  0  0  0  0  0  0
   -3.5690   22.6960  -30.6560 C   0  0  0  0  0  0  0  0  0  0  0  0
   -2.7110   22.7630  -31.5730 O   0  0  0  0  0  0  0  0  0  0  0  0
   -3.1570   22.4930  -29.2870 N   0  0  0  0  0  0  0  0  0  0  0  0
   -3.0720   21.1270  -28.7480 C   0  0  0  0  0  0  0  0  0  0  0  0
   -1.6250   20.7610  -28.4000 C   0  0  0  0  0  0  0  0  0  0  0  0
   -0.8580   20.4100  -29.6380 C   0  0  0  0  0  0  0  0  0  0  0  0
   -0.5580   21.4050  -30.6170 N   0  0  0  0  0  0  0  0  0  0  0  0
   -0.4830   19.2220  -29.8250 O   0  0  0  0  0  0  0  0  0  0  0  0
   -2.7880   23.6380  -28.4440 C   0  0  0  0  0  0  0  0  0  0  0  0
   -1.5710   24.3320  -28.9680 C   0  0  0  0  0  0  0  0  0  0  0  0
   -0.4700   23.7220  -29.0020 O   0  0  0  0  0  0  0  0  0  0  0  0
   -1.6150   25.6700  -29.3310 O   0  0  0  0  0  0  0  0  0  0  0  0
   -5.7510   21.8020  -31.4230 C   0  0  0  0  0  0  0  0  0  0  0  0
   -5.4140   20.4610  -31.6180 C   0  0  0  0  0  0  0  0  0  0  0  0
   -5.6744   15.9342  -32.4485 H   0  0  0  0  0  0  0  0  0  0  0  0
   -8.5283   19.3616  -32.5854 H   0  0  0  0  0  0  0  0  0  0  0  0
   -9.0669   21.7940  -32.2221 H   0  0  0  0  0  0  0  0  0  0  0  0
   -7.9085   24.2857  -31.3930 H   0  0  0  0  0  0  0  0  0  0  0  0
   -3.1610   24.9940  -30.7420 H   0  0  0  0  0  0  0  0  0  0  0  0
   -3.6881   21.0603  -27.8392 H   0  0  0  0  0  0  0  0  0  0  0  0
   -3.4356   20.4258  -29.5135 H   0  0  0  0  0  0  0  0  0  0  0  0
   -1.1436   21.6186  -27.9074 H   0  0  0  0  0  0  0  0  0  0  0  0
   -1.6311   19.8904  -27.7276 H   0  0  0  0  0  0  0  0  0  0  0  0
   -0.0280   21.1530  -31.4790 H   0  0  0  0  0  0  0  0  0  0  0  0
   -0.8730   22.3870  -30.4910 H   0  0  0  0  0  0  0  0  0  0  0  0
   -3.6253   24.3511  -28.4225 H   0  0  0  0  0  0  0  0  0  0  0  0
   -2.5659   23.2660  -27.4329 H   0  0  0  0  0  0  0  0  0  0  0  0
   -4.3859   20.1052  -31.4558 H   0  0  0  0  0  0  0  0  0  0  0  0
  1  2  3  0
  2  3  1  0
  3  4  2  0
  4  5  1  0
  5  6  2  0
  6  7  1  0
  7  8  2  0
  8  9  1  0
  9 10  1  0
  9 11  2  0
  8 12  1  0
 12 13  1  0
 13 14  2  0
 13 15  1  0
 15 16  1  0
 16 17  1  0
 17 18  1  0
 18 19  1  0
 18 20  2  0
 15 21  1  0
 21 22  1  0
 22 23  2  0
 22 24  1  0
 12 25  1  0
 25 26  2  0
 26  3  1  0
 25  6  1  0
  1 27  1  0
  4 28  1  0
  5 29  1  0
  7 30  1  0
 10 31  1  0
 16 32  1  0
 16 33  1  0
 17 34  1  0
 17 35  1  0
 19 36  1  0
 19 37  1  0
 21 38  1  0
 21 39  1  0
 26 40  1  0
M  CHG  2  10  -1  24  -1
M  END
>  <UniqueID>  (2) 
2

>  <SMILES>  (2) 
C#Cc1ccc2cc(C([NH-])=O)n(C(=O)N(CCC(N)=O)CC(=O)[O-])c2c1

>  <Energy>  (2) 
71.45542439907224

>  <Genealogy>  (2) 
C#Cc1ccc2cc(C([NH-])=O)n(C(=O)N(CCC(N)=O)CC(=O)[O-])c2c1 (protonated)
C#Cc1ccc2cc(C([NH-])=O)n(C(=O)N(CCC(N)=O)CC(=O)[O-])c2c1 (3D coordinates assigned)
C#Cc1ccc2cc(C([NH-])=O)n(C(=O)N(CCC(N)=O)CC(=O)[O-])c2c1 (optimized conformer: 71.45542439907224 kcal/mol)

>  <smiles>  (2) 
C#Cc1ccc2cc(C(N)=O)n(C(=O)N(CCC(N)=O)CC(=O)O)c2c1

>  <score_type>  (2) 
oracle

>  <origin>  (2) 
adg

>  <m_score__min__energy>  (2) 
-13.19

>  <m_primary>  (2) 
energy

$$$$
2:0
     RDKit          3D

 34 35  0  0  0  0  0  0  0  0999 V2000
   -5.9100   25.0440  -28.9950 N   0  0  0  0  0  0  0  0  0  0  0  0
   -6.1310   24.7570  -30.3780 C   0  0  0  0  0  0  0  0  0  0  0  0
   -6.0170   25.6900  -31.2160 O   0  0  0  0  0  0  0  0  0  0  0  0
   -6.4980   23.3920  -30.8250 C   0  0  0  0  0  0  0  0  0  0  0  0
   -7.8050   22.9040  -30.8780 C   0  0  0  0  0  0  0  0  0  0  0  0
   -7.6970   21.6240  -31.3720 C   0  0  0  0  0  0  0  0  0  0  0  0
   -8.6820   20.6710  -31.6120 C   0  0  0  0  0  0  0  0  0  0  0  0
   -8.2800   19.4120  -32.0920 C   0  0  0  0  0  0  0  0  0  0  0  0
   -6.9080   19.1250  -32.3010 C   0  0  0  0  0  0  0  0  0  0  0  0
   -6.4880   17.7780  -32.8270 C   0  0  0  0  0  0  0  0  0  0  0  0
   -5.6510   17.9090  -34.1000 C   0  0  0  0  0  0  0  0  0  0  0  0
   -6.0900   18.9840  -34.8530 F   0  0  0  0  0  0  0  0  0  0  0  0
   -4.3160   18.0890  -33.7800 F   0  0  0  0  0  0  0  0  0  0  0  0
   -5.7780   16.7560  -34.8530 F   0  0  0  0  0  0  0  0  0  0  0  0
   -5.9370   20.1200  -32.0510 C   0  0  0  0  0  0  0  0  0  0  0  0
   -6.3700   21.3720  -31.6010 C   0  0  0  0  0  0  0  0  0  0  0  0
   -5.6240   22.4510  -31.2840 N   0  0  0  0  0  0  0  0  0  0  0  0
   -4.1940   22.5530  -31.3650 C   0  0  0  0  0  0  0  0  0  0  0  0
   -3.6350   22.6190  -32.4940 O   0  0  0  0  0  0  0  0  0  0  0  0
   -3.3510   22.5210  -30.1250 C   0  0  0  0  0  0  0  0  0  0  0  0
   -2.9960   24.2130  -29.5630 P   0  0  0  0  0  0  0  0  0  0  0  0
   -3.7190   24.4850  -28.2640 O   0  0  0  0  0  0  0  0  0  0  0  0
   -3.5050   25.3190  -30.7360 O   0  0  0  0  0  0  0  0  0  0  0  0
   -1.3310   24.3800  -29.3210 O   0  0  0  0  0  0  0  0  0  0  0  0
   -5.6870   26.0190  -28.6930 H   0  0  0  0  0  0  0  0  0  0  0  0
   -5.9210   24.2940  -28.2700 H   0  0  0  0  0  0  0  0  0  0  0  0
   -8.7257   23.4308  -30.5867 H   0  0  0  0  0  0  0  0  0  0  0  0
   -9.7436   20.8958  -31.4316 H   0  0  0  0  0  0  0  0  0  0  0  0
   -9.0369   18.6433  -32.3071 H   0  0  0  0  0  0  0  0  0  0  0  0
   -5.8916   17.2644  -32.0585 H   0  0  0  0  0  0  0  0  0  0  0  0
   -7.3948   17.2038  -33.0680 H   0  0  0  0  0  0  0  0  0  0  0  0
   -4.8674   19.9156  -32.2062 H   0  0  0  0  0  0  0  0  0  0  0  0
   -3.8902   21.9807  -29.3330 H   0  0  0  0  0  0  0  0  0  0  0  0
   -2.4025   22.0109  -30.3490 H   0  0  0  0  0  0  0  0  0  0  0  0
  1  2  1  0
  2  3  2  0
  2  4  1  0
  4  5  2  0
  5  6  1  0
  6  7  2  0
  7  8  1  0
  8  9  2  0
  9 10  1  0
 10 11  1  0
 11 12  1  0
 11 13  1  0
 11 14  1  0
  9 15  1  0
 15 16  2  0
 16 17  1  0
 17 18  1  0
 18 19  2  0
 18 20  1  0
 20 21  1  0
 21 22  2  0
 21 23  1  0
 21 24  1  0
 17  4  1  0
 16  6  1  0
  1 25  1  0
  1 26  1  0
  5 27  1  0
  7 28  1  0
  8 29  1  0
 10 30  1  0
 10 31  1  0
 15 32  1  0
 20 33  1  0
 20 34  1  0
M  CHG  2  23  -1  24  -1
M  END
>  <UniqueID>  (3) 
3

>  <SMILES>  (3) 
NC(=O)c1cc2ccc(CC(F)(F)F)cc2n1C(=O)CP(=O)([O-])[O-]

>  <Energy>  (3) 
65.67791266949128

>  <Genealogy>  (3) 
NC(=O)c1cc2ccc(CC(F)(F)F)cc2n1C(=O)CP(=O)([O-])[O-] (protonated)
NC(=O)c1cc2ccc(CC(F)(F)F)cc2n1C(=O)CP(=O)([O-])[O-] (3D coordinates assigned)
NC(=O)c1cc2ccc(CC(F)(F)F)cc2n1C(=O)CP(=O)([O-])[O-] (optimized conformer: 65.67791266949128 kcal/mol)

>  <smiles>  (3) 
NC(=O)c1cc2ccc(CC(F)(F)F)cc2n1C(=O)CP(=O)(O)O

>  <score_type>  (3) 
oracle

>  <origin>  (3) 
adg

>  <m_score__min__energy>  (3) 
-12

>  <m_primary>  (3) 
energy

$$$$
3:0
     RDKit          3D

 41 43  0  0  0  0  0  0  0  0999 V2000
   -3.8470   25.2770  -30.8350 N   0  0  0  0  0  0  0  0  0  0  0  0
   -5.0640   24.7970  -30.2660 C   0  0  0  0  0  0  0  0  0  0  0  0
   -5.5710   25.4100  -29.2900 O   0  0  0  0  0  0  0  0  0  0  0  0
   -5.6920   23.5710  -30.7990 C   0  0  0  0  0  0  0  0  0  0  0  0
   -7.0020   23.5230  -31.2710 C   0  0  0  0  0  0  0  0  0  0  0  0
   -7.1700   22.2440  -31.7510 C   0  0  0  0  0  0  0  0  0  0  0  0
   -8.2840   21.6460  -32.3330 C   0  0  0  0  0  0  0  0  0  0  0  0
   -8.1820   20.2990  -32.7200 C   0  0  0  0  0  0  0  0  0  0  0  0
   -6.9820   19.5770  -32.5060 C   0  0  0  0  0  0  0  0  0  0  0  0
   -6.8770   18.1480  -32.9520 C   0  0  0  0  0  0  0  0  0  0  0  0
   -5.8220   18.0430  -34.3810 Cl  0  0  0  0  0  0  0  0  0  0  0  0
   -5.8680   20.2200  -31.9240 C   0  0  0  0  0  0  0  0  0  0  0  0
   -5.9930   21.5670  -31.5620 C   0  0  0  0  0  0  0  0  0  0  0  0
   -5.0750   22.3680  -30.9760 N   0  0  0  0  0  0  0  0  0  0  0  0
   -3.7560   21.9880  -30.5540 C   0  0  0  0  0  0  0  0  0  0  0  0
   -3.5830   20.9140  -29.9150 O   0  0  0  0  0  0  0  0  0  0  0  0
   -2.6700   22.8200  -30.8400 O   0  0  0  0  0  0  0  0  0  0  0  0
   -1.4390   22.7540  -30.1280 C   0  0  0  0  0  0  0  0  0  0  0  0
   -0.9690   24.0720  -29.8640 O   0  0  0  0  0  0  0  0  0  0  0  0
   -0.7430   24.5540  -28.5700 C   0  0  0  0  0  0  0  0  0  0  0  0
    0.4340   24.7910  -28.1810 O   0  0  0  0  0  0  0  0  0  0  0  0
   -1.8850   24.7820  -27.6600 C   0  0  0  0  0  0  0  0  0  0  0  0
   -1.7010   25.4230  -26.4250 C   0  0  0  0  0  0  0  0  0  0  0  0
   -2.7890   25.6320  -25.5740 C   0  0  0  0  0  0  0  0  0  0  0  0
   -4.0570   25.2020  -25.9660 C   0  0  0  0  0  0  0  0  0  0  0  0
   -4.2270   24.5830  -27.1650 N   0  0  0  0  0  0  0  0  0  0  0  0
   -3.1820   24.3670  -28.0110 C   0  0  0  0  0  0  0  0  0  0  0  0
   -2.9220   24.9590  -30.4690 H   0  0  0  0  0  0  0  0  0  0  0  0
   -7.7443   24.3348  -31.2620 H   0  0  0  0  0  0  0  0  0  0  0  0
   -9.2157   22.2106  -32.4853 H   0  0  0  0  0  0  0  0  0  0  0  0
   -9.0411   19.8009  -33.1931 H   0  0  0  0  0  0  0  0  0  0  0  0
   -6.4526   17.5411  -32.1386 H   0  0  0  0  0  0  0  0  0  0  0  0
   -7.8781   17.7717  -33.2093 H   0  0  0  0  0  0  0  0  0  0  0  0
   -4.9258   19.6768  -31.7591 H   0  0  0  0  0  0  0  0  0  0  0  0
   -1.5940   22.2232  -29.1771 H   0  0  0  0  0  0  0  0  0  0  0  0
   -0.6952   22.2151  -30.7333 H   0  0  0  0  0  0  0  0  0  0  0  0
   -0.6979   25.7616  -26.1265 H   0  0  0  0  0  0  0  0  0  0  0  0
   -2.6473   26.1309  -24.6040 H   0  0  0  0  0  0  0  0  0  0  0  0
   -4.9206   25.3639  -25.3043 H   0  0  0  0  0  0  0  0  0  0  0  0
   -5.1830   24.2670  -27.4450 H   0  0  0  0  0  0  0  0  0  0  0  0
   -3.3534   23.8649  -28.9746 H   0  0  0  0  0  0  0  0  0  0  0  0
  1  2  1  0
  2  3  2  0
  2  4  1  0
  4  5  2  0
  5  6  1  0
  6  7  2  0
  7  8  1  0
  8  9  2  0
  9 10  1  0
 10 11  1  0
  9 12  1  0
 12 13  2  0
 13 14  1  0
 14 15  1  0
 15 16  2  0
 15 17  1  0
 17 18  1  0
 18 19  1  0
 19 20  1  0
 20 21  2  0
 20 22  1  0
 22 23  2  0
 23 24  1  0
 24 25  2  0
 25 26  1  0
 26 27  2  0
 14  4  1  0
 27 22  1  0
 13  6  1  0
  1 28  1  0
  5 29  1  0
  7 30  1  0
  8 31  1  0
 10 32  1  0
 10 33  1  0
 12 34  1  0
 18 35  1  0
 18 36  1  0
 23 37  1  0
 24 38  1  0
 25 39  1  0
 26 40  1  0
 27 41  1  0
M  CHG  2   1  -1  26   1
M  END
>  <UniqueID>  (4) 
4

>  <SMILES>  (4) 
[NH-]C(=O)c1cc2ccc(CCl)cc2n1C(=O)OCOC(=O)c1ccc[nH+]c1

>  <Energy>  (4) 
78.36431410773656

>  <Genealogy>  (4) 
[NH-]C(=O)c1cc2ccc(CCl)cc2n1C(=O)OCOC(=O)c1ccc[nH+]c1 (protonated)
[NH-]C(=O)c1cc2ccc(CCl)cc2n1C(=O)OCOC(=O)c1ccc[nH+]c1 (3D coordinates assigned)
[NH-]C(=O)c1cc2ccc(CCl)cc2n1C(=O)OCOC(=O)c1ccc[nH+]c1 (optimized conformer: 78.36431410773656 kcal/mol)

>  <smiles>  (4) 
NC(=O)c1cc2ccc(CCl)cc2n1C(=O)OCOC(=O)c1cccnc1

>  <score_type>  (4) 
oracle

>  <origin>  (4) 
adg

>  <m_score__min__energy>  (4) 
-11.880000000000001

>  <m_primary>  (4) 
energy

$$$$
4:0
     RDKit          3D

 50 52  0  0  0  0  0  0  0  0999 V2000
   -4.6880   16.4900  -32.7390 C   0  0  0  0  0  0  0  0  0  0  0  0
   -5.6890   17.6110  -32.6600 C   0  0  0  0  0  0  0  0  0  0  0  0
   -7.0770   17.3370  -32.7450 C   0  0  0  0  0  0  0  0  0  0  0  0
   -8.0210   18.3720  -32.6330 C   0  0  0  0  0  0  0  0  0  0  0  0
   -7.5490   19.6590  -32.4060 C   0  0  0  0  0  0  0  0  0  0  0  0
   -8.2330   20.8500  -32.2590 C   0  0  0  0  0  0  0  0  0  0  0  0
   -7.2470   21.8240  -32.0830 C   0  0  0  0  0  0  0  0  0  0  0  0
   -7.5050   23.2820  -31.9730 C   0  0  0  0  0  0  0  0  0  0  0  0
   -6.4620   24.2370  -32.1950 N   0  0  0  0  0  0  0  0  0  0  0  0
   -8.6510   23.7010  -31.6540 O   0  0  0  0  0  0  0  0  0  0  0  0
   -6.0130   21.2510  -32.1120 N   0  0  0  0  0  0  0  0  0  0  0  0
   -4.7370   21.9070  -32.0940 C   0  0  0  0  0  0  0  0  0  0  0  0
   -4.2360   22.3180  -33.1770 O   0  0  0  0  0  0  0  0  0  0  0  0
   -4.0500   22.1340  -30.8450 N   0  0  0  0  0  0  0  0  0  0  0  0
   -4.5040   23.2040  -29.9450 C   0  0  0  0  0  0  0  0  0  0  0  0
   -3.9060   24.5180  -30.3380 C   0  0  0  0  0  0  0  0  0  0  0  0
   -4.4900   25.2570  -31.1700 O   0  0  0  0  0  0  0  0  0  0  0  0
   -2.7410   24.9650  -29.7170 O   0  0  0  0  0  0  0  0  0  0  0  0
   -2.9150   21.2820  -30.4460 C   0  0  0  0  0  0  0  0  0  0  0  0
   -1.6560   21.6300  -31.2060 C   0  0  0  0  0  0  0  0  0  0  0  0
   -0.9260   22.5790  -30.7980 O   0  0  0  0  0  0  0  0  0  0  0  0
   -1.2660   20.8940  -32.3890 N   0  0  0  0  0  0  0  0  0  0  0  0
    0.0650   21.1500  -32.9680 C   0  0  0  0  0  0  0  0  0  0  0  0
    0.4780   20.0410  -33.9430 C   0  0  0  0  0  0  0  0  0  0  0  0
   -0.5670   19.7390  -34.8400 O   0  0  0  0  0  0  0  0  0  0  0  0
   -1.6420   19.1660  -34.1260 C   0  0  0  0  0  0  0  0  0  0  0  0
   -2.2830   20.2020  -33.1990 C   0  0  0  0  0  0  0  0  0  0  0  0
   -6.2110   19.9360  -32.3150 C   0  0  0  0  0  0  0  0  0  0  0  0
   -5.2490   18.9290  -32.4360 C   0  0  0  0  0  0  0  0  0  0  0  0
   -4.4079   16.1763  -31.7226 H   0  0  0  0  0  0  0  0  0  0  0  0
   -5.1322   15.6390  -33.2761 H   0  0  0  0  0  0  0  0  0  0  0  0
   -3.7923   16.8354  -33.2761 H   0  0  0  0  0  0  0  0  0  0  0  0
   -7.4190   16.3031  -32.9003 H   0  0  0  0  0  0  0  0  0  0  0  0
   -9.0986   18.1698  -32.7221 H   0  0  0  0  0  0  0  0  0  0  0  0
   -9.3226   20.9998  -32.2767 H   0  0  0  0  0  0  0  0  0  0  0  0
   -6.6250   25.2490  -31.9750 H   0  0  0  0  0  0  0  0  0  0  0  0
   -5.5270   23.9620  -32.5750 H   0  0  0  0  0  0  0  0  0  0  0  0
   -5.6004   23.2771  -29.9959 H   0  0  0  0  0  0  0  0  0  0  0  0
   -4.1835   22.9629  -28.9207 H   0  0  0  0  0  0  0  0  0  0  0  0
   -2.7299   21.4168  -29.3701 H   0  0  0  0  0  0  0  0  0  0  0  0
   -3.1747   20.2380  -30.6754 H   0  0  0  0  0  0  0  0  0  0  0  0
    0.0418   22.1088  -33.5067 H   0  0  0  0  0  0  0  0  0  0  0  0
    0.7977   21.1783  -32.1481 H   0  0  0  0  0  0  0  0  0  0  0  0
    1.3570   20.3739  -34.5144 H   0  0  0  0  0  0  0  0  0  0  0  0
    0.7137   19.1362  -33.3636 H   0  0  0  0  0  0  0  0  0  0  0  0
   -2.3967   18.8019  -34.8387 H   0  0  0  0  0  0  0  0  0  0  0  0
   -1.2610   18.3322  -33.5180 H   0  0  0  0  0  0  0  0  0  0  0  0
   -2.8221   20.9430  -33.8075 H   0  0  0  0  0  0  0  0  0  0  0  0
   -2.9739   19.6812  -32.5197 H   0  0  0  0  0  0  0  0  0  0  0  0
   -4.1765   19.1606  -32.3582 H   0  0  0  0  0  0  0  0  0  0  0  0
  1  2  1  0
  2  3  2  0
  3  4  1  0
  4  5  2  0
  5  6  1  0
  6  7  2  0
  7  8  1  0
  8  9  1  0
  8 10  2  0
  7 11  1  0
 11 12  1  0
 12 13  2  0
 12 14  1  0
 14 15  1  0
 15 16  1  0
 16 17  2  0
 16 18  1  0
 14 19  1  0
 19 20  1  0
 20 21  2  0
 20 22  1  0
 22 23  1  0
 23 24  1  0
 24 25  1  0
 25 26  1  0
 26 27  1  0
 11 28  1  0
 28 29  2  0
 29  2  1  0
 28  5  1  0
 27 22  1  0
  1 30  1  0
  1 31  1  0
  1 32  1  0
  3 33  1  0
  4 34  1  0
  6 35  1  0
  9 36  1  0
  9 37  1  0
 15 38  1  0
 15 39  1  0
 19 40  1  0
 19 41  1  0
 23 42  1  0
 23 43  1  0
 24 44  1  0
 24 45  1  0
 26 46  1  0
 26 47  1  0
 27 48  1  0
 27 49  1  0
 29 50  1  0
M  CHG  1  18  -1
M  END
>  <UniqueID>  (5) 
5

>  <SMILES>  (5) 
Cc1ccc2cc(C(N)=O)n(C(=O)N(CC(=O)[O-])CC(=O)N3CCOCC3)c2c1

>  <Energy>  (5) 
92.50014349293323

>  <Genealogy>  (5) 
Cc1ccc2cc(C(N)=O)n(C(=O)N(CC(=O)[O-])CC(=O)N3CCOCC3)c2c1 (protonated)
Cc1ccc2cc(C(N)=O)n(C(=O)N(CC(=O)[O-])CC(=O)N3CCOCC3)c2c1 (3D coordinates assigned)
Cc1ccc2cc(C(N)=O)n(C(=O)N(CC(=O)[O-])CC(=O)N3CCOCC3)c2c1 (nonaromatic ring conformer: 92.50014349293323 kcal/mol)

>  <smiles>  (5) 
Cc1ccc2cc(C(N)=O)n(C(=O)N(CC(=O)O)CC(=O)N3CCOCC3)c2c1

>  <score_type>  (5) 
oracle

>  <origin>  (5) 
adg

>  <m_score__min__energy>  (5) 
-10.949999999999999

>  <m_primary>  (5) 
energy

$$$$
5:0
     RDKit          3D

 35 37  0  0  0  0  0  0  0  0999 V2000
   -1.6340   25.6900  -28.9890 N   0  0  0  0  0  0  0  0  0  0  0  0
   -1.0510   24.3970  -29.1340 C   0  0  0  0  0  0  0  0  0  0  0  0
   -0.0050   24.1170  -28.4910 O   0  0  0  0  0  0  0  0  0  0  0  0
   -1.6500   23.4200  -30.0670 C   0  0  0  0  0  0  0  0  0  0  0  0
   -0.9610   22.3200  -30.5730 C   0  0  0  0  0  0  0  0  0  0  0  0
   -1.8840   21.6220  -31.3160 C   0  0  0  0  0  0  0  0  0  0  0  0
   -1.7370   20.4510  -32.0530 C   0  0  0  0  0  0  0  0  0  0  0  0
   -2.8550   19.9660  -32.7510 C   0  0  0  0  0  0  0  0  0  0  0  0
   -4.0950   20.6570  -32.7020 C   0  0  0  0  0  0  0  0  0  0  0  0
   -5.2480   20.1820  -33.4240 N   0  0  0  0  0  0  0  0  0  0  0  0
   -6.5420   20.0110  -32.8270 C   0  0  0  0  0  0  0  0  0  0  0  0
   -7.3100   21.1270  -32.4210 C   0  0  0  0  0  0  0  0  0  0  0  0
   -6.8470   22.4660  -32.6390 N   0  0  0  0  0  0  0  0  0  0  0  0
   -8.5610   20.9230  -31.8210 C   0  0  0  0  0  0  0  0  0  0  0  0
   -9.0580   19.6310  -31.6420 C   0  0  0  0  0  0  0  0  0  0  0  0
   -8.3140   18.5300  -32.0650 C   0  0  0  0  0  0  0  0  0  0  0  0
   -7.0620   18.7140  -32.6600 C   0  0  0  0  0  0  0  0  0  0  0  0
   -6.1420   17.3000  -33.1580 Cl  0  0  0  0  0  0  0  0  0  0  0  0
   -4.2000   21.8460  -31.9490 C   0  0  0  0  0  0  0  0  0  0  0  0
   -3.0750   22.2980  -31.2500 C   0  0  0  0  0  0  0  0  0  0  0  0
   -2.9480   23.4070  -30.4880 N   0  0  0  0  0  0  0  0  0  0  0  0
   -3.9600   24.3990  -30.2470 C   0  0  0  0  0  0  0  0  0  0  0  0
   -4.9590   24.1270  -29.5300 O   0  0  0  0  0  0  0  0  0  0  0  0
   -3.8610   25.6590  -30.8260 O   0  0  0  0  0  0  0  0  0  0  0  0
   -2.6700   25.8160  -29.0050 H   0  0  0  0  0  0  0  0  0  0  0  0
    0.0967   22.0641  -30.4123 H   0  0  0  0  0  0  0  0  0  0  0  0
   -0.7738   19.9209  -32.0879 H   0  0  0  0  0  0  0  0  0  0  0  0
   -2.7695   19.0419  -33.3415 H   0  0  0  0  0  0  0  0  0  0  0  0
   -5.1200   19.8460  -34.4050 H   0  0  0  0  0  0  0  0  0  0  0  0
   -6.4940   23.0410  -31.8420 H   0  0  0  0  0  0  0  0  0  0  0  0
   -6.8920   22.9180  -33.5780 H   0  0  0  0  0  0  0  0  0  0  0  0
   -9.1549   21.7874  -31.4890 H   0  0  0  0  0  0  0  0  0  0  0  0
  -10.0384   19.4810  -31.1664 H   0  0  0  0  0  0  0  0  0  0  0  0
   -8.7131   17.5139  -31.9302 H   0  0  0  0  0  0  0  0  0  0  0  0
   -5.1462   22.4057  -31.9123 H   0  0  0  0  0  0  0  0  0  0  0  0
  1  2  1  0
  2  3  2  0
  2  4  1  0
  4  5  2  0
  5  6  1  0
  6  7  2  0
  7  8  1  0
  8  9  2  0
  9 10  1  0
 10 11  1  0
 11 12  2  0
 12 13  1  0
 12 14  1  0
 14 15  2  0
 15 16  1  0
 16 17  2  0
 17 18  1  0
  9 19  1  0
 19 20  2  0
 20 21  1  0
 21 22  1  0
 22 23  2  0
 22 24  1  0
 21  4  1  0
 20  6  1  0
 17 11  1  0
  1 25  1  0
  5 26  1  0
  7 27  1  0
  8 28  1  0
 10 29  1  0
 13 30  1  0
 13 31  1  0
 14 32  1  0
 15 33  1  0
 16 34  1  0
 19 35  1  0
M  CHG  2   1  -1  24  -1
M  END
>  <UniqueID>  (6) 
6

>  <SMILES>  (6) 
[NH-]C(=O)c1cc2ccc(Nc3c(N)cccc3Cl)cc2n1C(=O)[O-]

>  <Energy>  (6) 
84.68391158098885

>  <Genealogy>  (6) 
[NH-]C(=O)c1cc2ccc(Nc3c(N)cccc3Cl)cc2n1C(=O)[O-] (protonated)
[NH-]C(=O)c1cc2ccc(Nc3c(N)cccc3Cl)cc2n1C(=O)[O-] (3D coordinates assigned)
[NH-]C(=O)c1cc2ccc(Nc3c(N)cccc3Cl)cc2n1C(=O)[O-] (optimized conformer: 84.68391158098885 kcal/mol)

>  <smiles>  (6) 
NC(=O)c1cc2ccc(Nc3c(N)cccc3Cl)cc2n1C(=O)O

>  <score_type>  (6) 
oracle

>  <origin>  (6) 
adg

>  <m_score__min__energy>  (6) 
-12.699999999999999

>  <m_primary>  (6) 
energy

$$$$
6:0
     RDKit          3D

 41 42  0  0  0  0  0  0  0  0999 V2000
   -4.2160   24.4200  -27.6270 C   0  0  0  0  0  0  0  0  0  0  0  0
   -3.0850   23.5190  -27.8670 N   0  0  0  0  0  0  0  0  0  0  0  0
   -1.7370   23.9340  -27.4600 C   0  0  0  0  0  0  0  0  0  0  0  0
   -1.0310   24.5800  -28.6080 C   0  0  0  0  0  0  0  0  0  0  0  0
    0.1060   24.1700  -28.9620 O   0  0  0  0  0  0  0  0  0  0  0  0
   -1.6110   25.6580  -29.2650 O   0  0  0  0  0  0  0  0  0  0  0  0
   -3.3450   22.1680  -28.2970 C   0  0  0  0  0  0  0  0  0  0  0  0
   -3.7700   21.3190  -27.4670 O   0  0  0  0  0  0  0  0  0  0  0  0
   -3.1520   21.7780  -29.6690 N   0  0  0  0  0  0  0  0  0  0  0  0
   -2.3260   20.6070  -29.9750 C   0  0  0  0  0  0  0  0  0  0  0  0
   -3.6380   22.6060  -30.7420 C   0  0  0  0  0  0  0  0  0  0  0  0
   -2.8330   23.2360  -31.4800 O   0  0  0  0  0  0  0  0  0  0  0  0
   -5.0470   22.7550  -30.9640 N   0  0  0  0  0  0  0  0  0  0  0  0
   -5.8080   23.8740  -30.8170 C   0  0  0  0  0  0  0  0  0  0  0  0
   -5.3110   25.2130  -30.4350 C   0  0  0  0  0  0  0  0  0  0  0  0
   -4.0170   25.6580  -30.8340 N   0  0  0  0  0  0  0  0  0  0  0  0
   -6.0440   25.9810  -29.7580 O   0  0  0  0  0  0  0  0  0  0  0  0
   -7.1420   23.5950  -31.1190 C   0  0  0  0  0  0  0  0  0  0  0  0
   -7.1690   22.2590  -31.4550 C   0  0  0  0  0  0  0  0  0  0  0  0
   -8.2320   21.4480  -31.8470 C   0  0  0  0  0  0  0  0  0  0  0  0
   -7.9610   20.0970  -32.1290 C   0  0  0  0  0  0  0  0  0  0  0  0
   -6.6460   19.5820  -31.9980 C   0  0  0  0  0  0  0  0  0  0  0  0
   -6.3550   18.1480  -32.3280 C   0  0  0  0  0  0  0  0  0  0  0  0
   -6.0370   17.9850  -34.0720 Cl  0  0  0  0  0  0  0  0  0  0  0  0
   -5.5940   20.4370  -31.6050 C   0  0  0  0  0  0  0  0  0  0  0  0
   -5.8920   21.7770  -31.3470 C   0  0  0  0  0  0  0  0  0  0  0  0
   -4.3661   24.5396  -26.5439 H   0  0  0  0  0  0  0  0  0  0  0  0
   -4.0057   25.4008  -28.0785 H   0  0  0  0  0  0  0  0  0  0  0  0
   -5.1250   23.9958  -28.0785 H   0  0  0  0  0  0  0  0  0  0  0  0
   -1.8122   24.6508  -26.6290 H   0  0  0  0  0  0  0  0  0  0  0  0
   -1.1686   23.0484  -27.1395 H   0  0  0  0  0  0  0  0  0  0  0  0
   -1.9945   20.1370  -29.0373 H   0  0  0  0  0  0  0  0  0  0  0  0
   -2.9157   19.8848  -30.5587 H   0  0  0  0  0  0  0  0  0  0  0  0
   -1.4478   20.9202  -30.5587 H   0  0  0  0  0  0  0  0  0  0  0  0
   -3.1560   25.1600  -30.5180 H   0  0  0  0  0  0  0  0  0  0  0  0
   -7.9914   24.2935  -31.0940 H   0  0  0  0  0  0  0  0  0  0  0  0
   -9.2516   21.8518  -31.9332 H   0  0  0  0  0  0  0  0  0  0  0  0
   -8.7762   19.4339  -32.4541 H   0  0  0  0  0  0  0  0  0  0  0  0
   -5.4721   17.8148  -31.7628 H   0  0  0  0  0  0  0  0  0  0  0  0
   -7.2229   17.5289  -32.0570 H   0  0  0  0  0  0  0  0  0  0  0  0
   -4.5663   20.0579  -31.5045 H   0  0  0  0  0  0  0  0  0  0  0  0
  1  2  1  0
  2  3  1  0
  3  4  1  0
  4  5  2  0
  4  6  1  0
  2  7  1  0
  7  8  2  0
  7  9  1  0
  9 10  1  0
  9 11  1  0
 11 12  2  0
 11 13  1  0
 13 14  1  0
 14 15  1  0
 15 16  1  0
 15 17  2  0
 14 18  2  0
 18 19  1  0
 19 20  2  0
 20 21  1  0
 21 22  2  0
 22 23  1  0
 23 24  1  0
 22 25  1  0
 25 26  2  0
 26 13  1  0
 26 19  1  0
  1 27  1  0
  1 28  1  0
  1 29  1  0
  3 30  1  0
  3 31  1  0
 10 32  1  0
 10 33  1  0
 10 34  1  0
 16 35  1  0
 18 36  1  0
 20 37  1  0
 21 38  1  0
 23 39  1  0
 23 40  1  0
 25 41  1  0
M  CHG  2   6  -1  16  -1
M  END
>  <UniqueID>  (7) 
7

>  <SMILES>  (7) 
CN(CC(=O)[O-])C(=O)N(C)C(=O)n1c(C([NH-])=O)cc2ccc(CCl)cc21

>  <Energy>  (7) 
81.06577604822051

>  <Genealogy>  (7) 
CN(CC(=O)[O-])C(=O)N(C)C(=O)n1c(C([NH-])=O)cc2ccc(CCl)cc21 (protonated)
CN(CC(=O)[O-])C(=O)N(C)C(=O)n1c(C([NH-])=O)cc2ccc(CCl)cc21 (3D coordinates assigned)
CN(CC(=O)[O-])C(=O)N(C)C(=O)n1c(C([NH-])=O)cc2ccc(CCl)cc21 (optimized conformer: 81.06577604822051 kcal/mol)

>  <smiles>  (7) 
CN(CC(=O)O)C(=O)N(C)C(=O)n1c(C(N)=O)cc2ccc(CCl)cc21

>  <score_type>  (7) 
oracle

>  <origin>  (7) 
adg

>  <m_score__min__energy>  (7) 
-12.710000000000001

>  <m_primary>  (7) 
energy

$$$$
7:0
     RDKit          3D

 38 40  0  0  0  0  0  0  0  0999 V2000
   -3.8760   25.6060  -30.8560 N   0  0  0  0  0  0  0  0  0  0  0  0
   -5.2200   25.2940  -30.4770 C   0  0  0  0  0  0  0  0  0  0  0  0
   -5.8510   26.0620  -29.7000 O   0  0  0  0  0  0  0  0  0  0  0  0
   -5.8560   24.0750  -31.0130 C   0  0  0  0  0  0  0  0  0  0  0  0
   -7.2330   23.9270  -31.1760 C   0  0  0  0  0  0  0  0  0  0  0  0
   -7.4150   22.6150  -31.5540 C   0  0  0  0  0  0  0  0  0  0  0  0
   -8.5870   21.9150  -31.8280 C   0  0  0  0  0  0  0  0  0  0  0  0
   -8.4740   20.5540  -32.1630 C   0  0  0  0  0  0  0  0  0  0  0  0
   -7.2070   19.9180  -32.2330 C   0  0  0  0  0  0  0  0  0  0  0  0
   -7.1290   18.4360  -32.5300 C   0  0  0  0  0  0  0  0  0  0  0  0
   -8.3620   17.8490  -32.2990 F   0  0  0  0  0  0  0  0  0  0  0  0
   -6.1810   17.8540  -31.7050 F   0  0  0  0  0  0  0  0  0  0  0  0
   -6.7710   18.2010  -33.8440 F   0  0  0  0  0  0  0  0  0  0  0  0
   -6.0410   20.6680  -31.9550 C   0  0  0  0  0  0  0  0  0  0  0  0
   -6.1810   22.0190  -31.6200 C   0  0  0  0  0  0  0  0  0  0  0  0
   -5.2150   22.9030  -31.2950 N   0  0  0  0  0  0  0  0  0  0  0  0
   -3.8060   22.6280  -31.2390 C   0  0  0  0  0  0  0  0  0  0  0  0
   -3.1830   22.3720  -32.3070 O   0  0  0  0  0  0  0  0  0  0  0  0
   -3.0460   22.6770  -29.9760 C   0  0  0  0  0  0  0  0  0  0  0  0
   -3.4280   21.9530  -29.0120 O   0  0  0  0  0  0  0  0  0  0  0  0
   -1.8660   23.4740  -29.8080 N   0  0  0  0  0  0  0  0  0  0  0  0
   -1.1310   23.6550  -28.5630 C   0  0  0  0  0  0  0  0  0  0  0  0
   -1.3630   25.0750  -28.0380 C   0  0  0  0  0  0  0  0  0  0  0  0
   -1.5500   26.1020  -28.9510 O   0  0  0  0  0  0  0  0  0  0  0  0
   -0.6420   25.4890  -26.7600 C   0  0  0  0  0  0  0  0  0  0  0  0
   -2.1480   25.2300  -26.7430 C   0  0  0  0  0  0  0  0  0  0  0  0
   -3.0740   25.2630  -30.2770 H   0  0  0  0  0  0  0  0  0  0  0  0
   -8.0083   24.6942  -31.0332 H   0  0  0  0  0  0  0  0  0  0  0  0
   -9.5683   22.4100  -31.7839 H   0  0  0  0  0  0  0  0  0  0  0  0
   -9.3832   19.9721  -32.3745 H   0  0  0  0  0  0  0  0  0  0  0  0
   -5.0466   20.1999  -32.0011 H   0  0  0  0  0  0  0  0  0  0  0  0
   -1.4844   22.9261  -27.8188 H   0  0  0  0  0  0  0  0  0  0  0  0
   -0.0570   23.5008  -28.7442 H   0  0  0  0  0  0  0  0  0  0  0  0
   -1.9890   25.6750  -29.7290 H   0  0  0  0  0  0  0  0  0  0  0  0
    0.0430   24.7868  -26.2622 H   0  0  0  0  0  0  0  0  0  0  0  0
    0.0074   26.3278  -26.4689 H   0  0  0  0  0  0  0  0  0  0  0  0
   -2.5476   24.3415  -26.2323 H   0  0  0  0  0  0  0  0  0  0  0  0
   -3.0329   25.8056  -26.4338 H   0  0  0  0  0  0  0  0  0  0  0  0
  1  2  1  0
  2  3  2  0
  2  4  1  0
  4  5  2  0
  5  6  1  0
  6  7  2  0
  7  8  1  0
  8  9  2  0
  9 10  1  0
 10 11  1  0
 10 12  1  0
 10 13  1  0
  9 14  1  0
 14 15  2  0
 15 16  1  0
 16 17  1  0
 17 18  2  0
 17 19  1  0
 19 20  2  0
 19 21  1  0
 21 22  1  0
 22 23  1  0
 23 24  1  0
 23 25  1  0
 25 26  1  0
 16  4  1  0
 26 23  1  0
 15  6  1  0
  1 27  1  0
  5 28  1  0
  7 29  1  0
  8 30  1  0
 14 31  1  0
 22 32  1  0
 22 33  1  0
 24 34  1  0
 25 35  1  0
 25 36  1  0
 26 37  1  0
 26 38  1  0
M  CHG  2   1  -1  21  -1
M  END
>  <UniqueID>  (8) 
8

>  <SMILES>  (8) 
[NH-]C(=O)c1cc2ccc(C(F)(F)F)cc2n1C(=O)C(=O)[N-]CC1(O)CC1

>  <Energy>  (8) 
347.7601685404247

>  <Genealogy>  (8) 
[NH-]C(=O)c1cc2ccc(C(F)(F)F)cc2n1C(=O)C(=O)[N-]CC1(O)CC1 (protonated)
[NH-]C(=O)c1cc2ccc(C(F)(F)F)cc2n1C(=O)C(=O)[N-]CC1(O)CC1 (3D coordinates assigned)
[NH-]C(=O)c1cc2ccc(C(F)(F)F)cc2n1C(=O)C(=O)[N-]CC1(O)CC1 (nonaromatic ring conformer: 347.7601685404247 kcal/mol)

>  <smiles>  (8) 
NC(=O)c1cc2ccc(C(F)(F)F)cc2n1C(=O)C(=O)NCC1(O)CC1

>  <score_type>  (8) 
oracle

>  <origin>  (8) 
adg

>  <m_score__min__energy>  (8) 
-11.710000000000001

>  <m_primary>  (8) 
energy

$$$$
8:0
     RDKit          3D

 49 50  0  0  0  0  0  0  0  0999 V2000
   -0.6550   18.6620  -27.5500 C   0  0  0  0  0  0  0  0  0  0  0  0
   -1.1880   20.0190  -27.7030 N   0  0  0  0  0  0  0  0  0  0  0  0
   -1.3810   20.8400  -26.4980 C   0  0  0  0  0  0  0  0  0  0  0  0
   -0.4050   22.0140  -26.4730 C   0  0  0  0  0  0  0  0  0  0  0  0
    0.6090   21.8200  -27.4170 O   0  0  0  0  0  0  0  0  0  0  0  0
   -1.5870   20.5240  -28.9990 C   0  0  0  0  0  0  0  0  0  0  0  0
   -0.7050   20.8400  -29.8440 O   0  0  0  0  0  0  0  0  0  0  0  0
   -3.0330   20.7190  -29.3820 C   0  0  0  0  0  0  0  0  0  0  0  0
   -3.3240   22.1410  -29.6290 N   0  0  0  0  0  0  0  0  0  0  0  0
   -3.0900   23.1330  -28.5700 C   0  0  0  0  0  0  0  0  0  0  0  0
   -2.0280   24.1040  -28.9900 C   0  0  0  0  0  0  0  0  0  0  0  0
   -2.3380   25.2800  -29.3150 O   0  0  0  0  0  0  0  0  0  0  0  0
   -0.6930   23.7180  -29.0000 O   0  0  0  0  0  0  0  0  0  0  0  0
   -3.9530   22.5450  -30.8650 C   0  0  0  0  0  0  0  0  0  0  0  0
   -3.2570   22.7420  -31.8980 O   0  0  0  0  0  0  0  0  0  0  0  0
   -5.3710   22.7400  -30.9360 N   0  0  0  0  0  0  0  0  0  0  0  0
   -6.0690   23.9000  -30.7850 C   0  0  0  0  0  0  0  0  0  0  0  0
   -5.5100   25.2270  -30.4370 C   0  0  0  0  0  0  0  0  0  0  0  0
   -4.1870   25.6190  -30.8050 N   0  0  0  0  0  0  0  0  0  0  0  0
   -6.2120   26.0250  -29.7590 O   0  0  0  0  0  0  0  0  0  0  0  0
   -7.4210   23.6860  -31.0560 C   0  0  0  0  0  0  0  0  0  0  0  0
   -7.5240   22.3530  -31.3850 C   0  0  0  0  0  0  0  0  0  0  0  0
   -8.6320   21.6080  -31.7780 C   0  0  0  0  0  0  0  0  0  0  0  0
   -8.4310   20.2590  -32.1150 C   0  0  0  0  0  0  0  0  0  0  0  0
   -7.1360   19.6800  -32.0550 C   0  0  0  0  0  0  0  0  0  0  0  0
   -6.9360   18.2470  -32.4770 C   0  0  0  0  0  0  0  0  0  0  0  0
   -5.9580   17.6740  -31.6860 F   0  0  0  0  0  0  0  0  0  0  0  0
   -8.1070   17.5220  -32.3440 F   0  0  0  0  0  0  0  0  0  0  0  0
   -6.5380   18.1890  -33.8010 F   0  0  0  0  0  0  0  0  0  0  0  0
   -6.0330   20.4780  -31.6740 C   0  0  0  0  0  0  0  0  0  0  0  0
   -6.2700   21.8090  -31.3180 C   0  0  0  0  0  0  0  0  0  0  0  0
   -0.5613   18.4233  -26.4803 H   0  0  0  0  0  0  0  0  0  0  0  0
   -1.3379   17.9439  -28.0274 H   0  0  0  0  0  0  0  0  0  0  0  0
    0.3341   18.6006  -28.0274 H   0  0  0  0  0  0  0  0  0  0  0  0
   -2.4103   21.2278  -26.4881 H   0  0  0  0  0  0  0  0  0  0  0  0
   -1.1968   20.2125  -25.6135 H   0  0  0  0  0  0  0  0  0  0  0  0
   -0.9470   22.9420  -26.7076 H   0  0  0  0  0  0  0  0  0  0  0  0
    0.0455   22.0847  -25.4720 H   0  0  0  0  0  0  0  0  0  0  0  0
    0.2100   22.0400  -28.2980 H   0  0  0  0  0  0  0  0  0  0  0  0
   -3.2442   20.1442  -30.2958 H   0  0  0  0  0  0  0  0  0  0  0  0
   -3.6663   20.3695  -28.5532 H   0  0  0  0  0  0  0  0  0  0  0  0
   -4.0238   23.6799  -28.3727 H   0  0  0  0  0  0  0  0  0  0  0  0
   -2.7579   22.6122  -27.6598 H   0  0  0  0  0  0  0  0  0  0  0  0
   -3.8600   26.5900  -30.6040 H   0  0  0  0  0  0  0  0  0  0  0  0
   -3.4850   24.9360  -31.1590 H   0  0  0  0  0  0  0  0  0  0  0  0
   -8.2335   24.4264  -31.0153 H   0  0  0  0  0  0  0  0  0  0  0  0
   -9.6333   22.0611  -31.8233 H   0  0  0  0  0  0  0  0  0  0  0  0
   -9.2872   19.6440  -32.4291 H   0  0  0  0  0  0  0  0  0  0  0  0
   -5.0147   20.0624  -31.6581 H   0  0  0  0  0  0  0  0  0  0  0  0
  1  2  1  0
  2  3  1  0
  3  4  1  0
  4  5  1  0
  2  6  1  0
  6  7  2  0
  6  8  1  0
  8  9  1  0
  9 10  1  0
 10 11  1  0
 11 12  2  0
 11 13  1  0
  9 14  1  0
 14 15  2  0
 14 16  1  0
 16 17  1  0
 17 18  1  0
 18 19  1  0
 18 20  2  0
 17 21  2  0
 21 22  1  0
 22 23  2  0
 23 24  1  0
 24 25  2  0
 25 26  1  0
 26 27  1  0
 26 28  1  0
 26 29  1  0
 25 30  1  0
 30 31  2  0
 31 16  1  0
 31 22  1  0
  1 32  1  0
  1 33  1  0
  1 34  1  0
  3 35  1  0
  3 36  1  0
  4 37  1  0
  4 38  1  0
  5 39  1  0
  8 40  1  0
  8 41  1  0
 10 42  1  0
 10 43  1  0
 19 44  1  0
 19 45  1  0
 21 46  1  0
 23 47  1  0
 24 48  1  0
 30 49  1  0
M  CHG  1  13  -1
M  END
>  <UniqueID>  (9) 
9

>  <SMILES>  (9) 
CN(CCO)C(=O)CN(CC(=O)[O-])C(=O)n1c(C(N)=O)cc2ccc(C(F)(F)F)cc21

>  <Energy>  (9) 
80.33078431045247

>  <Genealogy>  (9) 
CN(CCO)C(=O)CN(CC(=O)[O-])C(=O)n1c(C(N)=O)cc2ccc(C(F)(F)F)cc21 (protonated)
CN(CCO)C(=O)CN(CC(=O)[O-])C(=O)n1c(C(N)=O)cc2ccc(C(F)(F)F)cc21 (3D coordinates assigned)
CN(CCO)C(=O)CN(CC(=O)[O-])C(=O)n1c(C(N)=O)cc2ccc(C(F)(F)F)cc21 (optimized conformer: 80.33078431045247 kcal/mol)

>  <smiles>  (9) 
CN(CCO)C(=O)CN(CC(=O)O)C(=O)n1c(C(N)=O)cc2ccc(C(F)(F)F)cc21

>  <score_type>  (9) 
oracle

>  <origin>  (9) 
adg

>  <m_score__min__energy>  (9) 
-10.26

>  <m_primary>  (9) 
energy

$$$$
9:0
     RDKit          3D

 38 39  0  0  0  0  0  0  0  0999 V2000
   -3.9370   22.6160  -28.3560 C   0  0  0  0  0  0  0  0  0  0  0  0
   -3.4080   23.0260  -29.5180 C   0  0  0  0  0  0  0  0  0  0  0  0
   -2.1940   23.8790  -29.5220 C   0  0  0  0  0  0  0  0  0  0  0  0
   -1.0470   23.3700  -29.6440 O   0  0  0  0  0  0  0  0  0  0  0  0
   -2.3010   25.2570  -29.3750 O   0  0  0  0  0  0  0  0  0  0  0  0
   -4.0310   22.6080  -30.8000 C   0  0  0  0  0  0  0  0  0  0  0  0
   -3.3260   22.0640  -31.6920 O   0  0  0  0  0  0  0  0  0  0  0  0
   -5.4350   22.8010  -31.0430 N   0  0  0  0  0  0  0  0  0  0  0  0
   -6.1670   23.9290  -30.8190 C   0  0  0  0  0  0  0  0  0  0  0  0
   -5.6130   25.2330  -30.3890 C   0  0  0  0  0  0  0  0  0  0  0  0
   -4.2500   25.5740  -30.6520 N   0  0  0  0  0  0  0  0  0  0  0  0
   -6.3380   26.0530  -29.7670 O   0  0  0  0  0  0  0  0  0  0  0  0
   -7.5110   23.7010  -31.1180 C   0  0  0  0  0  0  0  0  0  0  0  0
   -7.5760   22.3870  -31.5260 C   0  0  0  0  0  0  0  0  0  0  0  0
   -8.6690   21.6270  -31.9280 C   0  0  0  0  0  0  0  0  0  0  0  0
   -8.4490   20.2830  -32.2720 C   0  0  0  0  0  0  0  0  0  0  0  0
   -7.1430   19.7210  -32.2090 C   0  0  0  0  0  0  0  0  0  0  0  0
   -6.8860   18.3440  -32.5480 N   0  0  0  0  0  0  0  0  0  0  0  0
   -6.0990   17.4060  -31.7430 C   0  0  0  0  0  0  0  0  0  0  0  0
   -5.2750   16.4680  -32.6310 C   0  0  0  0  0  0  0  0  0  0  0  0
   -5.6920   16.5420  -34.0670 C   0  0  0  0  0  0  0  0  0  0  0  0
   -6.8300   16.1340  -34.4190 O   0  0  0  0  0  0  0  0  0  0  0  0
   -4.8120   17.0340  -35.0220 O   0  0  0  0  0  0  0  0  0  0  0  0
   -6.0650   20.5270  -31.7840 C   0  0  0  0  0  0  0  0  0  0  0  0
   -6.3130   21.8660  -31.4660 C   0  0  0  0  0  0  0  0  0  0  0  0
   -4.8371   21.9836  -28.3542 H   0  0  0  0  0  0  0  0  0  0  0  0
   -3.4709   22.9120  -27.4046 H   0  0  0  0  0  0  0  0  0  0  0  0
   -3.6310   24.9550  -31.2200 H   0  0  0  0  0  0  0  0  0  0  0  0
   -3.8640   26.4810  -30.3100 H   0  0  0  0  0  0  0  0  0  0  0  0
   -8.3418   24.4182  -31.0437 H   0  0  0  0  0  0  0  0  0  0  0  0
   -9.6767   22.0656  -31.9752 H   0  0  0  0  0  0  0  0  0  0  0  0
   -9.2953   19.6581  -32.5935 H   0  0  0  0  0  0  0  0  0  0  0  0
   -7.3700   17.9450  -33.3860 H   0  0  0  0  0  0  0  0  0  0  0  0
   -5.4178   17.9750  -31.0932 H   0  0  0  0  0  0  0  0  0  0  0  0
   -6.7910   16.7975  -31.1423 H   0  0  0  0  0  0  0  0  0  0  0  0
   -4.2141   16.7483  -32.5548 H   0  0  0  0  0  0  0  0  0  0  0  0
   -5.4415   15.4381  -32.2824 H   0  0  0  0  0  0  0  0  0  0  0  0
   -5.0501   20.1102  -31.7045 H   0  0  0  0  0  0  0  0  0  0  0  0
  1  2  2  0
  2  3  1  0
  3  4  2  0
  3  5  1  0
  2  6  1  0
  6  7  2  0
  6  8  1  0
  8  9  1  0
  9 10  1  0
 10 11  1  0
 10 12  2  0
  9 13  2  0
 13 14  1  0
 14 15  2  0
 15 16  1  0
 16 17  2  0
 17 18  1  0
 18 19  1  0
 19 20  1  0
 20 21  1  0
 21 22  2  0
 21 23  1  0
 17 24  1  0
 24 25  2  0
 25  8  1  0
 25 14  1  0
  1 26  1  0
  1 27  1  0
 11 28  1  0
 11 29  1  0
 13 30  1  0
 15 31  1  0
 16 32  1  0
 18 33  1  0
 19 34  1  0
 19 35  1  0
 20 36  1  0
 20 37  1  0
 24 38  1  0
M  CHG  2   5  -1  23  -1
M  END
>  <UniqueID>  (10) 
10

>  <SMILES>  (10) 
C=C(C(=O)[O-])C(=O)n1c(C(N)=O)cc2ccc(NCCC(=O)[O-])cc21

>  <Energy>  (10) 
77.08249485914972

>  <Genealogy>  (10) 
C=C(C(=O)[O-])C(=O)n1c(C(N)=O)cc2ccc(NCCC(=O)[O-])cc21 (protonated)
C=C(C(=O)[O-])C(=O)n1c(C(N)=O)cc2ccc(NCCC(=O)[O-])cc21 (3D coordinates assigned)
C=C(C(=O)[O-])C(=O)n1c(C(N)=O)cc2ccc(NCCC(=O)[O-])cc21 (optimized conformer: 77.08249485914972 kcal/mol)

>  <smiles>  (10) 
C=C(C(=O)O)C(=O)n1c(C(N)=O)cc2ccc(NCCC(=O)O)cc21

>  <score_type>  (10) 
oracle

>  <origin>  (10) 
adg

>  <m_score__min__energy>  (10) 
-10.51

>  <m_primary>  (10) 
energy

$$$$
10:0
     RDKit          3D

 46 47  0  0  0  0  0  0  0  0999 V2000
   -0.8720   22.1870  -30.0660 C   0  0  0  0  0  0  0  0  0  0  0  0
   -1.8870   22.9900  -29.3580 N   0  0  2  0  0  0  0  0  0  0  0  0
   -1.3990   23.5280  -28.0630 C   0  0  0  0  0  0  0  0  0  0  0  0
   -1.8780   24.9710  -27.7140 C   0  0  1  0  0  0  0  0  0  0  0  0
   -2.2850   25.6440  -28.8800 O   0  0  0  0  0  0  0  0  0  0  0  0
   -3.0300   24.9640  -26.6860 C   0  0  0  0  0  0  0  0  0  0  0  0
   -4.2620   24.7790  -27.3290 O   0  0  0  0  0  0  0  0  0  0  0  0
   -3.1410   22.2710  -29.2240 C   0  0  0  0  0  0  0  0  0  0  0  0
   -3.8940   22.4980  -28.2860 O   0  0  0  0  0  0  0  0  0  0  0  0
   -3.5300   21.2170  -30.2240 C   0  0  0  0  0  0  0  0  0  0  0  0
   -4.1790   21.8650  -31.4080 C   0  0  0  0  0  0  0  0  0  0  0  0
   -3.6150   21.8170  -32.5350 O   0  0  0  0  0  0  0  0  0  0  0  0
   -5.4940   22.4230  -31.2950 N   0  0  0  0  0  0  0  0  0  0  0  0
   -5.8450   23.6550  -30.8340 C   0  0  0  0  0  0  0  0  0  0  0  0
   -4.9070   24.7300  -30.4490 C   0  0  0  0  0  0  0  0  0  0  0  0
   -3.5360   24.6470  -30.8350 N   0  0  0  0  0  0  0  0  0  0  0  0
   -5.3000   25.7170  -29.7710 O   0  0  0  0  0  0  0  0  0  0  0  0
   -7.2330   23.7850  -30.8090 C   0  0  0  0  0  0  0  0  0  0  0  0
   -7.7210   22.5820  -31.2740 C   0  0  0  0  0  0  0  0  0  0  0  0
   -9.0310   22.1480  -31.4450 C   0  0  0  0  0  0  0  0  0  0  0  0
   -9.2370   20.8410  -31.9180 C   0  0  0  0  0  0  0  0  0  0  0  0
   -8.1340   19.9940  -32.2060 C   0  0  0  0  0  0  0  0  0  0  0  0
   -8.3740   18.6010  -32.7130 C   0  0  0  0  0  0  0  0  0  0  0  0
   -7.1950   17.8790  -32.6760 F   0  0  0  0  0  0  0  0  0  0  0  0
   -9.3190   17.9750  -31.9200 F   0  0  0  0  0  0  0  0  0  0  0  0
   -6.8180   20.4720  -32.0260 C   0  0  0  0  0  0  0  0  0  0  0  0
   -6.6470   21.7810  -31.5630 C   0  0  0  0  0  0  0  0  0  0  0  0
   -0.2294   21.6786  -29.3321 H   0  0  0  0  0  0  0  0  0  0  0  0
   -1.3721   21.4375  -30.6969 H   0  0  0  0  0  0  0  0  0  0  0  0
   -0.2576   22.8462  -30.6969 H   0  0  0  0  0  0  0  0  0  0  0  0
   -2.0610   23.8230  -29.9710 H   0  0  0  0  0  0  0  0  0  0  0  0
   -1.7428   22.8540  -27.2645 H   0  0  0  0  0  0  0  0  0  0  0  0
   -0.3042   23.5857  -28.1524 H   0  0  0  0  0  0  0  0  0  0  0  0
   -1.0257   25.4988  -27.2612 H   0  0  0  0  0  0  0  0  0  0  0  0
   -3.2770   25.5960  -28.9230 H   0  0  0  0  0  0  0  0  0  0  0  0
   -2.8698   24.1456  -25.9686 H   0  0  0  0  0  0  0  0  0  0  0  0
   -3.0444   25.9310  -26.1619 H   0  0  0  0  0  0  0  0  0  0  0  0
   -4.0650   24.6960  -28.3000 H   0  0  0  0  0  0  0  0  0  0  0  0
   -2.6317   20.6728  -30.5509 H   0  0  0  0  0  0  0  0  0  0  0  0
   -4.2366   20.5140  -29.7586 H   0  0  0  0  0  0  0  0  0  0  0  0
   -2.8210   25.2930  -30.4290 H   0  0  0  0  0  0  0  0  0  0  0  0
   -7.8151   24.6610  -30.4868 H   0  0  0  0  0  0  0  0  0  0  0  0
   -9.8807   22.8082  -31.2168 H   0  0  0  0  0  0  0  0  0  0  0  0
  -10.2620   20.4705  -32.0666 H   0  0  0  0  0  0  0  0  0  0  0  0
   -8.7380   18.6529  -33.7497 H   0  0  0  0  0  0  0  0  0  0  0  0
   -5.9501   19.8323  -32.2440 H   0  0  0  0  0  0  0  0  0  0  0  0
  1  2  1  0
  2  3  1  0
  3  4  1  0
  4  5  1  0
  4  6  1  0
  6  7  1  0
  2  8  1  0
  8  9  2  0
  8 10  1  0
 10 11  1  0
 11 12  2  0
 11 13  1  0
 13 14  1  0
 14 15  1  0
 15 16  1  0
 15 17  2  0
 14 18  2  0
 18 19  1  0
 19 20  2  0
 20 21  1  0
 21 22  2  0
 22 23  1  0
 23 24  1  0
 23 25  1  0
 22 26  1  0
 26 27  2  0
 27 13  1  0
 27 19  1  0
  1 28  1  0
  1 29  1  0
  1 30  1  0
  2 31  1  6
  3 32  1  0
  3 33  1  0
  4 34  1  1
  5 35  1  0
  6 36  1  0
  6 37  1  0
  7 38  1  0
 10 39  1  0
 10 40  1  0
 16 41  1  0
 18 42  1  0
 20 43  1  0
 21 44  1  0
 23 45  1  0
 26 46  1  0
M  CHG  2   2   1  16  -1
M  END
>  <UniqueID>  (11) 
11

>  <SMILES>  (11) 
C[N@H+](C[C@@H](O)CO)C(=O)CC(=O)n1c(C([NH-])=O)cc2ccc(C(F)F)cc21

>  <Energy>  (11) 
87.45725434121941

>  <Genealogy>  (11) 
C[NH+](CC(O)CO)C(=O)CC(=O)n1c(C([NH-])=O)cc2ccc(C(F)F)cc21 (protonated)
C[N@H+](C[C@@H](O)CO)C(=O)CC(=O)n1c(C([NH-])=O)cc2ccc(C(F)F)cc21 (chirality)
C[N@H+](C[C@@H](O)CO)C(=O)CC(=O)n1c(C([NH-])=O)cc2ccc(C(F)F)cc21 (3D coordinates assigned)
C[N@H+](C[C@@H](O)CO)C(=O)CC(=O)n1c(C([NH-])=O)cc2ccc(C(F)F)cc21 (optimized conformer: 87.45725434121941 kcal/mol)

>  <smiles>  (11) 
CN(CC(O)CO)C(=O)CC(=O)n1c(C(N)=O)cc2ccc(C(F)F)cc21

>  <score_type>  (11) 
oracle

>  <origin>  (11) 
adg

>  <m_score__min__energy>  (11) 
-9.1099999999999994

>  <m_primary>  (11) 
energy

$$$$
11:0
     RDKit          3D

 46 47  0  0  0  0  0  0  0  0999 V2000
   -1.2200   22.7900  -26.8110 C   0  0  0  0  0  0  0  0  0  0  0  0
   -1.7440   24.0030  -27.4470 N   0  0  0  0  0  0  0  0  0  0  0  0
   -2.4020   25.0230  -26.6150 C   0  0  0  0  0  0  0  0  0  0  0  0
   -3.9230   24.9030  -26.7050 C   0  0  0  0  0  0  0  0  0  0  0  0
   -4.2950   24.5520  -28.0080 O   0  0  0  0  0  0  0  0  0  0  0  0
   -1.6280   24.2030  -28.8760 C   0  0  0  0  0  0  0  0  0  0  0  0
   -1.6080   25.3750  -29.3420 O   0  0  0  0  0  0  0  0  0  0  0  0
   -1.6330   23.0440  -29.8430 C   0  0  0  0  0  0  0  0  0  0  0  0
   -2.9860   22.4840  -29.9880 N   0  0  0  0  0  0  0  0  0  0  0  0
   -3.6610   21.8770  -28.8360 C   0  0  0  0  0  0  0  0  0  0  0  0
   -3.6670   22.5260  -31.2590 C   0  0  0  0  0  0  0  0  0  0  0  0
   -3.0110   22.4450  -32.3330 O   0  0  0  0  0  0  0  0  0  0  0  0
   -5.0960   22.6240  -31.3260 N   0  0  0  0  0  0  0  0  0  0  0  0
   -5.8820   23.6800  -30.9750 C   0  0  0  0  0  0  0  0  0  0  0  0
   -5.4070   24.9690  -30.4300 C   0  0  0  0  0  0  0  0  0  0  0  0
   -4.0420   25.3650  -30.5540 N   0  0  0  0  0  0  0  0  0  0  0  0
   -6.2200   25.7390  -29.8530 O   0  0  0  0  0  0  0  0  0  0  0  0
   -7.2210   23.3940  -31.2400 C   0  0  0  0  0  0  0  0  0  0  0  0
   -7.2240   22.1270  -31.7810 C   0  0  0  0  0  0  0  0  0  0  0  0
   -8.2810   21.3470  -32.2400 C   0  0  0  0  0  0  0  0  0  0  0  0
   -7.9840   20.0750  -32.7570 C   0  0  0  0  0  0  0  0  0  0  0  0
   -6.6480   19.6010  -32.7900 C   0  0  0  0  0  0  0  0  0  0  0  0
   -6.3550   18.2270  -33.3200 C   0  0  0  0  0  0  0  0  0  0  0  0
   -6.1090   18.2940  -34.6790 F   0  0  0  0  0  0  0  0  0  0  0  0
   -7.4390   17.4000  -33.0910 F   0  0  0  0  0  0  0  0  0  0  0  0
   -5.6000   20.4240  -32.3200 C   0  0  0  0  0  0  0  0  0  0  0  0
   -5.9270   21.6890  -31.8240 C   0  0  0  0  0  0  0  0  0  0  0  0
   -1.2674   22.8996  -25.7175 H   0  0  0  0  0  0  0  0  0  0  0  0
   -1.8243   21.9241  -27.1192 H   0  0  0  0  0  0  0  0  0  0  0  0
   -0.1753   22.6364  -27.1192 H   0  0  0  0  0  0  0  0  0  0  0  0
   -2.0916   24.8889  -25.5683 H   0  0  0  0  0  0  0  0  0  0  0  0
   -2.1060   26.0178  -26.9794 H   0  0  0  0  0  0  0  0  0  0  0  0
   -4.2702   24.1287  -26.0051 H   0  0  0  0  0  0  0  0  0  0  0  0
   -4.3794   25.8695  -26.4450 H   0  0  0  0  0  0  0  0  0  0  0  0
   -4.5560   25.3980  -28.4570 H   0  0  0  0  0  0  0  0  0  0  0  0
   -1.2811   23.3933  -30.8249 H   0  0  0  0  0  0  0  0  0  0  0  0
   -0.9688   22.2589  -29.4525 H   0  0  0  0  0  0  0  0  0  0  0  0
   -3.2241   22.2699  -27.9061 H   0  0  0  0  0  0  0  0  0  0  0  0
   -4.7331   22.1207  -28.8689 H   0  0  0  0  0  0  0  0  0  0  0  0
   -3.5320   20.7851  -28.8689 H   0  0  0  0  0  0  0  0  0  0  0  0
   -3.4960   25.6730  -29.7180 H   0  0  0  0  0  0  0  0  0  0  0  0
   -8.0903   24.0425  -31.0561 H   0  0  0  0  0  0  0  0  0  0  0  0
   -9.3168   21.7149  -32.1993 H   0  0  0  0  0  0  0  0  0  0  0  0
   -8.7964   19.4400  -33.1402 H   0  0  0  0  0  0  0  0  0  0  0  0
   -5.4696   17.8233  -32.8070 H   0  0  0  0  0  0  0  0  0  0  0  0
   -4.5559   20.0787  -32.3438 H   0  0  0  0  0  0  0  0  0  0  0  0
  1  2  1  0
  2  3  1  0
  3  4  1  0
  4  5  1  0
  2  6  1  0
  6  7  2  0
  6  8  1  0
  8  9  1  0
  9 10  1  0
  9 11  1  0
 11 12  2  0
 11 13  1  0
 13 14  1  0
 14 15  1  0
 15 16  1  0
 15 17  2  0
 14 18  2  0
 18 19  1  0
 19 20  2  0
 20 21  1  0
 21 22  2  0
 22 23  1  0
 23 24  1  0
 23 25  1  0
 22 26  1  0
 26 27  2  0
 27 13  1  0
 27 19  1  0
  1 28  1  0
  1 29  1  0
  1 30  1  0
  3 31  1  0
  3 32  1  0
  4 33  1  0
  4 34  1  0
  5 35  1  0
  8 36  1  0
  8 37  1  0
 10 38  1  0
 10 39  1  0
 10 40  1  0
 16 41  1  0
 18 42  1  0
 20 43  1  0
 21 44  1  0
 23 45  1  0
 26 46  1  0
M  CHG  1  16  -1
M  END
>  <UniqueID>  (12) 
12

>  <SMILES>  (12) 
CN(CCO)C(=O)CN(C)C(=O)n1c(C([NH-])=O)cc2ccc(C(F)F)cc21

>  <Energy>  (12) 
74.08036746770752

>  <Genealogy>  (12) 
CN(CCO)C(=O)CN(C)C(=O)n1c(C([NH-])=O)cc2ccc(C(F)F)cc21 (protonated)
CN(CCO)C(=O)CN(C)C(=O)n1c(C([NH-])=O)cc2ccc(C(F)F)cc21 (3D coordinates assigned)
CN(CCO)C(=O)CN(C)C(=O)n1c(C([NH-])=O)cc2ccc(C(F)F)cc21 (optimized conformer: 74.08036746770752 kcal/mol)

>  <smiles>  (12) 
CN(CCO)C(=O)CN(C)C(=O)n1c(C(N)=O)cc2ccc(C(F)F)cc21

>  <score_type>  (12) 
oracle

>  <origin>  (12) 
adg

>  <m_score__min__energy>  (12) 
-10.199999999999999

>  <m_primary>  (12) 
energy

$$$$
12:0
     RDKit          3D

 45 47  0  0  0  0  0  0  0  0999 V2000
   -4.7310   25.6510  -31.1680 N   0  0  0  0  0  0  0  0  0  0  0  0
   -5.6830   24.9630  -30.3570 C   0  0  0  0  0  0  0  0  0  0  0  0
   -6.0160   25.4490  -29.2430 O   0  0  0  0  0  0  0  0  0  0  0  0
   -6.3150   23.7240  -30.8550 C   0  0  0  0  0  0  0  0  0  0  0  0
   -7.6740   23.6170  -31.1500 C   0  0  0  0  0  0  0  0  0  0  0  0
   -7.8760   22.2900  -31.4560 C   0  0  0  0  0  0  0  0  0  0  0  0
   -9.0420   21.6200  -31.8130 C   0  0  0  0  0  0  0  0  0  0  0  0
   -8.9570   20.2410  -32.0730 C   0  0  0  0  0  0  0  0  0  0  0  0
   -7.7130   19.5600  -31.9840 C   0  0  0  0  0  0  0  0  0  0  0  0
   -7.5970   18.0850  -32.2750 C   0  0  0  0  0  0  0  0  0  0  0  0
   -6.6340   17.5280  -31.4550 F   0  0  0  0  0  0  0  0  0  0  0  0
   -7.2440   17.8500  -33.5930 F   0  0  0  0  0  0  0  0  0  0  0  0
   -8.8110   17.4710  -32.0250 F   0  0  0  0  0  0  0  0  0  0  0  0
   -6.5530   20.2780  -31.6110 C   0  0  0  0  0  0  0  0  0  0  0  0
   -6.6710   21.6470  -31.3520 C   0  0  0  0  0  0  0  0  0  0  0  0
   -5.7000   22.5150  -30.9930 N   0  0  0  0  0  0  0  0  0  0  0  0
   -4.3120   22.2000  -30.7970 C   0  0  0  0  0  0  0  0  0  0  0  0
   -3.9760   21.0040  -30.5790 O   0  0  0  0  0  0  0  0  0  0  0  0
   -3.2580   23.2810  -30.8600 C   0  0  0  0  0  0  0  0  0  0  0  0
   -2.6630   23.7020  -29.4810 C   0  0  0  0  0  0  0  0  0  0  0  0
   -2.8520   25.0930  -29.3370 O   0  0  0  0  0  0  0  0  0  0  0  0
   -1.1270   23.4550  -29.4670 C   0  0  0  0  0  0  0  0  0  0  0  0
   -0.5470   23.5020  -28.0460 C   0  0  0  0  0  0  0  0  0  0  0  0
   -1.2460   22.5700  -27.1490 N   0  0  0  0  0  0  0  0  0  0  0  0
   -0.6610   22.2290  -25.8770 C   0  0  0  0  0  0  0  0  0  0  0  0
    0.3780   22.8170  -25.4750 O   0  0  0  0  0  0  0  0  0  0  0  0
   -1.2310   21.2430  -25.0760 O   0  0  0  0  0  0  0  0  0  0  0  0
   -2.5000   21.9370  -27.5840 C   0  0  0  0  0  0  0  0  0  0  0  0
   -3.3840   22.9700  -28.2940 C   0  0  0  0  0  0  0  0  0  0  0  0
   -3.8600   26.0490  -30.7500 H   0  0  0  0  0  0  0  0  0  0  0  0
   -8.4243   24.4213  -31.1402 H   0  0  0  0  0  0  0  0  0  0  0  0
  -10.0012   22.1531  -31.8895 H   0  0  0  0  0  0  0  0  0  0  0  0
   -9.8639   19.6828  -32.3485 H   0  0  0  0  0  0  0  0  0  0  0  0
   -5.5804   19.7712  -31.5266 H   0  0  0  0  0  0  0  0  0  0  0  0
   -2.4335   22.9174  -31.4908 H   0  0  0  0  0  0  0  0  0  0  0  0
   -3.7568   24.1737  -31.2653 H   0  0  0  0  0  0  0  0  0  0  0  0
   -3.8270   25.2660  -29.2490 H   0  0  0  0  0  0  0  0  0  0  0  0
   -0.9231   22.4649  -29.9007 H   0  0  0  0  0  0  0  0  0  0  0  0
   -0.6502   24.2539  -30.0539 H   0  0  0  0  0  0  0  0  0  0  0  0
    0.5181   23.2298  -28.0852 H   0  0  0  0  0  0  0  0  0  0  0  0
   -0.6757   24.5215  -27.6536 H   0  0  0  0  0  0  0  0  0  0  0  0
   -2.2723   21.1134  -28.2767 H   0  0  0  0  0  0  0  0  0  0  0  0
   -3.0332   21.5452  -26.7052 H   0  0  0  0  0  0  0  0  0  0  0  0
   -4.2715   22.4549  -28.6904 H   0  0  0  0  0  0  0  0  0  0  0  0
   -3.6442   23.7381  -27.5508 H   0  0  0  0  0  0  0  0  0  0  0  0
  1  2  1  0
  2  3  2  0
  2  4  1  0
  4  5  2  0
  5  6  1  0
  6  7  2  0
  7  8  1  0
  8  9  2  0
  9 10  1  0
 10 11  1  0
 10 12  1  0
 10 13  1  0
  9 14  1  0
 14 15  2  0
 15 16  1  0
 16 17  1  0
 17 18  2  0
 17 19  1  0
 19 20  1  0
 20 21  1  0
 20 22  1  0
 22 23  1  0
 23 24  1  0
 24 25  1  0
 25 26  2  0
 25 27  1  0
 24 28  1  0
 28 29  1  0
 16  4  1  0
 29 20  1  0
 15  6  1  0
  1 30  1  0
  5 31  1  0
  7 32  1  0
  8 33  1  0
 14 34  1  0
 19 35  1  0
 19 36  1  0
 21 37  1  0
 22 38  1  0
 22 39  1  0
 23 40  1  0
 23 41  1  0
 28 42  1  0
 28 43  1  0
 29 44  1  0
 29 45  1  0
M  CHG  2   1  -1  27  -1
M  END
>  <UniqueID>  (13) 
13

>  <SMILES>  (13) 
[NH-]C(=O)c1cc2ccc(C(F)(F)F)cc2n1C(=O)CC1(O)CCN(C(=O)[O-])CC1

>  <Energy>  (13) 
90.08040358730824

>  <Genealogy>  (13) 
[NH-]C(=O)c1cc2ccc(C(F)(F)F)cc2n1C(=O)CC1(O)CCN(C(=O)[O-])CC1 (protonated)
[NH-]C(=O)c1cc2ccc(C(F)(F)F)cc2n1C(=O)CC1(O)CCN(C(=O)[O-])CC1 (3D coordinates assigned)
[NH-]C(=O)c1cc2ccc(C(F)(F)F)cc2n1C(=O)CC1(O)CCN(C(=O)[O-])CC1 (nonaromatic ring conformer: 90.08040358730824 kcal/mol)

>  <smiles>  (13) 
NC(=O)c1cc2ccc(C(F)(F)F)cc2n1C(=O)CC1(O)CCN(C(=O)O)CC1

>  <score_type>  (13) 
oracle

>  <origin>  (13) 
adg

>  <m_score__min__energy>  (13) 
-10.880000000000001

>  <m_primary>  (13) 
energy

$$$$
13:0
     RDKit          3D

 45 46  0  0  0  0  0  0  0  0999 V2000
   -0.6160   20.2600  -30.3280 C   0  0  0  0  0  0  0  0  0  0  0  0
   -0.8890   21.0960  -29.1470 N   0  0  0  0  0  0  0  0  0  0  0  0
    0.2910   21.1910  -28.2760 C   0  0  0  0  0  0  0  0  0  0  0  0
   -2.0450   20.6050  -28.4140 C   0  0  0  0  0  0  0  0  0  0  0  0
   -2.1060   19.4200  -28.1200 O   0  0  0  0  0  0  0  0  0  0  0  0
   -3.1550   21.5240  -27.9490 C   0  0  0  0  0  0  0  0  0  0  0  0
   -3.3270   22.6530  -28.8770 N   0  0  0  0  0  0  0  0  0  0  0  0
   -3.1030   24.0240  -28.3950 C   0  0  0  0  0  0  0  0  0  0  0  0
   -1.7110   24.4710  -28.7060 C   0  0  0  0  0  0  0  0  0  0  0  0
   -0.7310   23.7330  -28.4320 O   0  0  0  0  0  0  0  0  0  0  0  0
   -1.4960   25.6880  -29.3410 O   0  0  0  0  0  0  0  0  0  0  0  0
   -3.5880   22.4020  -30.2750 C   0  0  0  0  0  0  0  0  0  0  0  0
   -2.6520   22.0470  -31.0400 O   0  0  0  0  0  0  0  0  0  0  0  0
   -4.9050   22.5590  -30.8160 N   0  0  0  0  0  0  0  0  0  0  0  0
   -5.6370   23.7010  -30.9070 C   0  0  0  0  0  0  0  0  0  0  0  0
   -5.2130   25.0300  -30.4250 C   0  0  0  0  0  0  0  0  0  0  0  0
   -3.9830   25.5890  -30.8740 N   0  0  0  0  0  0  0  0  0  0  0  0
   -5.9330   25.6840  -29.6230 O   0  0  0  0  0  0  0  0  0  0  0  0
   -6.8770   23.4360  -31.4880 C   0  0  0  0  0  0  0  0  0  0  0  0
   -6.8730   22.0850  -31.7540 C   0  0  0  0  0  0  0  0  0  0  0  0
   -7.8470   21.2790  -32.3350 C   0  0  0  0  0  0  0  0  0  0  0  0
   -7.5630   19.9110  -32.4910 C   0  0  0  0  0  0  0  0  0  0  0  0
   -6.3230   19.3780  -32.0590 C   0  0  0  0  0  0  0  0  0  0  0  0
   -6.0190   17.9220  -32.2550 C   0  0  0  0  0  0  0  0  0  0  0  0
   -5.6220   17.7050  -33.5630 F   0  0  0  0  0  0  0  0  0  0  0  0
   -5.3510   20.2300  -31.4920 C   0  0  0  0  0  0  0  0  0  0  0  0
   -5.6690   21.5810  -31.3400 C   0  0  0  0  0  0  0  0  0  0  0  0
   -0.2898   19.2611  -30.0027 H   0  0  0  0  0  0  0  0  0  0  0  0
   -1.5309   20.1684  -30.9318 H   0  0  0  0  0  0  0  0  0  0  0  0
    0.1767   20.7260  -30.9318 H   0  0  0  0  0  0  0  0  0  0  0  0
   -1.0980   22.0630  -29.4930 H   0  0  0  0  0  0  0  0  0  0  0  0
   -0.0272   21.1654  -27.2234 H   0  0  0  0  0  0  0  0  0  0  0  0
    0.9638   20.3441  -28.4764 H   0  0  0  0  0  0  0  0  0  0  0  0
    0.8196   22.1346  -28.4764 H   0  0  0  0  0  0  0  0  0  0  0  0
   -4.0949   20.9550  -27.8963 H   0  0  0  0  0  0  0  0  0  0  0  0
   -2.8896   21.9214  -26.9582 H   0  0  0  0  0  0  0  0  0  0  0  0
   -3.8180   24.7009  -28.8856 H   0  0  0  0  0  0  0  0  0  0  0  0
   -3.2462   24.0440  -27.3045 H   0  0  0  0  0  0  0  0  0  0  0  0
   -3.0740   25.3000  -30.4470 H   0  0  0  0  0  0  0  0  0  0  0  0
   -7.6858   24.1535  -31.6906 H   0  0  0  0  0  0  0  0  0  0  0  0
   -8.8095   21.6992  -32.6622 H   0  0  0  0  0  0  0  0  0  0  0  0
   -8.3100   19.2484  -32.9525 H   0  0  0  0  0  0  0  0  0  0  0  0
   -5.2110   17.6211  -31.5720 H   0  0  0  0  0  0  0  0  0  0  0  0
   -6.9198   17.3277  -32.0421 H   0  0  0  0  0  0  0  0  0  0  0  0
   -4.3710   19.8408  -31.1788 H   0  0  0  0  0  0  0  0  0  0  0  0
  1  2  1  0
  2  3  1  0
  2  4  1  0
  4  5  2  0
  4  6  1  0
  6  7  1  0
  7  8  1  0
  8  9  1  0
  9 10  2  0
  9 11  1  0
  7 12  1  0
 12 13  2  0
 12 14  1  0
 14 15  1  0
 15 16  1  0
 16 17  1  0
 16 18  2  0
 15 19  2  0
 19 20  1  0
 20 21  2  0
 21 22  1  0
 22 23  2  0
 23 24  1  0
 24 25  1  0
 23 26  1  0
 26 27  2  0
 27 14  1  0
 27 20  1  0
  1 28  1  0
  1 29  1  0
  1 30  1  0
  2 31  1  0
  3 32  1  0
  3 33  1  0
  3 34  1  0
  6 35  1  0
  6 36  1  0
  8 37  1  0
  8 38  1  0
 17 39  1  0
 19 40  1  0
 21 41  1  0
 22 42  1  0
 24 43  1  0
 24 44  1  0
 26 45  1  0
M  CHG  3   2   1  11  -1  17  -1
M  END
>  <UniqueID>  (14) 
14

>  <SMILES>  (14) 
C[NH+](C)C(=O)CN(CC(=O)[O-])C(=O)n1c(C([NH-])=O)cc2ccc(CF)cc21

>  <Energy>  (14) 
81.52795075596605

>  <Genealogy>  (14) 
C[NH+](C)C(=O)CN(CC(=O)[O-])C(=O)n1c(C([NH-])=O)cc2ccc(CF)cc21 (protonated)
C[NH+](C)C(=O)CN(CC(=O)[O-])C(=O)n1c(C([NH-])=O)cc2ccc(CF)cc21 (3D coordinates assigned)
C[NH+](C)C(=O)CN(CC(=O)[O-])C(=O)n1c(C([NH-])=O)cc2ccc(CF)cc21 (optimized conformer: 81.52795075596605 kcal/mol)

>  <smiles>  (14) 
CN(C)C(=O)CN(CC(=O)O)C(=O)n1c(C(N)=O)cc2ccc(CF)cc21

>  <score_type>  (14) 
oracle

>  <origin>  (14) 
adg

>  <m_score__min__energy>  (14) 
-10.66

>  <m_primary>  (14) 
energy

$$$$
15:0
     RDKit          3D

 40 41  0  0  0  0  0  0  0  0999 V2000
   -3.6140   21.9560  -28.7830 C   0  0  0  0  0  0  0  0  0  0  0  0
   -2.8700   22.2460  -30.0100 N   0  0  0  0  0  0  0  0  0  0  0  0
   -1.4810   22.6030  -29.9120 C   0  0  0  0  0  0  0  0  0  0  0  0
   -0.7040   22.3260  -30.8650 O   0  0  0  0  0  0  0  0  0  0  0  0
   -0.9730   23.2850  -28.7510 N   0  0  0  0  0  0  0  0  0  0  0  0
    0.1540   22.7520  -27.9880 C   0  0  0  0  0  0  0  0  0  0  0  0
   -1.6820   24.8190  -28.2610 P   0  0  1  0  0  0  0  0  0  0  0  0
   -1.1910   25.1880  -26.8790 O   0  0  0  0  0  0  0  0  0  0  0  0
   -1.2380   26.0360  -29.3480 O   0  0  0  0  0  0  0  0  0  0  0  0
   -3.3690   24.6830  -28.2440 O   0  0  0  0  0  0  0  0  0  0  0  0
   -3.5650   22.3710  -31.2680 C   0  0  0  0  0  0  0  0  0  0  0  0
   -2.9290   22.3210  -32.3550 O   0  0  0  0  0  0  0  0  0  0  0  0
   -4.9850   22.5560  -31.3020 N   0  0  0  0  0  0  0  0  0  0  0  0
   -5.6970   23.6410  -30.8950 C   0  0  0  0  0  0  0  0  0  0  0  0
   -5.1260   24.9020  -30.3760 C   0  0  0  0  0  0  0  0  0  0  0  0
   -3.8910   25.4090  -30.8740 N   0  0  0  0  0  0  0  0  0  0  0  0
   -5.7430   25.5490  -29.4870 O   0  0  0  0  0  0  0  0  0  0  0  0
   -7.0630   23.4120  -31.0550 C   0  0  0  0  0  0  0  0  0  0  0  0
   -7.1600   22.1420  -31.5820 C   0  0  0  0  0  0  0  0  0  0  0  0
   -8.2790   21.4030  -31.9510 C   0  0  0  0  0  0  0  0  0  0  0  0
   -8.0750   20.1130  -32.4740 C   0  0  0  0  0  0  0  0  0  0  0  0
   -6.7650   19.5800  -32.6010 C   0  0  0  0  0  0  0  0  0  0  0  0
   -6.5570   18.2170  -33.2120 C   0  0  0  0  0  0  0  0  0  0  0  0
   -5.5090   17.5590  -32.5910 F   0  0  0  0  0  0  0  0  0  0  0  0
   -7.7100   17.4700  -33.0610 F   0  0  0  0  0  0  0  0  0  0  0  0
   -6.2610   18.3250  -34.5600 F   0  0  0  0  0  0  0  0  0  0  0  0
   -5.6520   20.3730  -32.2350 C   0  0  0  0  0  0  0  0  0  0  0  0
   -5.8890   21.6500  -31.7210 C   0  0  0  0  0  0  0  0  0  0  0  0
   -2.9905   22.1990  -27.9100 H   0  0  0  0  0  0  0  0  0  0  0  0
   -4.5315   22.5623  -28.7585 H   0  0  0  0  0  0  0  0  0  0  0  0
   -3.8791   20.8887  -28.7585 H   0  0  0  0  0  0  0  0  0  0  0  0
   -0.0527   22.8498  -26.9120 H   0  0  0  0  0  0  0  0  0  0  0  0
    0.2974   21.6906  -28.2389 H   0  0  0  0  0  0  0  0  0  0  0  0
    1.0654   23.3145  -28.2389 H   0  0  0  0  0  0  0  0  0  0  0  0
   -3.6950   25.4660  -28.7580 H   0  0  0  0  0  0  0  0  0  0  0  0
   -3.0070   25.2990  -30.3300 H   0  0  0  0  0  0  0  0  0  0  0  0
   -7.8875   24.0985  -30.8124 H   0  0  0  0  0  0  0  0  0  0  0  0
   -9.2927   21.8147  -31.8374 H   0  0  0  0  0  0  0  0  0  0  0  0
   -8.9401   19.5105  -32.7881 H   0  0  0  0  0  0  0  0  0  0  0  0
   -4.6262   19.9936  -32.3522 H   0  0  0  0  0  0  0  0  0  0  0  0
  1  2  1  0
  2  3  1  0
  3  4  2  0
  3  5  1  0
  5  6  1  0
  5  7  1  0
  7  8  2  0
  7  9  1  6
  7 10  1  0
  2 11  1  0
 11 12  2  0
 11 13  1  0
 13 14  1  0
 14 15  1  0
 15 16  1  0
 15 17  2  0
 14 18  2  0
 18 19  1  0
 19 20  2  0
 20 21  1  0
 21 22  2  0
 22 23  1  0
 23 24  1  0
 23 25  1  0
 23 26  1  0
 22 27  1  0
 27 28  2  0
 28 13  1  0
 28 19  1  0
  1 29  1  0
  1 30  1  0
  1 31  1  0
  6 32  1  0
  6 33  1  0
  6 34  1  0
 10 35  1  0
 16 36  1  0
 18 37  1  0
 20 38  1  0
 21 39  1  0
 27 40  1  0
M  CHG  2   9  -1  16  -1
M  END
>  <UniqueID>  (15) 
15

>  <SMILES>  (15) 
CN(C(=O)N(C)[P@@](=O)([O-])O)C(=O)n1c(C([NH-])=O)cc2ccc(C(F)(F)F)cc21

>  <Energy>  (15) 
80.33007354991919

>  <Genealogy>  (15) 
CN(C(=O)N(C)P(=O)([O-])O)C(=O)n1c(C([NH-])=O)cc2ccc(C(F)(F)F)cc21 (protonated)
CN(C(=O)N(C)[P@@](=O)([O-])O)C(=O)n1c(C([NH-])=O)cc2ccc(C(F)(F)F)cc21 (chirality)
CN(C(=O)N(C)[P@@](=O)([O-])O)C(=O)n1c(C([NH-])=O)cc2ccc(C(F)(F)F)cc21 (3D coordinates assigned)
CN(C(=O)N(C)[P@@](=O)([O-])O)C(=O)n1c(C([NH-])=O)cc2ccc(C(F)(F)F)cc21 (optimized conformer: 80.33007354991919 kcal/mol)

>  <smiles>  (15) 
CN(C(=O)N(C)P(=O)(O)O)C(=O)n1c(C(N)=O)cc2ccc(C(F)(F)F)cc21

>  <score_type>  (15) 
oracle

>  <origin>  (15) 
adg

>  <m_score__min__energy>  (15) 
-12.82

>  <m_primary>  (15) 
energy

$$$$
16:0
     RDKit          3D

 40 41  0  0  0  0  0  0  0  0999 V2000
   -4.2080   24.5470  -27.5190 C   0  0  0  0  0  0  0  0  0  0  0  0
   -3.0210   23.6760  -27.5160 N   0  0  0  0  0  0  0  0  0  0  0  0
   -3.1780   22.3670  -28.1130 C   0  0  0  0  0  0  0  0  0  0  0  0
   -3.8200   21.4730  -27.4950 O   0  0  0  0  0  0  0  0  0  0  0  0
   -2.6340   22.0620  -29.4060 N   0  0  0  0  0  0  0  0  0  0  0  0
   -2.9610   22.6130  -30.6100 C   0  0  0  0  0  0  0  0  0  0  0  0
   -3.9070   23.7270  -30.8280 C   0  0  0  0  0  0  0  0  0  0  0  0
   -3.5410   25.0710  -30.5320 N   0  0  0  0  0  0  0  0  0  0  0  0
   -5.0470   23.4920  -31.3100 O   0  0  0  0  0  0  0  0  0  0  0  0
   -2.2090   22.0340  -31.6310 C   0  0  0  0  0  0  0  0  0  0  0  0
   -1.3820   21.1270  -31.0060 C   0  0  0  0  0  0  0  0  0  0  0  0
   -0.4090   20.2850  -31.5370 C   0  0  0  0  0  0  0  0  0  0  0  0
    0.3060   19.4630  -30.6500 C   0  0  0  0  0  0  0  0  0  0  0  0
    0.0420   19.5010  -29.2580 C   0  0  0  0  0  0  0  0  0  0  0  0
    0.8120   18.6260  -28.3110 C   0  0  0  0  0  0  0  0  0  0  0  0
   -0.0580   18.0250  -27.4190 F   0  0  0  0  0  0  0  0  0  0  0  0
    1.7270   19.3900  -27.6110 F   0  0  0  0  0  0  0  0  0  0  0  0
   -0.9490   20.3740  -28.7550 C   0  0  0  0  0  0  0  0  0  0  0  0
   -1.6490   21.1750  -29.6640 C   0  0  0  0  0  0  0  0  0  0  0  0
   -1.6580   24.2190  -27.2350 C   0  0  0  0  0  0  0  0  0  0  0  0
   -1.7530   25.2590  -26.0940 C   0  0  0  0  0  0  0  0  0  0  0  0
   -0.6650   23.1230  -26.7730 C   0  0  0  0  0  0  0  0  0  0  0  0
   -1.0800   24.8400  -28.4910 C   0  0  0  0  0  0  0  0  0  0  0  0
   -0.1440   24.2830  -29.1260 O   0  0  0  0  0  0  0  0  0  0  0  0
   -1.5840   26.0490  -28.9580 O   0  0  0  0  0  0  0  0  0  0  0  0
   -4.5053   24.7652  -26.4827 H   0  0  0  0  0  0  0  0  0  0  0  0
   -3.9714   25.4874  -28.0383 H   0  0  0  0  0  0  0  0  0  0  0  0
   -5.0341   24.0392  -28.0383 H   0  0  0  0  0  0  0  0  0  0  0  0
   -2.5710   25.3090  -30.2270 H   0  0  0  0  0  0  0  0  0  0  0  0
   -2.2643   22.2546  -32.7072 H   0  0  0  0  0  0  0  0  0  0  0  0
   -0.2062   20.2639  -32.6179 H   0  0  0  0  0  0  0  0  0  0  0  0
    1.0782   18.7833  -31.0396 H   0  0  0  0  0  0  0  0  0  0  0  0
    1.3417   17.8521  -28.8858 H   0  0  0  0  0  0  0  0  0  0  0  0
   -1.1644   20.4225  -27.6774 H   0  0  0  0  0  0  0  0  0  0  0  0
   -1.7059   24.7437  -25.1233 H   0  0  0  0  0  0  0  0  0  0  0  0
   -0.9159   25.9682  -26.1736 H   0  0  0  0  0  0  0  0  0  0  0  0
   -2.7047   25.8048  -26.1736 H   0  0  0  0  0  0  0  0  0  0  0  0
   -0.6376   23.0928  -25.6738 H   0  0  0  0  0  0  0  0  0  0  0  0
   -0.9918   22.1460  -27.1586 H   0  0  0  0  0  0  0  0  0  0  0  0
    0.3394   23.3521  -27.1586 H   0  0  0  0  0  0  0  0  0  0  0  0
  1  2  1  0
  2  3  1  0
  3  4  2  0
  3  5  1  0
  5  6  1  0
  6  7  1  0
  7  8  1  0
  7  9  2  0
  6 10  2  0
 10 11  1  0
 11 12  2  0
 12 13  1  0
 13 14  2  0
 14 15  1  0
 15 16  1  0
 15 17  1  0
 14 18  1  0
 18 19  2  0
  2 20  1  0
 20 21  1  0
 20 22  1  0
 20 23  1  0
 23 24  2  0
 23 25  1  0
 19  5  1  0
 19 11  1  0
  1 26  1  0
  1 27  1  0
  1 28  1  0
  8 29  1  0
 10 30  1  0
 12 31  1  0
 13 32  1  0
 15 33  1  0
 18 34  1  0
 21 35  1  0
 21 36  1  0
 21 37  1  0
 22 38  1  0
 22 39  1  0
 22 40  1  0
M  CHG  2   8  -1  25  -1
M  END
>  <UniqueID>  (16) 
16

>  <SMILES>  (16) 
CN(C(=O)n1c(C([NH-])=O)cc2ccc(C(F)F)cc21)C(C)(C)C(=O)[O-]

>  <Energy>  (16) 
84.26537528627021

>  <Genealogy>  (16) 
CN(C(=O)n1c(C([NH-])=O)cc2ccc(C(F)F)cc21)C(C)(C)C(=O)[O-] (protonated)
CN(C(=O)n1c(C([NH-])=O)cc2ccc(C(F)F)cc21)C(C)(C)C(=O)[O-] (3D coordinates assigned)
CN(C(=O)n1c(C([NH-])=O)cc2ccc(C(F)F)cc21)C(C)(C)C(=O)[O-] (optimized conformer: 84.26537528627021 kcal/mol)

>  <smiles>  (16) 
CN(C(=O)n1c(C(N)=O)cc2ccc(C(F)F)cc21)C(C)(C)C(=O)O

>  <score_type>  (16) 
oracle

>  <origin>  (16) 
adg

>  <m_score__min__energy>  (16) 
-11.69

>  <m_primary>  (16) 
energy

$$$$
17:0
     RDKit          3D

 36 37  0  0  0  0  0  0  0  0999 V2000
   -4.0910   25.6650  -30.8390 N   0  0  0  0  0  0  0  0  0  0  0  0
   -5.2160   24.9980  -30.2710 C   0  0  0  0  0  0  0  0  0  0  0  0
   -5.7780   25.4930  -29.2580 O   0  0  0  0  0  0  0  0  0  0  0  0
   -5.6780   23.7180  -30.8450 C   0  0  0  0  0  0  0  0  0  0  0  0
   -7.0180   23.4310  -31.0950 C   0  0  0  0  0  0  0  0  0  0  0  0
   -7.0200   22.2010  -31.7130 C   0  0  0  0  0  0  0  0  0  0  0  0
   -8.0850   21.4350  -32.1780 C   0  0  0  0  0  0  0  0  0  0  0  0
   -7.7970   20.1890  -32.7580 C   0  0  0  0  0  0  0  0  0  0  0  0
   -6.4600   19.7320  -32.8590 C   0  0  0  0  0  0  0  0  0  0  0  0
   -6.1740   18.3890  -33.4700 C   0  0  0  0  0  0  0  0  0  0  0  0
   -5.9920   18.5270  -34.8340 F   0  0  0  0  0  0  0  0  0  0  0  0
   -7.2360   17.5350  -33.2350 F   0  0  0  0  0  0  0  0  0  0  0  0
   -5.4040   20.5350  -32.3720 C   0  0  0  0  0  0  0  0  0  0  0  0
   -5.7180   21.7810  -31.8150 C   0  0  0  0  0  0  0  0  0  0  0  0
   -4.8820   22.6990  -31.2820 N   0  0  0  0  0  0  0  0  0  0  0  0
   -3.4540   22.5810  -31.1670 C   0  0  0  0  0  0  0  0  0  0  0  0
   -2.8570   21.5940  -31.6780 O   0  0  0  0  0  0  0  0  0  0  0  0
   -2.7290   23.5780  -30.5090 O   0  0  0  0  0  0  0  0  0  0  0  0
   -1.6490   23.2950  -29.6250 C   0  0  0  0  0  0  0  0  0  0  0  0
   -1.4570   24.4470  -28.6310 C   0  0  1  0  0  0  0  0  0  0  0  0
   -1.5830   25.6730  -29.3050 O   0  0  0  0  0  0  0  0  0  0  0  0
   -2.4530   24.3700  -27.4590 C   0  0  0  0  0  0  0  0  0  0  0  0
   -3.7480   24.7290  -27.8620 O   0  0  0  0  0  0  0  0  0  0  0  0
   -3.1240   25.2930  -30.7080 H   0  0  0  0  0  0  0  0  0  0  0  0
   -7.8901   24.0552  -30.8503 H   0  0  0  0  0  0  0  0  0  0  0  0
   -9.1211   21.7948  -32.0937 H   0  0  0  0  0  0  0  0  0  0  0  0
   -8.6173   19.5620  -33.1374 H   0  0  0  0  0  0  0  0  0  0  0  0
   -5.2613   17.9740  -33.0175 H   0  0  0  0  0  0  0  0  0  0  0  0
   -4.3611   20.1899  -32.4290 H   0  0  0  0  0  0  0  0  0  0  0  0
   -1.8670   22.3703  -29.0706 H   0  0  0  0  0  0  0  0  0  0  0  0
   -0.7278   23.1740  -30.2138 H   0  0  0  0  0  0  0  0  0  0  0  0
   -0.4479   24.3631  -28.2013 H   0  0  0  0  0  0  0  0  0  0  0  0
   -2.4710   25.6650  -29.7490 H   0  0  0  0  0  0  0  0  0  0  0  0
   -2.4713   23.3404  -27.0722 H   0  0  0  0  0  0  0  0  0  0  0  0
   -2.1255   25.0744  -26.6802 H   0  0  0  0  0  0  0  0  0  0  0  0
   -3.6660   25.1320  -28.7660 H   0  0  0  0  0  0  0  0  0  0  0  0
  1  2  1  0
  2  3  2  0
  2  4  1  0
  4  5  2  0
  5  6  1  0
  6  7  2  0
  7  8  1  0
  8  9  2  0
  9 10  1  0
 10 11  1  0
 10 12  1  0
  9 13  1  0
 13 14  2  0
 14 15  1  0
 15 16  1  0
 16 17  2  0
 16 18  1  0
 18 19  1  0
 19 20  1  0
 20 21  1  0
 20 22  1  0
 22 23  1  0
 15  4  1  0
 14  6  1  0
  1 24  1  0
  5 25  1  0
  7 26  1  0
  8 27  1  0
 10 28  1  0
 13 29  1  0
 19 30  1  0
 19 31  1  0
 20 32  1  1
 21 33  1  0
 22 34  1  0
 22 35  1  0
 23 36  1  0
M  CHG  1   1  -1
M  END
>  <UniqueID>  (17) 
17

>  <SMILES>  (17) 
[NH-]C(=O)c1cc2ccc(C(F)F)cc2n1C(=O)OC[C@@H](O)CO

>  <Energy>  (17) 
69.02783022920784

>  <Genealogy>  (17) 
[NH-]C(=O)c1cc2ccc(C(F)F)cc2n1C(=O)OCC(O)CO (protonated)
[NH-]C(=O)c1cc2ccc(C(F)F)cc2n1C(=O)OC[C@@H](O)CO (chirality)
[NH-]C(=O)c1cc2ccc(C(F)F)cc2n1C(=O)OC[C@@H](O)CO (3D coordinates assigned)
[NH-]C(=O)c1cc2ccc(C(F)F)cc2n1C(=O)OC[C@@H](O)CO (optimized conformer: 69.02783022920784 kcal/mol)

>  <smiles>  (17) 
NC(=O)c1cc2ccc(C(F)F)cc2n1C(=O)OCC(O)CO

>  <score_type>  (17) 
oracle

>  <origin>  (17) 
adg

>  <m_score__min__energy>  (17) 
-9.7599999999999998

>  <m_primary>  (17) 
energy

$$$$
18:0
     RDKit          3D

 46 47  0  0  0  0  0  0  0  0999 V2000
    0.7470   24.0250  -25.8300 C   0  0  0  0  0  0  0  0  0  0  0  0
    1.0340   25.1260  -26.8460 C   0  0  0  0  0  0  0  0  0  0  0  0
    0.4530   24.8060  -28.1090 O   0  0  0  0  0  0  0  0  0  0  0  0
   -0.9210   24.8700  -28.3600 C   0  0  0  0  0  0  0  0  0  0  0  0
   -1.4220   25.8670  -28.9500 O   0  0  0  0  0  0  0  0  0  0  0  0
   -1.8000   23.7260  -27.9420 C   0  0  1  0  0  0  0  0  0  0  0  0
   -3.1760   24.2370  -27.5200 C   0  0  0  0  0  0  0  0  0  0  0  0
   -1.9510   22.8060  -29.0210 O   0  0  0  0  0  0  0  0  0  0  0  0
   -2.7330   21.6470  -28.9410 C   0  0  0  0  0  0  0  0  0  0  0  0
   -2.7530   20.9570  -27.8850 O   0  0  0  0  0  0  0  0  0  0  0  0
   -3.5360   21.2170  -30.1260 C   0  0  0  0  0  0  0  0  0  0  0  0
   -3.9630   22.4000  -30.9480 C   0  0  0  0  0  0  0  0  0  0  0  0
   -3.1050   23.0580  -31.5950 O   0  0  0  0  0  0  0  0  0  0  0  0
   -5.3520   22.7410  -31.0620 N   0  0  0  0  0  0  0  0  0  0  0  0
   -5.9450   23.9290  -30.7590 C   0  0  0  0  0  0  0  0  0  0  0  0
   -5.2510   25.1520  -30.3050 C   0  0  0  0  0  0  0  0  0  0  0  0
   -3.8550   25.3360  -30.5300 N   0  0  0  0  0  0  0  0  0  0  0  0
   -5.9040   26.0620  -29.7270 O   0  0  0  0  0  0  0  0  0  0  0  0
   -7.3190   23.8570  -30.9850 C   0  0  0  0  0  0  0  0  0  0  0  0
   -7.5480   22.5770  -31.4380 C   0  0  0  0  0  0  0  0  0  0  0  0
   -8.7370   21.9580  -31.8160 C   0  0  0  0  0  0  0  0  0  0  0  0
   -8.6770   20.6160  -32.2310 C   0  0  0  0  0  0  0  0  0  0  0  0
   -7.4430   19.9180  -32.2390 C   0  0  0  0  0  0  0  0  0  0  0  0
   -7.3830   18.4890  -32.7010 C   0  0  0  0  0  0  0  0  0  0  0  0
   -6.4090   18.3560  -33.7880 C   0  0  0  0  0  0  0  0  0  0  0  0
   -5.6380   18.2490  -34.6450 N   0  0  0  0  0  0  0  0  0  0  0  0
   -6.2590   20.5830  -31.8550 C   0  0  0  0  0  0  0  0  0  0  0  0
   -6.3450   21.9230  -31.4710 C   0  0  0  0  0  0  0  0  0  0  0  0
    0.8523   24.4288  -24.8122 H   0  0  0  0  0  0  0  0  0  0  0  0
   -0.2782   23.6527  -25.9726 H   0  0  0  0  0  0  0  0  0  0  0  0
    1.4600   23.1996  -25.9726 H   0  0  0  0  0  0  0  0  0  0  0  0
    0.6097   26.0734  -26.4823 H   0  0  0  0  0  0  0  0  0  0  0  0
    2.1230   25.2201  -26.9696 H   0  0  0  0  0  0  0  0  0  0  0  0
   -1.3258   23.2188  -27.0888 H   0  0  0  0  0  0  0  0  0  0  0  0
   -3.2377   24.2599  -26.4220 H   0  0  0  0  0  0  0  0  0  0  0  0
   -3.3280   25.2515  -27.9170 H   0  0  0  0  0  0  0  0  0  0  0  0
   -3.9533   23.5676  -27.9170 H   0  0  0  0  0  0  0  0  0  0  0  0
   -2.9256   20.5475  -30.7499 H   0  0  0  0  0  0  0  0  0  0  0  0
   -4.4367   20.6970  -29.7677 H   0  0  0  0  0  0  0  0  0  0  0  0
   -3.5100   26.0390  -31.2200 H   0  0  0  0  0  0  0  0  0  0  0  0
   -8.0623   24.6536  -30.8336 H   0  0  0  0  0  0  0  0  0  0  0  0
   -9.6928   22.5019  -31.7907 H   0  0  0  0  0  0  0  0  0  0  0  0
   -9.5955   20.1031  -32.5523 H   0  0  0  0  0  0  0  0  0  0  0  0
   -7.0815   17.8465  -31.8606 H   0  0  0  0  0  0  0  0  0  0  0  0
   -8.3753   18.1844  -33.0650 H   0  0  0  0  0  0  0  0  0  0  0  0
   -5.2920   20.0587  -31.8581 H   0  0  0  0  0  0  0  0  0  0  0  0
  1  2  1  0
  2  3  1  0
  3  4  1  0
  4  5  2  0
  4  6  1  0
  6  7  1  0
  6  8  1  0
  8  9  1  0
  9 10  2  0
  9 11  1  0
 11 12  1  0
 12 13  2  0
 12 14  1  0
 14 15  1  0
 15 16  1  0
 16 17  1  0
 16 18  2  0
 15 19  2  0
 19 20  1  0
 20 21  2  0
 21 22  1  0
 22 23  2  0
 23 24  1  0
 24 25  1  0
 25 26  3  0
 23 27  1  0
 27 28  2  0
 28 14  1  0
 28 20  1  0
  1 29  1  0
  1 30  1  0
  1 31  1  0
  2 32  1  0
  2 33  1  0
  6 34  1  1
  7 35  1  0
  7 36  1  0
  7 37  1  0
 11 38  1  0
 11 39  1  0
 17 40  1  0
 19 41  1  0
 21 42  1  0
 22 43  1  0
 24 44  1  0
 24 45  1  0
 27 46  1  0
M  CHG  1  17  -1
M  END
>  <UniqueID>  (18) 
18

>  <SMILES>  (18) 
CCOC(=O)[C@@H](C)OC(=O)CC(=O)n1c(C([NH-])=O)cc2ccc(CC#N)cc21

>  <Energy>  (18) 
71.08296717085231

>  <Genealogy>  (18) 
CCOC(=O)C(C)OC(=O)CC(=O)n1c(C([NH-])=O)cc2ccc(CC#N)cc21 (protonated)
CCOC(=O)[C@@H](C)OC(=O)CC(=O)n1c(C([NH-])=O)cc2ccc(CC#N)cc21 (chirality)
CCOC(=O)[C@@H](C)OC(=O)CC(=O)n1c(C([NH-])=O)cc2ccc(CC#N)cc21 (3D coordinates assigned)
CCOC(=O)[C@@H](C)OC(=O)CC(=O)n1c(C([NH-])=O)cc2ccc(CC#N)cc21 (optimized conformer: 71.08296717085231 kcal/mol)

>  <smiles>  (18) 
CCOC(=O)C(C)OC(=O)CC(=O)n1c(C(N)=O)cc2ccc(CC#N)cc21

>  <score_type>  (18) 
oracle

>  <origin>  (18) 
adg

>  <m_score__min__energy>  (18) 
-11.52

>  <m_primary>  (18) 
energy

$$$$
19:0
     RDKit          3D

 48 49  0  0  0  0  0  0  0  0999 V2000
   -2.4250   22.2830  -28.0310 C   0  0  0  0  0  0  0  0  0  0  0  0
   -1.6740   22.6590  -29.3100 C   0  0  1  0  0  0  0  0  0  0  0  0
   -1.0580   21.4130  -29.9600 C   0  0  0  0  0  0  0  0  0  0  0  0
   -1.1570   21.4980  -31.3790 O   0  0  0  0  0  0  0  0  0  0  0  0
   -2.0430   20.7130  -32.1240 C   0  0  0  0  0  0  0  0  0  0  0  0
   -2.4830   19.6260  -31.6610 O   0  0  0  0  0  0  0  0  0  0  0  0
   -2.4490   21.1550  -33.4930 C   0  0  0  0  0  0  0  0  0  0  0  0
   -3.8670   21.2920  -33.5870 O   0  0  0  0  0  0  0  0  0  0  0  0
   -4.6420   21.9740  -32.6400 C   0  0  0  0  0  0  0  0  0  0  0  0
   -4.2480   23.0720  -32.1610 O   0  0  0  0  0  0  0  0  0  0  0  0
   -5.8950   21.4180  -32.2110 N   0  0  0  0  0  0  0  0  0  0  0  0
   -6.8450   22.0170  -31.4400 C   0  0  0  0  0  0  0  0  0  0  0  0
   -6.8230   23.4170  -30.9730 C   0  0  0  0  0  0  0  0  0  0  0  0
   -5.6930   23.9490  -30.2820 N   0  0  0  0  0  0  0  0  0  0  0  0
   -7.7990   24.1720  -31.2320 O   0  0  0  0  0  0  0  0  0  0  0  0
   -7.8890   21.1350  -31.1690 C   0  0  0  0  0  0  0  0  0  0  0  0
   -7.5480   19.9660  -31.8110 C   0  0  0  0  0  0  0  0  0  0  0  0
   -8.2240   18.7530  -31.8720 C   0  0  0  0  0  0  0  0  0  0  0  0
   -7.6220   17.6970  -32.5750 C   0  0  0  0  0  0  0  0  0  0  0  0
   -6.3490   17.8600  -33.1800 C   0  0  0  0  0  0  0  0  0  0  0  0
   -5.6950   16.7190  -33.9290 C   0  0  0  0  0  0  0  0  0  0  0  0
   -4.7470   17.2500  -35.0050 C   0  0  0  0  0  0  0  0  0  0  0  0
   -4.9810   15.9330  -33.0420 F   0  0  0  0  0  0  0  0  0  0  0  0
   -6.6500   15.9160  -34.5330 F   0  0  0  0  0  0  0  0  0  0  0  0
   -5.7020   19.1170  -33.1100 C   0  0  0  0  0  0  0  0  0  0  0  0
   -6.3380   20.1590  -32.4260 C   0  0  0  0  0  0  0  0  0  0  0  0
   -2.5860   23.2600  -30.2100 O   0  0  0  0  0  0  0  0  0  0  0  0
   -3.0860   24.7790  -29.6140 P   0  0  0  0  0  0  0  0  0  0  0  0
   -4.0430   24.5710  -28.4650 O   0  0  0  0  0  0  0  0  0  0  0  0
   -1.7390   25.6390  -29.0630 O   0  0  0  0  0  0  0  0  0  0  0  0
   -3.8610   25.6700  -30.8250 O   0  0  0  0  0  0  0  0  0  0  0  0
   -1.8298   22.5810  -27.1553 H   0  0  0  0  0  0  0  0  0  0  0  0
   -3.3946   22.8020  -28.0091 H   0  0  0  0  0  0  0  0  0  0  0  0
   -2.5905   21.1957  -28.0091 H   0  0  0  0  0  0  0  0  0  0  0  0
   -0.8625   23.3592  -29.0627 H   0  0  0  0  0  0  0  0  0  0  0  0
    0.0015   21.3399  -29.6735 H   0  0  0  0  0  0  0  0  0  0  0  0
   -1.6028   20.5218  -29.6150 H   0  0  0  0  0  0  0  0  0  0  0  0
   -1.9786   22.1249  -33.7121 H   0  0  0  0  0  0  0  0  0  0  0  0
   -2.1215   20.3953  -34.2180 H   0  0  0  0  0  0  0  0  0  0  0  0
   -5.7180   24.9270  -29.9180 H   0  0  0  0  0  0  0  0  0  0  0  0
   -4.7930   23.4200  -30.2290 H   0  0  0  0  0  0  0  0  0  0  0  0
   -8.7913   21.3306  -30.5709 H   0  0  0  0  0  0  0  0  0  0  0  0
   -9.2014   18.6241  -31.3841 H   0  0  0  0  0  0  0  0  0  0  0  0
   -8.1435   16.7320  -32.6576 H   0  0  0  0  0  0  0  0  0  0  0  0
   -3.8830   17.7339  -34.5261 H   0  0  0  0  0  0  0  0  0  0  0  0
   -4.3991   16.4154  -35.6315 H   0  0  0  0  0  0  0  0  0  0  0  0
   -5.2769   17.9826  -35.6315 H   0  0  0  0  0  0  0  0  0  0  0  0
   -4.7209   19.2713  -33.5829 H   0  0  0  0  0  0  0  0  0  0  0  0
  1  2  1  0
  2  3  1  0
  3  4  1  0
  4  5  1  0
  5  6  2  0
  5  7  1  0
  7  8  1  0
  8  9  1  0
  9 10  2  0
  9 11  1  0
 11 12  1  0
 12 13  1  0
 13 14  1  0
 13 15  2  0
 12 16  2  0
 16 17  1  0
 17 18  2  0
 18 19  1  0
 19 20  2  0
 20 21  1  0
 21 22  1  0
 21 23  1  0
 21 24  1  0
 20 25  1  0
 25 26  2  0
  2 27  1  0
 27 28  1  0
 28 29  2  0
 28 30  1  0
 28 31  1  0
 26 11  1  0
 26 17  1  0
  1 32  1  0
  1 33  1  0
  1 34  1  0
  2 35  1  1
  3 36  1  0
  3 37  1  0
  7 38  1  0
  7 39  1  0
 14 40  1  0
 14 41  1  0
 16 42  1  0
 18 43  1  0
 19 44  1  0
 22 45  1  0
 22 46  1  0
 22 47  1  0
 25 48  1  0
M  CHG  2  30  -1  31  -1
M  END
>  <UniqueID>  (19) 
19

>  <SMILES>  (19) 
C[C@@H](COC(=O)COC(=O)n1c(C(N)=O)cc2ccc(C(C)(F)F)cc21)OP(=O)([O-])[O-]

>  <Energy>  (19) 
76.34938834281624

>  <Genealogy>  (19) 
CC(COC(=O)COC(=O)n1c(C(N)=O)cc2ccc(C(C)(F)F)cc21)OP(=O)([O-])[O-] (protonated)
C[C@@H](COC(=O)COC(=O)n1c(C(N)=O)cc2ccc(C(C)(F)F)cc21)OP(=O)([O-])[O-] (chirality)
C[C@@H](COC(=O)COC(=O)n1c(C(N)=O)cc2ccc(C(C)(F)F)cc21)OP(=O)([O-])[O-] (3D coordinates assigned)
C[C@@H](COC(=O)COC(=O)n1c(C(N)=O)cc2ccc(C(C)(F)F)cc21)OP(=O)([O-])[O-] (optimized conformer: 76.34938834281624 kcal/mol)

>  <smiles>  (19) 
CC(COC(=O)COC(=O)n1c(C(N)=O)cc2ccc(C(C)(F)F)cc21)OP(=O)(O)O

>  <score_type>  (19) 
oracle

>  <origin>  (19) 
adg

>  <m_score__min__energy>  (19) 
-11.83

>  <m_primary>  (19) 
energy

$$$$
20:0
     RDKit          3D

 54 55  0  0  0  0  0  0  0  0999 V2000
    1.2250   19.4130  -34.9080 C   0  0  0  0  0  0  0  0  0  0  0  0
    0.1860   20.4270  -35.0990 N   0  0  0  0  0  0  0  0  0  0  0  0
    0.2780   21.3440  -36.2460 C   0  0  0  0  0  0  0  0  0  0  0  0
    1.1120   22.5430  -35.9090 C   0  0  0  0  0  0  0  0  0  0  0  0
    1.5780   22.6820  -34.7470 O   0  0  0  0  0  0  0  0  0  0  0  0
    1.3590   23.5130  -36.8720 O   0  0  0  0  0  0  0  0  0  0  0  0
   -0.7020   20.7200  -34.0060 C   0  0  0  0  0  0  0  0  0  0  0  0
   -0.8110   21.9150  -33.6150 O   0  0  0  0  0  0  0  0  0  0  0  0
   -1.4190   19.6710  -33.3170 N   0  0  0  0  0  0  0  0  0  0  0  0
   -2.6890   19.1650  -33.8470 C   0  0  0  0  0  0  0  0  0  0  0  0
   -0.8150   19.0220  -32.1450 C   0  0  0  0  0  0  0  0  0  0  0  0
   -0.3710   20.0480  -31.1460 C   0  0  0  0  0  0  0  0  0  0  0  0
    0.8140   20.0210  -30.7140 O   0  0  0  0  0  0  0  0  0  0  0  0
   -1.2650   21.0440  -30.7390 O   0  0  0  0  0  0  0  0  0  0  0  0
   -2.1530   20.8970  -29.6300 C   0  0  0  0  0  0  0  0  0  0  0  0
   -2.7240   22.2550  -29.2190 C   0  0  0  0  0  0  0  0  0  0  0  0
   -2.8740   23.0840  -30.3650 O   0  0  0  0  0  0  0  0  0  0  0  0
   -3.6760   22.7350  -31.4560 C   0  0  0  0  0  0  0  0  0  0  0  0
   -3.1550   22.3010  -32.5170 O   0  0  0  0  0  0  0  0  0  0  0  0
   -5.0980   22.9110  -31.3750 N   0  0  0  0  0  0  0  0  0  0  0  0
   -5.7870   23.9830  -30.8890 C   0  0  0  0  0  0  0  0  0  0  0  0
   -5.2020   25.2720  -30.4590 C   0  0  0  0  0  0  0  0  0  0  0  0
   -3.8730   25.6190  -30.8510 N   0  0  0  0  0  0  0  0  0  0  0  0
   -5.8550   26.0670  -29.7360 O   0  0  0  0  0  0  0  0  0  0  0  0
   -7.1590   23.7300  -30.9170 C   0  0  0  0  0  0  0  0  0  0  0  0
   -7.2890   22.4650  -31.4470 C   0  0  0  0  0  0  0  0  0  0  0  0
   -8.4290   21.6960  -31.6720 C   0  0  0  0  0  0  0  0  0  0  0  0
   -8.2620   20.4030  -32.1940 C   0  0  0  0  0  0  0  0  0  0  0  0
   -6.9660   19.9050  -32.4980 C   0  0  0  0  0  0  0  0  0  0  0  0
   -6.7970   18.4910  -32.9930 C   0  0  0  0  0  0  0  0  0  0  0  0
   -6.4430   18.4800  -34.3320 F   0  0  0  0  0  0  0  0  0  0  0  0
   -7.9760   17.7790  -32.8520 F   0  0  0  0  0  0  0  0  0  0  0  0
   -5.8040   17.8710  -32.2580 F   0  0  0  0  0  0  0  0  0  0  0  0
   -5.8310   20.7090  -32.2340 C   0  0  0  0  0  0  0  0  0  0  0  0
   -6.0300   21.9980  -31.7240 C   0  0  0  0  0  0  0  0  0  0  0  0
    1.3884   19.2536  -33.8319 H   0  0  0  0  0  0  0  0  0  0  0  0
    0.9063   18.4691  -35.3743 H   0  0  0  0  0  0  0  0  0  0  0  0
    2.1609   19.7546  -35.3743 H   0  0  0  0  0  0  0  0  0  0  0  0
    0.7358   20.8142  -37.0944 H   0  0  0  0  0  0  0  0  0  0  0  0
   -0.7355   21.6836  -36.5056 H   0  0  0  0  0  0  0  0  0  0  0  0
   -3.3548   18.8997  -33.0126 H   0  0  0  0  0  0  0  0  0  0  0  0
   -3.1649   19.9422  -34.4630 H   0  0  0  0  0  0  0  0  0  0  0  0
   -2.5000   18.2735  -34.4630 H   0  0  0  0  0  0  0  0  0  0  0  0
   -1.5567   18.3582  -31.6767 H   0  0  0  0  0  0  0  0  0  0  0  0
    0.0607   18.4421  -32.4719 H   0  0  0  0  0  0  0  0  0  0  0  0
   -2.9786   20.2276  -29.9133 H   0  0  0  0  0  0  0  0  0  0  0  0
   -1.5961   20.4730  -28.7814 H   0  0  0  0  0  0  0  0  0  0  0  0
   -3.7051   22.1093  -28.7433 H   0  0  0  0  0  0  0  0  0  0  0  0
   -2.0352   22.7380  -28.5103 H   0  0  0  0  0  0  0  0  0  0  0  0
   -3.0440   25.2520  -30.3300 H   0  0  0  0  0  0  0  0  0  0  0  0
   -7.9665   24.3995  -30.5857 H   0  0  0  0  0  0  0  0  0  0  0  0
   -9.4310   22.0904  -31.4472 H   0  0  0  0  0  0  0  0  0  0  0  0
   -9.1436   19.7689  -32.3694 H   0  0  0  0  0  0  0  0  0  0  0  0
   -4.8162   20.3299  -32.4251 H   0  0  0  0  0  0  0  0  0  0  0  0
  1  2  1  0
  2  3  1  0
  3  4  1  0
  4  5  2  0
  4  6  1  0
  2  7  1  0
  7  8  2  0
  7  9  1  0
  9 10  1  0
  9 11  1  0
 11 12  1  0
 12 13  2  0
 12 14  1  0
 14 15  1  0
 15 16  1  0
 16 17  1  0
 17 18  1  0
 18 19  2  0
 18 20  1  0
 20 21  1  0
 21 22  1  0
 22 23  1  0
 22 24  2  0
 21 25  2  0
 25 26  1  0
 26 27  2  0
 27 28  1  0
 28 29  2  0
 29 30  1  0
 30 31  1  0
 30 32  1  0
 30 33  1  0
 29 34  1  0
 34 35  2  0
 35 20  1  0
 35 26  1  0
  1 36  1  0
  1 37  1  0
  1 38  1  0
  3 39  1  0
  3 40  1  0
 10 41  1  0
 10 42  1  0
 10 43  1  0
 11 44  1  0
 11 45  1  0
 15 46  1  0
 15 47  1  0
 16 48  1  0
 16 49  1  0
 23 50  1  0
 25 51  1  0
 27 52  1  0
 28 53  1  0
 34 54  1  0
M  CHG  2   6  -1  23  -1
M  END
>  <UniqueID>  (20) 
20

>  <SMILES>  (20) 
CN(CC(=O)[O-])C(=O)N(C)CC(=O)OCCOC(=O)n1c(C([NH-])=O)cc2ccc(C(F)(F)F)cc21

>  <Energy>  (20) 
87.66792065212583

>  <Genealogy>  (20) 
CN(CC(=O)[O-])C(=O)N(C)CC(=O)OCCOC(=O)n1c(C([NH-])=O)cc2ccc(C(F)(F)F)cc21 (protonated)
CN(CC(=O)[O-])C(=O)N(C)CC(=O)OCCOC(=O)n1c(C([NH-])=O)cc2ccc(C(F)(F)F)cc21 (3D coordinates assigned)
CN(CC(=O)[O-])C(=O)N(C)CC(=O)OCCOC(=O)n1c(C([NH-])=O)cc2ccc(C(F)(F)F)cc21 (optimized conformer: 87.66792065212583 kcal/mol)

>  <smiles>  (20) 
CN(CC(=O)O)C(=O)N(C)CC(=O)OCCOC(=O)n1c(C(N)=O)cc2ccc(C(F)(F)F)cc21

>  <score_type>  (20) 
oracle

>  <origin>  (20) 
adg

>  <m_score__min__energy>  (20) 
-11.99

>  <m_primary>  (20) 
energy

$$$$
21:0
     RDKit          3D

 39 40  0  0  0  0  0  0  0  0999 V2000
   -1.2730   20.9980  -26.4710 C   0  0  0  0  0  0  0  0  0  0  0  0
   -1.4620   22.3240  -26.4300 C   0  0  0  0  0  0  0  0  0  0  0  0
   -2.0110   23.1210  -27.6020 C   0  0  1  0  0  0  0  0  0  0  0  0
   -2.8410   24.6600  -27.0420 S   0  0  0  0  0  0  0  0  0  0  0  0
   -0.6360   23.5490  -28.7520 S   0  0  0  0  0  0  0  0  0  0  0  0
   -0.5920   25.3190  -28.4520 C   0  0  0  0  0  0  0  0  0  0  0  0
   -1.4690   26.0640  -28.9670 O   0  0  0  0  0  0  0  0  0  0  0  0
    0.4150   25.8650  -27.5980 N   0  0  0  0  0  0  0  0  0  0  0  0
    1.5050   25.0650  -27.0620 C   0  0  0  0  0  0  0  0  0  0  0  0
   -3.0260   22.3140  -28.3880 C   0  0  0  0  0  0  0  0  0  0  0  0
   -3.9600   21.7280  -27.7740 O   0  0  0  0  0  0  0  0  0  0  0  0
   -2.9050   22.1240  -29.8050 N   0  0  0  0  0  0  0  0  0  0  0  0
   -3.4940   22.8430  -30.8000 C   0  0  0  0  0  0  0  0  0  0  0  0
   -4.4200   23.9770  -30.6070 C   0  0  0  0  0  0  0  0  0  0  0  0
   -3.9050   25.2990  -30.4680 N   0  0  0  0  0  0  0  0  0  0  0  0
   -5.6650   23.7920  -30.5740 O   0  0  0  0  0  0  0  0  0  0  0  0
   -3.1110   22.3480  -32.0460 C   0  0  0  0  0  0  0  0  0  0  0  0
   -2.2710   21.2910  -31.7760 C   0  0  0  0  0  0  0  0  0  0  0  0
   -1.5850   20.4440  -32.6400 C   0  0  0  0  0  0  0  0  0  0  0  0
   -0.7700   19.4460  -32.0770 C   0  0  0  0  0  0  0  0  0  0  0  0
   -0.6680   19.3020  -30.6680 C   0  0  0  0  0  0  0  0  0  0  0  0
    0.2470   18.2670  -30.0640 C   0  0  0  0  0  0  0  0  0  0  0  0
    1.5670   18.6620  -30.1930 F   0  0  0  0  0  0  0  0  0  0  0  0
    0.0710   17.0650  -30.7240 F   0  0  0  0  0  0  0  0  0  0  0  0
   -0.0220   18.0860  -28.7190 F   0  0  0  0  0  0  0  0  0  0  0  0
   -1.3690   20.1940  -29.8250 C   0  0  0  0  0  0  0  0  0  0  0  0
   -2.1700   21.1740  -30.4160 C   0  0  0  0  0  0  0  0  0  0  0  0
   -0.8723   20.4721  -25.5919 H   0  0  0  0  0  0  0  0  0  0  0  0
   -1.5186   20.4354  -27.3838 H   0  0  0  0  0  0  0  0  0  0  0  0
   -1.2078   22.8611  -25.5043 H   0  0  0  0  0  0  0  0  0  0  0  0
   -3.2640   25.0590  -28.3230 H   0  0  0  0  0  0  0  0  0  0  0  0
    1.4717   25.0895  -25.9628 H   0  0  0  0  0  0  0  0  0  0  0  0
    1.4024   24.0262  -27.4089 H   0  0  0  0  0  0  0  0  0  0  0  0
    2.4653   25.4743  -27.4089 H   0  0  0  0  0  0  0  0  0  0  0  0
   -3.5360   25.6360  -29.5520 H   0  0  0  0  0  0  0  0  0  0  0  0
   -3.4153   22.7224  -33.0346 H   0  0  0  0  0  0  0  0  0  0  0  0
   -1.6772   20.5516  -33.7308 H   0  0  0  0  0  0  0  0  0  0  0  0
   -0.2053   18.7694  -32.7353 H   0  0  0  0  0  0  0  0  0  0  0  0
   -1.2859   20.1184  -28.7308 H   0  0  0  0  0  0  0  0  0  0  0  0
  1  2  2  0
  2  3  1  0
  3  4  1  1
  3  5  1  0
  5  6  1  0
  6  7  2  0
  6  8  1  0
  8  9  1  0
  3 10  1  0
 10 11  2  0
 10 12  1  0
 12 13  1  0
 13 14  1  0
 14 15  1  0
 14 16  2  0
 13 17  2  0
 17 18  1  0
 18 19  2  0
 19 20  1  0
 20 21  2  0
 21 22  1  0
 22 23  1  0
 22 24  1  0
 22 25  1  0
 21 26  1  0
 26 27  2  0
 27 12  1  0
 27 18  1  0
  1 28  1  0
  1 29  1  0
  2 30  1  0
  4 31  1  0
  9 32  1  0
  9 33  1  0
  9 34  1  0
 15 35  1  0
 17 36  1  0
 19 37  1  0
 20 38  1  0
 26 39  1  0
M  CHG  2   8  -1  15  -1
M  END
>  <UniqueID>  (21) 
21

>  <SMILES>  (21) 
C=C[C@@](S)(SC(=O)[N-]C)C(=O)n1c(C([NH-])=O)cc2ccc(C(F)(F)F)cc21

>  <Energy>  (21) 
74.72593827120407

>  <Genealogy>  (21) 
C=CC(S)(SC(=O)[N-]C)C(=O)n1c(C([NH-])=O)cc2ccc(C(F)(F)F)cc21 (protonated)
C=C[C@@](S)(SC(=O)[N-]C)C(=O)n1c(C([NH-])=O)cc2ccc(C(F)(F)F)cc21 (chirality)
C=C[C@@](S)(SC(=O)[N-]C)C(=O)n1c(C([NH-])=O)cc2ccc(C(F)(F)F)cc21 (3D coordinates assigned)
C=C[C@@](S)(SC(=O)[N-]C)C(=O)n1c(C([NH-])=O)cc2ccc(C(F)(F)F)cc21 (optimized conformer: 74.72593827120407 kcal/mol)

>  <smiles>  (21) 
C=CC(S)(SC(=O)NC)C(=O)n1c(C(N)=O)cc2ccc(C(F)(F)F)cc21

>  <score_type>  (21) 
oracle

>  <origin>  (21) 
adg

>  <m_score__min__energy>  (21) 
-11.56

>  <m_primary>  (21) 
energy

$$$$
22:0
     RDKit          3D

 50 52  0  0  0  0  0  0  0  0999 V2000
   -4.5710   14.2100  -31.6540 C   0  0  0  0  0  0  0  0  0  0  0  0
   -4.3070   14.7750  -32.9950 N   0  0  0  0  0  0  0  0  0  0  0  0
   -2.9070   15.2350  -33.0710 C   0  0  0  0  0  0  0  0  0  0  0  0
   -5.2370   15.8640  -33.4200 C   0  0  2  0  0  0  0  0  0  0  0  0
   -4.9080   16.5470  -34.7590 C   0  0  0  0  0  0  0  0  0  0  0  0
   -5.5130   17.9390  -34.6340 C   0  0  0  0  0  0  0  0  0  0  0  0
   -5.6370   18.1960  -33.2040 N   0  0  0  0  0  0  0  0  0  0  0  0
   -6.0330   19.4710  -32.6470 C   0  0  0  0  0  0  0  0  0  0  0  0
   -7.4060   19.8080  -32.5090 C   0  0  0  0  0  0  0  0  0  0  0  0
   -7.7950   21.0530  -31.9830 C   0  0  0  0  0  0  0  0  0  0  0  0
   -6.7960   21.9420  -31.6000 C   0  0  0  0  0  0  0  0  0  0  0  0
   -6.8890   23.2250  -31.1060 C   0  0  0  0  0  0  0  0  0  0  0  0
   -5.5740   23.6490  -30.9290 C   0  0  0  0  0  0  0  0  0  0  0  0
   -5.2100   24.9580  -30.3500 C   0  0  0  0  0  0  0  0  0  0  0  0
   -4.0640   25.6710  -30.8130 N   0  0  0  0  0  0  0  0  0  0  0  0
   -5.8960   25.4350  -29.4070 O   0  0  0  0  0  0  0  0  0  0  0  0
   -4.7020   22.6690  -31.3020 N   0  0  0  0  0  0  0  0  0  0  0  0
   -3.2700   22.7330  -31.3670 C   0  0  0  0  0  0  0  0  0  0  0  0
   -2.6430   22.0180  -32.1950 O   0  0  0  0  0  0  0  0  0  0  0  0
   -2.5750   23.5540  -30.4750 O   0  0  0  0  0  0  0  0  0  0  0  0
   -2.6290   23.3900  -29.0630 C   0  0  0  0  0  0  0  0  0  0  0  0
   -2.1630   24.6740  -28.3840 C   0  0  0  0  0  0  0  0  0  0  0  0
   -1.4890   25.4940  -29.3010 O   0  0  0  0  0  0  0  0  0  0  0  0
   -5.4670   21.6320  -31.7090 C   0  0  0  0  0  0  0  0  0  0  0  0
   -5.0510   20.4080  -32.2420 C   0  0  0  0  0  0  0  0  0  0  0  0
   -5.3620   17.0080  -32.4050 C   0  0  0  0  0  0  0  0  0  0  0  0
   -4.2384   14.9219  -30.8842 H   0  0  0  0  0  0  0  0  0  0  0  0
   -5.6492   14.0241  -31.5402 H   0  0  0  0  0  0  0  0  0  0  0  0
   -4.0218   13.2637  -31.5402 H   0  0  0  0  0  0  0  0  0  0  0  0
   -4.4030   13.9940  -33.6860 H   0  0  0  0  0  0  0  0  0  0  0  0
   -2.5084   15.3660  -32.0542 H   0  0  0  0  0  0  0  0  0  0  0  0
   -2.3041   14.4877  -33.6077 H   0  0  0  0  0  0  0  0  0  0  0  0
   -2.8648   16.1942  -33.6077 H   0  0  0  0  0  0  0  0  0  0  0  0
   -6.1727   15.2934  -33.5139 H   0  0  0  0  0  0  0  0  0  0  0  0
   -3.8198   16.6076  -34.9078 H   0  0  0  0  0  0  0  0  0  0  0  0
   -5.3071   15.9927  -35.6212 H   0  0  0  0  0  0  0  0  0  0  0  0
   -4.8538   18.6857  -35.1008 H   0  0  0  0  0  0  0  0  0  0  0  0
   -6.4872   18.0021  -35.1408 H   0  0  0  0  0  0  0  0  0  0  0  0
   -8.1756   19.0853  -32.8178 H   0  0  0  0  0  0  0  0  0  0  0  0
   -8.8579   21.3160  -31.8776 H   0  0  0  0  0  0  0  0  0  0  0  0
   -7.8069   23.7937  -30.8960 H   0  0  0  0  0  0  0  0  0  0  0  0
   -3.1060   25.2680  -30.7200 H   0  0  0  0  0  0  0  0  0  0  0  0
   -3.6627   23.1686  -28.7588 H   0  0  0  0  0  0  0  0  0  0  0  0
   -1.9732   22.5587  -28.7650 H   0  0  0  0  0  0  0  0  0  0  0  0
   -3.0368   25.2132  -27.9893 H   0  0  0  0  0  0  0  0  0  0  0  0
   -1.4768   24.4158  -27.5640 H   0  0  0  0  0  0  0  0  0  0  0  0
   -2.1210   25.6680  -30.0460 H   0  0  0  0  0  0  0  0  0  0  0  0
   -3.9805   20.1770  -32.3449 H   0  0  0  0  0  0  0  0  0  0  0  0
   -4.4245   17.1294  -31.8425 H   0  0  0  0  0  0  0  0  0  0  0  0
   -6.1525   16.8173  -31.6642 H   0  0  0  0  0  0  0  0  0  0  0  0
  1  2  1  0
  2  3  1  0
  2  4  1  0
  4  5  1  0
  5  6  1  0
  6  7  1  0
  7  8  1  0
  8  9  2  0
  9 10  1  0
 10 11  2  0
 11 12  1  0
 12 13  2  0
 13 14  1  0
 14 15  1  0
 14 16  2  0
 13 17  1  0
 17 18  1  0
 18 19  2  0
 18 20  1  0
 20 21  1  0
 21 22  1  0
 22 23  1  0
 17 24  1  0
 24 25  2  0
  7 26  1  0
 26  4  1  0
 25  8  1  0
 24 11  1  0
  1 27  1  0
  1 28  1  0
  1 29  1  0
  2 30  1  0
  3 31  1  0
  3 32  1  0
  3 33  1  0
  4 34  1  6
  5 35  1  0
  5 36  1  0
  6 37  1  0
  6 38  1  0
  9 39  1  0
 10 40  1  0
 12 41  1  0
 15 42  1  0
 21 43  1  0
 21 44  1  0
 22 45  1  0
 22 46  1  0
 23 47  1  0
 25 48  1  0
 26 49  1  0
 26 50  1  0
M  CHG  2   2   1  15  -1
M  END
>  <UniqueID>  (22) 
22

>  <SMILES>  (22) 
C[NH+](C)[C@@H]1CCN(c2ccc3cc(C([NH-])=O)n(C(=O)OCCO)c3c2)C1

>  <Energy>  (22) 
94.38583250990024

>  <Genealogy>  (22) 
C[NH+](C)C1CCN(c2ccc3cc(C([NH-])=O)n(C(=O)OCCO)c3c2)C1 (protonated)
C[NH+](C)[C@@H]1CCN(c2ccc3cc(C([NH-])=O)n(C(=O)OCCO)c3c2)C1 (chirality)
C[NH+](C)[C@@H]1CCN(c2ccc3cc(C([NH-])=O)n(C(=O)OCCO)c3c2)C1 (3D coordinates assigned)
C[NH+](C)[C@@H]1CCN(c2ccc3cc(C([NH-])=O)n(C(=O)OCCO)c3c2)C1 (nonaromatic ring conformer: 94.38583250990024 kcal/mol)

>  <smiles>  (22) 
CN(C)C1CCN(c2ccc3cc(C(N)=O)n(C(=O)OCCO)c3c2)C1

>  <score_type>  (22) 
oracle

>  <origin>  (22) 
adg

>  <m_score__min__energy>  (22) 
-10.33

>  <m_primary>  (22) 
energy

$$$$
23:0
     RDKit          3D

 35 36  0  0  0  0  0  0  0  0999 V2000
   -4.0940   25.6580  -30.8410 N   0  0  0  0  0  0  0  0  0  0  0  0
   -4.7480   24.7920  -29.9160 C   0  0  0  0  0  0  0  0  0  0  0  0
   -4.5200   24.9180  -28.6840 O   0  0  0  0  0  0  0  0  0  0  0  0
   -5.6470   23.7300  -30.4150 C   0  0  0  0  0  0  0  0  0  0  0  0
   -7.0250   23.7320  -30.2050 C   0  0  0  0  0  0  0  0  0  0  0  0
   -7.5020   22.6440  -30.8980 C   0  0  0  0  0  0  0  0  0  0  0  0
   -8.8040   22.1740  -31.0340 C   0  0  0  0  0  0  0  0  0  0  0  0
   -9.0070   21.0110  -31.7960 C   0  0  0  0  0  0  0  0  0  0  0  0
   -7.9110   20.3330  -32.3900 C   0  0  0  0  0  0  0  0  0  0  0  0
   -8.1330   19.1520  -33.1870 N   0  0  0  0  0  0  0  0  0  0  0  0
   -7.6410   17.9630  -32.4730 C   0  0  0  0  0  0  0  0  0  0  0  0
   -6.1310   17.7200  -32.7070 C   0  0  2  0  0  0  0  0  0  0  0  0
   -5.3830   18.4530  -31.7690 O   0  0  0  0  0  0  0  0  0  0  0  0
   -5.6690   18.0810  -34.1340 C   0  0  0  0  0  0  0  0  0  0  0  0
   -5.4500   19.4600  -34.2680 O   0  0  0  0  0  0  0  0  0  0  0  0
   -6.6030   20.8510  -32.2370 C   0  0  0  0  0  0  0  0  0  0  0  0
   -6.4330   22.0220  -31.4890 C   0  0  0  0  0  0  0  0  0  0  0  0
   -5.2850   22.6750  -31.2010 N   0  0  0  0  0  0  0  0  0  0  0  0
   -3.9610   22.2890  -31.6050 C   0  0  0  0  0  0  0  0  0  0  0  0
   -2.9910   23.0790  -31.4520 O   0  0  0  0  0  0  0  0  0  0  0  0
   -3.7330   21.0330  -32.1540 O   0  0  0  0  0  0  0  0  0  0  0  0
   -3.1430   25.4310  -31.2090 H   0  0  0  0  0  0  0  0  0  0  0  0
   -7.6076   24.4514  -29.6108 H   0  0  0  0  0  0  0  0  0  0  0  0
   -9.6481   22.6963  -30.5600 H   0  0  0  0  0  0  0  0  0  0  0  0
  -10.0266   20.6219  -31.9336 H   0  0  0  0  0  0  0  0  0  0  0  0
   -9.1550   19.0540  -33.3930 H   0  0  0  0  0  0  0  0  0  0  0  0
   -7.6260   19.2570  -34.0960 H   0  0  0  0  0  0  0  0  0  0  0  0
   -7.8142   18.1007  -31.3955 H   0  0  0  0  0  0  0  0  0  0  0  0
   -8.1861   17.0892  -32.8594 H   0  0  0  0  0  0  0  0  0  0  0  0
   -5.9601   16.6407  -32.5810 H   0  0  0  0  0  0  0  0  0  0  0  0
   -4.8520   19.1280  -32.2690 H   0  0  0  0  0  0  0  0  0  0  0  0
   -4.7325   17.5471  -34.3527 H   0  0  0  0  0  0  0  0  0  0  0  0
   -6.4604   17.7862  -34.8388 H   0  0  0  0  0  0  0  0  0  0  0  0
   -4.9040   19.7400  -33.4860 H   0  0  0  0  0  0  0  0  0  0  0  0
   -5.7401   20.3454  -32.6951 H   0  0  0  0  0  0  0  0  0  0  0  0
  1  2  1  0
  2  3  2  0
  2  4  1  0
  4  5  2  0
  5  6  1  0
  6  7  2  0
  7  8  1  0
  8  9  2  0
  9 10  1  0
 10 11  1  0
 11 12  1  0
 12 13  1  0
 12 14  1  0
 14 15  1  0
  9 16  1  0
 16 17  2  0
 17 18  1  0
 18 19  1  0
 19 20  2  0
 19 21  1  0
 18  4  1  0
 17  6  1  0
  1 22  1  0
  5 23  1  0
  7 24  1  0
  8 25  1  0
 10 26  1  0
 10 27  1  0
 11 28  1  0
 11 29  1  0
 12 30  1  1
 13 31  1  0
 14 32  1  0
 14 33  1  0
 15 34  1  0
 16 35  1  0
M  CHG  3   1  -1  10   1  21  -1
M  END
>  <UniqueID>  (23) 
23

>  <SMILES>  (23) 
[NH-]C(=O)c1cc2ccc([NH2+]C[C@H](O)CO)cc2n1C(=O)[O-]

>  <Energy>  (23) 
74.15601063038316

>  <Genealogy>  (23) 
[NH-]C(=O)c1cc2ccc([NH2+]CC(O)CO)cc2n1C(=O)[O-] (protonated)
[NH-]C(=O)c1cc2ccc([NH2+]C[C@H](O)CO)cc2n1C(=O)[O-] (chirality)
[NH-]C(=O)c1cc2ccc([NH2+]C[C@H](O)CO)cc2n1C(=O)[O-] (3D coordinates assigned)
[NH-]C(=O)c1cc2ccc([NH2+]C[C@H](O)CO)cc2n1C(=O)[O-] (optimized conformer: 74.15601063038316 kcal/mol)

>  <smiles>  (23) 
NC(=O)c1cc2ccc(NCC(O)CO)cc2n1C(=O)O

>  <score_type>  (23) 
oracle

>  <origin>  (23) 
adg

>  <m_score__min__energy>  (23) 
-9.5399999999999991

>  <m_primary>  (23) 
energy

$$$$
24:0
     RDKit          3D

 38 39  0  0  0  0  0  0  0  0999 V2000
   -3.3060   24.9380  -30.8730 H   0  0  0  0  0  0  0  0  0  0  0  0
   -4.0550   25.6650  -30.8310 N   0  0  0  0  0  0  0  0  0  0  0  0
   -5.3930   25.3160  -30.4910 C   0  0  0  0  0  0  0  0  0  0  0  0
   -6.1210   26.1590  -29.9030 O   0  0  0  0  0  0  0  0  0  0  0  0
   -5.9540   24.0060  -30.8770 C   0  0  0  0  0  0  0  0  0  0  0  0
   -7.3010   23.8090  -31.1740 C   0  0  0  0  0  0  0  0  0  0  0  0
   -8.1138   24.5471  -31.1067 H   0  0  0  0  0  0  0  0  0  0  0  0
   -7.3980   22.4960  -31.5690 C   0  0  0  0  0  0  0  0  0  0  0  0
   -8.5130   21.7620  -31.9630 C   0  0  0  0  0  0  0  0  0  0  0  0
   -9.5076   22.2284  -32.0203 H   0  0  0  0  0  0  0  0  0  0  0  0
   -8.3290   20.4080  -32.2850 C   0  0  0  0  0  0  0  0  0  0  0  0
   -9.1901   19.8031  -32.6052 H   0  0  0  0  0  0  0  0  0  0  0  0
   -7.0460   19.8120  -32.2020 C   0  0  0  0  0  0  0  0  0  0  0  0
   -6.8750   18.3570  -32.5320 C   0  0  0  0  0  0  0  0  0  0  0  0
   -6.1086   17.9246  -31.8720 H   0  0  0  0  0  0  0  0  0  0  0  0
   -6.4780   18.2210  -33.8500 F   0  0  0  0  0  0  0  0  0  0  0  0
   -8.0740   17.6950  -32.3450 F   0  0  0  0  0  0  0  0  0  0  0  0
   -5.9370   20.5890  -31.7950 C   0  0  0  0  0  0  0  0  0  0  0  0
   -4.9352   20.1421  -31.7129 H   0  0  0  0  0  0  0  0  0  0  0  0
   -6.1460   21.9420  -31.4990 C   0  0  0  0  0  0  0  0  0  0  0  0
   -5.2460   22.8580  -31.0740 N   0  0  0  0  0  0  0  0  0  0  0  0
   -3.8620   22.6170  -30.7740 C   0  0  0  0  0  0  0  0  0  0  0  0
   -2.9760   22.8780  -31.6330 O   0  0  0  0  0  0  0  0  0  0  0  0
   -3.5040   22.0600  -29.5420 O   0  0  0  0  0  0  0  0  0  0  0  0
   -3.1480   22.8550  -28.4150 C   0  0  0  0  0  0  0  0  0  0  0  0
   -3.4950   22.3625  -27.4947 H   0  0  0  0  0  0  0  0  0  0  0  0
   -3.6194   23.8451  -28.5014 H   0  0  0  0  0  0  0  0  0  0  0  0
   -1.6470   23.0150  -28.3650 C   0  0  0  0  0  0  0  0  0  0  0  0
   -1.0610   24.3110  -28.7920 C   0  0  0  0  0  0  0  0  0  0  0  0
    0.1730   24.5350  -28.6760 O   0  0  0  0  0  0  0  0  0  0  0  0
   -1.8720   25.3030  -29.3330 O   0  0  0  0  0  0  0  0  0  0  0  0
   -0.8300   21.9970  -28.0110 C   0  0  0  0  0  0  0  0  0  0  0  0
    0.2530   22.1890  -27.9982 H   0  0  0  0  0  0  0  0  0  0  0  0
   -1.2950   20.6430  -27.6400 C   0  0  0  0  0  0  0  0  0  0  0  0
   -1.3732   19.8652  -28.4139 H   0  0  0  0  0  0  0  0  0  0  0  0
   -1.6200   20.3530  -26.3830 C   0  0  0  0  0  0  0  0  0  0  0  0
   -1.9642   19.3410  -26.1234 H   0  0  0  0  0  0  0  0  0  0  0  0
   -1.5446   21.1252  -25.6033 H   0  0  0  0  0  0  0  0  0  0  0  0
  1  2  1  0
  2  3  1  0
  3  4  2  0
  3  5  1  0
  5  6  2  0
  6  7  1  0
  6  8  1  0
  8  9  2  0
  9 10  1  0
  9 11  1  0
 11 12  1  0
 11 13  2  0
 13 14  1  0
 14 15  1  0
 14 16  1  0
 14 17  1  0
 13 18  1  0
 18 19  1  0
 18 20  2  0
 20 21  1  0
 21 22  1  0
 22 23  2  0
 22 24  1  0
 24 25  1  0
 25 26  1  0
 25 27  1  0
 25 28  1  0
 28 29  1  0
 29 30  2  0
 29 31  1  0
 28 32  2  0
 32 33  1  0
 32 34  1  0
 34 35  1  0
 34 36  2  0
 36 37  1  0
 36 38  1  0
 21  5  1  0
 20  8  1  0
M  CHG  2   2  -1  31  -1
M  END
>  <UniqueID>  (24) 
24

>  <SMILES>  (24) 
C=C/C=C(\COC(=O)n1c(C([NH-])=O)cc2ccc(C(F)F)cc21)C(=O)[O-]

>  <Energy>  (24) 
74.35857434893249

>  <Genealogy>  (24) 
C=C/C=C(\COC(=O)n1c(C([NH-])=O)cc2ccc(C(F)F)cc21)C(=O)[O-] (protonated)
C=C/C=C(\COC(=O)n1c(C([NH-])=O)cc2ccc(C(F)F)cc21)C(=O)[O-] (cis-trans isomerization)
C=C/C=C(\COC(=O)n1c(C([NH-])=O)cc2ccc(C(F)F)cc21)C(=O)[O-] (3D coordinates assigned)
C=C/C=C(\COC(=O)n1c(C([NH-])=O)cc2ccc(C(F)F)cc21)C(=O)[O-] (optimized conformer: 74.35857434893249 kcal/mol)

>  <smiles>  (24) 
C=C/C=C(\COC(=O)n1c(C(N)=O)cc2ccc(C(F)F)cc21)C(=O)O

>  <score_type>  (24) 
oracle

>  <origin>  (24) 
adg

>  <m_score__min__energy>  (24) 
-12.77

>  <m_primary>  (24) 
energy

$$$$
25:0
     RDKit          3D

 49 50  0  0  0  0  0  0  0  0999 V2000
   -6.2170   17.7490  -31.2630 C   0  0  0  0  0  0  0  0  0  0  0  0
   -6.9460   18.7340  -31.7990 C   0  0  0  0  0  0  0  0  0  0  0  0
   -8.4450   18.7060  -31.6440 C   0  0  0  0  0  0  0  0  0  0  0  0
   -6.2830   19.8110  -32.5880 C   0  0  0  0  0  0  0  0  0  0  0  0
   -6.8740   21.0000  -32.7560 C   0  0  0  0  0  0  0  0  0  0  0  0
   -4.9740   19.5880  -33.1540 N   0  0  0  0  0  0  0  0  0  0  0  0
   -4.8300   18.6440  -34.2710 C   0  0  0  0  0  0  0  0  0  0  0  0
   -3.8030   20.1420  -32.5070 C   0  0  0  0  0  0  0  0  0  0  0  0
   -2.5490   19.4760  -32.6070 C   0  0  0  0  0  0  0  0  0  0  0  0
   -1.3990   20.0040  -31.9970 C   0  0  0  0  0  0  0  0  0  0  0  0
   -1.5240   21.1950  -31.2900 C   0  0  0  0  0  0  0  0  0  0  0  0
   -0.5830   21.9190  -30.5910 C   0  0  0  0  0  0  0  0  0  0  0  0
   -1.2730   23.0180  -30.0700 C   0  0  0  0  0  0  0  0  0  0  0  0
   -0.6700   24.0830  -29.2350 C   0  0  0  0  0  0  0  0  0  0  0  0
   -1.2410   25.3920  -29.1780 N   0  0  0  0  0  0  0  0  0  0  0  0
    0.3640   23.8430  -28.5590 O   0  0  0  0  0  0  0  0  0  0  0  0
   -2.5800   22.9700  -30.4460 N   0  0  0  0  0  0  0  0  0  0  0  0
   -3.6330   23.8570  -30.0540 C   0  0  0  0  0  0  0  0  0  0  0  0
   -3.6380   25.0450  -30.4680 O   0  0  0  0  0  0  0  0  0  0  0  0
   -4.7340   23.3570  -29.1760 C   0  0  0  0  0  0  0  0  0  0  0  0
   -5.8940   24.1300  -29.4220 O   0  0  0  0  0  0  0  0  0  0  0  0
   -6.8680   23.3950  -30.1370 C   0  0  0  0  0  0  0  0  0  0  0  0
   -6.9240   23.8570  -31.5970 C   0  0  0  0  0  0  0  0  0  0  0  0
   -5.7380   24.5200  -31.9390 O   0  0  0  0  0  0  0  0  0  0  0  0
   -2.7210   21.8520  -31.1830 C   0  0  0  0  0  0  0  0  0  0  0  0
   -3.8830   21.3530  -31.7760 C   0  0  0  0  0  0  0  0  0  0  0  0
   -5.1220   17.7556  -31.3677 H   0  0  0  0  0  0  0  0  0  0  0  0
   -6.7124   16.9323  -30.7175 H   0  0  0  0  0  0  0  0  0  0  0  0
   -8.7030   18.7012  -30.5747 H   0  0  0  0  0  0  0  0  0  0  0  0
   -8.8798   19.5962  -32.1221 H   0  0  0  0  0  0  0  0  0  0  0  0
   -8.8462   17.8002  -32.1221 H   0  0  0  0  0  0  0  0  0  0  0  0
   -6.3730   21.7855  -33.3407 H   0  0  0  0  0  0  0  0  0  0  0  0
   -7.8608   21.1917  -32.3093 H   0  0  0  0  0  0  0  0  0  0  0  0
   -4.6752   17.6292  -33.8758 H   0  0  0  0  0  0  0  0  0  0  0  0
   -5.7414   18.6627  -34.8867 H   0  0  0  0  0  0  0  0  0  0  0  0
   -3.9656   18.9335  -34.8867 H   0  0  0  0  0  0  0  0  0  0  0  0
   -2.4794   18.5338  -33.1704 H   0  0  0  0  0  0  0  0  0  0  0  0
   -0.4292   19.4910  -32.0762 H   0  0  0  0  0  0  0  0  0  0  0  0
    0.4843   21.6827  -30.4687 H   0  0  0  0  0  0  0  0  0  0  0  0
   -2.0430   25.6700  -29.7850 H   0  0  0  0  0  0  0  0  0  0  0  0
   -0.8230   26.1190  -28.5540 H   0  0  0  0  0  0  0  0  0  0  0  0
   -4.9379   22.3001  -29.4028 H   0  0  0  0  0  0  0  0  0  0  0  0
   -4.4412   23.4445  -28.1193 H   0  0  0  0  0  0  0  0  0  0  0  0
   -6.6104   22.3261  -30.1052 H   0  0  0  0  0  0  0  0  0  0  0  0
   -7.8513   23.5620  -29.6730 H   0  0  0  0  0  0  0  0  0  0  0  0
   -7.0528   22.9817  -32.2507 H   0  0  0  0  0  0  0  0  0  0  0  0
   -7.7711   24.5472  -31.7235 H   0  0  0  0  0  0  0  0  0  0  0  0
   -5.4820   25.0730  -31.1540 H   0  0  0  0  0  0  0  0  0  0  0  0
   -4.8389   21.8883  -31.6777 H   0  0  0  0  0  0  0  0  0  0  0  0
  1  2  2  0
  2  3  1  0
  2  4  1  0
  4  5  2  0
  4  6  1  0
  6  7  1  0
  6  8  1  0
  8  9  2  0
  9 10  1  0
 10 11  2  0
 11 12  1  0
 12 13  2  0
 13 14  1  0
 14 15  1  0
 14 16  2  0
 13 17  1  0
 17 18  1  0
 18 19  2  0
 18 20  1  0
 20 21  1  0
 21 22  1  0
 22 23  1  0
 23 24  1  0
 17 25  1  0
 25 26  2  0
 26  8  1  0
 25 11  1  0
  1 27  1  0
  1 28  1  0
  3 29  1  0
  3 30  1  0
  3 31  1  0
  5 32  1  0
  5 33  1  0
  7 34  1  0
  7 35  1  0
  7 36  1  0
  9 37  1  0
 10 38  1  0
 12 39  1  0
 15 40  1  0
 15 41  1  0
 20 42  1  0
 20 43  1  0
 22 44  1  0
 22 45  1  0
 23 46  1  0
 23 47  1  0
 24 48  1  0
 26 49  1  0
M  END
>  <UniqueID>  (25) 
25

>  <SMILES>  (25) 
C=C(C)C(=C)N(C)c1ccc2cc(C(N)=O)n(C(=O)COCCO)c2c1

>  <Energy>  (25) 
95.32382583155285

>  <Genealogy>  (25) 
C=C(C)C(=C)N(C)c1ccc2cc(C(N)=O)n(C(=O)COCCO)c2c1 (3D coordinates assigned)
C=C(C)C(=C)N(C)c1ccc2cc(C(N)=O)n(C(=O)COCCO)c2c1 (optimized conformer: 95.32382583155285 kcal/mol)

>  <smiles>  (25) 
C=C(C)C(=C)N(C)c1ccc2cc(C(N)=O)n(C(=O)COCCO)c2c1

>  <score_type>  (25) 
oracle

>  <origin>  (25) 
adg

>  <m_score__min__energy>  (25) 
-8.5199999999999996

>  <m_primary>  (25) 
energy

$$$$
26:0
     RDKit          3D

 50 51  0  0  0  0  0  0  0  0999 V2000
   -1.5760   20.2070  -26.6590 C   0  0  0  0  0  0  0  0  0  0  0  0
   -0.4920   21.2050  -26.7140 N   0  0  0  0  0  0  0  0  0  0  0  0
   -0.1560   21.5220  -28.1150 C   0  0  0  0  0  0  0  0  0  0  0  0
   -0.8460   22.4260  -25.9570 C   0  0  0  0  0  0  0  0  0  0  0  0
   -0.3590   23.6700  -26.7070 C   0  0  0  0  0  0  0  0  0  0  0  0
   -1.4860   24.5750  -26.9780 N   0  0  0  0  0  0  0  0  0  0  0  0
   -2.0970   25.3280  -25.8800 C   0  0  0  0  0  0  0  0  0  0  0  0
   -2.0840   24.6200  -28.2880 C   0  0  0  0  0  0  0  0  0  0  0  0
   -1.5620   25.3200  -29.2030 O   0  0  0  0  0  0  0  0  0  0  0  0
   -3.2620   23.9080  -28.5410 O   0  0  0  0  0  0  0  0  0  0  0  0
   -3.3580   22.5000  -28.3710 C   0  0  0  0  0  0  0  0  0  0  0  0
   -3.4450   21.8880  -29.6540 O   0  0  0  0  0  0  0  0  0  0  0  0
   -3.8500   22.5660  -30.8030 C   0  0  0  0  0  0  0  0  0  0  0  0
   -2.9970   22.9490  -31.6520 O   0  0  0  0  0  0  0  0  0  0  0  0
   -5.2440   22.8510  -30.9970 N   0  0  0  0  0  0  0  0  0  0  0  0
   -5.8880   24.0410  -30.8340 C   0  0  0  0  0  0  0  0  0  0  0  0
   -5.2480   25.3400  -30.5380 C   0  0  0  0  0  0  0  0  0  0  0  0
   -3.8630   25.5390  -30.8440 N   0  0  0  0  0  0  0  0  0  0  0  0
   -5.8780   26.2560  -29.9510 O   0  0  0  0  0  0  0  0  0  0  0  0
   -7.2470   23.9050  -31.1130 C   0  0  0  0  0  0  0  0  0  0  0  0
   -7.4140   22.5890  -31.4710 C   0  0  0  0  0  0  0  0  0  0  0  0
   -8.5600   21.9080  -31.8690 C   0  0  0  0  0  0  0  0  0  0  0  0
   -8.4400   20.5420  -32.1790 C   0  0  0  0  0  0  0  0  0  0  0  0
   -7.1940   19.8780  -32.0590 C   0  0  0  0  0  0  0  0  0  0  0  0
   -7.0860   18.4230  -32.4490 C   0  0  0  0  0  0  0  0  0  0  0  0
   -8.3130   17.7990  -32.3150 F   0  0  0  0  0  0  0  0  0  0  0  0
   -6.1720   17.7580  -31.6510 F   0  0  0  0  0  0  0  0  0  0  0  0
   -6.6710   18.3360  -33.7670 F   0  0  0  0  0  0  0  0  0  0  0  0
   -6.0510   20.6090  -31.6570 C   0  0  0  0  0  0  0  0  0  0  0  0
   -6.1920   21.9730  -31.3880 C   0  0  0  0  0  0  0  0  0  0  0  0
   -1.8171   19.9850  -25.6090 H   0  0  0  0  0  0  0  0  0  0  0  0
   -2.4681   20.6065  -27.1635 H   0  0  0  0  0  0  0  0  0  0  0  0
   -1.2515   19.2850  -27.1635 H   0  0  0  0  0  0  0  0  0  0  0  0
    0.6439   22.2767  -28.1385 H   0  0  0  0  0  0  0  0  0  0  0  0
    0.1857   20.6096  -28.6256 H   0  0  0  0  0  0  0  0  0  0  0  0
   -1.0470   21.9161  -28.6256 H   0  0  0  0  0  0  0  0  0  0  0  0
   -1.9384   22.4769  -25.8387 H   0  0  0  0  0  0  0  0  0  0  0  0
   -0.3639   22.3895  -24.9689 H   0  0  0  0  0  0  0  0  0  0  0  0
    0.3884   24.1944  -26.0935 H   0  0  0  0  0  0  0  0  0  0  0  0
    0.0892   23.3598  -27.6625 H   0  0  0  0  0  0  0  0  0  0  0  0
   -1.7601   24.9129  -24.9187 H   0  0  0  0  0  0  0  0  0  0  0  0
   -1.7974   26.3842  -25.9484 H   0  0  0  0  0  0  0  0  0  0  0  0
   -3.1923   25.2524  -25.9484 H   0  0  0  0  0  0  0  0  0  0  0  0
   -2.4662   22.1295  -27.8443 H   0  0  0  0  0  0  0  0  0  0  0  0
   -4.2518   22.2550  -27.7785 H   0  0  0  0  0  0  0  0  0  0  0  0
   -3.1430   24.8450  -30.5490 H   0  0  0  0  0  0  0  0  0  0  0  0
   -8.0207   24.6850  -31.0582 H   0  0  0  0  0  0  0  0  0  0  0  0
   -9.5298   22.4223  -31.9390 H   0  0  0  0  0  0  0  0  0  0  0  0
   -9.3238   19.9821  -32.5187 H   0  0  0  0  0  0  0  0  0  0  0  0
   -5.0733   20.1146  -31.5585 H   0  0  0  0  0  0  0  0  0  0  0  0
  1  2  1  0
  2  3  1  0
  2  4  1  0
  4  5  1  0
  5  6  1  0
  6  7  1  0
  6  8  1  0
  8  9  2  0
  8 10  1  0
 10 11  1  0
 11 12  1  0
 12 13  1  0
 13 14  2  0
 13 15  1  0
 15 16  1  0
 16 17  1  0
 17 18  1  0
 17 19  2  0
 16 20  2  0
 20 21  1  0
 21 22  2  0
 22 23  1  0
 23 24  2  0
 24 25  1  0
 25 26  1  0
 25 27  1  0
 25 28  1  0
 24 29  1  0
 29 30  2  0
 30 15  1  0
 30 21  1  0
  1 31  1  0
  1 32  1  0
  1 33  1  0
  3 34  1  0
  3 35  1  0
  3 36  1  0
  4 37  1  0
  4 38  1  0
  5 39  1  0
  5 40  1  0
  7 41  1  0
  7 42  1  0
  7 43  1  0
 11 44  1  0
 11 45  1  0
 18 46  1  0
 20 47  1  0
 22 48  1  0
 23 49  1  0
 29 50  1  0
M  CHG  1  18  -1
M  END
>  <UniqueID>  (26) 
26

>  <SMILES>  (26) 
CN(C)CCN(C)C(=O)OCOC(=O)n1c(C([NH-])=O)cc2ccc(C(F)(F)F)cc21

>  <Energy>  (26) 
78.24633130606335

>  <Genealogy>  (26) 
CN(C)CCN(C)C(=O)OCOC(=O)n1c(C([NH-])=O)cc2ccc(C(F)(F)F)cc21 (protonated)
CN(C)CCN(C)C(=O)OCOC(=O)n1c(C([NH-])=O)cc2ccc(C(F)(F)F)cc21 (3D coordinates assigned)
CN(C)CCN(C)C(=O)OCOC(=O)n1c(C([NH-])=O)cc2ccc(C(F)(F)F)cc21 (optimized conformer: 78.24633130606335 kcal/mol)

>  <smiles>  (26) 
CN(C)CCN(C)C(=O)OCOC(=O)n1c(C(N)=O)cc2ccc(C(F)(F)F)cc21

>  <score_type>  (26) 
oracle

>  <origin>  (26) 
adg

>  <m_score__min__energy>  (26) 
-9.9399999999999995

>  <m_primary>  (26) 
energy

$$$$
27:0
     RDKit          3D

 52 55  0  0  0  0  0  0  0  0999 V2000
   -6.0610   24.9810  -30.1150 C   0  0  0  0  0  0  0  0  0  0  0  0
   -4.6460   24.8100  -30.7000 C   0  0  2  0  0  0  0  0  0  0  0  0
   -4.3600   23.3860  -31.1890 C   0  0  0  0  0  0  0  0  0  0  0  0
   -3.7880   22.5490  -30.1300 N   0  0  0  0  0  0  0  0  0  0  0  0
   -3.3980   21.1930  -30.4310 C   0  0  0  0  0  0  0  0  0  0  0  0
   -3.4360   20.3150  -29.5240 O   0  0  0  0  0  0  0  0  0  0  0  0
   -2.8470   20.8300  -31.7870 C   0  0  0  0  0  0  0  0  0  0  0  0
   -3.7800   20.8800  -32.9780 C   0  0  0  0  0  0  0  0  0  0  0  0
   -3.6650   21.7930  -33.8400 O   0  0  0  0  0  0  0  0  0  0  0  0
   -4.8040   19.8840  -33.1400 N   0  0  0  0  0  0  0  0  0  0  0  0
   -4.6880   18.6530  -33.7130 C   0  0  0  0  0  0  0  0  0  0  0  0
   -3.4510   18.0650  -34.2730 C   0  0  0  0  0  0  0  0  0  0  0  0
   -2.3490   18.9110  -34.5940 N   0  0  0  0  0  0  0  0  0  0  0  0
   -3.3550   16.8240  -34.4750 O   0  0  0  0  0  0  0  0  0  0  0  0
   -5.9030   17.9720  -33.6510 C   0  0  0  0  0  0  0  0  0  0  0  0
   -6.7720   18.8290  -33.0160 C   0  0  0  0  0  0  0  0  0  0  0  0
   -8.1090   18.6560  -32.6740 C   0  0  0  0  0  0  0  0  0  0  0  0
   -8.7610   19.7100  -32.0150 C   0  0  0  0  0  0  0  0  0  0  0  0
   -8.0810   20.9250  -31.7400 C   0  0  0  0  0  0  0  0  0  0  0  0
   -8.7800   22.0380  -31.0020 C   0  0  0  0  0  0  0  0  0  0  0  0
   -9.8550   21.5460  -30.2800 F   0  0  0  0  0  0  0  0  0  0  0  0
   -7.9150   22.6620  -30.1190 F   0  0  0  0  0  0  0  0  0  0  0  0
   -9.2400   22.9710  -31.9150 F   0  0  0  0  0  0  0  0  0  0  0  0
   -6.7160   21.0530  -32.0910 C   0  0  0  0  0  0  0  0  0  0  0  0
   -6.0870   19.9780  -32.7230 C   0  0  0  0  0  0  0  0  0  0  0  0
   -1.3970   21.2150  -32.0690 C   0  0  0  0  0  0  0  0  0  0  0  0
   -1.7540   19.7630  -31.7820 C   0  0  0  0  0  0  0  0  0  0  0  0
   -3.7550   23.0030  -28.7340 C   0  0  0  0  0  0  0  0  0  0  0  0
   -3.6040   24.5470  -28.5970 C   0  0  1  0  0  0  0  0  0  0  0  0
   -2.3070   24.9030  -27.8700 C   0  0  0  0  0  0  0  0  0  0  0  0
   -3.6180   25.2480  -29.8310 O   0  0  0  0  0  0  0  0  0  0  0  0
   -6.0068   24.9745  -29.0164 H   0  0  0  0  0  0  0  0  0  0  0  0
   -6.4855   25.9370  -30.4555 H   0  0  0  0  0  0  0  0  0  0  0  0
   -6.7010   24.1537  -30.4555 H   0  0  0  0  0  0  0  0  0  0  0  0
   -4.6387   25.4724  -31.5782 H   0  0  0  0  0  0  0  0  0  0  0  0
   -5.3014   22.9319  -31.5318 H   0  0  0  0  0  0  0  0  0  0  0  0
   -3.6281   23.4473  -32.0079 H   0  0  0  0  0  0  0  0  0  0  0  0
   -2.4390   19.9500  -34.5410 H   0  0  0  0  0  0  0  0  0  0  0  0
   -6.1208   16.9625  -34.0298 H   0  0  0  0  0  0  0  0  0  0  0  0
   -8.6391   17.7221  -32.9126 H   0  0  0  0  0  0  0  0  0  0  0  0
   -9.8109   19.5930  -31.7082 H   0  0  0  0  0  0  0  0  0  0  0  0
   -6.1630   21.9781  -31.8711 H   0  0  0  0  0  0  0  0  0  0  0  0
   -1.0957   21.5169  -33.0830 H   0  0  0  0  0  0  0  0  0  0  0  0
   -0.6884   21.9400  -31.6421 H   0  0  0  0  0  0  0  0  0  0  0  0
   -1.7108   19.0164  -32.5887 H   0  0  0  0  0  0  0  0  0  0  0  0
   -1.4103   19.0056  -31.0622 H   0  0  0  0  0  0  0  0  0  0  0  0
   -4.6917   22.6981  -28.2445 H   0  0  0  0  0  0  0  0  0  0  0  0
   -2.8745   22.5441  -28.2606 H   0  0  0  0  0  0  0  0  0  0  0  0
   -4.4876   24.8623  -28.0227 H   0  0  0  0  0  0  0  0  0  0  0  0
   -2.4715   24.8578  -26.7833 H   0  0  0  0  0  0  0  0  0  0  0  0
   -1.5204   24.1875  -28.1518 H   0  0  0  0  0  0  0  0  0  0  0  0
   -1.9959   25.9198  -28.1518 H   0  0  0  0  0  0  0  0  0  0  0  0
  1  2  1  0
  2  3  1  0
  3  4  1  0
  4  5  1  0
  5  6  2  0
  5  7  1  0
  7  8  1  0
  8  9  2  0
  8 10  1  0
 10 11  1  0
 11 12  1  0
 12 13  1  0
 12 14  2  0
 11 15  2  0
 15 16  1  0
 16 17  2  0
 17 18  1  0
 18 19  2  0
 19 20  1  0
 20 21  1  0
 20 22  1  0
 20 23  1  0
 19 24  1  0
 24 25  2  0
  7 26  1  0
 26 27  1  0
  4 28  1  0
 28 29  1  0
 29 30  1  0
 29 31  1  0
 31  2  1  0
 27  7  1  0
 25 10  1  0
 25 16  1  0
  1 32  1  0
  1 33  1  0
  1 34  1  0
  2 35  1  6
  3 36  1  0
  3 37  1  0
 13 38  1  0
 15 39  1  0
 17 40  1  0
 18 41  1  0
 24 42  1  0
 26 43  1  0
 26 44  1  0
 27 45  1  0
 27 46  1  0
 28 47  1  0
 28 48  1  0
 29 49  1  1
 30 50  1  0
 30 51  1  0
 30 52  1  0
M  CHG  1  13  -1
M  END
>  <UniqueID>  (27) 
27

>  <SMILES>  (27) 
C[C@@H]1CN(C(=O)C2(C(=O)n3c(C([NH-])=O)cc4ccc(C(F)(F)F)cc43)CC2)C[C@@H](C)O1

>  <Energy>  (27) 
364.5471241533365

>  <Genealogy>  (27) 
CC1CN(C(=O)C2(C(=O)n3c(C([NH-])=O)cc4ccc(C(F)(F)F)cc43)CC2)CC(C)O1 (protonated)
C[C@@H]1CN(C(=O)C2(C(=O)n3c(C([NH-])=O)cc4ccc(C(F)(F)F)cc43)CC2)C[C@@H](C)O1 (chirality)
C[C@@H]1CN(C(=O)C2(C(=O)n3c(C([NH-])=O)cc4ccc(C(F)(F)F)cc43)CC2)C[C@@H](C)O1 (3D coordinates assigned)
C[C@@H]1CN(C(=O)C2(C(=O)n3c(C([NH-])=O)cc4ccc(C(F)(F)F)cc43)CC2)C[C@@H](C)O1 (nonaromatic ring conformer: 364.5471241533365 kcal/mol)

>  <smiles>  (27) 
CC1CN(C(=O)C2(C(=O)n3c(C(N)=O)cc4ccc(C(F)(F)F)cc43)CC2)CC(C)O1

>  <score_type>  (27) 
oracle

>  <origin>  (27) 
adg

>  <m_score__min__energy>  (27) 
-11.41

>  <m_primary>  (27) 
energy

$$$$
28:0
     RDKit          3D

 40 42  0  0  0  0  0  0  0  0999 V2000
   -6.0820   19.0160  -34.9120 C   0  0  0  0  0  0  0  0  0  0  0  0
   -5.8310   18.0980  -33.7550 C   0  0  0  0  0  0  0  0  0  0  0  0
   -4.6560   17.4690  -33.5560 N   0  0  0  0  0  0  0  0  0  0  0  0
   -4.7870   16.8200  -32.3830 C   0  0  0  0  0  0  0  0  0  0  0  0
   -6.0450   17.0730  -31.8770 C   0  0  0  0  0  0  0  0  0  0  0  0
   -6.6980   17.8730  -32.7420 N   0  0  0  0  0  0  0  0  0  0  0  0
   -8.0340   18.4420  -32.5470 C   0  0  0  0  0  0  0  0  0  0  0  0
   -7.9310   19.8990  -32.1900 C   0  0  0  0  0  0  0  0  0  0  0  0
   -9.1100   20.6660  -32.0120 C   0  0  0  0  0  0  0  0  0  0  0  0
   -9.0340   22.0240  -31.6580 C   0  0  0  0  0  0  0  0  0  0  0  0
   -7.7710   22.5800  -31.4760 C   0  0  0  0  0  0  0  0  0  0  0  0
   -7.4050   23.8680  -31.1490 C   0  0  0  0  0  0  0  0  0  0  0  0
   -6.0120   23.8570  -31.1090 C   0  0  0  0  0  0  0  0  0  0  0  0
   -5.1900   25.0320  -30.7490 C   0  0  0  0  0  0  0  0  0  0  0  0
   -3.7680   24.9340  -30.7610 N   0  0  0  0  0  0  0  0  0  0  0  0
   -5.7300   26.1290  -30.4460 O   0  0  0  0  0  0  0  0  0  0  0  0
   -5.5380   22.6140  -31.3980 N   0  0  0  0  0  0  0  0  0  0  0  0
   -4.1670   22.1960  -31.4850 C   0  0  0  0  0  0  0  0  0  0  0  0
   -3.4560   22.1630  -30.4460 O   0  0  0  0  0  0  0  0  0  0  0  0
   -3.5870   21.7510  -32.7940 C   0  0  0  0  0  0  0  0  0  0  0  0
   -3.5210   20.2600  -32.8390 C   0  0  0  0  0  0  0  0  0  0  0  0
   -3.7390   19.5830  -31.8000 O   0  0  0  0  0  0  0  0  0  0  0  0
   -3.1720   19.6160  -34.0190 O   0  0  0  0  0  0  0  0  0  0  0  0
   -6.6240   21.8460  -31.6240 C   0  0  0  0  0  0  0  0  0  0  0  0
   -6.6680   20.4980  -31.9990 C   0  0  0  0  0  0  0  0  0  0  0  0
   -6.3547   20.0133  -34.5363 H   0  0  0  0  0  0  0  0  0  0  0  0
   -5.1715   19.0913  -35.5246 H   0  0  0  0  0  0  0  0  0  0  0  0
   -6.9042   18.6175  -35.5246 H   0  0  0  0  0  0  0  0  0  0  0  0
   -3.8100   17.4940  -34.1670 H   0  0  0  0  0  0  0  0  0  0  0  0
   -4.0186   16.1926  -31.9077 H   0  0  0  0  0  0  0  0  0  0  0  0
   -6.4467   16.6871  -30.9285 H   0  0  0  0  0  0  0  0  0  0  0  0
   -8.6133   18.3356  -33.4760 H   0  0  0  0  0  0  0  0  0  0  0  0
   -8.5361   17.9064  -31.7278 H   0  0  0  0  0  0  0  0  0  0  0  0
  -10.0935   20.1938  -32.1523 H   0  0  0  0  0  0  0  0  0  0  0  0
   -9.9439   22.6284  -31.5288 H   0  0  0  0  0  0  0  0  0  0  0  0
   -8.0709   24.7229  -30.9598 H   0  0  0  0  0  0  0  0  0  0  0  0
   -3.1830   25.6740  -31.2100 H   0  0  0  0  0  0  0  0  0  0  0  0
   -4.2216   22.1131  -33.6162 H   0  0  0  0  0  0  0  0  0  0  0  0
   -2.5722   22.1621  -32.8993 H   0  0  0  0  0  0  0  0  0  0  0  0
   -5.7423   19.9210  -32.1410 H   0  0  0  0  0  0  0  0  0  0  0  0
  1  2  1  0
  2  3  2  0
  3  4  1  0
  4  5  2  0
  5  6  1  0
  6  7  1  0
  7  8  1  0
  8  9  2  0
  9 10  1  0
 10 11  2  0
 11 12  1  0
 12 13  2  0
 13 14  1  0
 14 15  1  0
 14 16  2  0
 13 17  1  0
 17 18  1  0
 18 19  2  0
 18 20  1  0
 20 21  1  0
 21 22  2  0
 21 23  1  0
 17 24  1  0
 24 25  2  0
  6  2  1  0
 25  8  1  0
 24 11  1  0
  1 26  1  0
  1 27  1  0
  1 28  1  0
  3 29  1  0
  4 30  1  0
  5 31  1  0
  7 32  1  0
  7 33  1  0
  9 34  1  0
 10 35  1  0
 12 36  1  0
 15 37  1  0
 20 38  1  0
 20 39  1  0
 25 40  1  0
M  CHG  3   3   1  15  -1  23  -1
M  END
>  <UniqueID>  (28) 
28

>  <SMILES>  (28) 
Cc1[nH+]ccn1Cc1ccc2cc(C([NH-])=O)n(C(=O)CC(=O)[O-])c2c1

>  <Energy>  (28) 
106.33168185117408

>  <Genealogy>  (28) 
Cc1[nH+]ccn1Cc1ccc2cc(C([NH-])=O)n(C(=O)CC(=O)[O-])c2c1 (protonated)
Cc1[nH+]ccn1Cc1ccc2cc(C([NH-])=O)n(C(=O)CC(=O)[O-])c2c1 (3D coordinates assigned)
Cc1[nH+]ccn1Cc1ccc2cc(C([NH-])=O)n(C(=O)CC(=O)[O-])c2c1 (optimized conformer: 106.33168185117408 kcal/mol)

>  <smiles>  (28) 
Cc1nccn1Cc1ccc2cc(C(N)=O)n(C(=O)CC(=O)O)c2c1

>  <score_type>  (28) 
oracle

>  <origin>  (28) 
adg

>  <m_score__min__energy>  (28) 
-11.289999999999999

>  <m_primary>  (28) 
energy

$$$$
29:0
     RDKit          3D

 44 45  0  0  0  0  0  0  0  0999 V2000
   -4.4860   16.5350  -32.9360 C   0  0  0  0  0  0  0  0  0  0  0  0
   -4.5470   17.7940  -33.6860 N   0  0  0  0  0  0  0  0  0  0  0  0
   -3.2950   18.4660  -34.0630 C   0  0  0  0  0  0  0  0  0  0  0  0
   -3.2050   19.8390  -33.3960 C   0  0  0  0  0  0  0  0  0  0  0  0
   -2.4690   20.7220  -34.1980 O   0  0  0  0  0  0  0  0  0  0  0  0
   -5.8170   18.3900  -34.0470 C   0  0  0  0  0  0  0  0  0  0  0  0
   -5.9620   18.9080  -35.1870 O   0  0  0  0  0  0  0  0  0  0  0  0
   -6.9870   18.4310  -33.0980 C   0  0  0  0  0  0  0  0  0  0  0  0
   -7.2010   19.8160  -32.5500 C   0  0  0  0  0  0  0  0  0  0  0  0
   -8.5160   20.3310  -32.4180 C   0  0  0  0  0  0  0  0  0  0  0  0
   -8.7330   21.6150  -31.8960 C   0  0  0  0  0  0  0  0  0  0  0  0
   -7.6210   22.3620  -31.5160 C   0  0  0  0  0  0  0  0  0  0  0  0
   -7.5420   23.6350  -30.9940 C   0  0  0  0  0  0  0  0  0  0  0  0
   -6.1790   23.8860  -30.8330 C   0  0  0  0  0  0  0  0  0  0  0  0
   -5.6230   25.1920  -30.4170 C   0  0  0  0  0  0  0  0  0  0  0  0
   -4.2700   25.5400  -30.7250 N   0  0  0  0  0  0  0  0  0  0  0  0
   -6.3270   25.9950  -29.7500 O   0  0  0  0  0  0  0  0  0  0  0  0
   -5.4470   22.8060  -31.2280 N   0  0  0  0  0  0  0  0  0  0  0  0
   -4.0190   22.6480  -31.2060 C   0  0  0  0  0  0  0  0  0  0  0  0
   -3.3780   22.5980  -32.2920 O   0  0  0  0  0  0  0  0  0  0  0  0
   -3.2780   22.5100  -29.9060 C   0  0  0  0  0  0  0  0  0  0  0  0
   -2.1320   23.4680  -29.8540 C   0  0  0  0  0  0  0  0  0  0  0  0
   -2.3420   24.6970  -29.6770 O   0  0  0  0  0  0  0  0  0  0  0  0
   -0.8280   23.0000  -29.9620 O   0  0  0  0  0  0  0  0  0  0  0  0
   -6.3430   21.8850  -31.6470 C   0  0  0  0  0  0  0  0  0  0  0  0
   -6.0980   20.6010  -32.1440 C   0  0  0  0  0  0  0  0  0  0  0  0
   -4.4964   16.7500  -31.8573 H   0  0  0  0  0  0  0  0  0  0  0  0
   -5.3550   15.9120  -33.1941 H   0  0  0  0  0  0  0  0  0  0  0  0
   -3.5608   15.9989  -33.1941 H   0  0  0  0  0  0  0  0  0  0  0  0
   -2.4421   17.8502  -33.7414 H   0  0  0  0  0  0  0  0  0  0  0  0
   -3.2757   18.5979  -35.1549 H   0  0  0  0  0  0  0  0  0  0  0  0
   -4.2193   20.2395  -33.2516 H   0  0  0  0  0  0  0  0  0  0  0  0
   -2.7001   19.7325  -32.4245 H   0  0  0  0  0  0  0  0  0  0  0  0
   -2.9710   21.5780  -34.2110 H   0  0  0  0  0  0  0  0  0  0  0  0
   -7.8938   18.1141  -33.6339 H   0  0  0  0  0  0  0  0  0  0  0  0
   -6.7744   17.7548  -32.2568 H   0  0  0  0  0  0  0  0  0  0  0  0
   -9.3746   19.7173  -32.7281 H   0  0  0  0  0  0  0  0  0  0  0  0
   -9.7505   22.0193  -31.7901 H   0  0  0  0  0  0  0  0  0  0  0  0
   -8.3768   24.3102  -30.7549 H   0  0  0  0  0  0  0  0  0  0  0  0
   -3.8740   26.4440  -30.3900 H   0  0  0  0  0  0  0  0  0  0  0  0
   -3.6730   24.9210  -31.3160 H   0  0  0  0  0  0  0  0  0  0  0  0
   -3.9649   22.7214  -29.0733 H   0  0  0  0  0  0  0  0  0  0  0  0
   -2.8890   21.4843  -29.8247 H   0  0  0  0  0  0  0  0  0  0  0  0
   -5.0719   20.2115  -32.2172 H   0  0  0  0  0  0  0  0  0  0  0  0
  1  2  1  0
  2  3  1  0
  3  4  1  0
  4  5  1  0
  2  6  1  0
  6  7  2  0
  6  8  1  0
  8  9  1  0
  9 10  2  0
 10 11  1  0
 11 12  2  0
 12 13  1  0
 13 14  2  0
 14 15  1  0
 15 16  1  0
 15 17  2  0
 14 18  1  0
 18 19  1  0
 19 20  2  0
 19 21  1  0
 21 22  1  0
 22 23  2  0
 22 24  1  0
 18 25  1  0
 25 26  2  0
 26  9  1  0
 25 12  1  0
  1 27  1  0
  1 28  1  0
  1 29  1  0
  3 30  1  0
  3 31  1  0
  4 32  1  0
  4 33  1  0
  5 34  1  0
  8 35  1  0
  8 36  1  0
 10 37  1  0
 11 38  1  0
 13 39  1  0
 16 40  1  0
 16 41  1  0
 21 42  1  0
 21 43  1  0
 26 44  1  0
M  CHG  1  24  -1
M  END
>  <UniqueID>  (29) 
29

>  <SMILES>  (29) 
CN(CCO)C(=O)Cc1ccc2cc(C(N)=O)n(C(=O)CC(=O)[O-])c2c1

>  <Energy>  (29) 
76.22594629629148

>  <Genealogy>  (29) 
CN(CCO)C(=O)Cc1ccc2cc(C(N)=O)n(C(=O)CC(=O)[O-])c2c1 (protonated)
CN(CCO)C(=O)Cc1ccc2cc(C(N)=O)n(C(=O)CC(=O)[O-])c2c1 (3D coordinates assigned)
CN(CCO)C(=O)Cc1ccc2cc(C(N)=O)n(C(=O)CC(=O)[O-])c2c1 (optimized conformer: 76.22594629629148 kcal/mol)

>  <smiles>  (29) 
CN(CCO)C(=O)Cc1ccc2cc(C(N)=O)n(C(=O)CC(=O)O)c2c1

>  <score_type>  (29) 
oracle

>  <origin>  (29) 
adg

>  <m_score__min__energy>  (29) 
-10.25

>  <m_primary>  (29) 
energy

$$$$
30:0
     RDKit          3D

 36 37  0  0  0  0  0  0  0  0999 V2000
   -4.1510   25.3820  -30.8460 N   0  0  0  0  0  0  0  0  0  0  0  0
   -5.5220   25.1380  -30.5420 C   0  0  0  0  0  0  0  0  0  0  0  0
   -6.1840   26.0230  -29.9360 O   0  0  0  0  0  0  0  0  0  0  0  0
   -6.1830   23.8810  -30.9540 C   0  0  0  0  0  0  0  0  0  0  0  0
   -7.5640   23.6960  -30.9460 C   0  0  0  0  0  0  0  0  0  0  0  0
   -7.7660   22.4250  -31.4370 C   0  0  0  0  0  0  0  0  0  0  0  0
   -8.9460   21.7130  -31.6280 C   0  0  0  0  0  0  0  0  0  0  0  0
   -8.8510   20.4010  -32.1220 C   0  0  0  0  0  0  0  0  0  0  0  0
   -7.5880   19.8260  -32.4060 C   0  0  0  0  0  0  0  0  0  0  0  0
   -7.5080   18.4160  -32.9200 C   0  0  0  0  0  0  0  0  0  0  0  0
   -7.2200   17.5550  -31.8770 F   0  0  0  0  0  0  0  0  0  0  0  0
   -6.5130   18.3270  -33.8760 F   0  0  0  0  0  0  0  0  0  0  0  0
   -6.4100   20.5770  -32.1950 C   0  0  0  0  0  0  0  0  0  0  0  0
   -6.5370   21.8870  -31.7200 C   0  0  0  0  0  0  0  0  0  0  0  0
   -5.5560   22.7700  -31.4330 N   0  0  0  0  0  0  0  0  0  0  0  0
   -4.1440   22.5320  -31.5320 C   0  0  0  0  0  0  0  0  0  0  0  0
   -3.6250   22.3510  -32.6660 O   0  0  0  0  0  0  0  0  0  0  0  0
   -3.3040   22.4920  -30.3220 C   0  0  0  0  0  0  0  0  0  0  0  0
   -3.3040   21.4550  -29.6030 O   0  0  0  0  0  0  0  0  0  0  0  0
   -2.4810   23.6160  -29.9660 N   0  0  0  0  0  0  0  0  0  0  0  0
   -1.5710   23.5970  -28.8170 C   0  0  2  0  0  0  0  0  0  0  0  0
   -0.8680   24.9220  -28.7000 C   0  0  0  0  0  0  0  0  0  0  0  0
   -1.2980   25.9220  -29.3320 O   0  0  0  0  0  0  0  0  0  0  0  0
    0.2470   25.0580  -27.8820 O   0  0  0  0  0  0  0  0  0  0  0  0
   -0.5600   22.4510  -28.9630 C   0  0  0  0  0  0  0  0  0  0  0  0
   -1.1020   21.2830  -28.4570 F   0  0  0  0  0  0  0  0  0  0  0  0
    0.5940   22.7450  -28.2560 F   0  0  0  0  0  0  0  0  0  0  0  0
   -0.2360   22.2530  -30.2940 F   0  0  0  0  0  0  0  0  0  0  0  0
   -3.4780   25.6710  -30.1020 H   0  0  0  0  0  0  0  0  0  0  0  0
   -8.3306   24.4131  -30.6172 H   0  0  0  0  0  0  0  0  0  0  0  0
   -9.9232   22.1633  -31.3993 H   0  0  0  0  0  0  0  0  0  0  0  0
   -9.7664   19.8147  -32.2898 H   0  0  0  0  0  0  0  0  0  0  0  0
   -8.4740   18.1386  -33.3672 H   0  0  0  0  0  0  0  0  0  0  0  0
   -5.4197   20.1435  -32.3987 H   0  0  0  0  0  0  0  0  0  0  0  0
   -2.4340   24.4280  -30.6220 H   0  0  0  0  0  0  0  0  0  0  0  0
   -2.1506   23.4281  -27.8975 H   0  0  0  0  0  0  0  0  0  0  0  0
  1  2  1  0
  2  3  2  0
  2  4  1  0
  4  5  2  0
  5  6  1  0
  6  7  2  0
  7  8  1  0
  8  9  2  0
  9 10  1  0
 10 11  1  0
 10 12  1  0
  9 13  1  0
 13 14  2  0
 14 15  1  0
 15 16  1  0
 16 17  2  0
 16 18  1  0
 18 19  2  0
 18 20  1  0
 20 21  1  0
 21 22  1  0
 22 23  2  0
 22 24  1  0
 21 25  1  0
 25 26  1  0
 25 27  1  0
 25 28  1  0
 15  4  1  0
 14  6  1  0
  1 29  1  0
  5 30  1  0
  7 31  1  0
  8 32  1  0
 10 33  1  0
 13 34  1  0
 20 35  1  0
 21 36  1  1
M  CHG  2   1  -1  24  -1
M  END
>  <UniqueID>  (30) 
30

>  <SMILES>  (30) 
[NH-]C(=O)c1cc2ccc(C(F)F)cc2n1C(=O)C(=O)N[C@H](C(=O)[O-])C(F)(F)F

>  <Energy>  (30) 
72.71545601108014

>  <Genealogy>  (30) 
[NH-]C(=O)c1cc2ccc(C(F)F)cc2n1C(=O)C(=O)NC(C(=O)[O-])C(F)(F)F (protonated)
[NH-]C(=O)c1cc2ccc(C(F)F)cc2n1C(=O)C(=O)N[C@H](C(=O)[O-])C(F)(F)F (chirality)
[NH-]C(=O)c1cc2ccc(C(F)F)cc2n1C(=O)C(=O)N[C@H](C(=O)[O-])C(F)(F)F (3D coordinates assigned)
[NH-]C(=O)c1cc2ccc(C(F)F)cc2n1C(=O)C(=O)N[C@H](C(=O)[O-])C(F)(F)F (optimized conformer: 72.71545601108014 kcal/mol)

>  <smiles>  (30) 
NC(=O)c1cc2ccc(C(F)F)cc2n1C(=O)C(=O)NC(C(=O)O)C(F)(F)F

>  <score_type>  (30) 
oracle

>  <origin>  (30) 
adg

>  <m_score__min__energy>  (30) 
-11.779999999999999

>  <m_primary>  (30) 
energy

$$$$
31:0
     RDKit          3D

 49 51  0  0  0  0  0  0  0  0999 V2000
   -1.7430   21.8890  -29.4120 C   0  0  0  0  0  0  0  0  0  0  0  0
   -3.2680   21.9700  -29.4740 C   0  0  0  0  0  0  0  0  0  0  0  0
   -3.8490   22.6440  -28.2280 C   0  0  0  0  0  0  0  0  0  0  0  0
   -3.7720   22.6110  -30.7550 C   0  0  0  0  0  0  0  0  0  0  0  0
   -2.9260   23.0400  -31.5880 O   0  0  0  0  0  0  0  0  0  0  0  0
   -5.1720   22.8230  -31.0100 N   0  0  0  0  0  0  0  0  0  0  0  0
   -5.8510   24.0040  -30.9170 C   0  0  0  0  0  0  0  0  0  0  0  0
   -5.2810   25.2870  -30.4690 C   0  0  0  0  0  0  0  0  0  0  0  0
   -3.9520   25.6470  -30.8390 N   0  0  0  0  0  0  0  0  0  0  0  0
   -5.9620   26.0830  -29.7730 O   0  0  0  0  0  0  0  0  0  0  0  0
   -7.1910   23.8260  -31.2650 C   0  0  0  0  0  0  0  0  0  0  0  0
   -7.3090   22.4900  -31.5820 C   0  0  0  0  0  0  0  0  0  0  0  0
   -8.4250   21.7590  -31.9620 C   0  0  0  0  0  0  0  0  0  0  0  0
   -8.2580   20.3860  -32.2040 C   0  0  0  0  0  0  0  0  0  0  0  0
   -6.9820   19.7800  -32.1170 C   0  0  0  0  0  0  0  0  0  0  0  0
   -6.8050   18.3630  -32.3300 N   0  0  0  0  0  0  0  0  0  0  0  0
   -6.4820   17.5140  -31.1820 C   0  0  0  0  0  0  0  0  0  0  0  0
   -6.8100   17.7530  -33.6760 C   0  0  1  0  0  0  0  0  0  0  0  0
   -5.7390   18.3810  -34.5820 C   0  0  0  0  0  0  0  0  0  0  0  0
   -4.7400   17.2980  -34.7080 C   0  0  0  0  0  0  0  0  0  0  0  0
   -3.6360   17.4180  -35.3020 O   0  0  0  0  0  0  0  0  0  0  0  0
   -5.1640   16.0860  -34.1140 N   0  0  0  0  0  0  0  0  0  0  0  0
   -4.4830   14.8130  -34.2620 C   0  0  0  0  0  0  0  0  0  0  0  0
   -6.5240   16.2300  -33.6290 C   0  0  0  0  0  0  0  0  0  0  0  0
   -5.8710   20.5660  -31.7370 C   0  0  0  0  0  0  0  0  0  0  0  0
   -6.0750   21.9160  -31.4390 C   0  0  0  0  0  0  0  0  0  0  0  0
   -1.4192   21.8718  -28.3609 H   0  0  0  0  0  0  0  0  0  0  0  0
   -1.4038   20.9716  -29.9152 H   0  0  0  0  0  0  0  0  0  0  0  0
   -1.3085   22.7653  -29.9152 H   0  0  0  0  0  0  0  0  0  0  0  0
   -3.6349   20.9331  -29.4878 H   0  0  0  0  0  0  0  0  0  0  0  0
   -3.4371   22.1662  -27.3269 H   0  0  0  0  0  0  0  0  0  0  0  0
   -3.5834   23.7114  -28.2310 H   0  0  0  0  0  0  0  0  0  0  0  0
   -4.9439   22.5386  -28.2310 H   0  0  0  0  0  0  0  0  0  0  0  0
   -3.1370   25.0130  -30.6460 H   0  0  0  0  0  0  0  0  0  0  0  0
   -7.9833   24.5889  -31.2825 H   0  0  0  0  0  0  0  0  0  0  0  0
   -9.4087   22.2393  -32.0702 H   0  0  0  0  0  0  0  0  0  0  0  0
   -9.1324   19.7719  -32.4652 H   0  0  0  0  0  0  0  0  0  0  0  0
   -6.6903   18.0615  -30.2509 H   0  0  0  0  0  0  0  0  0  0  0  0
   -7.0959   16.6019  -31.2162 H   0  0  0  0  0  0  0  0  0  0  0  0
   -5.4171   17.2406  -31.2162 H   0  0  0  0  0  0  0  0  0  0  0  0
   -7.8179   17.9364  -34.0766 H   0  0  0  0  0  0  0  0  0  0  0  0
   -6.1579   18.6497  -35.5630 H   0  0  0  0  0  0  0  0  0  0  0  0
   -5.3203   19.3147  -34.1785 H   0  0  0  0  0  0  0  0  0  0  0  0
   -4.2611   14.3981  -33.2677 H   0  0  0  0  0  0  0  0  0  0  0  0
   -5.1278   14.1143  -34.8152 H   0  0  0  0  0  0  0  0  0  0  0  0
   -3.5439   14.9617  -34.8152 H   0  0  0  0  0  0  0  0  0  0  0  0
   -7.2253   15.6851  -34.2781 H   0  0  0  0  0  0  0  0  0  0  0  0
   -6.6463   15.8186  -32.6162 H   0  0  0  0  0  0  0  0  0  0  0  0
   -4.8655   20.1240  -31.6769 H   0  0  0  0  0  0  0  0  0  0  0  0
  1  2  1  0
  2  3  1  0
  2  4  1  0
  4  5  2  0
  4  6  1  0
  6  7  1  0
  7  8  1  0
  8  9  1  0
  8 10  2  0
  7 11  2  0
 11 12  1  0
 12 13  2  0
 13 14  1  0
 14 15  2  0
 15 16  1  0
 16 17  1  0
 16 18  1  0
 18 19  1  0
 19 20  1  0
 20 21  2  0
 20 22  1  0
 22 23  1  0
 22 24  1  0
 15 25  1  0
 25 26  2  0
 26  6  1  0
 26 12  1  0
 24 18  1  0
  1 27  1  0
  1 28  1  0
  1 29  1  0
  2 30  1  0
  3 31  1  0
  3 32  1  0
  3 33  1  0
  9 34  1  0
 11 35  1  0
 13 36  1  0
 14 37  1  0
 17 38  1  0
 17 39  1  0
 17 40  1  0
 18 41  1  6
 19 42  1  0
 19 43  1  0
 23 44  1  0
 23 45  1  0
 23 46  1  0
 24 47  1  0
 24 48  1  0
 25 49  1  0
M  CHG  1   9  -1
M  END
>  <UniqueID>  (31) 
31

>  <SMILES>  (31) 
CC(C)C(=O)n1c(C([NH-])=O)cc2ccc(N(C)[C@H]3CC(=O)N(C)C3)cc21

>  <Energy>  (31) 
100.4553126676924

>  <Genealogy>  (31) 
CC(C)C(=O)n1c(C([NH-])=O)cc2ccc(N(C)C3CC(=O)N(C)C3)cc21 (protonated)
CC(C)C(=O)n1c(C([NH-])=O)cc2ccc(N(C)[C@H]3CC(=O)N(C)C3)cc21 (chirality)
CC(C)C(=O)n1c(C([NH-])=O)cc2ccc(N(C)[C@H]3CC(=O)N(C)C3)cc21 (3D coordinates assigned)
CC(C)C(=O)n1c(C([NH-])=O)cc2ccc(N(C)[C@H]3CC(=O)N(C)C3)cc21 (nonaromatic ring conformer: 100.4553126676924 kcal/mol)

>  <smiles>  (31) 
CC(C)C(=O)n1c(C(N)=O)cc2ccc(N(C)C3CC(=O)N(C)C3)cc21

>  <score_type>  (31) 
oracle

>  <origin>  (31) 
adg

>  <m_score__min__energy>  (31) 
-11.17

>  <m_primary>  (31) 
energy

$$$$
32:0
     RDKit          3D

 44 46  0  0  0  0  0  0  0  0999 V2000
   -3.8810   25.5160  -30.8200 N   0  0  0  0  0  0  0  0  0  0  0  0
   -4.9960   24.8230  -30.2740 C   0  0  0  0  0  0  0  0  0  0  0  0
   -5.6350   25.3390  -29.3180 O   0  0  0  0  0  0  0  0  0  0  0  0
   -5.4370   23.5390  -30.8500 C   0  0  0  0  0  0  0  0  0  0  0  0
   -6.6290   23.3830  -31.5530 C   0  0  0  0  0  0  0  0  0  0  0  0
   -6.6250   22.0760  -31.9880 C   0  0  0  0  0  0  0  0  0  0  0  0
   -7.5810   21.3750  -32.7130 C   0  0  0  0  0  0  0  0  0  0  0  0
   -7.3310   20.0160  -32.9860 C   0  0  0  0  0  0  0  0  0  0  0  0
   -6.1470   19.3820  -32.5210 C   0  0  0  0  0  0  0  0  0  0  0  0
   -5.9330   17.9740  -32.7460 N   0  0  0  0  0  0  0  0  0  0  0  0
   -5.7380   17.0690  -31.6020 C   0  0  0  0  0  0  0  0  0  0  0  0
   -5.1800   15.7230  -32.0760 C   0  0  0  0  0  0  0  0  0  0  0  0
   -4.2470   15.9370  -33.1170 O   0  0  0  0  0  0  0  0  0  0  0  0
   -4.9120   16.3360  -34.3080 C   0  0  0  0  0  0  0  0  0  0  0  0
   -6.0290   17.3860  -34.0910 C   0  0  0  0  0  0  0  0  0  0  0  0
   -5.2070   20.1360  -31.7790 C   0  0  0  0  0  0  0  0  0  0  0  0
   -5.4690   21.4890  -31.5440 C   0  0  0  0  0  0  0  0  0  0  0  0
   -4.7270   22.3710  -30.8420 N   0  0  0  0  0  0  0  0  0  0  0  0
   -3.5130   22.0720  -30.1350 C   0  0  0  0  0  0  0  0  0  0  0  0
   -3.5020   21.1260  -29.2980 O   0  0  0  0  0  0  0  0  0  0  0  0
   -2.3400   22.9070  -30.3000 N   0  0  2  0  0  0  0  0  0  0  0  0
   -1.3970   22.3040  -31.2210 C   0  0  0  0  0  0  0  0  0  0  0  0
   -1.7580   21.8870  -32.3130 O   0  0  0  0  0  0  0  0  0  0  0  0
   -1.7070   23.1540  -28.9840 C   0  0  0  0  0  0  0  0  0  0  0  0
   -1.0080   24.4830  -28.9520 C   0  0  0  0  0  0  0  0  0  0  0  0
   -1.6130   25.5250  -29.3210 O   0  0  0  0  0  0  0  0  0  0  0  0
    0.3230   24.5600  -28.5560 O   0  0  0  0  0  0  0  0  0  0  0  0
   -2.9040   25.2830  -30.5270 H   0  0  0  0  0  0  0  0  0  0  0  0
   -7.4073   24.1413  -31.7243 H   0  0  0  0  0  0  0  0  0  0  0  0
   -8.5020   21.8649  -33.0620 H   0  0  0  0  0  0  0  0  0  0  0  0
   -8.0631   19.4367  -33.5678 H   0  0  0  0  0  0  0  0  0  0  0  0
   -5.0304   17.5260  -30.8946 H   0  0  0  0  0  0  0  0  0  0  0  0
   -6.7075   16.9006  -31.1104 H   0  0  0  0  0  0  0  0  0  0  0  0
   -4.6817   15.2169  -31.2360 H   0  0  0  0  0  0  0  0  0  0  0  0
   -6.0041   15.0958  -32.4469 H   0  0  0  0  0  0  0  0  0  0  0  0
   -4.1652   16.7636  -34.9932 H   0  0  0  0  0  0  0  0  0  0  0  0
   -5.3985   15.4370  -34.7143 H   0  0  0  0  0  0  0  0  0  0  0  0
   -5.9267   18.1831  -34.8421 H   0  0  0  0  0  0  0  0  0  0  0  0
   -7.0059   16.8905  -34.1924 H   0  0  0  0  0  0  0  0  0  0  0  0
   -4.2890   19.6671  -31.3950 H   0  0  0  0  0  0  0  0  0  0  0  0
   -2.6520   23.8230  -30.6970 H   0  0  0  0  0  0  0  0  0  0  0  0
   -0.3387   22.2199  -30.9331 H   0  0  0  0  0  0  0  0  0  0  0  0
   -2.4836   23.1394  -28.2051 H   0  0  0  0  0  0  0  0  0  0  0  0
   -0.9603   22.3661  -28.8061 H   0  0  0  0  0  0  0  0  0  0  0  0
  1  2  1  0
  2  3  2  0
  2  4  1  0
  4  5  2  0
  5  6  1  0
  6  7  2  0
  7  8  1  0
  8  9  2  0
  9 10  1  0
 10 11  1  0
 11 12  1  0
 12 13  1  0
 13 14  1  0
 14 15  1  0
  9 16  1  0
 16 17  2  0
 17 18  1  0
 18 19  1  0
 19 20  2  0
 19 21  1  0
 21 22  1  0
 22 23  2  0
 21 24  1  0
 24 25  1  0
 25 26  2  0
 25 27  1  0
 18  4  1  0
 17  6  1  0
 15 10  1  0
  1 28  1  0
  5 29  1  0
  7 30  1  0
  8 31  1  0
 11 32  1  0
 11 33  1  0
 12 34  1  0
 12 35  1  0
 14 36  1  0
 14 37  1  0
 15 38  1  0
 15 39  1  0
 16 40  1  0
 21 41  1  6
 22 42  1  0
 24 43  1  0
 24 44  1  0
M  CHG  3   1  -1  21   1  27  -1
M  END
>  <UniqueID>  (32) 
32

>  <SMILES>  (32) 
[NH-]C(=O)c1cc2ccc(N3CCOCC3)cc2n1C(=O)[NH+](C=O)CC(=O)[O-]

>  <Energy>  (32) 
99.74879573082612

>  <Genealogy>  (32) 
[NH-]C(=O)c1cc2ccc(N3CCOCC3)cc2n1C(=O)[NH+](C=O)CC(=O)[O-] (protonated)
[NH-]C(=O)c1cc2ccc(N3CCOCC3)cc2n1C(=O)[NH+](C=O)CC(=O)[O-] (3D coordinates assigned)
[NH-]C(=O)c1cc2ccc(N3CCOCC3)cc2n1C(=O)[NH+](C=O)CC(=O)[O-] (nonaromatic ring conformer: 99.74879573082612 kcal/mol)

>  <smiles>  (32) 
NC(=O)c1cc2ccc(N3CCOCC3)cc2n1C(=O)N(C=O)CC(=O)O

>  <score_type>  (32) 
oracle

>  <origin>  (32) 
adg

>  <m_score__min__energy>  (32) 
-10.949999999999999

>  <m_primary>  (32) 
energy

$$$$
33:0
     RDKit          3D

 55 59  0  0  0  0  0  0  0  0999 V2000
   -7.7950   18.7020  -32.3100 C   0  0  0  0  0  0  0  0  0  0  0  0
   -7.6810   20.1700  -32.0260 C   0  0  0  0  0  0  0  0  0  0  0  0
   -8.8440   20.9800  -32.0010 C   0  0  0  0  0  0  0  0  0  0  0  0
   -8.7540   22.3510  -31.7070 C   0  0  0  0  0  0  0  0  0  0  0  0
   -7.4960   22.8770  -31.4250 C   0  0  0  0  0  0  0  0  0  0  0  0
   -7.1180   24.1650  -31.1240 C   0  0  0  0  0  0  0  0  0  0  0  0
   -5.7380   24.1120  -30.9370 C   0  0  0  0  0  0  0  0  0  0  0  0
   -4.9280   25.2720  -30.5150 C   0  0  0  0  0  0  0  0  0  0  0  0
   -3.5690   25.1100  -30.1200 N   0  0  0  0  0  0  0  0  0  0  0  0
   -5.4530   26.4160  -30.4620 O   0  0  0  0  0  0  0  0  0  0  0  0
   -5.2810   22.8420  -31.1230 N   0  0  0  0  0  0  0  0  0  0  0  0
   -3.9240   22.3750  -31.1270 C   0  0  0  0  0  0  0  0  0  0  0  0
   -3.0180   23.1140  -31.6010 O   0  0  0  0  0  0  0  0  0  0  0  0
   -3.5730   21.0930  -30.4210 C   0  0  0  0  0  0  0  0  0  0  0  0
   -2.9160   21.3220  -29.0810 C   0  0  0  0  0  0  0  0  0  0  0  0
   -2.6200   20.3540  -28.3930 O   0  0  0  0  0  0  0  0  0  0  0  0
   -2.6100   22.6670  -28.6300 N   0  0  1  0  0  0  0  0  0  0  0  0
   -3.6450   23.2160  -27.7470 C   0  0  0  0  0  0  0  0  0  0  0  0
   -2.9680   24.2870  -26.9080 C   0  0  0  0  0  0  0  0  0  0  0  0
   -1.5030   23.8520  -26.8320 C   0  0  2  0  0  0  0  0  0  0  0  0
   -0.5700   24.9960  -27.0030 N   0  0  0  0  0  0  0  0  0  0  0  0
   -1.1940   26.1640  -27.6380 C   0  0  0  0  0  0  0  0  0  0  0  0
   -0.5230   27.4090  -27.0850 C   0  0  1  0  0  0  0  0  0  0  0  0
   -0.9080   27.8260  -25.6750 C   0  0  0  0  0  0  0  0  0  0  0  0
    0.3200   26.9630  -25.9130 C   0  0  1  0  0  0  0  0  0  0  0  0
    0.1350   25.4580  -25.7960 C   0  0  0  0  0  0  0  0  0  0  0  0
   -1.3530   22.7250  -27.8710 C   0  0  0  0  0  0  0  0  0  0  0  0
   -6.3680   22.0990  -31.4190 C   0  0  0  0  0  0  0  0  0  0  0  0
   -6.4240   20.7340  -31.7200 C   0  0  0  0  0  0  0  0  0  0  0  0
   -7.8381   18.1472  -31.3611 H   0  0  0  0  0  0  0  0  0  0  0  0
   -8.7107   18.5105  -32.8886 H   0  0  0  0  0  0  0  0  0  0  0  0
   -6.9198   18.3714  -32.8886 H   0  0  0  0  0  0  0  0  0  0  0  0
   -9.8256   20.5313  -32.2136 H   0  0  0  0  0  0  0  0  0  0  0  0
   -9.6499   22.9892  -31.6998 H   0  0  0  0  0  0  0  0  0  0  0  0
   -7.7675   25.0495  -31.0472 H   0  0  0  0  0  0  0  0  0  0  0  0
   -2.7940   25.1820  -30.8150 H   0  0  0  0  0  0  0  0  0  0  0  0
   -4.4952   20.5139  -30.2655 H   0  0  0  0  0  0  0  0  0  0  0  0
   -2.8532   20.5535  -31.0541 H   0  0  0  0  0  0  0  0  0  0  0  0
   -2.5260   23.3000  -29.4580 H   0  0  0  0  0  0  0  0  0  0  0  0
   -4.4586   23.6564  -28.3421 H   0  0  0  0  0  0  0  0  0  0  0  0
   -4.0861   22.4323  -27.1136 H   0  0  0  0  0  0  0  0  0  0  0  0
   -3.0559   25.2714  -27.3910 H   0  0  0  0  0  0  0  0  0  0  0  0
   -3.4249   24.3866  -25.9124 H   0  0  0  0  0  0  0  0  0  0  0  0
   -1.2279   23.4701  -25.8378 H   0  0  0  0  0  0  0  0  0  0  0  0
   -1.0537   26.1165  -28.7280 H   0  0  0  0  0  0  0  0  0  0  0  0
   -2.2734   26.1843  -27.4270 H   0  0  0  0  0  0  0  0  0  0  0  0
   -0.4279   27.9917  -28.0132 H   0  0  0  0  0  0  0  0  0  0  0  0
   -0.7927   28.8734  -25.3592 H   0  0  0  0  0  0  0  0  0  0  0  0
   -1.8134   27.7407  -25.0561 H   0  0  0  0  0  0  0  0  0  0  0  0
    1.3502   27.0506  -25.5376 H   0  0  0  0  0  0  0  0  0  0  0  0
    1.1157   24.9650  -25.7237 H   0  0  0  0  0  0  0  0  0  0  0  0
   -0.4447   25.2111  -24.8943 H   0  0  0  0  0  0  0  0  0  0  0  0
   -0.5137   22.9445  -28.5473 H   0  0  0  0  0  0  0  0  0  0  0  0
   -1.1483   21.7630  -27.3784 H   0  0  0  0  0  0  0  0  0  0  0  0
   -5.5132   20.1171  -31.7182 H   0  0  0  0  0  0  0  0  0  0  0  0
  1  2  1  0
  2  3  2  0
  3  4  1  0
  4  5  2  0
  5  6  1  0
  6  7  2  0
  7  8  1  0
  8  9  1  0
  8 10  2  0
  7 11  1  0
 11 12  1  0
 12 13  2  0
 12 14  1  0
 14 15  1  0
 15 16  2  0
 15 17  1  0
 17 18  1  0
 18 19  1  0
 19 20  1  0
 20 21  1  0
 21 22  1  0
 22 23  1  0
 23 24  1  0
 24 25  1  0
 25 26  1  0
 20 27  1  0
 11 28  1  0
 28 29  2  0
 29  2  1  0
 28  5  1  0
 27 17  1  0
 26 21  1  0
 25 23  1  0
  1 30  1  0
  1 31  1  0
  1 32  1  0
  3 33  1  0
  4 34  1  0
  6 35  1  0
  9 36  1  0
 14 37  1  0
 14 38  1  0
 17 39  1  6
 18 40  1  0
 18 41  1  0
 19 42  1  0
 19 43  1  0
 20 44  1  1
 22 45  1  0
 22 46  1  0
 23 47  1  6
 24 48  1  0
 24 49  1  0
 25 50  1  6
 26 51  1  0
 26 52  1  0
 27 53  1  0
 27 54  1  0
 29 55  1  0
M  CHG  2   9  -1  17   1
M  END
>  <UniqueID>  (33) 
33

>  <SMILES>  (33) 
Cc1ccc2cc(C([NH-])=O)n(C(=O)CC(=O)[N@H+]3CC[C@H](N4CC5CC5C4)C3)c2c1

>  <Energy>  (33) 
374.99517792397916

>  <Genealogy>  (33) 
Cc1ccc2cc(C([NH-])=O)n(C(=O)CC(=O)[NH+]3CCC(N4CC5CC5C4)C3)c2c1 (protonated)
Cc1ccc2cc(C([NH-])=O)n(C(=O)CC(=O)[N@H+]3CC[C@H](N4CC5CC5C4)C3)c2c1 (chirality)
Cc1ccc2cc(C([NH-])=O)n(C(=O)CC(=O)[N@H+]3CC[C@H](N4CC5CC5C4)C3)c2c1 (3D coordinates assigned)
Cc1ccc2cc(C([NH-])=O)n(C(=O)CC(=O)[N@H+]3CC[C@H](N4CC5CC5C4)C3)c2c1 (nonaromatic ring conformer: 374.99517792397916 kcal/mol)

>  <smiles>  (33) 
Cc1ccc2cc(C(N)=O)n(C(=O)CC(=O)N3CCC(N4CC5CC5C4)C3)c2c1

>  <score_type>  (33) 
oracle

>  <origin>  (33) 
adg

>  <m_score__min__energy>  (33) 
-12.359999999999999

>  <m_primary>  (33) 
energy

$$$$
34:0
     RDKit          3D

 53 55  0  0  0  0  0  0  0  0999 V2000
   -5.8350   22.8470  -30.3400 C   0  0  0  0  0  0  0  0  0  0  0  0
   -4.9490   23.7580  -29.4660 C   0  0  0  0  0  0  0  0  0  0  0  0
   -5.7460   25.0210  -29.0920 C   0  0  0  0  0  0  0  0  0  0  0  0
   -4.5770   22.9960  -28.1770 C   0  0  0  0  0  0  0  0  0  0  0  0
   -3.6790   24.1680  -30.2030 C   0  0  0  0  0  0  0  0  0  0  0  0
   -3.6430   25.2640  -30.8260 O   0  0  0  0  0  0  0  0  0  0  0  0
   -2.5420   23.2930  -30.2820 N   0  0  0  0  0  0  0  0  0  0  0  0
   -1.3230   23.4550  -29.7000 C   0  0  0  0  0  0  0  0  0  0  0  0
   -0.9040   24.6190  -28.8930 C   0  0  0  0  0  0  0  0  0  0  0  0
   -1.6430   25.8350  -28.9590 N   0  0  0  0  0  0  0  0  0  0  0  0
    0.0980   24.5460  -28.1340 O   0  0  0  0  0  0  0  0  0  0  0  0
   -0.4960   22.3730  -29.9970 C   0  0  0  0  0  0  0  0  0  0  0  0
   -1.2520   21.5470  -30.8000 C   0  0  0  0  0  0  0  0  0  0  0  0
   -0.9240   20.3410  -31.4120 C   0  0  0  0  0  0  0  0  0  0  0  0
   -1.9000   19.7220  -32.2130 C   0  0  0  0  0  0  0  0  0  0  0  0
   -3.1760   20.3160  -32.3940 C   0  0  0  0  0  0  0  0  0  0  0  0
   -4.1580   19.6900  -33.2440 N   0  0  0  0  0  0  0  0  0  0  0  0
   -4.0430   18.2830  -33.6350 C   0  0  0  0  0  0  0  0  0  0  0  0
   -5.2870   17.5210  -33.1630 C   0  0  0  0  0  0  0  0  0  0  0  0
   -6.5570   18.2530  -33.4030 N   0  0  0  0  0  0  0  0  0  0  0  0
   -7.4920   18.4620  -31.9370 S   0  0  0  0  0  0  0  0  0  0  0  0
   -7.7130   20.1790  -31.5000 C   0  0  0  0  0  0  0  0  0  0  0  0
   -6.7780   17.7730  -30.8070 O   0  0  0  0  0  0  0  0  0  0  0  0
   -8.8440   17.8250  -32.1040 O   0  0  0  0  0  0  0  0  0  0  0  0
   -6.4430   19.4960  -34.1950 C   0  0  0  0  0  0  0  0  0  0  0  0
   -5.3440   20.4380  -33.6750 C   0  0  0  0  0  0  0  0  0  0  0  0
   -3.4620   21.5500  -31.7650 C   0  0  0  0  0  0  0  0  0  0  0  0
   -2.4800   22.1320  -30.9620 C   0  0  0  0  0  0  0  0  0  0  0  0
   -6.4554   22.2091  -29.6933 H   0  0  0  0  0  0  0  0  0  0  0  0
   -6.4846   23.4673  -30.9750 H   0  0  0  0  0  0  0  0  0  0  0  0
   -5.1969   22.2149  -30.9750 H   0  0  0  0  0  0  0  0  0  0  0  0
   -5.8014   25.1087  -27.9969 H   0  0  0  0  0  0  0  0  0  0  0  0
   -5.2435   25.9076  -29.5059 H   0  0  0  0  0  0  0  0  0  0  0  0
   -6.7626   24.9490  -29.5059 H   0  0  0  0  0  0  0  0  0  0  0  0
   -4.8687   23.5935  -27.3007 H   0  0  0  0  0  0  0  0  0  0  0  0
   -5.1056   22.0316  -28.1557 H   0  0  0  0  0  0  0  0  0  0  0  0
   -3.4914   22.8196  -28.1557 H   0  0  0  0  0  0  0  0  0  0  0  0
   -2.6870   25.8300  -28.9700 H   0  0  0  0  0  0  0  0  0  0  0  0
    0.5394   22.2127  -29.6618 H   0  0  0  0  0  0  0  0  0  0  0  0
    0.0679   19.8861  -31.2735 H   0  0  0  0  0  0  0  0  0  0  0  0
   -1.6715   18.7653  -32.7055 H   0  0  0  0  0  0  0  0  0  0  0  0
   -3.9620   18.2116  -34.7297 H   0  0  0  0  0  0  0  0  0  0  0  0
   -3.1460   17.8450  -33.1730 H   0  0  0  0  0  0  0  0  0  0  0  0
   -5.3316   16.5614  -33.6989 H   0  0  0  0  0  0  0  0  0  0  0  0
   -5.1912   17.3875  -32.0753 H   0  0  0  0  0  0  0  0  0  0  0  0
   -7.7260   20.2798  -30.4047 H   0  0  0  0  0  0  0  0  0  0  0  0
   -6.8838   20.7721  -31.9130 H   0  0  0  0  0  0  0  0  0  0  0  0
   -8.6654   20.5428  -31.9130 H   0  0  0  0  0  0  0  0  0  0  0  0
   -6.2121   19.2286  -35.2367 H   0  0  0  0  0  0  0  0  0  0  0  0
   -7.4015   20.0294  -34.1122 H   0  0  0  0  0  0  0  0  0  0  0  0
   -5.0571   21.1315  -34.4792 H   0  0  0  0  0  0  0  0  0  0  0  0
   -5.7405   20.9877  -32.8086 H   0  0  0  0  0  0  0  0  0  0  0  0
   -4.4367   22.0401  -31.9055 H   0  0  0  0  0  0  0  0  0  0  0  0
  1  2  1  0
  2  3  1  0
  2  4  1  0
  2  5  1  0
  5  6  2  0
  5  7  1  0
  7  8  1  0
  8  9  1  0
  9 10  1  0
  9 11  2  0
  8 12  2  0
 12 13  1  0
 13 14  2  0
 14 15  1  0
 15 16  2  0
 16 17  1  0
 17 18  1  0
 18 19  1  0
 19 20  1  0
 20 21  1  0
 21 22  1  0
 21 23  2  0
 21 24  2  0
 20 25  1  0
 25 26  1  0
 16 27  1  0
 27 28  2  0
 28  7  1  0
 28 13  1  0
 26 17  1  0
  1 29  1  0
  1 30  1  0
  1 31  1  0
  3 32  1  0
  3 33  1  0
  3 34  1  0
  4 35  1  0
  4 36  1  0
  4 37  1  0
 10 38  1  0
 12 39  1  0
 14 40  1  0
 15 41  1  0
 18 42  1  0
 18 43  1  0
 19 44  1  0
 19 45  1  0
 22 46  1  0
 22 47  1  0
 22 48  1  0
 25 49  1  0
 25 50  1  0
 26 51  1  0
 26 52  1  0
 27 53  1  0
M  CHG  1  10  -1
M  END
>  <UniqueID>  (34) 
34

>  <SMILES>  (34) 
CC(C)(C)C(=O)n1c(C([NH-])=O)cc2ccc(N3CCN(S(C)(=O)=O)CC3)cc21

>  <Energy>  (34) 
96.49931014233904

>  <Genealogy>  (34) 
CC(C)(C)C(=O)n1c(C([NH-])=O)cc2ccc(N3CCN(S(C)(=O)=O)CC3)cc21 (protonated)
CC(C)(C)C(=O)n1c(C([NH-])=O)cc2ccc(N3CCN(S(C)(=O)=O)CC3)cc21 (3D coordinates assigned)
CC(C)(C)C(=O)n1c(C([NH-])=O)cc2ccc(N3CCN(S(C)(=O)=O)CC3)cc21 (nonaromatic ring conformer: 96.49931014233904 kcal/mol)

>  <smiles>  (34) 
CC(C)(C)C(=O)n1c(C(N)=O)cc2ccc(N3CCN(S(C)(=O)=O)CC3)cc21

>  <score_type>  (34) 
oracle

>  <origin>  (34) 
adg

>  <m_score__min__energy>  (34) 
-11.970000000000001

>  <m_primary>  (34) 
energy

$$$$
35:0
     RDKit          3D

 46 47  0  0  0  0  0  0  0  0999 V2000
   -0.6710   22.5670  -29.6030 C   0  0  0  0  0  0  0  0  0  0  0  0
   -2.1260   22.5430  -29.4320 N   0  0  0  0  0  0  0  0  0  0  0  0
   -2.7810   23.5750  -28.6220 C   0  0  0  0  0  0  0  0  0  0  0  0
   -2.6360   24.9110  -29.2770 C   0  0  0  0  0  0  0  0  0  0  0  0
   -3.4900   25.2980  -30.1170 O   0  0  0  0  0  0  0  0  0  0  0  0
   -1.5370   25.7120  -28.9930 O   0  0  0  0  0  0  0  0  0  0  0  0
   -2.9090   21.6230  -30.2150 C   0  0  0  0  0  0  0  0  0  0  0  0
   -3.6720   20.8060  -29.6310 O   0  0  0  0  0  0  0  0  0  0  0  0
   -2.8380   21.6240  -31.6560 N   0  0  0  0  0  0  0  0  0  0  0  0
   -1.5760   21.2480  -32.3070 C   0  0  0  0  0  0  0  0  0  0  0  0
   -1.7640   20.0330  -33.2170 C   0  0  0  0  0  0  0  0  0  0  0  0
   -1.8350   20.4380  -34.5550 O   0  0  0  0  0  0  0  0  0  0  0  0
   -4.0110   21.9010  -32.4570 C   0  0  0  0  0  0  0  0  0  0  0  0
   -3.8790   22.3530  -33.6260 O   0  0  0  0  0  0  0  0  0  0  0  0
   -5.3330   21.6430  -31.9530 N   0  0  0  0  0  0  0  0  0  0  0  0
   -6.1360   22.4900  -31.2460 C   0  0  0  0  0  0  0  0  0  0  0  0
   -5.7630   23.8520  -30.7920 C   0  0  0  0  0  0  0  0  0  0  0  0
   -5.7620   24.1900  -29.4030 N   0  0  0  0  0  0  0  0  0  0  0  0
   -5.4290   24.7310  -31.6300 O   0  0  0  0  0  0  0  0  0  0  0  0
   -7.3590   21.8760  -30.9690 C   0  0  0  0  0  0  0  0  0  0  0  0
   -7.2840   20.6310  -31.5480 C   0  0  0  0  0  0  0  0  0  0  0  0
   -8.2300   19.6120  -31.6040 C   0  0  0  0  0  0  0  0  0  0  0  0
   -7.8960   18.4420  -32.3050 C   0  0  0  0  0  0  0  0  0  0  0  0
   -6.6300   18.3060  -32.9310 C   0  0  0  0  0  0  0  0  0  0  0  0
   -6.3040   17.0710  -33.7320 C   0  0  0  0  0  0  0  0  0  0  0  0
   -5.1450   16.4770  -33.2630 F   0  0  0  0  0  0  0  0  0  0  0  0
   -6.1180   17.3910  -35.0660 F   0  0  0  0  0  0  0  0  0  0  0  0
   -7.3480   16.1720  -33.6250 F   0  0  0  0  0  0  0  0  0  0  0  0
   -5.7090   19.3780  -32.8750 C   0  0  0  0  0  0  0  0  0  0  0  0
   -6.0580   20.5190  -32.1450 C   0  0  0  0  0  0  0  0  0  0  0  0
   -0.1859   22.5750  -28.6158 H   0  0  0  0  0  0  0  0  0  0  0  0
   -0.3526   21.6740  -30.1608 H   0  0  0  0  0  0  0  0  0  0  0  0
   -0.3822   23.4700  -30.1608 H   0  0  0  0  0  0  0  0  0  0  0  0
   -3.8494   23.3338  -28.5200 H   0  0  0  0  0  0  0  0  0  0  0  0
   -2.3082   23.6075  -27.6293 H   0  0  0  0  0  0  0  0  0  0  0  0
   -1.2166   22.0953  -32.9094 H   0  0  0  0  0  0  0  0  0  0  0  0
   -0.8450   20.9893  -31.5268 H   0  0  0  0  0  0  0  0  0  0  0  0
   -0.9128   19.3481  -33.0893 H   0  0  0  0  0  0  0  0  0  0  0  0
   -2.7001   19.5229  -32.9461 H   0  0  0  0  0  0  0  0  0  0  0  0
   -2.2170   21.3530  -34.5460 H   0  0  0  0  0  0  0  0  0  0  0  0
   -5.4590   25.1420  -29.0990 H   0  0  0  0  0  0  0  0  0  0  0  0
   -6.1000   23.5230  -28.6760 H   0  0  0  0  0  0  0  0  0  0  0  0
   -8.2042   22.2990  -30.4063 H   0  0  0  0  0  0  0  0  0  0  0  0
   -9.2091   19.7197  -31.1143 H   0  0  0  0  0  0  0  0  0  0  0  0
   -8.6249   17.6207  -32.3696 H   0  0  0  0  0  0  0  0  0  0  0  0
   -4.7408   19.3159  -33.3934 H   0  0  0  0  0  0  0  0  0  0  0  0
  1  2  1  0
  2  3  1  0
  3  4  1  0
  4  5  2  0
  4  6  1  0
  2  7  1  0
  7  8  2  0
  7  9  1  0
  9 10  1  0
 10 11  1  0
 11 12  1  0
  9 13  1  0
 13 14  2  0
 13 15  1  0
 15 16  1  0
 16 17  1  0
 17 18  1  0
 17 19  2  0
 16 20  2  0
 20 21  1  0
 21 22  2  0
 22 23  1  0
 23 24  2  0
 24 25  1  0
 25 26  1  0
 25 27  1  0
 25 28  1  0
 24 29  1  0
 29 30  2  0
 30 15  1  0
 30 21  1  0
  1 31  1  0
  1 32  1  0
  1 33  1  0
  3 34  1  0
  3 35  1  0
 10 36  1  0
 10 37  1  0
 11 38  1  0
 11 39  1  0
 12 40  1  0
 18 41  1  0
 18 42  1  0
 20 43  1  0
 22 44  1  0
 23 45  1  0
 29 46  1  0
M  CHG  1   6  -1
M  END
>  <UniqueID>  (35) 
35

>  <SMILES>  (35) 
CN(CC(=O)[O-])C(=O)N(CCO)C(=O)n1c(C(N)=O)cc2ccc(C(F)(F)F)cc21

>  <Energy>  (35) 
81.81224324896354

>  <Genealogy>  (35) 
CN(CC(=O)[O-])C(=O)N(CCO)C(=O)n1c(C(N)=O)cc2ccc(C(F)(F)F)cc21 (protonated)
CN(CC(=O)[O-])C(=O)N(CCO)C(=O)n1c(C(N)=O)cc2ccc(C(F)(F)F)cc21 (3D coordinates assigned)
CN(CC(=O)[O-])C(=O)N(CCO)C(=O)n1c(C(N)=O)cc2ccc(C(F)(F)F)cc21 (optimized conformer: 81.81224324896354 kcal/mol)

>  <smiles>  (35) 
CN(CC(=O)O)C(=O)N(CCO)C(=O)n1c(C(N)=O)cc2ccc(C(F)(F)F)cc21

>  <score_type>  (35) 
oracle

>  <origin>  (35) 
adg

>  <m_score__min__energy>  (35) 
-10.85

>  <m_primary>  (35) 
energy

$$$$
36:0
     RDKit          3D

 41 42  0  0  0  0  0  0  0  0999 V2000
   -2.5434   23.7461  -31.1118 H   0  0  0  0  0  0  0  0  0  0  0  0
   -2.3240   22.7110  -30.8110 C   0  0  0  0  0  0  0  0  0  0  0  0
   -1.2460   22.4640  -29.8440 C   0  0  0  0  0  0  0  0  0  0  0  0
   -0.6670   21.3450  -29.8430 O   0  0  0  0  0  0  0  0  0  0  0  0
   -0.8650   23.4620  -28.9360 O   0  0  0  0  0  0  0  0  0  0  0  0
   -1.6410   23.8200  -27.7950 C   0  0  0  0  0  0  0  0  0  0  0  0
   -1.0436   24.4708  -27.1395 H   0  0  0  0  0  0  0  0  0  0  0  0
   -1.9288   22.9050  -27.2566 H   0  0  0  0  0  0  0  0  0  0  0  0
   -2.8780   24.5460  -28.2160 C   0  0  0  0  0  0  0  0  0  0  0  0
   -2.8950   25.1810  -29.3050 O   0  0  0  0  0  0  0  0  0  0  0  0
   -4.0010   24.5280  -27.3830 O   0  0  0  0  0  0  0  0  0  0  0  0
   -4.0020   25.1130  -26.0860 C   0  0  0  0  0  0  0  0  0  0  0  0
   -4.0006   24.3184  -25.3254 H   0  0  0  0  0  0  0  0  0  0  0  0
   -3.1049   25.7380  -25.9650 H   0  0  0  0  0  0  0  0  0  0  0  0
   -4.9012   25.7349  -25.9650 H   0  0  0  0  0  0  0  0  0  0  0  0
   -3.0470   21.7160  -31.3370 C   0  0  0  0  0  0  0  0  0  0  0  0
   -2.8166   20.6814  -31.0428 H   0  0  0  0  0  0  0  0  0  0  0  0
   -4.1420   21.9540  -32.2970 C   0  0  0  0  0  0  0  0  0  0  0  0
   -3.8610   22.1200  -33.5140 O   0  0  0  0  0  0  0  0  0  0  0  0
   -5.5180   21.9870  -31.8810 N   0  0  0  0  0  0  0  0  0  0  0  0
   -6.1250   22.9360  -31.1170 C   0  0  0  0  0  0  0  0  0  0  0  0
   -5.5200   24.2140  -30.6850 C   0  0  0  0  0  0  0  0  0  0  0  0
   -4.9930   24.9680  -31.5470 O   0  0  0  0  0  0  0  0  0  0  0  0
   -5.4750   24.5920  -29.3090 N   0  0  0  0  0  0  0  0  0  0  0  0
   -5.7150   23.9140  -28.5520 H   0  0  0  0  0  0  0  0  0  0  0  0
   -5.0940   25.5240  -29.0350 H   0  0  0  0  0  0  0  0  0  0  0  0
   -7.4190   22.5430  -30.7850 C   0  0  0  0  0  0  0  0  0  0  0  0
   -8.1506   23.0993  -30.1807 H   0  0  0  0  0  0  0  0  0  0  0  0
   -7.5880   21.3100  -31.3740 C   0  0  0  0  0  0  0  0  0  0  0  0
   -8.6770   20.4440  -31.3470 C   0  0  0  0  0  0  0  0  0  0  0  0
   -9.6065   20.7175  -30.8262 H   0  0  0  0  0  0  0  0  0  0  0  0
   -8.5520   19.2090  -32.0060 C   0  0  0  0  0  0  0  0  0  0  0  0
   -9.3996   18.5079  -32.0139 H   0  0  0  0  0  0  0  0  0  0  0  0
   -7.3460   18.8580  -32.6600 C   0  0  0  0  0  0  0  0  0  0  0  0
   -7.2300   17.5290  -33.3520 C   0  0  0  0  0  0  0  0  0  0  0  0
   -8.2379   17.1551  -33.5849 H   0  0  0  0  0  0  0  0  0  0  0  0
   -6.5100   17.6730  -34.5240 F   0  0  0  0  0  0  0  0  0  0  0  0
   -6.5810   16.6300  -32.5250 F   0  0  0  0  0  0  0  0  0  0  0  0
   -6.2600   19.7620  -32.6650 C   0  0  0  0  0  0  0  0  0  0  0  0
   -5.3128   19.5043  -33.1613 H   0  0  0  0  0  0  0  0  0  0  0  0
   -6.4220   20.9930  -32.0220 C   0  0  0  0  0  0  0  0  0  0  0  0
  1  2  1  0
  2  3  1  0
  3  4  2  0
  3  5  1  0
  5  6  1  0
  6  7  1  0
  6  8  1  0
  6  9  1  0
  9 10  2  0
  9 11  1  0
 11 12  1  0
 12 13  1  0
 12 14  1  0
 12 15  1  0
  2 16  2  0
 16 17  1  0
 16 18  1  0
 18 19  2  0
 18 20  1  0
 20 21  1  0
 21 22  1  0
 22 23  2  0
 22 24  1  0
 24 25  1  0
 24 26  1  0
 21 27  2  0
 27 28  1  0
 27 29  1  0
 29 30  2  0
 30 31  1  0
 30 32  1  0
 32 33  1  0
 32 34  2  0
 34 35  1  0
 35 36  1  0
 35 37  1  0
 35 38  1  0
 34 39  1  0
 39 40  1  0
 39 41  2  0
 41 20  1  0
 41 29  1  0
M  END
>  <UniqueID>  (36) 
36

>  <SMILES>  (36) 
COC(=O)COC(=O)/C=C/C(=O)n1c(C(N)=O)cc2ccc(C(F)F)cc21

>  <Energy>  (36) 
74.2562084352503

>  <Genealogy>  (36) 
COC(=O)COC(=O)/C=C/C(=O)n1c(C(N)=O)cc2ccc(C(F)F)cc21 (cis-trans isomerization)
COC(=O)COC(=O)/C=C/C(=O)n1c(C(N)=O)cc2ccc(C(F)F)cc21 (3D coordinates assigned)
COC(=O)COC(=O)/C=C/C(=O)n1c(C(N)=O)cc2ccc(C(F)F)cc21 (optimized conformer: 74.2562084352503 kcal/mol)

>  <smiles>  (36) 
COC(=O)COC(=O)/C=C/C(=O)n1c(C(N)=O)cc2ccc(C(F)F)cc21

>  <score_type>  (36) 
oracle

>  <origin>  (36) 
adg

>  <m_score__min__energy>  (36) 
-8.5999999999999996

>  <m_primary>  (36) 
energy

$$$$
37:0
     RDKit          3D

 49 50  0  0  0  0  0  0  0  0999 V2000
   -5.2650   23.0870  -31.7600 C   0  0  0  0  0  0  0  0  0  0  0  0
   -4.9660   23.5790  -30.3130 C   0  0  0  0  0  0  0  0  0  0  0  0
   -6.1780   23.1680  -29.4290 C   0  0  0  0  0  0  0  0  0  0  0  0
   -4.9210   25.0990  -30.4310 C   0  0  0  0  0  0  0  0  0  0  0  0
   -3.8660   25.6720  -30.8120 O   0  0  0  0  0  0  0  0  0  0  0  0
   -6.0610   25.8700  -30.2240 O   0  0  0  0  0  0  0  0  0  0  0  0
   -3.6420   23.0440  -29.7830 N   0  0  1  0  0  0  0  0  0  0  0  0
   -3.2950   23.4060  -28.3690 C   0  0  0  0  0  0  0  0  0  0  0  0
   -2.1870   24.4710  -28.1680 C   0  0  2  0  0  0  0  0  0  0  0  0
   -1.9910   25.2160  -29.3380 O   0  0  0  0  0  0  0  0  0  0  0  0
   -0.8480   23.9060  -27.6460 C   0  0  0  0  0  0  0  0  0  0  0  0
    0.1990   24.1720  -28.5400 O   0  0  0  0  0  0  0  0  0  0  0  0
   -3.5070   21.5950  -29.8840 C   0  0  0  0  0  0  0  0  0  0  0  0
   -3.4510   20.8830  -28.8450 O   0  0  0  0  0  0  0  0  0  0  0  0
   -3.2120   20.9800  -31.1560 N   0  0  0  0  0  0  0  0  0  0  0  0
   -2.0250   21.0200  -31.8290 C   0  0  0  0  0  0  0  0  0  0  0  0
   -0.8140   21.7680  -31.4220 C   0  0  0  0  0  0  0  0  0  0  0  0
   -0.8730   22.6570  -30.3080 N   0  0  0  0  0  0  0  0  0  0  0  0
    0.2790   21.6130  -32.0260 O   0  0  0  0  0  0  0  0  0  0  0  0
   -2.1090   20.2970  -33.0150 C   0  0  0  0  0  0  0  0  0  0  0  0
   -3.3940   19.8120  -33.0570 C   0  0  0  0  0  0  0  0  0  0  0  0
   -4.0130   19.0110  -34.0110 C   0  0  0  0  0  0  0  0  0  0  0  0
   -5.3460   18.6300  -33.7900 C   0  0  0  0  0  0  0  0  0  0  0  0
   -6.0370   19.0610  -32.6280 C   0  0  0  0  0  0  0  0  0  0  0  0
   -7.4480   18.5980  -32.3690 C   0  0  0  0  0  0  0  0  0  0  0  0
   -8.3280   19.6060  -32.7150 F   0  0  0  0  0  0  0  0  0  0  0  0
   -7.6240   18.2840  -31.0330 F   0  0  0  0  0  0  0  0  0  0  0  0
   -7.7370   17.4710  -33.1200 F   0  0  0  0  0  0  0  0  0  0  0  0
   -5.3620   19.8500  -31.6690 C   0  0  0  0  0  0  0  0  0  0  0  0
   -4.0410   20.2340  -31.9240 C   0  0  0  0  0  0  0  0  0  0  0  0
   -5.8358   22.1477  -31.7173 H   0  0  0  0  0  0  0  0  0  0  0  0
   -5.8527   23.8493  -32.2924 H   0  0  0  0  0  0  0  0  0  0  0  0
   -4.3176   22.9165  -32.2924 H   0  0  0  0  0  0  0  0  0  0  0  0
   -5.9055   23.2604  -28.3673 H   0  0  0  0  0  0  0  0  0  0  0  0
   -7.0312   23.8270  -29.6473 H   0  0  0  0  0  0  0  0  0  0  0  0
   -6.4544   22.1259  -29.6473 H   0  0  0  0  0  0  0  0  0  0  0  0
   -2.8850   23.4250  -30.3870 H   0  0  0  0  0  0  0  0  0  0  0  0
   -4.2098   23.7839  -27.8890 H   0  0  0  0  0  0  0  0  0  0  0  0
   -2.8883   22.4835  -27.9291 H   0  0  0  0  0  0  0  0  0  0  0  0
   -2.5581   25.1330  -27.3717 H   0  0  0  0  0  0  0  0  0  0  0  0
   -1.3700   24.6980  -29.9130 H   0  0  0  0  0  0  0  0  0  0  0  0
   -0.6173   24.3695  -26.6755 H   0  0  0  0  0  0  0  0  0  0  0  0
   -0.9477   22.8155  -27.5418 H   0  0  0  0  0  0  0  0  0  0  0  0
   -0.1580   24.0110  -29.4520 H   0  0  0  0  0  0  0  0  0  0  0  0
   -0.8670   23.6910  -30.4470 H   0  0  0  0  0  0  0  0  0  0  0  0
   -1.3149   20.1457  -33.7610 H   0  0  0  0  0  0  0  0  0  0  0  0
   -3.4735   18.6855  -34.9127 H   0  0  0  0  0  0  0  0  0  0  0  0
   -5.8594   17.9917  -34.5242 H   0  0  0  0  0  0  0  0  0  0  0  0
   -5.8655   20.1562  -30.7402 H   0  0  0  0  0  0  0  0  0  0  0  0
  1  2  1  0
  2  3  1  0
  2  4  1  0
  4  5  2  0
  4  6  1  0
  2  7  1  0
  7  8  1  0
  8  9  1  0
  9 10  1  0
  9 11  1  0
 11 12  1  0
  7 13  1  0
 13 14  2  0
 13 15  1  0
 15 16  1  0
 16 17  1  0
 17 18  1  0
 17 19  2  0
 16 20  2  0
 20 21  1  0
 21 22  2  0
 22 23  1  0
 23 24  2  0
 24 25  1  0
 25 26  1  0
 25 27  1  0
 25 28  1  0
 24 29  1  0
 29 30  2  0
 30 15  1  0
 30 21  1  0
  1 31  1  0
  1 32  1  0
  1 33  1  0
  3 34  1  0
  3 35  1  0
  3 36  1  0
  7 37  1  6
  8 38  1  0
  8 39  1  0
  9 40  1  1
 10 41  1  0
 11 42  1  0
 11 43  1  0
 12 44  1  0
 18 45  1  0
 20 46  1  0
 22 47  1  0
 23 48  1  0
 29 49  1  0
M  CHG  3   6  -1   7   1  18  -1
M  END
>  <UniqueID>  (37) 
37

>  <SMILES>  (37) 
CC(C)(C(=O)[O-])[N@@H+](C[C@H](O)CO)C(=O)n1c(C([NH-])=O)cc2ccc(C(F)(F)F)cc21

>  <Energy>  (37) 
108.87670136939673

>  <Genealogy>  (37) 
CC(C)(C(=O)[O-])[NH+](CC(O)CO)C(=O)n1c(C([NH-])=O)cc2ccc(C(F)(F)F)cc21 (protonated)
CC(C)(C(=O)[O-])[N@@H+](C[C@H](O)CO)C(=O)n1c(C([NH-])=O)cc2ccc(C(F)(F)F)cc21 (chirality)
CC(C)(C(=O)[O-])[N@@H+](C[C@H](O)CO)C(=O)n1c(C([NH-])=O)cc2ccc(C(F)(F)F)cc21 (3D coordinates assigned)
CC(C)(C(=O)[O-])[N@@H+](C[C@H](O)CO)C(=O)n1c(C([NH-])=O)cc2ccc(C(F)(F)F)cc21 (optimized conformer: 108.87670136939673 kcal/mol)

>  <smiles>  (37) 
CC(C)(C(=O)O)N(CC(O)CO)C(=O)n1c(C(N)=O)cc2ccc(C(F)(F)F)cc21

>  <score_type>  (37) 
oracle

>  <origin>  (37) 
adg

>  <m_score__min__energy>  (37) 
-10.58

>  <m_primary>  (37) 
energy

$$$$
38:0
     RDKit          3D

 53 54  0  0  0  0  0  0  0  0999 V2000
   -7.2230   23.5850  -29.7160 C   0  0  0  0  0  0  0  0  0  0  0  0
   -6.7960   23.2490  -31.0810 N   0  0  0  0  0  0  0  0  0  0  0  0
   -6.0300   24.2560  -31.8360 C   0  0  0  0  0  0  0  0  0  0  0  0
   -5.2780   25.1510  -30.9000 C   0  0  0  0  0  0  0  0  0  0  0  0
   -5.8950   26.0270  -30.2380 O   0  0  0  0  0  0  0  0  0  0  0  0
   -3.8600   25.0080  -30.7690 N   0  0  0  0  0  0  0  0  0  0  0  0
   -3.2150   23.8540  -30.1480 C   0  0  0  0  0  0  0  0  0  0  0  0
   -3.9400   23.4600  -28.8630 C   0  0  0  0  0  0  0  0  0  0  0  0
   -4.2210   24.5960  -28.0940 O   0  0  0  0  0  0  0  0  0  0  0  0
   -7.0770   21.9310  -31.6340 C   0  0  0  0  0  0  0  0  0  0  0  0
   -8.4140   21.5340  -31.9210 C   0  0  0  0  0  0  0  0  0  0  0  0
   -8.7020   20.2520  -32.4150 C   0  0  0  0  0  0  0  0  0  0  0  0
   -7.6420   19.3810  -32.6270 C   0  0  0  0  0  0  0  0  0  0  0  0
   -7.6470   18.0780  -33.0680 C   0  0  0  0  0  0  0  0  0  0  0  0
   -6.3140   17.6850  -33.0590 C   0  0  0  0  0  0  0  0  0  0  0  0
   -5.8720   16.3410  -33.4630 C   0  0  0  0  0  0  0  0  0  0  0  0
   -4.8000   15.6930  -32.7810 N   0  0  0  0  0  0  0  0  0  0  0  0
   -6.4990   15.7270  -34.3660 O   0  0  0  0  0  0  0  0  0  0  0  0
   -5.5060   18.7080  -32.6600 N   0  0  0  0  0  0  0  0  0  0  0  0
   -4.0640   18.7370  -32.6730 C   0  0  0  0  0  0  0  0  0  0  0  0
   -3.4210   17.7460  -33.1120 O   0  0  0  0  0  0  0  0  0  0  0  0
   -3.3810   19.8510  -32.1680 O   0  0  0  0  0  0  0  0  0  0  0  0
   -2.6410   20.8170  -32.9290 C   0  0  0  0  0  0  0  0  0  0  0  0
   -3.5670   21.9480  -33.4190 C   0  0  0  0  0  0  0  0  0  0  0  0
   -1.9280   20.1430  -34.1180 C   0  0  0  0  0  0  0  0  0  0  0  0
   -1.5810   21.4140  -31.9900 C   0  0  0  0  0  0  0  0  0  0  0  0
   -6.3430   19.7380  -32.3870 C   0  0  0  0  0  0  0  0  0  0  0  0
   -6.0300   21.0050  -31.8810 C   0  0  0  0  0  0  0  0  0  0  0  0
   -6.5723   23.0730  -28.9918 H   0  0  0  0  0  0  0  0  0  0  0  0
   -7.1528   24.6726  -29.5671 H   0  0  0  0  0  0  0  0  0  0  0  0
   -8.2636   23.2610  -29.5671 H   0  0  0  0  0  0  0  0  0  0  0  0
   -5.3171   23.7457  -32.5004 H   0  0  0  0  0  0  0  0  0  0  0  0
   -6.7289   24.8656  -32.4275 H   0  0  0  0  0  0  0  0  0  0  0  0
   -3.2365   23.0070  -30.8495 H   0  0  0  0  0  0  0  0  0  0  0  0
   -2.1759   24.1182  -29.9022 H   0  0  0  0  0  0  0  0  0  0  0  0
   -4.8822   22.9533  -29.1190 H   0  0  0  0  0  0  0  0  0  0  0  0
   -3.2946   22.7855  -28.2812 H   0  0  0  0  0  0  0  0  0  0  0  0
   -4.5160   25.2940  -28.7340 H   0  0  0  0  0  0  0  0  0  0  0  0
   -9.2363   22.2450  -31.7525 H   0  0  0  0  0  0  0  0  0  0  0  0
   -9.7371   19.9466  -32.6279 H   0  0  0  0  0  0  0  0  0  0  0  0
   -8.5189   17.4763  -33.3642 H   0  0  0  0  0  0  0  0  0  0  0  0
   -4.3440   16.1410  -31.9560 H   0  0  0  0  0  0  0  0  0  0  0  0
   -4.4880   14.7400  -33.0720 H   0  0  0  0  0  0  0  0  0  0  0  0
   -3.9961   22.4720  -32.5522 H   0  0  0  0  0  0  0  0  0  0  0  0
   -2.9879   22.6584  -34.0272 H   0  0  0  0  0  0  0  0  0  0  0  0
   -4.3778   21.5205  -34.0272 H   0  0  0  0  0  0  0  0  0  0  0  0
   -1.1771   19.4332  -33.7407 H   0  0  0  0  0  0  0  0  0  0  0  0
   -2.6660   19.6048  -34.7309 H   0  0  0  0  0  0  0  0  0  0  0  0
   -1.4321   20.9101  -34.7309 H   0  0  0  0  0  0  0  0  0  0  0  0
   -1.8802   21.2455  -30.9450 H   0  0  0  0  0  0  0  0  0  0  0  0
   -0.6113   20.9294  -32.1765 H   0  0  0  0  0  0  0  0  0  0  0  0
   -1.4928   22.4945  -32.1765 H   0  0  0  0  0  0  0  0  0  0  0  0
   -4.9846   21.2799  -31.6771 H   0  0  0  0  0  0  0  0  0  0  0  0
  1  2  1  0
  2  3  1  0
  3  4  1  0
  4  5  2  0
  4  6  1  0
  6  7  1  0
  7  8  1  0
  8  9  1  0
  2 10  1  0
 10 11  2  0
 11 12  1  0
 12 13  2  0
 13 14  1  0
 14 15  2  0
 15 16  1  0
 16 17  1  0
 16 18  2  0
 15 19  1  0
 19 20  1  0
 20 21  2  0
 20 22  1  0
 22 23  1  0
 23 24  1  0
 23 25  1  0
 23 26  1  0
 19 27  1  0
 27 28  2  0
 28 10  1  0
 27 13  1  0
  1 29  1  0
  1 30  1  0
  1 31  1  0
  3 32  1  0
  3 33  1  0
  7 34  1  0
  7 35  1  0
  8 36  1  0
  8 37  1  0
  9 38  1  0
 11 39  1  0
 12 40  1  0
 14 41  1  0
 17 42  1  0
 17 43  1  0
 24 44  1  0
 24 45  1  0
 24 46  1  0
 25 47  1  0
 25 48  1  0
 25 49  1  0
 26 50  1  0
 26 51  1  0
 26 52  1  0
 28 53  1  0
M  CHG  1   6  -1
M  END
>  <UniqueID>  (38) 
38

>  <SMILES>  (38) 
CN(CC(=O)[N-]CCO)c1ccc2cc(C(N)=O)n(C(=O)OC(C)(C)C)c2c1

>  <Energy>  (38) 
84.054997440199

>  <Genealogy>  (38) 
CN(CC(=O)[N-]CCO)c1ccc2cc(C(N)=O)n(C(=O)OC(C)(C)C)c2c1 (protonated)
CN(CC(=O)[N-]CCO)c1ccc2cc(C(N)=O)n(C(=O)OC(C)(C)C)c2c1 (3D coordinates assigned)
CN(CC(=O)[N-]CCO)c1ccc2cc(C(N)=O)n(C(=O)OC(C)(C)C)c2c1 (optimized conformer: 84.054997440199 kcal/mol)

>  <smiles>  (38) 
CN(CC(=O)NCCO)c1ccc2cc(C(N)=O)n(C(=O)OC(C)(C)C)c2c1

>  <score_type>  (38) 
oracle

>  <origin>  (38) 
adg

>  <m_score__min__energy>  (38) 
-9.0299999999999994

>  <m_primary>  (38) 
energy

$$$$
39:0
     RDKit          3D

 45 46  0  0  0  0  0  0  0  0999 V2000
   -4.6320   17.9310  -33.4090 C   0  0  0  0  0  0  0  0  0  0  0  0
   -6.0700   18.2360  -33.8520 C   0  0  2  0  0  0  0  0  0  0  0  0
   -6.1080   19.3210  -34.7470 O   0  0  0  0  0  0  0  0  0  0  0  0
   -7.0330   18.4520  -32.6640 C   0  0  0  0  0  0  0  0  0  0  0  0
   -7.1730   19.8980  -32.2580 C   0  0  0  0  0  0  0  0  0  0  0  0
   -8.4370   20.5370  -32.3140 C   0  0  0  0  0  0  0  0  0  0  0  0
   -8.5790   21.8830  -31.9420 C   0  0  0  0  0  0  0  0  0  0  0  0
   -7.4390   22.5680  -31.5290 C   0  0  0  0  0  0  0  0  0  0  0  0
   -7.2930   23.8670  -31.0990 C   0  0  0  0  0  0  0  0  0  0  0  0
   -5.9370   24.0120  -30.8150 C   0  0  0  0  0  0  0  0  0  0  0  0
   -5.3230   25.2930  -30.4090 C   0  0  0  0  0  0  0  0  0  0  0  0
   -4.0280   25.6630  -30.8740 N   0  0  0  0  0  0  0  0  0  0  0  0
   -5.9700   26.0910  -29.6800 O   0  0  0  0  0  0  0  0  0  0  0  0
   -5.2720   22.8440  -31.0470 N   0  0  0  0  0  0  0  0  0  0  0  0
   -3.8900   22.5490  -30.7920 C   0  0  0  0  0  0  0  0  0  0  0  0
   -2.9920   23.3090  -31.2450 O   0  0  0  0  0  0  0  0  0  0  0  0
   -3.5320   21.3950  -30.0210 N   0  0  0  0  0  0  0  0  0  0  0  0
   -3.4670   21.3790  -28.6410 O   0  0  0  0  0  0  0  0  0  0  0  0
   -2.5120   22.0980  -27.9120 C   0  0  0  0  0  0  0  0  0  0  0  0
   -1.4630   21.5240  -27.5060 O   0  0  0  0  0  0  0  0  0  0  0  0
   -2.7500   23.4800  -27.5880 N   0  0  0  0  0  0  0  0  0  0  0  0
   -4.1030   24.0240  -27.7310 C   0  0  0  0  0  0  0  0  0  0  0  0
   -1.6420   24.3580  -27.1900 C   0  0  0  0  0  0  0  0  0  0  0  0
   -0.9270   24.8670  -28.4000 C   0  0  0  0  0  0  0  0  0  0  0  0
    0.2900   24.5930  -28.5790 O   0  0  0  0  0  0  0  0  0  0  0  0
   -1.5890   25.6840  -29.3090 O   0  0  0  0  0  0  0  0  0  0  0  0
   -6.2060   21.9720  -31.4860 C   0  0  0  0  0  0  0  0  0  0  0  0
   -6.0400   20.6260  -31.8290 C   0  0  0  0  0  0  0  0  0  0  0  0
   -4.5813   17.9202  -32.3102 H   0  0  0  0  0  0  0  0  0  0  0  0
   -4.3286   16.9485  -33.7997 H   0  0  0  0  0  0  0  0  0  0  0  0
   -3.9558   18.7057  -33.7997 H   0  0  0  0  0  0  0  0  0  0  0  0
   -6.4293   17.3413  -34.3816 H   0  0  0  0  0  0  0  0  0  0  0  0
   -7.0540   19.4750  -35.0020 H   0  0  0  0  0  0  0  0  0  0  0  0
   -8.0258   18.0722  -32.9471 H   0  0  0  0  0  0  0  0  0  0  0  0
   -6.6103   17.9137  -31.8029 H   0  0  0  0  0  0  0  0  0  0  0  0
   -9.3173   19.9712  -32.6531 H   0  0  0  0  0  0  0  0  0  0  0  0
   -9.5593   22.3808  -31.9756 H   0  0  0  0  0  0  0  0  0  0  0  0
   -8.0800   24.6291  -31.0005 H   0  0  0  0  0  0  0  0  0  0  0  0
   -3.1670   25.2990  -30.4090 H   0  0  0  0  0  0  0  0  0  0  0  0
   -4.5355   24.1979  -26.7346 H   0  0  0  0  0  0  0  0  0  0  0  0
   -4.0596   24.9746  -28.2829 H   0  0  0  0  0  0  0  0  0  0  0  0
   -4.7297   23.3079  -28.2829 H   0  0  0  0  0  0  0  0  0  0  0  0
   -2.0402   25.2092  -26.6182 H   0  0  0  0  0  0  0  0  0  0  0  0
   -0.9360   23.7865  -26.5696 H   0  0  0  0  0  0  0  0  0  0  0  0
   -5.0522   20.1461  -31.7664 H   0  0  0  0  0  0  0  0  0  0  0  0
  1  2  1  0
  2  3  1  0
  2  4  1  0
  4  5  1  0
  5  6  2  0
  6  7  1  0
  7  8  2  0
  8  9  1  0
  9 10  2  0
 10 11  1  0
 11 12  1  0
 11 13  2  0
 10 14  1  0
 14 15  1  0
 15 16  2  0
 15 17  1  0
 17 18  1  0
 18 19  1  0
 19 20  2  0
 19 21  1  0
 21 22  1  0
 21 23  1  0
 23 24  1  0
 24 25  2  0
 24 26  1  0
 14 27  1  0
 27 28  2  0
 28  5  1  0
 27  8  1  0
  1 29  1  0
  1 30  1  0
  1 31  1  0
  2 32  1  6
  3 33  1  0
  4 34  1  0
  4 35  1  0
  6 36  1  0
  7 37  1  0
  9 38  1  0
 12 39  1  0
 22 40  1  0
 22 41  1  0
 22 42  1  0
 23 43  1  0
 23 44  1  0
 28 45  1  0
M  CHG  3  12  -1  17  -1  26  -1
M  END
>  <UniqueID>  (39) 
39

>  <SMILES>  (39) 
C[C@H](O)Cc1ccc2cc(C([NH-])=O)n(C(=O)[N-]OC(=O)N(C)CC(=O)[O-])c2c1

>  <Energy>  (39) 
83.3775981225435

>  <Genealogy>  (39) 
CC(O)Cc1ccc2cc(C([NH-])=O)n(C(=O)[N-]OC(=O)N(C)CC(=O)[O-])c2c1 (protonated)
C[C@H](O)Cc1ccc2cc(C([NH-])=O)n(C(=O)[N-]OC(=O)N(C)CC(=O)[O-])c2c1 (chirality)
C[C@H](O)Cc1ccc2cc(C([NH-])=O)n(C(=O)[N-]OC(=O)N(C)CC(=O)[O-])c2c1 (3D coordinates assigned)
C[C@H](O)Cc1ccc2cc(C([NH-])=O)n(C(=O)[N-]OC(=O)N(C)CC(=O)[O-])c2c1 (optimized conformer: 83.3775981225435 kcal/mol)

>  <smiles>  (39) 
CC(O)Cc1ccc2cc(C(N)=O)n(C(=O)NOC(=O)N(C)CC(=O)O)c2c1

>  <score_type>  (39) 
oracle

>  <origin>  (39) 
adg

>  <m_score__min__energy>  (39) 
-13.199999999999999

>  <m_primary>  (39) 
energy

$$$$
40:0
     RDKit          3D

 62 65  0  0  0  0  0  0  0  0999 V2000
   -6.1050   21.0460  -32.5200 C   0  0  0  0  0  0  0  0  0  0  0  0
   -4.6680   20.6730  -32.1760 C   0  0  0  0  0  0  0  0  0  0  0  0
   -3.7760   21.7220  -32.5430 O   0  0  0  0  0  0  0  0  0  0  0  0
   -2.5830   21.9960  -31.8620 C   0  0  0  0  0  0  0  0  0  0  0  0
   -1.4750   21.9180  -32.4580 O   0  0  0  0  0  0  0  0  0  0  0  0
   -2.6240   22.3390  -30.4680 N   0  0  0  0  0  0  0  0  0  0  0  0
   -3.3280   23.3440  -29.8730 C   0  0  0  0  0  0  0  0  0  0  0  0
   -4.3130   24.2260  -30.5370 C   0  0  0  0  0  0  0  0  0  0  0  0
   -4.0930   25.6340  -30.5720 N   0  0  0  0  0  0  0  0  0  0  0  0
   -5.3650   23.7540  -31.0430 O   0  0  0  0  0  0  0  0  0  0  0  0
   -3.0590   23.3850  -28.5070 C   0  0  0  0  0  0  0  0  0  0  0  0
   -2.1690   22.3600  -28.2810 C   0  0  0  0  0  0  0  0  0  0  0  0
   -1.5640   21.9500  -27.1030 C   0  0  0  0  0  0  0  0  0  0  0  0
   -0.6670   20.8720  -27.1590 C   0  0  0  0  0  0  0  0  0  0  0  0
   -0.3700   20.2090  -28.3910 C   0  0  0  0  0  0  0  0  0  0  0  0
    0.5700   19.0840  -28.4420 N   0  0  0  0  0  0  0  0  0  0  0  0
    2.0220   19.4160  -28.4650 C   0  0  0  0  0  0  0  0  0  0  0  0
    3.0360   18.2600  -28.3420 C   0  0  1  0  0  0  0  0  0  0  0  0
    2.7610   17.3850  -27.1050 C   0  0  0  0  0  0  0  0  0  0  0  0
    1.7730   16.2490  -27.4010 C   0  0  0  0  0  0  0  0  0  0  0  0
    0.9390   16.5250  -28.6640 C   0  0  1  0  0  0  0  0  0  0  0  0
   -0.0160   17.7140  -28.4700 C   0  0  0  0  0  0  0  0  0  0  0  0
    1.8110   16.7350  -29.8270 N   0  0  0  0  0  0  0  0  0  0  0  0
    1.4310   16.2790  -31.1380 C   0  0  0  0  0  0  0  0  0  0  0  0
    1.1400   15.0650  -31.3290 O   0  0  0  0  0  0  0  0  0  0  0  0
    1.3850   17.1860  -32.2020 O   0  0  0  0  0  0  0  0  0  0  0  0
    0.1850   17.8390  -32.6040 C   0  0  0  0  0  0  0  0  0  0  0  0
    0.4130   18.5610  -33.8090 O   0  0  0  0  0  0  0  0  0  0  0  0
   -0.2090   19.7820  -34.0890 C   0  0  0  0  0  0  0  0  0  0  0  0
   -1.4650   19.8590  -34.1860 O   0  0  0  0  0  0  0  0  0  0  0  0
    0.6230   21.0150  -34.2430 C   0  0  0  0  0  0  0  0  0  0  0  0
   -0.1350   22.0460  -34.8200 O   0  0  0  0  0  0  0  0  0  0  0  0
    3.0830   17.4320  -29.6360 C   0  0  0  0  0  0  0  0  0  0  0  0
   -1.0190   20.6810  -29.5710 C   0  0  0  0  0  0  0  0  0  0  0  0
   -1.9220   21.7450  -29.4760 C   0  0  0  0  0  0  0  0  0  0  0  0
   -6.6773   21.1946  -31.5924 H   0  0  0  0  0  0  0  0  0  0  0  0
   -6.1118   21.9757  -33.1079 H   0  0  0  0  0  0  0  0  0  0  0  0
   -6.5631   20.2370  -33.1079 H   0  0  0  0  0  0  0  0  0  0  0  0
   -4.5901   20.4944  -31.0934 H   0  0  0  0  0  0  0  0  0  0  0  0
   -4.3946   19.7642  -32.7322 H   0  0  0  0  0  0  0  0  0  0  0  0
   -3.4720   26.0630  -31.2950 H   0  0  0  0  0  0  0  0  0  0  0  0
   -3.4703   24.0870  -27.7667 H   0  0  0  0  0  0  0  0  0  0  0  0
   -1.7810   22.4557  -26.1505 H   0  0  0  0  0  0  0  0  0  0  0  0
   -0.1810   20.5290  -26.2337 H   0  0  0  0  0  0  0  0  0  0  0  0
    2.2246   19.9276  -29.4175 H   0  0  0  0  0  0  0  0  0  0  0  0
    2.1792   20.0145  -27.5555 H   0  0  0  0  0  0  0  0  0  0  0  0
    4.0324   18.7024  -28.1955 H   0  0  0  0  0  0  0  0  0  0  0  0
    3.7107   16.9474  -26.7635 H   0  0  0  0  0  0  0  0  0  0  0  0
    2.3127   18.0271  -26.3325 H   0  0  0  0  0  0  0  0  0  0  0  0
    2.3375   15.3159  -27.5450 H   0  0  0  0  0  0  0  0  0  0  0  0
    1.0823   16.1687  -26.5486 H   0  0  0  0  0  0  0  0  0  0  0  0
    0.3184   15.6363  -28.8512 H   0  0  0  0  0  0  0  0  0  0  0  0
   -0.7444   17.6864  -29.2938 H   0  0  0  0  0  0  0  0  0  0  0  0
   -0.4309   17.5717  -27.4612 H   0  0  0  0  0  0  0  0  0  0  0  0
   -0.6017   17.0884  -32.7706 H   0  0  0  0  0  0  0  0  0  0  0  0
   -0.1320   18.5371  -31.8152 H   0  0  0  0  0  0  0  0  0  0  0  0
    0.9803   21.3374  -33.2539 H   0  0  0  0  0  0  0  0  0  0  0  0
    1.4777   20.7901  -34.8979 H   0  0  0  0  0  0  0  0  0  0  0  0
   -1.0850   21.8610  -34.5930 H   0  0  0  0  0  0  0  0  0  0  0  0
    3.8964   16.6946  -29.5680 H   0  0  0  0  0  0  0  0  0  0  0  0
    3.2602   18.1031  -30.4894 H   0  0  0  0  0  0  0  0  0  0  0  0
   -0.8114   20.2132  -30.5447 H   0  0  0  0  0  0  0  0  0  0  0  0
  1  2  1  0
  2  3  1  0
  3  4  1  0
  4  5  2  0
  4  6  1  0
  6  7  1  0
  7  8  1  0
  8  9  1  0
  8 10  2  0
  7 11  2  0
 11 12  1  0
 12 13  2  0
 13 14  1  0
 14 15  2  0
 15 16  1  0
 16 17  1  0
 17 18  1  0
 18 19  1  0
 19 20  1  0
 20 21  1  0
 21 22  1  0
 21 23  1  0
 23 24  1  0
 24 25  2  0
 24 26  1  0
 26 27  1  0
 27 28  1  0
 28 29  1  0
 29 30  2  0
 29 31  1  0
 31 32  1  0
 23 33  1  0
 15 34  1  0
 34 35  2  0
 35  6  1  0
 35 12  1  0
 22 16  1  0
 33 18  1  0
  1 36  1  0
  1 37  1  0
  1 38  1  0
  2 39  1  0
  2 40  1  0
  9 41  1  0
 11 42  1  0
 13 43  1  0
 14 44  1  0
 17 45  1  0
 17 46  1  0
 18 47  1  1
 19 48  1  0
 19 49  1  0
 20 50  1  0
 20 51  1  0
 21 52  1  6
 22 53  1  0
 22 54  1  0
 27 55  1  0
 27 56  1  0
 31 57  1  0
 31 58  1  0
 32 59  1  0
 33 60  1  0
 33 61  1  0
 34 62  1  0
M  CHG  1   9  -1
M  END
>  <UniqueID>  (40) 
40

>  <SMILES>  (40) 
CCOC(=O)n1c(C([NH-])=O)cc2ccc(N3C[C@H]4CC[C@@H](C3)N(C(=O)OCOC(=O)CO)C4)cc21

>  <Energy>  (40) 
111.28993239774177

>  <Genealogy>  (40) 
CCOC(=O)n1c(C([NH-])=O)cc2ccc(N3CC4CCC(C3)N(C(=O)OCOC(=O)CO)C4)cc21 (protonated)
CCOC(=O)n1c(C([NH-])=O)cc2ccc(N3C[C@H]4CC[C@@H](C3)N(C(=O)OCOC(=O)CO)C4)cc21 (chirality)
CCOC(=O)n1c(C([NH-])=O)cc2ccc(N3C[C@H]4CC[C@@H](C3)N(C(=O)OCOC(=O)CO)C4)cc21 (3D coordinates assigned)
CCOC(=O)n1c(C([NH-])=O)cc2ccc(N3C[C@H]4CC[C@@H](C3)N(C(=O)OCOC(=O)CO)C4)cc21 (nonaromatic ring conformer: 111.28993239774177 kcal/mol)

>  <smiles>  (40) 
CCOC(=O)n1c(C(N)=O)cc2ccc(N3CC4CCC(C3)N(C(=O)OCOC(=O)CO)C4)cc21

>  <score_type>  (40) 
oracle

>  <origin>  (40) 
adg

>  <m_score__min__energy>  (40) 
-7.8200000000000003

>  <m_primary>  (40) 
energy

$$$$
41:0
     RDKit          3D

 37 38  0  0  0  0  0  0  0  0999 V2000
   -1.6990   21.4140  -27.8420 C   0  0  0  0  0  0  0  0  0  0  0  0
   -2.1020   22.2630  -28.9700 N   0  0  0  0  0  0  0  0  0  0  0  0
   -1.0870   23.0820  -29.6550 C   0  0  0  0  0  0  0  0  0  0  0  0
   -1.1530   24.5070  -29.1960 C   0  0  0  0  0  0  0  0  0  0  0  0
   -0.1880   25.0170  -28.5700 O   0  0  0  0  0  0  0  0  0  0  0  0
   -2.3010   25.2570  -29.4210 O   0  0  0  0  0  0  0  0  0  0  0  0
   -3.5100   22.3160  -29.3070 C   0  0  0  0  0  0  0  0  0  0  0  0
   -4.3600   22.1360  -28.3930 O   0  0  0  0  0  0  0  0  0  0  0  0
   -4.0130   22.5650  -30.6810 C   0  0  0  0  0  0  0  0  0  0  0  0
   -3.2260   22.6210  -31.6610 O   0  0  0  0  0  0  0  0  0  0  0  0
   -5.4180   22.7530  -30.9110 N   0  0  0  0  0  0  0  0  0  0  0  0
   -6.1010   23.9300  -30.9060 C   0  0  0  0  0  0  0  0  0  0  0  0
   -5.5530   25.2430  -30.5090 C   0  0  0  0  0  0  0  0  0  0  0  0
   -4.2160   25.6220  -30.8410 N   0  0  0  0  0  0  0  0  0  0  0  0
   -6.2630   26.0300  -29.8270 O   0  0  0  0  0  0  0  0  0  0  0  0
   -7.4120   23.7380  -31.3390 C   0  0  0  0  0  0  0  0  0  0  0  0
   -7.5100   22.3920  -31.6110 C   0  0  0  0  0  0  0  0  0  0  0  0
   -8.5770   21.6560  -32.1150 C   0  0  0  0  0  0  0  0  0  0  0  0
   -8.3760   20.2880  -32.3620 C   0  0  0  0  0  0  0  0  0  0  0  0
   -7.1210   19.6790  -32.0990 C   0  0  0  0  0  0  0  0  0  0  0  0
   -6.8990   18.2250  -32.4300 C   0  0  0  0  0  0  0  0  0  0  0  0
   -5.7340   17.7630  -31.8430 F   0  0  0  0  0  0  0  0  0  0  0  0
   -6.8000   18.0810  -33.8010 F   0  0  0  0  0  0  0  0  0  0  0  0
   -7.9510   17.4530  -31.9700 F   0  0  0  0  0  0  0  0  0  0  0  0
   -6.0530   20.4690  -31.6140 C   0  0  0  0  0  0  0  0  0  0  0  0
   -6.2910   21.8220  -31.3520 C   0  0  0  0  0  0  0  0  0  0  0  0
   -1.9400   21.9218  -26.8965 H   0  0  0  0  0  0  0  0  0  0  0  0
   -2.2389   20.4569  -27.8922 H   0  0  0  0  0  0  0  0  0  0  0  0
   -0.6161   21.2272  -27.8922 H   0  0  0  0  0  0  0  0  0  0  0  0
   -0.0882   22.6779  -29.4334 H   0  0  0  0  0  0  0  0  0  0  0  0
   -1.2816   23.0513  -30.7372 H   0  0  0  0  0  0  0  0  0  0  0  0
   -3.8710   26.5790  -30.6080 H   0  0  0  0  0  0  0  0  0  0  0  0
   -3.5360   24.9270  -31.2190 H   0  0  0  0  0  0  0  0  0  0  0  0
   -8.1996   24.4990  -31.4414 H   0  0  0  0  0  0  0  0  0  0  0  0
   -9.5490   22.1309  -32.3142 H   0  0  0  0  0  0  0  0  0  0  0  0
   -9.2009   19.6814  -32.7640 H   0  0  0  0  0  0  0  0  0  0  0  0
   -5.0585   20.0296  -31.4468 H   0  0  0  0  0  0  0  0  0  0  0  0
  1  2  1  0
  2  3  1  0
  3  4  1  0
  4  5  2  0
  4  6  1  0
  2  7  1  0
  7  8  2  0
  7  9  1  0
  9 10  2  0
  9 11  1  0
 11 12  1  0
 12 13  1  0
 13 14  1  0
 13 15  2  0
 12 16  2  0
 16 17  1  0
 17 18  2  0
 18 19  1  0
 19 20  2  0
 20 21  1  0
 21 22  1  0
 21 23  1  0
 21 24  1  0
 20 25  1  0
 25 26  2  0
 26 11  1  0
 26 17  1  0
  1 27  1  0
  1 28  1  0
  1 29  1  0
  3 30  1  0
  3 31  1  0
 14 32  1  0
 14 33  1  0
 16 34  1  0
 18 35  1  0
 19 36  1  0
 25 37  1  0
M  CHG  1   6  -1
M  END
>  <UniqueID>  (41) 
41

>  <SMILES>  (41) 
CN(CC(=O)[O-])C(=O)C(=O)n1c(C(N)=O)cc2ccc(C(F)(F)F)cc21

>  <Energy>  (41) 
79.15065429536459

>  <Genealogy>  (41) 
CN(CC(=O)[O-])C(=O)C(=O)n1c(C(N)=O)cc2ccc(C(F)(F)F)cc21 (protonated)
CN(CC(=O)[O-])C(=O)C(=O)n1c(C(N)=O)cc2ccc(C(F)(F)F)cc21 (3D coordinates assigned)
CN(CC(=O)[O-])C(=O)C(=O)n1c(C(N)=O)cc2ccc(C(F)(F)F)cc21 (optimized conformer: 79.15065429536459 kcal/mol)

>  <smiles>  (41) 
CN(CC(=O)O)C(=O)C(=O)n1c(C(N)=O)cc2ccc(C(F)(F)F)cc21

>  <score_type>  (41) 
oracle

>  <origin>  (41) 
adg

>  <m_score__min__energy>  (41) 
-10.43

>  <m_primary>  (41) 
energy

$$$$
42:0
     RDKit          3D

 40 41  0  0  0  0  0  0  0  0999 V2000
   -3.8170   25.3010  -30.8060 N   0  0  0  0  0  0  0  0  0  0  0  0
   -5.2250   25.2790  -30.5860 C   0  0  0  0  0  0  0  0  0  0  0  0
   -5.7870   26.2880  -30.0840 O   0  0  0  0  0  0  0  0  0  0  0  0
   -6.0110   24.0860  -30.9630 C   0  0  0  0  0  0  0  0  0  0  0  0
   -7.4050   24.0460  -30.9830 C   0  0  0  0  0  0  0  0  0  0  0  0
   -7.7280   22.7590  -31.3520 C   0  0  0  0  0  0  0  0  0  0  0  0
   -8.9730   22.1680  -31.5520 C   0  0  0  0  0  0  0  0  0  0  0  0
   -9.0040   20.8270  -31.9700 C   0  0  0  0  0  0  0  0  0  0  0  0
   -7.8020   20.1100  -32.1930 C   0  0  0  0  0  0  0  0  0  0  0  0
   -7.8600   18.6830  -32.6570 C   0  0  0  0  0  0  0  0  0  0  0  0
   -7.7140   17.8320  -31.5750 F   0  0  0  0  0  0  0  0  0  0  0  0
   -6.8410   18.4470  -33.5620 F   0  0  0  0  0  0  0  0  0  0  0  0
   -6.5570   20.7410  -31.9720 C   0  0  0  0  0  0  0  0  0  0  0  0
   -6.5590   22.0710  -31.5400 C   0  0  0  0  0  0  0  0  0  0  0  0
   -5.4970   22.8710  -31.3000 N   0  0  0  0  0  0  0  0  0  0  0  0
   -4.1150   22.5090  -31.4370 C   0  0  0  0  0  0  0  0  0  0  0  0
   -3.5930   22.4580  -32.5820 O   0  0  0  0  0  0  0  0  0  0  0  0
   -3.3060   22.1930  -30.2540 C   0  0  0  0  0  0  0  0  0  0  0  0
   -3.2780   21.0130  -29.8090 O   0  0  0  0  0  0  0  0  0  0  0  0
   -2.5680   23.2080  -29.6320 O   0  0  0  0  0  0  0  0  0  0  0  0
   -1.1470   23.3100  -29.7180 C   0  0  0  0  0  0  0  0  0  0  0  0
   -0.6310   24.4860  -28.9440 C   0  0  0  0  0  0  0  0  0  0  0  0
    0.5790   24.5120  -28.5920 O   0  0  0  0  0  0  0  0  0  0  0  0
   -1.5150   25.5510  -28.5750 N   0  0  0  0  0  0  0  0  0  0  0  0
   -1.9610   25.7970  -27.2090 C   0  0  0  0  0  0  0  0  0  0  0  0
   -3.1230   24.8740  -26.8480 C   0  0  0  0  0  0  0  0  0  0  0  0
   -3.8640   24.5830  -28.0000 O   0  0  0  0  0  0  0  0  0  0  0  0
   -3.1470   25.2870  -30.0040 H   0  0  0  0  0  0  0  0  0  0  0  0
   -8.0990   24.8678  -30.7529 H   0  0  0  0  0  0  0  0  0  0  0  0
   -9.9024   22.7330  -31.3880 H   0  0  0  0  0  0  0  0  0  0  0  0
   -9.9719   20.3281  -32.1259 H   0  0  0  0  0  0  0  0  0  0  0  0
   -8.8321   18.5010  -33.1385 H   0  0  0  0  0  0  0  0  0  0  0  0
   -5.6127   20.2010  -32.1352 H   0  0  0  0  0  0  0  0  0  0  0  0
   -0.6978   22.3911  -29.3132 H   0  0  0  0  0  0  0  0  0  0  0  0
   -0.8749   23.4471  -30.7750 H   0  0  0  0  0  0  0  0  0  0  0  0
   -1.1255   25.6136  -26.5174 H   0  0  0  0  0  0  0  0  0  0  0  0
   -2.2993   26.8406  -27.1291 H   0  0  0  0  0  0  0  0  0  0  0  0
   -2.7300   23.9403  -26.4194 H   0  0  0  0  0  0  0  0  0  0  0  0
   -3.7710   25.3716  -26.1115 H   0  0  0  0  0  0  0  0  0  0  0  0
   -3.3980   25.0380  -28.7480 H   0  0  0  0  0  0  0  0  0  0  0  0
  1  2  1  0
  2  3  2  0
  2  4  1  0
  4  5  2  0
  5  6  1  0
  6  7  2  0
  7  8  1  0
  8  9  2  0
  9 10  1  0
 10 11  1  0
 10 12  1  0
  9 13  1  0
 13 14  2  0
 14 15  1  0
 15 16  1  0
 16 17  2  0
 16 18  1  0
 18 19  2  0
 18 20  1  0
 20 21  1  0
 21 22  1  0
 22 23  2  0
 22 24  1  0
 24 25  1  0
 25 26  1  0
 26 27  1  0
 15  4  1  0
 14  6  1  0
  1 28  1  0
  5 29  1  0
  7 30  1  0
  8 31  1  0
 10 32  1  0
 13 33  1  0
 21 34  1  0
 21 35  1  0
 25 36  1  0
 25 37  1  0
 26 38  1  0
 26 39  1  0
 27 40  1  0
M  CHG  2   1  -1  24  -1
M  END
>  <UniqueID>  (42) 
42

>  <SMILES>  (42) 
[NH-]C(=O)c1cc2ccc(C(F)F)cc2n1C(=O)C(=O)OCC(=O)[N-]CCO

>  <Energy>  (42) 
69.42605001708984

>  <Genealogy>  (42) 
[NH-]C(=O)c1cc2ccc(C(F)F)cc2n1C(=O)C(=O)OCC(=O)[N-]CCO (protonated)
[NH-]C(=O)c1cc2ccc(C(F)F)cc2n1C(=O)C(=O)OCC(=O)[N-]CCO (3D coordinates assigned)
[NH-]C(=O)c1cc2ccc(C(F)F)cc2n1C(=O)C(=O)OCC(=O)[N-]CCO (optimized conformer: 69.42605001708984 kcal/mol)

>  <smiles>  (42) 
NC(=O)c1cc2ccc(C(F)F)cc2n1C(=O)C(=O)OCC(=O)NCCO

>  <score_type>  (42) 
oracle

>  <origin>  (42) 
adg

>  <m_score__min__energy>  (42) 
-10.58

>  <m_primary>  (42) 
energy

$$$$
43:0
     RDKit          3D

 55 56  0  0  0  0  0  0  0  0999 V2000
   -5.5670   23.4890  -30.2550 C   0  0  0  0  0  0  0  0  0  0  0  0
   -4.1520   23.5890  -29.6640 C   0  0  2  0  0  0  0  0  0  0  0  0
   -3.5020   24.9130  -29.9620 C   0  0  0  0  0  0  0  0  0  0  0  0
   -3.9860   25.6700  -30.8440 O   0  0  0  0  0  0  0  0  0  0  0  0
   -2.3250   25.2870  -29.3220 O   0  0  0  0  0  0  0  0  0  0  0  0
   -3.3120   22.4660  -30.1240 N   0  0  0  0  0  0  0  0  0  0  0  0
   -3.0370   21.3650  -29.1970 C   0  0  0  0  0  0  0  0  0  0  0  0
   -3.0490   22.2430  -31.5230 C   0  0  0  0  0  0  0  0  0  0  0  0
   -4.0140   22.2170  -32.3350 O   0  0  0  0  0  0  0  0  0  0  0  0
   -1.6640   21.9480  -32.0230 C   0  0  0  0  0  0  0  0  0  0  0  0
   -1.6880   21.0720  -33.1930 N   0  0  0  0  0  0  0  0  0  0  0  0
   -2.0980   19.6910  -33.1800 C   0  0  0  0  0  0  0  0  0  0  0  0
   -1.1680   18.7080  -32.7640 C   0  0  0  0  0  0  0  0  0  0  0  0
   -1.5010   17.3450  -32.7830 C   0  0  0  0  0  0  0  0  0  0  0  0
   -2.7740   16.9940  -33.2180 C   0  0  0  0  0  0  0  0  0  0  0  0
   -3.3480   15.7500  -33.3440 C   0  0  0  0  0  0  0  0  0  0  0  0
   -4.6330   15.9840  -33.8330 C   0  0  0  0  0  0  0  0  0  0  0  0
   -5.5590   14.9060  -34.2450 C   0  0  0  0  0  0  0  0  0  0  0  0
   -6.9730   15.1260  -34.2650 N   0  0  0  0  0  0  0  0  0  0  0  0
   -5.1130   13.7640  -34.5330 O   0  0  0  0  0  0  0  0  0  0  0  0
   -4.8510   17.3220  -33.9890 N   0  0  0  0  0  0  0  0  0  0  0  0
   -6.0740   17.9660  -34.3880 C   0  0  0  0  0  0  0  0  0  0  0  0
   -6.1280   18.5700  -35.4940 O   0  0  0  0  0  0  0  0  0  0  0  0
   -7.2040   17.9030  -33.5550 O   0  0  0  0  0  0  0  0  0  0  0  0
   -7.3720   18.5810  -32.3000 C   0  0  0  0  0  0  0  0  0  0  0  0
   -6.5510   17.8090  -31.2540 C   0  0  0  0  0  0  0  0  0  0  0  0
   -8.8520   18.5780  -31.8670 C   0  0  0  0  0  0  0  0  0  0  0  0
   -6.8360   20.0210  -32.3950 C   0  0  0  0  0  0  0  0  0  0  0  0
   -3.6970   17.9270  -33.6170 C   0  0  0  0  0  0  0  0  0  0  0  0
   -3.3950   19.2960  -33.5870 C   0  0  0  0  0  0  0  0  0  0  0  0
   -6.3025   23.4370  -29.4387 H   0  0  0  0  0  0  0  0  0  0  0  0
   -5.7690   24.3751  -30.8747 H   0  0  0  0  0  0  0  0  0  0  0  0
   -5.6424   22.5833  -30.8747 H   0  0  0  0  0  0  0  0  0  0  0  0
   -4.2502   23.5231  -28.5704 H   0  0  0  0  0  0  0  0  0  0  0  0
   -3.1272   21.7260  -28.1619 H   0  0  0  0  0  0  0  0  0  0  0  0
   -3.7601   20.5536  -29.3666 H   0  0  0  0  0  0  0  0  0  0  0  0
   -2.0173   20.9889  -29.3666 H   0  0  0  0  0  0  0  0  0  0  0  0
   -1.1742   22.8944  -32.2959 H   0  0  0  0  0  0  0  0  0  0  0  0
   -1.1115   21.4356  -31.2216 H   0  0  0  0  0  0  0  0  0  0  0  0
   -1.4200   21.4950  -34.1100 H   0  0  0  0  0  0  0  0  0  0  0  0
   -0.1697   19.0172  -32.4208 H   0  0  0  0  0  0  0  0  0  0  0  0
   -0.7785   16.5793  -32.4642 H   0  0  0  0  0  0  0  0  0  0  0  0
   -2.8907   14.7776  -33.1090 H   0  0  0  0  0  0  0  0  0  0  0  0
   -7.6240   14.3400  -34.4880 H   0  0  0  0  0  0  0  0  0  0  0  0
   -7.3780   16.0680  -34.0680 H   0  0  0  0  0  0  0  0  0  0  0  0
   -6.8692   18.1082  -30.2444 H   0  0  0  0  0  0  0  0  0  0  0  0
   -6.7135   16.7289  -31.3846 H   0  0  0  0  0  0  0  0  0  0  0  0
   -5.4830   18.0376  -31.3846 H   0  0  0  0  0  0  0  0  0  0  0  0
   -8.9127   18.5779  -30.7687 H   0  0  0  0  0  0  0  0  0  0  0  0
   -9.3513   19.4751  -32.2617 H   0  0  0  0  0  0  0  0  0  0  0  0
   -9.3477   17.6788  -32.2617 H   0  0  0  0  0  0  0  0  0  0  0  0
   -6.6860   20.4240  -31.3825 H   0  0  0  0  0  0  0  0  0  0  0  0
   -5.8778   20.0207  -32.9352 H   0  0  0  0  0  0  0  0  0  0  0  0
   -7.5612   20.6473  -32.9352 H   0  0  0  0  0  0  0  0  0  0  0  0
   -4.1480   20.0451  -33.8729 H   0  0  0  0  0  0  0  0  0  0  0  0
  1  2  1  0
  2  3  1  0
  3  4  2  0
  3  5  1  0
  2  6  1  0
  6  7  1  0
  6  8  1  0
  8  9  2  0
  8 10  1  0
 10 11  1  0
 11 12  1  0
 12 13  2  0
 13 14  1  0
 14 15  2  0
 15 16  1  0
 16 17  2  0
 17 18  1  0
 18 19  1  0
 18 20  2  0
 17 21  1  0
 21 22  1  0
 22 23  2  0
 22 24  1  0
 24 25  1  0
 25 26  1  0
 25 27  1  0
 25 28  1  0
 21 29  1  0
 29 30  2  0
 30 12  1  0
 29 15  1  0
  1 31  1  0
  1 32  1  0
  1 33  1  0
  2 34  1  1
  7 35  1  0
  7 36  1  0
  7 37  1  0
 10 38  1  0
 10 39  1  0
 11 40  1  0
 13 41  1  0
 14 42  1  0
 16 43  1  0
 19 44  1  0
 19 45  1  0
 26 46  1  0
 26 47  1  0
 26 48  1  0
 27 49  1  0
 27 50  1  0
 27 51  1  0
 28 52  1  0
 28 53  1  0
 28 54  1  0
 30 55  1  0
M  CHG  1   5  -1
M  END
>  <UniqueID>  (43) 
43

>  <SMILES>  (43) 
C[C@H](C(=O)[O-])N(C)C(=O)CNc1ccc2cc(C(N)=O)n(C(=O)OC(C)(C)C)c2c1

>  <Energy>  (43) 
89.20541558184047

>  <Genealogy>  (43) 
CC(C(=O)[O-])N(C)C(=O)CNc1ccc2cc(C(N)=O)n(C(=O)OC(C)(C)C)c2c1 (protonated)
C[C@H](C(=O)[O-])N(C)C(=O)CNc1ccc2cc(C(N)=O)n(C(=O)OC(C)(C)C)c2c1 (chirality)
C[C@H](C(=O)[O-])N(C)C(=O)CNc1ccc2cc(C(N)=O)n(C(=O)OC(C)(C)C)c2c1 (3D coordinates assigned)
C[C@H](C(=O)[O-])N(C)C(=O)CNc1ccc2cc(C(N)=O)n(C(=O)OC(C)(C)C)c2c1 (optimized conformer: 89.20541558184047 kcal/mol)

>  <smiles>  (43) 
CC(C(=O)O)N(C)C(=O)CNc1ccc2cc(C(N)=O)n(C(=O)OC(C)(C)C)c2c1

>  <score_type>  (43) 
oracle

>  <origin>  (43) 
adg

>  <m_score__min__energy>  (43) 
-10.76

>  <m_primary>  (43) 
energy

$$$$
44:0
     RDKit          3D

 42 43  0  0  0  0  0  0  0  0999 V2000
   -1.4600   21.3340  -32.3350 C   0  0  0  0  0  0  0  0  0  0  0  0
   -2.3530   21.7320  -31.2420 N   0  0  0  0  0  0  0  0  0  0  0  0
   -1.9030   22.6070  -30.1820 C   0  0  0  0  0  0  0  0  0  0  0  0
   -0.6660   22.7730  -29.9910 O   0  0  0  0  0  0  0  0  0  0  0  0
   -2.8590   23.3560  -29.2940 C   0  0  0  0  0  0  0  0  0  0  0  0
   -2.8250   24.8190  -29.6070 C   0  0  0  0  0  0  0  0  0  0  0  0
   -3.5850   25.2950  -30.4900 O   0  0  0  0  0  0  0  0  0  0  0  0
   -1.9450   25.6590  -28.9360 O   0  0  0  0  0  0  0  0  0  0  0  0
   -3.7160   21.2680  -31.2420 C   0  0  0  0  0  0  0  0  0  0  0  0
   -4.0350   20.2830  -30.5220 O   0  0  0  0  0  0  0  0  0  0  0  0
   -4.7490   21.9240  -32.0700 C   0  0  0  0  0  0  0  0  0  0  0  0
   -4.4130   22.6780  -33.0220 O   0  0  0  0  0  0  0  0  0  0  0  0
   -6.1440   21.7230  -31.7930 N   0  0  0  0  0  0  0  0  0  0  0  0
   -7.0070   22.5980  -31.2070 C   0  0  0  0  0  0  0  0  0  0  0  0
   -6.6760   23.9910  -30.8230 C   0  0  0  0  0  0  0  0  0  0  0  0
   -5.7550   24.7680  -31.5930 N   0  0  0  0  0  0  0  0  0  0  0  0
   -7.1970   24.5050  -29.7980 O   0  0  0  0  0  0  0  0  0  0  0  0
   -8.2660   22.0150  -31.0650 C   0  0  0  0  0  0  0  0  0  0  0  0
   -8.1410   20.7430  -31.5800 C   0  0  0  0  0  0  0  0  0  0  0  0
   -9.0810   19.7210  -31.6880 C   0  0  0  0  0  0  0  0  0  0  0  0
   -8.6630   18.5010  -32.2460 C   0  0  0  0  0  0  0  0  0  0  0  0
   -7.3210   18.3190  -32.6640 C   0  0  0  0  0  0  0  0  0  0  0  0
   -6.8950   17.0210  -33.2890 C   0  0  0  0  0  0  0  0  0  0  0  0
   -5.2680   17.2120  -34.0790 P   0  0  0  0  0  0  0  0  0  0  0  0
   -4.2660   17.6960  -33.0560 O   0  0  0  0  0  0  0  0  0  0  0  0
   -4.7590   15.7220  -34.7020 O   0  0  0  0  0  0  0  0  0  0  0  0
   -5.3730   18.3410  -35.3350 O   0  0  0  0  0  0  0  0  0  0  0  0
   -6.3980   19.3810  -32.5430 C   0  0  0  0  0  0  0  0  0  0  0  0
   -6.8480   20.5910  -32.0060 C   0  0  0  0  0  0  0  0  0  0  0  0
   -0.5307   20.9198  -31.9169 H   0  0  0  0  0  0  0  0  0  0  0  0
   -1.9554   20.5715  -32.9540 H   0  0  0  0  0  0  0  0  0  0  0  0
   -1.2241   22.2122  -32.9540 H   0  0  0  0  0  0  0  0  0  0  0  0
   -3.8780   22.9745  -29.4553 H   0  0  0  0  0  0  0  0  0  0  0  0
   -2.5616   23.2086  -28.2453 H   0  0  0  0  0  0  0  0  0  0  0  0
   -5.4930   25.7280  -31.2800 H   0  0  0  0  0  0  0  0  0  0  0  0
   -5.3600   24.4150  -32.4920 H   0  0  0  0  0  0  0  0  0  0  0  0
   -9.1679   22.4735  -30.6333 H   0  0  0  0  0  0  0  0  0  0  0  0
  -10.1171   19.8642  -31.3475 H   0  0  0  0  0  0  0  0  0  0  0  0
   -9.3848   17.6787  -32.3596 H   0  0  0  0  0  0  0  0  0  0  0  0
   -6.8330   16.2457  -32.5111 H   0  0  0  0  0  0  0  0  0  0  0  0
   -7.6330   16.7288  -34.0506 H   0  0  0  0  0  0  0  0  0  0  0  0
   -5.3526   19.2595  -32.8628 H   0  0  0  0  0  0  0  0  0  0  0  0
  1  2  1  0
  2  3  1  0
  3  4  2  0
  3  5  1  0
  5  6  1  0
  6  7  2  0
  6  8  1  0
  2  9  1  0
  9 10  2  0
  9 11  1  0
 11 12  2  0
 11 13  1  0
 13 14  1  0
 14 15  1  0
 15 16  1  0
 15 17  2  0
 14 18  2  0
 18 19  1  0
 19 20  2  0
 20 21  1  0
 21 22  2  0
 22 23  1  0
 23 24  1  0
 24 25  2  0
 24 26  1  0
 24 27  1  0
 22 28  1  0
 28 29  2  0
 29 13  1  0
 29 19  1  0
  1 30  1  0
  1 31  1  0
  1 32  1  0
  5 33  1  0
  5 34  1  0
 16 35  1  0
 16 36  1  0
 18 37  1  0
 20 38  1  0
 21 39  1  0
 23 40  1  0
 23 41  1  0
 28 42  1  0
M  CHG  3   8  -1  26  -1  27  -1
M  END
>  <UniqueID>  (44) 
44

>  <SMILES>  (44) 
CN(C(=O)CC(=O)[O-])C(=O)C(=O)n1c(C(N)=O)cc2ccc(CP(=O)([O-])[O-])cc21

>  <Energy>  (44) 
79.89681446805575

>  <Genealogy>  (44) 
CN(C(=O)CC(=O)[O-])C(=O)C(=O)n1c(C(N)=O)cc2ccc(CP(=O)([O-])[O-])cc21 (protonated)
CN(C(=O)CC(=O)[O-])C(=O)C(=O)n1c(C(N)=O)cc2ccc(CP(=O)([O-])[O-])cc21 (3D coordinates assigned)
CN(C(=O)CC(=O)[O-])C(=O)C(=O)n1c(C(N)=O)cc2ccc(CP(=O)([O-])[O-])cc21 (optimized conformer: 79.89681446805575 kcal/mol)

>  <smiles>  (44) 
CN(C(=O)CC(=O)O)C(=O)C(=O)n1c(C(N)=O)cc2ccc(CP(=O)(O)O)cc21

>  <score_type>  (44) 
oracle

>  <origin>  (44) 
adg

>  <m_score__min__energy>  (44) 
-12.69

>  <m_primary>  (44) 
energy

$$$$
45:0
     RDKit          3D

 33 34  0  0  0  0  0  0  0  0999 V2000
   -5.5420   24.3900  -29.2620 N   0  0  0  0  0  0  0  0  0  0  0  0
   -6.6960   24.2590  -30.0940 C   0  0  0  0  0  0  0  0  0  0  0  0
   -7.4930   25.2280  -30.1990 O   0  0  0  0  0  0  0  0  0  0  0  0
   -7.0040   22.9880  -30.7790 C   0  0  0  0  0  0  0  0  0  0  0  0
   -8.2940   22.6070  -31.1360 C   0  0  0  0  0  0  0  0  0  0  0  0
   -8.1640   21.3490  -31.6740 C   0  0  0  0  0  0  0  0  0  0  0  0
   -9.1330   20.5020  -32.2060 C   0  0  0  0  0  0  0  0  0  0  0  0
   -8.7150   19.2680  -32.7270 C   0  0  0  0  0  0  0  0  0  0  0  0
   -7.3450   18.9060  -32.7160 C   0  0  0  0  0  0  0  0  0  0  0  0
   -6.9160   17.5880  -33.2950 C   0  0  0  0  0  0  0  0  0  0  0  0
   -6.1860   16.8820  -32.3560 F   0  0  0  0  0  0  0  0  0  0  0  0
   -6.1330   17.8020  -34.4150 F   0  0  0  0  0  0  0  0  0  0  0  0
   -6.3900   19.7920  -32.1700 C   0  0  0  0  0  0  0  0  0  0  0  0
   -6.8350   21.0110  -31.6410 C   0  0  0  0  0  0  0  0  0  0  0  0
   -6.1060   22.0130  -31.0980 N   0  0  0  0  0  0  0  0  0  0  0  0
   -4.6720   22.0830  -31.0020 C   0  0  0  0  0  0  0  0  0  0  0  0
   -3.9980   22.5460  -31.9630 O   0  0  0  0  0  0  0  0  0  0  0  0
   -4.0250   21.6290  -29.8490 O   0  0  0  0  0  0  0  0  0  0  0  0
   -2.8500   22.2410  -29.3180 C   0  0  0  0  0  0  0  0  0  0  0  0
   -2.3760   23.2680  -30.1610 O   0  0  0  0  0  0  0  0  0  0  0  0
   -2.7660   24.7900  -29.4900 P   0  0  0  0  0  0  0  0  0  0  0  0
   -3.3600   24.5940  -28.1140 O   0  0  0  0  0  0  0  0  0  0  0  0
   -3.8620   25.6440  -30.4570 O   0  0  0  0  0  0  0  0  0  0  0  0
   -1.3470   25.6990  -29.3460 O   0  0  0  0  0  0  0  0  0  0  0  0
   -5.3190   25.3060  -28.8140 H   0  0  0  0  0  0  0  0  0  0  0  0
   -4.9530   23.5610  -29.0250 H   0  0  0  0  0  0  0  0  0  0  0  0
   -9.2198   23.1884  -31.0137 H   0  0  0  0  0  0  0  0  0  0  0  0
  -10.1941   20.7916  -32.2174 H   0  0  0  0  0  0  0  0  0  0  0  0
   -9.4581   18.5748  -33.1481 H   0  0  0  0  0  0  0  0  0  0  0  0
   -7.8094   17.0113  -33.5765 H   0  0  0  0  0  0  0  0  0  0  0  0
   -5.3214   19.5311  -32.1603 H   0  0  0  0  0  0  0  0  0  0  0  0
   -3.0839   22.6677  -28.3315 H   0  0  0  0  0  0  0  0  0  0  0  0
   -2.0672   21.4725  -29.2366 H   0  0  0  0  0  0  0  0  0  0  0  0
  1  2  1  0
  2  3  2  0
  2  4  1  0
  4  5  2  0
  5  6  1  0
  6  7  2  0
  7  8  1  0
  8  9  2  0
  9 10  1  0
 10 11  1  0
 10 12  1  0
  9 13  1  0
 13 14  2  0
 14 15  1  0
 15 16  1  0
 16 17  2  0
 16 18  1  0
 18 19  1  0
 19 20  1  0
 20 21  1  0
 21 22  2  0
 21 23  1  0
 21 24  1  0
 15  4  1  0
 14  6  1  0
  1 25  1  0
  1 26  1  0
  5 27  1  0
  7 28  1  0
  8 29  1  0
 10 30  1  0
 13 31  1  0
 19 32  1  0
 19 33  1  0
M  CHG  2  23  -1  24  -1
M  END
>  <UniqueID>  (45) 
45

>  <SMILES>  (45) 
NC(=O)c1cc2ccc(C(F)F)cc2n1C(=O)OCOP(=O)([O-])[O-]

>  <Energy>  (45) 
70.49831710437768

>  <Genealogy>  (45) 
NC(=O)c1cc2ccc(C(F)F)cc2n1C(=O)OCOP(=O)([O-])[O-] (protonated)
NC(=O)c1cc2ccc(C(F)F)cc2n1C(=O)OCOP(=O)([O-])[O-] (3D coordinates assigned)
NC(=O)c1cc2ccc(C(F)F)cc2n1C(=O)OCOP(=O)([O-])[O-] (optimized conformer: 70.49831710437768 kcal/mol)

>  <smiles>  (45) 
NC(=O)c1cc2ccc(C(F)F)cc2n1C(=O)OCOP(=O)(O)O

>  <score_type>  (45) 
oracle

>  <origin>  (45) 
adg

>  <m_score__min__energy>  (45) 
-12.02

>  <m_primary>  (45) 
energy

$$$$
46:0
     RDKit          3D

 46 47  0  0  0  0  0  0  0  0999 V2000
   -2.5290   24.6150  -28.0480 C   0  0  0  0  0  0  0  0  0  0  0  0
   -1.4940   24.6460  -29.0050 O   0  0  0  0  0  0  0  0  0  0  0  0
   -0.2880   24.2150  -28.4080 C   0  0  0  0  0  0  0  0  0  0  0  0
   -0.1260   22.6990  -28.5910 C   0  0  1  0  0  0  0  0  0  0  0  0
   -0.7300   21.9300  -27.4110 C   0  0  0  0  0  0  0  0  0  0  0  0
   -0.7480   22.2730  -29.8490 N   0  0  0  0  0  0  0  0  0  0  0  0
   -0.5560   20.9620  -30.3950 C   0  0  0  0  0  0  0  0  0  0  0  0
    0.1500   20.1140  -29.7840 O   0  0  0  0  0  0  0  0  0  0  0  0
   -1.1820   20.6170  -31.6340 N   0  0  0  0  0  0  0  0  0  0  0  0
   -1.8470   21.5990  -32.4810 C   0  0  0  0  0  0  0  0  0  0  0  0
   -3.2320   21.6630  -32.1480 O   0  0  0  0  0  0  0  0  0  0  0  0
   -3.7710   22.6680  -31.3370 C   0  0  0  0  0  0  0  0  0  0  0  0
   -3.0260   23.3400  -30.5730 O   0  0  0  0  0  0  0  0  0  0  0  0
   -5.1850   22.9140  -31.3530 N   0  0  0  0  0  0  0  0  0  0  0  0
   -5.8530   24.0110  -30.8980 C   0  0  0  0  0  0  0  0  0  0  0  0
   -5.2350   25.2690  -30.4300 C   0  0  0  0  0  0  0  0  0  0  0  0
   -3.9240   25.6420  -30.8450 N   0  0  0  0  0  0  0  0  0  0  0  0
   -5.8910   26.0460  -29.6860 O   0  0  0  0  0  0  0  0  0  0  0  0
   -7.2290   23.8170  -30.9870 C   0  0  0  0  0  0  0  0  0  0  0  0
   -7.3870   22.5560  -31.5160 C   0  0  0  0  0  0  0  0  0  0  0  0
   -8.5460   21.8400  -31.8040 C   0  0  0  0  0  0  0  0  0  0  0  0
   -8.4080   20.5380  -32.3150 C   0  0  0  0  0  0  0  0  0  0  0  0
   -7.1230   19.9730  -32.5100 C   0  0  0  0  0  0  0  0  0  0  0  0
   -6.9860   18.5910  -33.0740 C   0  0  0  0  0  0  0  0  0  0  0  0
   -5.9700   20.7340  -32.2230 C   0  0  0  0  0  0  0  0  0  0  0  0
   -6.1370   22.0330  -31.7290 C   0  0  0  0  0  0  0  0  0  0  0  0
   -2.0946   24.6280  -27.0375 H   0  0  0  0  0  0  0  0  0  0  0  0
   -3.1768   25.4941  -28.1799 H   0  0  0  0  0  0  0  0  0  0  0  0
   -3.1231   23.6987  -28.1799 H   0  0  0  0  0  0  0  0  0  0  0  0
    0.5589   24.7321  -28.8826 H   0  0  0  0  0  0  0  0  0  0  0  0
   -0.3122   24.4492  -27.3335 H   0  0  0  0  0  0  0  0  0  0  0  0
    0.9497   22.4719  -28.6276 H   0  0  0  0  0  0  0  0  0  0  0  0
   -0.3813   22.3740  -26.4669 H   0  0  0  0  0  0  0  0  0  0  0  0
   -1.8275   21.9868  -27.4595 H   0  0  0  0  0  0  0  0  0  0  0  0
   -0.4148   20.8772  -27.4595 H   0  0  0  0  0  0  0  0  0  0  0  0
   -1.3870   22.9270  -30.3590 H   0  0  0  0  0  0  0  0  0  0  0  0
   -1.3878   22.5864  -32.3256 H   0  0  0  0  0  0  0  0  0  0  0  0
   -1.7395   21.3028  -33.5349 H   0  0  0  0  0  0  0  0  0  0  0  0
   -3.0810   25.2980  -30.3340 H   0  0  0  0  0  0  0  0  0  0  0  0
   -8.0217   24.5220  -30.6962 H   0  0  0  0  0  0  0  0  0  0  0  0
   -9.5400   22.2803  -31.6366 H   0  0  0  0  0  0  0  0  0  0  0  0
   -9.3049   19.9526  -32.5657 H   0  0  0  0  0  0  0  0  0  0  0  0
   -6.9140   17.8646  -32.2511 H   0  0  0  0  0  0  0  0  0  0  0  0
   -7.8655   18.3585  -33.6924 H   0  0  0  0  0  0  0  0  0  0  0  0
   -6.0780   18.5357  -33.6924 H   0  0  0  0  0  0  0  0  0  0  0  0
   -4.9649   20.3168  -32.3835 H   0  0  0  0  0  0  0  0  0  0  0  0
  1  2  1  0
  2  3  1  0
  3  4  1  0
  4  5  1  0
  4  6  1  0
  6  7  1  0
  7  8  2  0
  7  9  1  0
  9 10  1  0
 10 11  1  0
 11 12  1  0
 12 13  2  0
 12 14  1  0
 14 15  1  0
 15 16  1  0
 16 17  1  0
 16 18  2  0
 15 19  2  0
 19 20  1  0
 20 21  2  0
 21 22  1  0
 22 23  2  0
 23 24  1  0
 23 25  1  0
 25 26  2  0
 26 14  1  0
 26 20  1  0
  1 27  1  0
  1 28  1  0
  1 29  1  0
  3 30  1  0
  3 31  1  0
  4 32  1  6
  5 33  1  0
  5 34  1  0
  5 35  1  0
  6 36  1  0
 10 37  1  0
 10 38  1  0
 17 39  1  0
 19 40  1  0
 21 41  1  0
 22 42  1  0
 24 43  1  0
 24 44  1  0
 24 45  1  0
 25 46  1  0
M  CHG  2   9  -1  17  -1
M  END
>  <UniqueID>  (46) 
46

>  <SMILES>  (46) 
COC[C@@H](C)NC(=O)[N-]COC(=O)n1c(C([NH-])=O)cc2ccc(C)cc21

>  <Energy>  (46) 
75.00583435077623

>  <Genealogy>  (46) 
COCC(C)NC(=O)[N-]COC(=O)n1c(C([NH-])=O)cc2ccc(C)cc21 (protonated)
COC[C@@H](C)NC(=O)[N-]COC(=O)n1c(C([NH-])=O)cc2ccc(C)cc21 (chirality)
COC[C@@H](C)NC(=O)[N-]COC(=O)n1c(C([NH-])=O)cc2ccc(C)cc21 (3D coordinates assigned)
COC[C@@H](C)NC(=O)[N-]COC(=O)n1c(C([NH-])=O)cc2ccc(C)cc21 (optimized conformer: 75.00583435077623 kcal/mol)

>  <smiles>  (46) 
COCC(C)NC(=O)NCOC(=O)n1c(C(N)=O)cc2ccc(C)cc21

>  <score_type>  (46) 
oracle

>  <origin>  (46) 
adg

>  <m_score__min__energy>  (46) 
-11.220000000000001

>  <m_primary>  (46) 
energy

$$$$
47:0
     RDKit          3D

 37 38  0  0  0  0  0  0  0  0999 V2000
   -0.9280   23.6370  -29.1300 C   0  0  0  0  0  0  0  0  0  0  0  0
   -2.3310   23.9750  -29.3810 N   0  0  0  0  0  0  0  0  0  0  0  0
   -3.1510   22.7670  -29.5330 C   0  0  0  0  0  0  0  0  0  0  0  0
   -3.7600   22.7170  -30.9050 C   0  0  0  0  0  0  0  0  0  0  0  0
   -3.0070   22.6420  -31.9130 O   0  0  0  0  0  0  0  0  0  0  0  0
   -5.1790   22.8330  -31.0830 N   0  0  0  0  0  0  0  0  0  0  0  0
   -5.9600   23.9360  -30.9080 C   0  0  0  0  0  0  0  0  0  0  0  0
   -5.5150   25.2300  -30.3540 C   0  0  0  0  0  0  0  0  0  0  0  0
   -4.1730   25.6670  -30.5580 N   0  0  0  0  0  0  0  0  0  0  0  0
   -6.3160   25.9710  -29.7250 O   0  0  0  0  0  0  0  0  0  0  0  0
   -7.2820   23.6540  -31.2510 C   0  0  0  0  0  0  0  0  0  0  0  0
   -7.2850   22.3320  -31.6330 C   0  0  0  0  0  0  0  0  0  0  0  0
   -8.3290   21.5290  -32.0770 C   0  0  0  0  0  0  0  0  0  0  0  0
   -8.0380   20.1990  -32.4230 C   0  0  0  0  0  0  0  0  0  0  0  0
   -6.7140   19.6850  -32.3260 C   0  0  0  0  0  0  0  0  0  0  0  0
   -6.4210   18.3140  -32.6990 N   0  0  0  0  0  0  0  0  0  0  0  0
   -6.1200   17.9670  -34.0940 C   0  0  0  0  0  0  0  0  0  0  0  0
   -6.4180   17.2500  -31.6870 C   0  0  0  0  0  0  0  0  0  0  0  0
   -5.6830   20.5430  -31.8630 C   0  0  0  0  0  0  0  0  0  0  0  0
   -6.0060   21.8600  -31.5190 C   0  0  0  0  0  0  0  0  0  0  0  0
   -0.7496   23.5940  -28.0454 H   0  0  0  0  0  0  0  0  0  0  0  0
   -0.7008   22.6584  -29.5780 H   0  0  0  0  0  0  0  0  0  0  0  0
   -0.2801   24.4047  -29.5780 H   0  0  0  0  0  0  0  0  0  0  0  0
   -2.3660   24.4990  -30.2870 H   0  0  0  0  0  0  0  0  0  0  0  0
   -2.5192   21.8789  -29.3843 H   0  0  0  0  0  0  0  0  0  0  0  0
   -3.9574   22.7866  -28.7851 H   0  0  0  0  0  0  0  0  0  0  0  0
   -3.4850   25.6710  -29.7740 H   0  0  0  0  0  0  0  0  0  0  0  0
   -8.1398   24.3420  -31.2223 H   0  0  0  0  0  0  0  0  0  0  0  0
   -9.3529   21.9233  -32.1551 H   0  0  0  0  0  0  0  0  0  0  0  0
   -8.8477   19.5430  -32.7752 H   0  0  0  0  0  0  0  0  0  0  0  0
   -5.3994   17.1363  -34.1179 H   0  0  0  0  0  0  0  0  0  0  0  0
   -7.0460   17.6639  -34.6045 H   0  0  0  0  0  0  0  0  0  0  0  0
   -5.6891   18.8409  -34.6045 H   0  0  0  0  0  0  0  0  0  0  0  0
   -6.4193   17.6991  -30.6828 H   0  0  0  0  0  0  0  0  0  0  0  0
   -7.3144   16.6244  -31.8100 H   0  0  0  0  0  0  0  0  0  0  0  0
   -5.5181   16.6295  -31.8100 H   0  0  0  0  0  0  0  0  0  0  0  0
   -4.6485   20.1792  -31.7761 H   0  0  0  0  0  0  0  0  0  0  0  0
  1  2  1  0
  2  3  1  0
  3  4  1  0
  4  5  2  0
  4  6  1  0
  6  7  1  0
  7  8  1  0
  8  9  1  0
  8 10  2  0
  7 11  2  0
 11 12  1  0
 12 13  2  0
 13 14  1  0
 14 15  2  0
 15 16  1  0
 16 17  1  0
 16 18  1  0
 15 19  1  0
 19 20  2  0
 20  6  1  0
 20 12  1  0
  1 21  1  0
  1 22  1  0
  1 23  1  0
  2 24  1  0
  3 25  1  0
  3 26  1  0
  9 27  1  0
 11 28  1  0
 13 29  1  0
 14 30  1  0
 17 31  1  0
 17 32  1  0
 17 33  1  0
 18 34  1  0
 18 35  1  0
 18 36  1  0
 19 37  1  0
M  CHG  1   9  -1
M  END
>  <UniqueID>  (47) 
47

>  <SMILES>  (47) 
CNCC(=O)n1c(C([NH-])=O)cc2ccc(N(C)C)cc21

>  <Energy>  (47) 
75.15928035249377

>  <Genealogy>  (47) 
CNCC(=O)n1c(C([NH-])=O)cc2ccc(N(C)C)cc21 (protonated)
CNCC(=O)n1c(C([NH-])=O)cc2ccc(N(C)C)cc21 (3D coordinates assigned)
CNCC(=O)n1c(C([NH-])=O)cc2ccc(N(C)C)cc21 (optimized conformer: 75.15928035249377 kcal/mol)

>  <smiles>  (47) 
CNCC(=O)n1c(C(N)=O)cc2ccc(N(C)C)cc21

>  <score_type>  (47) 
oracle

>  <origin>  (47) 
adg

>  <m_score__min__energy>  (47) 
-9.1400000000000006

>  <m_primary>  (47) 
energy

$$$$
48:0
     RDKit          3D

 45 46  0  0  0  0  0  0  0  0999 V2000
   -3.3580   20.9410  -30.8120 C   0  0  0  0  0  0  0  0  0  0  0  0
   -4.0020   21.8730  -31.7480 N   0  0  0  0  0  0  0  0  0  0  0  0
   -4.2120   21.4500  -33.1440 C   0  0  0  0  0  0  0  0  0  0  0  0
   -4.0670   19.9610  -33.2870 C   0  0  0  0  0  0  0  0  0  0  0  0
   -2.9360   19.4750  -33.5520 O   0  0  0  0  0  0  0  0  0  0  0  0
   -5.1760   19.0870  -33.0190 N   0  0  0  0  0  0  0  0  0  0  0  0
   -5.3010   17.7770  -33.3730 C   0  0  0  0  0  0  0  0  0  0  0  0
   -4.2490   16.9410  -33.9830 C   0  0  0  0  0  0  0  0  0  0  0  0
   -3.4870   17.4030  -35.0970 N   0  0  0  0  0  0  0  0  0  0  0  0
   -3.9880   15.8150  -33.4820 O   0  0  0  0  0  0  0  0  0  0  0  0
   -6.6090   17.3390  -33.1800 C   0  0  0  0  0  0  0  0  0  0  0  0
   -7.2860   18.4280  -32.6780 C   0  0  0  0  0  0  0  0  0  0  0  0
   -8.6220   18.5620  -32.3140 C   0  0  0  0  0  0  0  0  0  0  0  0
   -9.0530   19.8150  -31.8440 C   0  0  0  0  0  0  0  0  0  0  0  0
   -8.1520   20.9100  -31.7640 C   0  0  0  0  0  0  0  0  0  0  0  0
   -8.6040   22.2370  -31.2070 C   0  0  0  0  0  0  0  0  0  0  0  0
   -9.9550   22.2120  -30.9010 F   0  0  0  0  0  0  0  0  0  0  0  0
   -7.8870   22.5170  -30.0590 F   0  0  0  0  0  0  0  0  0  0  0  0
   -8.3880   23.2440  -32.1330 F   0  0  0  0  0  0  0  0  0  0  0  0
   -6.7990   20.7250  -32.1260 C   0  0  0  0  0  0  0  0  0  0  0  0
   -6.4000   19.4680  -32.5950 C   0  0  0  0  0  0  0  0  0  0  0  0
   -4.4810   23.1390  -31.2230 C   0  0  0  0  0  0  0  0  0  0  0  0
   -5.7140   23.4010  -31.2940 O   0  0  0  0  0  0  0  0  0  0  0  0
   -3.6070   24.1620  -30.6050 C   0  0  0  0  0  0  0  0  0  0  0  0
   -3.9000   25.3850  -30.6380 O   0  0  0  0  0  0  0  0  0  0  0  0
   -2.3970   23.7440  -29.9600 N   0  0  0  0  0  0  0  0  0  0  0  0
   -2.2060   23.7530  -28.5130 C   0  0  0  0  0  0  0  0  0  0  0  0
   -1.3580   24.9530  -28.0920 C   0  0  0  0  0  0  0  0  0  0  0  0
   -1.6030   26.0410  -28.9410 O   0  0  0  0  0  0  0  0  0  0  0  0
   -3.5728   21.2519  -29.7790 H   0  0  0  0  0  0  0  0  0  0  0  0
   -3.7485   19.9261  -30.9782 H   0  0  0  0  0  0  0  0  0  0  0  0
   -2.2706   20.9473  -30.9782 H   0  0  0  0  0  0  0  0  0  0  0  0
   -5.2237   21.7442  -33.4600 H   0  0  0  0  0  0  0  0  0  0  0  0
   -3.4528   21.9366  -33.7739 H   0  0  0  0  0  0  0  0  0  0  0  0
   -3.4840   18.4120  -35.3650 H   0  0  0  0  0  0  0  0  0  0  0  0
   -2.8080   16.7640  -35.5660 H   0  0  0  0  0  0  0  0  0  0  0  0
   -7.0146   16.3372  -33.3848 H   0  0  0  0  0  0  0  0  0  0  0  0
   -9.3190   17.7145  -32.3914 H   0  0  0  0  0  0  0  0  0  0  0  0
  -10.1001   19.9488  -31.5347 H   0  0  0  0  0  0  0  0  0  0  0  0
   -6.0759   21.5496  -32.0413 H   0  0  0  0  0  0  0  0  0  0  0  0
   -3.1870   23.8119  -28.0188 H   0  0  0  0  0  0  0  0  0  0  0  0
   -1.6869   22.8294  -28.2171 H   0  0  0  0  0  0  0  0  0  0  0  0
   -1.6128   25.2335  -27.0593 H   0  0  0  0  0  0  0  0  0  0  0  0
   -0.2942   24.6806  -28.1558 H   0  0  0  0  0  0  0  0  0  0  0  0
   -1.9910   25.6690  -29.7770 H   0  0  0  0  0  0  0  0  0  0  0  0
  1  2  1  0
  2  3  1  0
  3  4  1  0
  4  5  2  0
  4  6  1  0
  6  7  1  0
  7  8  1  0
  8  9  1  0
  8 10  2  0
  7 11  2  0
 11 12  1  0
 12 13  2  0
 13 14  1  0
 14 15  2  0
 15 16  1  0
 16 17  1  0
 16 18  1  0
 16 19  1  0
 15 20  1  0
 20 21  2  0
  2 22  1  0
 22 23  2  0
 22 24  1  0
 24 25  2  0
 24 26  1  0
 26 27  1  0
 27 28  1  0
 28 29  1  0
 21  6  1  0
 21 12  1  0
  1 30  1  0
  1 31  1  0
  1 32  1  0
  3 33  1  0
  3 34  1  0
  9 35  1  0
  9 36  1  0
 11 37  1  0
 13 38  1  0
 14 39  1  0
 20 40  1  0
 27 41  1  0
 27 42  1  0
 28 43  1  0
 28 44  1  0
 29 45  1  0
M  CHG  1  26  -1
M  END
>  <UniqueID>  (48) 
48

>  <SMILES>  (48) 
CN(CC(=O)n1c(C(N)=O)cc2ccc(C(F)(F)F)cc21)C(=O)C(=O)[N-]CCO

>  <Energy>  (48) 
81.85129827389352

>  <Genealogy>  (48) 
CN(CC(=O)n1c(C(N)=O)cc2ccc(C(F)(F)F)cc21)C(=O)C(=O)[N-]CCO (protonated)
CN(CC(=O)n1c(C(N)=O)cc2ccc(C(F)(F)F)cc21)C(=O)C(=O)[N-]CCO (3D coordinates assigned)
CN(CC(=O)n1c(C(N)=O)cc2ccc(C(F)(F)F)cc21)C(=O)C(=O)[N-]CCO (optimized conformer: 81.85129827389352 kcal/mol)

>  <smiles>  (48) 
CN(CC(=O)n1c(C(N)=O)cc2ccc(C(F)(F)F)cc21)C(=O)C(=O)NCCO

>  <score_type>  (48) 
oracle

>  <origin>  (48) 
adg

>  <m_score__min__energy>  (48) 
-9.9700000000000006

>  <m_primary>  (48) 
energy

$$$$
49:0
     RDKit          3D

 46 47  0  0  0  0  0  0  0  0999 V2000
   -2.2220   21.1160  -27.3720 C   0  0  0  0  0  0  0  0  0  0  0  0
   -1.6080   22.1900  -28.1590 N   0  0  0  0  0  0  0  0  0  0  0  0
   -1.6280   23.5690  -27.6410 C   0  0  0  0  0  0  0  0  0  0  0  0
   -2.7400   24.3900  -28.2950 C   0  0  0  0  0  0  0  0  0  0  0  0
   -2.2710   25.0080  -29.4610 O   0  0  0  0  0  0  0  0  0  0  0  0
   -1.0430   21.8530  -29.4470 C   0  0  0  0  0  0  0  0  0  0  0  0
   -0.3710   22.7180  -30.0730 O   0  0  0  0  0  0  0  0  0  0  0  0
   -1.2750   20.5180  -30.1100 C   0  0  0  0  0  0  0  0  0  0  0  0
   -2.6280   20.4730  -30.8340 C   0  0  0  0  0  0  0  0  0  0  0  0
   -3.5750   21.3810  -30.2680 O   0  0  0  0  0  0  0  0  0  0  0  0
   -4.0610   22.5190  -30.9170 C   0  0  0  0  0  0  0  0  0  0  0  0
   -3.2470   23.3600  -31.3810 O   0  0  0  0  0  0  0  0  0  0  0  0
   -5.4860   22.7370  -31.0360 N   0  0  0  0  0  0  0  0  0  0  0  0
   -6.1640   23.9080  -30.8220 C   0  0  0  0  0  0  0  0  0  0  0  0
   -5.6000   25.1670  -30.2960 C   0  0  0  0  0  0  0  0  0  0  0  0
   -4.2700   25.5560  -30.6390 N   0  0  0  0  0  0  0  0  0  0  0  0
   -6.3050   25.9350  -29.5900 O   0  0  0  0  0  0  0  0  0  0  0  0
   -7.5070   23.7720  -31.1470 C   0  0  0  0  0  0  0  0  0  0  0  0
   -7.6540   22.4720  -31.5570 C   0  0  0  0  0  0  0  0  0  0  0  0
   -8.7940   21.8080  -32.0010 C   0  0  0  0  0  0  0  0  0  0  0  0
   -8.6680   20.4660  -32.3860 C   0  0  0  0  0  0  0  0  0  0  0  0
   -7.4160   19.8120  -32.3100 C   0  0  0  0  0  0  0  0  0  0  0  0
   -7.2880   18.3880  -32.7630 C   0  0  0  0  0  0  0  0  0  0  0  0
   -6.9420   17.5900  -31.6880 F   0  0  0  0  0  0  0  0  0  0  0  0
   -6.2750   20.5190  -31.8700 C   0  0  0  0  0  0  0  0  0  0  0  0
   -6.4260   21.8630  -31.4860 C   0  0  0  0  0  0  0  0  0  0  0  0
   -2.0993   21.3307  -26.3002 H   0  0  0  0  0  0  0  0  0  0  0  0
   -3.2934   21.0515  -27.6127 H   0  0  0  0  0  0  0  0  0  0  0  0
   -1.7340   20.1600  -27.6127 H   0  0  0  0  0  0  0  0  0  0  0  0
   -1.7944   23.5415  -26.5540 H   0  0  0  0  0  0  0  0  0  0  0  0
   -0.6628   24.0424  -27.8741 H   0  0  0  0  0  0  0  0  0  0  0  0
   -3.5789   23.7256  -28.5495 H   0  0  0  0  0  0  0  0  0  0  0  0
   -3.0720   25.1658  -27.5894 H   0  0  0  0  0  0  0  0  0  0  0  0
   -1.8610   24.2880  -30.0090 H   0  0  0  0  0  0  0  0  0  0  0  0
   -0.4730   20.3385  -30.8411 H   0  0  0  0  0  0  0  0  0  0  0  0
   -1.2768   19.7426  -29.3298 H   0  0  0  0  0  0  0  0  0  0  0  0
   -2.4730   20.7364  -31.8907 H   0  0  0  0  0  0  0  0  0  0  0  0
   -3.0326   19.4555  -30.7294 H   0  0  0  0  0  0  0  0  0  0  0  0
   -3.6620   24.9310  -31.2140 H   0  0  0  0  0  0  0  0  0  0  0  0
   -3.8770   26.4540  -30.2850 H   0  0  0  0  0  0  0  0  0  0  0  0
   -8.2881   24.5442  -31.0880 H   0  0  0  0  0  0  0  0  0  0  0  0
   -9.7656   22.3215  -32.0484 H   0  0  0  0  0  0  0  0  0  0  0  0
   -9.5493   19.9174  -32.7499 H   0  0  0  0  0  0  0  0  0  0  0  0
   -8.2483   18.0478  -33.1777 H   0  0  0  0  0  0  0  0  0  0  0  0
   -6.5086   18.3186  -33.5361 H   0  0  0  0  0  0  0  0  0  0  0  0
   -5.2909   20.0292  -31.8288 H   0  0  0  0  0  0  0  0  0  0  0  0
  1  2  1  0
  2  3  1  0
  3  4  1  0
  4  5  1  0
  2  6  1  0
  6  7  2  0
  6  8  1  0
  8  9  1  0
  9 10  1  0
 10 11  1  0
 11 12  2  0
 11 13  1  0
 13 14  1  0
 14 15  1  0
 15 16  1  0
 15 17  2  0
 14 18  2  0
 18 19  1  0
 19 20  2  0
 20 21  1  0
 21 22  2  0
 22 23  1  0
 23 24  1  0
 22 25  1  0
 25 26  2  0
 26 13  1  0
 26 19  1  0
  1 27  1  0
  1 28  1  0
  1 29  1  0
  3 30  1  0
  3 31  1  0
  4 32  1  0
  4 33  1  0
  5 34  1  0
  8 35  1  0
  8 36  1  0
  9 37  1  0
  9 38  1  0
 16 39  1  0
 16 40  1  0
 18 41  1  0
 20 42  1  0
 21 43  1  0
 23 44  1  0
 23 45  1  0
 25 46  1  0
M  END
>  <UniqueID>  (49) 
49

>  <SMILES>  (49) 
CN(CCO)C(=O)CCOC(=O)n1c(C(N)=O)cc2ccc(CF)cc21

>  <Energy>  (49) 
79.85531907828342

>  <Genealogy>  (49) 
CN(CCO)C(=O)CCOC(=O)n1c(C(N)=O)cc2ccc(CF)cc21 (3D coordinates assigned)
CN(CCO)C(=O)CCOC(=O)n1c(C(N)=O)cc2ccc(CF)cc21 (optimized conformer: 79.85531907828342 kcal/mol)

>  <smiles>  (49) 
CN(CCO)C(=O)CCOC(=O)n1c(C(N)=O)cc2ccc(CF)cc21

>  <score_type>  (49) 
oracle

>  <origin>  (49) 
adg

>  <m_score__min__energy>  (49) 
-8.2300000000000004

>  <m_primary>  (49) 
energy

$$$$
50:0
     RDKit          3D

 43 44  0  0  0  0  0  0  0  0999 V2000
   -3.6820   15.5480  -32.8440 C   0  0  0  0  0  0  0  0  0  0  0  0
   -4.9880   15.2950  -33.4600 N   0  0  0  0  0  0  0  0  0  0  0  0
   -5.3180   13.9510  -33.9450 C   0  0  0  0  0  0  0  0  0  0  0  0
   -5.9570   16.3530  -33.6240 C   0  0  0  0  0  0  0  0  0  0  0  0
   -6.9460   16.1790  -34.3890 O   0  0  0  0  0  0  0  0  0  0  0  0
   -5.8280   17.6780  -32.9160 C   0  0  0  0  0  0  0  0  0  0  0  0
   -6.9590   18.5500  -33.2440 N   0  0  0  0  0  0  0  0  0  0  0  0
   -7.1450   19.8710  -32.6990 C   0  0  0  0  0  0  0  0  0  0  0  0
   -8.4610   20.3490  -32.4850 C   0  0  0  0  0  0  0  0  0  0  0  0
   -8.6860   21.6280  -31.9460 C   0  0  0  0  0  0  0  0  0  0  0  0
   -7.5780   22.4090  -31.6310 C   0  0  0  0  0  0  0  0  0  0  0  0
   -7.5120   23.6580  -31.0580 C   0  0  0  0  0  0  0  0  0  0  0  0
   -6.1530   23.9360  -30.9460 C   0  0  0  0  0  0  0  0  0  0  0  0
   -5.6270   25.2120  -30.4300 C   0  0  0  0  0  0  0  0  0  0  0  0
   -4.2470   25.5470  -30.5650 N   0  0  0  0  0  0  0  0  0  0  0  0
   -6.4180   26.0470  -29.9160 O   0  0  0  0  0  0  0  0  0  0  0  0
   -5.4060   22.8990  -31.4190 N   0  0  0  0  0  0  0  0  0  0  0  0
   -3.9770   22.7480  -31.3310 C   0  0  0  0  0  0  0  0  0  0  0  0
   -3.3200   22.3420  -32.3260 O   0  0  0  0  0  0  0  0  0  0  0  0
   -3.3220   23.0390  -30.1280 O   0  0  0  0  0  0  0  0  0  0  0  0
   -1.9020   23.0360  -29.9840 C   0  0  0  0  0  0  0  0  0  0  0  0
   -1.4140   24.2950  -29.3390 C   0  0  0  0  0  0  0  0  0  0  0  0
   -2.1670   25.3010  -29.2690 O   0  0  0  0  0  0  0  0  0  0  0  0
   -0.1150   24.3760  -28.8490 O   0  0  0  0  0  0  0  0  0  0  0  0
   -6.2960   21.9720  -31.8410 C   0  0  0  0  0  0  0  0  0  0  0  0
   -6.0440   20.6990  -32.3660 C   0  0  0  0  0  0  0  0  0  0  0  0
   -3.7832   15.5284  -31.7488 H   0  0  0  0  0  0  0  0  0  0  0  0
   -2.9706   14.7710  -33.1605 H   0  0  0  0  0  0  0  0  0  0  0  0
   -3.3122   16.5345  -33.1605 H   0  0  0  0  0  0  0  0  0  0  0  0
   -5.4823   13.2818  -33.0875 H   0  0  0  0  0  0  0  0  0  0  0  0
   -6.2319   13.9957  -34.5556 H   0  0  0  0  0  0  0  0  0  0  0  0
   -4.4874   13.5673  -34.5556 H   0  0  0  0  0  0  0  0  0  0  0  0
   -5.8066   17.5069  -31.8296 H   0  0  0  0  0  0  0  0  0  0  0  0
   -4.8977   18.1657  -33.2427 H   0  0  0  0  0  0  0  0  0  0  0  0
   -7.6360   18.2050  -33.9580 H   0  0  0  0  0  0  0  0  0  0  0  0
   -9.3187   19.7109  -32.7440 H   0  0  0  0  0  0  0  0  0  0  0  0
   -9.7074   22.0002  -31.7783 H   0  0  0  0  0  0  0  0  0  0  0  0
   -8.3526   24.2990  -30.7538 H   0  0  0  0  0  0  0  0  0  0  0  0
   -3.8700   26.4130  -30.1200 H   0  0  0  0  0  0  0  0  0  0  0  0
   -3.6070   24.9510  -31.1350 H   0  0  0  0  0  0  0  0  0  0  0  0
   -1.6076   22.1781  -29.3617 H   0  0  0  0  0  0  0  0  0  0  0  0
   -1.4534   22.9649  -30.9859 H   0  0  0  0  0  0  0  0  0  0  0  0
   -5.0124   20.3484  -32.5170 H   0  0  0  0  0  0  0  0  0  0  0  0
  1  2  1  0
  2  3  1  0
  2  4  1  0
  4  5  2  0
  4  6  1  0
  6  7  1  0
  7  8  1  0
  8  9  2  0
  9 10  1  0
 10 11  2  0
 11 12  1  0
 12 13  2  0
 13 14  1  0
 14 15  1  0
 14 16  2  0
 13 17  1  0
 17 18  1  0
 18 19  2  0
 18 20  1  0
 20 21  1  0
 21 22  1  0
 22 23  2  0
 22 24  1  0
 17 25  1  0
 25 26  2  0
 26  8  1  0
 25 11  1  0
  1 27  1  0
  1 28  1  0
  1 29  1  0
  3 30  1  0
  3 31  1  0
  3 32  1  0
  6 33  1  0
  6 34  1  0
  7 35  1  0
  9 36  1  0
 10 37  1  0
 12 38  1  0
 15 39  1  0
 15 40  1  0
 21 41  1  0
 21 42  1  0
 26 43  1  0
M  CHG  1  24  -1
M  END
>  <UniqueID>  (50) 
50

>  <SMILES>  (50) 
CN(C)C(=O)CNc1ccc2cc(C(N)=O)n(C(=O)OCC(=O)[O-])c2c1

>  <Energy>  (50) 
76.80405519754554

>  <Genealogy>  (50) 
CN(C)C(=O)CNc1ccc2cc(C(N)=O)n(C(=O)OCC(=O)[O-])c2c1 (protonated)
CN(C)C(=O)CNc1ccc2cc(C(N)=O)n(C(=O)OCC(=O)[O-])c2c1 (3D coordinates assigned)
CN(C)C(=O)CNc1ccc2cc(C(N)=O)n(C(=O)OCC(=O)[O-])c2c1 (optimized conformer: 76.80405519754554 kcal/mol)

>  <smiles>  (50) 
CN(C)C(=O)CNc1ccc2cc(C(N)=O)n(C(=O)OCC(=O)O)c2c1

>  <score_type>  (50) 
oracle

>  <origin>  (50) 
adg

>  <m_score__min__energy>  (50) 
-10.4

>  <m_primary>  (50) 
energy

$$$$
51:0
     RDKit          3D

 45 46  0  0  0  0  0  0  0  0999 V2000
   -4.2360   24.5700  -27.0230 C   0  0  0  0  0  0  0  0  0  0  0  0
   -3.1020   23.9270  -27.6960 N   0  0  0  0  0  0  0  0  0  0  0  0
   -1.7300   24.2710  -27.2990 C   0  0  0  0  0  0  0  0  0  0  0  0
   -1.0260   24.9540  -28.4280 C   0  0  0  0  0  0  0  0  0  0  0  0
   -1.5230   25.9830  -28.9570 O   0  0  0  0  0  0  0  0  0  0  0  0
    0.1960   24.4710  -28.8780 O   0  0  0  0  0  0  0  0  0  0  0  0
   -3.3240   22.9760  -28.7640 C   0  0  0  0  0  0  0  0  0  0  0  0
   -4.0610   21.9720  -28.5570 O   0  0  0  0  0  0  0  0  0  0  0  0
   -2.6820   23.1660  -30.1190 C   0  0  0  0  0  0  0  0  0  0  0  0
   -3.5620   22.6970  -31.2440 C   0  0  0  0  0  0  0  0  0  0  0  0
   -3.0380   22.2790  -32.3110 O   0  0  0  0  0  0  0  0  0  0  0  0
   -4.9890   22.8100  -31.1490 N   0  0  0  0  0  0  0  0  0  0  0  0
   -5.7230   23.9120  -30.8330 C   0  0  0  0  0  0  0  0  0  0  0  0
   -5.1780   25.2140  -30.3940 C   0  0  0  0  0  0  0  0  0  0  0  0
   -3.8980   25.6400  -30.8540 N   0  0  0  0  0  0  0  0  0  0  0  0
   -5.8430   25.9660  -29.6340 O   0  0  0  0  0  0  0  0  0  0  0  0
   -7.0860   23.6270  -30.9110 C   0  0  0  0  0  0  0  0  0  0  0  0
   -7.1600   22.3020  -31.2830 C   0  0  0  0  0  0  0  0  0  0  0  0
   -8.2680   21.4960  -31.5150 C   0  0  0  0  0  0  0  0  0  0  0  0
   -8.0450   20.1650  -31.9080 C   0  0  0  0  0  0  0  0  0  0  0  0
   -6.7240   19.6590  -32.0640 C   0  0  0  0  0  0  0  0  0  0  0  0
   -6.5070   18.2870  -32.4750 N   0  0  0  0  0  0  0  0  0  0  0  0
   -6.3570   17.2310  -31.4680 C   0  0  0  0  0  0  0  0  0  0  0  0
   -6.3700   17.9320  -33.8940 C   0  0  0  0  0  0  0  0  0  0  0  0
   -6.4940   16.4810  -34.0690 C   0  0  0  0  0  0  0  0  0  0  0  0
   -6.5900   15.3360  -34.2060 N   0  0  0  0  0  0  0  0  0  0  0  0
   -5.6260   20.5170  -31.8070 C   0  0  0  0  0  0  0  0  0  0  0  0
   -5.8810   21.8340  -31.4160 C   0  0  0  0  0  0  0  0  0  0  0  0
   -4.1056   24.4960  -25.9333 H   0  0  0  0  0  0  0  0  0  0  0  0
   -4.2833   25.6293  -27.3156 H   0  0  0  0  0  0  0  0  0  0  0  0
   -5.1694   24.0667  -27.3156 H   0  0  0  0  0  0  0  0  0  0  0  0
   -1.7604   24.9433  -26.4289 H   0  0  0  0  0  0  0  0  0  0  0  0
   -1.1876   23.3497  -27.0403 H   0  0  0  0  0  0  0  0  0  0  0  0
   -2.4679   24.2356  -30.2610 H   0  0  0  0  0  0  0  0  0  0  0  0
   -1.7623   22.5630  -30.1405 H   0  0  0  0  0  0  0  0  0  0  0  0
   -3.0240   25.3070  -30.3910 H   0  0  0  0  0  0  0  0  0  0  0  0
   -7.9234   24.3134  -30.7170 H   0  0  0  0  0  0  0  0  0  0  0  0
   -9.2888   21.8878  -31.3947 H   0  0  0  0  0  0  0  0  0  0  0  0
   -8.9041   19.5048  -32.0978 H   0  0  0  0  0  0  0  0  0  0  0  0
   -6.4196   17.6719  -30.4622 H   0  0  0  0  0  0  0  0  0  0  0  0
   -7.1587   16.4883  -31.5933 H   0  0  0  0  0  0  0  0  0  0  0  0
   -5.3802   16.7409  -31.5933 H   0  0  0  0  0  0  0  0  0  0  0  0
   -7.1584   18.4361  -34.4721 H   0  0  0  0  0  0  0  0  0  0  0  0
   -5.3795   18.2524  -34.2494 H   0  0  0  0  0  0  0  0  0  0  0  0
   -4.5933   20.1534  -31.9132 H   0  0  0  0  0  0  0  0  0  0  0  0
  1  2  1  0
  2  3  1  0
  3  4  1  0
  4  5  2  0
  4  6  1  0
  2  7  1  0
  7  8  2  0
  7  9  1  0
  9 10  1  0
 10 11  2  0
 10 12  1  0
 12 13  1  0
 13 14  1  0
 14 15  1  0
 14 16  2  0
 13 17  2  0
 17 18  1  0
 18 19  2  0
 19 20  1  0
 20 21  2  0
 21 22  1  0
 22 23  1  0
 22 24  1  0
 24 25  1  0
 25 26  3  0
 21 27  1  0
 27 28  2  0
 28 12  1  0
 28 18  1  0
  1 29  1  0
  1 30  1  0
  1 31  1  0
  3 32  1  0
  3 33  1  0
  9 34  1  0
  9 35  1  0
 15 36  1  0
 17 37  1  0
 19 38  1  0
 20 39  1  0
 23 40  1  0
 23 41  1  0
 23 42  1  0
 24 43  1  0
 24 44  1  0
 27 45  1  0
M  CHG  2   6  -1  15  -1
M  END
>  <UniqueID>  (51) 
51

>  <SMILES>  (51) 
CN(CC(=O)[O-])C(=O)CC(=O)n1c(C([NH-])=O)cc2ccc(N(C)CC#N)cc21

>  <Energy>  (51) 
81.86144162475667

>  <Genealogy>  (51) 
CN(CC(=O)[O-])C(=O)CC(=O)n1c(C([NH-])=O)cc2ccc(N(C)CC#N)cc21 (protonated)
CN(CC(=O)[O-])C(=O)CC(=O)n1c(C([NH-])=O)cc2ccc(N(C)CC#N)cc21 (3D coordinates assigned)
CN(CC(=O)[O-])C(=O)CC(=O)n1c(C([NH-])=O)cc2ccc(N(C)CC#N)cc21 (optimized conformer: 81.86144162475667 kcal/mol)

>  <smiles>  (51) 
CN(CC(=O)O)C(=O)CC(=O)n1c(C(N)=O)cc2ccc(N(C)CC#N)cc21

>  <score_type>  (51) 
oracle

>  <origin>  (51) 
adg

>  <m_score__min__energy>  (51) 
-12.77

>  <m_primary>  (51) 
energy

$$$$
52:0
     RDKit          3D

 41 42  0  0  0  0  0  0  0  0999 V2000
   -3.6570   25.2860  -30.6270 N   0  0  0  0  0  0  0  0  0  0  0  0
   -5.0760   25.2360  -30.5030 C   0  0  0  0  0  0  0  0  0  0  0  0
   -5.6970   26.2600  -30.1110 O   0  0  0  0  0  0  0  0  0  0  0  0
   -5.8300   24.0220  -30.8780 C   0  0  0  0  0  0  0  0  0  0  0  0
   -7.2210   23.9770  -30.9530 C   0  0  0  0  0  0  0  0  0  0  0  0
   -7.5230   22.7160  -31.4150 C   0  0  0  0  0  0  0  0  0  0  0  0
   -8.7580   22.1280  -31.6670 C   0  0  0  0  0  0  0  0  0  0  0  0
   -8.7730   20.7950  -32.1130 C   0  0  0  0  0  0  0  0  0  0  0  0
   -7.5620   20.0820  -32.2970 C   0  0  0  0  0  0  0  0  0  0  0  0
   -7.5900   18.6400  -32.7250 C   0  0  0  0  0  0  0  0  0  0  0  0
   -6.3590   18.3030  -33.5690 C   0  0  0  0  0  0  0  0  0  0  0  0
   -6.2080   19.2380  -34.6010 O   0  0  0  0  0  0  0  0  0  0  0  0
   -6.3280   20.7090  -32.0180 C   0  0  0  0  0  0  0  0  0  0  0  0
   -6.3410   22.0450  -31.5970 C   0  0  0  0  0  0  0  0  0  0  0  0
   -5.2920   22.8300  -31.2670 N   0  0  0  0  0  0  0  0  0  0  0  0
   -3.9100   22.4390  -31.2680 C   0  0  0  0  0  0  0  0  0  0  0  0
   -3.2370   22.5160  -32.3330 O   0  0  0  0  0  0  0  0  0  0  0  0
   -3.3170   22.0160  -30.0730 O   0  0  0  0  0  0  0  0  0  0  0  0
   -2.3250   22.7130  -29.3710 C   0  0  0  0  0  0  0  0  0  0  0  0
   -1.3250   23.2040  -29.9620 O   0  0  0  0  0  0  0  0  0  0  0  0
   -2.4920   22.9200  -27.9000 C   0  0  0  0  0  0  0  0  0  0  0  0
   -2.7490   24.4010  -27.5990 C   0  0  0  0  0  0  0  0  0  0  0  0
   -1.5280   25.2660  -27.9260 C   0  0  0  0  0  0  0  0  0  0  0  0
   -1.5500   25.6750  -29.2680 O   0  0  0  0  0  0  0  0  0  0  0  0
   -3.0650   24.4690  -30.3550 H   0  0  0  0  0  0  0  0  0  0  0  0
   -7.9282   24.7797  -30.6970 H   0  0  0  0  0  0  0  0  0  0  0  0
   -9.6934   22.6883  -31.5219 H   0  0  0  0  0  0  0  0  0  0  0  0
   -9.7334   20.3007  -32.3211 H   0  0  0  0  0  0  0  0  0  0  0  0
   -7.6022   17.9982  -31.8317 H   0  0  0  0  0  0  0  0  0  0  0  0
   -8.4921   18.4680  -33.3305 H   0  0  0  0  0  0  0  0  0  0  0  0
   -5.4643   18.3205  -32.9293 H   0  0  0  0  0  0  0  0  0  0  0  0
   -6.4882   17.3026  -34.0078 H   0  0  0  0  0  0  0  0  0  0  0  0
   -7.1050   19.3600  -35.0080 H   0  0  0  0  0  0  0  0  0  0  0  0
   -5.3801   20.1620  -32.1285 H   0  0  0  0  0  0  0  0  0  0  0  0
   -3.3449   22.3236  -27.5438 H   0  0  0  0  0  0  0  0  0  0  0  0
   -1.5719   22.6041  -27.3866 H   0  0  0  0  0  0  0  0  0  0  0  0
   -3.6015   24.7448  -28.2032 H   0  0  0  0  0  0  0  0  0  0  0  0
   -2.9617   24.5005  -26.5244 H   0  0  0  0  0  0  0  0  0  0  0  0
   -1.5324   26.1551  -27.2783 H   0  0  0  0  0  0  0  0  0  0  0  0
   -0.6190   24.6707  -27.7545 H   0  0  0  0  0  0  0  0  0  0  0  0
   -1.7070   24.8570  -29.8090 H   0  0  0  0  0  0  0  0  0  0  0  0
  1  2  1  0
  2  3  2  0
  2  4  1  0
  4  5  2  0
  5  6  1  0
  6  7  2  0
  7  8  1  0
  8  9  2  0
  9 10  1  0
 10 11  1  0
 11 12  1  0
  9 13  1  0
 13 14  2  0
 14 15  1  0
 15 16  1  0
 16 17  2  0
 16 18  1  0
 18 19  1  0
 19 20  2  0
 19 21  1  0
 21 22  1  0
 22 23  1  0
 23 24  1  0
 15  4  1  0
 14  6  1  0
  1 25  1  0
  5 26  1  0
  7 27  1  0
  8 28  1  0
 10 29  1  0
 10 30  1  0
 11 31  1  0
 11 32  1  0
 12 33  1  0
 13 34  1  0
 21 35  1  0
 21 36  1  0
 22 37  1  0
 22 38  1  0
 23 39  1  0
 23 40  1  0
 24 41  1  0
M  CHG  1   1  -1
M  END
>  <UniqueID>  (52) 
52

>  <SMILES>  (52) 
[NH-]C(=O)c1cc2ccc(CCO)cc2n1C(=O)OC(=O)CCCO

>  <Energy>  (52) 
71.93645137448674

>  <Genealogy>  (52) 
[NH-]C(=O)c1cc2ccc(CCO)cc2n1C(=O)OC(=O)CCCO (protonated)
[NH-]C(=O)c1cc2ccc(CCO)cc2n1C(=O)OC(=O)CCCO (3D coordinates assigned)
[NH-]C(=O)c1cc2ccc(CCO)cc2n1C(=O)OC(=O)CCCO (optimized conformer: 71.93645137448674 kcal/mol)

>  <smiles>  (52) 
NC(=O)c1cc2ccc(CCO)cc2n1C(=O)OC(=O)CCCO

>  <score_type>  (52) 
oracle

>  <origin>  (52) 
adg

>  <m_score__min__energy>  (52) 
-10.91

>  <m_primary>  (52) 
energy

$$$$
53:0
     RDKit          3D

 33 34  0  0  0  0  0  0  0  0999 V2000
   -6.1690   25.6370  -29.4490 C   0  0  0  0  0  0  0  0  0  0  0  0
   -6.7660   24.8300  -30.1170 C   0  0  0  0  0  0  0  0  0  0  0  0
   -7.4890   23.8470  -30.9300 C   0  0  0  0  0  0  0  0  0  0  0  0
   -6.5760   23.0920  -31.7210 O   0  0  0  0  0  0  0  0  0  0  0  0
   -6.3680   21.7170  -31.5530 C   0  0  0  0  0  0  0  0  0  0  0  0
   -7.1870   21.0240  -30.8910 O   0  0  0  0  0  0  0  0  0  0  0  0
   -5.2010   21.1000  -32.1180 N   0  0  0  0  0  0  0  0  0  0  0  0
   -5.1410   20.2420  -33.1760 C   0  0  0  0  0  0  0  0  0  0  0  0
   -6.2960   19.6220  -33.8570 C   0  0  0  0  0  0  0  0  0  0  0  0
   -6.1110   18.7500  -34.9690 N   0  0  0  0  0  0  0  0  0  0  0  0
   -7.4650   19.9030  -33.4810 O   0  0  0  0  0  0  0  0  0  0  0  0
   -3.8160   19.9550  -33.4970 C   0  0  0  0  0  0  0  0  0  0  0  0
   -3.0590   20.6620  -32.5920 C   0  0  0  0  0  0  0  0  0  0  0  0
   -1.6770   20.7620  -32.4650 C   0  0  0  0  0  0  0  0  0  0  0  0
   -1.1660   21.6030  -31.4620 C   0  0  0  0  0  0  0  0  0  0  0  0
   -2.0390   22.3230  -30.6100 C   0  0  0  0  0  0  0  0  0  0  0  0
   -1.4820   23.2570  -29.5740 C   0  0  0  0  0  0  0  0  0  0  0  0
   -2.6020   24.6700  -29.3320 P   0  0  0  0  0  0  0  0  0  0  0  0
   -3.5520   24.3810  -28.1920 O   0  0  0  0  0  0  0  0  0  0  0  0
   -1.6920   26.0470  -28.9670 O   0  0  0  0  0  0  0  0  0  0  0  0
   -3.4880   24.9430  -30.7460 O   0  0  0  0  0  0  0  0  0  0  0  0
   -3.4370   22.2040  -30.7740 C   0  0  0  0  0  0  0  0  0  0  0  0
   -3.9180   21.3460  -31.7710 C   0  0  0  0  0  0  0  0  0  0  0  0
   -5.6244   26.3732  -28.8396 H   0  0  0  0  0  0  0  0  0  0  0  0
   -8.0442   23.1664  -30.2678 H   0  0  0  0  0  0  0  0  0  0  0  0
   -8.1860   24.3768  -31.5959 H   0  0  0  0  0  0  0  0  0  0  0  0
   -6.6290   18.9020  -35.8630 H   0  0  0  0  0  0  0  0  0  0  0  0
   -3.4522   19.3014  -34.3035 H   0  0  0  0  0  0  0  0  0  0  0  0
   -1.0048   20.1997  -33.1297 H   0  0  0  0  0  0  0  0  0  0  0  0
   -0.0777   21.7032  -31.3373 H   0  0  0  0  0  0  0  0  0  0  0  0
   -1.3678   22.7172  -28.6224 H   0  0  0  0  0  0  0  0  0  0  0  0
   -0.5047   23.6289  -29.9154 H   0  0  0  0  0  0  0  0  0  0  0  0
   -4.1301   22.7707  -30.1350 H   0  0  0  0  0  0  0  0  0  0  0  0
  1  2  3  0
  2  3  1  0
  3  4  1  0
  4  5  1  0
  5  6  2  0
  5  7  1  0
  7  8  1  0
  8  9  1  0
  9 10  1  0
  9 11  2  0
  8 12  2  0
 12 13  1  0
 13 14  2  0
 14 15  1  0
 15 16  2  0
 16 17  1  0
 17 18  1  0
 18 19  2  0
 18 20  1  0
 18 21  1  0
 16 22  1  0
 22 23  2  0
 23  7  1  0
 23 13  1  0
  1 24  1  0
  3 25  1  0
  3 26  1  0
 10 27  1  0
 12 28  1  0
 14 29  1  0
 15 30  1  0
 17 31  1  0
 17 32  1  0
 22 33  1  0
M  CHG  3  10  -1  20  -1  21  -1
M  END
>  <UniqueID>  (53) 
53

>  <SMILES>  (53) 
C#CCOC(=O)n1c(C([NH-])=O)cc2ccc(CP(=O)([O-])[O-])cc21

>  <Energy>  (53) 
63.89144920558446

>  <Genealogy>  (53) 
C#CCOC(=O)n1c(C([NH-])=O)cc2ccc(CP(=O)([O-])[O-])cc21 (protonated)
C#CCOC(=O)n1c(C([NH-])=O)cc2ccc(CP(=O)([O-])[O-])cc21 (3D coordinates assigned)
C#CCOC(=O)n1c(C([NH-])=O)cc2ccc(CP(=O)([O-])[O-])cc21 (optimized conformer: 63.89144920558446 kcal/mol)

>  <smiles>  (53) 
C#CCOC(=O)n1c(C(N)=O)cc2ccc(CP(=O)(O)O)cc21

>  <score_type>  (53) 
oracle

>  <origin>  (53) 
adg

>  <m_score__min__energy>  (53) 
-11.199999999999999

>  <m_primary>  (53) 
energy

$$$$
54:0
     RDKit          3D

 41 43  0  0  0  0  0  0  0  0999 V2000
   -0.2910   23.4220  -29.2880 N   0  0  0  0  0  0  0  0  0  0  0  0
   -0.6120   22.0300  -29.3460 C   0  0  0  0  0  0  0  0  0  0  0  0
    0.0660   21.1950  -28.6880 O   0  0  0  0  0  0  0  0  0  0  0  0
   -1.7440   21.5640  -30.1590 C   0  0  0  0  0  0  0  0  0  0  0  0
   -1.6110   20.9380  -31.3950 C   0  0  0  0  0  0  0  0  0  0  0  0
   -2.8980   20.6170  -31.7730 C   0  0  0  0  0  0  0  0  0  0  0  0
   -3.3680   20.0030  -32.9300 C   0  0  0  0  0  0  0  0  0  0  0  0
   -4.7590   19.8610  -33.0840 C   0  0  0  0  0  0  0  0  0  0  0  0
   -5.6500   20.3420  -32.0890 C   0  0  0  0  0  0  0  0  0  0  0  0
   -7.0700   20.2580  -32.2970 N   0  0  0  0  0  0  0  0  0  0  0  0
   -7.8860   21.4760  -32.3340 C   0  0  0  0  0  0  0  0  0  0  0  0
   -9.2890   21.1630  -31.8100 C   0  0  0  0  0  0  0  0  0  0  0  0
   -9.8510   20.0800  -32.5300 O   0  0  0  0  0  0  0  0  0  0  0  0
   -9.1180   18.8970  -32.2630 C   0  0  0  0  0  0  0  0  0  0  0  0
   -7.6740   19.0090  -32.7680 C   0  0  0  0  0  0  0  0  0  0  0  0
   -5.1350   20.9440  -30.9190 C   0  0  0  0  0  0  0  0  0  0  0  0
   -3.7460   21.0510  -30.7850 C   0  0  0  0  0  0  0  0  0  0  0  0
   -3.0500   21.6250  -29.7830 N   0  0  0  0  0  0  0  0  0  0  0  0
   -3.6030   22.2710  -28.6250 C   0  0  0  0  0  0  0  0  0  0  0  0
   -3.5950   21.6700  -27.5170 O   0  0  0  0  0  0  0  0  0  0  0  0
   -4.2470   23.6230  -28.7240 C   0  0  0  0  0  0  0  0  0  0  0  0
   -3.4200   24.6390  -29.9860 P   0  0  0  0  0  0  0  0  0  0  0  0
   -3.0960   23.7860  -31.1910 O   0  0  0  0  0  0  0  0  0  0  0  0
   -1.9990   25.3020  -29.3580 O   0  0  0  0  0  0  0  0  0  0  0  0
   -4.4540   25.8930  -30.4550 O   0  0  0  0  0  0  0  0  0  0  0  0
   -0.8360   24.1120  -29.8490 H   0  0  0  0  0  0  0  0  0  0  0  0
    0.5220   23.7620  -28.7250 H   0  0  0  0  0  0  0  0  0  0  0  0
   -0.6816   20.7419  -31.9497 H   0  0  0  0  0  0  0  0  0  0  0  0
   -2.6727   19.6396  -33.7010 H   0  0  0  0  0  0  0  0  0  0  0  0
   -5.1602   19.3725  -33.9842 H   0  0  0  0  0  0  0  0  0  0  0  0
   -7.4220   22.2480  -31.7026 H   0  0  0  0  0  0  0  0  0  0  0  0
   -7.9533   21.8423  -33.3690 H   0  0  0  0  0  0  0  0  0  0  0  0
   -9.2278   20.8977  -30.7442 H   0  0  0  0  0  0  0  0  0  0  0  0
   -9.9266   22.0498  -31.9409 H   0  0  0  0  0  0  0  0  0  0  0  0
   -9.1051   18.7211  -31.1772 H   0  0  0  0  0  0  0  0  0  0  0  0
   -9.6049   18.0616  -32.7873 H   0  0  0  0  0  0  0  0  0  0  0  0
   -7.0895   18.1573  -32.3899 H   0  0  0  0  0  0  0  0  0  0  0  0
   -7.6764   19.0033  -33.8680 H   0  0  0  0  0  0  0  0  0  0  0  0
   -5.8082   21.3188  -30.1340 H   0  0  0  0  0  0  0  0  0  0  0  0
   -5.3055   23.4996  -28.9967 H   0  0  0  0  0  0  0  0  0  0  0  0
   -4.1597   24.1281  -27.7507 H   0  0  0  0  0  0  0  0  0  0  0  0
  1  2  1  0
  2  3  2  0
  2  4  1  0
  4  5  2  0
  5  6  1  0
  6  7  2  0
  7  8  1  0
  8  9  2  0
  9 10  1  0
 10 11  1  0
 11 12  1  0
 12 13  1  0
 13 14  1  0
 14 15  1  0
  9 16  1  0
 16 17  2  0
 17 18  1  0
 18 19  1  0
 19 20  2  0
 19 21  1  0
 21 22  1  0
 22 23  2  0
 22 24  1  0
 22 25  1  0
 18  4  1  0
 17  6  1  0
 15 10  1  0
  1 26  1  0
  1 27  1  0
  5 28  1  0
  7 29  1  0
  8 30  1  0
 11 31  1  0
 11 32  1  0
 12 33  1  0
 12 34  1  0
 14 35  1  0
 14 36  1  0
 15 37  1  0
 15 38  1  0
 16 39  1  0
 21 40  1  0
 21 41  1  0
M  CHG  2  24  -1  25  -1
M  END
>  <UniqueID>  (54) 
54

>  <SMILES>  (54) 
NC(=O)c1cc2ccc(N3CCOCC3)cc2n1C(=O)CP(=O)([O-])[O-]

>  <Energy>  (54) 
86.60112087316483

>  <Genealogy>  (54) 
NC(=O)c1cc2ccc(N3CCOCC3)cc2n1C(=O)CP(=O)([O-])[O-] (protonated)
NC(=O)c1cc2ccc(N3CCOCC3)cc2n1C(=O)CP(=O)([O-])[O-] (3D coordinates assigned)
NC(=O)c1cc2ccc(N3CCOCC3)cc2n1C(=O)CP(=O)([O-])[O-] (nonaromatic ring conformer: 86.60112087316483 kcal/mol)

>  <smiles>  (54) 
NC(=O)c1cc2ccc(N3CCOCC3)cc2n1C(=O)CP(=O)(O)O

>  <score_type>  (54) 
oracle

>  <origin>  (54) 
adg

>  <m_score__min__energy>  (54) 
-12.67

>  <m_primary>  (54) 
energy

$$$$
56:0
     RDKit          3D

 39 41  0  0  0  0  0  0  0  0999 V2000
   -3.9020   25.6370  -30.8410 N   0  0  0  0  0  0  0  0  0  0  0  0
   -5.2530   25.2420  -30.6230 C   0  0  0  0  0  0  0  0  0  0  0  0
   -6.0470   26.0490  -30.0710 O   0  0  0  0  0  0  0  0  0  0  0  0
   -5.7340   23.8960  -31.0130 C   0  0  0  0  0  0  0  0  0  0  0  0
   -7.0210   23.6520  -31.4910 C   0  0  0  0  0  0  0  0  0  0  0  0
   -7.0730   22.2970  -31.7270 C   0  0  0  0  0  0  0  0  0  0  0  0
   -8.1070   21.5180  -32.2350 C   0  0  0  0  0  0  0  0  0  0  0  0
   -7.8660   20.1460  -32.4240 C   0  0  0  0  0  0  0  0  0  0  0  0
   -6.5930   19.5880  -32.1410 C   0  0  0  0  0  0  0  0  0  0  0  0
   -6.3540   18.1100  -32.3240 C   0  0  0  0  0  0  0  0  0  0  0  0
   -5.0960   17.9170  -32.8620 F   0  0  0  0  0  0  0  0  0  0  0  0
   -7.2980   17.5650  -33.1780 F   0  0  0  0  0  0  0  0  0  0  0  0
   -6.4340   17.4470  -31.1120 F   0  0  0  0  0  0  0  0  0  0  0  0
   -5.5740   20.4120  -31.6080 C   0  0  0  0  0  0  0  0  0  0  0  0
   -5.8540   21.7670  -31.3960 C   0  0  0  0  0  0  0  0  0  0  0  0
   -5.0260   22.7320  -30.9380 N   0  0  0  0  0  0  0  0  0  0  0  0
   -3.6590   22.5590  -30.5330 C   0  0  0  0  0  0  0  0  0  0  0  0
   -2.7320   22.8370  -31.3430 O   0  0  0  0  0  0  0  0  0  0  0  0
   -3.3110   22.0630  -29.1530 C   0  0  0  0  0  0  0  0  0  0  0  0
   -2.0410   22.7380  -28.5790 C   0  0  0  0  0  0  0  0  0  0  0  0
   -2.2220   24.2400  -28.2500 C   0  0  0  0  0  0  0  0  0  0  0  0
   -1.8830   25.0610  -29.3410 O   0  0  0  0  0  0  0  0  0  0  0  0
   -1.4060   21.9360  -27.4520 C   0  0  0  0  0  0  0  0  0  0  0  0
   -0.2430   21.6730  -28.2020 O   0  0  0  0  0  0  0  0  0  0  0  0
   -0.7530   22.3850  -29.3060 C   0  0  0  0  0  0  0  0  0  0  0  0
   -3.1440   24.9280  -30.9540 H   0  0  0  0  0  0  0  0  0  0  0  0
   -7.8246   24.3869  -31.6465 H   0  0  0  0  0  0  0  0  0  0  0  0
   -9.0830   21.9616  -32.4812 H   0  0  0  0  0  0  0  0  0  0  0  0
   -8.6735   19.4980  -32.7955 H   0  0  0  0  0  0  0  0  0  0  0  0
   -4.5844   19.9974  -31.3657 H   0  0  0  0  0  0  0  0  0  0  0  0
   -4.1557   22.2724  -28.4802 H   0  0  0  0  0  0  0  0  0  0  0  0
   -3.1093   20.9843  -29.2283 H   0  0  0  0  0  0  0  0  0  0  0  0
   -3.2734   24.4211  -27.9820 H   0  0  0  0  0  0  0  0  0  0  0  0
   -1.5510   24.4891  -27.4147 H   0  0  0  0  0  0  0  0  0  0  0  0
   -2.1360   24.5730  -30.1670 H   0  0  0  0  0  0  0  0  0  0  0  0
   -1.2174   22.5288  -26.5448 H   0  0  0  0  0  0  0  0  0  0  0  0
   -1.9633   21.0911  -27.0213 H   0  0  0  0  0  0  0  0  0  0  0  0
   -0.1488   23.2631  -29.5777 H   0  0  0  0  0  0  0  0  0  0  0  0
   -0.8147   21.8801  -30.2813 H   0  0  0  0  0  0  0  0  0  0  0  0
  1  2  1  0
  2  3  2  0
  2  4  1  0
  4  5  2  0
  5  6  1  0
  6  7  2  0
  7  8  1  0
  8  9  2  0
  9 10  1  0
 10 11  1  0
 10 12  1  0
 10 13  1  0
  9 14  1  0
 14 15  2  0
 15 16  1  0
 16 17  1  0
 17 18  2  0
 17 19  1  0
 19 20  1  0
 20 21  1  0
 21 22  1  0
 20 23  1  0
 23 24  1  0
 24 25  1  0
 16  4  1  0
 25 20  1  0
 15  6  1  0
  1 26  1  0
  5 27  1  0
  7 28  1  0
  8 29  1  0
 14 30  1  0
 19 31  1  0
 19 32  1  0
 21 33  1  0
 21 34  1  0
 22 35  1  0
 23 36  1  0
 23 37  1  0
 25 38  1  0
 25 39  1  0
M  CHG  1   1  -1
M  END
>  <UniqueID>  (55) 
55

>  <SMILES>  (55) 
[NH-]C(=O)c1cc2ccc(C(F)(F)F)cc2n1C(=O)CC1(CO)COC1

>  <Energy>  (55) 
144.48049508886848

>  <Genealogy>  (55) 
[NH-]C(=O)c1cc2ccc(C(F)(F)F)cc2n1C(=O)CC1(CO)COC1 (protonated)
[NH-]C(=O)c1cc2ccc(C(F)(F)F)cc2n1C(=O)CC1(CO)COC1 (3D coordinates assigned)
[NH-]C(=O)c1cc2ccc(C(F)(F)F)cc2n1C(=O)CC1(CO)COC1 (nonaromatic ring conformer: 144.48049508886848 kcal/mol)

>  <smiles>  (55) 
NC(=O)c1cc2ccc(C(F)(F)F)cc2n1C(=O)CC1(CO)COC1

>  <score_type>  (55) 
oracle

>  <origin>  (55) 
adg

>  <m_score__min__energy>  (55) 
-10.220000000000001

>  <m_primary>  (55) 
energy

$$$$
57:0
     RDKit          3D

 38 39  0  0  0  0  0  0  0  0999 V2000
   -5.5000   24.2190  -29.4550 N   0  0  0  0  0  0  0  0  0  0  0  0
   -5.9380   24.0570  -30.8060 C   0  0  0  0  0  0  0  0  0  0  0  0
   -5.9470   25.0570  -31.5710 O   0  0  0  0  0  0  0  0  0  0  0  0
   -6.3500   22.7310  -31.3150 C   0  0  0  0  0  0  0  0  0  0  0  0
   -7.6210   22.1850  -31.1410 C   0  0  0  0  0  0  0  0  0  0  0  0
   -7.5500   20.9160  -31.6730 C   0  0  0  0  0  0  0  0  0  0  0  0
   -8.5210   19.9240  -31.7590 C   0  0  0  0  0  0  0  0  0  0  0  0
   -8.1680   18.7070  -32.3660 C   0  0  0  0  0  0  0  0  0  0  0  0
   -6.8640   18.5100  -32.8920 C   0  0  0  0  0  0  0  0  0  0  0  0
   -6.4840   17.1850  -33.5030 C   0  0  0  0  0  0  0  0  0  0  0  0
   -6.1250   17.3440  -34.8310 F   0  0  0  0  0  0  0  0  0  0  0  0
   -7.5450   16.2970  -33.4450 F   0  0  0  0  0  0  0  0  0  0  0  0
   -5.4140   16.6540  -32.8080 F   0  0  0  0  0  0  0  0  0  0  0  0
   -5.8980   19.5350  -32.7610 C   0  0  0  0  0  0  0  0  0  0  0  0
   -6.2770   20.7300  -32.1420 C   0  0  0  0  0  0  0  0  0  0  0  0
   -5.5300   21.8340  -31.9320 N   0  0  0  0  0  0  0  0  0  0  0  0
   -4.1660   22.0180  -32.3430 C   0  0  0  0  0  0  0  0  0  0  0  0
   -3.8600   21.8660  -33.5560 O   0  0  0  0  0  0  0  0  0  0  0  0
   -3.1390   22.5280  -31.3640 C   0  0  0  0  0  0  0  0  0  0  0  0
   -3.3050   21.9390  -29.9500 C   0  0  0  0  0  0  0  0  0  0  0  0
   -2.2200   22.4050  -28.9730 C   0  0  0  0  0  0  0  0  0  0  0  0
   -1.5470   23.5190  -29.5130 O   0  0  0  0  0  0  0  0  0  0  0  0
   -2.4740   24.9150  -29.1970 P   0  0  0  0  0  0  0  0  0  0  0  0
   -3.3360   24.6970  -27.9740 O   0  0  0  0  0  0  0  0  0  0  0  0
   -1.4300   26.2140  -28.9100 O   0  0  0  0  0  0  0  0  0  0  0  0
   -3.4580   25.2830  -30.5240 O   0  0  0  0  0  0  0  0  0  0  0  0
   -5.5340   23.4310  -28.7740 H   0  0  0  0  0  0  0  0  0  0  0  0
   -5.1760   25.1530  -29.1200 H   0  0  0  0  0  0  0  0  0  0  0  0
   -8.4951   22.6655  -30.6773 H   0  0  0  0  0  0  0  0  0  0  0  0
   -9.5345   20.0872  -31.3638 H   0  0  0  0  0  0  0  0  0  0  0  0
   -8.9101   17.8979  -32.4345 H   0  0  0  0  0  0  0  0  0  0  0  0
   -4.8737   19.3953  -33.1369 H   0  0  0  0  0  0  0  0  0  0  0  0
   -2.1385   22.2644  -31.7375 H   0  0  0  0  0  0  0  0  0  0  0  0
   -3.2758   23.6165  -31.2834 H   0  0  0  0  0  0  0  0  0  0  0  0
   -4.2854   22.2451  -29.5562 H   0  0  0  0  0  0  0  0  0  0  0  0
   -3.2193   20.8459  -30.0381 H   0  0  0  0  0  0  0  0  0  0  0  0
   -2.6845   22.6859  -28.0163 H   0  0  0  0  0  0  0  0  0  0  0  0
   -1.5018   21.5886  -28.8069 H   0  0  0  0  0  0  0  0  0  0  0  0
  1  2  1  0
  2  3  2  0
  2  4  1  0
  4  5  2  0
  5  6  1  0
  6  7  2  0
  7  8  1  0
  8  9  2  0
  9 10  1  0
 10 11  1  0
 10 12  1  0
 10 13  1  0
  9 14  1  0
 14 15  2  0
 15 16  1  0
 16 17  1  0
 17 18  2  0
 17 19  1  0
 19 20  1  0
 20 21  1  0
 21 22  1  0
 22 23  1  0
 23 24  2  0
 23 25  1  0
 23 26  1  0
 16  4  1  0
 15  6  1  0
  1 27  1  0
  1 28  1  0
  5 29  1  0
  7 30  1  0
  8 31  1  0
 14 32  1  0
 19 33  1  0
 19 34  1  0
 20 35  1  0
 20 36  1  0
 21 37  1  0
 21 38  1  0
M  CHG  2  25  -1  26  -1
M  END
>  <UniqueID>  (56) 
56

>  <SMILES>  (56) 
NC(=O)c1cc2ccc(C(F)(F)F)cc2n1C(=O)CCCOP(=O)([O-])[O-]

>  <Energy>  (56) 
74.84769917944688

>  <Genealogy>  (56) 
NC(=O)c1cc2ccc(C(F)(F)F)cc2n1C(=O)CCCOP(=O)([O-])[O-] (protonated)
NC(=O)c1cc2ccc(C(F)(F)F)cc2n1C(=O)CCCOP(=O)([O-])[O-] (3D coordinates assigned)
NC(=O)c1cc2ccc(C(F)(F)F)cc2n1C(=O)CCCOP(=O)([O-])[O-] (optimized conformer: 74.84769917944688 kcal/mol)

>  <smiles>  (56) 
NC(=O)c1cc2ccc(C(F)(F)F)cc2n1C(=O)CCCOP(=O)(O)O

>  <score_type>  (56) 
oracle

>  <origin>  (56) 
adg

>  <m_score__min__energy>  (56) 
-12.41

>  <m_primary>  (56) 
energy

$$$$
58:0
     RDKit          3D

 46 47  0  0  0  0  0  0  0  0999 V2000
   -4.1460   24.6550  -26.7520 C   0  0  0  0  0  0  0  0  0  0  0  0
   -4.4560   24.3050  -28.1420 N   0  0  0  0  0  0  0  0  0  0  0  0
   -3.8080   23.0360  -28.5550 C   0  0  2  0  0  0  0  0  0  0  0  0
   -2.2870   23.0880  -28.3030 C   0  0  0  0  0  0  0  0  0  0  0  0
   -1.6560   24.3090  -28.9040 C   0  0  0  0  0  0  0  0  0  0  0  0
   -2.3760   25.2510  -29.3300 O   0  0  0  0  0  0  0  0  0  0  0  0
   -0.2740   24.3940  -29.0280 O   0  0  0  0  0  0  0  0  0  0  0  0
   -4.0450   22.7290  -30.0220 C   0  0  0  0  0  0  0  0  0  0  0  0
   -3.0980   22.3220  -30.7490 O   0  0  0  0  0  0  0  0  0  0  0  0
   -5.3710   22.7960  -30.5680 N   0  0  0  0  0  0  0  0  0  0  0  0
   -6.1910   23.8830  -30.6360 C   0  0  0  0  0  0  0  0  0  0  0  0
   -5.8620   25.2570  -30.1950 C   0  0  0  0  0  0  0  0  0  0  0  0
   -4.6970   25.9260  -30.6650 N   0  0  0  0  0  0  0  0  0  0  0  0
   -6.6340   25.8550  -29.4000 O   0  0  0  0  0  0  0  0  0  0  0  0
   -7.4020   23.5390  -31.2360 C   0  0  0  0  0  0  0  0  0  0  0  0
   -7.2970   22.2000  -31.5340 C   0  0  0  0  0  0  0  0  0  0  0  0
   -8.2120   21.3430  -32.1390 C   0  0  0  0  0  0  0  0  0  0  0  0
   -7.8370   20.0000  -32.3140 C   0  0  0  0  0  0  0  0  0  0  0  0
   -6.5730   19.5390  -31.8700 C   0  0  0  0  0  0  0  0  0  0  0  0
   -6.1710   18.1050  -32.1010 C   0  0  0  0  0  0  0  0  0  0  0  0
   -5.0520   17.9840  -33.1500 C   0  0  0  0  0  0  0  0  0  0  0  0
   -5.5570   17.7500  -34.5880 C   0  0  0  0  0  0  0  0  0  0  0  0
   -6.1140   18.9600  -35.1910 N   0  0  0  0  0  0  0  0  0  0  0  0
   -5.6750   20.4380  -31.2540 C   0  0  0  0  0  0  0  0  0  0  0  0
   -6.0630   21.7740  -31.1170 C   0  0  0  0  0  0  0  0  0  0  0  0
   -4.7202   24.0067  -26.0738 H   0  0  0  0  0  0  0  0  0  0  0  0
   -3.0703   24.5149  -26.5698 H   0  0  0  0  0  0  0  0  0  0  0  0
   -4.4150   25.7059  -26.5698 H   0  0  0  0  0  0  0  0  0  0  0  0
   -4.1060   25.0890  -28.7400 H   0  0  0  0  0  0  0  0  0  0  0  0
   -5.4930   24.2490  -28.2620 H   0  0  0  0  0  0  0  0  0  0  0  0
   -4.2632   22.2405  -27.9468 H   0  0  0  0  0  0  0  0  0  0  0  0
   -2.1074   23.0938  -27.2178 H   0  0  0  0  0  0  0  0  0  0  0  0
   -1.8349   22.2049  -28.7781 H   0  0  0  0  0  0  0  0  0  0  0  0
   -3.8600   26.0480  -30.0520 H   0  0  0  0  0  0  0  0  0  0  0  0
   -8.2602   24.1991  -31.4301 H   0  0  0  0  0  0  0  0  0  0  0  0
   -9.1967   21.7053  -32.4694 H   0  0  0  0  0  0  0  0  0  0  0  0
   -8.5318   19.2997  -32.8006 H   0  0  0  0  0  0  0  0  0  0  0  0
   -5.8159   17.6780  -31.1515 H   0  0  0  0  0  0  0  0  0  0  0  0
   -7.0502   17.5611  -32.4766 H   0  0  0  0  0  0  0  0  0  0  0  0
   -4.4652   18.9143  -33.1375 H   0  0  0  0  0  0  0  0  0  0  0  0
   -4.4561   17.1008  -32.8764 H   0  0  0  0  0  0  0  0  0  0  0  0
   -4.7149   17.4039  -35.2054 H   0  0  0  0  0  0  0  0  0  0  0  0
   -6.3604   17.0001  -34.5416 H   0  0  0  0  0  0  0  0  0  0  0  0
   -6.8700   19.3380  -34.5720 H   0  0  0  0  0  0  0  0  0  0  0  0
   -6.5420   18.7210  -36.1130 H   0  0  0  0  0  0  0  0  0  0  0  0
   -4.6947   20.0956  -30.8910 H   0  0  0  0  0  0  0  0  0  0  0  0
  1  2  1  0
  2  3  1  0
  3  4  1  0
  4  5  1  0
  5  6  2  0
  5  7  1  0
  3  8  1  0
  8  9  2  0
  8 10  1  0
 10 11  1  0
 11 12  1  0
 12 13  1  0
 12 14  2  0
 11 15  2  0
 15 16  1  0
 16 17  2  0
 17 18  1  0
 18 19  2  0
 19 20  1  0
 20 21  1  0
 21 22  1  0
 22 23  1  0
 19 24  1  0
 24 25  2  0
 25 10  1  0
 25 16  1  0
  1 26  1  0
  1 27  1  0
  1 28  1  0
  2 29  1  0
  2 30  1  0
  3 31  1  1
  4 32  1  0
  4 33  1  0
 13 34  1  0
 15 35  1  0
 17 36  1  0
 18 37  1  0
 20 38  1  0
 20 39  1  0
 21 40  1  0
 21 41  1  0
 22 42  1  0
 22 43  1  0
 23 44  1  0
 23 45  1  0
 24 46  1  0
M  CHG  3   2   1   7  -1  13  -1
M  END
>  <UniqueID>  (57) 
57

>  <SMILES>  (57) 
C[NH2+][C@H](CC(=O)[O-])C(=O)n1c(C([NH-])=O)cc2ccc(CCCN)cc21

>  <Energy>  (57) 
78.76855355860675

>  <Genealogy>  (57) 
C[NH2+][C@H](CC(=O)[O-])C(=O)n1c(C([NH-])=O)cc2ccc(CCCN)cc21 (protonated)
C[NH2+][C@H](CC(=O)[O-])C(=O)n1c(C([NH-])=O)cc2ccc(CCCN)cc21 (3D coordinates assigned)
C[NH2+][C@H](CC(=O)[O-])C(=O)n1c(C([NH-])=O)cc2ccc(CCCN)cc21 (optimized conformer: 78.76855355860675 kcal/mol)

>  <smiles>  (57) 
CN[C@H](CC(=O)O)C(=O)n1c(C(N)=O)cc2ccc(CCCN)cc21

>  <score_type>  (57) 
oracle

>  <origin>  (57) 
adg

>  <m_score__min__energy>  (57) 
-11.789999999999999

>  <m_primary>  (57) 
energy

$$$$
59:0
     RDKit          3D

 44 46  0  0  0  0  0  0  0  0999 V2000
   -2.5760   22.9010  -29.0980 C   0  0  0  0  0  0  0  0  0  0  0  0
   -2.9930   24.1660  -29.6940 N   0  0  0  0  0  0  0  0  0  0  0  0
   -2.3280   25.2990  -29.3690 O   0  0  0  0  0  0  0  0  0  0  0  0
   -4.0360   24.2200  -30.6780 C   0  0  0  0  0  0  0  0  0  0  0  0
   -4.3600   25.3260  -31.1880 O   0  0  0  0  0  0  0  0  0  0  0  0
   -4.6980   23.0250  -31.1140 N   0  0  0  0  0  0  0  0  0  0  0  0
   -5.9830   22.6440  -30.8790 C   0  0  0  0  0  0  0  0  0  0  0  0
   -7.0020   23.4360  -30.1570 C   0  0  0  0  0  0  0  0  0  0  0  0
   -7.0880   24.8490  -30.3240 N   0  0  0  0  0  0  0  0  0  0  0  0
   -7.8160   22.8570  -29.3890 O   0  0  0  0  0  0  0  0  0  0  0  0
   -6.2310   21.3980  -31.4540 C   0  0  0  0  0  0  0  0  0  0  0  0
   -5.0480   21.0310  -32.0560 C   0  0  0  0  0  0  0  0  0  0  0  0
   -4.7200   19.8850  -32.7730 C   0  0  0  0  0  0  0  0  0  0  0  0
   -3.4110   19.7740  -33.2730 C   0  0  0  0  0  0  0  0  0  0  0  0
   -2.4570   20.7990  -33.0460 C   0  0  0  0  0  0  0  0  0  0  0  0
   -1.1220   20.6750  -33.5690 N   0  0  0  0  0  0  0  0  0  0  0  0
   -0.9010   20.3090  -34.9720 C   0  0  0  0  0  0  0  0  0  0  0  0
    0.0480   21.3210  -35.6150 C   0  0  0  0  0  0  0  0  0  0  0  0
    1.2590   21.5210  -34.7990 N   0  0  0  0  0  0  0  0  0  0  0  0
    2.4490   22.0890  -35.3900 C   0  0  0  0  0  0  0  0  0  0  0  0
    3.5820   21.7220  -34.9760 O   0  0  0  0  0  0  0  0  0  0  0  0
    2.3960   23.0960  -36.4670 C   0  0  0  0  0  0  0  0  0  0  0  0
    1.3440   23.7460  -36.7010 O   0  0  0  0  0  0  0  0  0  0  0  0
    3.5350   23.3620  -37.2170 O   0  0  0  0  0  0  0  0  0  0  0  0
    1.3570   20.8950  -33.4700 C   0  0  0  0  0  0  0  0  0  0  0  0
    0.0270   21.0000  -32.7100 C   0  0  0  0  0  0  0  0  0  0  0  0
   -2.8310   21.9510  -32.3160 C   0  0  0  0  0  0  0  0  0  0  0  0
   -4.1410   22.0340  -31.8380 C   0  0  0  0  0  0  0  0  0  0  0  0
   -2.6038   22.9854  -28.0016 H   0  0  0  0  0  0  0  0  0  0  0  0
   -3.2579   22.1008  -29.4216 H   0  0  0  0  0  0  0  0  0  0  0  0
   -1.5519   22.6632  -29.4216 H   0  0  0  0  0  0  0  0  0  0  0  0
   -6.3300   25.3800  -30.8070 H   0  0  0  0  0  0  0  0  0  0  0  0
   -7.1721   20.8289  -31.4315 H   0  0  0  0  0  0  0  0  0  0  0  0
   -5.4616   19.0907  -32.9433 H   0  0  0  0  0  0  0  0  0  0  0  0
   -3.1228   18.8813  -33.8474 H   0  0  0  0  0  0  0  0  0  0  0  0
   -0.4566   19.3041  -35.0240 H   0  0  0  0  0  0  0  0  0  0  0  0
   -1.8610   20.3114  -35.5090 H   0  0  0  0  0  0  0  0  0  0  0  0
    0.3434   20.9526  -36.6085 H   0  0  0  0  0  0  0  0  0  0  0  0
   -0.4773   22.2842  -35.6944 H   0  0  0  0  0  0  0  0  0  0  0  0
    1.6186   19.8335  -33.5913 H   0  0  0  0  0  0  0  0  0  0  0  0
    2.1318   21.4206  -32.8925 H   0  0  0  0  0  0  0  0  0  0  0  0
    0.0460   20.3003  -31.8614 H   0  0  0  0  0  0  0  0  0  0  0  0
   -0.0878   22.0382  -32.3650 H   0  0  0  0  0  0  0  0  0  0  0  0
   -2.1096   22.7602  -32.1295 H   0  0  0  0  0  0  0  0  0  0  0  0
  1  2  1  0
  2  3  1  0
  2  4  1  0
  4  5  2  0
  4  6  1  0
  6  7  1  0
  7  8  1  0
  8  9  1  0
  8 10  2  0
  7 11  2  0
 11 12  1  0
 12 13  2  0
 13 14  1  0
 14 15  2  0
 15 16  1  0
 16 17  1  0
 17 18  1  0
 18 19  1  0
 19 20  1  0
 20 21  2  0
 20 22  1  0
 22 23  2  0
 22 24  1  0
 19 25  1  0
 25 26  1  0
 15 27  1  0
 27 28  2  0
 28  6  1  0
 28 12  1  0
 26 16  1  0
  1 29  1  0
  1 30  1  0
  1 31  1  0
  9 32  1  0
 11 33  1  0
 13 34  1  0
 14 35  1  0
 17 36  1  0
 17 37  1  0
 18 38  1  0
 18 39  1  0
 25 40  1  0
 25 41  1  0
 26 42  1  0
 26 43  1  0
 27 44  1  0
M  CHG  3   3  -1   9  -1  24  -1
M  END
>  <UniqueID>  (58) 
58

>  <SMILES>  (58) 
CN([O-])C(=O)n1c(C([NH-])=O)cc2ccc(N3CCN(C(=O)C(=O)[O-])CC3)cc21

>  <Energy>  (58) 
89.50841798309476

>  <Genealogy>  (58) 
CN([O-])C(=O)n1c(C([NH-])=O)cc2ccc(N3CCN(C(=O)C(=O)[O-])CC3)cc21 (protonated)
CN([O-])C(=O)n1c(C([NH-])=O)cc2ccc(N3CCN(C(=O)C(=O)[O-])CC3)cc21 (3D coordinates assigned)
CN([O-])C(=O)n1c(C([NH-])=O)cc2ccc(N3CCN(C(=O)C(=O)[O-])CC3)cc21 (nonaromatic ring conformer: 89.50841798309476 kcal/mol)

>  <smiles>  (58) 
CN(O)C(=O)n1c(C(N)=O)cc2ccc(N3CCN(C(=O)C(=O)O)CC3)cc21

>  <score_type>  (58) 
oracle

>  <origin>  (58) 
adg

>  <m_score__min__energy>  (58) 
-12.43

>  <m_primary>  (58) 
energy

$$$$
60:0
     RDKit          3D

 43 44  0  0  0  0  0  0  0  0999 V2000
   -7.2220   18.2650  -32.3470 C   0  0  0  0  0  0  0  0  0  0  0  0
   -7.3330   19.7410  -32.1050 C   0  0  0  0  0  0  0  0  0  0  0  0
   -8.5920   20.3850  -32.2060 C   0  0  0  0  0  0  0  0  0  0  0  0
   -8.7130   21.7610  -31.9530 C   0  0  0  0  0  0  0  0  0  0  0  0
   -7.5660   22.4620  -31.5910 C   0  0  0  0  0  0  0  0  0  0  0  0
   -7.3960   23.7950  -31.2960 C   0  0  0  0  0  0  0  0  0  0  0  0
   -6.0440   23.9370  -30.9940 C   0  0  0  0  0  0  0  0  0  0  0  0
   -5.4520   25.1900  -30.4850 C   0  0  0  0  0  0  0  0  0  0  0  0
   -4.0470   25.4190  -30.5680 N   0  0  0  0  0  0  0  0  0  0  0  0
   -6.1870   26.0470  -29.9260 O   0  0  0  0  0  0  0  0  0  0  0  0
   -5.3980   22.7430  -31.1200 N   0  0  0  0  0  0  0  0  0  0  0  0
   -3.9910   22.4780  -30.9970 C   0  0  0  0  0  0  0  0  0  0  0  0
   -3.2740   22.4360  -32.0330 O   0  0  0  0  0  0  0  0  0  0  0  0
   -3.3440   22.3130  -29.6400 C   0  0  0  0  0  0  0  0  0  0  0  0
   -3.2510   23.5730  -28.8650 N   0  0  1  0  0  0  0  0  0  0  0  0
   -3.9380   23.4740  -27.5620 C   0  0  0  0  0  0  0  0  0  0  0  0
   -1.8700   24.0070  -28.7250 C   0  0  0  0  0  0  0  0  0  0  0  0
   -1.4780   25.0590  -29.3060 O   0  0  0  0  0  0  0  0  0  0  0  0
   -0.9440   23.2950  -27.8740 N   0  0  0  0  0  0  0  0  0  0  0  0
    0.2570   23.9910  -27.3990 C   0  0  0  0  0  0  0  0  0  0  0  0
   -1.1560   21.8830  -27.5360 C   0  0  0  0  0  0  0  0  0  0  0  0
   -6.3460   21.8480  -31.4690 C   0  0  0  0  0  0  0  0  0  0  0  0
   -6.1950   20.4800  -31.7160 C   0  0  0  0  0  0  0  0  0  0  0  0
   -7.1823   17.7373  -31.3827 H   0  0  0  0  0  0  0  0  0  0  0  0
   -8.0968   17.9202  -32.9179 H   0  0  0  0  0  0  0  0  0  0  0  0
   -6.3055   18.0549  -32.9179 H   0  0  0  0  0  0  0  0  0  0  0  0
   -9.4819   19.8017  -32.4850 H   0  0  0  0  0  0  0  0  0  0  0  0
   -9.6847   22.2695  -32.0383 H   0  0  0  0  0  0  0  0  0  0  0  0
   -8.1649   24.5817  -31.2982 H   0  0  0  0  0  0  0  0  0  0  0  0
   -3.4950   25.6820  -29.7220 H   0  0  0  0  0  0  0  0  0  0  0  0
   -3.9364   21.5911  -29.0587 H   0  0  0  0  0  0  0  0  0  0  0  0
   -2.3144   21.9678  -29.8155 H   0  0  0  0  0  0  0  0  0  0  0  0
   -3.7730   24.3040  -29.4010 H   0  0  0  0  0  0  0  0  0  0  0  0
   -3.2027   23.5800  -26.7508 H   0  0  0  0  0  0  0  0  0  0  0  0
   -4.6897   24.2731  -27.4822 H   0  0  0  0  0  0  0  0  0  0  0  0
   -4.4335   22.4952  -27.4822 H   0  0  0  0  0  0  0  0  0  0  0  0
    0.2666   23.9966  -26.2991 H   0  0  0  0  0  0  0  0  0  0  0  0
    1.1528   23.4720  -27.7709 H   0  0  0  0  0  0  0  0  0  0  0  0
    0.2521   25.0262  -27.7709 H   0  0  0  0  0  0  0  0  0  0  0  0
   -1.1735   21.7664  -26.4423 H   0  0  0  0  0  0  0  0  0  0  0  0
   -2.1149   21.5454  -27.9561 H   0  0  0  0  0  0  0  0  0  0  0  0
   -0.3385   21.2787  -27.9561 H   0  0  0  0  0  0  0  0  0  0  0  0
   -5.2147   19.9923  -31.6099 H   0  0  0  0  0  0  0  0  0  0  0  0
  1  2  1  0
  2  3  2  0
  3  4  1  0
  4  5  2  0
  5  6  1  0
  6  7  2  0
  7  8  1  0
  8  9  1  0
  8 10  2  0
  7 11  1  0
 11 12  1  0
 12 13  2  0
 12 14  1  0
 14 15  1  0
 15 16  1  0
 15 17  1  0
 17 18  2  0
 17 19  1  0
 19 20  1  0
 19 21  1  0
 11 22  1  0
 22 23  2  0
 23  2  1  0
 22  5  1  0
  1 24  1  0
  1 25  1  0
  1 26  1  0
  3 27  1  0
  4 28  1  0
  6 29  1  0
  9 30  1  0
 14 31  1  0
 14 32  1  0
 15 33  1  6
 16 34  1  0
 16 35  1  0
 16 36  1  0
 20 37  1  0
 20 38  1  0
 20 39  1  0
 21 40  1  0
 21 41  1  0
 21 42  1  0
 23 43  1  0
M  CHG  2   9  -1  15   1
M  END
>  <UniqueID>  (59) 
59

>  <SMILES>  (59) 
Cc1ccc2cc(C([NH-])=O)n(C(=O)C[N@@H+](C)C(=O)N(C)C)c2c1

>  <Energy>  (59) 
82.53990867183151

>  <Genealogy>  (59) 
Cc1ccc2cc(C([NH-])=O)n(C(=O)C[NH+](C)C(=O)N(C)C)c2c1 (protonated)
Cc1ccc2cc(C([NH-])=O)n(C(=O)C[N@@H+](C)C(=O)N(C)C)c2c1 (chirality)
Cc1ccc2cc(C([NH-])=O)n(C(=O)C[N@@H+](C)C(=O)N(C)C)c2c1 (3D coordinates assigned)
Cc1ccc2cc(C([NH-])=O)n(C(=O)C[N@@H+](C)C(=O)N(C)C)c2c1 (optimized conformer: 82.53990867183151 kcal/mol)

>  <smiles>  (59) 
Cc1ccc2cc(C(N)=O)n(C(=O)CN(C)C(=O)N(C)C)c2c1

>  <score_type>  (59) 
oracle

>  <origin>  (59) 
adg

>  <m_score__min__energy>  (59) 
-9.5299999999999994

>  <m_primary>  (59) 
energy

$$$$
61:0
     RDKit          3D

 40 41  0  0  0  0  0  0  0  0999 V2000
   -4.0250   23.2060  -28.1930 C   0  0  0  0  0  0  0  0  0  0  0  0
   -4.2220   23.6260  -29.6540 C   0  0  1  0  0  0  0  0  0  0  0  0
   -3.4950   24.9030  -29.9880 C   0  0  0  0  0  0  0  0  0  0  0  0
   -3.9610   25.6750  -30.8670 O   0  0  0  0  0  0  0  0  0  0  0  0
   -2.3360   25.2690  -29.3090 O   0  0  0  0  0  0  0  0  0  0  0  0
   -3.8040   22.5390  -30.5490 N   0  0  0  0  0  0  0  0  0  0  0  0
   -2.9670   21.4340  -30.0630 C   0  0  0  0  0  0  0  0  0  0  0  0
   -4.3960   22.4370  -31.8500 C   0  0  0  0  0  0  0  0  0  0  0  0
   -5.0300   23.4120  -32.3320 O   0  0  0  0  0  0  0  0  0  0  0  0
   -4.3740   21.1950  -32.5580 N   0  0  0  0  0  0  0  0  0  0  0  0
   -5.4190   20.3470  -32.7570 C   0  0  0  0  0  0  0  0  0  0  0  0
   -6.8160   20.6080  -32.3390 C   0  0  0  0  0  0  0  0  0  0  0  0
   -7.4120   21.8900  -32.5500 N   0  0  0  0  0  0  0  0  0  0  0  0
   -7.4980   19.6890  -31.8120 O   0  0  0  0  0  0  0  0  0  0  0  0
   -4.9940   19.1940  -33.4100 C   0  0  0  0  0  0  0  0  0  0  0  0
   -3.6440   19.3760  -33.6240 C   0  0  0  0  0  0  0  0  0  0  0  0
   -2.7150   18.5490  -34.2490 C   0  0  0  0  0  0  0  0  0  0  0  0
   -1.3850   18.9980  -34.3310 C   0  0  0  0  0  0  0  0  0  0  0  0
   -1.0110   20.2520  -33.7820 C   0  0  0  0  0  0  0  0  0  0  0  0
    0.4060   20.7350  -33.9020 C   0  0  0  0  0  0  0  0  0  0  0  0
    0.5820   21.5110  -35.1690 C   0  0  0  0  0  0  0  0  0  0  0  0
    1.0120   22.6950  -35.1290 O   0  0  0  0  0  0  0  0  0  0  0  0
    0.3120   20.9140  -36.3960 O   0  0  0  0  0  0  0  0  0  0  0  0
   -1.9850   21.0680  -33.1650 C   0  0  0  0  0  0  0  0  0  0  0  0
   -3.2970   20.5930  -33.1000 C   0  0  0  0  0  0  0  0  0  0  0  0
   -4.3976   24.0004  -27.5297 H   0  0  0  0  0  0  0  0  0  0  0  0
   -4.5811   22.2767  -28.0005 H   0  0  0  0  0  0  0  0  0  0  0  0
   -2.9549   23.0395  -28.0005 H   0  0  0  0  0  0  0  0  0  0  0  0
   -5.2938   23.8254  -29.8002 H   0  0  0  0  0  0  0  0  0  0  0  0
   -2.9653   21.4317  -28.9630 H   0  0  0  0  0  0  0  0  0  0  0  0
   -3.3704   20.4791  -30.4310 H   0  0  0  0  0  0  0  0  0  0  0  0
   -1.9385   21.5637  -30.4310 H   0  0  0  0  0  0  0  0  0  0  0  0
   -8.4020   22.0580  -32.2680 H   0  0  0  0  0  0  0  0  0  0  0  0
   -6.9070   22.6440  -33.0640 H   0  0  0  0  0  0  0  0  0  0  0  0
   -5.6041   18.3240  -33.6944 H   0  0  0  0  0  0  0  0  0  0  0  0
   -3.0119   17.5752  -34.6655 H   0  0  0  0  0  0  0  0  0  0  0  0
   -0.6277   18.3716  -34.8251 H   0  0  0  0  0  0  0  0  0  0  0  0
    0.6434   21.3813  -33.0441 H   0  0  0  0  0  0  0  0  0  0  0  0
    1.0811   19.8667  -33.9163 H   0  0  0  0  0  0  0  0  0  0  0  0
   -1.7178   22.0500  -32.7474 H   0  0  0  0  0  0  0  0  0  0  0  0
  1  2  1  0
  2  3  1  0
  3  4  2  0
  3  5  1  0
  2  6  1  0
  6  7  1  0
  6  8  1  0
  8  9  2  0
  8 10  1  0
 10 11  1  0
 11 12  1  0
 12 13  1  0
 12 14  2  0
 11 15  2  0
 15 16  1  0
 16 17  2  0
 17 18  1  0
 18 19  2  0
 19 20  1  0
 20 21  1  0
 21 22  2  0
 21 23  1  0
 19 24  1  0
 24 25  2  0
 25 10  1  0
 25 16  1  0
  1 26  1  0
  1 27  1  0
  1 28  1  0
  2 29  1  1
  7 30  1  0
  7 31  1  0
  7 32  1  0
 13 33  1  0
 13 34  1  0
 15 35  1  0
 17 36  1  0
 18 37  1  0
 20 38  1  0
 20 39  1  0
 24 40  1  0
M  CHG  2   5  -1  23  -1
M  END
>  <UniqueID>  (60) 
60

>  <SMILES>  (60) 
C[C@@H](C(=O)[O-])N(C)C(=O)n1c(C(N)=O)cc2ccc(CC(=O)[O-])cc21

>  <Energy>  (60) 
82.16783531340853

>  <Genealogy>  (60) 
CC(C(=O)[O-])N(C)C(=O)n1c(C(N)=O)cc2ccc(CC(=O)[O-])cc21 (protonated)
C[C@@H](C(=O)[O-])N(C)C(=O)n1c(C(N)=O)cc2ccc(CC(=O)[O-])cc21 (chirality)
C[C@@H](C(=O)[O-])N(C)C(=O)n1c(C(N)=O)cc2ccc(CC(=O)[O-])cc21 (3D coordinates assigned)
C[C@@H](C(=O)[O-])N(C)C(=O)n1c(C(N)=O)cc2ccc(CC(=O)[O-])cc21 (optimized conformer: 82.16783531340853 kcal/mol)

>  <smiles>  (60) 
CC(C(=O)O)N(C)C(=O)n1c(C(N)=O)cc2ccc(CC(=O)O)cc21

>  <score_type>  (60) 
oracle

>  <origin>  (60) 
adg

>  <m_score__min__energy>  (60) 
-10.65

>  <m_primary>  (60) 
energy

$$$$
62:0
     RDKit          3D

 39 40  0  0  0  0  0  0  0  0999 V2000
   -1.8610   25.3060  -29.3320 N   0  0  0  0  0  0  0  0  0  0  0  0
   -1.5800   23.9370  -29.0520 C   0  0  0  0  0  0  0  0  0  0  0  0
   -1.4920   23.5470  -27.8570 O   0  0  0  0  0  0  0  0  0  0  0  0
   -1.3920   22.9610  -30.1750 C   0  0  0  0  0  0  0  0  0  0  0  0
   -2.1270   21.7150  -29.9100 N   0  0  0  0  0  0  0  0  0  0  0  0
   -1.4090   20.4310  -29.9320 C   0  0  0  0  0  0  0  0  0  0  0  0
   -1.2760   19.8400  -28.5290 C   0  0  0  0  0  0  0  0  0  0  0  0
   -1.0420   20.8590  -27.6000 O   0  0  0  0  0  0  0  0  0  0  0  0
   -3.5140   21.7720  -29.5090 C   0  0  0  0  0  0  0  0  0  0  0  0
   -3.8370   21.5590  -28.3090 O   0  0  0  0  0  0  0  0  0  0  0  0
   -4.5400   22.0890  -30.4570 N   0  0  0  0  0  0  0  0  0  0  0  0
   -5.0490   23.3140  -30.7560 C   0  0  0  0  0  0  0  0  0  0  0  0
   -4.6560   24.5840  -30.1120 C   0  0  0  0  0  0  0  0  0  0  0  0
   -4.1380   25.6530  -30.9020 N   0  0  0  0  0  0  0  0  0  0  0  0
   -4.7780   24.7390  -28.8690 O   0  0  0  0  0  0  0  0  0  0  0  0
   -6.0070   23.2080  -31.7650 C   0  0  0  0  0  0  0  0  0  0  0  0
   -6.0520   21.8670  -32.0840 C   0  0  0  0  0  0  0  0  0  0  0  0
   -6.8180   21.1910  -33.0280 C   0  0  0  0  0  0  0  0  0  0  0  0
   -6.6420   19.8000  -33.1470 C   0  0  0  0  0  0  0  0  0  0  0  0
   -5.7060   19.1180  -32.3270 C   0  0  0  0  0  0  0  0  0  0  0  0
   -5.5140   17.6350  -32.4620 C   0  0  0  0  0  0  0  0  0  0  0  0
   -4.1940   17.3640  -32.7720 F   0  0  0  0  0  0  0  0  0  0  0  0
   -5.8390   17.0110  -31.2700 F   0  0  0  0  0  0  0  0  0  0  0  0
   -4.9430   19.8400  -31.3850 C   0  0  0  0  0  0  0  0  0  0  0  0
   -5.1490   21.2180  -31.2840 C   0  0  0  0  0  0  0  0  0  0  0  0
   -2.8370   25.6740  -29.2770 H   0  0  0  0  0  0  0  0  0  0  0  0
   -1.7646   23.4084  -31.1083 H   0  0  0  0  0  0  0  0  0  0  0  0
   -0.3209   22.7273  -30.2645 H   0  0  0  0  0  0  0  0  0  0  0  0
   -1.9617   19.7232  -30.5672 H   0  0  0  0  0  0  0  0  0  0  0  0
   -0.3986   20.6072  -30.3297 H   0  0  0  0  0  0  0  0  0  0  0  0
   -2.2055   19.3138  -28.2659 H   0  0  0  0  0  0  0  0  0  0  0  0
   -0.4309   19.1361  -28.5128 H   0  0  0  0  0  0  0  0  0  0  0  0
   -1.7370   21.5480  -27.7660 H   0  0  0  0  0  0  0  0  0  0  0  0
   -3.1420   25.6580  -31.2110 H   0  0  0  0  0  0  0  0  0  0  0  0
   -6.5997   24.0204  -32.2107 H   0  0  0  0  0  0  0  0  0  0  0  0
   -7.5393   21.7274  -33.6621 H   0  0  0  0  0  0  0  0  0  0  0  0
   -7.2352   19.2363  -33.8821 H   0  0  0  0  0  0  0  0  0  0  0  0
   -6.1668   17.2591  -33.2636 H   0  0  0  0  0  0  0  0  0  0  0  0
   -4.2054   19.3312  -30.7470 H   0  0  0  0  0  0  0  0  0  0  0  0
  1  2  1  0
  2  3  2  0
  2  4  1  0
  4  5  1  0
  5  6  1  0
  6  7  1  0
  7  8  1  0
  5  9  1  0
  9 10  2  0
  9 11  1  0
 11 12  1  0
 12 13  1  0
 13 14  1  0
 13 15  2  0
 12 16  2  0
 16 17  1  0
 17 18  2  0
 18 19  1  0
 19 20  2  0
 20 21  1  0
 21 22  1  0
 21 23  1  0
 20 24  1  0
 24 25  2  0
 25 11  1  0
 25 17  1  0
  1 26  1  0
  4 27  1  0
  4 28  1  0
  6 29  1  0
  6 30  1  0
  7 31  1  0
  7 32  1  0
  8 33  1  0
 14 34  1  0
 16 35  1  0
 18 36  1  0
 19 37  1  0
 21 38  1  0
 24 39  1  0
M  CHG  2   1  -1  14  -1
M  END
>  <UniqueID>  (61) 
61

>  <SMILES>  (61) 
[NH-]C(=O)CN(CCO)C(=O)n1c(C([NH-])=O)cc2ccc(C(F)F)cc21

>  <Energy>  (61) 
72.74936219222084

>  <Genealogy>  (61) 
[NH-]C(=O)CN(CCO)C(=O)n1c(C([NH-])=O)cc2ccc(C(F)F)cc21 (protonated)
[NH-]C(=O)CN(CCO)C(=O)n1c(C([NH-])=O)cc2ccc(C(F)F)cc21 (3D coordinates assigned)
[NH-]C(=O)CN(CCO)C(=O)n1c(C([NH-])=O)cc2ccc(C(F)F)cc21 (optimized conformer: 72.74936219222084 kcal/mol)

>  <smiles>  (61) 
NC(=O)CN(CCO)C(=O)n1c(C(N)=O)cc2ccc(C(F)F)cc21

>  <score_type>  (61) 
oracle

>  <origin>  (61) 
adg

>  <m_score__min__energy>  (61) 
-11.67

>  <m_primary>  (61) 
energy

$$$$
63:0
     RDKit          3D

 37 38  0  0  0  0  0  0  0  0999 V2000
   -2.2213   22.7398  -31.4484 H   0  0  0  0  0  0  0  0  0  0  0  0
   -3.2770   22.9510  -31.2230 C   0  0  0  0  0  0  0  0  0  0  0  0
   -3.5980   23.9370  -30.1780 C   0  0  0  0  0  0  0  0  0  0  0  0
   -3.9610   23.5740  -29.0280 O   0  0  0  0  0  0  0  0  0  0  0  0
   -3.5010   25.2920  -30.4680 O   0  0  0  0  0  0  0  0  0  0  0  0
   -4.2270   22.3030  -31.9080 C   0  0  0  0  0  0  0  0  0  0  0  0
   -5.2823   22.5085  -31.6753 H   0  0  0  0  0  0  0  0  0  0  0  0
   -3.9090   21.3220  -32.9650 C   0  0  0  0  0  0  0  0  0  0  0  0
   -3.0170   21.5710  -33.8210 O   0  0  0  0  0  0  0  0  0  0  0  0
   -4.6080   20.0680  -33.0140 N   0  0  0  0  0  0  0  0  0  0  0  0
   -4.1020   18.8490  -33.3610 C   0  0  0  0  0  0  0  0  0  0  0  0
   -2.6790   18.5690  -33.6600 C   0  0  0  0  0  0  0  0  0  0  0  0
   -2.1140   17.5600  -33.1610 O   0  0  0  0  0  0  0  0  0  0  0  0
   -1.9320   19.4210  -34.5330 N   0  0  0  0  0  0  0  0  0  0  0  0
   -0.9400   19.1910  -34.7630 H   0  0  0  0  0  0  0  0  0  0  0  0
   -2.3400   20.3010  -34.9160 H   0  0  0  0  0  0  0  0  0  0  0  0
   -5.1020   17.8780  -33.3160 C   0  0  0  0  0  0  0  0  0  0  0  0
   -5.0003   16.8057  -33.5391 H   0  0  0  0  0  0  0  0  0  0  0  0
   -6.2440   18.5460  -32.9330 C   0  0  0  0  0  0  0  0  0  0  0  0
   -7.5350   18.0690  -32.7270 C   0  0  0  0  0  0  0  0  0  0  0  0
   -7.7734   17.0033  -32.8590 H   0  0  0  0  0  0  0  0  0  0  0  0
   -8.5250   18.9910  -32.3450 C   0  0  0  0  0  0  0  0  0  0  0  0
   -9.5510   18.6422  -32.1562 H   0  0  0  0  0  0  0  0  0  0  0  0
   -8.2130   20.3660  -32.2010 C   0  0  0  0  0  0  0  0  0  0  0  0
   -9.2690   21.3440  -31.7670 C   0  0  0  0  0  0  0  0  0  0  0  0
   -9.6931   21.0198  -30.8052 H   0  0  0  0  0  0  0  0  0  0  0  0
  -10.0615   21.3828  -32.5289 H   0  0  0  0  0  0  0  0  0  0  0  0
   -8.6700   22.7040  -31.6110 C   0  0  0  0  0  0  0  0  0  0  0  0
   -9.0490   23.6460  -32.3590 O   0  0  0  0  0  0  0  0  0  0  0  0
   -7.7310   22.9280  -30.6000 O   0  0  0  0  0  0  0  0  0  0  0  0
   -6.8720   24.0610  -30.5880 C   0  0  0  0  0  0  0  0  0  0  0  0
   -6.6558   24.3462  -29.5479 H   0  0  0  0  0  0  0  0  0  0  0  0
   -5.9321   23.8140  -31.1034 H   0  0  0  0  0  0  0  0  0  0  0  0
   -7.3635   24.8993  -31.1034 H   0  0  0  0  0  0  0  0  0  0  0  0
   -6.8910   20.8110  -32.4180 C   0  0  0  0  0  0  0  0  0  0  0  0
   -6.6310   21.8749  -32.3158 H   0  0  0  0  0  0  0  0  0  0  0  0
   -5.9200   19.8670  -32.7660 C   0  0  0  0  0  0  0  0  0  0  0  0
  1  2  1  0
  2  3  1  0
  3  4  2  0
  3  5  1  0
  2  6  2  0
  6  7  1  0
  6  8  1  0
  8  9  2  0
  8 10  1  0
 10 11  1  0
 11 12  1  0
 12 13  2  0
 12 14  1  0
 14 15  1  0
 14 16  1  0
 11 17  2  0
 17 18  1  0
 17 19  1  0
 19 20  2  0
 20 21  1  0
 20 22  1  0
 22 23  1  0
 22 24  2  0
 24 25  1  0
 25 26  1  0
 25 27  1  0
 25 28  1  0
 28 29  2  0
 28 30  1  0
 30 31  1  0
 31 32  1  0
 31 33  1  0
 31 34  1  0
 24 35  1  0
 35 36  1  0
 35 37  2  0
 37 10  1  0
 37 19  1  0
M  CHG  1   5  -1
M  END
>  <UniqueID>  (62) 
62

>  <SMILES>  (62) 
COC(=O)Cc1ccc2cc(C(N)=O)n(C(=O)/C=C/C(=O)[O-])c2c1

>  <Energy>  (62) 
70.19100789472505

>  <Genealogy>  (62) 
COC(=O)Cc1ccc2cc(C(N)=O)n(C(=O)/C=C/C(=O)[O-])c2c1 (protonated)
COC(=O)Cc1ccc2cc(C(N)=O)n(C(=O)/C=C/C(=O)[O-])c2c1 (cis-trans isomerization)
COC(=O)Cc1ccc2cc(C(N)=O)n(C(=O)/C=C/C(=O)[O-])c2c1 (3D coordinates assigned)
COC(=O)Cc1ccc2cc(C(N)=O)n(C(=O)/C=C/C(=O)[O-])c2c1 (optimized conformer: 70.19100789472505 kcal/mol)

>  <smiles>  (62) 
COC(=O)Cc1ccc2cc(C(N)=O)n(C(=O)/C=C/C(=O)O)c2c1

>  <score_type>  (62) 
oracle

>  <origin>  (62) 
adg

>  <m_score__min__energy>  (62) 
-11.029999999999999

>  <m_primary>  (62) 
energy

$$$$
65:0
     RDKit          3D

 35 36  0  0  0  0  0  0  0  0999 V2000
   -3.8820   25.5400  -30.8490 N   0  0  0  0  0  0  0  0  0  0  0  0
   -5.2240   25.2810  -30.4430 C   0  0  0  0  0  0  0  0  0  0  0  0
   -5.8220   26.1220  -29.7210 O   0  0  0  0  0  0  0  0  0  0  0  0
   -5.9030   24.0450  -30.8880 C   0  0  0  0  0  0  0  0  0  0  0  0
   -7.2870   23.9020  -30.9540 C   0  0  0  0  0  0  0  0  0  0  0  0
   -7.5010   22.6030  -31.3550 C   0  0  0  0  0  0  0  0  0  0  0  0
   -8.6930   21.9240  -31.5940 C   0  0  0  0  0  0  0  0  0  0  0  0
   -8.6150   20.5880  -32.0240 C   0  0  0  0  0  0  0  0  0  0  0  0
   -7.3560   19.9630  -32.2130 C   0  0  0  0  0  0  0  0  0  0  0  0
   -7.2760   18.5400  -32.6870 C   0  0  0  0  0  0  0  0  0  0  0  0
   -6.7600   17.7420  -31.6820 F   0  0  0  0  0  0  0  0  0  0  0  0
   -6.4550   18.4650  -33.7970 F   0  0  0  0  0  0  0  0  0  0  0  0
   -6.1700   20.6860  -31.9640 C   0  0  0  0  0  0  0  0  0  0  0  0
   -6.2780   22.0080  -31.5210 C   0  0  0  0  0  0  0  0  0  0  0  0
   -5.2860   22.8800  -31.2350 N   0  0  0  0  0  0  0  0  0  0  0  0
   -3.8730   22.6280  -31.3080 C   0  0  0  0  0  0  0  0  0  0  0  0
   -3.3280   22.4660  -32.4330 O   0  0  0  0  0  0  0  0  0  0  0  0
   -3.0320   22.5360  -30.0650 C   0  0  0  0  0  0  0  0  0  0  0  0
   -2.3780   23.7610  -29.7920 O   0  0  0  0  0  0  0  0  0  0  0  0
   -1.3730   23.5990  -28.8070 C   0  0  0  0  0  0  0  0  0  0  0  0
   -0.7600   24.9540  -28.4500 C   0  0  0  0  0  0  0  0  0  0  0  0
   -1.5810   25.9940  -28.9060 O   0  0  0  0  0  0  0  0  0  0  0  0
   -3.0770   25.2710  -30.2410 H   0  0  0  0  0  0  0  0  0  0  0  0
   -8.0475   24.6653  -30.7326 H   0  0  0  0  0  0  0  0  0  0  0  0
   -9.6655   22.4178  -31.4508 H   0  0  0  0  0  0  0  0  0  0  0  0
   -9.5387   20.0222  -32.2156 H   0  0  0  0  0  0  0  0  0  0  0  0
   -8.2850   18.1908  -32.9514 H   0  0  0  0  0  0  0  0  0  0  0  0
   -5.1846   20.2210  -32.1147 H   0  0  0  0  0  0  0  0  0  0  0  0
   -3.6789   22.2782  -29.2135 H   0  0  0  0  0  0  0  0  0  0  0  0
   -2.2661   21.7622  -30.2218 H   0  0  0  0  0  0  0  0  0  0  0  0
   -1.8168   23.1520  -27.9052 H   0  0  0  0  0  0  0  0  0  0  0  0
   -0.5849   22.9417  -29.2030 H   0  0  0  0  0  0  0  0  0  0  0  0
   -0.6537   25.0278  -27.3576 H   0  0  0  0  0  0  0  0  0  0  0  0
    0.2257   25.0389  -28.9309 H   0  0  0  0  0  0  0  0  0  0  0  0
   -2.0060   25.6740  -29.7450 H   0  0  0  0  0  0  0  0  0  0  0  0
  1  2  1  0
  2  3  2  0
  2  4  1  0
  4  5  2  0
  5  6  1  0
  6  7  2  0
  7  8  1  0
  8  9  2  0
  9 10  1  0
 10 11  1  0
 10 12  1  0
  9 13  1  0
 13 14  2  0
 14 15  1  0
 15 16  1  0
 16 17  2  0
 16 18  1  0
 18 19  1  0
 19 20  1  0
 20 21  1  0
 21 22  1  0
 15  4  1  0
 14  6  1  0
  1 23  1  0
  5 24  1  0
  7 25  1  0
  8 26  1  0
 10 27  1  0
 13 28  1  0
 18 29  1  0
 18 30  1  0
 20 31  1  0
 20 32  1  0
 21 33  1  0
 21 34  1  0
 22 35  1  0
M  CHG  1   1  -1
M  END
>  <UniqueID>  (63) 
63

>  <SMILES>  (63) 
[NH-]C(=O)c1cc2ccc(C(F)F)cc2n1C(=O)COCCO

>  <Energy>  (63) 
73.8906668020671

>  <Genealogy>  (63) 
[NH-]C(=O)c1cc2ccc(C(F)F)cc2n1C(=O)COCCO (protonated)
[NH-]C(=O)c1cc2ccc(C(F)F)cc2n1C(=O)COCCO (3D coordinates assigned)
[NH-]C(=O)c1cc2ccc(C(F)F)cc2n1C(=O)COCCO (optimized conformer: 73.8906668020671 kcal/mol)

>  <smiles>  (63) 
NC(=O)c1cc2ccc(C(F)F)cc2n1C(=O)COCCO

>  <score_type>  (63) 
oracle

>  <origin>  (63) 
adg

>  <m_score__min__energy>  (63) 
-10.039999999999999

>  <m_primary>  (63) 
energy

$$$$
66:0
     RDKit          3D

 53 54  0  0  0  0  0  0  0  0999 V2000
   -2.5510   20.9210  -29.5040 C   0  0  0  0  0  0  0  0  0  0  0  0
   -3.2340   22.0730  -29.5350 C   0  0  0  0  0  0  0  0  0  0  0  0
   -3.5120   22.8200  -28.2790 C   0  0  0  0  0  0  0  0  0  0  0  0
   -4.6450   23.3460  -28.0880 O   0  0  0  0  0  0  0  0  0  0  0  0
   -2.5040   22.9610  -27.3180 O   0  0  0  0  0  0  0  0  0  0  0  0
   -1.7450   24.1580  -27.1760 C   0  0  0  0  0  0  0  0  0  0  0  0
   -1.2910   24.6340  -28.5180 C   0  0  0  0  0  0  0  0  0  0  0  0
   -0.0910   24.4920  -28.8720 O   0  0  0  0  0  0  0  0  0  0  0  0
   -2.1920   25.2810  -29.3650 O   0  0  0  0  0  0  0  0  0  0  0  0
   -3.7400   22.5890  -30.8290 C   0  0  0  0  0  0  0  0  0  0  0  0
   -2.9190   22.9400  -31.7200 O   0  0  0  0  0  0  0  0  0  0  0  0
   -5.1530   22.6860  -31.0890 N   0  0  0  0  0  0  0  0  0  0  0  0
   -5.9680   23.7570  -30.8740 C   0  0  0  0  0  0  0  0  0  0  0  0
   -5.5230   25.0900  -30.4120 C   0  0  0  0  0  0  0  0  0  0  0  0
   -4.1810   25.5280  -30.6390 N   0  0  0  0  0  0  0  0  0  0  0  0
   -6.3200   25.8430  -29.7850 O   0  0  0  0  0  0  0  0  0  0  0  0
   -7.2800   23.4480  -31.2360 C   0  0  0  0  0  0  0  0  0  0  0  0
   -7.2430   22.1440  -31.6780 C   0  0  0  0  0  0  0  0  0  0  0  0
   -8.2590   21.3210  -32.1590 C   0  0  0  0  0  0  0  0  0  0  0  0
   -7.9250   20.0060  -32.5320 C   0  0  0  0  0  0  0  0  0  0  0  0
   -6.5930   19.5330  -32.3990 C   0  0  0  0  0  0  0  0  0  0  0  0
   -6.2570   18.1870  -32.7830 N   0  0  0  0  0  0  0  0  0  0  0  0
   -6.3990   17.1090  -31.7990 C   0  0  0  0  0  0  0  0  0  0  0  0
   -6.1330   17.8410  -34.2090 C   0  0  0  0  0  0  0  0  0  0  0  0
   -4.6760   17.9200  -34.6990 C   0  0  0  0  0  0  0  0  0  0  0  0
   -3.7600   18.2320  -33.5750 N   0  0  0  0  0  0  0  0  0  0  0  0
   -2.7510   17.1670  -33.4000 C   0  0  0  0  0  0  0  0  0  0  0  0
   -3.0850   19.5260  -33.7850 C   0  0  0  0  0  0  0  0  0  0  0  0
   -5.6000   20.3900  -31.8840 C   0  0  0  0  0  0  0  0  0  0  0  0
   -5.9500   21.7060  -31.5650 C   0  0  0  0  0  0  0  0  0  0  0  0
   -2.3501   20.3754  -30.4378 H   0  0  0  0  0  0  0  0  0  0  0  0
   -2.1911   20.5206  -28.5447 H   0  0  0  0  0  0  0  0  0  0  0  0
   -2.3693   24.9323  -26.7063 H   0  0  0  0  0  0  0  0  0  0  0  0
   -0.8658   23.9570  -26.5463 H   0  0  0  0  0  0  0  0  0  0  0  0
   -3.5110   24.9610  -31.2010 H   0  0  0  0  0  0  0  0  0  0  0  0
   -3.8640   26.4520  -30.2690 H   0  0  0  0  0  0  0  0  0  0  0  0
   -8.1588   24.1072  -31.1801 H   0  0  0  0  0  0  0  0  0  0  0  0
   -9.2922   21.6885  -32.2447 H   0  0  0  0  0  0  0  0  0  0  0  0
   -8.7031   19.3383  -32.9303 H   0  0  0  0  0  0  0  0  0  0  0  0
   -6.3436   17.5294  -30.7840 H   0  0  0  0  0  0  0  0  0  0  0  0
   -7.3704   16.6118  -31.9374 H   0  0  0  0  0  0  0  0  0  0  0  0
   -5.5895   16.3772  -31.9374 H   0  0  0  0  0  0  0  0  0  0  0  0
   -6.5026   16.8158  -34.3587 H   0  0  0  0  0  0  0  0  0  0  0  0
   -6.7246   18.5666  -34.7865 H   0  0  0  0  0  0  0  0  0  0  0  0
   -4.3905   16.9534  -35.1396 H   0  0  0  0  0  0  0  0  0  0  0  0
   -4.5988   18.7200  -35.4500 H   0  0  0  0  0  0  0  0  0  0  0  0
   -2.5851   16.9919  -32.3268 H   0  0  0  0  0  0  0  0  0  0  0  0
   -3.1103   16.2404  -33.8715 H   0  0  0  0  0  0  0  0  0  0  0  0
   -1.8064   17.4758  -33.8715 H   0  0  0  0  0  0  0  0  0  0  0  0
   -2.8488   19.9787  -32.8107 H   0  0  0  0  0  0  0  0  0  0  0  0
   -2.1550   19.3669  -34.3505 H   0  0  0  0  0  0  0  0  0  0  0  0
   -3.7476   20.1977  -34.3505 H   0  0  0  0  0  0  0  0  0  0  0  0
   -4.5707   20.0313  -31.7359 H   0  0  0  0  0  0  0  0  0  0  0  0
  1  2  2  0
  2  3  1  0
  3  4  2  0
  3  5  1  0
  5  6  1  0
  6  7  1  0
  7  8  2  0
  7  9  1  0
  2 10  1  0
 10 11  2  0
 10 12  1  0
 12 13  1  0
 13 14  1  0
 14 15  1  0
 14 16  2  0
 13 17  2  0
 17 18  1  0
 18 19  2  0
 19 20  1  0
 20 21  2  0
 21 22  1  0
 22 23  1  0
 22 24  1  0
 24 25  1  0
 25 26  1  0
 26 27  1  0
 26 28  1  0
 21 29  1  0
 29 30  2  0
 30 12  1  0
 30 18  1  0
  1 31  1  0
  1 32  1  0
  6 33  1  0
  6 34  1  0
 15 35  1  0
 15 36  1  0
 17 37  1  0
 19 38  1  0
 20 39  1  0
 23 40  1  0
 23 41  1  0
 23 42  1  0
 24 43  1  0
 24 44  1  0
 25 45  1  0
 25 46  1  0
 27 47  1  0
 27 48  1  0
 27 49  1  0
 28 50  1  0
 28 51  1  0
 28 52  1  0
 29 53  1  0
M  CHG  1   9  -1
M  END
>  <UniqueID>  (64) 
64

>  <SMILES>  (64) 
C=C(C(=O)OCC(=O)[O-])C(=O)n1c(C(N)=O)cc2ccc(N(C)CCN(C)C)cc21

>  <Energy>  (64) 
91.39832497197273

>  <Genealogy>  (64) 
C=C(C(=O)OCC(=O)[O-])C(=O)n1c(C(N)=O)cc2ccc(N(C)CCN(C)C)cc21 (protonated)
C=C(C(=O)OCC(=O)[O-])C(=O)n1c(C(N)=O)cc2ccc(N(C)CCN(C)C)cc21 (3D coordinates assigned)
C=C(C(=O)OCC(=O)[O-])C(=O)n1c(C(N)=O)cc2ccc(N(C)CCN(C)C)cc21 (optimized conformer: 91.39832497197273 kcal/mol)

>  <smiles>  (64) 
C=C(C(=O)OCC(=O)O)C(=O)n1c(C(N)=O)cc2ccc(N(C)CCN(C)C)cc21

>  <score_type>  (64) 
oracle

>  <origin>  (64) 
adg

>  <m_score__min__energy>  (64) 
-10.84

>  <m_primary>  (64) 
energy

$$$$
67:0
     RDKit          3D

 36 37  0  0  0  0  0  0  0  0999 V2000
   -3.8480   25.3000  -30.7790 N   0  0  0  0  0  0  0  0  0  0  0  0
   -4.8170   24.5640  -30.0370 C   0  0  0  0  0  0  0  0  0  0  0  0
   -5.1290   24.9510  -28.8780 O   0  0  0  0  0  0  0  0  0  0  0  0
   -5.4990   23.3930  -30.6250 C   0  0  0  0  0  0  0  0  0  0  0  0
   -6.8340   23.4050  -31.0240 C   0  0  0  0  0  0  0  0  0  0  0  0
   -7.0550   22.1740  -31.5970 C   0  0  0  0  0  0  0  0  0  0  0  0
   -8.2120   21.6450  -32.1620 C   0  0  0  0  0  0  0  0  0  0  0  0
   -8.1590   20.3320  -32.6610 C   0  0  0  0  0  0  0  0  0  0  0  0
   -6.9670   19.5710  -32.5670 C   0  0  0  0  0  0  0  0  0  0  0  0
   -6.9170   18.1790  -33.1230 C   0  0  0  0  0  0  0  0  0  0  0  0
   -5.7890   18.1200  -34.4980 Cl  0  0  0  0  0  0  0  0  0  0  0  0
   -5.8100   20.1460  -31.9980 C   0  0  0  0  0  0  0  0  0  0  0  0
   -5.8850   21.4630  -31.5270 C   0  0  0  0  0  0  0  0  0  0  0  0
   -4.9200   22.1970  -30.9300 N   0  0  0  0  0  0  0  0  0  0  0  0
   -3.5890   21.7550  -30.6180 C   0  0  0  0  0  0  0  0  0  0  0  0
   -2.6600   21.9300  -31.4520 O   0  0  0  0  0  0  0  0  0  0  0  0
   -3.3360   21.1570  -29.3760 O   0  0  0  0  0  0  0  0  0  0  0  0
   -2.6630   21.7660  -28.3100 C   0  0  0  0  0  0  0  0  0  0  0  0
   -2.0560   21.0750  -27.4460 O   0  0  0  0  0  0  0  0  0  0  0  0
   -2.6750   23.1940  -28.2080 N   0  0  0  0  0  0  0  0  0  0  0  0
   -1.9860   23.9180  -27.1410 C   0  0  0  0  0  0  0  0  0  0  0  0
   -1.6020   25.3230  -27.6090 C   0  0  0  0  0  0  0  0  0  0  0  0
   -2.0560   25.5390  -28.9170 O   0  0  0  0  0  0  0  0  0  0  0  0
   -2.8400   25.2850  -30.5080 H   0  0  0  0  0  0  0  0  0  0  0  0
   -7.5577   24.2249  -30.9059 H   0  0  0  0  0  0  0  0  0  0  0  0
   -9.1383   22.2357  -32.2162 H   0  0  0  0  0  0  0  0  0  0  0  0
   -9.0514   19.8908  -33.1290 H   0  0  0  0  0  0  0  0  0  0  0  0
   -6.5758   17.4852  -32.3406 H   0  0  0  0  0  0  0  0  0  0  0  0
   -7.9214   17.8876  -33.4641 H   0  0  0  0  0  0  0  0  0  0  0  0
   -4.8731   19.5741  -31.9263 H   0  0  0  0  0  0  0  0  0  0  0  0
   -3.2450   23.7360  -28.8950 H   0  0  0  0  0  0  0  0  0  0  0  0
   -2.6512   23.9962  -26.2684 H   0  0  0  0  0  0  0  0  0  0  0  0
   -1.0710   23.3698  -26.8721 H   0  0  0  0  0  0  0  0  0  0  0  0
   -2.0582   26.0664  -26.9388 H   0  0  0  0  0  0  0  0  0  0  0  0
   -0.5065   25.4208  -27.5888 H   0  0  0  0  0  0  0  0  0  0  0  0
   -3.0380   25.4000  -28.9030 H   0  0  0  0  0  0  0  0  0  0  0  0
  1  2  1  0
  2  3  2  0
  2  4  1  0
  4  5  2  0
  5  6  1  0
  6  7  2  0
  7  8  1  0
  8  9  2  0
  9 10  1  0
 10 11  1  0
  9 12  1  0
 12 13  2  0
 13 14  1  0
 14 15  1  0
 15 16  2  0
 15 17  1  0
 17 18  1  0
 18 19  2  0
 18 20  1  0
 20 21  1  0
 21 22  1  0
 22 23  1  0
 14  4  1  0
 13  6  1  0
  1 24  1  0
  5 25  1  0
  7 26  1  0
  8 27  1  0
 10 28  1  0
 10 29  1  0
 12 30  1  0
 20 31  1  0
 21 32  1  0
 21 33  1  0
 22 34  1  0
 22 35  1  0
 23 36  1  0
M  CHG  1   1  -1
M  END
>  <UniqueID>  (65) 
65

>  <SMILES>  (65) 
[NH-]C(=O)c1cc2ccc(CCl)cc2n1C(=O)OC(=O)NCCO

>  <Energy>  (65) 
70.54249954287589

>  <Genealogy>  (65) 
[NH-]C(=O)c1cc2ccc(CCl)cc2n1C(=O)OC(=O)NCCO (protonated)
[NH-]C(=O)c1cc2ccc(CCl)cc2n1C(=O)OC(=O)NCCO (3D coordinates assigned)
[NH-]C(=O)c1cc2ccc(CCl)cc2n1C(=O)OC(=O)NCCO (optimized conformer: 70.54249954287589 kcal/mol)

>  <smiles>  (65) 
NC(=O)c1cc2ccc(CCl)cc2n1C(=O)OC(=O)NCCO

>  <score_type>  (65) 
oracle

>  <origin>  (65) 
adg

>  <m_score__min__energy>  (65) 
-10.4

>  <m_primary>  (65) 
energy

$$$$
68:0
     RDKit          3D

 51 52  0  0  0  0  0  0  0  0999 V2000
   -2.9120   20.9240  -33.4510 C   0  0  0  0  0  0  0  0  0  0  0  0
   -2.7690   19.4150  -33.6210 C   0  0  0  0  0  0  0  0  0  0  0  0
   -3.7480   18.9220  -34.5320 O   0  0  0  0  0  0  0  0  0  0  0  0
   -5.0180   18.4810  -34.1380 C   0  0  0  0  0  0  0  0  0  0  0  0
   -6.0080   18.6130  -34.9090 O   0  0  0  0  0  0  0  0  0  0  0  0
   -5.2320   17.9130  -32.7620 C   0  0  0  0  0  0  0  0  0  0  0  0
   -6.6200   18.2360  -32.1810 C   0  0  0  0  0  0  0  0  0  0  0  0
   -6.8280   19.7150  -31.9730 C   0  0  0  0  0  0  0  0  0  0  0  0
   -8.1070   20.2950  -32.1700 C   0  0  0  0  0  0  0  0  0  0  0  0
   -8.3090   21.6720  -31.9680 C   0  0  0  0  0  0  0  0  0  0  0  0
   -7.2150   22.4440  -31.5850 C   0  0  0  0  0  0  0  0  0  0  0  0
   -7.1340   23.7840  -31.2790 C   0  0  0  0  0  0  0  0  0  0  0  0
   -5.8060   23.9980  -30.9100 C   0  0  0  0  0  0  0  0  0  0  0  0
   -5.2620   25.3130  -30.5100 C   0  0  0  0  0  0  0  0  0  0  0  0
   -3.9220   25.6620  -30.8530 N   0  0  0  0  0  0  0  0  0  0  0  0
   -5.9630   26.1290  -29.8570 O   0  0  0  0  0  0  0  0  0  0  0  0
   -5.0950   22.8430  -31.0020 N   0  0  0  0  0  0  0  0  0  0  0  0
   -3.7320   22.6140  -30.6160 C   0  0  0  0  0  0  0  0  0  0  0  0
   -2.8030   23.0090  -31.3730 O   0  0  0  0  0  0  0  0  0  0  0  0
   -3.4160   21.9540  -29.3720 N   0  0  0  0  0  0  0  0  0  0  0  0
   -2.7480   20.6500  -29.4070 C   0  0  0  0  0  0  0  0  0  0  0  0
   -3.8700   22.5120  -28.0900 C   0  0  0  0  0  0  0  0  0  0  0  0
   -3.6540   24.0310  -28.0660 C   0  0  0  0  0  0  0  0  0  0  0  0
   -2.1660   24.3810  -28.1460 C   0  0  0  0  0  0  0  0  0  0  0  0
   -1.9170   25.1820  -29.2730 O   0  0  0  0  0  0  0  0  0  0  0  0
   -5.9700   21.9000  -31.4090 C   0  0  0  0  0  0  0  0  0  0  0  0
   -5.7420   20.5320  -31.5880 C   0  0  0  0  0  0  0  0  0  0  0  0
   -2.9355   21.1717  -32.3795 H   0  0  0  0  0  0  0  0  0  0  0  0
   -2.0577   21.4290  -33.9254 H   0  0  0  0  0  0  0  0  0  0  0  0
   -3.8460   21.2596  -33.9254 H   0  0  0  0  0  0  0  0  0  0  0  0
   -1.7654   19.1877  -34.0097 H   0  0  0  0  0  0  0  0  0  0  0  0
   -2.9151   18.9308  -32.6442 H   0  0  0  0  0  0  0  0  0  0  0  0
   -5.1207   16.8199  -32.8140 H   0  0  0  0  0  0  0  0  0  0  0  0
   -4.4851   18.3738  -32.0988 H   0  0  0  0  0  0  0  0  0  0  0  0
   -7.3883   17.8658  -32.8758 H   0  0  0  0  0  0  0  0  0  0  0  0
   -6.6939   17.7463  -31.1988 H   0  0  0  0  0  0  0  0  0  0  0  0
   -8.9496   19.6614  -32.4840 H   0  0  0  0  0  0  0  0  0  0  0  0
   -9.3012   22.1256  -32.1083 H   0  0  0  0  0  0  0  0  0  0  0  0
   -7.9439   24.5273  -31.3174 H   0  0  0  0  0  0  0  0  0  0  0  0
   -3.1290   25.0120  -30.6520 H   0  0  0  0  0  0  0  0  0  0  0  0
   -2.5696   20.3017  -28.3790 H   0  0  0  0  0  0  0  0  0  0  0  0
   -3.3859   19.9253  -29.9342 H   0  0  0  0  0  0  0  0  0  0  0  0
   -1.7872   20.7443  -29.9342 H   0  0  0  0  0  0  0  0  0  0  0  0
   -4.9404   22.2952  -27.9582 H   0  0  0  0  0  0  0  0  0  0  0  0
   -3.2906   22.0545  -27.2745 H   0  0  0  0  0  0  0  0  0  0  0  0
   -4.1748   24.4809  -28.9241 H   0  0  0  0  0  0  0  0  0  0  0  0
   -4.0534   24.4242  -27.1195 H   0  0  0  0  0  0  0  0  0  0  0  0
   -1.8721   24.9288  -27.2385 H   0  0  0  0  0  0  0  0  0  0  0  0
   -1.5823   23.4523  -28.2290 H   0  0  0  0  0  0  0  0  0  0  0  0
   -2.1520   24.6320  -30.0700 H   0  0  0  0  0  0  0  0  0  0  0  0
   -4.7412   20.1026  -31.4328 H   0  0  0  0  0  0  0  0  0  0  0  0
  1  2  1  0
  2  3  1  0
  3  4  1  0
  4  5  2  0
  4  6  1  0
  6  7  1  0
  7  8  1  0
  8  9  2  0
  9 10  1  0
 10 11  2  0
 11 12  1  0
 12 13  2  0
 13 14  1  0
 14 15  1  0
 14 16  2  0
 13 17  1  0
 17 18  1  0
 18 19  2  0
 18 20  1  0
 20 21  1  0
 20 22  1  0
 22 23  1  0
 23 24  1  0
 24 25  1  0
 17 26  1  0
 26 27  2  0
 27  8  1  0
 26 11  1  0
  1 28  1  0
  1 29  1  0
  1 30  1  0
  2 31  1  0
  2 32  1  0
  6 33  1  0
  6 34  1  0
  7 35  1  0
  7 36  1  0
  9 37  1  0
 10 38  1  0
 12 39  1  0
 15 40  1  0
 21 41  1  0
 21 42  1  0
 21 43  1  0
 22 44  1  0
 22 45  1  0
 23 46  1  0
 23 47  1  0
 24 48  1  0
 24 49  1  0
 25 50  1  0
 27 51  1  0
M  CHG  1  15  -1
M  END
>  <UniqueID>  (66) 
66

>  <SMILES>  (66) 
CCOC(=O)CCc1ccc2cc(C([NH-])=O)n(C(=O)N(C)CCCO)c2c1

>  <Energy>  (66) 
76.02996570972907

>  <Genealogy>  (66) 
CCOC(=O)CCc1ccc2cc(C([NH-])=O)n(C(=O)N(C)CCCO)c2c1 (protonated)
CCOC(=O)CCc1ccc2cc(C([NH-])=O)n(C(=O)N(C)CCCO)c2c1 (3D coordinates assigned)
CCOC(=O)CCc1ccc2cc(C([NH-])=O)n(C(=O)N(C)CCCO)c2c1 (optimized conformer: 76.02996570972907 kcal/mol)

>  <smiles>  (66) 
CCOC(=O)CCc1ccc2cc(C(N)=O)n(C(=O)N(C)CCCO)c2c1

>  <score_type>  (66) 
oracle

>  <origin>  (66) 
adg

>  <m_score__min__energy>  (66) 
-10.44

>  <m_primary>  (66) 
energy

$$$$
69:0
     RDKit          3D

 54 56  0  0  0  0  0  0  0  0999 V2000
   -0.3120   21.7160  -30.9930 C   0  0  0  0  0  0  0  0  0  0  0  0
   -1.0200   20.5850  -30.3890 N   0  0  0  0  0  0  0  0  0  0  0  0
   -0.8180   19.2380  -30.9330 C   0  0  0  0  0  0  0  0  0  0  0  0
   -1.7710   18.9860  -32.0590 C   0  0  0  0  0  0  0  0  0  0  0  0
   -1.7260   17.9020  -32.7010 O   0  0  0  0  0  0  0  0  0  0  0  0
   -2.7380   19.9340  -32.3770 O   0  0  0  0  0  0  0  0  0  0  0  0
   -2.1270   20.8330  -29.5040 C   0  0  0  0  0  0  0  0  0  0  0  0
   -2.3920   19.9850  -28.6070 O   0  0  0  0  0  0  0  0  0  0  0  0
   -2.9320   22.0280  -29.6130 N   0  0  0  0  0  0  0  0  0  0  0  0
   -3.0640   22.9090  -28.4390 C   0  0  0  0  0  0  0  0  0  0  0  0
   -2.0610   24.0680  -28.5140 C   0  0  0  0  0  0  0  0  0  0  0  0
   -2.7300   25.2800  -28.2680 O   0  0  0  0  0  0  0  0  0  0  0  0
   -1.4480   24.1170  -29.7760 O   0  0  0  0  0  0  0  0  0  0  0  0
   -3.5380   22.4080  -30.8670 C   0  0  0  0  0  0  0  0  0  0  0  0
   -2.8270   22.6700  -31.8720 O   0  0  0  0  0  0  0  0  0  0  0  0
   -4.9550   22.5960  -30.9630 N   0  0  0  0  0  0  0  0  0  0  0  0
   -5.6750   23.7150  -30.6850 C   0  0  0  0  0  0  0  0  0  0  0  0
   -5.1110   25.0220  -30.2900 C   0  0  0  0  0  0  0  0  0  0  0  0
   -3.8890   25.4740  -30.8730 N   0  0  0  0  0  0  0  0  0  0  0  0
   -5.7080   25.7500  -29.4540 O   0  0  0  0  0  0  0  0  0  0  0  0
   -7.0380   23.4650  -30.8370 C   0  0  0  0  0  0  0  0  0  0  0  0
   -7.1240   22.1350  -31.1970 C   0  0  0  0  0  0  0  0  0  0  0  0
   -8.2390   21.3360  -31.4380 C   0  0  0  0  0  0  0  0  0  0  0  0
   -8.0220   19.9840  -31.7570 C   0  0  0  0  0  0  0  0  0  0  0  0
   -6.7070   19.4570  -31.8200 C   0  0  0  0  0  0  0  0  0  0  0  0
   -6.4900   18.0170  -32.1940 C   0  0  0  0  0  0  0  0  0  0  0  0
   -5.6640   17.9340  -33.3950 N   0  0  0  0  0  0  0  0  0  0  0  0
   -6.0490   17.4520  -34.5930 C   0  0  0  0  0  0  0  0  0  0  0  0
   -4.9560   17.4520  -35.4370 C   0  0  0  0  0  0  0  0  0  0  0  0
   -3.9140   17.9450  -34.6710 C   0  0  0  0  0  0  0  0  0  0  0  0
   -4.3730   18.2240  -33.4390 N   0  0  0  0  0  0  0  0  0  0  0  0
   -5.6020   20.3010  -31.5840 C   0  0  0  0  0  0  0  0  0  0  0  0
   -5.8510   21.6390  -31.2660 C   0  0  0  0  0  0  0  0  0  0  0  0
    0.0922   22.3616  -30.1994 H   0  0  0  0  0  0  0  0  0  0  0  0
    0.5131   21.3413  -31.6166 H   0  0  0  0  0  0  0  0  0  0  0  0
   -1.0095   22.2944  -31.6166 H   0  0  0  0  0  0  0  0  0  0  0  0
    0.2138   19.1468  -31.3032 H   0  0  0  0  0  0  0  0  0  0  0  0
   -0.9990   18.4995  -30.1381 H   0  0  0  0  0  0  0  0  0  0  0  0
   -4.0851   23.3168  -28.4068 H   0  0  0  0  0  0  0  0  0  0  0  0
   -2.8583   22.3219  -27.5318 H   0  0  0  0  0  0  0  0  0  0  0  0
   -1.2815   23.9086  -27.7544 H   0  0  0  0  0  0  0  0  0  0  0  0
   -3.6180   25.2280  -28.7090 H   0  0  0  0  0  0  0  0  0  0  0  0
   -2.1700   24.2090  -30.4510 H   0  0  0  0  0  0  0  0  0  0  0  0
   -2.9760   25.2960  -30.4020 H   0  0  0  0  0  0  0  0  0  0  0  0
   -7.8669   24.1750  -30.6996 H   0  0  0  0  0  0  0  0  0  0  0  0
   -9.2567   21.7494  -31.3806 H   0  0  0  0  0  0  0  0  0  0  0  0
   -8.8814   19.3280  -31.9599 H   0  0  0  0  0  0  0  0  0  0  0  0
   -5.9839   17.4977  -31.3668 H   0  0  0  0  0  0  0  0  0  0  0  0
   -7.4632   17.5435  -32.3907 H   0  0  0  0  0  0  0  0  0  0  0  0
   -7.0630   17.1153  -34.8546 H   0  0  0  0  0  0  0  0  0  0  0  0
   -4.9211   17.1304  -36.4884 H   0  0  0  0  0  0  0  0  0  0  0  0
   -2.8786   18.0856  -35.0147 H   0  0  0  0  0  0  0  0  0  0  0  0
   -3.8110   18.5880  -32.6370 H   0  0  0  0  0  0  0  0  0  0  0  0
   -4.5732   19.9170  -31.6484 H   0  0  0  0  0  0  0  0  0  0  0  0
  1  2  1  0
  2  3  1  0
  3  4  1  0
  4  5  2  0
  4  6  1  0
  2  7  1  0
  7  8  2  0
  7  9  1  0
  9 10  1  0
 10 11  1  0
 11 12  1  0
 11 13  1  0
  9 14  1  0
 14 15  2  0
 14 16  1  0
 16 17  1  0
 17 18  1  0
 18 19  1  0
 18 20  2  0
 17 21  2  0
 21 22  1  0
 22 23  2  0
 23 24  1  0
 24 25  2  0
 25 26  1  0
 26 27  1  0
 27 28  1  0
 28 29  2  0
 29 30  1  0
 30 31  2  0
 25 32  1  0
 32 33  2  0
 33 16  1  0
 33 22  1  0
 31 27  1  0
  1 34  1  0
  1 35  1  0
  1 36  1  0
  3 37  1  0
  3 38  1  0
 10 39  1  0
 10 40  1  0
 11 41  1  0
 12 42  1  0
 13 43  1  0
 19 44  1  0
 21 45  1  0
 23 46  1  0
 24 47  1  0
 26 48  1  0
 26 49  1  0
 28 50  1  0
 29 51  1  0
 30 52  1  0
 31 53  1  0
 32 54  1  0
M  CHG  3   6  -1  19  -1  31   1
M  END
>  <UniqueID>  (67) 
67

>  <SMILES>  (67) 
CN(CC(=O)[O-])C(=O)N(CC(O)O)C(=O)n1c(C([NH-])=O)cc2ccc(Cn3ccc[nH+]3)cc21

>  <Energy>  (67) 
128.52718498452037

>  <Genealogy>  (67) 
CN(CC(=O)[O-])C(=O)N(CC(O)O)C(=O)n1c(C([NH-])=O)cc2ccc(Cn3ccc[nH+]3)cc21 (protonated)
CN(CC(=O)[O-])C(=O)N(CC(O)O)C(=O)n1c(C([NH-])=O)cc2ccc(Cn3ccc[nH+]3)cc21 (3D coordinates assigned)
CN(CC(=O)[O-])C(=O)N(CC(O)O)C(=O)n1c(C([NH-])=O)cc2ccc(Cn3ccc[nH+]3)cc21 (optimized conformer: 128.52718498452037 kcal/mol)

>  <smiles>  (67) 
CN(CC(=O)O)C(=O)N(CC([O-])O)C(=O)n1c(C(N)=O)cc2ccc(Cn3cccn3)cc21

>  <score_type>  (67) 
oracle

>  <origin>  (67) 
adg

>  <m_score__min__energy>  (67) 
-12.84

>  <m_primary>  (67) 
energy

$$$$
70:0
     RDKit          3D

 45 47  0  0  0  0  0  0  0  0999 V2000
    0.9560   26.9770  -23.3490 C   0  0  0  0  0  0  0  0  0  0  0  0
   -0.7760   26.8570  -23.7270 S   0  0  0  0  0  0  0  0  0  0  0  0
   -1.2670   28.2120  -24.5900 O   0  0  0  0  0  0  0  0  0  0  0  0
   -1.1190   25.3830  -24.6690 C   0  0  0  0  0  0  0  0  0  0  0  0
   -1.9310   25.6920  -25.8000 O   0  0  0  0  0  0  0  0  0  0  0  0
   -2.2420   24.8050  -26.8430 C   0  0  0  0  0  0  0  0  0  0  0  0
   -1.2920   24.3920  -27.7970 C   0  0  0  0  0  0  0  0  0  0  0  0
   -1.6530   23.5070  -28.8160 C   0  0  0  0  0  0  0  0  0  0  0  0
   -2.9570   23.0050  -28.8910 C   0  0  0  0  0  0  0  0  0  0  0  0
   -3.2890   22.1140  -29.9670 N   0  0  0  0  0  0  0  0  0  0  0  0
   -3.9630   22.4600  -31.1840 C   0  0  0  0  0  0  0  0  0  0  0  0
   -3.3320   22.5090  -32.2750 O   0  0  0  0  0  0  0  0  0  0  0  0
   -5.3640   22.7720  -31.1590 N   0  0  0  0  0  0  0  0  0  0  0  0
   -5.9550   23.9430  -30.7890 C   0  0  0  0  0  0  0  0  0  0  0  0
   -5.2580   25.2140  -30.5040 C   0  0  0  0  0  0  0  0  0  0  0  0
   -3.8590   25.3520  -30.7350 N   0  0  0  0  0  0  0  0  0  0  0  0
   -5.9160   26.2100  -30.0980 O   0  0  0  0  0  0  0  0  0  0  0  0
   -7.3420   23.8130  -30.7920 C   0  0  0  0  0  0  0  0  0  0  0  0
   -7.5850   22.5180  -31.1890 C   0  0  0  0  0  0  0  0  0  0  0  0
   -8.7910   21.8410  -31.3430 C   0  0  0  0  0  0  0  0  0  0  0  0
   -8.7440   20.4910  -31.7280 C   0  0  0  0  0  0  0  0  0  0  0  0
   -7.5020   19.8450  -31.9620 C   0  0  0  0  0  0  0  0  0  0  0  0
   -7.4630   18.3800  -32.3150 C   0  0  0  0  0  0  0  0  0  0  0  0
   -8.7350   17.8360  -32.2860 F   0  0  0  0  0  0  0  0  0  0  0  0
   -6.9430   18.1960  -33.5840 F   0  0  0  0  0  0  0  0  0  0  0  0
   -6.6660   17.7130  -31.4010 F   0  0  0  0  0  0  0  0  0  0  0  0
   -6.2970   20.5630  -31.7710 C   0  0  0  0  0  0  0  0  0  0  0  0
   -6.3760   21.9110  -31.4040 C   0  0  0  0  0  0  0  0  0  0  0  0
   -3.9120   23.4310  -27.9540 C   0  0  0  0  0  0  0  0  0  0  0  0
   -3.5520   24.3180  -26.9340 C   0  0  0  0  0  0  0  0  0  0  0  0
   -4.4860   24.7190  -26.0360 F   0  0  0  0  0  0  0  0  0  0  0  0
    1.0933   26.9865  -22.2576 H   0  0  0  0  0  0  0  0  0  0  0  0
    1.4855   26.1134  -23.7777 H   0  0  0  0  0  0  0  0  0  0  0  0
    1.3614   27.9054  -23.7777 H   0  0  0  0  0  0  0  0  0  0  0  0
   -2.0150   27.8880  -25.1530 H   0  0  0  0  0  0  0  0  0  0  0  0
   -0.1708   24.9441  -25.0129 H   0  0  0  0  0  0  0  0  0  0  0  0
   -1.6569   24.6682  -24.0289 H   0  0  0  0  0  0  0  0  0  0  0  0
   -0.2600   24.7683  -27.7396 H   0  0  0  0  0  0  0  0  0  0  0  0
   -0.9068   23.2026  -29.5647 H   0  0  0  0  0  0  0  0  0  0  0  0
   -3.2990   24.5640  -31.1310 H   0  0  0  0  0  0  0  0  0  0  0  0
   -8.0847   24.5817  -30.5323 H   0  0  0  0  0  0  0  0  0  0  0  0
   -9.7517   22.3476  -31.1686 H   0  0  0  0  0  0  0  0  0  0  0  0
   -9.6809   19.9277  -31.8496 H   0  0  0  0  0  0  0  0  0  0  0  0
   -5.3218   20.0729  -31.9078 H   0  0  0  0  0  0  0  0  0  0  0  0
   -4.9474   23.0658  -28.0223 H   0  0  0  0  0  0  0  0  0  0  0  0
  1  2  1  0
  2  3  1  6
  2  4  1  0
  4  5  1  0
  5  6  1  0
  6  7  2  0
  7  8  1  0
  8  9  2  0
  9 10  1  0
 10 11  1  0
 11 12  2  0
 11 13  1  0
 13 14  1  0
 14 15  1  0
 15 16  1  0
 15 17  2  0
 14 18  2  0
 18 19  1  0
 19 20  2  0
 20 21  1  0
 21 22  2  0
 22 23  1  0
 23 24  1  0
 23 25  1  0
 23 26  1  0
 22 27  1  0
 27 28  2  0
  9 29  1  0
 29 30  2  0
 30 31  1  0
 30  6  1  0
 28 13  1  0
 28 19  1  0
  1 32  1  0
  1 33  1  0
  1 34  1  0
  3 35  1  0
  4 36  1  0
  4 37  1  0
  7 38  1  0
  8 39  1  0
 16 40  1  0
 18 41  1  0
 20 42  1  0
 21 43  1  0
 27 44  1  0
 29 45  1  0
M  CHG  3   2   1  10  -1  16  -1
M  END
>  <UniqueID>  (68) 
68

>  <SMILES>  (68) 
C[S@@+](O)COc1ccc([N-]C(=O)n2c(C([NH-])=O)cc3ccc(C(F)(F)F)cc32)cc1F

>  <Energy>  (68) 
85.00217580310053

>  <Genealogy>  (68) 
C[S+](O)COc1ccc([N-]C(=O)n2c(C([NH-])=O)cc3ccc(C(F)(F)F)cc32)cc1F (protonated)
C[S@@+](O)COc1ccc([N-]C(=O)n2c(C([NH-])=O)cc3ccc(C(F)(F)F)cc32)cc1F (chirality)
C[S@@+](O)COc1ccc([N-]C(=O)n2c(C([NH-])=O)cc3ccc(C(F)(F)F)cc32)cc1F (3D coordinates assigned)
C[S@@+](O)COc1ccc([N-]C(=O)n2c(C([NH-])=O)cc3ccc(C(F)(F)F)cc32)cc1F (optimized conformer: 85.00217580310053 kcal/mol)

>  <smiles>  (68) 
C[S+]([O-])COc1ccc(NC(=O)n2c(C(N)=O)cc3ccc(C(F)(F)F)cc32)cc1F

>  <score_type>  (68) 
oracle

>  <origin>  (68) 
adg

>  <m_score__min__energy>  (68) 
-11.720000000000001

>  <m_primary>  (68) 
energy

$$$$
71:0
     RDKit          3D

 47 48  0  0  0  0  0  0  0  0999 V2000
   -2.4570   20.5690  -30.3260 C   0  0  0  0  0  0  0  0  0  0  0  0
   -3.3230   21.6850  -29.9350 N   0  0  0  0  0  0  0  0  0  0  0  0
   -3.5370   21.9880  -28.5100 C   0  0  0  0  0  0  0  0  0  0  0  0
   -2.3740   22.7570  -27.9320 C   0  0  0  0  0  0  0  0  0  0  0  0
   -1.5090   22.1600  -27.3040 O   0  0  0  0  0  0  0  0  0  0  0  0
   -2.3240   24.2030  -28.0430 N   0  0  2  0  0  0  0  0  0  0  0  0
   -0.9830   24.6160  -28.4920 C   0  0  0  0  0  0  0  0  0  0  0  0
   -2.6960   24.8100  -26.7430 C   0  0  0  0  0  0  0  0  0  0  0  0
   -4.2200   24.9310  -26.5450 C   0  0  0  0  0  0  0  0  0  0  0  0
   -4.9050   24.7170  -27.7500 O   0  0  0  0  0  0  0  0  0  0  0  0
   -3.8970   22.5180  -30.9640 C   0  0  0  0  0  0  0  0  0  0  0  0
   -3.1710   22.9540  -31.9000 O   0  0  0  0  0  0  0  0  0  0  0  0
   -5.2920   22.8560  -30.9510 N   0  0  0  0  0  0  0  0  0  0  0  0
   -5.8470   24.0820  -30.7460 C   0  0  0  0  0  0  0  0  0  0  0  0
   -5.1110   25.3060  -30.3650 C   0  0  0  0  0  0  0  0  0  0  0  0
   -3.6880   25.2810  -30.2730 N   0  0  0  0  0  0  0  0  0  0  0  0
   -5.7240   26.3810  -30.1330 O   0  0  0  0  0  0  0  0  0  0  0  0
   -7.2300   24.0230  -30.9090 C   0  0  0  0  0  0  0  0  0  0  0  0
   -7.5020   22.7110  -31.2360 C   0  0  0  0  0  0  0  0  0  0  0  0
   -8.7110   22.0950  -31.5420 C   0  0  0  0  0  0  0  0  0  0  0  0
   -8.6850   20.7320  -31.8830 C   0  0  0  0  0  0  0  0  0  0  0  0
   -7.4620   20.0100  -31.9090 C   0  0  0  0  0  0  0  0  0  0  0  0
   -7.4460   18.5670  -32.3410 C   0  0  0  0  0  0  0  0  0  0  0  0
   -6.6610   17.8400  -31.4650 F   0  0  0  0  0  0  0  0  0  0  0  0
   -6.9250   18.4490  -33.6180 F   0  0  0  0  0  0  0  0  0  0  0  0
   -8.7240   18.0380  -32.3440 F   0  0  0  0  0  0  0  0  0  0  0  0
   -6.2540   20.6820  -31.6150 C   0  0  0  0  0  0  0  0  0  0  0  0
   -6.3130   22.0330  -31.2620 C   0  0  0  0  0  0  0  0  0  0  0  0
   -2.0708   20.0712  -29.4243 H   0  0  0  0  0  0  0  0  0  0  0  0
   -3.0347   19.8485  -30.9236 H   0  0  0  0  0  0  0  0  0  0  0  0
   -1.6156   20.9497  -30.9236 H   0  0  0  0  0  0  0  0  0  0  0  0
   -4.4519   22.5896  -28.4051 H   0  0  0  0  0  0  0  0  0  0  0  0
   -3.6310   21.0380  -27.9634 H   0  0  0  0  0  0  0  0  0  0  0  0
   -3.0160   24.5110  -28.7670 H   0  0  0  0  0  0  0  0  0  0  0  0
   -0.3472   24.8118  -27.6160 H   0  0  0  0  0  0  0  0  0  0  0  0
   -0.5359   23.8139  -29.0976 H   0  0  0  0  0  0  0  0  0  0  0  0
   -1.0646   25.5306  -29.0976 H   0  0  0  0  0  0  0  0  0  0  0  0
   -2.2867   24.1854  -25.9353 H   0  0  0  0  0  0  0  0  0  0  0  0
   -2.2817   25.8288  -26.7267 H   0  0  0  0  0  0  0  0  0  0  0  0
   -4.5470   24.1825  -25.8082 H   0  0  0  0  0  0  0  0  0  0  0  0
   -4.4463   25.9475  -26.1906 H   0  0  0  0  0  0  0  0  0  0  0  0
   -4.7390   25.5150  -28.3170 H   0  0  0  0  0  0  0  0  0  0  0  0
   -3.1040   24.9760  -31.0820 H   0  0  0  0  0  0  0  0  0  0  0  0
   -7.9506   24.8469  -30.8001 H   0  0  0  0  0  0  0  0  0  0  0  0
   -9.6566   22.6565  -31.5179 H   0  0  0  0  0  0  0  0  0  0  0  0
   -9.6244   20.2173  -32.1332 H   0  0  0  0  0  0  0  0  0  0  0  0
   -5.2901   20.1542  -31.6629 H   0  0  0  0  0  0  0  0  0  0  0  0
  1  2  1  0
  2  3  1  0
  3  4  1  0
  4  5  2  0
  4  6  1  0
  6  7  1  0
  6  8  1  0
  8  9  1  0
  9 10  1  0
  2 11  1  0
 11 12  2  0
 11 13  1  0
 13 14  1  0
 14 15  1  0
 15 16  1  0
 15 17  2  0
 14 18  2  0
 18 19  1  0
 19 20  2  0
 20 21  1  0
 21 22  2  0
 22 23  1  0
 23 24  1  0
 23 25  1  0
 23 26  1  0
 22 27  1  0
 27 28  2  0
 28 13  1  0
 28 19  1  0
  1 29  1  0
  1 30  1  0
  1 31  1  0
  3 32  1  0
  3 33  1  0
  6 34  1  6
  7 35  1  0
  7 36  1  0
  7 37  1  0
  8 38  1  0
  8 39  1  0
  9 40  1  0
  9 41  1  0
 10 42  1  0
 16 43  1  0
 18 44  1  0
 20 45  1  0
 21 46  1  0
 27 47  1  0
M  CHG  2   6   1  16  -1
M  END
>  <UniqueID>  (69) 
69

>  <SMILES>  (69) 
CN(CC(=O)[N@H+](C)CCO)C(=O)n1c(C([NH-])=O)cc2ccc(C(F)(F)F)cc21

>  <Energy>  (69) 
83.51120934717385

>  <Genealogy>  (69) 
CN(CC(=O)[NH+](C)CCO)C(=O)n1c(C([NH-])=O)cc2ccc(C(F)(F)F)cc21 (protonated)
CN(CC(=O)[N@H+](C)CCO)C(=O)n1c(C([NH-])=O)cc2ccc(C(F)(F)F)cc21 (chirality)
CN(CC(=O)[N@H+](C)CCO)C(=O)n1c(C([NH-])=O)cc2ccc(C(F)(F)F)cc21 (3D coordinates assigned)
CN(CC(=O)[N@H+](C)CCO)C(=O)n1c(C([NH-])=O)cc2ccc(C(F)(F)F)cc21 (optimized conformer: 83.51120934717385 kcal/mol)

>  <smiles>  (69) 
CN(CCO)C(=O)CN(C)C(=O)n1c(C(N)=O)cc2ccc(C(F)(F)F)cc21

>  <score_type>  (69) 
oracle

>  <origin>  (69) 
adg

>  <m_score__min__energy>  (69) 
-8.8800000000000008

>  <m_primary>  (69) 
energy

$$$$
72:0
     RDKit          3D

 41 44  0  0  0  0  0  0  0  0999 V2000
   -3.9150   25.6750  -30.8770 N   0  0  0  0  0  0  0  0  0  0  0  0
   -5.1810   25.1100  -30.5440 C   0  0  0  0  0  0  0  0  0  0  0  0
   -5.9930   25.7820  -29.8540 O   0  0  0  0  0  0  0  0  0  0  0  0
   -5.5730   23.7750  -31.0410 C   0  0  0  0  0  0  0  0  0  0  0  0
   -6.8880   23.4280  -31.3430 C   0  0  0  0  0  0  0  0  0  0  0  0
   -6.8220   22.1520  -31.8540 C   0  0  0  0  0  0  0  0  0  0  0  0
   -7.8380   21.3170  -32.3070 C   0  0  0  0  0  0  0  0  0  0  0  0
   -7.4850   20.0340  -32.7560 C   0  0  0  0  0  0  0  0  0  0  0  0
   -6.1320   19.6040  -32.7380 C   0  0  0  0  0  0  0  0  0  0  0  0
   -5.7730   18.2400  -33.2040 C   0  0  0  0  0  0  0  0  0  0  0  0
   -6.7290   17.2090  -33.1960 C   0  0  0  0  0  0  0  0  0  0  0  0
   -6.3920   15.9260  -33.6340 C   0  0  0  0  0  0  0  0  0  0  0  0
   -5.0900   15.6420  -34.0740 C   0  0  0  0  0  0  0  0  0  0  0  0
   -4.7230   14.2920  -34.5520 C   0  0  0  0  0  0  0  0  0  0  0  0
   -4.0910   14.1760  -35.6340 O   0  0  0  0  0  0  0  0  0  0  0  0
   -5.0360   13.1050  -33.8120 N   0  0  0  0  0  0  0  0  0  0  0  0
   -4.2670   12.6170  -32.6730 C   0  0  0  0  0  0  0  0  0  0  0  0
   -3.3250   13.6480  -32.0790 C   0  0  0  0  0  0  0  0  0  0  0  0
   -4.6370   13.3260  -31.3830 C   0  0  0  0  0  0  0  0  0  0  0  0
   -4.1400   16.6750  -34.1030 C   0  0  0  0  0  0  0  0  0  0  0  0
   -4.4750   17.9590  -33.6650 C   0  0  0  0  0  0  0  0  0  0  0  0
   -5.1290   20.4850  -32.2680 C   0  0  0  0  0  0  0  0  0  0  0  0
   -5.5070   21.7640  -31.8440 C   0  0  0  0  0  0  0  0  0  0  0  0
   -4.7270   22.7500  -31.3460 N   0  0  0  0  0  0  0  0  0  0  0  0
   -3.3120   22.6740  -31.1090 C   0  0  0  0  0  0  0  0  0  0  0  0
   -2.5520   22.1430  -31.9610 O   0  0  0  0  0  0  0  0  0  0  0  0
   -2.7650   23.2080  -29.9490 O   0  0  0  0  0  0  0  0  0  0  0  0
   -3.0320   25.2850  -30.4790 H   0  0  0  0  0  0  0  0  0  0  0  0
   -7.7886   24.0438  -31.2027 H   0  0  0  0  0  0  0  0  0  0  0  0
   -8.8859   21.6513  -32.3134 H   0  0  0  0  0  0  0  0  0  0  0  0
   -8.2663   19.3539  -33.1262 H   0  0  0  0  0  0  0  0  0  0  0  0
   -7.7501   17.4142  -32.8421 H   0  0  0  0  0  0  0  0  0  0  0  0
   -7.1533   15.1320  -33.6340 H   0  0  0  0  0  0  0  0  0  0  0  0
   -4.1609   11.5715  -32.9979 H   0  0  0  0  0  0  0  0  0  0  0  0
   -2.3721   13.3292  -31.6314 H   0  0  0  0  0  0  0  0  0  0  0  0
   -2.8446   14.5665  -32.4472 H   0  0  0  0  0  0  0  0  0  0  0  0
   -4.6340   12.7741  -30.4315 H   0  0  0  0  0  0  0  0  0  0  0  0
   -5.5000   13.9147  -31.0386 H   0  0  0  0  0  0  0  0  0  0  0  0
   -3.1242   16.4722  -34.4733 H   0  0  0  0  0  0  0  0  0  0  0  0
   -3.7171   18.7561  -33.6811 H   0  0  0  0  0  0  0  0  0  0  0  0
   -4.0752   20.1712  -32.2367 H   0  0  0  0  0  0  0  0  0  0  0  0
  1  2  1  0
  2  3  2  0
  2  4  1  0
  4  5  2  0
  5  6  1  0
  6  7  2  0
  7  8  1  0
  8  9  2  0
  9 10  1  0
 10 11  2  0
 11 12  1  0
 12 13  2  0
 13 14  1  0
 14 15  2  0
 14 16  1  0
 16 17  1  0
 17 18  1  0
 18 19  1  0
 13 20  1  0
 20 21  2  0
  9 22  1  0
 22 23  2  0
 23 24  1  0
 24 25  1  0
 25 26  2  0
 25 27  1  0
 24  4  1  0
 23  6  1  0
 21 10  1  0
 19 17  1  0
  1 28  1  0
  5 29  1  0
  7 30  1  0
  8 31  1  0
 11 32  1  0
 12 33  1  0
 17 34  1  0
 18 35  1  0
 18 36  1  0
 19 37  1  0
 19 38  1  0
 20 39  1  0
 21 40  1  0
 22 41  1  0
M  CHG  3   1  -1  16  -1  27  -1
M  END
>  <UniqueID>  (70) 
70

>  <SMILES>  (70) 
[NH-]C(=O)c1cc2ccc(-c3ccc(C(=O)[N-]C4CC4)cc3)cc2n1C(=O)[O-]

>  <Energy>  (70) 
357.9335375707518

>  <Genealogy>  (70) 
[NH-]C(=O)c1cc2ccc(-c3ccc(C(=O)[N-]C4CC4)cc3)cc2n1C(=O)[O-] (protonated)
[NH-]C(=O)c1cc2ccc(-c3ccc(C(=O)[N-]C4CC4)cc3)cc2n1C(=O)[O-] (3D coordinates assigned)
[NH-]C(=O)c1cc2ccc(-c3ccc(C(=O)[N-]C4CC4)cc3)cc2n1C(=O)[O-] (nonaromatic ring conformer: 357.9335375707518 kcal/mol)

>  <smiles>  (70) 
NC(=O)c1cc2ccc(-c3ccc(C(=O)NC4CC4)cc3)cc2n1C(=O)O

>  <score_type>  (70) 
oracle

>  <origin>  (70) 
adg

>  <m_score__min__energy>  (70) 
-10.960000000000001

>  <m_primary>  (70) 
energy

$$$$
73:0
     RDKit          3D

 43 46  0  0  0  0  0  0  0  0999 V2000
   -3.9310   25.6180  -30.8460 N   0  0  0  0  0  0  0  0  0  0  0  0
   -5.1960   25.2070  -30.3360 C   0  0  0  0  0  0  0  0  0  0  0  0
   -5.7800   25.9250  -29.4820 O   0  0  0  0  0  0  0  0  0  0  0  0
   -5.8500   23.9770  -30.8290 C   0  0  0  0  0  0  0  0  0  0  0  0
   -7.2300   23.7770  -30.8120 C   0  0  0  0  0  0  0  0  0  0  0  0
   -7.4290   22.5610  -31.4270 C   0  0  0  0  0  0  0  0  0  0  0  0
   -8.6060   21.8790  -31.7030 C   0  0  0  0  0  0  0  0  0  0  0  0
   -8.5150   20.6360  -32.3510 C   0  0  0  0  0  0  0  0  0  0  0  0
   -7.2470   20.0660  -32.6800 C   0  0  0  0  0  0  0  0  0  0  0  0
   -7.1320   18.7990  -33.4040 N   0  0  2  0  0  0  0  0  0  0  0  0
   -7.2470   17.5610  -32.6180 C   0  0  1  0  0  0  0  0  0  0  0  0
   -7.0220   16.4610  -33.6740 C   0  0  0  0  0  0  0  0  0  0  0  0
   -5.9770   17.1220  -34.5820 C   0  0  0  0  0  0  0  0  0  0  0  0
   -5.7750   18.4820  -33.8760 C   0  0  2  0  0  0  0  0  0  0  0  0
   -4.9660   18.2680  -32.5690 C   0  0  2  0  0  0  0  0  0  0  0  0
   -3.7650   17.4550  -32.7620 N   0  0  0  0  0  0  0  0  0  0  0  0
   -6.0100   17.5610  -31.6870 C   0  0  0  0  0  0  0  0  0  0  0  0
   -6.0780   20.8310  -32.4240 C   0  0  0  0  0  0  0  0  0  0  0  0
   -6.2060   22.0690  -31.7880 C   0  0  0  0  0  0  0  0  0  0  0  0
   -5.2250   22.9230  -31.4260 N   0  0  0  0  0  0  0  0  0  0  0  0
   -3.8160   22.6980  -31.5790 C   0  0  0  0  0  0  0  0  0  0  0  0
   -3.0090   23.2080  -30.7560 O   0  0  0  0  0  0  0  0  0  0  0  0
   -3.2870   21.9590  -32.7670 C   0  0  0  0  0  0  0  0  0  0  0  0
   -3.0480   20.6380  -32.4340 F   0  0  0  0  0  0  0  0  0  0  0  0
   -3.0420   25.2980  -30.4020 H   0  0  0  0  0  0  0  0  0  0  0  0
   -7.9963   24.4476  -30.3960 H   0  0  0  0  0  0  0  0  0  0  0  0
   -9.5826   22.3001  -31.4222 H   0  0  0  0  0  0  0  0  0  0  0  0
   -9.4356   20.0923  -32.6095 H   0  0  0  0  0  0  0  0  0  0  0  0
   -7.8250   18.8180  -34.1930 H   0  0  0  0  0  0  0  0  0  0  0  0
   -8.1832   17.4439  -32.0524 H   0  0  0  0  0  0  0  0  0  0  0  0
   -6.6328   15.5389  -33.2177 H   0  0  0  0  0  0  0  0  0  0  0  0
   -7.9370   16.1458  -34.1969 H   0  0  0  0  0  0  0  0  0  0  0  0
   -5.0435   16.5409  -34.6102 H   0  0  0  0  0  0  0  0  0  0  0  0
   -6.2840   17.2036  -35.6351 H   0  0  0  0  0  0  0  0  0  0  0  0
   -5.2851   19.2213  -34.5267 H   0  0  0  0  0  0  0  0  0  0  0  0
   -4.5638   19.1992  -32.1435 H   0  0  0  0  0  0  0  0  0  0  0  0
   -3.8750   16.5800  -32.1990 H   0  0  0  0  0  0  0  0  0  0  0  0
   -2.9580   17.9750  -32.3450 H   0  0  0  0  0  0  0  0  0  0  0  0
   -5.6965   16.5373  -31.4346 H   0  0  0  0  0  0  0  0  0  0  0  0
   -6.1793   18.0460  -30.7143 H   0  0  0  0  0  0  0  0  0  0  0  0
   -5.0879   20.4552  -32.7215 H   0  0  0  0  0  0  0  0  0  0  0  0
   -4.0255   22.0016  -33.5811 H   0  0  0  0  0  0  0  0  0  0  0  0
   -2.3456   22.4254  -33.0928 H   0  0  0  0  0  0  0  0  0  0  0  0
  1  2  1  0
  2  3  2  0
  2  4  1  0
  4  5  2  0
  5  6  1  0
  6  7  2  0
  7  8  1  0
  8  9  2  0
  9 10  1  0
 10 11  1  0
 11 12  1  0
 12 13  1  0
 13 14  1  0
 14 15  1  0
 15 16  1  0
 15 17  1  0
  9 18  1  0
 18 19  2  0
 19 20  1  0
 20 21  1  0
 21 22  2  0
 21 23  1  0
 23 24  1  0
 20  4  1  0
 19  6  1  0
 14 10  1  0
 17 11  1  0
  1 25  1  0
  5 26  1  0
  7 27  1  0
  8 28  1  0
 10 29  1  6
 11 30  1  1
 12 31  1  0
 12 32  1  0
 13 33  1  0
 13 34  1  0
 14 35  1  6
 15 36  1  1
 16 37  1  0
 16 38  1  0
 17 39  1  0
 17 40  1  0
 18 41  1  0
 23 42  1  0
 23 43  1  0
M  CHG  2   1  -1  10   1
M  END
>  <UniqueID>  (71) 
71

>  <SMILES>  (71) 
[NH-]C(=O)c1cc2ccc([N@H+]3C4CC[C@H]3CC4N)cc2n1C(=O)CF

>  <Energy>  (71) 
125.60805520205697

>  <Genealogy>  (71) 
[NH-]C(=O)c1cc2ccc([NH+]3C4CCC3C(N)C4)cc2n1C(=O)CF (protonated)
[NH-]C(=O)c1cc2ccc([N@H+]3C4CC[C@H]3CC4N)cc2n1C(=O)CF (chirality)
[NH-]C(=O)c1cc2ccc([N@H+]3C4CC[C@H]3CC4N)cc2n1C(=O)CF (3D coordinates assigned)
[NH-]C(=O)c1cc2ccc([N@H+]3C4CC[C@H]3CC4N)cc2n1C(=O)CF (nonaromatic ring conformer: 125.60805520205697 kcal/mol)

>  <smiles>  (71) 
NC(=O)c1cc2ccc(N3C4CCC3C(N)C4)cc2n1C(=O)CF

>  <score_type>  (71) 
oracle

>  <origin>  (71) 
adg

>  <m_score__min__energy>  (71) 
-10.65

>  <m_primary>  (71) 
energy

$$$$
74:0
     RDKit          3D

 57 58  0  0  0  0  0  0  0  0999 V2000
   -6.3390   15.6910  -33.9820 C   0  0  0  0  0  0  0  0  0  0  0  0
   -5.6560   16.9730  -33.7840 N   0  0  0  0  0  0  0  0  0  0  0  0
   -5.3920   17.4650  -32.4260 C   0  0  0  0  0  0  0  0  0  0  0  0
   -6.7170   17.6730  -31.6770 C   0  0  0  0  0  0  0  0  0  0  0  0
   -7.7250   18.5020  -32.4870 C   0  0  0  0  0  0  0  0  0  0  0  0
   -7.7030   19.9570  -32.1010 C   0  0  0  0  0  0  0  0  0  0  0  0
   -8.9170   20.6780  -31.9890 C   0  0  0  0  0  0  0  0  0  0  0  0
   -8.9160   22.0260  -31.5960 C   0  0  0  0  0  0  0  0  0  0  0  0
   -7.6900   22.6270  -31.3310 C   0  0  0  0  0  0  0  0  0  0  0  0
   -7.4040   23.9060  -30.9180 C   0  0  0  0  0  0  0  0  0  0  0  0
   -6.0170   23.9620  -30.8130 C   0  0  0  0  0  0  0  0  0  0  0  0
   -5.2820   25.1980  -30.4710 C   0  0  0  0  0  0  0  0  0  0  0  0
   -3.8750   25.2920  -30.6680 N   0  0  0  0  0  0  0  0  0  0  0  0
   -5.9120   26.2030  -30.0480 O   0  0  0  0  0  0  0  0  0  0  0  0
   -5.4610   22.7590  -31.1410 N   0  0  0  0  0  0  0  0  0  0  0  0
   -4.0730   22.3900  -31.1070 C   0  0  0  0  0  0  0  0  0  0  0  0
   -3.6300   21.5360  -31.9280 O   0  0  0  0  0  0  0  0  0  0  0  0
   -3.1910   22.9700  -30.1350 N   0  0  0  0  0  0  0  0  0  0  0  0
   -1.7350   22.8770  -30.2410 C   0  0  0  0  0  0  0  0  0  0  0  0
   -1.0710   23.8590  -29.3310 C   0  0  0  0  0  0  0  0  0  0  0  0
    0.1880   23.8810  -29.2520 O   0  0  0  0  0  0  0  0  0  0  0  0
   -1.8610   24.7730  -28.6160 O   0  0  0  0  0  0  0  0  0  0  0  0
   -2.2430   24.6690  -27.2370 C   0  0  0  0  0  0  0  0  0  0  0  0
   -3.7720   24.5230  -27.1060 C   0  0  0  0  0  0  0  0  0  0  0  0
   -1.5300   23.4800  -26.5610 C   0  0  0  0  0  0  0  0  0  0  0  0
   -1.8070   25.9700  -26.5440 C   0  0  0  0  0  0  0  0  0  0  0  0
   -6.5010   21.9520  -31.4520 C   0  0  0  0  0  0  0  0  0  0  0  0
   -6.4780   20.5970  -31.8080 C   0  0  0  0  0  0  0  0  0  0  0  0
   -5.3130   17.7690  -34.9340 C   0  0  0  0  0  0  0  0  0  0  0  0
   -5.9920   18.7890  -35.2340 O   0  0  0  0  0  0  0  0  0  0  0  0
   -4.2250   17.4250  -35.7280 O   0  0  0  0  0  0  0  0  0  0  0  0
   -6.5757   15.2467  -33.0039 H   0  0  0  0  0  0  0  0  0  0  0  0
   -7.2696   15.8545  -34.5453 H   0  0  0  0  0  0  0  0  0  0  0  0
   -5.6842   15.0099  -34.5453 H   0  0  0  0  0  0  0  0  0  0  0  0
   -4.7788   16.7295  -31.8846 H   0  0  0  0  0  0  0  0  0  0  0  0
   -4.8565   18.4239  -32.4866 H   0  0  0  0  0  0  0  0  0  0  0  0
   -7.1600   16.6891  -31.4633 H   0  0  0  0  0  0  0  0  0  0  0  0
   -6.4956   18.2255  -30.7520 H   0  0  0  0  0  0  0  0  0  0  0  0
   -7.4783   18.4149  -33.5554 H   0  0  0  0  0  0  0  0  0  0  0  0
   -8.7314   18.1112  -32.2761 H   0  0  0  0  0  0  0  0  0  0  0  0
   -9.8704   20.1768  -32.2122 H   0  0  0  0  0  0  0  0  0  0  0  0
   -9.8559   22.5894  -31.5006 H   0  0  0  0  0  0  0  0  0  0  0  0
   -8.1203   24.7153  -30.7134 H   0  0  0  0  0  0  0  0  0  0  0  0
   -3.4660   26.0630  -31.2400 H   0  0  0  0  0  0  0  0  0  0  0  0
   -3.6010   23.5070  -29.3390 H   0  0  0  0  0  0  0  0  0  0  0  0
   -1.4180   21.8600  -29.9666 H   0  0  0  0  0  0  0  0  0  0  0  0
   -1.4425   23.1038  -31.2769 H   0  0  0  0  0  0  0  0  0  0  0  0
   -4.0479   24.4967  -26.0415 H   0  0  0  0  0  0  0  0  0  0  0  0
   -4.2649   25.3782  -27.5915 H   0  0  0  0  0  0  0  0  0  0  0  0
   -4.0942   23.5900  -27.5915 H   0  0  0  0  0  0  0  0  0  0  0  0
   -1.5943   23.5872  -25.4681 H   0  0  0  0  0  0  0  0  0  0  0  0
   -2.0139   22.5405  -26.8664 H   0  0  0  0  0  0  0  0  0  0  0  0
   -0.4734   23.4643  -26.8664 H   0  0  0  0  0  0  0  0  0  0  0  0
   -1.8516   25.8370  -25.4530 H   0  0  0  0  0  0  0  0  0  0  0  0
   -0.7771   26.2166  -26.8416 H   0  0  0  0  0  0  0  0  0  0  0  0
   -2.4803   26.7874  -26.8416 H   0  0  0  0  0  0  0  0  0  0  0  0
   -5.5282   20.0444  -31.8582 H   0  0  0  0  0  0  0  0  0  0  0  0
  1  2  1  0
  2  3  1  0
  3  4  1  0
  4  5  1  0
  5  6  1  0
  6  7  2  0
  7  8  1  0
  8  9  2  0
  9 10  1  0
 10 11  2  0
 11 12  1  0
 12 13  1  0
 12 14  2  0
 11 15  1  0
 15 16  1  0
 16 17  2  0
 16 18  1  0
 18 19  1  0
 19 20  1  0
 20 21  2  0
 20 22  1  0
 22 23  1  0
 23 24  1  0
 23 25  1  0
 23 26  1  0
 15 27  1  0
 27 28  2  0
  2 29  1  0
 29 30  2  0
 29 31  1  0
 28  6  1  0
 27  9  1  0
  1 32  1  0
  1 33  1  0
  1 34  1  0
  3 35  1  0
  3 36  1  0
  4 37  1  0
  4 38  1  0
  5 39  1  0
  5 40  1  0
  7 41  1  0
  8 42  1  0
 10 43  1  0
 13 44  1  0
 18 45  1  0
 19 46  1  0
 19 47  1  0
 24 48  1  0
 24 49  1  0
 24 50  1  0
 25 51  1  0
 25 52  1  0
 25 53  1  0
 26 54  1  0
 26 55  1  0
 26 56  1  0
 28 57  1  0
M  CHG  2  13  -1  31  -1
M  END
>  <UniqueID>  (72) 
72

>  <SMILES>  (72) 
CN(CCCc1ccc2cc(C([NH-])=O)n(C(=O)NCC(=O)OC(C)(C)C)c2c1)C(=O)[O-]

>  <Energy>  (72) 
80.51213398343396

>  <Genealogy>  (72) 
CN(CCCc1ccc2cc(C([NH-])=O)n(C(=O)NCC(=O)OC(C)(C)C)c2c1)C(=O)[O-] (protonated)
CN(CCCc1ccc2cc(C([NH-])=O)n(C(=O)NCC(=O)OC(C)(C)C)c2c1)C(=O)[O-] (3D coordinates assigned)
CN(CCCc1ccc2cc(C([NH-])=O)n(C(=O)NCC(=O)OC(C)(C)C)c2c1)C(=O)[O-] (optimized conformer: 80.51213398343396 kcal/mol)

>  <smiles>  (72) 
CN(CCCc1ccc2cc(C(N)=O)n(C(=O)NCC(=O)OC(C)(C)C)c2c1)C(=O)O

>  <score_type>  (72) 
oracle

>  <origin>  (72) 
adg

>  <m_score__min__energy>  (72) 
-11.859999999999999

>  <m_primary>  (72) 
energy

$$$$
75:0
     RDKit          3D

 42 43  0  0  0  0  0  0  0  0999 V2000
   -2.7030   24.4670  -27.4710 C   0  0  0  0  0  0  0  0  0  0  0  0
   -1.8260   24.8700  -28.5840 N   0  0  0  0  0  0  0  0  0  0  0  0
   -1.0740   26.0790  -28.2060 C   0  0  0  0  0  0  0  0  0  0  0  0
   -0.9140   23.7610  -28.9410 C   0  0  0  0  0  0  0  0  0  0  0  0
   -1.4440   22.9700  -30.1420 C   0  0  0  0  0  0  0  0  0  0  0  0
   -2.9000   23.0770  -30.2200 N   0  0  0  0  0  0  0  0  0  0  0  0
   -3.6900   22.3730  -31.1890 C   0  0  0  0  0  0  0  0  0  0  0  0
   -3.1550   21.5280  -31.9560 O   0  0  0  0  0  0  0  0  0  0  0  0
   -5.0960   22.6370  -31.2950 N   0  0  0  0  0  0  0  0  0  0  0  0
   -5.7690   23.7590  -30.9110 C   0  0  0  0  0  0  0  0  0  0  0  0
   -5.1560   25.0000  -30.3930 C   0  0  0  0  0  0  0  0  0  0  0  0
   -3.8740   25.4090  -30.8650 N   0  0  0  0  0  0  0  0  0  0  0  0
   -5.7390   25.6930  -29.5180 O   0  0  0  0  0  0  0  0  0  0  0  0
   -7.1360   23.6070  -31.1350 C   0  0  0  0  0  0  0  0  0  0  0  0
   -7.2810   22.3460  -31.6700 C   0  0  0  0  0  0  0  0  0  0  0  0
   -8.4310   21.6620  -32.0580 C   0  0  0  0  0  0  0  0  0  0  0  0
   -8.2840   20.3500  -32.5420 C   0  0  0  0  0  0  0  0  0  0  0  0
   -7.0010   19.7520  -32.6300 C   0  0  0  0  0  0  0  0  0  0  0  0
   -6.8610   18.3300  -33.0980 C   0  0  0  0  0  0  0  0  0  0  0  0
   -5.7820   18.2350  -34.1270 C   0  0  0  0  0  0  0  0  0  0  0  0
   -5.9980   18.6090  -35.3100 O   0  0  0  0  0  0  0  0  0  0  0  0
   -4.5180   17.7860  -33.7680 O   0  0  0  0  0  0  0  0  0  0  0  0
   -5.8610   20.4740  -32.2180 C   0  0  0  0  0  0  0  0  0  0  0  0
   -6.0350   21.7830  -31.7560 C   0  0  0  0  0  0  0  0  0  0  0  0
   -2.2093   24.6939  -26.5145 H   0  0  0  0  0  0  0  0  0  0  0  0
   -3.6523   25.0192  -27.5337 H   0  0  0  0  0  0  0  0  0  0  0  0
   -2.9022   23.3870  -27.5337 H   0  0  0  0  0  0  0  0  0  0  0  0
   -1.0274   26.1540  -27.1095 H   0  0  0  0  0  0  0  0  0  0  0  0
   -0.0539   26.0185  -28.6131 H   0  0  0  0  0  0  0  0  0  0  0  0
   -1.5792   26.9673  -28.6131 H   0  0  0  0  0  0  0  0  0  0  0  0
    0.0734   24.1756  -29.1923 H   0  0  0  0  0  0  0  0  0  0  0  0
   -0.8419   23.0796  -28.0805 H   0  0  0  0  0  0  0  0  0  0  0  0
   -1.0010   23.3722  -31.0650 H   0  0  0  0  0  0  0  0  0  0  0  0
   -1.1698   21.9116  -30.0214 H   0  0  0  0  0  0  0  0  0  0  0  0
   -3.3860   23.7030  -29.5390 H   0  0  0  0  0  0  0  0  0  0  0  0
   -3.0220   25.2940  -30.2730 H   0  0  0  0  0  0  0  0  0  0  0  0
   -7.9308   24.3389  -30.9284 H   0  0  0  0  0  0  0  0  0  0  0  0
   -9.4225   22.1333  -31.9880 H   0  0  0  0  0  0  0  0  0  0  0  0
   -9.1724   19.7821  -32.8553 H   0  0  0  0  0  0  0  0  0  0  0  0
   -6.6056   17.6882  -32.2419 H   0  0  0  0  0  0  0  0  0  0  0  0
   -7.8124   18.0001  -33.5407 H   0  0  0  0  0  0  0  0  0  0  0  0
   -4.8603   20.0190  -32.2590 H   0  0  0  0  0  0  0  0  0  0  0  0
  1  2  1  0
  2  3  1  0
  2  4  1  0
  4  5  1  0
  5  6  1  0
  6  7  1  0
  7  8  2  0
  7  9  1  0
  9 10  1  0
 10 11  1  0
 11 12  1  0
 11 13  2  0
 10 14  2  0
 14 15  1  0
 15 16  2  0
 16 17  1  0
 17 18  2  0
 18 19  1  0
 19 20  1  0
 20 21  2  0
 20 22  1  0
 18 23  1  0
 23 24  2  0
 24  9  1  0
 24 15  1  0
  1 25  1  0
  1 26  1  0
  1 27  1  0
  3 28  1  0
  3 29  1  0
  3 30  1  0
  4 31  1  0
  4 32  1  0
  5 33  1  0
  5 34  1  0
  6 35  1  0
 12 36  1  0
 14 37  1  0
 16 38  1  0
 17 39  1  0
 19 40  1  0
 19 41  1  0
 23 42  1  0
M  CHG  2  12  -1  22  -1
M  END
>  <UniqueID>  (73) 
73

>  <SMILES>  (73) 
CN(C)CCNC(=O)n1c(C([NH-])=O)cc2ccc(CC(=O)[O-])cc21

>  <Energy>  (73) 
74.72303695617569

>  <Genealogy>  (73) 
CN(C)CCNC(=O)n1c(C([NH-])=O)cc2ccc(CC(=O)[O-])cc21 (protonated)
CN(C)CCNC(=O)n1c(C([NH-])=O)cc2ccc(CC(=O)[O-])cc21 (3D coordinates assigned)
CN(C)CCNC(=O)n1c(C([NH-])=O)cc2ccc(CC(=O)[O-])cc21 (optimized conformer: 74.72303695617569 kcal/mol)

>  <smiles>  (73) 
CN(C)CCNC(=O)n1c(C(N)=O)cc2ccc(CC(=O)O)cc21

>  <score_type>  (73) 
oracle

>  <origin>  (73) 
adg

>  <m_score__min__energy>  (73) 
-9.7899999999999991

>  <m_primary>  (73) 
energy

$$$$
76:0
     RDKit          3D

 44 46  0  0  0  0  0  0  0  0999 V2000
   -6.8990   25.3500  -29.4300 C   0  0  0  0  0  0  0  0  0  0  0  0
   -6.0290   24.3400  -30.0390 N   0  0  0  0  0  0  0  0  0  0  0  0
   -4.7440   24.0200  -29.4040 C   0  0  0  0  0  0  0  0  0  0  0  0
   -3.6500   24.8940  -29.9350 C   0  0  0  0  0  0  0  0  0  0  0  0
   -3.8640   25.6650  -30.9060 O   0  0  0  0  0  0  0  0  0  0  0  0
   -2.4040   24.8950  -29.3210 O   0  0  0  0  0  0  0  0  0  0  0  0
   -6.5190   23.6130  -31.1870 C   0  0  0  0  0  0  0  0  0  0  0  0
   -6.4070   24.1300  -32.3320 O   0  0  0  0  0  0  0  0  0  0  0  0
   -7.1380   22.2700  -31.0790 C   0  0  0  0  0  0  0  0  0  0  0  0
   -8.0000   22.0300  -30.1950 O   0  0  0  0  0  0  0  0  0  0  0  0
   -6.7550   21.2210  -31.9800 N   0  0  0  0  0  0  0  0  0  0  0  0
   -7.5530   20.2440  -32.4940 C   0  0  0  0  0  0  0  0  0  0  0  0
   -9.0230   20.1680  -32.3500 C   0  0  0  0  0  0  0  0  0  0  0  0
   -9.7890   21.2940  -31.9210 N   0  0  0  0  0  0  0  0  0  0  0  0
   -9.6170   19.0980  -32.6490 O   0  0  0  0  0  0  0  0  0  0  0  0
   -6.7920   19.2990  -33.1770 C   0  0  0  0  0  0  0  0  0  0  0  0
   -5.4890   19.7280  -33.0620 C   0  0  0  0  0  0  0  0  0  0  0  0
   -4.3090   19.1420  -33.5090 C   0  0  0  0  0  0  0  0  0  0  0  0
   -3.0950   19.7710  -33.1830 C   0  0  0  0  0  0  0  0  0  0  0  0
   -3.0840   20.9650  -32.4180 C   0  0  0  0  0  0  0  0  0  0  0  0
   -1.7790   21.5960  -32.0220 C   0  0  0  0  0  0  0  0  0  0  0  0
   -1.1090   20.7690  -31.0180 N   0  0  0  0  0  0  0  0  0  0  0  0
   -0.0560   19.9530  -31.2270 C   0  0  0  0  0  0  0  0  0  0  0  0
    0.2930   19.2610  -30.1190 N   0  0  0  0  0  0  0  0  0  0  0  0
   -0.5930   19.6640  -29.1860 C   0  0  0  0  0  0  0  0  0  0  0  0
   -0.6150   19.0710  -27.5380 Cl  0  0  0  0  0  0  0  0  0  0  0  0
   -1.4590   20.5830  -29.7330 C   0  0  0  0  0  0  0  0  0  0  0  0
   -2.7950   21.3740  -28.9090 Cl  0  0  0  0  0  0  0  0  0  0  0  0
   -4.3010   21.5210  -31.9690 C   0  0  0  0  0  0  0  0  0  0  0  0
   -5.4940   20.8870  -32.3280 C   0  0  0  0  0  0  0  0  0  0  0  0
   -6.8354   25.2762  -28.3343 H   0  0  0  0  0  0  0  0  0  0  0  0
   -6.5768   26.3521  -29.7493 H   0  0  0  0  0  0  0  0  0  0  0  0
   -7.9378   25.1798  -29.7493 H   0  0  0  0  0  0  0  0  0  0  0  0
   -4.8315   24.1730  -28.3182 H   0  0  0  0  0  0  0  0  0  0  0  0
   -4.4945   22.9721  -29.6270 H   0  0  0  0  0  0  0  0  0  0  0  0
   -9.3680   22.2470  -31.8590 H   0  0  0  0  0  0  0  0  0  0  0  0
  -10.8170   21.1970  -31.7650 H   0  0  0  0  0  0  0  0  0  0  0  0
   -7.1548   18.4006  -33.6978 H   0  0  0  0  0  0  0  0  0  0  0  0
   -4.3256   18.2143  -34.0998 H   0  0  0  0  0  0  0  0  0  0  0  0
   -2.1453   19.3333  -33.5242 H   0  0  0  0  0  0  0  0  0  0  0  0
   -1.1342   21.6870  -32.9086 H   0  0  0  0  0  0  0  0  0  0  0  0
   -1.9729   22.5926  -31.5987 H   0  0  0  0  0  0  0  0  0  0  0  0
    0.4622   19.8605  -32.1929 H   0  0  0  0  0  0  0  0  0  0  0  0
   -4.3105   22.4313  -31.3515 H   0  0  0  0  0  0  0  0  0  0  0  0
  1  2  1  0
  2  3  1  0
  3  4  1  0
  4  5  2  0
  4  6  1  0
  2  7  1  0
  7  8  2  0
  7  9  1  0
  9 10  2  0
  9 11  1  0
 11 12  1  0
 12 13  1  0
 13 14  1  0
 13 15  2  0
 12 16  2  0
 16 17  1  0
 17 18  2  0
 18 19  1  0
 19 20  2  0
 20 21  1  0
 21 22  1  0
 22 23  1  0
 23 24  2  0
 24 25  1  0
 25 26  1  0
 25 27  2  0
 27 28  1  0
 20 29  1  0
 29 30  2  0
 30 11  1  0
 30 17  1  0
 27 22  1  0
  1 31  1  0
  1 32  1  0
  1 33  1  0
  3 34  1  0
  3 35  1  0
 14 36  1  0
 14 37  1  0
 16 38  1  0
 18 39  1  0
 19 40  1  0
 21 41  1  0
 21 42  1  0
 23 43  1  0
 29 44  1  0
M  CHG  1   6  -1
M  END
>  <UniqueID>  (74) 
74

>  <SMILES>  (74) 
CN(CC(=O)[O-])C(=O)C(=O)n1c(C(N)=O)cc2ccc(Cn3cnc(Cl)c3Cl)cc21

>  <Energy>  (74) 
115.73425961475469

>  <Genealogy>  (74) 
CN(CC(=O)[O-])C(=O)C(=O)n1c(C(N)=O)cc2ccc(Cn3cnc(Cl)c3Cl)cc21 (protonated)
CN(CC(=O)[O-])C(=O)C(=O)n1c(C(N)=O)cc2ccc(Cn3cnc(Cl)c3Cl)cc21 (3D coordinates assigned)
CN(CC(=O)[O-])C(=O)C(=O)n1c(C(N)=O)cc2ccc(Cn3cnc(Cl)c3Cl)cc21 (optimized conformer: 115.73425961475469 kcal/mol)

>  <smiles>  (74) 
CN(CC(=O)O)C(=O)C(=O)n1c(C(N)=O)cc2ccc(Cn3cnc(Cl)c3Cl)cc21

>  <score_type>  (74) 
oracle

>  <origin>  (74) 
adg

>  <m_score__min__energy>  (74) 
-12.300000000000001

>  <m_primary>  (74) 
energy

$$$$
77:0
     RDKit          3D

 47 48  0  0  0  0  0  0  0  0999 V2000
   -3.8430   25.3130  -30.8730 N   0  0  0  0  0  0  0  0  0  0  0  0
   -5.2140   25.1610  -30.5140 C   0  0  0  0  0  0  0  0  0  0  0  0
   -5.7850   26.0710  -29.8570 O   0  0  0  0  0  0  0  0  0  0  0  0
   -5.9500   23.9440  -30.9100 C   0  0  0  0  0  0  0  0  0  0  0  0
   -7.2860   23.9320  -31.3070 C   0  0  0  0  0  0  0  0  0  0  0  0
   -7.5690   22.6170  -31.5990 C   0  0  0  0  0  0  0  0  0  0  0  0
   -8.7590   22.0210  -32.0030 C   0  0  0  0  0  0  0  0  0  0  0  0
   -8.7660   20.6260  -32.1910 C   0  0  0  0  0  0  0  0  0  0  0  0
   -7.5880   19.8570  -31.9900 C   0  0  0  0  0  0  0  0  0  0  0  0
   -7.6240   18.3560  -32.1290 C   0  0  0  0  0  0  0  0  0  0  0  0
   -7.1970   17.9700  -33.3880 F   0  0  0  0  0  0  0  0  0  0  0  0
   -6.7900   17.7940  -31.1790 F   0  0  0  0  0  0  0  0  0  0  0  0
   -8.9090   17.8780  -31.9420 F   0  0  0  0  0  0  0  0  0  0  0  0
   -6.4050   20.5000  -31.5560 C   0  0  0  0  0  0  0  0  0  0  0  0
   -6.4290   21.8870  -31.3840 C   0  0  0  0  0  0  0  0  0  0  0  0
   -5.4330   22.6850  -30.9560 N   0  0  0  0  0  0  0  0  0  0  0  0
   -4.1070   22.2640  -30.6120 C   0  0  0  0  0  0  0  0  0  0  0  0
   -3.7270   22.3690  -29.4160 O   0  0  0  0  0  0  0  0  0  0  0  0
   -3.1930   21.7960  -31.6250 N   0  0  0  0  0  0  0  0  0  0  0  0
   -3.6080   21.7930  -33.0370 C   0  0  0  0  0  0  0  0  0  0  0  0
   -3.5300   20.4100  -33.6030 C   0  0  0  0  0  0  0  0  0  0  0  0
   -2.4130   19.9060  -33.8870 O   0  0  0  0  0  0  0  0  0  0  0  0
   -4.6860   19.6640  -33.7840 O   0  0  0  0  0  0  0  0  0  0  0  0
   -1.8430   21.4020  -31.2900 C   0  0  0  0  0  0  0  0  0  0  0  0
   -0.8740   21.8830  -31.9370 O   0  0  0  0  0  0  0  0  0  0  0  0
   -1.5550   20.4330  -30.1760 C   0  0  0  0  0  0  0  0  0  0  0  0
   -0.5720   20.9880  -29.2530 N   0  0  0  0  0  0  0  0  0  0  0  0
   -0.5200   22.3720  -28.9000 C   0  0  0  0  0  0  0  0  0  0  0  0
   -0.0570   23.2210  -29.7080 O   0  0  0  0  0  0  0  0  0  0  0  0
   -0.9710   22.8100  -27.5400 C   0  0  0  0  0  0  0  0  0  0  0  0
   -1.8000   24.0970  -27.6070 C   0  0  0  0  0  0  0  0  0  0  0  0
   -1.0110   25.2330  -28.1810 C   0  0  0  0  0  0  0  0  0  0  0  0
   -1.5620   26.0570  -28.9560 O   0  0  0  0  0  0  0  0  0  0  0  0
    0.3190   25.4060  -27.8240 O   0  0  0  0  0  0  0  0  0  0  0  0
   -3.0940   25.2950  -30.1450 H   0  0  0  0  0  0  0  0  0  0  0  0
   -7.9695   24.7914  -31.3730 H   0  0  0  0  0  0  0  0  0  0  0  0
   -9.6658   22.6207  -32.1703 H   0  0  0  0  0  0  0  0  0  0  0  0
   -9.6957   20.1244  -32.4976 H   0  0  0  0  0  0  0  0  0  0  0  0
   -5.4894   19.9231  -31.3589 H   0  0  0  0  0  0  0  0  0  0  0  0
   -4.6436   22.1565  -33.1107 H   0  0  0  0  0  0  0  0  0  0  0  0
   -2.9343   22.4494  -33.6073 H   0  0  0  0  0  0  0  0  0  0  0  0
   -2.4863   20.2239  -29.6292 H   0  0  0  0  0  0  0  0  0  0  0  0
   -1.1508   19.5059  -30.6086 H   0  0  0  0  0  0  0  0  0  0  0  0
   -1.5843   22.0133  -27.0937 H   0  0  0  0  0  0  0  0  0  0  0  0
   -0.0780   23.0078  -26.9290 H   0  0  0  0  0  0  0  0  0  0  0  0
   -2.6827   23.9203  -28.2392 H   0  0  0  0  0  0  0  0  0  0  0  0
   -2.0973   24.3679  -26.5832 H   0  0  0  0  0  0  0  0  0  0  0  0
  1  2  1  0
  2  3  2  0
  2  4  1  0
  4  5  2  0
  5  6  1  0
  6  7  2  0
  7  8  1  0
  8  9  2  0
  9 10  1  0
 10 11  1  0
 10 12  1  0
 10 13  1  0
  9 14  1  0
 14 15  2  0
 15 16  1  0
 16 17  1  0
 17 18  2  0
 17 19  1  0
 19 20  1  0
 20 21  1  0
 21 22  2  0
 21 23  1  0
 19 24  1  0
 24 25  2  0
 24 26  1  0
 26 27  1  0
 27 28  1  0
 28 29  2  0
 28 30  1  0
 30 31  1  0
 31 32  1  0
 32 33  2  0
 32 34  1  0
 16  4  1  0
 15  6  1  0
  1 35  1  0
  5 36  1  0
  7 37  1  0
  8 38  1  0
 14 39  1  0
 20 40  1  0
 20 41  1  0
 26 42  1  0
 26 43  1  0
 30 44  1  0
 30 45  1  0
 31 46  1  0
 31 47  1  0
M  CHG  4   1  -1  23  -1  27  -1  34  -1
M  END
>  <UniqueID>  (75) 
75

>  <SMILES>  (75) 
[NH-]C(=O)c1cc2ccc(C(F)(F)F)cc2n1C(=O)N(CC(=O)[O-])C(=O)C[N-]C(=O)CCC(=O)[O-]

>  <Energy>  (75) 
82.48862622768884

>  <Genealogy>  (75) 
[NH-]C(=O)c1cc2ccc(C(F)(F)F)cc2n1C(=O)N(CC(=O)[O-])C(=O)C[N-]C(=O)CCC(=O)[O-] (protonated)
[NH-]C(=O)c1cc2ccc(C(F)(F)F)cc2n1C(=O)N(CC(=O)[O-])C(=O)C[N-]C(=O)CCC(=O)[O-] (3D coordinates assigned)
[NH-]C(=O)c1cc2ccc(C(F)(F)F)cc2n1C(=O)N(CC(=O)[O-])C(=O)C[N-]C(=O)CCC(=O)[O-] (optimized conformer: 82.48862622768884 kcal/mol)

>  <smiles>  (75) 
NC(=O)c1cc2ccc(C(F)(F)F)cc2n1C(=O)N(CC(=O)O)C(=O)CNC(=O)CCC(=O)O

>  <score_type>  (75) 
oracle

>  <origin>  (75) 
adg

>  <m_score__min__energy>  (75) 
-13.130000000000001

>  <m_primary>  (75) 
energy

$$$$
78:0
     RDKit          3D

 40 42  0  0  0  0  0  0  0  0999 V2000
   -3.3510   24.2420  -27.4980 C   0  0  0  0  0  0  0  0  0  0  0  0
   -2.2670   23.7320  -28.0950 C   0  0  0  0  0  0  0  0  0  0  0  0
   -1.2560   24.6440  -28.6820 C   0  0  0  0  0  0  0  0  0  0  0  0
   -1.6130   25.6670  -29.3250 O   0  0  0  0  0  0  0  0  0  0  0  0
    0.1030   24.3680  -28.5610 O   0  0  0  0  0  0  0  0  0  0  0  0
   -2.0770   22.2570  -28.1400 C   0  0  0  0  0  0  0  0  0  0  0  0
   -2.4360   21.5480  -27.1610 O   0  0  0  0  0  0  0  0  0  0  0  0
   -1.4770   21.6160  -29.2800 N   0  0  0  0  0  0  0  0  0  0  0  0
   -0.3020   20.9260  -29.3330 C   0  0  0  0  0  0  0  0  0  0  0  0
    0.6670   20.7970  -28.2180 C   0  0  0  0  0  0  0  0  0  0  0  0
    1.1000   21.9420  -27.4790 N   0  0  0  0  0  0  0  0  0  0  0  0
    1.0910   19.6590  -27.8820 O   0  0  0  0  0  0  0  0  0  0  0  0
   -0.0870   20.4380  -30.6220 C   0  0  0  0  0  0  0  0  0  0  0  0
   -1.1670   20.8680  -31.3610 C   0  0  0  0  0  0  0  0  0  0  0  0
   -1.4590   20.6870  -32.7110 C   0  0  0  0  0  0  0  0  0  0  0  0
   -2.6400   21.2620  -33.2110 C   0  0  0  0  0  0  0  0  0  0  0  0
   -3.5040   22.0020  -32.3660 C   0  0  0  0  0  0  0  0  0  0  0  0
   -4.6910   22.5930  -32.9250 N   0  0  0  0  0  0  0  0  0  0  0  0
   -5.9600   22.6840  -32.2000 C   0  0  0  0  0  0  0  0  0  0  0  0
   -5.9490   23.8530  -31.2660 C   0  0  0  0  0  0  0  0  0  0  0  0
   -6.9050   24.1290  -30.3120 C   0  0  0  0  0  0  0  0  0  0  0  0
   -6.4680   25.2690  -29.6720 C   0  0  0  0  0  0  0  0  0  0  0  0
   -5.2750   25.6140  -30.2720 C   0  0  0  0  0  0  0  0  0  0  0  0
   -4.9900   24.7480  -31.2170 O   0  0  0  0  0  0  0  0  0  0  0  0
   -3.1740   22.1550  -30.9940 C   0  0  0  0  0  0  0  0  0  0  0  0
   -1.9860   21.5810  -30.5290 C   0  0  0  0  0  0  0  0  0  0  0  0
   -4.1049   23.5710  -27.0605 H   0  0  0  0  0  0  0  0  0  0  0  0
   -3.4880   25.3321  -27.4449 H   0  0  0  0  0  0  0  0  0  0  0  0
    0.7840   22.9070  -27.7270 H   0  0  0  0  0  0  0  0  0  0  0  0
    1.7400   21.8250  -26.6630 H   0  0  0  0  0  0  0  0  0  0  0  0
    0.7646   19.8371  -30.9738 H   0  0  0  0  0  0  0  0  0  0  0  0
   -0.7866   20.1123  -33.3649 H   0  0  0  0  0  0  0  0  0  0  0  0
   -2.8972   21.1358  -34.2730 H   0  0  0  0  0  0  0  0  0  0  0  0
   -4.6310   22.9930  -33.8900 H   0  0  0  0  0  0  0  0  0  0  0  0
   -6.7811   22.8055  -32.9218 H   0  0  0  0  0  0  0  0  0  0  0  0
   -6.1015   21.7633  -31.6149 H   0  0  0  0  0  0  0  0  0  0  0  0
   -7.8231   23.5595  -30.1051 H   0  0  0  0  0  0  0  0  0  0  0  0
   -6.9700   25.7975  -28.8481 H   0  0  0  0  0  0  0  0  0  0  0  0
   -4.6566   26.4822  -30.0003 H   0  0  0  0  0  0  0  0  0  0  0  0
   -3.8357   22.7109  -30.3135 H   0  0  0  0  0  0  0  0  0  0  0  0
  1  2  2  0
  2  3  1  0
  3  4  2  0
  3  5  1  0
  2  6  1  0
  6  7  2  0
  6  8  1  0
  8  9  1  0
  9 10  1  0
 10 11  1  0
 10 12  2  0
  9 13  2  0
 13 14  1  0
 14 15  2  0
 15 16  1  0
 16 17  2  0
 17 18  1  0
 18 19  1  0
 19 20  1  0
 20 21  2  0
 21 22  1  0
 22 23  2  0
 23 24  1  0
 17 25  1  0
 25 26  2  0
 26  8  1  0
 26 14  1  0
 24 20  1  0
  1 27  1  0
  1 28  1  0
 11 29  1  0
 11 30  1  0
 13 31  1  0
 15 32  1  0
 16 33  1  0
 18 34  1  0
 19 35  1  0
 19 36  1  0
 21 37  1  0
 22 38  1  0
 23 39  1  0
 25 40  1  0
M  CHG  1   5  -1
M  END
>  <UniqueID>  (76) 
76

>  <SMILES>  (76) 
C=C(C(=O)[O-])C(=O)n1c(C(N)=O)cc2ccc(NCc3ccco3)cc21

>  <Energy>  (76) 
108.11879481389286

>  <Genealogy>  (76) 
C=C(C(=O)[O-])C(=O)n1c(C(N)=O)cc2ccc(NCc3ccco3)cc21 (protonated)
C=C(C(=O)[O-])C(=O)n1c(C(N)=O)cc2ccc(NCc3ccco3)cc21 (3D coordinates assigned)
C=C(C(=O)[O-])C(=O)n1c(C(N)=O)cc2ccc(NCc3ccco3)cc21 (optimized conformer: 108.11879481389286 kcal/mol)

>  <smiles>  (76) 
C=C(C(=O)O)C(=O)n1c(C(N)=O)cc2ccc(NCc3ccco3)cc21

>  <score_type>  (76) 
oracle

>  <origin>  (76) 
adg

>  <m_score__min__energy>  (76) 
-10.82

>  <m_primary>  (76) 
energy

$$$$
79:0
     RDKit          3D

 42 43  0  0  0  0  0  0  0  0999 V2000
   -3.6110   21.5460  -27.8920 C   0  0  0  0  0  0  0  0  0  0  0  0
   -2.5950   22.4010  -28.5150 N   0  0  0  0  0  0  0  0  0  0  0  0
   -1.5410   22.9870  -27.6730 C   0  0  0  0  0  0  0  0  0  0  0  0
   -1.7060   24.5120  -27.5570 C   0  0  2  0  0  0  0  0  0  0  0  0
   -2.9840   24.8670  -28.0170 O   0  0  0  0  0  0  0  0  0  0  0  0
   -0.6360   25.2740  -28.3580 C   0  0  0  0  0  0  0  0  0  0  0  0
   -1.2370   26.1790  -29.2420 O   0  0  0  0  0  0  0  0  0  0  0  0
   -2.6310   22.6830  -29.9320 C   0  0  0  0  0  0  0  0  0  0  0  0
   -1.9200   23.6150  -30.3970 O   0  0  0  0  0  0  0  0  0  0  0  0
   -3.4630   21.8990  -30.8710 C   0  0  0  0  0  0  0  0  0  0  0  0
   -2.9420   21.0060  -31.5910 O   0  0  0  0  0  0  0  0  0  0  0  0
   -4.8540   22.2120  -31.0390 N   0  0  0  0  0  0  0  0  0  0  0  0
   -5.4940   23.3820  -30.7600 C   0  0  0  0  0  0  0  0  0  0  0  0
   -4.8970   24.5590  -30.0950 C   0  0  0  0  0  0  0  0  0  0  0  0
   -3.8590   25.3080  -30.7220 N   0  0  0  0  0  0  0  0  0  0  0  0
   -5.2850   24.8890  -28.9430 O   0  0  0  0  0  0  0  0  0  0  0  0
   -6.8340   23.3030  -31.1350 C   0  0  0  0  0  0  0  0  0  0  0  0
   -6.9960   22.0350  -31.6500 C   0  0  0  0  0  0  0  0  0  0  0  0
   -8.1270   21.4140  -32.1690 C   0  0  0  0  0  0  0  0  0  0  0  0
   -7.9970   20.0970  -32.6430 C   0  0  0  0  0  0  0  0  0  0  0  0
   -6.7410   19.4350  -32.6120 C   0  0  0  0  0  0  0  0  0  0  0  0
   -6.6210   18.0100  -33.0860 C   0  0  0  0  0  0  0  0  0  0  0  0
   -7.7480   17.2830  -32.7420 F   0  0  0  0  0  0  0  0  0  0  0  0
   -5.5130   17.4270  -32.5000 F   0  0  0  0  0  0  0  0  0  0  0  0
   -6.4800   17.9630  -34.4620 F   0  0  0  0  0  0  0  0  0  0  0  0
   -5.6220   20.0930  -32.0530 C   0  0  0  0  0  0  0  0  0  0  0  0
   -5.7860   21.3980  -31.5780 C   0  0  0  0  0  0  0  0  0  0  0  0
   -3.5279   21.6159  -26.7974 H   0  0  0  0  0  0  0  0  0  0  0  0
   -4.6118   21.8776  -28.2057 H   0  0  0  0  0  0  0  0  0  0  0  0
   -3.4552   20.5033  -28.2057 H   0  0  0  0  0  0  0  0  0  0  0  0
   -1.5958   22.5426  -26.6682 H   0  0  0  0  0  0  0  0  0  0  0  0
   -0.5664   22.7762  -28.1375 H   0  0  0  0  0  0  0  0  0  0  0  0
   -1.5829   24.7903  -26.4999 H   0  0  0  0  0  0  0  0  0  0  0  0
   -2.9500   24.8450  -29.0090 H   0  0  0  0  0  0  0  0  0  0  0  0
    0.0133   25.8250  -27.6618 H   0  0  0  0  0  0  0  0  0  0  0  0
   -0.0433   24.5509  -28.9375 H   0  0  0  0  0  0  0  0  0  0  0  0
   -1.9490   25.6720  -29.7140 H   0  0  0  0  0  0  0  0  0  0  0  0
   -2.8910   25.3150  -30.3320 H   0  0  0  0  0  0  0  0  0  0  0  0
   -7.6000   24.0867  -31.0400 H   0  0  0  0  0  0  0  0  0  0  0  0
   -9.0937   21.9374  -32.2074 H   0  0  0  0  0  0  0  0  0  0  0  0
   -8.8780   19.5733  -33.0424 H   0  0  0  0  0  0  0  0  0  0  0  0
   -4.6453   19.5905  -31.9930 H   0  0  0  0  0  0  0  0  0  0  0  0
  1  2  1  0
  2  3  1  0
  3  4  1  0
  4  5  1  0
  4  6  1  0
  6  7  1  0
  2  8  1  0
  8  9  2  0
  8 10  1  0
 10 11  2  0
 10 12  1  0
 12 13  1  0
 13 14  1  0
 14 15  1  0
 14 16  2  0
 13 17  2  0
 17 18  1  0
 18 19  2  0
 19 20  1  0
 20 21  2  0
 21 22  1  0
 22 23  1  0
 22 24  1  0
 22 25  1  0
 21 26  1  0
 26 27  2  0
 27 12  1  0
 27 18  1  0
  1 28  1  0
  1 29  1  0
  1 30  1  0
  3 31  1  0
  3 32  1  0
  4 33  1  1
  5 34  1  0
  6 35  1  0
  6 36  1  0
  7 37  1  0
 15 38  1  0
 17 39  1  0
 19 40  1  0
 20 41  1  0
 26 42  1  0
M  CHG  1  15  -1
M  END
>  <UniqueID>  (77) 
77

>  <SMILES>  (77) 
CN(C[C@H](O)CO)C(=O)C(=O)n1c(C([NH-])=O)cc2ccc(C(F)(F)F)cc21

>  <Energy>  (77) 
79.92914817540968

>  <Genealogy>  (77) 
CN(CC(O)CO)C(=O)C(=O)n1c(C([NH-])=O)cc2ccc(C(F)(F)F)cc21 (protonated)
CN(C[C@H](O)CO)C(=O)C(=O)n1c(C([NH-])=O)cc2ccc(C(F)(F)F)cc21 (chirality)
CN(C[C@H](O)CO)C(=O)C(=O)n1c(C([NH-])=O)cc2ccc(C(F)(F)F)cc21 (3D coordinates assigned)
CN(C[C@H](O)CO)C(=O)C(=O)n1c(C([NH-])=O)cc2ccc(C(F)(F)F)cc21 (optimized conformer: 79.92914817540968 kcal/mol)

>  <smiles>  (77) 
CN(CC(O)CO)C(=O)C(=O)n1c(C(N)=O)cc2ccc(C(F)(F)F)cc21

>  <score_type>  (77) 
oracle

>  <origin>  (77) 
adg

>  <m_score__min__energy>  (77) 
-9.9900000000000002

>  <m_primary>  (77) 
energy

$$$$
80:0
     RDKit          3D

 45 46  0  0  0  0  0  0  0  0999 V2000
   -6.5310   25.7060  -29.4260 C   0  0  0  0  0  0  0  0  0  0  0  0
   -6.8800   24.2750  -29.8110 C   0  0  0  0  0  0  0  0  0  0  0  0
   -5.7620   23.4510  -29.5730 O   0  0  0  0  0  0  0  0  0  0  0  0
   -4.6460   23.6440  -30.8540 P   0  0  0  0  0  0  0  0  0  0  0  0
   -5.3690   24.0770  -32.1130 O   0  0  0  0  0  0  0  0  0  0  0  0
   -3.7440   22.0970  -31.1900 C   0  0  0  0  0  0  0  0  0  0  0  0
   -4.0290   21.6460  -32.5910 C   0  0  0  0  0  0  0  0  0  0  0  0
   -3.5550   22.2970  -33.5620 O   0  0  0  0  0  0  0  0  0  0  0  0
   -4.7380   20.4230  -32.8340 N   0  0  0  0  0  0  0  0  0  0  0  0
   -4.2830   19.2960  -33.4490 C   0  0  0  0  0  0  0  0  0  0  0  0
   -2.8900   19.0350  -33.8660 C   0  0  0  0  0  0  0  0  0  0  0  0
   -2.1140   20.0260  -34.5420 N   0  0  0  0  0  0  0  0  0  0  0  0
   -2.3560   17.9290  -33.5750 O   0  0  0  0  0  0  0  0  0  0  0  0
   -5.3170   18.3740  -33.6080 C   0  0  0  0  0  0  0  0  0  0  0  0
   -6.4270   18.9760  -33.0580 C   0  0  0  0  0  0  0  0  0  0  0  0
   -7.7380   18.5200  -32.9600 C   0  0  0  0  0  0  0  0  0  0  0  0
   -8.6870   19.3710  -32.3690 C   0  0  0  0  0  0  0  0  0  0  0  0
   -8.3170   20.6570  -31.9020 C   0  0  0  0  0  0  0  0  0  0  0  0
   -9.3500   21.5540  -31.2820 C   0  0  0  0  0  0  0  0  0  0  0  0
   -9.4920   22.6970  -32.0460 F   0  0  0  0  0  0  0  0  0  0  0  0
   -8.9580   21.9070  -30.0030 F   0  0  0  0  0  0  0  0  0  0  0  0
   -6.9770   21.0860  -32.0230 C   0  0  0  0  0  0  0  0  0  0  0  0
   -6.0490   20.2100  -32.5970 C   0  0  0  0  0  0  0  0  0  0  0  0
   -3.4900   24.8190  -30.4130 O   0  0  0  0  0  0  0  0  0  0  0  0
   -2.6290   24.2650  -29.4480 C   0  0  0  0  0  0  0  0  0  0  0  0
   -3.3300   24.2710  -28.0990 C   0  0  0  0  0  0  0  0  0  0  0  0
   -6.5091   25.7958  -28.3299 H   0  0  0  0  0  0  0  0  0  0  0  0
   -5.5433   25.9652  -29.8350 H   0  0  0  0  0  0  0  0  0  0  0  0
   -7.2884   26.3909  -29.8350 H   0  0  0  0  0  0  0  0  0  0  0  0
   -7.7302   23.9271  -29.2060 H   0  0  0  0  0  0  0  0  0  0  0  0
   -7.1536   24.2324  -30.8756 H   0  0  0  0  0  0  0  0  0  0  0  0
   -2.6639   22.2696  -31.0730 H   0  0  0  0  0  0  0  0  0  0  0  0
   -4.0704   21.3212  -30.4817 H   0  0  0  0  0  0  0  0  0  0  0  0
   -2.4380   21.0160  -34.6200 H   0  0  0  0  0  0  0  0  0  0  0  0
   -1.1440   19.8000  -34.8550 H   0  0  0  0  0  0  0  0  0  0  0  0
   -5.2586   17.3789  -34.0731 H   0  0  0  0  0  0  0  0  0  0  0  0
   -8.0223   17.5251  -33.3333 H   0  0  0  0  0  0  0  0  0  0  0  0
   -9.7296   19.0352  -32.2675 H   0  0  0  0  0  0  0  0  0  0  0  0
  -10.3096   21.0181  -31.2366 H   0  0  0  0  0  0  0  0  0  0  0  0
   -6.6705   22.0834  -31.6749 H   0  0  0  0  0  0  0  0  0  0  0  0
   -2.3769   23.2316  -29.7282 H   0  0  0  0  0  0  0  0  0  0  0  0
   -1.7046   24.8584  -29.3896 H   0  0  0  0  0  0  0  0  0  0  0  0
   -2.5789   24.2646  -27.2954 H   0  0  0  0  0  0  0  0  0  0  0  0
   -3.9515   25.1745  -28.0128 H   0  0  0  0  0  0  0  0  0  0  0  0
   -3.9669   23.3783  -28.0128 H   0  0  0  0  0  0  0  0  0  0  0  0
  1  2  1  0
  2  3  1  0
  3  4  1  0
  4  5  2  0
  4  6  1  0
  6  7  1  0
  7  8  2  0
  7  9  1  0
  9 10  1  0
 10 11  1  0
 11 12  1  0
 11 13  2  0
 10 14  2  0
 14 15  1  0
 15 16  2  0
 16 17  1  0
 17 18  2  0
 18 19  1  0
 19 20  1  0
 19 21  1  0
 18 22  1  0
 22 23  2  0
  4 24  1  0
 24 25  1  0
 25 26  1  0
 23  9  1  0
 23 15  1  0
  1 27  1  0
  1 28  1  0
  1 29  1  0
  2 30  1  0
  2 31  1  0
  6 32  1  0
  6 33  1  0
 12 34  1  0
 12 35  1  0
 14 36  1  0
 16 37  1  0
 17 38  1  0
 19 39  1  0
 22 40  1  0
 25 41  1  0
 25 42  1  0
 26 43  1  0
 26 44  1  0
 26 45  1  0
M  END
>  <UniqueID>  (78) 
78

>  <SMILES>  (78) 
CCOP(=O)(CC(=O)n1c(C(N)=O)cc2ccc(C(F)F)cc21)OCC

>  <Energy>  (78) 
70.65825404190923

>  <Genealogy>  (78) 
CCOP(=O)(CC(=O)n1c(C(N)=O)cc2ccc(C(F)F)cc21)OCC (3D coordinates assigned)
CCOP(=O)(CC(=O)n1c(C(N)=O)cc2ccc(C(F)F)cc21)OCC (optimized conformer: 70.65825404190923 kcal/mol)

>  <smiles>  (78) 
CCOP(=O)(CC(=O)n1c(C(N)=O)cc2ccc(C(F)F)cc21)OCC

>  <score_type>  (78) 
oracle

>  <origin>  (78) 
adg

>  <m_score__min__energy>  (78) 
-8.3800000000000008

>  <m_primary>  (78) 
energy

$$$$
81:0
     RDKit          3D

 42 43  0  0  0  0  0  0  0  0999 V2000
   -7.4680   22.9440  -32.5480 N   0  0  0  0  0  0  0  0  0  0  0  0
   -8.0490   21.6810  -32.2190 C   0  0  0  0  0  0  0  0  0  0  0  0
   -9.2140   21.6440  -31.7420 O   0  0  0  0  0  0  0  0  0  0  0  0
   -7.3320   20.4180  -32.4830 C   0  0  0  0  0  0  0  0  0  0  0  0
   -7.9700   19.1890  -32.6380 C   0  0  0  0  0  0  0  0  0  0  0  0
   -6.9640   18.2930  -32.9220 C   0  0  0  0  0  0  0  0  0  0  0  0
   -7.0240   16.9200  -33.1490 C   0  0  0  0  0  0  0  0  0  0  0  0
   -5.8170   16.2370  -33.3730 C   0  0  0  0  0  0  0  0  0  0  0  0
   -4.5810   16.9300  -33.3630 C   0  0  0  0  0  0  0  0  0  0  0  0
   -3.3010   16.1760  -33.5790 C   0  0  0  0  0  0  0  0  0  0  0  0
   -3.1150   15.9490  -34.9310 F   0  0  0  0  0  0  0  0  0  0  0  0
   -3.3590   14.9640  -32.9160 F   0  0  0  0  0  0  0  0  0  0  0  0
   -4.5590   18.3230  -33.1250 C   0  0  0  0  0  0  0  0  0  0  0  0
   -5.7780   18.9790  -32.9220 C   0  0  0  0  0  0  0  0  0  0  0  0
   -5.9870   20.2840  -32.6470 N   0  0  0  0  0  0  0  0  0  0  0  0
   -4.9680   21.2780  -32.4510 C   0  0  0  0  0  0  0  0  0  0  0  0
   -4.6040   21.9990  -33.4200 O   0  0  0  0  0  0  0  0  0  0  0  0
   -4.3080   21.4540  -31.1190 C   0  0  0  0  0  0  0  0  0  0  0  0
   -3.4980   22.6040  -31.1600 O   0  0  0  0  0  0  0  0  0  0  0  0
   -4.4250   23.9390  -30.6390 P   0  0  2  0  0  0  0  0  0  0  0  0
   -5.6640   24.0740  -31.4970 O   0  0  0  0  0  0  0  0  0  0  0  0
   -3.5130   25.3600  -30.7560 O   0  0  0  0  0  0  0  0  0  0  0  0
   -4.8830   23.7310  -29.0100 O   0  0  0  0  0  0  0  0  0  0  0  0
   -3.8210   24.1550  -28.1900 C   0  0  0  0  0  0  0  0  0  0  0  0
   -2.8340   23.0420  -28.0600 C   0  0  0  0  0  0  0  0  0  0  0  0
   -3.2410   21.8520  -27.9490 O   0  0  0  0  0  0  0  0  0  0  0  0
   -1.4670   23.3290  -28.0980 O   0  0  0  0  0  0  0  0  0  0  0  0
   -0.8550   24.9220  -27.8860 P   0  0  0  0  0  0  0  0  0  0  0  0
   -1.1350   25.3890  -26.4760 O   0  0  0  0  0  0  0  0  0  0  0  0
    0.8140   24.9310  -28.1640 O   0  0  0  0  0  0  0  0  0  0  0  0
   -1.6120   25.9620  -28.9840 O   0  0  0  0  0  0  0  0  0  0  0  0
   -7.9640   23.8290  -32.3010 H   0  0  0  0  0  0  0  0  0  0  0  0
   -6.5870   23.0020  -33.1030 H   0  0  0  0  0  0  0  0  0  0  0  0
   -9.0464   18.9796  -32.5519 H   0  0  0  0  0  0  0  0  0  0  0  0
   -7.9864   16.3872  -33.1527 H   0  0  0  0  0  0  0  0  0  0  0  0
   -5.8315   15.1528  -33.5581 H   0  0  0  0  0  0  0  0  0  0  0  0
   -2.4618   16.7703  -33.1884 H   0  0  0  0  0  0  0  0  0  0  0  0
   -3.6088   18.8766  -33.1000 H   0  0  0  0  0  0  0  0  0  0  0  0
   -5.0752   21.5703  -30.3393 H   0  0  0  0  0  0  0  0  0  0  0  0
   -3.6919   20.5722  -30.8889 H   0  0  0  0  0  0  0  0  0  0  0  0
   -3.3323   25.0305  -28.6424 H   0  0  0  0  0  0  0  0  0  0  0  0
   -4.2049   24.4297  -27.1964 H   0  0  0  0  0  0  0  0  0  0  0  0
  1  2  1  0
  2  3  2  0
  2  4  1  0
  4  5  2  0
  5  6  1  0
  6  7  2  0
  7  8  1  0
  8  9  2  0
  9 10  1  0
 10 11  1  0
 10 12  1  0
  9 13  1  0
 13 14  2  0
 14 15  1  0
 15 16  1  0
 16 17  2  0
 16 18  1  0
 18 19  1  0
 19 20  1  0
 20 21  2  0
 20 22  1  1
 20 23  1  0
 23 24  1  0
 24 25  1  0
 25 26  2  0
 25 27  1  0
 27 28  1  0
 28 29  2  0
 28 30  1  0
 28 31  1  0
 15  4  1  0
 14  6  1  0
  1 32  1  0
  1 33  1  0
  5 34  1  0
  7 35  1  0
  8 36  1  0
 10 37  1  0
 13 38  1  0
 18 39  1  0
 18 40  1  0
 24 41  1  0
 24 42  1  0
M  CHG  3  22  -1  30  -1  31  -1
M  END
>  <UniqueID>  (79) 
79

>  <SMILES>  (79) 
NC(=O)c1cc2ccc(C(F)F)cc2n1C(=O)CO[P@](=O)([O-])OCC(=O)OP(=O)([O-])[O-]

>  <Energy>  (79) 
75.7145457936324

>  <Genealogy>  (79) 
NC(=O)c1cc2ccc(C(F)F)cc2n1C(=O)COP(=O)([O-])OCC(=O)OP(=O)([O-])[O-] (protonated)
NC(=O)c1cc2ccc(C(F)F)cc2n1C(=O)CO[P@](=O)([O-])OCC(=O)OP(=O)([O-])[O-] (chirality)
NC(=O)c1cc2ccc(C(F)F)cc2n1C(=O)CO[P@](=O)([O-])OCC(=O)OP(=O)([O-])[O-] (3D coordinates assigned)
NC(=O)c1cc2ccc(C(F)F)cc2n1C(=O)CO[P@](=O)([O-])OCC(=O)OP(=O)([O-])[O-] (optimized conformer: 75.7145457936324 kcal/mol)

>  <smiles>  (79) 
NC(=O)c1cc2ccc(C(F)F)cc2n1C(=O)COP(=O)(O)OCC(=O)OP(=O)(O)O

>  <score_type>  (79) 
oracle

>  <origin>  (79) 
adg

>  <m_score__min__energy>  (79) 
-13.470000000000001

>  <m_primary>  (79) 
energy

$$$$
82:0
     RDKit          3D

 56 58  0  0  0  0  0  0  0  0999 V2000
   -1.1620   20.4420  -34.2850 C   0  0  0  0  0  0  0  0  0  0  0  0
   -1.9760   19.5160  -33.5020 N   0  0  0  0  0  0  0  0  0  0  0  0
   -1.9990   19.6740  -32.0450 C   0  0  0  0  0  0  0  0  0  0  0  0
   -2.4460   18.3000  -34.1150 C   0  0  0  0  0  0  0  0  0  0  0  0
   -1.7180   17.7160  -34.9630 O   0  0  0  0  0  0  0  0  0  0  0  0
   -3.7810   17.7410  -33.7930 C   0  0  0  0  0  0  0  0  0  0  0  0
   -3.9380   16.3720  -33.5190 C   0  0  0  0  0  0  0  0  0  0  0  0
   -5.1920   15.8540  -33.1950 C   0  0  0  0  0  0  0  0  0  0  0  0
   -6.3060   16.6940  -33.1410 C   0  0  0  0  0  0  0  0  0  0  0  0
   -6.1760   18.0620  -33.4180 C   0  0  0  0  0  0  0  0  0  0  0  0
   -7.3330   18.9100  -33.3240 N   0  0  0  0  0  0  0  0  0  0  0  0
   -7.3620   20.1860  -32.6580 C   0  0  0  0  0  0  0  0  0  0  0  0
   -8.6070   20.7230  -32.2480 C   0  0  0  0  0  0  0  0  0  0  0  0
   -8.6800   21.9780  -31.6190 C   0  0  0  0  0  0  0  0  0  0  0  0
   -7.4950   22.6800  -31.4230 C   0  0  0  0  0  0  0  0  0  0  0  0
   -7.2710   23.8960  -30.8200 C   0  0  0  0  0  0  0  0  0  0  0  0
   -5.8930   24.0960  -30.8900 C   0  0  0  0  0  0  0  0  0  0  0  0
   -5.2180   25.3270  -30.4260 C   0  0  0  0  0  0  0  0  0  0  0  0
   -3.9010   25.6300  -30.8790 N   0  0  0  0  0  0  0  0  0  0  0  0
   -5.7800   26.0970  -29.6010 O   0  0  0  0  0  0  0  0  0  0  0  0
   -5.2910   23.0420  -31.5120 N   0  0  0  0  0  0  0  0  0  0  0  0
   -3.8860   22.8070  -31.6890 C   0  0  0  0  0  0  0  0  0  0  0  0
   -3.4730   22.2790  -32.7550 O   0  0  0  0  0  0  0  0  0  0  0  0
   -2.9930   23.2200  -30.6910 O   0  0  0  0  0  0  0  0  0  0  0  0
   -2.7660   22.5640  -29.4360 C   0  0  0  0  0  0  0  0  0  0  0  0
   -3.4040   23.3710  -28.2880 C   0  0  0  0  0  0  0  0  0  0  0  0
   -1.2590   22.3700  -29.1850 C   0  0  0  0  0  0  0  0  0  0  0  0
   -3.4400   21.1870  -29.5120 C   0  0  0  0  0  0  0  0  0  0  0  0
   -6.2830   22.1890  -31.8360 C   0  0  0  0  0  0  0  0  0  0  0  0
   -6.1800   20.9420  -32.4620 C   0  0  0  0  0  0  0  0  0  0  0  0
   -4.9040   18.5860  -33.7180 C   0  0  0  0  0  0  0  0  0  0  0  0
   -0.5906   21.0921  -33.6061 H   0  0  0  0  0  0  0  0  0  0  0  0
   -0.4666   19.8727  -34.9193 H   0  0  0  0  0  0  0  0  0  0  0  0
   -1.8158   21.0587  -34.9193 H   0  0  0  0  0  0  0  0  0  0  0  0
   -1.8562   18.6934  -31.5675 H   0  0  0  0  0  0  0  0  0  0  0  0
   -1.1902   20.3530  -31.7370 H   0  0  0  0  0  0  0  0  0  0  0  0
   -2.9678   20.0942  -31.7370 H   0  0  0  0  0  0  0  0  0  0  0  0
   -3.0654   15.7035  -33.5603 H   0  0  0  0  0  0  0  0  0  0  0  0
   -5.3035   14.7807  -32.9814 H   0  0  0  0  0  0  0  0  0  0  0  0
   -7.2911   16.2800  -32.8797 H   0  0  0  0  0  0  0  0  0  0  0  0
   -8.2040   18.5930  -33.8050 H   0  0  0  0  0  0  0  0  0  0  0  0
   -9.5293   20.1501  -32.4242 H   0  0  0  0  0  0  0  0  0  0  0  0
   -9.6449   22.3925  -31.2917 H   0  0  0  0  0  0  0  0  0  0  0  0
   -8.0204   24.5682  -30.3765 H   0  0  0  0  0  0  0  0  0  0  0  0
   -3.0640   25.2970  -30.3530 H   0  0  0  0  0  0  0  0  0  0  0  0
   -3.0768   22.9571  -27.3228 H   0  0  0  0  0  0  0  0  0  0  0  0
   -3.0907   24.4229  -28.3610 H   0  0  0  0  0  0  0  0  0  0  0  0
   -4.4998   23.3089  -28.3610 H   0  0  0  0  0  0  0  0  0  0  0  0
   -1.0678   22.3454  -28.1020 H   0  0  0  0  0  0  0  0  0  0  0  0
   -0.9310   21.4222  -29.6368 H   0  0  0  0  0  0  0  0  0  0  0  0
   -0.7017   23.2038  -29.6368 H   0  0  0  0  0  0  0  0  0  0  0  0
   -3.6236   20.8120  -28.4943 H   0  0  0  0  0  0  0  0  0  0  0  0
   -4.3964   21.2760  -30.0481 H   0  0  0  0  0  0  0  0  0  0  0  0
   -2.7830   20.4863  -30.0481 H   0  0  0  0  0  0  0  0  0  0  0  0
   -5.2043   20.5577  -32.7941 H   0  0  0  0  0  0  0  0  0  0  0  0
   -4.7870   19.6653  -33.8953 H   0  0  0  0  0  0  0  0  0  0  0  0
  1  2  1  0
  2  3  1  0
  2  4  1  0
  4  5  2  0
  4  6  1  0
  6  7  2  0
  7  8  1  0
  8  9  2  0
  9 10  1  0
 10 11  1  0
 11 12  1  0
 12 13  2  0
 13 14  1  0
 14 15  2  0
 15 16  1  0
 16 17  2  0
 17 18  1  0
 18 19  1  0
 18 20  2  0
 17 21  1  0
 21 22  1  0
 22 23  2  0
 22 24  1  0
 24 25  1  0
 25 26  1  0
 25 27  1  0
 25 28  1  0
 21 29  1  0
 29 30  2  0
 10 31  2  0
 31  6  1  0
 30 12  1  0
 29 15  1  0
  1 32  1  0
  1 33  1  0
  1 34  1  0
  3 35  1  0
  3 36  1  0
  3 37  1  0
  7 38  1  0
  8 39  1  0
  9 40  1  0
 11 41  1  0
 13 42  1  0
 14 43  1  0
 16 44  1  0
 19 45  1  0
 26 46  1  0
 26 47  1  0
 26 48  1  0
 27 49  1  0
 27 50  1  0
 27 51  1  0
 28 52  1  0
 28 53  1  0
 28 54  1  0
 30 55  1  0
 31 56  1  0
M  CHG  1  19  -1
M  END
>  <UniqueID>  (80) 
80

>  <SMILES>  (80) 
CN(C)C(=O)c1cccc(Nc2ccc3cc(C([NH-])=O)n(C(=O)OC(C)(C)C)c3c2)c1

>  <Energy>  (80) 
97.83375709877222

>  <Genealogy>  (80) 
CN(C)C(=O)c1cccc(Nc2ccc3cc(C([NH-])=O)n(C(=O)OC(C)(C)C)c3c2)c1 (protonated)
CN(C)C(=O)c1cccc(Nc2ccc3cc(C([NH-])=O)n(C(=O)OC(C)(C)C)c3c2)c1 (3D coordinates assigned)
CN(C)C(=O)c1cccc(Nc2ccc3cc(C([NH-])=O)n(C(=O)OC(C)(C)C)c3c2)c1 (optimized conformer: 97.83375709877222 kcal/mol)

>  <smiles>  (80) 
CN(C)C(=O)c1cccc(Nc2ccc3cc(C(N)=O)n(C(=O)OC(C)(C)C)c3c2)c1

>  <score_type>  (80) 
oracle

>  <origin>  (80) 
adg

>  <m_score__min__energy>  (80) 
-12.220000000000001

>  <m_primary>  (80) 
energy

$$$$
83:0
     RDKit          3D

 41 42  0  0  0  0  0  0  0  0999 V2000
   -6.6340   17.6940  -31.9440 C   0  0  0  0  0  0  0  0  0  0  0  0
   -7.5610   18.5700  -32.7820 C   0  0  0  0  0  0  0  0  0  0  0  0
   -7.5750   19.9810  -32.2590 C   0  0  0  0  0  0  0  0  0  0  0  0
   -8.8070   20.6480  -32.0410 C   0  0  0  0  0  0  0  0  0  0  0  0
   -8.8310   21.9740  -31.5750 C   0  0  0  0  0  0  0  0  0  0  0  0
   -7.6110   22.6100  -31.3580 C   0  0  0  0  0  0  0  0  0  0  0  0
   -7.3430   23.8790  -30.8940 C   0  0  0  0  0  0  0  0  0  0  0  0
   -5.9510   23.9760  -30.8700 C   0  0  0  0  0  0  0  0  0  0  0  0
   -5.2190   25.1980  -30.4780 C   0  0  0  0  0  0  0  0  0  0  0  0
   -3.8620   25.3720  -30.8790 N   0  0  0  0  0  0  0  0  0  0  0  0
   -5.7740   26.0830  -29.7750 O   0  0  0  0  0  0  0  0  0  0  0  0
   -5.3860   22.8150  -31.3050 N   0  0  0  0  0  0  0  0  0  0  0  0
   -3.9880   22.4970  -31.3850 C   0  0  0  0  0  0  0  0  0  0  0  0
   -3.4390   22.3760  -32.5140 O   0  0  0  0  0  0  0  0  0  0  0  0
   -3.1860   22.3190  -30.1660 C   0  0  0  0  0  0  0  0  0  0  0  0
   -3.3950   21.3250  -29.4190 O   0  0  0  0  0  0  0  0  0  0  0  0
   -2.1640   23.2700  -29.8430 N   0  0  0  0  0  0  0  0  0  0  0  0
   -1.8350   23.7470  -28.4950 C   0  0  0  0  0  0  0  0  0  0  0  0
   -1.0950   22.6370  -27.7230 C   0  0  0  0  0  0  0  0  0  0  0  0
   -3.1470   24.0770  -27.7720 C   0  0  0  0  0  0  0  0  0  0  0  0
   -0.9990   25.0070  -28.5740 C   0  0  0  0  0  0  0  0  0  0  0  0
   -1.5180   26.0880  -28.9580 O   0  0  0  0  0  0  0  0  0  0  0  0
    0.3260   25.0060  -28.1490 O   0  0  0  0  0  0  0  0  0  0  0  0
   -6.4140   21.9880  -31.5940 C   0  0  0  0  0  0  0  0  0  0  0  0
   -6.3590   20.6620  -32.0360 C   0  0  0  0  0  0  0  0  0  0  0  0
   -6.8252   17.8747  -30.8759 H   0  0  0  0  0  0  0  0  0  0  0  0
   -6.8212   16.6352  -32.1760 H   0  0  0  0  0  0  0  0  0  0  0  0
   -5.5874   17.9407  -32.1760 H   0  0  0  0  0  0  0  0  0  0  0  0
   -7.2092   18.5746  -33.8242 H   0  0  0  0  0  0  0  0  0  0  0  0
   -8.5808   18.1615  -32.7256 H   0  0  0  0  0  0  0  0  0  0  0  0
   -9.7531   20.1228  -32.2384 H   0  0  0  0  0  0  0  0  0  0  0  0
   -9.7828   22.4927  -31.3877 H   0  0  0  0  0  0  0  0  0  0  0  0
   -8.0709   24.6512  -30.6042 H   0  0  0  0  0  0  0  0  0  0  0  0
   -3.0820   25.2580  -30.1940 H   0  0  0  0  0  0  0  0  0  0  0  0
   -1.2071   22.8051  -26.6417 H   0  0  0  0  0  0  0  0  0  0  0  0
   -1.5222   21.6586  -27.9882 H   0  0  0  0  0  0  0  0  0  0  0  0
   -0.0276   22.6550  -27.9882 H   0  0  0  0  0  0  0  0  0  0  0  0
   -2.9866   24.0366  -26.6845 H   0  0  0  0  0  0  0  0  0  0  0  0
   -3.4786   25.0865  -28.0565 H   0  0  0  0  0  0  0  0  0  0  0  0
   -3.9167   23.3445  -28.0565 H   0  0  0  0  0  0  0  0  0  0  0  0
   -5.3934   20.1631  -32.2053 H   0  0  0  0  0  0  0  0  0  0  0  0
  1  2  1  0
  2  3  1  0
  3  4  2  0
  4  5  1  0
  5  6  2  0
  6  7  1  0
  7  8  2  0
  8  9  1  0
  9 10  1  0
  9 11  2  0
  8 12  1  0
 12 13  1  0
 13 14  2  0
 13 15  1  0
 15 16  2  0
 15 17  1  0
 17 18  1  0
 18 19  1  0
 18 20  1  0
 18 21  1  0
 21 22  2  0
 21 23  1  0
 12 24  1  0
 24 25  2  0
 25  3  1  0
 24  6  1  0
  1 26  1  0
  1 27  1  0
  1 28  1  0
  2 29  1  0
  2 30  1  0
  4 31  1  0
  5 32  1  0
  7 33  1  0
 10 34  1  0
 19 35  1  0
 19 36  1  0
 19 37  1  0
 20 38  1  0
 20 39  1  0
 20 40  1  0
 25 41  1  0
M  CHG  3  10  -1  17  -1  23  -1
M  END
>  <UniqueID>  (81) 
81

>  <SMILES>  (81) 
CCc1ccc2cc(C([NH-])=O)n(C(=O)C(=O)[N-]C(C)(C)C(=O)[O-])c2c1

>  <Energy>  (81) 
72.55424870538599

>  <Genealogy>  (81) 
CCc1ccc2cc(C([NH-])=O)n(C(=O)C(=O)[N-]C(C)(C)C(=O)[O-])c2c1 (protonated)
CCc1ccc2cc(C([NH-])=O)n(C(=O)C(=O)[N-]C(C)(C)C(=O)[O-])c2c1 (3D coordinates assigned)
CCc1ccc2cc(C([NH-])=O)n(C(=O)C(=O)[N-]C(C)(C)C(=O)[O-])c2c1 (optimized conformer: 72.55424870538599 kcal/mol)

>  <smiles>  (81) 
CCc1ccc2cc(C(N)=O)n(C(=O)C(=O)NC(C)(C)C(=O)O)c2c1

>  <score_type>  (81) 
oracle

>  <origin>  (81) 
adg

>  <m_score__min__energy>  (81) 
-13.85

>  <m_primary>  (81) 
energy

$$$$
84:0
     RDKit          3D

 36 37  0  0  0  0  0  0  0  0999 V2000
   -3.8470   25.2880  -30.6040 N   0  0  0  0  0  0  0  0  0  0  0  0
   -5.2360   25.1710  -30.3090 C   0  0  0  0  0  0  0  0  0  0  0  0
   -5.8230   26.1170  -29.7200 O   0  0  0  0  0  0  0  0  0  0  0  0
   -5.9990   23.9770  -30.7220 C   0  0  0  0  0  0  0  0  0  0  0  0
   -7.3290   24.0150  -31.1360 C   0  0  0  0  0  0  0  0  0  0  0  0
   -7.6340   22.7230  -31.5050 C   0  0  0  0  0  0  0  0  0  0  0  0
   -8.8250   22.1830  -31.9820 C   0  0  0  0  0  0  0  0  0  0  0  0
   -8.8580   20.8050  -32.2570 C   0  0  0  0  0  0  0  0  0  0  0  0
   -7.7080   19.9990  -32.0550 C   0  0  0  0  0  0  0  0  0  0  0  0
   -7.7650   18.5160  -32.3150 C   0  0  0  0  0  0  0  0  0  0  0  0
   -6.4490   17.9940  -32.9080 C   0  0  0  0  0  0  0  0  0  0  0  0
   -6.0780   18.7140  -34.1710 C   0  0  0  0  0  0  0  0  0  0  0  0
   -5.3670   19.7050  -34.1340 O   0  0  0  0  0  0  0  0  0  0  0  0
   -6.5200   20.5830  -31.5620 C   0  0  0  0  0  0  0  0  0  0  0  0
   -6.5160   21.9580  -31.3080 C   0  0  0  0  0  0  0  0  0  0  0  0
   -5.5060   22.7110  -30.8240 N   0  0  0  0  0  0  0  0  0  0  0  0
   -4.2180   22.2250  -30.4200 C   0  0  0  0  0  0  0  0  0  0  0  0
   -3.5890   22.8240  -29.5050 O   0  0  0  0  0  0  0  0  0  0  0  0
   -3.5530   21.1220  -31.1950 C   0  0  0  0  0  0  0  0  0  0  0  0
   -2.8710   21.6410  -32.4270 C   0  0  0  0  0  0  0  0  0  0  0  0
   -3.6200   21.8800  -33.6190 N   0  0  0  0  0  0  0  0  0  0  0  0
   -1.6370   21.8880  -32.4060 O   0  0  0  0  0  0  0  0  0  0  0  0
   -3.4920   26.0510  -31.2230 H   0  0  0  0  0  0  0  0  0  0  0  0
   -7.9942   24.8906  -31.1626 H   0  0  0  0  0  0  0  0  0  0  0  0
   -9.7119   22.8145  -32.1387 H   0  0  0  0  0  0  0  0  0  0  0  0
   -9.7848   20.3468  -32.6326 H   0  0  0  0  0  0  0  0  0  0  0  0
   -7.9603   17.9947  -31.3662 H   0  0  0  0  0  0  0  0  0  0  0  0
   -8.5686   18.3253  -33.0415 H   0  0  0  0  0  0  0  0  0  0  0  0
   -5.6459   18.1350  -32.1696 H   0  0  0  0  0  0  0  0  0  0  0  0
   -6.5837   16.9295  -33.1503 H   0  0  0  0  0  0  0  0  0  0  0  0
   -6.4500   18.3454  -35.1383 H   0  0  0  0  0  0  0  0  0  0  0  0
   -5.6225   19.9727  -31.3828 H   0  0  0  0  0  0  0  0  0  0  0  0
   -2.8049   20.6355  -30.5518 H   0  0  0  0  0  0  0  0  0  0  0  0
   -4.3287   20.4077  -31.5081 H   0  0  0  0  0  0  0  0  0  0  0  0
   -3.1480   22.2510  -34.4730 H   0  0  0  0  0  0  0  0  0  0  0  0
   -4.6470   21.6910  -33.6490 H   0  0  0  0  0  0  0  0  0  0  0  0
  1  2  1  0
  2  3  2  0
  2  4  1  0
  4  5  2  0
  5  6  1  0
  6  7  2  0
  7  8  1  0
  8  9  2  0
  9 10  1  0
 10 11  1  0
 11 12  1  0
 12 13  2  0
  9 14  1  0
 14 15  2  0
 15 16  1  0
 16 17  1  0
 17 18  2  0
 17 19  1  0
 19 20  1  0
 20 21  1  0
 20 22  2  0
 16  4  1  0
 15  6  1  0
  1 23  1  0
  5 24  1  0
  7 25  1  0
  8 26  1  0
 10 27  1  0
 10 28  1  0
 11 29  1  0
 11 30  1  0
 12 31  1  0
 14 32  1  0
 19 33  1  0
 19 34  1  0
 21 35  1  0
 21 36  1  0
M  CHG  1   1  -1
M  END
>  <UniqueID>  (82) 
82

>  <SMILES>  (82) 
[NH-]C(=O)c1cc2ccc(CCC=O)cc2n1C(=O)CC(N)=O

>  <Energy>  (82) 
69.70294906816834

>  <Genealogy>  (82) 
[NH-]C(=O)c1cc2ccc(CCC=O)cc2n1C(=O)CC(N)=O (protonated)
[NH-]C(=O)c1cc2ccc(CCC=O)cc2n1C(=O)CC(N)=O (3D coordinates assigned)
[NH-]C(=O)c1cc2ccc(CCC=O)cc2n1C(=O)CC(N)=O (optimized conformer: 69.70294906816834 kcal/mol)

>  <smiles>  (82) 
NC(=O)CC(=O)n1c(C(N)=O)cc2ccc(CCC=O)cc21

>  <score_type>  (82) 
oracle

>  <origin>  (82) 
adg

>  <m_score__min__energy>  (82) 
-10.4

>  <m_primary>  (82) 
energy

$$$$
85:0
     RDKit          3D

 42 43  0  0  0  0  0  0  0  0999 V2000
   -6.1540   17.3690  -31.0110 C   0  0  0  0  0  0  0  0  0  0  0  0
   -5.3390   17.2020  -32.2180 N   0  0  0  0  0  0  0  0  0  0  0  0
   -6.1160   17.4610  -33.4430 C   0  0  2  0  0  0  0  0  0  0  0  0
   -6.3720   16.1430  -34.1760 C   0  0  0  0  0  0  0  0  0  0  0  0
   -5.4150   18.4350  -34.3570 C   0  0  0  0  0  0  0  0  0  0  0  0
   -6.0020   18.8780  -35.3830 O   0  0  0  0  0  0  0  0  0  0  0  0
   -4.1120   18.8410  -34.0560 O   0  0  0  0  0  0  0  0  0  0  0  0
   -3.8260   20.0410  -33.3500 C   0  0  0  0  0  0  0  0  0  0  0  0
   -4.1180   19.8490  -31.9710 O   0  0  0  0  0  0  0  0  0  0  0  0
   -4.1660   20.9030  -31.0540 C   0  0  0  0  0  0  0  0  0  0  0  0
   -3.2490   21.0420  -30.1990 O   0  0  0  0  0  0  0  0  0  0  0  0
   -5.2520   21.8420  -31.1040 N   0  0  0  0  0  0  0  0  0  0  0  0
   -5.2420   23.1430  -30.6940 C   0  0  0  0  0  0  0  0  0  0  0  0
   -4.0490   23.9180  -30.2970 C   0  0  0  0  0  0  0  0  0  0  0  0
   -3.8640   25.2560  -30.7500 N   0  0  0  0  0  0  0  0  0  0  0  0
   -3.2110   23.4110  -29.5030 O   0  0  0  0  0  0  0  0  0  0  0  0
   -6.5200   23.6930  -30.7800 C   0  0  0  0  0  0  0  0  0  0  0  0
   -7.3190   22.6840  -31.2680 C   0  0  0  0  0  0  0  0  0  0  0  0
   -8.6840   22.6750  -31.5370 C   0  0  0  0  0  0  0  0  0  0  0  0
   -9.2560   21.4810  -32.0090 C   0  0  0  0  0  0  0  0  0  0  0  0
   -8.4580   20.3240  -32.1980 C   0  0  0  0  0  0  0  0  0  0  0  0
   -9.0780   19.0440  -32.6820 C   0  0  0  0  0  0  0  0  0  0  0  0
  -10.2110   19.3280  -33.4210 F   0  0  0  0  0  0  0  0  0  0  0  0
   -9.4220   18.2520  -31.6010 F   0  0  0  0  0  0  0  0  0  0  0  0
   -7.0770   20.3680  -31.9060 C   0  0  0  0  0  0  0  0  0  0  0  0
   -6.5310   21.5770  -31.4550 C   0  0  0  0  0  0  0  0  0  0  0  0
   -5.5213   17.2394  -30.1205 H   0  0  0  0  0  0  0  0  0  0  0  0
   -6.5958   18.3763  -31.0034 H   0  0  0  0  0  0  0  0  0  0  0  0
   -6.9564   16.6166  -31.0034 H   0  0  0  0  0  0  0  0  0  0  0  0
   -4.5260   17.8630  -32.1640 H   0  0  0  0  0  0  0  0  0  0  0  0
   -7.0733   17.9157  -33.1484 H   0  0  0  0  0  0  0  0  0  0  0  0
   -6.5281   15.3392  -33.4414 H   0  0  0  0  0  0  0  0  0  0  0  0
   -7.2677   16.2422  -34.8068 H   0  0  0  0  0  0  0  0  0  0  0  0
   -5.5043   15.8997  -34.8068 H   0  0  0  0  0  0  0  0  0  0  0  0
   -2.7623   20.2945  -33.4697 H   0  0  0  0  0  0  0  0  0  0  0  0
   -4.4404   20.8617  -33.7488 H   0  0  0  0  0  0  0  0  0  0  0  0
   -3.8790   26.0600  -30.0810 H   0  0  0  0  0  0  0  0  0  0  0  0
   -6.8251   24.7159  -30.5143 H   0  0  0  0  0  0  0  0  0  0  0  0
   -9.2973   23.5754  -31.3848 H   0  0  0  0  0  0  0  0  0  0  0  0
  -10.3321   21.4437  -32.2338 H   0  0  0  0  0  0  0  0  0  0  0  0
   -8.3527   18.5074  -33.3113 H   0  0  0  0  0  0  0  0  0  0  0  0
   -6.4459   19.4756  -32.0295 H   0  0  0  0  0  0  0  0  0  0  0  0
  1  2  1  0
  2  3  1  0
  3  4  1  0
  3  5  1  0
  5  6  2  0
  5  7  1  0
  7  8  1  0
  8  9  1  0
  9 10  1  0
 10 11  2  0
 10 12  1  0
 12 13  1  0
 13 14  1  0
 14 15  1  0
 14 16  2  0
 13 17  2  0
 17 18  1  0
 18 19  2  0
 19 20  1  0
 20 21  2  0
 21 22  1  0
 22 23  1  0
 22 24  1  0
 21 25  1  0
 25 26  2  0
 26 12  1  0
 26 18  1  0
  1 27  1  0
  1 28  1  0
  1 29  1  0
  2 30  1  0
  3 31  1  1
  4 32  1  0
  4 33  1  0
  4 34  1  0
  8 35  1  0
  8 36  1  0
 15 37  1  0
 17 38  1  0
 19 39  1  0
 20 40  1  0
 22 41  1  0
 25 42  1  0
M  CHG  1  15  -1
M  END
>  <UniqueID>  (83) 
83

>  <SMILES>  (83) 
CN[C@H](C)C(=O)OCOC(=O)n1c(C([NH-])=O)cc2ccc(C(F)F)cc21

>  <Energy>  (83) 
74.20883201808122

>  <Genealogy>  (83) 
CNC(C)C(=O)OCOC(=O)n1c(C([NH-])=O)cc2ccc(C(F)F)cc21 (protonated)
CN[C@H](C)C(=O)OCOC(=O)n1c(C([NH-])=O)cc2ccc(C(F)F)cc21 (chirality)
CN[C@H](C)C(=O)OCOC(=O)n1c(C([NH-])=O)cc2ccc(C(F)F)cc21 (3D coordinates assigned)
CN[C@H](C)C(=O)OCOC(=O)n1c(C([NH-])=O)cc2ccc(C(F)F)cc21 (optimized conformer: 74.20883201808122 kcal/mol)

>  <smiles>  (83) 
CNC(C)C(=O)OCOC(=O)n1c(C(N)=O)cc2ccc(C(F)F)cc21

>  <score_type>  (83) 
oracle

>  <origin>  (83) 
adg

>  <m_score__min__energy>  (83) 
-9.9600000000000009

>  <m_primary>  (83) 
energy

$$$$
87:0
     RDKit          3D

 32 33  0  0  0  0  0  0  0  0999 V2000
   -4.0910   22.6850  -28.2120 C   0  0  0  0  0  0  0  0  0  0  0  0
   -3.2370   22.9790  -29.3610 N   0  0  0  0  0  0  0  0  0  0  0  0
   -3.6870   22.6430  -30.6860 C   0  0  0  0  0  0  0  0  0  0  0  0
   -2.8540   22.2680  -31.5560 O   0  0  0  0  0  0  0  0  0  0  0  0
   -5.0790   22.6970  -31.0280 N   0  0  0  0  0  0  0  0  0  0  0  0
   -5.8910   23.7900  -31.0540 C   0  0  0  0  0  0  0  0  0  0  0  0
   -5.5250   25.1490  -30.5990 C   0  0  0  0  0  0  0  0  0  0  0  0
   -4.2170   25.6690  -30.8200 N   0  0  0  0  0  0  0  0  0  0  0  0
   -6.3720   25.8510  -29.9840 O   0  0  0  0  0  0  0  0  0  0  0  0
   -7.1560   23.4440  -31.5260 C   0  0  0  0  0  0  0  0  0  0  0  0
   -7.0890   22.0960  -31.7960 C   0  0  0  0  0  0  0  0  0  0  0  0
   -8.0510   21.2320  -32.3120 C   0  0  0  0  0  0  0  0  0  0  0  0
   -7.6900   19.8890  -32.5160 C   0  0  0  0  0  0  0  0  0  0  0  0
   -6.3820   19.4380  -32.2080 C   0  0  0  0  0  0  0  0  0  0  0  0
   -6.0090   18.0030  -32.4510 C   0  0  0  0  0  0  0  0  0  0  0  0
   -5.9430   17.3240  -31.2480 F   0  0  0  0  0  0  0  0  0  0  0  0
   -6.9590   17.4080  -33.2610 F   0  0  0  0  0  0  0  0  0  0  0  0
   -5.4270   20.3470  -31.7030 C   0  0  0  0  0  0  0  0  0  0  0  0
   -5.8230   21.6710  -31.4900 C   0  0  0  0  0  0  0  0  0  0  0  0
   -1.6850   23.7760  -29.1060 P   0  0  0  0  0  0  0  0  0  0  0  0
   -0.6690   23.2360  -30.0860 O   0  0  0  0  0  0  0  0  0  0  0  0
   -1.8570   25.4420  -29.3470 O   0  0  0  0  0  0  0  0  0  0  0  0
   -1.1390   23.5100  -27.5260 O   0  0  0  0  0  0  0  0  0  0  0  0
   -3.5343   22.8766  -27.2828 H   0  0  0  0  0  0  0  0  0  0  0  0
   -4.9831   23.3278  -28.2442 H   0  0  0  0  0  0  0  0  0  0  0  0
   -4.3984   21.6293  -28.2442 H   0  0  0  0  0  0  0  0  0  0  0  0
   -3.5090   25.6800  -30.0540 H   0  0  0  0  0  0  0  0  0  0  0  0
   -8.0238   24.1075  -31.6553 H   0  0  0  0  0  0  0  0  0  0  0  0
   -9.0630   21.5896  -32.5528 H   0  0  0  0  0  0  0  0  0  0  0  0
   -8.4296   19.1812  -32.9185 H   0  0  0  0  0  0  0  0  0  0  0  0
   -5.0267   17.9655  -32.9446 H   0  0  0  0  0  0  0  0  0  0  0  0
   -4.3992   20.0224  -31.4831 H   0  0  0  0  0  0  0  0  0  0  0  0
  1  2  1  0
  2  3  1  0
  3  4  2  0
  3  5  1  0
  5  6  1  0
  6  7  1  0
  7  8  1  0
  7  9  2  0
  6 10  2  0
 10 11  1  0
 11 12  2  0
 12 13  1  0
 13 14  2  0
 14 15  1  0
 15 16  1  0
 15 17  1  0
 14 18  1  0
 18 19  2  0
  2 20  1  0
 20 21  2  0
 20 22  1  0
 20 23  1  0
 19  5  1  0
 19 11  1  0
  1 24  1  0
  1 25  1  0
  1 26  1  0
  8 27  1  0
 10 28  1  0
 12 29  1  0
 13 30  1  0
 15 31  1  0
 18 32  1  0
M  CHG  3   8  -1  22  -1  23  -1
M  END
>  <UniqueID>  (84) 
84

>  <SMILES>  (84) 
CN(C(=O)n1c(C([NH-])=O)cc2ccc(C(F)F)cc21)P(=O)([O-])[O-]

>  <Energy>  (84) 
67.87525958617627

>  <Genealogy>  (84) 
CN(C(=O)n1c(C([NH-])=O)cc2ccc(C(F)F)cc21)P(=O)([O-])[O-] (protonated)
CN(C(=O)n1c(C([NH-])=O)cc2ccc(C(F)F)cc21)P(=O)([O-])[O-] (3D coordinates assigned)
CN(C(=O)n1c(C([NH-])=O)cc2ccc(C(F)F)cc21)P(=O)([O-])[O-] (optimized conformer: 67.87525958617627 kcal/mol)

>  <smiles>  (84) 
CN(C(=O)n1c(C(N)=O)cc2ccc(C(F)F)cc21)P(=O)(O)O

>  <score_type>  (84) 
oracle

>  <origin>  (84) 
adg

>  <m_score__min__energy>  (84) 
-12.41

>  <m_primary>  (84) 
energy

$$$$
88:0
     RDKit          3D

 40 41  0  0  0  0  0  0  0  0999 V2000
   -4.8000   13.9320  -34.2350 C   0  0  0  0  0  0  0  0  0  0  0  0
   -5.0010   15.2960  -33.7360 N   0  0  0  0  0  0  0  0  0  0  0  0
   -3.9000   16.0170  -33.0860 C   0  0  0  0  0  0  0  0  0  0  0  0
   -6.2900   15.9220  -33.8900 C   0  0  0  0  0  0  0  0  0  0  0  0
   -7.2350   15.3000  -34.4460 O   0  0  0  0  0  0  0  0  0  0  0  0
   -6.5310   17.2620  -33.4190 C   0  0  0  0  0  0  0  0  0  0  0  0
   -6.7280   18.3830  -33.0240 C   0  0  0  0  0  0  0  0  0  0  0  0
   -6.9670   19.7230  -32.5540 C   0  0  0  0  0  0  0  0  0  0  0  0
   -8.2860   20.2250  -32.5020 C   0  0  0  0  0  0  0  0  0  0  0  0
   -8.5320   21.5360  -32.0600 C   0  0  0  0  0  0  0  0  0  0  0  0
   -7.4400   22.3080  -31.6720 C   0  0  0  0  0  0  0  0  0  0  0  0
   -7.3910   23.6140  -31.2380 C   0  0  0  0  0  0  0  0  0  0  0  0
   -6.0430   23.8710  -31.0050 C   0  0  0  0  0  0  0  0  0  0  0  0
   -5.5420   25.1510  -30.4640 C   0  0  0  0  0  0  0  0  0  0  0  0
   -4.1900   25.5640  -30.6680 N   0  0  0  0  0  0  0  0  0  0  0  0
   -6.3070   25.8670  -29.7630 O   0  0  0  0  0  0  0  0  0  0  0  0
   -5.2850   22.7770  -31.2970 N   0  0  0  0  0  0  0  0  0  0  0  0
   -3.8510   22.6810  -31.2930 C   0  0  0  0  0  0  0  0  0  0  0  0
   -3.2350   22.4460  -32.3690 O   0  0  0  0  0  0  0  0  0  0  0  0
   -3.1440   22.8460  -30.0970 O   0  0  0  0  0  0  0  0  0  0  0  0
   -1.7230   22.9260  -30.0330 C   0  0  0  0  0  0  0  0  0  0  0  0
   -1.3020   24.2280  -29.4290 C   0  0  0  0  0  0  0  0  0  0  0  0
   -0.1500   24.3530  -28.9370 O   0  0  0  0  0  0  0  0  0  0  0  0
   -2.1920   25.2930  -29.3770 O   0  0  0  0  0  0  0  0  0  0  0  0
   -6.1560   21.8250  -31.7000 C   0  0  0  0  0  0  0  0  0  0  0  0
   -5.8820   20.5300  -32.1570 C   0  0  0  0  0  0  0  0  0  0  0  0
   -4.6983   13.2417  -33.3846 H   0  0  0  0  0  0  0  0  0  0  0  0
   -5.6640   13.6346  -34.8474 H   0  0  0  0  0  0  0  0  0  0  0  0
   -3.8869   13.8964  -34.8474 H   0  0  0  0  0  0  0  0  0  0  0  0
   -4.0092   15.9455  -31.9938 H   0  0  0  0  0  0  0  0  0  0  0  0
   -2.9408   15.5715  -33.3886 H   0  0  0  0  0  0  0  0  0  0  0  0
   -3.9249   17.0743  -33.3886 H   0  0  0  0  0  0  0  0  0  0  0  0
   -9.1265   19.5854  -32.8096 H   0  0  0  0  0  0  0  0  0  0  0  0
   -9.5546   21.9395  -32.0217 H   0  0  0  0  0  0  0  0  0  0  0  0
   -8.2358   24.3057  -31.1042 H   0  0  0  0  0  0  0  0  0  0  0  0
   -3.4870   24.9190  -31.0920 H   0  0  0  0  0  0  0  0  0  0  0  0
   -3.8660   26.4900  -30.3140 H   0  0  0  0  0  0  0  0  0  0  0  0
   -1.3406   22.0995  -29.4160 H   0  0  0  0  0  0  0  0  0  0  0  0
   -1.3149   22.8563  -31.0521 H   0  0  0  0  0  0  0  0  0  0  0  0
   -4.8496   20.1535  -32.2047 H   0  0  0  0  0  0  0  0  0  0  0  0
  1  2  1  0
  2  3  1  0
  2  4  1  0
  4  5  2  0
  4  6  1  0
  6  7  3  0
  7  8  1  0
  8  9  2  0
  9 10  1  0
 10 11  2  0
 11 12  1  0
 12 13  2  0
 13 14  1  0
 14 15  1  0
 14 16  2  0
 13 17  1  0
 17 18  1  0
 18 19  2  0
 18 20  1  0
 20 21  1  0
 21 22  1  0
 22 23  2  0
 22 24  1  0
 17 25  1  0
 25 26  2  0
 26  8  1  0
 25 11  1  0
  1 27  1  0
  1 28  1  0
  1 29  1  0
  3 30  1  0
  3 31  1  0
  3 32  1  0
  9 33  1  0
 10 34  1  0
 12 35  1  0
 15 36  1  0
 15 37  1  0
 21 38  1  0
 21 39  1  0
 26 40  1  0
M  CHG  1  24  -1
M  END
>  <UniqueID>  (85) 
85

>  <SMILES>  (85) 
CN(C)C(=O)C#Cc1ccc2cc(C(N)=O)n(C(=O)OCC(=O)[O-])c2c1

>  <Energy>  (85) 
70.2578098716843

>  <Genealogy>  (85) 
CN(C)C(=O)C#Cc1ccc2cc(C(N)=O)n(C(=O)OCC(=O)[O-])c2c1 (protonated)
CN(C)C(=O)C#Cc1ccc2cc(C(N)=O)n(C(=O)OCC(=O)[O-])c2c1 (3D coordinates assigned)
CN(C)C(=O)C#Cc1ccc2cc(C(N)=O)n(C(=O)OCC(=O)[O-])c2c1 (optimized conformer: 70.2578098716843 kcal/mol)

>  <smiles>  (85) 
CN(C)C(=O)C#Cc1ccc2cc(C(N)=O)n(C(=O)OCC(=O)O)c2c1

>  <score_type>  (85) 
oracle

>  <origin>  (85) 
adg

>  <m_score__min__energy>  (85) 
-11.5

>  <m_primary>  (85) 
energy

$$$$
89:0
     RDKit          3D

 50 51  0  0  0  0  0  0  0  0999 V2000
   -1.0170   25.9470  -26.9160 C   0  0  0  0  0  0  0  0  0  0  0  0
   -0.9370   25.1800  -28.2360 C   0  0  2  0  0  0  0  0  0  0  0  0
   -1.2310   26.0630  -29.2890 O   0  0  0  0  0  0  0  0  0  0  0  0
   -1.8980   24.0200  -28.2380 C   0  0  0  0  0  0  0  0  0  0  0  0
   -3.1330   24.2220  -28.0750 O   0  0  0  0  0  0  0  0  0  0  0  0
   -1.4180   22.7250  -28.4760 O   0  0  0  0  0  0  0  0  0  0  0  0
   -0.7300   22.3480  -29.6680 C   0  0  0  0  0  0  0  0  0  0  0  0
   -1.6600   22.2730  -30.8460 C   0  0  0  0  0  0  0  0  0  0  0  0
   -1.2320   21.8760  -31.9630 O   0  0  0  0  0  0  0  0  0  0  0  0
   -3.0320   22.6660  -30.6840 N   0  0  0  0  0  0  0  0  0  0  0  0
   -4.0370   22.5260  -31.7020 C   0  0  0  0  0  0  0  0  0  0  0  0
   -3.7400   22.0700  -32.8380 O   0  0  0  0  0  0  0  0  0  0  0  0
   -5.3970   22.8880  -31.4190 N   0  0  0  0  0  0  0  0  0  0  0  0
   -5.8750   24.1000  -31.0170 C   0  0  0  0  0  0  0  0  0  0  0  0
   -5.0570   25.2850  -30.6830 C   0  0  0  0  0  0  0  0  0  0  0  0
   -3.6530   25.1410  -30.4780 N   0  0  0  0  0  0  0  0  0  0  0  0
   -5.5770   26.4270  -30.5990 O   0  0  0  0  0  0  0  0  0  0  0  0
   -7.2630   24.0610  -30.8980 C   0  0  0  0  0  0  0  0  0  0  0  0
   -7.6240   22.7770  -31.2430 C   0  0  0  0  0  0  0  0  0  0  0  0
   -8.8830   22.1910  -31.3220 C   0  0  0  0  0  0  0  0  0  0  0  0
   -8.9610   20.8530  -31.7420 C   0  0  0  0  0  0  0  0  0  0  0  0
   -7.7880   20.1330  -32.0820 C   0  0  0  0  0  0  0  0  0  0  0  0
   -7.8920   18.7150  -32.5790 C   0  0  0  0  0  0  0  0  0  0  0  0
   -6.5520   18.1760  -33.1030 C   0  0  0  0  0  0  0  0  0  0  0  0
   -5.9580   19.0130  -34.2550 C   0  0  0  0  0  0  0  0  0  0  0  0
   -4.7230   19.6900  -33.8580 N   0  0  0  0  0  0  0  0  0  0  0  0
   -6.5270   20.7630  -31.9940 C   0  0  0  0  0  0  0  0  0  0  0  0
   -6.4790   22.0900  -31.5530 C   0  0  0  0  0  0  0  0  0  0  0  0
   -0.9433   25.2403  -26.0763 H   0  0  0  0  0  0  0  0  0  0  0  0
   -0.1893   26.6695  -26.8610 H   0  0  0  0  0  0  0  0  0  0  0  0
   -1.9759   26.4831  -26.8610 H   0  0  0  0  0  0  0  0  0  0  0  0
    0.0774   24.7740  -28.3632 H   0  0  0  0  0  0  0  0  0  0  0  0
   -2.0010   25.6770  -29.7830 H   0  0  0  0  0  0  0  0  0  0  0  0
    0.0526   23.0918  -29.8784 H   0  0  0  0  0  0  0  0  0  0  0  0
   -0.2936   21.3505  -29.5113 H   0  0  0  0  0  0  0  0  0  0  0  0
   -3.3170   23.0800  -29.7680 H   0  0  0  0  0  0  0  0  0  0  0  0
   -3.2110   25.4130  -29.5720 H   0  0  0  0  0  0  0  0  0  0  0  0
   -7.9292   24.8816  -30.5932 H   0  0  0  0  0  0  0  0  0  0  0  0
   -9.7895   22.7579  -31.0635 H   0  0  0  0  0  0  0  0  0  0  0  0
   -9.9416   20.3590  -31.8078 H   0  0  0  0  0  0  0  0  0  0  0  0
   -8.2303   18.0748  -31.7509 H   0  0  0  0  0  0  0  0  0  0  0  0
   -8.6065   18.7053  -33.4153 H   0  0  0  0  0  0  0  0  0  0  0  0
   -5.8315   18.1676  -32.2718 H   0  0  0  0  0  0  0  0  0  0  0  0
   -6.7429   17.1685  -33.5012 H   0  0  0  0  0  0  0  0  0  0  0  0
   -5.7415   18.3471  -35.1033 H   0  0  0  0  0  0  0  0  0  0  0  0
   -6.6941   19.7821  -34.5320 H   0  0  0  0  0  0  0  0  0  0  0  0
   -4.7240   20.6750  -34.2130 H   0  0  0  0  0  0  0  0  0  0  0  0
   -3.9090   19.1860  -34.2770 H   0  0  0  0  0  0  0  0  0  0  0  0
   -4.6140   19.6900  -32.8200 H   0  0  0  0  0  0  0  0  0  0  0  0
   -5.6069   20.2246  -32.2650 H   0  0  0  0  0  0  0  0  0  0  0  0
  1  2  1  0
  2  3  1  0
  2  4  1  0
  4  5  2  0
  4  6  1  0
  6  7  1  0
  7  8  1  0
  8  9  2  0
  8 10  1  0
 10 11  1  0
 11 12  2  0
 11 13  1  0
 13 14  1  0
 14 15  1  0
 15 16  1  0
 15 17  2  0
 14 18  2  0
 18 19  1  0
 19 20  2  0
 20 21  1  0
 21 22  2  0
 22 23  1  0
 23 24  1  0
 24 25  1  0
 25 26  1  0
 22 27  1  0
 27 28  2  0
 28 13  1  0
 28 19  1  0
  1 29  1  0
  1 30  1  0
  1 31  1  0
  2 32  1  6
  3 33  1  0
  7 34  1  0
  7 35  1  0
 10 36  1  0
 16 37  1  0
 18 38  1  0
 20 39  1  0
 21 40  1  0
 23 41  1  0
 23 42  1  0
 24 43  1  0
 24 44  1  0
 25 45  1  0
 25 46  1  0
 26 47  1  0
 26 48  1  0
 26 49  1  0
 27 50  1  0
M  CHG  2  16  -1  26   1
M  END
>  <UniqueID>  (86) 
86

>  <SMILES>  (86) 
C[C@H](O)C(=O)OCC(=O)NC(=O)n1c(C([NH-])=O)cc2ccc(CCC[NH3+])cc21

>  <Energy>  (86) 
80.83978952214588

>  <Genealogy>  (86) 
CC(O)C(=O)OCC(=O)NC(=O)n1c(C([NH-])=O)cc2ccc(CCC[NH3+])cc21 (protonated)
C[C@H](O)C(=O)OCC(=O)NC(=O)n1c(C([NH-])=O)cc2ccc(CCC[NH3+])cc21 (chirality)
C[C@H](O)C(=O)OCC(=O)NC(=O)n1c(C([NH-])=O)cc2ccc(CCC[NH3+])cc21 (3D coordinates assigned)
C[C@H](O)C(=O)OCC(=O)NC(=O)n1c(C([NH-])=O)cc2ccc(CCC[NH3+])cc21 (optimized conformer: 80.83978952214588 kcal/mol)

>  <smiles>  (86) 
CC(O)C(=O)OCC(=O)NC(=O)n1c(C(N)=O)cc2ccc(CCCN)cc21

>  <score_type>  (86) 
oracle

>  <origin>  (86) 
adg

>  <m_score__min__energy>  (86) 
-10.029999999999999

>  <m_primary>  (86) 
energy

$$$$
90:0
     RDKit          3D

 42 43  0  0  0  0  0  0  0  0999 V2000
   -4.1300   25.3310  -30.6750 N   0  0  0  0  0  0  0  0  0  0  0  0
   -5.4860   25.0330  -30.3530 C   0  0  0  0  0  0  0  0  0  0  0  0
   -6.1340   25.8250  -29.6180 O   0  0  0  0  0  0  0  0  0  0  0  0
   -6.1070   23.7910  -30.8580 C   0  0  0  0  0  0  0  0  0  0  0  0
   -7.4820   23.6200  -31.0160 C   0  0  0  0  0  0  0  0  0  0  0  0
   -7.6320   22.3650  -31.5640 C   0  0  0  0  0  0  0  0  0  0  0  0
   -8.7880   21.6720  -31.9120 C   0  0  0  0  0  0  0  0  0  0  0  0
   -8.6460   20.3720  -32.4270 C   0  0  0  0  0  0  0  0  0  0  0  0
   -7.3620   19.7920  -32.5800 C   0  0  0  0  0  0  0  0  0  0  0  0
   -7.2220   18.3830  -33.0960 C   0  0  0  0  0  0  0  0  0  0  0  0
   -5.7570   17.9230  -33.1200 C   0  0  0  0  0  0  0  0  0  0  0  0
   -4.9550   18.5800  -34.2500 C   0  0  0  0  0  0  0  0  0  0  0  0
   -3.8180   19.2130  -33.7320 O   0  0  0  0  0  0  0  0  0  0  0  0
   -6.2130   20.5250  -32.2090 C   0  0  0  0  0  0  0  0  0  0  0  0
   -6.3840   21.8230  -31.7170 C   0  0  0  0  0  0  0  0  0  0  0  0
   -5.4380   22.6860  -31.2890 N   0  0  0  0  0  0  0  0  0  0  0  0
   -4.0240   22.4470  -31.2540 C   0  0  0  0  0  0  0  0  0  0  0  0
   -3.4760   21.8000  -32.1870 O   0  0  0  0  0  0  0  0  0  0  0  0
   -3.2380   22.9490  -30.1630 N   0  0  0  0  0  0  0  0  0  0  0  0
   -1.7970   22.7220  -30.0570 C   0  0  0  0  0  0  0  0  0  0  0  0
   -1.1850   23.5740  -28.9290 C   0  0  1  0  0  0  0  0  0  0  0  0
    0.1240   23.9710  -29.2580 O   0  0  0  0  0  0  0  0  0  0  0  0
   -2.0380   24.7740  -28.6210 C   0  0  0  0  0  0  0  0  0  0  0  0
   -3.1570   24.6360  -28.0570 O   0  0  0  0  0  0  0  0  0  0  0  0
   -1.5800   26.0480  -28.9310 O   0  0  0  0  0  0  0  0  0  0  0  0
   -3.4700   25.6840  -29.9460 H   0  0  0  0  0  0  0  0  0  0  0  0
   -8.2773   24.3348  -30.7580 H   0  0  0  0  0  0  0  0  0  0  0  0
   -9.7815   22.1275  -31.7878 H   0  0  0  0  0  0  0  0  0  0  0  0
   -9.5401   19.7992  -32.7141 H   0  0  0  0  0  0  0  0  0  0  0  0
   -7.7959   17.7074  -32.4447 H   0  0  0  0  0  0  0  0  0  0  0  0
   -7.6030   18.3591  -34.1276 H   0  0  0  0  0  0  0  0  0  0  0  0
   -5.2898   18.1824  -32.1585 H   0  0  0  0  0  0  0  0  0  0  0  0
   -5.7500   16.8366  -33.2923 H   0  0  0  0  0  0  0  0  0  0  0  0
   -4.6449   17.8093  -34.9710 H   0  0  0  0  0  0  0  0  0  0  0  0
   -5.5866   19.3294  -34.7494 H   0  0  0  0  0  0  0  0  0  0  0  0
   -4.1200   20.0850  -33.3660 H   0  0  0  0  0  0  0  0  0  0  0  0
   -5.2089   20.0860  -32.3046 H   0  0  0  0  0  0  0  0  0  0  0  0
   -3.7110   23.5000  -29.4120 H   0  0  0  0  0  0  0  0  0  0  0  0
   -1.6152   21.6584  -29.8434 H   0  0  0  0  0  0  0  0  0  0  0  0
   -1.3261   23.0101  -31.0084 H   0  0  0  0  0  0  0  0  0  0  0  0
   -1.1447   22.9485  -28.0251 H   0  0  0  0  0  0  0  0  0  0  0  0
    0.2080   24.9400  -29.0570 H   0  0  0  0  0  0  0  0  0  0  0  0
  1  2  1  0
  2  3  2  0
  2  4  1  0
  4  5  2  0
  5  6  1  0
  6  7  2  0
  7  8  1  0
  8  9  2  0
  9 10  1  0
 10 11  1  0
 11 12  1  0
 12 13  1  0
  9 14  1  0
 14 15  2  0
 15 16  1  0
 16 17  1  0
 17 18  2  0
 17 19  1  0
 19 20  1  0
 20 21  1  0
 21 22  1  0
 21 23  1  0
 23 24  2  0
 23 25  1  0
 16  4  1  0
 15  6  1  0
  1 26  1  0
  5 27  1  0
  7 28  1  0
  8 29  1  0
 10 30  1  0
 10 31  1  0
 11 32  1  0
 11 33  1  0
 12 34  1  0
 12 35  1  0
 13 36  1  0
 14 37  1  0
 19 38  1  0
 20 39  1  0
 20 40  1  0
 21 41  1  1
 22 42  1  0
M  CHG  2   1  -1  25  -1
M  END
>  <UniqueID>  (87) 
87

>  <SMILES>  (87) 
[NH-]C(=O)c1cc2ccc(CCCO)cc2n1C(=O)NC[C@@H](O)C(=O)[O-]

>  <Energy>  (87) 
72.68390117125537

>  <Genealogy>  (87) 
[NH-]C(=O)c1cc2ccc(CCCO)cc2n1C(=O)NC[C@@H](O)C(=O)[O-] (protonated)
[NH-]C(=O)c1cc2ccc(CCCO)cc2n1C(=O)NC[C@@H](O)C(=O)[O-] (3D coordinates assigned)
[NH-]C(=O)c1cc2ccc(CCCO)cc2n1C(=O)NC[C@@H](O)C(=O)[O-] (optimized conformer: 72.68390117125537 kcal/mol)

>  <smiles>  (87) 
NC(=O)c1cc2ccc(CCCO)cc2n1C(=O)NC[C@@H](O)C(=O)O

>  <score_type>  (87) 
oracle

>  <origin>  (87) 
adg

>  <m_score__min__energy>  (87) 
-12.23

>  <m_primary>  (87) 
energy

$$$$
91:0
     RDKit          3D

 53 54  0  0  0  0  0  0  0  0999 V2000
   -6.8180   23.1610  -32.5170 N   0  0  0  0  0  0  0  0  0  0  0  0
   -6.7910   23.4610  -31.4000 C   0  0  0  0  0  0  0  0  0  0  0  0
   -6.7550   23.8430  -29.9820 C   0  0  0  0  0  0  0  0  0  0  0  0
   -5.9320   25.1130  -29.7750 C   0  0  0  0  0  0  0  0  0  0  0  0
   -5.0190   24.9160  -28.7210 O   0  0  0  0  0  0  0  0  0  0  0  0
   -3.5000   24.4750  -29.3680 P   0  0  1  0  0  0  0  0  0  0  0  0
   -3.6240   24.4100  -30.8730 O   0  0  0  0  0  0  0  0  0  0  0  0
   -2.2840   25.5920  -28.9760 O   0  0  0  0  0  0  0  0  0  0  0  0
   -3.0620   22.9310  -28.7950 O   0  0  0  0  0  0  0  0  0  0  0  0
   -1.7610   23.0080  -28.2620 C   0  0  0  0  0  0  0  0  0  0  0  0
   -0.7430   23.0470  -29.3980 C   0  0  0  0  0  0  0  0  0  0  0  0
   -0.5780   21.7530  -29.9760 O   0  0  0  0  0  0  0  0  0  0  0  0
   -1.2140   21.3440  -31.1540 C   0  0  0  0  0  0  0  0  0  0  0  0
   -1.0190   21.9560  -32.2390 O   0  0  0  0  0  0  0  0  0  0  0  0
   -2.1280   20.1610  -31.1260 C   0  0  0  0  0  0  0  0  0  0  0  0
   -3.4020   20.5390  -30.6370 O   0  0  0  0  0  0  0  0  0  0  0  0
   -3.9270   21.6330  -31.3680 C   0  0  0  0  0  0  0  0  0  0  0  0
   -3.9110   21.3330  -32.8390 C   0  0  0  0  0  0  0  0  0  0  0  0
   -3.7560   22.2750  -33.6620 O   0  0  0  0  0  0  0  0  0  0  0  0
   -4.1560   20.0010  -33.3180 N   0  0  0  0  0  0  0  0  0  0  0  0
   -3.2630   19.1290  -33.8640 C   0  0  0  0  0  0  0  0  0  0  0  0
   -1.8730   19.4430  -34.2500 C   0  0  0  0  0  0  0  0  0  0  0  0
   -1.4030   20.7910  -34.3030 N   0  0  0  0  0  0  0  0  0  0  0  0
   -1.0960   18.5050  -34.5810 O   0  0  0  0  0  0  0  0  0  0  0  0
   -3.8530   17.8820  -34.0590 C   0  0  0  0  0  0  0  0  0  0  0  0
   -5.1490   18.0210  -33.6170 C   0  0  0  0  0  0  0  0  0  0  0  0
   -6.1830   17.0900  -33.5640 C   0  0  0  0  0  0  0  0  0  0  0  0
   -7.4110   17.5010  -33.0190 C   0  0  0  0  0  0  0  0  0  0  0  0
   -7.5810   18.8210  -32.5210 C   0  0  0  0  0  0  0  0  0  0  0  0
   -8.9120   19.2670  -31.9700 C   0  0  0  0  0  0  0  0  0  0  0  0
   -8.7670   20.3910  -31.1760 F   0  0  0  0  0  0  0  0  0  0  0  0
   -9.4560   18.2480  -31.2130 F   0  0  0  0  0  0  0  0  0  0  0  0
   -9.7820   19.5760  -33.0020 F   0  0  0  0  0  0  0  0  0  0  0  0
   -6.5120   19.7430  -32.6150 C   0  0  0  0  0  0  0  0  0  0  0  0
   -5.3060   19.3090  -33.1760 C   0  0  0  0  0  0  0  0  0  0  0  0
   -7.7825   24.0197  -29.6314 H   0  0  0  0  0  0  0  0  0  0  0  0
   -6.2869   23.0268  -29.4122 H   0  0  0  0  0  0  0  0  0  0  0  0
   -5.3812   25.3471  -30.6979 H   0  0  0  0  0  0  0  0  0  0  0  0
   -6.6037   25.9478  -29.5261 H   0  0  0  0  0  0  0  0  0  0  0  0
   -1.6675   23.9208  -27.6554 H   0  0  0  0  0  0  0  0  0  0  0  0
   -1.5717   22.1260  -27.6325 H   0  0  0  0  0  0  0  0  0  0  0  0
   -1.0933   23.7456  -30.1721 H   0  0  0  0  0  0  0  0  0  0  0  0
    0.2246   23.3778  -28.9927 H   0  0  0  0  0  0  0  0  0  0  0  0
   -2.2342   19.7596  -32.1446 H   0  0  0  0  0  0  0  0  0  0  0  0
   -1.7020   19.3938  -30.4627 H   0  0  0  0  0  0  0  0  0  0  0  0
   -4.9624   21.8203  -31.0472 H   0  0  0  0  0  0  0  0  0  0  0  0
   -3.3067   22.5212  -31.1774 H   0  0  0  0  0  0  0  0  0  0  0  0
   -0.4070   20.9900  -34.5500 H   0  0  0  0  0  0  0  0  0  0  0  0
   -2.0550   21.5980  -34.1850 H   0  0  0  0  0  0  0  0  0  0  0  0
   -3.3834   16.9793  -34.4769 H   0  0  0  0  0  0  0  0  0  0  0  0
   -6.0428   16.0648  -33.9372 H   0  0  0  0  0  0  0  0  0  0  0  0
   -8.2512   16.7923  -32.9773 H   0  0  0  0  0  0  0  0  0  0  0  0
   -6.6263   20.7763  -32.2556 H   0  0  0  0  0  0  0  0  0  0  0  0
  1  2  3  0
  2  3  1  0
  3  4  1  0
  4  5  1  0
  5  6  1  0
  6  7  2  0
  6  8  1  6
  6  9  1  0
  9 10  1  0
 10 11  1  0
 11 12  1  0
 12 13  1  0
 13 14  2  0
 13 15  1  0
 15 16  1  0
 16 17  1  0
 17 18  1  0
 18 19  2  0
 18 20  1  0
 20 21  1  0
 21 22  1  0
 22 23  1  0
 22 24  2  0
 21 25  2  0
 25 26  1  0
 26 27  2  0
 27 28  1  0
 28 29  2  0
 29 30  1  0
 30 31  1  0
 30 32  1  0
 30 33  1  0
 29 34  1  0
 34 35  2  0
 35 20  1  0
 35 26  1  0
  3 36  1  0
  3 37  1  0
  4 38  1  0
  4 39  1  0
 10 40  1  0
 10 41  1  0
 11 42  1  0
 11 43  1  0
 15 44  1  0
 15 45  1  0
 17 46  1  0
 17 47  1  0
 23 48  1  0
 23 49  1  0
 25 50  1  0
 27 51  1  0
 28 52  1  0
 34 53  1  0
M  CHG  1   8  -1
M  END
>  <UniqueID>  (88) 
88

>  <SMILES>  (88) 
N#CCCO[P@@](=O)([O-])OCCOC(=O)COCC(=O)n1c(C(N)=O)cc2ccc(C(F)(F)F)cc21

>  <Energy>  (88) 
86.73597656243432

>  <Genealogy>  (88) 
N#CCCOP(=O)([O-])OCCOC(=O)COCC(=O)n1c(C(N)=O)cc2ccc(C(F)(F)F)cc21 (protonated)
N#CCCO[P@@](=O)([O-])OCCOC(=O)COCC(=O)n1c(C(N)=O)cc2ccc(C(F)(F)F)cc21 (chirality)
N#CCCO[P@@](=O)([O-])OCCOC(=O)COCC(=O)n1c(C(N)=O)cc2ccc(C(F)(F)F)cc21 (3D coordinates assigned)
N#CCCO[P@@](=O)([O-])OCCOC(=O)COCC(=O)n1c(C(N)=O)cc2ccc(C(F)(F)F)cc21 (optimized conformer: 86.73597656243432 kcal/mol)

>  <smiles>  (88) 
N#CCCOP(=O)(O)OCCOC(=O)COCC(=O)n1c(C(N)=O)cc2ccc(C(F)(F)F)cc21

>  <score_type>  (88) 
oracle

>  <origin>  (88) 
adg

>  <m_score__min__energy>  (88) 
-10.49

>  <m_primary>  (88) 
energy

$$$$
92:0
     RDKit          3D

 51 54  0  0  0  0  0  0  0  0999 V2000
   -5.5030   24.8120  -28.9830 N   0  0  0  0  0  0  0  0  0  0  0  0
   -5.5860   24.5230  -30.3800 C   0  0  0  0  0  0  0  0  0  0  0  0
   -5.0020   25.2800  -31.2010 O   0  0  0  0  0  0  0  0  0  0  0  0
   -6.2990   23.3270  -30.8770 C   0  0  0  0  0  0  0  0  0  0  0  0
   -7.6450   23.3230  -31.2380 C   0  0  0  0  0  0  0  0  0  0  0  0
   -7.9120   22.0300  -31.6300 C   0  0  0  0  0  0  0  0  0  0  0  0
   -9.1070   21.4460  -32.0420 C   0  0  0  0  0  0  0  0  0  0  0  0
   -9.1070   20.0670  -32.3130 C   0  0  0  0  0  0  0  0  0  0  0  0
   -7.9220   19.3030  -32.1670 C   0  0  0  0  0  0  0  0  0  0  0  0
   -7.9470   17.8170  -32.3920 C   0  0  0  0  0  0  0  0  0  0  0  0
   -6.6800   17.3820  -32.9720 N   0  0  0  0  0  0  0  0  0  0  0  0
   -6.2020   17.6870  -34.1900 C   0  0  0  0  0  0  0  0  0  0  0  0
   -4.9410   17.1490  -34.2940 C   0  0  0  0  0  0  0  0  0  0  0  0
   -4.6190   16.5230  -33.1420 N   0  0  0  0  0  0  0  0  0  0  0  0
   -5.7020   16.6920  -32.3560 C   0  0  0  0  0  0  0  0  0  0  0  0
   -6.7340   19.9270  -31.7330 C   0  0  0  0  0  0  0  0  0  0  0  0
   -6.7570   21.3050  -31.4950 C   0  0  0  0  0  0  0  0  0  0  0  0
   -5.7560   22.0900  -31.0420 N   0  0  0  0  0  0  0  0  0  0  0  0
   -4.4520   21.6500  -30.6350 C   0  0  0  0  0  0  0  0  0  0  0  0
   -4.2310   20.4180  -30.5020 O   0  0  0  0  0  0  0  0  0  0  0  0
   -3.3730   22.6270  -30.3900 C   0  0  0  0  0  0  0  0  0  0  0  0
   -3.0660   23.4530  -31.2930 O   0  0  0  0  0  0  0  0  0  0  0  0
   -2.6460   22.6350  -29.1510 N   0  0  0  0  0  0  0  0  0  0  0  0
   -1.4540   23.4840  -29.0300 C   0  0  0  0  0  0  0  0  0  0  0  0
   -1.8360   24.9290  -29.1130 C   0  0  0  0  0  0  0  0  0  0  0  0
   -3.0240   25.2560  -29.3690 O   0  0  0  0  0  0  0  0  0  0  0  0
   -0.8770   25.9150  -28.9160 O   0  0  0  0  0  0  0  0  0  0  0  0
   -3.2510   22.0560  -27.9460 C   0  0  0  0  0  0  0  0  0  0  0  0
   -2.5460   20.7900  -27.5750 C   0  0  0  0  0  0  0  0  0  0  0  0
   -3.0820   19.7450  -26.8340 C   0  0  0  0  0  0  0  0  0  0  0  0
   -2.2140   18.6520  -26.7200 C   0  0  0  0  0  0  0  0  0  0  0  0
   -1.0040   18.8290  -27.3800 C   0  0  0  0  0  0  0  0  0  0  0  0
   -1.0150   20.3440  -28.1090 S   0  0  0  0  0  0  0  0  0  0  0  0
   -5.0400   25.6900  -28.6590 H   0  0  0  0  0  0  0  0  0  0  0  0
   -5.8030   24.1180  -28.2670 H   0  0  0  0  0  0  0  0  0  0  0  0
   -8.3448   24.1714  -31.2148 H   0  0  0  0  0  0  0  0  0  0  0  0
  -10.0227   22.0455  -32.1520 H   0  0  0  0  0  0  0  0  0  0  0  0
  -10.0350   19.5761  -32.6414 H   0  0  0  0  0  0  0  0  0  0  0  0
   -8.1033   17.3050  -31.4311 H   0  0  0  0  0  0  0  0  0  0  0  0
   -8.7663   17.5686  -33.0827 H   0  0  0  0  0  0  0  0  0  0  0  0
   -6.7262   18.2643  -34.9659 H   0  0  0  0  0  0  0  0  0  0  0  0
   -4.2934   17.2181  -35.1805 H   0  0  0  0  0  0  0  0  0  0  0  0
   -5.7775   16.3091  -31.3275 H   0  0  0  0  0  0  0  0  0  0  0  0
   -5.8126   19.3446  -31.5854 H   0  0  0  0  0  0  0  0  0  0  0  0
   -0.9682   23.2919  -28.0620 H   0  0  0  0  0  0  0  0  0  0  0  0
   -0.7617   23.2487  -29.8518 H   0  0  0  0  0  0  0  0  0  0  0  0
   -3.1696   22.7743  -27.1169 H   0  0  0  0  0  0  0  0  0  0  0  0
   -4.3096   21.8336  -28.1457 H   0  0  0  0  0  0  0  0  0  0  0  0
   -4.0849   19.7729  -26.3831 H   0  0  0  0  0  0  0  0  0  0  0  0
   -2.4663   17.7391  -26.1606 H   0  0  0  0  0  0  0  0  0  0  0  0
   -0.1795   18.1019  -27.4189 H   0  0  0  0  0  0  0  0  0  0  0  0
  1  2  1  0
  2  3  2  0
  2  4  1  0
  4  5  2  0
  5  6  1  0
  6  7  2  0
  7  8  1  0
  8  9  2  0
  9 10  1  0
 10 11  1  0
 11 12  1  0
 12 13  2  0
 13 14  1  0
 14 15  2  0
  9 16  1  0
 16 17  2  0
 17 18  1  0
 18 19  1  0
 19 20  2  0
 19 21  1  0
 21 22  2  0
 21 23  1  0
 23 24  1  0
 24 25  1  0
 25 26  2  0
 25 27  1  0
 23 28  1  0
 28 29  1  0
 29 30  2  0
 30 31  1  0
 31 32  2  0
 32 33  1  0
 18  4  1  0
 33 29  1  0
 17  6  1  0
 15 11  1  0
  1 34  1  0
  1 35  1  0
  5 36  1  0
  7 37  1  0
  8 38  1  0
 10 39  1  0
 10 40  1  0
 12 41  1  0
 13 42  1  0
 15 43  1  0
 16 44  1  0
 24 45  1  0
 24 46  1  0
 28 47  1  0
 28 48  1  0
 30 49  1  0
 31 50  1  0
 32 51  1  0
M  CHG  1  27  -1
M  END
>  <UniqueID>  (89) 
89

>  <SMILES>  (89) 
NC(=O)c1cc2ccc(Cn3ccnc3)cc2n1C(=O)C(=O)N(CC(=O)[O-])Cc1cccs1

>  <Energy>  (89) 
147.4856083421431

>  <Genealogy>  (89) 
NC(=O)c1cc2ccc(Cn3ccnc3)cc2n1C(=O)C(=O)N(CC(=O)[O-])Cc1cccs1 (protonated)
NC(=O)c1cc2ccc(Cn3ccnc3)cc2n1C(=O)C(=O)N(CC(=O)[O-])Cc1cccs1 (3D coordinates assigned)
NC(=O)c1cc2ccc(Cn3ccnc3)cc2n1C(=O)C(=O)N(CC(=O)[O-])Cc1cccs1 (optimized conformer: 147.4856083421431 kcal/mol)

>  <smiles>  (89) 
NC(=O)c1cc2ccc(Cn3ccnc3)cc2n1C(=O)C(=O)N(CC(=O)O)Cc1cccs1

>  <score_type>  (89) 
oracle

>  <origin>  (89) 
adg

>  <m_score__min__energy>  (89) 
-13.029999999999999

>  <m_primary>  (89) 
energy

$$$$
93:0
     RDKit          3D

 34 35  0  0  0  0  0  0  0  0999 V2000
   -2.4041   22.6580  -27.7147 H   0  0  0  0  0  0  0  0  0  0  0  0
   -2.5370   23.0050  -28.7500 C   0  0  0  0  0  0  0  0  0  0  0  0
   -1.7690   24.1960  -29.1570 C   0  0  0  0  0  0  0  0  0  0  0  0
   -2.3360   25.2930  -29.3990 O   0  0  0  0  0  0  0  0  0  0  0  0
   -0.4020   24.0780  -29.3730 O   0  0  0  0  0  0  0  0  0  0  0  0
   -3.3830   22.3030  -29.5210 C   0  0  0  0  0  0  0  0  0  0  0  0
   -3.7443   21.3451  -29.1186 H   0  0  0  0  0  0  0  0  0  0  0  0
   -3.8760   22.6950  -30.8610 C   0  0  0  0  0  0  0  0  0  0  0  0
   -3.0750   22.9840  -31.7900 O   0  0  0  0  0  0  0  0  0  0  0  0
   -5.2870   22.8070  -31.0950 N   0  0  0  0  0  0  0  0  0  0  0  0
   -6.0690   23.9050  -30.9030 C   0  0  0  0  0  0  0  0  0  0  0  0
   -5.5750   25.2430  -30.4980 C   0  0  0  0  0  0  0  0  0  0  0  0
   -6.3520   26.0590  -29.9380 O   0  0  0  0  0  0  0  0  0  0  0  0
   -4.2150   25.6240  -30.7210 N   0  0  0  0  0  0  0  0  0  0  0  0
   -3.5530   25.0100  -31.2430 H   0  0  0  0  0  0  0  0  0  0  0  0
   -3.8760   26.5570  -30.3990 H   0  0  0  0  0  0  0  0  0  0  0  0
   -7.4010   23.6080  -31.1960 C   0  0  0  0  0  0  0  0  0  0  0  0
   -8.2631   24.2893  -31.1452 H   0  0  0  0  0  0  0  0  0  0  0  0
   -7.4060   22.2810  -31.5620 C   0  0  0  0  0  0  0  0  0  0  0  0
   -8.4630   21.4610  -31.9450 C   0  0  0  0  0  0  0  0  0  0  0  0
   -9.4886   21.8530  -32.0117 H   0  0  0  0  0  0  0  0  0  0  0  0
   -8.1810   20.1170  -32.2440 C   0  0  0  0  0  0  0  0  0  0  0  0
   -8.9932   19.4502  -32.5692 H   0  0  0  0  0  0  0  0  0  0  0  0
   -6.8590   19.6100  -32.1310 C   0  0  0  0  0  0  0  0  0  0  0  0
   -6.5600   18.1700  -32.4860 C   0  0  0  0  0  0  0  0  0  0  0  0
   -5.7460   17.5990  -31.5220 F   0  0  0  0  0  0  0  0  0  0  0  0
   -7.7340   17.4350  -32.5410 F   0  0  0  0  0  0  0  0  0  0  0  0
   -5.8600   18.0950  -33.8400 C   0  0  0  0  0  0  0  0  0  0  0  0
   -4.7769   17.9790  -33.6869 H   0  0  0  0  0  0  0  0  0  0  0  0
   -6.2450   17.2330  -34.4045 H   0  0  0  0  0  0  0  0  0  0  0  0
   -6.0536   19.0190  -34.4045 H   0  0  0  0  0  0  0  0  0  0  0  0
   -5.8100   20.4820  -31.7560 C   0  0  0  0  0  0  0  0  0  0  0  0
   -4.7753   20.1168  -31.6778 H   0  0  0  0  0  0  0  0  0  0  0  0
   -6.1190   21.8190  -31.4870 C   0  0  0  0  0  0  0  0  0  0  0  0
  1  2  1  0
  2  3  1  0
  3  4  2  0
  3  5  1  0
  2  6  2  0
  6  7  1  0
  6  8  1  0
  8  9  2  0
  8 10  1  0
 10 11  1  0
 11 12  1  0
 12 13  2  0
 12 14  1  0
 14 15  1  0
 14 16  1  0
 11 17  2  0
 17 18  1  0
 17 19  1  0
 19 20  2  0
 20 21  1  0
 20 22  1  0
 22 23  1  0
 22 24  2  0
 24 25  1  0
 25 26  1  0
 25 27  1  0
 25 28  1  0
 28 29  1  0
 28 30  1  0
 28 31  1  0
 24 32  1  0
 32 33  1  0
 32 34  2  0
 34 10  1  0
 34 19  1  0
M  CHG  1   5  -1
M  END
>  <UniqueID>  (90) 
90

>  <SMILES>  (90) 
CC(F)(F)c1ccc2cc(C(N)=O)n(C(=O)/C=C\C(=O)[O-])c2c1

>  <Energy>  (90) 
78.00989381407071

>  <Genealogy>  (90) 
CC(F)(F)c1ccc2cc(C(N)=O)n(C(=O)/C=C\C(=O)[O-])c2c1 (protonated)
CC(F)(F)c1ccc2cc(C(N)=O)n(C(=O)/C=C\C(=O)[O-])c2c1 (cis-trans isomerization)
CC(F)(F)c1ccc2cc(C(N)=O)n(C(=O)/C=C\C(=O)[O-])c2c1 (3D coordinates assigned)
CC(F)(F)c1ccc2cc(C(N)=O)n(C(=O)/C=C\C(=O)[O-])c2c1 (optimized conformer: 78.00989381407071 kcal/mol)

>  <smiles>  (90) 
CC(F)(F)c1ccc2cc(C(N)=O)n(C(=O)/C=C\C(=O)O)c2c1

>  <score_type>  (90) 
oracle

>  <origin>  (90) 
adg

>  <m_score__min__energy>  (90) 
-11.49

>  <m_primary>  (90) 
energy

$$$$
94:0
     RDKit          3D

 38 39  0  0  0  0  0  0  0  0999 V2000
   -6.8150   17.6690  -32.1850 C   0  0  0  0  0  0  0  0  0  0  0  0
   -7.6990   18.6860  -32.7460 N   0  0  0  0  0  0  0  0  0  0  0  0
   -7.7030   20.0590  -32.3160 C   0  0  0  0  0  0  0  0  0  0  0  0
   -8.9150   20.7930  -32.1850 C   0  0  0  0  0  0  0  0  0  0  0  0
   -8.9010   22.1340  -31.7620 C   0  0  0  0  0  0  0  0  0  0  0  0
   -7.6690   22.7180  -31.4840 C   0  0  0  0  0  0  0  0  0  0  0  0
   -7.3690   23.9830  -31.0290 C   0  0  0  0  0  0  0  0  0  0  0  0
   -5.9810   24.0090  -30.8990 C   0  0  0  0  0  0  0  0  0  0  0  0
   -5.2210   25.1980  -30.4540 C   0  0  0  0  0  0  0  0  0  0  0  0
   -3.8640   25.3940  -30.8450 N   0  0  0  0  0  0  0  0  0  0  0  0
   -5.7830   26.0660  -29.7340 O   0  0  0  0  0  0  0  0  0  0  0  0
   -5.4480   22.8100  -31.2650 N   0  0  0  0  0  0  0  0  0  0  0  0
   -4.0720   22.4080  -31.2210 C   0  0  0  0  0  0  0  0  0  0  0  0
   -3.2170   23.0300  -31.9080 O   0  0  0  0  0  0  0  0  0  0  0  0
   -3.6530   21.2200  -30.4090 C   0  0  0  0  0  0  0  0  0  0  0  0
   -2.4980   21.5930  -29.5360 C   0  0  0  0  0  0  0  0  0  0  0  0
   -1.8800   20.6960  -28.9010 O   0  0  0  0  0  0  0  0  0  0  0  0
   -2.1350   22.9700  -29.3780 N   0  0  0  0  0  0  0  0  0  0  0  0
   -1.1430   23.3850  -28.3860 C   0  0  0  0  0  0  0  0  0  0  0  0
   -0.7790   24.8230  -28.5760 C   0  0  0  0  0  0  0  0  0  0  0  0
    0.2840   25.2820  -28.0810 O   0  0  0  0  0  0  0  0  0  0  0  0
   -1.5930   25.6470  -29.3440 O   0  0  0  0  0  0  0  0  0  0  0  0
   -6.4920   22.0300  -31.6160 C   0  0  0  0  0  0  0  0  0  0  0  0
   -6.4750   20.6900  -32.0170 C   0  0  0  0  0  0  0  0  0  0  0  0
   -6.8544   17.7144  -31.0866 H   0  0  0  0  0  0  0  0  0  0  0  0
   -7.1400   16.6739  -32.5228 H   0  0  0  0  0  0  0  0  0  0  0  0
   -5.7843   17.8523  -32.5228 H   0  0  0  0  0  0  0  0  0  0  0  0
   -8.3840   18.3830  -33.4760 H   0  0  0  0  0  0  0  0  0  0  0  0
   -9.8736   20.3060  -32.4172 H   0  0  0  0  0  0  0  0  0  0  0  0
   -9.8356   22.7040  -31.6542 H   0  0  0  0  0  0  0  0  0  0  0  0
   -8.0744   24.7992  -30.8139 H   0  0  0  0  0  0  0  0  0  0  0  0
   -3.1190   24.7200  -30.5620 H   0  0  0  0  0  0  0  0  0  0  0  0
   -4.4943   20.8896  -29.7821 H   0  0  0  0  0  0  0  0  0  0  0  0
   -3.3537   20.4035  -31.0827 H   0  0  0  0  0  0  0  0  0  0  0  0
   -2.6390   23.6900  -29.9450 H   0  0  0  0  0  0  0  0  0  0  0  0
   -1.5607   23.2479  -27.3777 H   0  0  0  0  0  0  0  0  0  0  0  0
   -0.2389   22.7708  -28.5098 H   0  0  0  0  0  0  0  0  0  0  0  0
   -5.5260   20.1396  -32.0977 H   0  0  0  0  0  0  0  0  0  0  0  0
  1  2  1  0
  2  3  1  0
  3  4  2  0
  4  5  1  0
  5  6  2  0
  6  7  1  0
  7  8  2  0
  8  9  1  0
  9 10  1  0
  9 11  2  0
  8 12  1  0
 12 13  1  0
 13 14  2  0
 13 15  1  0
 15 16  1  0
 16 17  2  0
 16 18  1  0
 18 19  1  0
 19 20  1  0
 20 21  2  0
 20 22  1  0
 12 23  1  0
 23 24  2  0
 24  3  1  0
 23  6  1  0
  1 25  1  0
  1 26  1  0
  1 27  1  0
  2 28  1  0
  4 29  1  0
  5 30  1  0
  7 31  1  0
 10 32  1  0
 15 33  1  0
 15 34  1  0
 18 35  1  0
 19 36  1  0
 19 37  1  0
 24 38  1  0
M  CHG  2  10  -1  22  -1
M  END
>  <UniqueID>  (91) 
91

>  <SMILES>  (91) 
CNc1ccc2cc(C([NH-])=O)n(C(=O)CC(=O)NCC(=O)[O-])c2c1

>  <Energy>  (91) 
70.05286305571822

>  <Genealogy>  (91) 
CNc1ccc2cc(C([NH-])=O)n(C(=O)CC(=O)NCC(=O)[O-])c2c1 (protonated)
CNc1ccc2cc(C([NH-])=O)n(C(=O)CC(=O)NCC(=O)[O-])c2c1 (3D coordinates assigned)
CNc1ccc2cc(C([NH-])=O)n(C(=O)CC(=O)NCC(=O)[O-])c2c1 (optimized conformer: 70.05286305571822 kcal/mol)

>  <smiles>  (91) 
CNc1ccc2cc(C(N)=O)n(C(=O)CC(=O)NCC(=O)O)c2c1

>  <score_type>  (91) 
oracle

>  <origin>  (91) 
adg

>  <m_score__min__energy>  (91) 
-11.949999999999999

>  <m_primary>  (91) 
energy

$$$$
95:0
     RDKit          3D

 40 42  0  0  0  0  0  0  0  0999 V2000
   -6.1660   13.4550  -34.5070 C   0  0  0  0  0  0  0  0  0  0  0  0
   -5.4060   14.1930  -33.5580 O   0  0  0  0  0  0  0  0  0  0  0  0
   -5.6780   15.5270  -33.2420 C   0  0  0  0  0  0  0  0  0  0  0  0
   -6.1650   16.3820  -34.2320 C   0  0  0  0  0  0  0  0  0  0  0  0
   -6.4370   17.7140  -33.9180 C   0  0  0  0  0  0  0  0  0  0  0  0
   -6.2250   18.1920  -32.6140 C   0  0  0  0  0  0  0  0  0  0  0  0
   -6.5110   19.6060  -32.2640 C   0  0  0  0  0  0  0  0  0  0  0  0
   -7.8440   20.0950  -32.2880 C   0  0  0  0  0  0  0  0  0  0  0  0
   -8.1240   21.4340  -31.9720 C   0  0  0  0  0  0  0  0  0  0  0  0
   -7.0600   22.2600  -31.6260 C   0  0  0  0  0  0  0  0  0  0  0  0
   -7.0470   23.5980  -31.3030 C   0  0  0  0  0  0  0  0  0  0  0  0
   -5.7100   23.9050  -31.0590 C   0  0  0  0  0  0  0  0  0  0  0  0
   -5.2510   25.2320  -30.5970 C   0  0  0  0  0  0  0  0  0  0  0  0
   -3.9170   25.6700  -30.8340 N   0  0  0  0  0  0  0  0  0  0  0  0
   -6.0350   25.9680  -29.9410 O   0  0  0  0  0  0  0  0  0  0  0  0
   -4.9270   22.8030  -31.2320 N   0  0  0  0  0  0  0  0  0  0  0  0
   -3.4950   22.7270  -31.1730 C   0  0  0  0  0  0  0  0  0  0  0  0
   -2.8370   22.4370  -32.2090 O   0  0  0  0  0  0  0  0  0  0  0  0
   -2.8340   23.0000  -29.9690 O   0  0  0  0  0  0  0  0  0  0  0  0
   -1.4140   23.0560  -29.8490 C   0  0  0  0  0  0  0  0  0  0  0  0
   -0.9940   24.3510  -29.2310 C   0  0  0  0  0  0  0  0  0  0  0  0
   -1.7480   25.3570  -29.3000 O   0  0  0  0  0  0  0  0  0  0  0  0
    0.2410   24.4580  -28.6050 O   0  0  0  0  0  0  0  0  0  0  0  0
   -5.7700   21.8040  -31.5780 C   0  0  0  0  0  0  0  0  0  0  0  0
   -5.4580   20.4800  -31.9060 C   0  0  0  0  0  0  0  0  0  0  0  0
   -5.7350   17.2930  -31.6490 C   0  0  0  0  0  0  0  0  0  0  0  0
   -5.4760   16.0020  -31.9820 N   0  0  0  0  0  0  0  0  0  0  0  0
   -6.8584   12.7827  -33.9792 H   0  0  0  0  0  0  0  0  0  0  0  0
   -6.7394   14.1501  -35.1379 H   0  0  0  0  0  0  0  0  0  0  0  0
   -5.4880   12.8614  -35.1379 H   0  0  0  0  0  0  0  0  0  0  0  0
   -6.3332   16.0082  -35.2528 H   0  0  0  0  0  0  0  0  0  0  0  0
   -6.8191   18.3928  -34.6947 H   0  0  0  0  0  0  0  0  0  0  0  0
   -8.6670   19.4166  -32.5574 H   0  0  0  0  0  0  0  0  0  0  0  0
   -9.1544   21.8183  -31.9973 H   0  0  0  0  0  0  0  0  0  0  0  0
   -7.9086   24.2797  -31.2490 H   0  0  0  0  0  0  0  0  0  0  0  0
   -3.1170   25.0000  -30.7980 H   0  0  0  0  0  0  0  0  0  0  0  0
   -1.0706   22.2242  -29.2163 H   0  0  0  0  0  0  0  0  0  0  0  0
   -0.9678   22.9776  -30.8514 H   0  0  0  0  0  0  0  0  0  0  0  0
   -4.4165   20.1265  -31.8859 H   0  0  0  0  0  0  0  0  0  0  0  0
   -5.5607   17.6377  -30.6190 H   0  0  0  0  0  0  0  0  0  0  0  0
  1  2  1  0
  2  3  1  0
  3  4  2  0
  4  5  1  0
  5  6  2  0
  6  7  1  0
  7  8  2  0
  8  9  1  0
  9 10  2  0
 10 11  1  0
 11 12  2  0
 12 13  1  0
 13 14  1  0
 13 15  2  0
 12 16  1  0
 16 17  1  0
 17 18  2  0
 17 19  1  0
 19 20  1  0
 20 21  1  0
 21 22  2  0
 21 23  1  0
 16 24  1  0
 24 25  2  0
  6 26  1  0
 26 27  2  0
 27  3  1  0
 25  7  1  0
 24 10  1  0
  1 28  1  0
  1 29  1  0
  1 30  1  0
  4 31  1  0
  5 32  1  0
  8 33  1  0
  9 34  1  0
 11 35  1  0
 14 36  1  0
 20 37  1  0
 20 38  1  0
 25 39  1  0
 26 40  1  0
M  CHG  2  14  -1  23  -1
M  END
>  <UniqueID>  (92) 
92

>  <SMILES>  (92) 
COc1ccc(-c2ccc3cc(C([NH-])=O)n(C(=O)OCC(=O)[O-])c3c2)cn1

>  <Energy>  (92) 
83.34136578942827

>  <Genealogy>  (92) 
COc1ccc(-c2ccc3cc(C([NH-])=O)n(C(=O)OCC(=O)[O-])c3c2)cn1 (protonated)
COc1ccc(-c2ccc3cc(C([NH-])=O)n(C(=O)OCC(=O)[O-])c3c2)cn1 (3D coordinates assigned)
COc1ccc(-c2ccc3cc(C([NH-])=O)n(C(=O)OCC(=O)[O-])c3c2)cn1 (optimized conformer: 83.34136578942827 kcal/mol)

>  <smiles>  (92) 
COc1ccc(-c2ccc3cc(C(N)=O)n(C(=O)OCC(=O)O)c3c2)cn1

>  <score_type>  (92) 
oracle

>  <origin>  (92) 
adg

>  <m_score__min__energy>  (92) 
-12.880000000000001

>  <m_primary>  (92) 
energy

$$$$
96:0
     RDKit          3D

 38 39  0  0  0  0  0  0  0  0999 V2000
   -2.9740   24.3900  -27.0900 C   0  0  0  0  0  0  0  0  0  0  0  0
   -2.4100   24.1430  -28.4900 C   0  0  1  0  0  0  0  0  0  0  0  0
   -1.1770   24.9660  -28.7230 C   0  0  0  0  0  0  0  0  0  0  0  0
   -1.2440   26.0640  -29.3380 O   0  0  0  0  0  0  0  0  0  0  0  0
    0.0500   24.5260  -28.2410 O   0  0  0  0  0  0  0  0  0  0  0  0
   -2.0540   22.4040  -28.7320 S   0  0  0  0  0  0  0  0  0  0  0  0
   -1.9490   21.7290  -27.3940 O   0  0  0  0  0  0  0  0  0  0  0  0
   -0.7520   22.2450  -29.4690 O   0  0  0  0  0  0  0  0  0  0  0  0
   -3.3690   21.6470  -29.6710 C   0  0  0  0  0  0  0  0  0  0  0  0
   -3.7860   22.5480  -30.7920 C   0  0  0  0  0  0  0  0  0  0  0  0
   -2.9220   22.9670  -31.6090 O   0  0  0  0  0  0  0  0  0  0  0  0
   -5.1720   22.8430  -31.0120 N   0  0  0  0  0  0  0  0  0  0  0  0
   -5.8310   24.0100  -30.7710 C   0  0  0  0  0  0  0  0  0  0  0  0
   -5.2090   25.2870  -30.3650 C   0  0  0  0  0  0  0  0  0  0  0  0
   -3.9200   25.6590  -30.8470 N   0  0  0  0  0  0  0  0  0  0  0  0
   -5.8350   26.0760  -29.6090 O   0  0  0  0  0  0  0  0  0  0  0  0
   -7.1940   23.8590  -31.0270 C   0  0  0  0  0  0  0  0  0  0  0  0
   -7.3450   22.5540  -31.4410 C   0  0  0  0  0  0  0  0  0  0  0  0
   -8.4890   21.8570  -31.8160 C   0  0  0  0  0  0  0  0  0  0  0  0
   -8.3490   20.5050  -32.1750 C   0  0  0  0  0  0  0  0  0  0  0  0
   -7.0760   19.8790  -32.1520 C   0  0  0  0  0  0  0  0  0  0  0  0
   -6.9510   18.4300  -32.5280 C   0  0  0  0  0  0  0  0  0  0  0  0
   -6.3970   18.3220  -33.7910 F   0  0  0  0  0  0  0  0  0  0  0  0
   -8.2010   17.8380  -32.5240 F   0  0  0  0  0  0  0  0  0  0  0  0
   -5.9370   20.6200  -31.7680 C   0  0  0  0  0  0  0  0  0  0  0  0
   -6.1080   21.9650  -31.4250 C   0  0  0  0  0  0  0  0  0  0  0  0
   -2.2396   24.0684  -26.3368 H   0  0  0  0  0  0  0  0  0  0  0  0
   -3.1837   25.4623  -26.9631 H   0  0  0  0  0  0  0  0  0  0  0  0
   -3.9043   23.8169  -26.9631 H   0  0  0  0  0  0  0  0  0  0  0  0
   -3.1727   24.4482  -29.2216 H   0  0  0  0  0  0  0  0  0  0  0  0
   -3.0166   20.6907  -30.0848 H   0  0  0  0  0  0  0  0  0  0  0  0
   -4.2303   21.4739  -29.0091 H   0  0  0  0  0  0  0  0  0  0  0  0
   -3.0520   25.3040  -30.3890 H   0  0  0  0  0  0  0  0  0  0  0  0
   -7.9809   24.6203  -30.9208 H   0  0  0  0  0  0  0  0  0  0  0  0
   -9.4729   22.3486  -31.8312 H   0  0  0  0  0  0  0  0  0  0  0  0
   -9.2349   19.9269  -32.4766 H   0  0  0  0  0  0  0  0  0  0  0  0
   -6.3024   17.9230  -31.7984 H   0  0  0  0  0  0  0  0  0  0  0  0
   -4.9420   20.1519  -31.7394 H   0  0  0  0  0  0  0  0  0  0  0  0
  1  2  1  0
  2  3  1  0
  3  4  2  0
  3  5  1  0
  2  6  1  0
  6  7  2  0
  6  8  2  0
  6  9  1  0
  9 10  1  0
 10 11  2  0
 10 12  1  0
 12 13  1  0
 13 14  1  0
 14 15  1  0
 14 16  2  0
 13 17  2  0
 17 18  1  0
 18 19  2  0
 19 20  1  0
 20 21  2  0
 21 22  1  0
 22 23  1  0
 22 24  1  0
 21 25  1  0
 25 26  2  0
 26 12  1  0
 26 18  1  0
  1 27  1  0
  1 28  1  0
  1 29  1  0
  2 30  1  6
  9 31  1  0
  9 32  1  0
 15 33  1  0
 17 34  1  0
 19 35  1  0
 20 36  1  0
 22 37  1  0
 25 38  1  0
M  CHG  2   5  -1  15  -1
M  END
>  <UniqueID>  (93) 
93

>  <SMILES>  (93) 
C[C@@H](C(=O)[O-])S(=O)(=O)CC(=O)n1c(C([NH-])=O)cc2ccc(C(F)F)cc21

>  <Energy>  (93) 
66.33807290109951

>  <Genealogy>  (93) 
CC(C(=O)[O-])S(=O)(=O)CC(=O)n1c(C([NH-])=O)cc2ccc(C(F)F)cc21 (protonated)
C[C@@H](C(=O)[O-])S(=O)(=O)CC(=O)n1c(C([NH-])=O)cc2ccc(C(F)F)cc21 (chirality)
C[C@@H](C(=O)[O-])S(=O)(=O)CC(=O)n1c(C([NH-])=O)cc2ccc(C(F)F)cc21 (3D coordinates assigned)
C[C@@H](C(=O)[O-])S(=O)(=O)CC(=O)n1c(C([NH-])=O)cc2ccc(C(F)F)cc21 (optimized conformer: 66.33807290109951 kcal/mol)

>  <smiles>  (93) 
CC(C(=O)O)S(=O)(=O)CC(=O)n1c(C(N)=O)cc2ccc(C(F)F)cc21

>  <score_type>  (93) 
oracle

>  <origin>  (93) 
adg

>  <m_score__min__energy>  (93) 
-12.74

>  <m_primary>  (93) 
energy

$$$$
97:0
     RDKit          3D

 49 50  0  0  0  0  0  0  0  0999 V2000
   -3.9460   25.6720  -30.7710 N   0  0  0  0  0  0  0  0  0  0  0  0
   -5.2970   25.2870  -30.5270 C   0  0  0  0  0  0  0  0  0  0  0  0
   -6.0900   26.1130  -29.9970 O   0  0  0  0  0  0  0  0  0  0  0  0
   -5.7860   23.9450  -30.9110 C   0  0  0  0  0  0  0  0  0  0  0  0
   -7.1020   23.6770  -31.2810 C   0  0  0  0  0  0  0  0  0  0  0  0
   -7.1290   22.3350  -31.5890 C   0  0  0  0  0  0  0  0  0  0  0  0
   -8.1890   21.5220  -31.9800 C   0  0  0  0  0  0  0  0  0  0  0  0
   -7.9320   20.1520  -32.1800 C   0  0  0  0  0  0  0  0  0  0  0  0
   -6.6280   19.6260  -31.9910 C   0  0  0  0  0  0  0  0  0  0  0  0
   -6.3780   18.1520  -32.1470 C   0  0  0  0  0  0  0  0  0  0  0  0
   -5.7900   17.7890  -33.8310 P   0  0  0  0  0  0  0  0  0  0  0  0
   -6.5010   16.5700  -34.3700 O   0  0  0  0  0  0  0  0  0  0  0  0
   -4.1260   17.4910  -33.7910 O   0  0  0  0  0  0  0  0  0  0  0  0
   -6.0920   19.1110  -34.8410 O   0  0  0  0  0  0  0  0  0  0  0  0
   -5.5780   20.4830  -31.5910 C   0  0  0  0  0  0  0  0  0  0  0  0
   -5.8640   21.8400  -31.4070 C   0  0  0  0  0  0  0  0  0  0  0  0
   -5.0310   22.8140  -30.9920 N   0  0  0  0  0  0  0  0  0  0  0  0
   -3.6600   22.6370  -30.6120 C   0  0  0  0  0  0  0  0  0  0  0  0
   -2.7600   23.3010  -31.1910 O   0  0  0  0  0  0  0  0  0  0  0  0
   -3.2820   21.6140  -29.5830 C   0  0  0  0  0  0  0  0  0  0  0  0
   -2.5770   22.2260  -28.5200 O   0  0  0  0  0  0  0  0  0  0  0  0
   -1.1870   21.9630  -28.6040 C   0  0  0  0  0  0  0  0  0  0  0  0
   -0.4390   22.7260  -27.5100 C   0  0  0  0  0  0  0  0  0  0  0  0
   -0.1830   24.1010  -27.9280 N   0  0  0  0  0  0  0  0  0  0  0  0
   -1.2200   25.0540  -28.1730 C   0  0  0  0  0  0  0  0  0  0  0  0
   -1.5570   25.3020  -29.3620 O   0  0  0  0  0  0  0  0  0  0  0  0
   -1.8550   25.6940  -27.1010 O   0  0  0  0  0  0  0  0  0  0  0  0
   -2.7000   25.0220  -26.1650 C   0  0  0  0  0  0  0  0  0  0  0  0
   -4.0040   24.5810  -26.8330 C   0  0  0  0  0  0  0  0  0  0  0  0
   -3.8530   24.5450  -28.2860 N   0  0  0  0  0  0  0  0  0  0  0  0
   -3.1610   25.2270  -30.2530 H   0  0  0  0  0  0  0  0  0  0  0  0
   -7.9415   24.3868  -31.3191 H   0  0  0  0  0  0  0  0  0  0  0  0
   -9.1968   21.9371  -32.1283 H   0  0  0  0  0  0  0  0  0  0  0  0
   -8.7501   19.4832  -32.4857 H   0  0  0  0  0  0  0  0  0  0  0  0
   -5.6166   17.8336  -31.4197 H   0  0  0  0  0  0  0  0  0  0  0  0
   -7.3174   17.6078  -31.9697 H   0  0  0  0  0  0  0  0  0  0  0  0
   -4.5623   20.0933  -31.4285 H   0  0  0  0  0  0  0  0  0  0  0  0
   -4.1937   21.1409  -29.1893 H   0  0  0  0  0  0  0  0  0  0  0  0
   -2.6370   20.8559  -30.0513 H   0  0  0  0  0  0  0  0  0  0  0  0
   -1.0129   20.8841  -28.4787 H   0  0  0  0  0  0  0  0  0  0  0  0
   -0.8181   22.2908  -29.5871 H   0  0  0  0  0  0  0  0  0  0  0  0
   -1.0475   22.7338  -26.5936 H   0  0  0  0  0  0  0  0  0  0  0  0
    0.5230   22.2266  -27.3228 H   0  0  0  0  0  0  0  0  0  0  0  0
   -2.1759   24.1364  -25.7765 H   0  0  0  0  0  0  0  0  0  0  0  0
   -2.9396   25.7143  -25.3445 H   0  0  0  0  0  0  0  0  0  0  0  0
   -4.2728   23.5770  -26.4728 H   0  0  0  0  0  0  0  0  0  0  0  0
   -4.7942   25.3022  -26.5771 H   0  0  0  0  0  0  0  0  0  0  0  0
   -3.0370   23.9300  -28.5050 H   0  0  0  0  0  0  0  0  0  0  0  0
   -3.6030   25.5080  -28.6130 H   0  0  0  0  0  0  0  0  0  0  0  0
  1  2  1  0
  2  3  2  0
  2  4  1  0
  4  5  2  0
  5  6  1  0
  6  7  2  0
  7  8  1  0
  8  9  2  0
  9 10  1  0
 10 11  1  0
 11 12  2  0
 11 13  1  0
 11 14  1  0
  9 15  1  0
 15 16  2  0
 16 17  1  0
 17 18  1  0
 18 19  2  0
 18 20  1  0
 20 21  1  0
 21 22  1  0
 22 23  1  0
 23 24  1  0
 24 25  1  0
 25 26  2  0
 25 27  1  0
 27 28  1  0
 28 29  1  0
 29 30  1  0
 17  4  1  0
 16  6  1  0
  1 31  1  0
  5 32  1  0
  7 33  1  0
  8 34  1  0
 10 35  1  0
 10 36  1  0
 15 37  1  0
 20 38  1  0
 20 39  1  0
 22 40  1  0
 22 41  1  0
 23 42  1  0
 23 43  1  0
 28 44  1  0
 28 45  1  0
 29 46  1  0
 29 47  1  0
 30 48  1  0
 30 49  1  0
M  CHG  4   1  -1  13  -1  14  -1  24  -1
M  END
>  <UniqueID>  (94) 
94

>  <SMILES>  (94) 
[NH-]C(=O)c1cc2ccc(CP(=O)([O-])[O-])cc2n1C(=O)COCC[N-]C(=O)OCCN

>  <Energy>  (94) 
75.64846375953042

>  <Genealogy>  (94) 
[NH-]C(=O)c1cc2ccc(CP(=O)([O-])[O-])cc2n1C(=O)COCC[N-]C(=O)OCCN (protonated)
[NH-]C(=O)c1cc2ccc(CP(=O)([O-])[O-])cc2n1C(=O)COCC[N-]C(=O)OCCN (3D coordinates assigned)
[NH-]C(=O)c1cc2ccc(CP(=O)([O-])[O-])cc2n1C(=O)COCC[N-]C(=O)OCCN (optimized conformer: 75.64846375953042 kcal/mol)

>  <smiles>  (94) 
NCCOC(=O)NCCOCC(=O)n1c(C(N)=O)cc2ccc(CP(=O)(O)O)cc21

>  <score_type>  (94) 
oracle

>  <origin>  (94) 
adg

>  <m_score__min__energy>  (94) 
-10.85

>  <m_primary>  (94) 
energy

$$$$
98:0
     RDKit          3D

 55 56  0  0  0  0  0  0  0  0999 V2000
   -3.9250   18.8260  -34.0230 C   0  0  0  0  0  0  0  0  0  0  0  0
   -2.5680   18.3880  -33.6890 N   0  0  0  0  0  0  0  0  0  0  0  0
   -2.2780   16.9540  -33.6120 C   0  0  0  0  0  0  0  0  0  0  0  0
   -1.5560   19.3320  -33.2680 C   0  0  0  0  0  0  0  0  0  0  0  0
   -0.6950   18.9750  -32.4140 O   0  0  0  0  0  0  0  0  0  0  0  0
   -1.4470   20.7230  -33.8590 C   0  0  1  0  0  0  0  0  0  0  0  0
   -1.9750   21.7020  -32.9130 N   0  0  0  0  0  0  0  0  0  0  0  0
   -3.3670   22.0200  -32.8030 C   0  0  0  0  0  0  0  0  0  0  0  0
   -4.1480   21.7920  -33.7670 O   0  0  0  0  0  0  0  0  0  0  0  0
   -3.8760   22.6150  -31.5610 C   0  0  0  0  0  0  0  0  0  0  0  0
   -3.0730   22.8490  -30.6180 O   0  0  0  0  0  0  0  0  0  0  0  0
   -5.2750   22.9000  -31.3900 N   0  0  0  0  0  0  0  0  0  0  0  0
   -5.8260   24.0540  -30.9150 C   0  0  0  0  0  0  0  0  0  0  0  0
   -5.1010   25.3100  -30.6290 C   0  0  0  0  0  0  0  0  0  0  0  0
   -3.6850   25.2920  -30.4630 N   0  0  0  0  0  0  0  0  0  0  0  0
   -5.7170   26.4010  -30.5270 O   0  0  0  0  0  0  0  0  0  0  0  0
   -7.2010   23.9060  -30.7430 C   0  0  0  0  0  0  0  0  0  0  0  0
   -7.4800   22.6170  -31.1230 C   0  0  0  0  0  0  0  0  0  0  0  0
   -8.6870   21.9280  -31.1220 C   0  0  0  0  0  0  0  0  0  0  0  0
   -8.6770   20.5810  -31.5130 C   0  0  0  0  0  0  0  0  0  0  0  0
   -7.4610   19.9320  -31.8530 C   0  0  0  0  0  0  0  0  0  0  0  0
   -7.4830   18.4950  -32.3020 C   0  0  0  0  0  0  0  0  0  0  0  0
   -6.9810   18.3850  -33.5870 F   0  0  0  0  0  0  0  0  0  0  0  0
   -6.7020   17.7370  -31.4470 F   0  0  0  0  0  0  0  0  0  0  0  0
   -8.7730   17.9900  -32.2980 F   0  0  0  0  0  0  0  0  0  0  0  0
   -6.2540   20.6690  -31.8460 C   0  0  0  0  0  0  0  0  0  0  0  0
   -6.3000   22.0230  -31.4950 C   0  0  0  0  0  0  0  0  0  0  0  0
   -0.0010   21.0890  -34.2400 C   0  0  2  0  0  0  0  0  0  0  0  0
    0.7940   21.2100  -33.0850 O   0  0  0  0  0  0  0  0  0  0  0  0
    0.0220   22.3110  -34.9800 O   0  0  0  0  0  0  0  0  0  0  0  0
    1.1420   22.7330  -35.7070 C   0  0  0  0  0  0  0  0  0  0  0  0
    1.0070   23.3800  -36.7820 O   0  0  0  0  0  0  0  0  0  0  0  0
    2.5170   22.4300  -35.1920 C   0  0  0  0  0  0  0  0  0  0  0  0
    3.1030   21.1720  -35.8480 C   0  0  0  0  0  0  0  0  0  0  0  0
    3.6960   21.4160  -37.2090 C   0  0  0  0  0  0  0  0  0  0  0  0
    4.2730   22.5080  -37.4480 O   0  0  0  0  0  0  0  0  0  0  0  0
    3.6190   20.4610  -38.2150 O   0  0  0  0  0  0  0  0  0  0  0  0
   -4.4898   19.0083  -33.0969 H   0  0  0  0  0  0  0  0  0  0  0  0
   -3.8763   19.7541  -34.6115 H   0  0  0  0  0  0  0  0  0  0  0  0
   -4.4281   18.0446  -34.6115 H   0  0  0  0  0  0  0  0  0  0  0  0
   -2.2162   16.6485  -32.5571 H   0  0  0  0  0  0  0  0  0  0  0  0
   -3.0803   16.3904  -34.1106 H   0  0  0  0  0  0  0  0  0  0  0  0
   -1.3197   16.7464  -34.1106 H   0  0  0  0  0  0  0  0  0  0  0  0
   -2.0398   20.7345  -34.7855 H   0  0  0  0  0  0  0  0  0  0  0  0
   -3.0560   24.9260  -31.2130 H   0  0  0  0  0  0  0  0  0  0  0  0
   -7.9123   24.6623  -30.3796 H   0  0  0  0  0  0  0  0  0  0  0  0
   -9.6222   22.4242  -30.8235 H   0  0  0  0  0  0  0  0  0  0  0  0
   -9.6227   20.0208  -31.5567 H   0  0  0  0  0  0  0  0  0  0  0  0
   -5.3004   20.1888  -32.1105 H   0  0  0  0  0  0  0  0  0  0  0  0
    0.4086   20.2848  -34.8690 H   0  0  0  0  0  0  0  0  0  0  0  0
    0.2170   20.9820  -32.3090 H   0  0  0  0  0  0  0  0  0  0  0  0
    3.1752   23.2845  -35.4080 H   0  0  0  0  0  0  0  0  0  0  0  0
    2.4465   22.2515  -34.1089 H   0  0  0  0  0  0  0  0  0  0  0  0
    3.8918   20.7746  -35.1924 H   0  0  0  0  0  0  0  0  0  0  0  0
    2.2714   20.4648  -35.9834 H   0  0  0  0  0  0  0  0  0  0  0  0
  1  2  1  0
  2  3  1  0
  2  4  1  0
  4  5  2  0
  4  6  1  0
  6  7  1  0
  7  8  1  0
  8  9  2  0
  8 10  1  0
 10 11  2  0
 10 12  1  0
 12 13  1  0
 13 14  1  0
 14 15  1  0
 14 16  2  0
 13 17  2  0
 17 18  1  0
 18 19  2  0
 19 20  1  0
 20 21  2  0
 21 22  1  0
 22 23  1  0
 22 24  1  0
 22 25  1  0
 21 26  1  0
 26 27  2  0
  6 28  1  0
 28 29  1  0
 28 30  1  0
 30 31  1  0
 31 32  2  0
 31 33  1  0
 33 34  1  0
 34 35  1  0
 35 36  2  0
 35 37  1  0
 27 12  1  0
 27 18  1  0
  1 38  1  0
  1 39  1  0
  1 40  1  0
  3 41  1  0
  3 42  1  0
  3 43  1  0
  6 44  1  6
 15 45  1  0
 17 46  1  0
 19 47  1  0
 20 48  1  0
 26 49  1  0
 28 50  1  6
 29 51  1  0
 33 52  1  0
 33 53  1  0
 34 54  1  0
 34 55  1  0
M  CHG  3   7  -1  15  -1  37  -1
M  END
>  <UniqueID>  (95) 
95

>  <SMILES>  (95) 
CN(C)C(=O)[C@@H]([N-]C(=O)C(=O)n1c(C([NH-])=O)cc2ccc(C(F)(F)F)cc21)[C@H](O)OC(=O)CCC(=O)[O-]

>  <Energy>  (95) 
88.67031332131492

>  <Genealogy>  (95) 
CN(C)C(=O)C([N-]C(=O)C(=O)n1c(C([NH-])=O)cc2ccc(C(F)(F)F)cc21)C(O)OC(=O)CCC(=O)[O-] (protonated)
CN(C)C(=O)[C@@H]([N-]C(=O)C(=O)n1c(C([NH-])=O)cc2ccc(C(F)(F)F)cc21)[C@H](O)OC(=O)CCC(=O)[O-] (chirality)
CN(C)C(=O)[C@@H]([N-]C(=O)C(=O)n1c(C([NH-])=O)cc2ccc(C(F)(F)F)cc21)[C@H](O)OC(=O)CCC(=O)[O-] (3D coordinates assigned)
CN(C)C(=O)[C@@H]([N-]C(=O)C(=O)n1c(C([NH-])=O)cc2ccc(C(F)(F)F)cc21)[C@H](O)OC(=O)CCC(=O)[O-] (optimized conformer: 88.67031332131492 kcal/mol)

>  <smiles>  (95) 
CN(C)C(=O)C(NC(=O)C(=O)n1c(C(N)=O)cc2ccc(C(F)(F)F)cc21)C(O)OC(=O)CCC(=O)O

>  <score_type>  (95) 
oracle

>  <origin>  (95) 
adg

>  <m_score__min__energy>  (95) 
-12.76

>  <m_primary>  (95) 
energy

$$$$
