0:0
     RDKit          3D

 43 44  0  0  0  0  0  0  0  0999 V2000
   -2.0700   21.0850  -32.3990 C   0  0  0  0  0  0  0  0  0  0  0  0
   -2.9770   22.1790  -32.4440 O   0  0  0  0  0  0  0  0  0  0  0  0
   -3.6580   22.6430  -31.3130 C   0  0  0  0  0  0  0  0  0  0  0  0
   -3.0130   23.0400  -30.3040 O   0  0  0  0  0  0  0  0  0  0  0  0
   -5.0950   22.6520  -31.2980 N   0  0  0  0  0  0  0  0  0  0  0  0
   -5.9130   23.6950  -30.9780 C   0  0  0  0  0  0  0  0  0  0  0  0
   -5.4710   24.9920  -30.4170 C   0  0  0  0  0  0  0  0  0  0  0  0
   -4.1590   25.4910  -30.6800 N   0  0  0  0  0  0  0  0  0  0  0  0
   -6.2650   25.6840  -29.7260 O   0  0  0  0  0  0  0  0  0  0  0  0
   -7.2470   23.3440  -31.1680 C   0  0  0  0  0  0  0  0  0  0  0  0
   -7.2230   22.0440  -31.6140 C   0  0  0  0  0  0  0  0  0  0  0  0
   -8.2700   21.2060  -31.9810 C   0  0  0  0  0  0  0  0  0  0  0  0
   -7.9540   19.9190  -32.4440 C   0  0  0  0  0  0  0  0  0  0  0  0
   -6.6030   19.4850  -32.5270 C   0  0  0  0  0  0  0  0  0  0  0  0
   -6.2390   18.1170  -33.0820 C   0  0  1  0  0  0  0  0  0  0  0  0
   -7.2860   17.0420  -32.7480 C   0  0  0  0  0  0  0  0  0  0  0  0
   -5.9390   18.1830  -34.5920 C   0  0  0  0  0  0  0  0  0  0  0  0
   -4.5570   17.7280  -34.8790 N   0  0  0  0  0  0  0  0  0  0  0  0
   -4.3810   16.3020  -34.5570 C   0  0  0  0  0  0  0  0  0  0  0  0
   -3.5630   18.5320  -34.1500 C   0  0  0  0  0  0  0  0  0  0  0  0
   -5.5680   20.3760  -32.1580 C   0  0  0  0  0  0  0  0  0  0  0  0
   -5.9140   21.6470  -31.6840 C   0  0  0  0  0  0  0  0  0  0  0  0
   -1.8570   20.8281  -31.3508 H   0  0  0  0  0  0  0  0  0  0  0  0
   -2.5170   20.2170  -32.9057 H   0  0  0  0  0  0  0  0  0  0  0  0
   -1.1342   21.3635  -32.9057 H   0  0  0  0  0  0  0  0  0  0  0  0
   -3.8680   26.4210  -30.3030 H   0  0  0  0  0  0  0  0  0  0  0  0
   -3.4610   24.9290  -31.2140 H   0  0  0  0  0  0  0  0  0  0  0  0
   -8.1326   23.9737  -30.9973 H   0  0  0  0  0  0  0  0  0  0  0  0
   -9.3152   21.5416  -31.9106 H   0  0  0  0  0  0  0  0  0  0  0  0
   -8.7626   19.2374  -32.7466 H   0  0  0  0  0  0  0  0  0  0  0  0
   -5.3135   17.8068  -32.5749 H   0  0  0  0  0  0  0  0  0  0  0  0
   -7.3785   16.9470  -31.6560 H   0  0  0  0  0  0  0  0  0  0  0  0
   -8.2577   17.3315  -33.1745 H   0  0  0  0  0  0  0  0  0  0  0  0
   -6.9709   16.0782  -33.1745 H   0  0  0  0  0  0  0  0  0  0  0  0
   -6.6493   17.5368  -35.1286 H   0  0  0  0  0  0  0  0  0  0  0  0
   -6.0409   19.2266  -34.9245 H   0  0  0  0  0  0  0  0  0  0  0  0
   -4.3650   16.1720  -33.4648 H   0  0  0  0  0  0  0  0  0  0  0  0
   -5.2147   15.7243  -34.9828 H   0  0  0  0  0  0  0  0  0  0  0  0
   -3.4319   15.9444  -34.9828 H   0  0  0  0  0  0  0  0  0  0  0  0
   -3.7148   18.4092  -33.0675 H   0  0  0  0  0  0  0  0  0  0  0  0
   -2.5508   18.1955  -34.4188 H   0  0  0  0  0  0  0  0  0  0  0  0
   -3.6805   19.5922  -34.4188 H   0  0  0  0  0  0  0  0  0  0  0  0
   -4.5129   20.0763  -32.2418 H   0  0  0  0  0  0  0  0  0  0  0  0
  1  2  1  0
  2  3  1  0
  3  4  2  0
  3  5  1  0
  5  6  1  0
  6  7  1  0
  7  8  1  0
  7  9  2  0
  6 10  2  0
 10 11  1  0
 11 12  2  0
 12 13  1  0
 13 14  2  0
 14 15  1  0
 15 16  1  0
 15 17  1  0
 17 18  1  0
 18 19  1  0
 18 20  1  0
 14 21  1  0
 21 22  2  0
 22  5  1  0
 22 11  1  0
  1 23  1  0
  1 24  1  0
  1 25  1  0
  8 26  1  0
  8 27  1  0
 10 28  1  0
 12 29  1  0
 13 30  1  0
 15 31  1  1
 16 32  1  0
 16 33  1  0
 16 34  1  0
 17 35  1  0
 17 36  1  0
 19 37  1  0
 19 38  1  0
 19 39  1  0
 20 40  1  0
 20 41  1  0
 20 42  1  0
 21 43  1  0
M  END
>  <UniqueID>  (1) 
1

>  <SMILES>  (1) 
COC(=O)n1c(C(N)=O)cc2ccc([C@@H](C)CN(C)C)cc21

>  <Energy>  (1) 
78.99214475109942

>  <Genealogy>  (1) 
COC(=O)n1c(C(N)=O)cc2ccc([C@@H](C)CN(C)C)cc21 (chirality)
COC(=O)n1c(C(N)=O)cc2ccc([C@@H](C)CN(C)C)cc21 (3D coordinates assigned)
COC(=O)n1c(C(N)=O)cc2ccc([C@@H](C)CN(C)C)cc21 (optimized conformer: 78.99214475109942 kcal/mol)

>  <smiles>  (1) 
COC(=O)n1c(C(N)=O)cc2ccc(C(C)CN(C)C)cc21

>  <score_type>  (1) 
oracle

>  <origin>  (1) 
adg

>  <m_score__min__energy>  (1) 
-8.5999999999999996

>  <m_primary>  (1) 
energy

$$$$
1:0
     RDKit          3D

 39 40  0  0  0  0  0  0  0  0999 V2000
   -8.7560   20.1960  -31.5360 C   0  0  0  0  0  0  0  0  0  0  0  0
   -8.1530   19.2920  -32.5300 N   0  0  0  0  0  0  0  0  0  0  0  0
   -7.4480   18.2000  -31.8420 C   0  0  0  0  0  0  0  0  0  0  0  0
   -7.2340   20.0260  -33.4270 C   0  0  0  0  0  0  0  0  0  0  0  0
   -5.7830   19.5750  -33.2160 C   0  0  0  0  0  0  0  0  0  0  0  0
   -4.8480   20.6630  -33.5100 N   0  0  0  0  0  0  0  0  0  0  0  0
   -3.8110   21.1150  -32.6180 C   0  0  0  0  0  0  0  0  0  0  0  0
   -2.6070   20.3730  -32.5370 C   0  0  0  0  0  0  0  0  0  0  0  0
   -1.5730   20.7700  -31.6750 C   0  0  0  0  0  0  0  0  0  0  0  0
   -1.7670   21.9130  -30.9070 C   0  0  0  0  0  0  0  0  0  0  0  0
   -0.9480   22.4920  -29.9650 C   0  0  0  0  0  0  0  0  0  0  0  0
   -1.6560   23.5940  -29.4910 C   0  0  0  0  0  0  0  0  0  0  0  0
   -1.1170   24.5360  -28.4910 C   0  0  0  0  0  0  0  0  0  0  0  0
   -1.9830   25.3260  -27.6740 N   0  0  0  0  0  0  0  0  0  0  0  0
    0.1300   24.6870  -28.3910 O   0  0  0  0  0  0  0  0  0  0  0  0
   -2.8690   23.6880  -30.1050 N   0  0  0  0  0  0  0  0  0  0  0  0
   -3.9270   24.6130  -29.8040 C   0  0  0  0  0  0  0  0  0  0  0  0
   -4.2390   25.6710  -30.7070 N   0  0  0  0  0  0  0  0  0  0  0  0
   -4.5800   24.5010  -28.7320 O   0  0  0  0  0  0  0  0  0  0  0  0
   -2.9210   22.6510  -30.9730 C   0  0  0  0  0  0  0  0  0  0  0  0
   -3.9780   22.2620  -31.8050 C   0  0  0  0  0  0  0  0  0  0  0  0
   -8.5177   19.8387  -30.5233 H   0  0  0  0  0  0  0  0  0  0  0  0
   -8.3532   21.2106  -31.6711 H   0  0  0  0  0  0  0  0  0  0  0  0
   -9.8475   20.2138  -31.6711 H   0  0  0  0  0  0  0  0  0  0  0  0
   -7.5354   18.3353  -30.7539 H   0  0  0  0  0  0  0  0  0  0  0  0
   -7.8952   17.2368  -32.1288 H   0  0  0  0  0  0  0  0  0  0  0  0
   -6.3861   18.2111  -32.1288 H   0  0  0  0  0  0  0  0  0  0  0  0
   -7.5218   19.8350  -34.4714 H   0  0  0  0  0  0  0  0  0  0  0  0
   -7.3041   21.0996  -33.1982 H   0  0  0  0  0  0  0  0  0  0  0  0
   -5.6523   19.2610  -32.1699 H   0  0  0  0  0  0  0  0  0  0  0  0
   -5.5731   18.7381  -33.8983 H   0  0  0  0  0  0  0  0  0  0  0  0
   -5.0150   21.2060  -34.3870 H   0  0  0  0  0  0  0  0  0  0  0  0
   -2.4808   19.4738  -33.1579 H   0  0  0  0  0  0  0  0  0  0  0  0
   -0.6378   20.1947  -31.6089 H   0  0  0  0  0  0  0  0  0  0  0  0
    0.0520   22.1564  -29.6530 H   0  0  0  0  0  0  0  0  0  0  0  0
   -3.0120   25.3540  -27.8500 H   0  0  0  0  0  0  0  0  0  0  0  0
   -1.5840   25.9550  -26.9430 H   0  0  0  0  0  0  0  0  0  0  0  0
   -3.6800   25.8200  -31.5760 H   0  0  0  0  0  0  0  0  0  0  0  0
   -4.9169   22.8347  -31.8264 H   0  0  0  0  0  0  0  0  0  0  0  0
  1  2  1  0
  2  3  1  0
  2  4  1  0
  4  5  1  0
  5  6  1  0
  6  7  1  0
  7  8  2  0
  8  9  1  0
  9 10  2  0
 10 11  1  0
 11 12  2  0
 12 13  1  0
 13 14  1  0
 13 15  2  0
 12 16  1  0
 16 17  1  0
 17 18  1  0
 17 19  2  0
 16 20  1  0
 20 21  2  0
 21  7  1  0
 20 10  1  0
  1 22  1  0
  1 23  1  0
  1 24  1  0
  3 25  1  0
  3 26  1  0
  3 27  1  0
  4 28  1  0
  4 29  1  0
  5 30  1  0
  5 31  1  0
  6 32  1  0
  8 33  1  0
  9 34  1  0
 11 35  1  0
 14 36  1  0
 14 37  1  0
 18 38  1  0
 21 39  1  0
M  CHG  1  18  -1
M  END
>  <UniqueID>  (2) 
2

>  <SMILES>  (2) 
CN(C)CCNc1ccc2cc(C(N)=O)n(C([NH-])=O)c2c1

>  <Energy>  (2) 
76.92416725483056

>  <Genealogy>  (2) 
CN(C)CCNc1ccc2cc(C(N)=O)n(C([NH-])=O)c2c1 (protonated)
CN(C)CCNc1ccc2cc(C(N)=O)n(C([NH-])=O)c2c1 (3D coordinates assigned)
CN(C)CCNc1ccc2cc(C(N)=O)n(C([NH-])=O)c2c1 (optimized conformer: 76.92416725483056 kcal/mol)

>  <smiles>  (2) 
CN(C)CCNc1ccc2cc(C(N)=O)n(C(N)=O)c2c1

>  <score_type>  (2) 
oracle

>  <origin>  (2) 
adg

>  <m_score__min__energy>  (2) 
-8.4600000000000009

>  <m_primary>  (2) 
energy

$$$$
2:0
     RDKit          3D

 27 28  0  0  0  0  0  0  0  0999 V2000
   -3.8260   18.1340  -34.7100 N   0  0  0  0  0  0  0  0  0  0  0  0
   -5.1030   18.6860  -34.3870 C   0  0  0  0  0  0  0  0  0  0  0  0
   -6.1370   18.2010  -34.9180 O   0  0  0  0  0  0  0  0  0  0  0  0
   -5.2380   19.7680  -33.3920 C   0  0  0  0  0  0  0  0  0  0  0  0
   -6.4630   20.3080  -33.0110 C   0  0  0  0  0  0  0  0  0  0  0  0
   -6.1650   21.2260  -32.0310 C   0  0  0  0  0  0  0  0  0  0  0  0
   -7.0090   22.0620  -31.3040 C   0  0  0  0  0  0  0  0  0  0  0  0
   -6.4260   22.9370  -30.3730 C   0  0  0  0  0  0  0  0  0  0  0  0
   -5.0210   22.9750  -30.1990 C   0  0  0  0  0  0  0  0  0  0  0  0
   -4.4120   23.9030  -29.1850 C   0  0  0  0  0  0  0  0  0  0  0  0
   -3.5600   24.9230  -29.8710 C   0  0  0  0  0  0  0  0  0  0  0  0
   -3.9820   25.5120  -30.9000 O   0  0  0  0  0  0  0  0  0  0  0  0
   -2.3200   25.2610  -29.3430 O   0  0  0  0  0  0  0  0  0  0  0  0
   -4.1960   22.1050  -30.9470 C   0  0  0  0  0  0  0  0  0  0  0  0
   -4.8040   21.2280  -31.8540 C   0  0  0  0  0  0  0  0  0  0  0  0
   -4.2190   20.3370  -32.6880 N   0  0  0  0  0  0  0  0  0  0  0  0
   -2.8070   20.1330  -32.8790 C   0  0  0  0  0  0  0  0  0  0  0  0
   -2.2600   20.4340  -33.9720 O   0  0  0  0  0  0  0  0  0  0  0  0
   -2.0330   19.5930  -31.8590 O   0  0  0  0  0  0  0  0  0  0  0  0
   -2.9730   18.3970  -34.1700 H   0  0  0  0  0  0  0  0  0  0  0  0
   -3.7450   17.3940  -35.4420 H   0  0  0  0  0  0  0  0  0  0  0  0
   -7.4569   20.0548  -33.4086 H   0  0  0  0  0  0  0  0  0  0  0  0
   -8.0984   22.0377  -31.4544 H   0  0  0  0  0  0  0  0  0  0  0  0
   -7.0671   23.5995  -29.7729 H   0  0  0  0  0  0  0  0  0  0  0  0
   -5.2135   24.4120  -28.6296 H   0  0  0  0  0  0  0  0  0  0  0  0
   -3.7888   23.3201  -28.4909 H   0  0  0  0  0  0  0  0  0  0  0  0
   -3.1034   22.1163  -30.8200 H   0  0  0  0  0  0  0  0  0  0  0  0
  1  2  1  0
  2  3  2  0
  2  4  1  0
  4  5  2  0
  5  6  1  0
  6  7  2  0
  7  8  1  0
  8  9  2  0
  9 10  1  0
 10 11  1  0
 11 12  2  0
 11 13  1  0
  9 14  1  0
 14 15  2  0
 15 16  1  0
 16 17  1  0
 17 18  2  0
 17 19  1  0
 16  4  1  0
 15  6  1  0
  1 20  1  0
  1 21  1  0
  5 22  1  0
  7 23  1  0
  8 24  1  0
 10 25  1  0
 10 26  1  0
 14 27  1  0
M  CHG  2  13  -1  19  -1
M  END
>  <UniqueID>  (3) 
3

>  <SMILES>  (3) 
NC(=O)c1cc2ccc(CC(=O)[O-])cc2n1C(=O)[O-]

>  <Energy>  (3) 
65.92159848283518

>  <Genealogy>  (3) 
NC(=O)c1cc2ccc(CC(=O)[O-])cc2n1C(=O)[O-] (protonated)
NC(=O)c1cc2ccc(CC(=O)[O-])cc2n1C(=O)[O-] (3D coordinates assigned)
NC(=O)c1cc2ccc(CC(=O)[O-])cc2n1C(=O)[O-] (optimized conformer: 65.92159848283518 kcal/mol)

>  <smiles>  (3) 
NC(=O)c1cc2ccc(CC(=O)O)cc2n1C(=O)O

>  <score_type>  (3) 
oracle

>  <origin>  (3) 
adg

>  <m_score__min__energy>  (3) 
-8.8000000000000007

>  <m_primary>  (3) 
energy

$$$$
3:0
     RDKit          3D

 61 64  0  0  0  0  0  0  0  0999 V2000
   -0.9640   19.6910  -28.6440 C   0  0  0  0  0  0  0  0  0  0  0  0
   -1.8330   20.6060  -29.2980 O   0  0  0  0  0  0  0  0  0  0  0  0
   -2.4580   21.6600  -28.6260 C   0  0  0  0  0  0  0  0  0  0  0  0
   -2.3420   21.7740  -27.3780 O   0  0  0  0  0  0  0  0  0  0  0  0
   -3.2170   22.6280  -29.3670 N   0  0  0  0  0  0  0  0  0  0  0  0
   -3.0530   23.9830  -29.3840 C   0  0  0  0  0  0  0  0  0  0  0  0
   -2.1550   24.7600  -28.5070 C   0  0  0  0  0  0  0  0  0  0  0  0
   -1.5410   25.9580  -28.9700 N   0  0  0  0  0  0  0  0  0  0  0  0
   -1.8970   24.3400  -27.3470 O   0  0  0  0  0  0  0  0  0  0  0  0
   -3.8990   24.5640  -30.3260 C   0  0  0  0  0  0  0  0  0  0  0  0
   -4.5950   23.5140  -30.8880 C   0  0  0  0  0  0  0  0  0  0  0  0
   -5.5320   23.5110  -31.9180 C   0  0  0  0  0  0  0  0  0  0  0  0
   -6.0190   22.2690  -32.3610 C   0  0  0  0  0  0  0  0  0  0  0  0
   -5.5560   21.0660  -31.7760 C   0  0  0  0  0  0  0  0  0  0  0  0
   -5.9780   19.7630  -32.3240 C   0  0  0  0  0  0  0  0  0  0  0  0
   -7.3430   19.4430  -32.3300 C   0  0  0  0  0  0  0  0  0  0  0  0
   -7.7790   18.2040  -32.8030 C   0  0  0  0  0  0  0  0  0  0  0  0
   -6.8510   17.2560  -33.2690 C   0  0  0  0  0  0  0  0  0  0  0  0
   -7.2390   15.9910  -33.7380 O   0  0  0  0  0  0  0  0  0  0  0  0
   -6.3320   14.9850  -34.1790 C   0  0  0  0  0  0  0  0  0  0  0  0
   -5.4870   17.5710  -33.2620 C   0  0  0  0  0  0  0  0  0  0  0  0
   -5.0350   18.8200  -32.8040 C   0  0  0  0  0  0  0  0  0  0  0  0
   -3.5470   19.0950  -32.7660 C   0  0  0  0  0  0  0  0  0  0  0  0
   -3.2060   20.3590  -33.5730 C   0  0  0  0  0  0  0  0  0  0  0  0
   -1.7150   20.7630  -33.4480 C   0  0  2  0  0  0  0  0  0  0  0  0
   -0.8450   19.8640  -34.3330 C   0  0  0  0  0  0  0  0  0  0  0  0
   -0.2480   18.8580  -33.3790 C   0  0  0  0  0  0  0  0  0  0  0  0
   -0.1170   19.6280  -32.0830 C   0  0  0  0  0  0  0  0  0  0  0  0
   -1.2130   20.6160  -32.0540 N   0  0  1  0  0  0  0  0  0  0  0  0
   -0.7570   21.9000  -31.4920 C   0  0  0  0  0  0  0  0  0  0  0  0
   -4.6320   21.1080  -30.7120 C   0  0  0  0  0  0  0  0  0  0  0  0
   -4.1670   22.3580  -30.2880 C   0  0  0  0  0  0  0  0  0  0  0  0
   -1.0684   19.8010  -27.5545 H   0  0  0  0  0  0  0  0  0  0  0  0
   -1.2267   18.6634  -28.9357 H   0  0  0  0  0  0  0  0  0  0  0  0
    0.0757   19.9004  -28.9357 H   0  0  0  0  0  0  0  0  0  0  0  0
   -1.2300   26.0500  -29.9590 H   0  0  0  0  0  0  0  0  0  0  0  0
   -3.9922   25.6326  -30.5698 H   0  0  0  0  0  0  0  0  0  0  0  0
   -5.8802   24.4511  -32.3708 H   0  0  0  0  0  0  0  0  0  0  0  0
   -6.7654   22.2316  -33.1682 H   0  0  0  0  0  0  0  0  0  0  0  0
   -8.0764   20.1741  -31.9590 H   0  0  0  0  0  0  0  0  0  0  0  0
   -8.8534   17.9683  -32.8112 H   0  0  0  0  0  0  0  0  0  0  0  0
   -5.8835   14.4876  -33.3064 H   0  0  0  0  0  0  0  0  0  0  0  0
   -6.8731   14.2439  -34.7856 H   0  0  0  0  0  0  0  0  0  0  0  0
   -5.5390   15.4467  -34.7856 H   0  0  0  0  0  0  0  0  0  0  0  0
   -4.7580   16.8294  -33.6205 H   0  0  0  0  0  0  0  0  0  0  0  0
   -3.2330   19.2380  -31.7215 H   0  0  0  0  0  0  0  0  0  0  0  0
   -3.0181   18.2389  -33.2103 H   0  0  0  0  0  0  0  0  0  0  0  0
   -3.4324   20.1717  -34.6330 H   0  0  0  0  0  0  0  0  0  0  0  0
   -3.8095   21.1849  -33.1685 H   0  0  0  0  0  0  0  0  0  0  0  0
   -1.6513   21.8166  -33.7577 H   0  0  0  0  0  0  0  0  0  0  0  0
   -1.4567   19.3606  -35.0962 H   0  0  0  0  0  0  0  0  0  0  0  0
   -0.0760   20.4315  -34.8776 H   0  0  0  0  0  0  0  0  0  0  0  0
   -0.9141   17.9915  -33.2550 H   0  0  0  0  0  0  0  0  0  0  0  0
    0.7110   18.4516  -33.7326 H   0  0  0  0  0  0  0  0  0  0  0  0
   -0.2033   18.9431  -31.2266 H   0  0  0  0  0  0  0  0  0  0  0  0
    0.8617   20.1262  -32.0202 H   0  0  0  0  0  0  0  0  0  0  0  0
   -1.9570   20.2410  -31.4200 H   0  0  0  0  0  0  0  0  0  0  0  0
   -0.7759   21.8468  -30.3935 H   0  0  0  0  0  0  0  0  0  0  0  0
    0.2690   22.1052  -31.8316 H   0  0  0  0  0  0  0  0  0  0  0  0
   -1.4237   22.7063  -31.8316 H   0  0  0  0  0  0  0  0  0  0  0  0
   -4.2858   20.1829  -30.2280 H   0  0  0  0  0  0  0  0  0  0  0  0
  1  2  1  0
  2  3  1  0
  3  4  2  0
  3  5  1  0
  5  6  1  0
  6  7  1  0
  7  8  1  0
  7  9  2  0
  6 10  2  0
 10 11  1  0
 11 12  2  0
 12 13  1  0
 13 14  2  0
 14 15  1  0
 15 16  2  0
 16 17  1  0
 17 18  2  0
 18 19  1  0
 19 20  1  0
 18 21  1  0
 21 22  2  0
 22 23  1  0
 23 24  1  0
 24 25  1  0
 25 26  1  0
 26 27  1  0
 27 28  1  0
 28 29  1  0
 29 30  1  0
 14 31  1  0
 31 32  2  0
 32  5  1  0
 32 11  1  0
 22 15  1  0
 29 25  1  0
  1 33  1  0
  1 34  1  0
  1 35  1  0
  8 36  1  0
 10 37  1  0
 12 38  1  0
 13 39  1  0
 16 40  1  0
 17 41  1  0
 20 42  1  0
 20 43  1  0
 20 44  1  0
 21 45  1  0
 23 46  1  0
 23 47  1  0
 24 48  1  0
 24 49  1  0
 25 50  1  6
 26 51  1  0
 26 52  1  0
 27 53  1  0
 27 54  1  0
 28 55  1  0
 28 56  1  0
 29 57  1  1
 30 58  1  0
 30 59  1  0
 30 60  1  0
 31 61  1  0
M  CHG  2   8  -1  29   1
M  END
>  <UniqueID>  (4) 
4

>  <SMILES>  (4) 
COC(=O)n1c(C([NH-])=O)cc2ccc(-c3ccc(OC)cc3CC[C@@H]3CCC[N@H+]3C)cc21

>  <Energy>  (4) 
105.27887881895683

>  <Genealogy>  (4) 
COC(=O)n1c(C([NH-])=O)cc2ccc(-c3ccc(OC)cc3CCC3CCC[NH+]3C)cc21 (protonated)
COC(=O)n1c(C([NH-])=O)cc2ccc(-c3ccc(OC)cc3CC[C@@H]3CCC[N@H+]3C)cc21 (chirality)
COC(=O)n1c(C([NH-])=O)cc2ccc(-c3ccc(OC)cc3CC[C@@H]3CCC[N@H+]3C)cc21 (3D coordinates assigned)
COC(=O)n1c(C([NH-])=O)cc2ccc(-c3ccc(OC)cc3CC[C@@H]3CCC[N@H+]3C)cc21 (nonaromatic ring conformer: 105.27887881895683 kcal/mol)

>  <smiles>  (4) 
COC(=O)n1c(C(N)=O)cc2ccc(-c3ccc(OC)cc3CCC3CCCN3C)cc21

>  <score_type>  (4) 
oracle

>  <origin>  (4) 
adg

>  <m_score__min__energy>  (4) 
-10.48

>  <m_primary>  (4) 
energy

$$$$
4:0
     RDKit          3D

 39 40  0  0  0  0  0  0  0  0999 V2000
   -7.6670   23.2550  -31.7150 C   0  0  0  0  0  0  0  0  0  0  0  0
   -8.7240   22.1680  -31.5860 C   0  0  0  0  0  0  0  0  0  0  0  0
   -8.0920   20.9170  -31.3340 O   0  0  0  0  0  0  0  0  0  0  0  0
   -7.6780   20.0630  -32.3610 C   0  0  0  0  0  0  0  0  0  0  0  0
   -8.0350   18.8530  -32.3730 O   0  0  0  0  0  0  0  0  0  0  0  0
   -6.7680   20.5900  -33.4290 C   0  0  0  0  0  0  0  0  0  0  0  0
   -5.4710   19.8960  -33.4050 N   0  0  0  0  0  0  0  0  0  0  0  0
   -5.3240   18.6620  -34.1850 C   0  0  0  0  0  0  0  0  0  0  0  0
   -4.3680   20.3870  -32.6020 C   0  0  0  0  0  0  0  0  0  0  0  0
   -3.2160   19.5800  -32.3950 C   0  0  0  0  0  0  0  0  0  0  0  0
   -2.1480   20.0350  -31.6040 C   0  0  0  0  0  0  0  0  0  0  0  0
   -2.2460   21.3000  -31.0370 C   0  0  0  0  0  0  0  0  0  0  0  0
   -1.3760   21.9640  -30.2040 C   0  0  0  0  0  0  0  0  0  0  0  0
   -1.9880   23.1840  -29.9320 C   0  0  0  0  0  0  0  0  0  0  0  0
   -1.3600   24.2420  -29.1160 C   0  0  0  0  0  0  0  0  0  0  0  0
   -2.1400   25.2840  -28.5270 N   0  0  0  0  0  0  0  0  0  0  0  0
   -0.1080   24.2590  -28.9840 O   0  0  0  0  0  0  0  0  0  0  0  0
   -3.1960   23.2690  -30.5580 N   0  0  0  0  0  0  0  0  0  0  0  0
   -4.1740   24.3150  -30.4230 C   0  0  0  0  0  0  0  0  0  0  0  0
   -5.3210   24.0630  -29.9650 O   0  0  0  0  0  0  0  0  0  0  0  0
   -3.8620   25.6180  -30.7890 O   0  0  0  0  0  0  0  0  0  0  0  0
   -3.3380   22.1060  -31.2360 C   0  0  0  0  0  0  0  0  0  0  0  0
   -4.4260   21.6690  -32.0000 C   0  0  0  0  0  0  0  0  0  0  0  0
   -7.3510   23.5800  -30.7127 H   0  0  0  0  0  0  0  0  0  0  0  0
   -6.7990   22.8593  -32.2628 H   0  0  0  0  0  0  0  0  0  0  0  0
   -8.0869   24.1115  -32.2628 H   0  0  0  0  0  0  0  0  0  0  0  0
   -9.4001   22.4113  -30.7531 H   0  0  0  0  0  0  0  0  0  0  0  0
   -9.3005   22.1052  -32.5207 H   0  0  0  0  0  0  0  0  0  0  0  0
   -7.2396   20.4376  -34.4110 H   0  0  0  0  0  0  0  0  0  0  0  0
   -6.5962   21.6611  -33.2465 H   0  0  0  0  0  0  0  0  0  0  0  0
   -5.2220   17.8062  -33.5015 H   0  0  0  0  0  0  0  0  0  0  0  0
   -6.2117   18.5211  -34.8191 H   0  0  0  0  0  0  0  0  0  0  0  0
   -4.4280   18.7336  -34.8191 H   0  0  0  0  0  0  0  0  0  0  0  0
   -3.1602   18.5851  -32.8609 H   0  0  0  0  0  0  0  0  0  0  0  0
   -1.2596   19.4080  -31.4381 H   0  0  0  0  0  0  0  0  0  0  0  0
   -0.4042   21.6071  -29.8322 H   0  0  0  0  0  0  0  0  0  0  0  0
   -3.1530   25.3910  -28.7530 H   0  0  0  0  0  0  0  0  0  0  0  0
   -1.6840   26.0030  -27.9240 H   0  0  0  0  0  0  0  0  0  0  0  0
   -5.3108   22.3092  -32.1311 H   0  0  0  0  0  0  0  0  0  0  0  0
  1  2  1  0
  2  3  1  0
  3  4  1  0
  4  5  2  0
  4  6  1  0
  6  7  1  0
  7  8  1  0
  7  9  1  0
  9 10  2  0
 10 11  1  0
 11 12  2  0
 12 13  1  0
 13 14  2  0
 14 15  1  0
 15 16  1  0
 15 17  2  0
 14 18  1  0
 18 19  1  0
 19 20  2  0
 19 21  1  0
 18 22  1  0
 22 23  2  0
 23  9  1  0
 22 12  1  0
  1 24  1  0
  1 25  1  0
  1 26  1  0
  2 27  1  0
  2 28  1  0
  6 29  1  0
  6 30  1  0
  8 31  1  0
  8 32  1  0
  8 33  1  0
 10 34  1  0
 11 35  1  0
 13 36  1  0
 16 37  1  0
 16 38  1  0
 23 39  1  0
M  CHG  1  21  -1
M  END
>  <UniqueID>  (5) 
5

>  <SMILES>  (5) 
CCOC(=O)CN(C)c1ccc2cc(C(N)=O)n(C(=O)[O-])c2c1

>  <Energy>  (5) 
75.55387511622024

>  <Genealogy>  (5) 
CCOC(=O)CN(C)c1ccc2cc(C(N)=O)n(C(=O)[O-])c2c1 (protonated)
CCOC(=O)CN(C)c1ccc2cc(C(N)=O)n(C(=O)[O-])c2c1 (3D coordinates assigned)
CCOC(=O)CN(C)c1ccc2cc(C(N)=O)n(C(=O)[O-])c2c1 (optimized conformer: 75.55387511622024 kcal/mol)

>  <smiles>  (5) 
CCOC(=O)CN(C)c1ccc2cc(C(N)=O)n(C(=O)O)c2c1

>  <score_type>  (5) 
oracle

>  <origin>  (5) 
adg

>  <m_score__min__energy>  (5) 
-8.3900000000000006

>  <m_primary>  (5) 
energy

$$$$
5:0
     RDKit          3D

 31 33  0  0  0  0  0  0  0  0999 V2000
   -1.6890   25.6720  -28.9670 N   0  0  0  0  0  0  0  0  0  0  0  0
   -1.1160   24.3990  -29.2540 C   0  0  0  0  0  0  0  0  0  0  0  0
    0.0010   24.1000  -28.7540 O   0  0  0  0  0  0  0  0  0  0  0  0
   -1.8370   23.4070  -30.0790 C   0  0  0  0  0  0  0  0  0  0  0  0
   -1.2660   22.2140  -30.5130 C   0  0  0  0  0  0  0  0  0  0  0  0
   -2.2740   21.5400  -31.1610 C   0  0  0  0  0  0  0  0  0  0  0  0
   -2.2590   20.2990  -31.7920 C   0  0  0  0  0  0  0  0  0  0  0  0
   -3.4450   19.8580  -32.4040 C   0  0  0  0  0  0  0  0  0  0  0  0
   -4.6080   20.6670  -32.3900 C   0  0  0  0  0  0  0  0  0  0  0  0
   -5.8770   20.1720  -33.0250 C   0  0  0  0  0  0  0  0  0  0  0  0
   -6.9510   19.9620  -31.9510 C   0  0  0  0  0  0  0  0  0  0  0  0
   -7.8650   18.7690  -32.1810 C   0  0  0  0  0  0  0  0  0  0  0  0
   -8.3870   20.1800  -32.4030 C   0  0  0  0  0  0  0  0  0  0  0  0
   -4.5880   21.9160  -31.7310 C   0  0  0  0  0  0  0  0  0  0  0  0
   -3.4000   22.3220  -31.1110 C   0  0  0  0  0  0  0  0  0  0  0  0
   -3.1470   23.4740  -30.4520 N   0  0  0  0  0  0  0  0  0  0  0  0
   -4.0610   24.5670  -30.2720 C   0  0  0  0  0  0  0  0  0  0  0  0
   -3.8650   25.6650  -30.8570 O   0  0  0  0  0  0  0  0  0  0  0  0
   -5.1870   24.4150  -29.4710 O   0  0  0  0  0  0  0  0  0  0  0  0
   -2.7200   25.8250  -29.0340 H   0  0  0  0  0  0  0  0  0  0  0  0
   -0.2277   21.8809  -30.3681 H   0  0  0  0  0  0  0  0  0  0  0  0
   -1.3478   19.6831  -31.8110 H   0  0  0  0  0  0  0  0  0  0  0  0
   -3.4704   18.8757  -32.8984 H   0  0  0  0  0  0  0  0  0  0  0  0
   -6.2323   20.9133  -33.7559 H   0  0  0  0  0  0  0  0  0  0  0  0
   -5.6794   19.2156  -33.5312 H   0  0  0  0  0  0  0  0  0  0  0  0
   -6.3367   20.3288  -31.1155 H   0  0  0  0  0  0  0  0  0  0  0  0
   -7.6953   18.1038  -33.0405 H   0  0  0  0  0  0  0  0  0  0  0  0
   -8.1857   17.9072  -31.5773 H   0  0  0  0  0  0  0  0  0  0  0  0
   -8.5946   20.5356  -33.4230 H   0  0  0  0  0  0  0  0  0  0  0  0
   -9.2413   20.7617  -32.0264 H   0  0  0  0  0  0  0  0  0  0  0  0
   -5.4836   22.5541  -31.7054 H   0  0  0  0  0  0  0  0  0  0  0  0
  1  2  1  0
  2  3  2  0
  2  4  1  0
  4  5  2  0
  5  6  1  0
  6  7  2  0
  7  8  1  0
  8  9  2  0
  9 10  1  0
 10 11  1  0
 11 12  1  0
 12 13  1  0
  9 14  1  0
 14 15  2  0
 15 16  1  0
 16 17  1  0
 17 18  2  0
 17 19  1  0
 16  4  1  0
 15  6  1  0
 13 11  1  0
  1 20  1  0
  5 21  1  0
  7 22  1  0
  8 23  1  0
 10 24  1  0
 10 25  1  0
 11 26  1  0
 12 27  1  0
 12 28  1  0
 13 29  1  0
 13 30  1  0
 14 31  1  0
M  CHG  2   1  -1  19  -1
M  END
>  <UniqueID>  (6) 
6

>  <SMILES>  (6) 
[NH-]C(=O)c1cc2ccc(CC3CC3)cc2n1C(=O)[O-]

>  <Energy>  (6) 
333.9400400170486

>  <Genealogy>  (6) 
[NH-]C(=O)c1cc2ccc(CC3CC3)cc2n1C(=O)[O-] (protonated)
[NH-]C(=O)c1cc2ccc(CC3CC3)cc2n1C(=O)[O-] (3D coordinates assigned)
[NH-]C(=O)c1cc2ccc(CC3CC3)cc2n1C(=O)[O-] (nonaromatic ring conformer: 333.9400400170486 kcal/mol)

>  <smiles>  (6) 
NC(=O)c1cc2ccc(CC3CC3)cc2n1C(=O)O

>  <score_type>  (6) 
oracle

>  <origin>  (6) 
adg

>  <m_score__min__energy>  (6) 
-11.029999999999999

>  <m_primary>  (6) 
energy

$$$$
6:0
     RDKit          3D

 45 47  0  0  0  0  0  0  0  0999 V2000
   -4.5950   14.8150  -32.2000 C   0  0  0  0  0  0  0  0  0  0  0  0
   -5.0570   14.5020  -33.6240 C   0  0  0  0  0  0  0  0  0  0  0  0
   -5.5050   15.7220  -34.3310 N   0  0  0  0  0  0  0  0  0  0  0  0
   -4.4940   16.8100  -34.2400 C   0  0  0  0  0  0  0  0  0  0  0  0
   -5.1110   18.2080  -34.3580 C   0  0  0  0  0  0  0  0  0  0  0  0
   -6.1280   18.3940  -33.3150 N   0  0  0  0  0  0  0  0  0  0  0  0
   -6.4180   19.7100  -32.7930 C   0  0  0  0  0  0  0  0  0  0  0  0
   -7.7580   20.1740  -32.7170 C   0  0  0  0  0  0  0  0  0  0  0  0
   -8.0510   21.4560  -32.2230 C   0  0  0  0  0  0  0  0  0  0  0  0
   -6.9900   22.2530  -31.8080 C   0  0  0  0  0  0  0  0  0  0  0  0
   -6.9880   23.5390  -31.3170 C   0  0  0  0  0  0  0  0  0  0  0  0
   -5.6490   23.8410  -31.0790 C   0  0  0  0  0  0  0  0  0  0  0  0
   -5.1980   25.1060  -30.4630 C   0  0  0  0  0  0  0  0  0  0  0  0
   -3.9420   25.6700  -30.8380 N   0  0  0  0  0  0  0  0  0  0  0  0
   -5.9240   25.7160  -29.6350 O   0  0  0  0  0  0  0  0  0  0  0  0
   -4.8540   22.7870  -31.4150 N   0  0  0  0  0  0  0  0  0  0  0  0
   -3.4190   22.7260  -31.3870 C   0  0  0  0  0  0  0  0  0  0  0  0
   -2.7880   22.2920  -32.3910 O   0  0  0  0  0  0  0  0  0  0  0  0
   -2.7260   23.1710  -30.2580 O   0  0  0  0  0  0  0  0  0  0  0  0
   -3.1420   22.8640  -28.9340 C   0  0  0  0  0  0  0  0  0  0  0  0
   -5.6910   21.8220  -31.8570 C   0  0  0  0  0  0  0  0  0  0  0  0
   -5.3680   20.5560  -32.3590 C   0  0  0  0  0  0  0  0  0  0  0  0
   -6.8660   17.2210  -32.8340 C   0  0  0  0  0  0  0  0  0  0  0  0
   -6.8710   16.1210  -33.9050 C   0  0  0  0  0  0  0  0  0  0  0  0
   -5.2836   14.3484  -31.4802 H   0  0  0  0  0  0  0  0  0  0  0  0
   -3.5808   14.4173  -32.0478 H   0  0  0  0  0  0  0  0  0  0  0  0
   -4.5883   15.9044  -32.0478 H   0  0  0  0  0  0  0  0  0  0  0  0
   -4.2207   14.0536  -34.1803 H   0  0  0  0  0  0  0  0  0  0  0  0
   -5.9070   13.8063  -33.5652 H   0  0  0  0  0  0  0  0  0  0  0  0
   -3.9818   16.7331  -33.2696 H   0  0  0  0  0  0  0  0  0  0  0  0
   -3.7969   16.6844  -35.0816 H   0  0  0  0  0  0  0  0  0  0  0  0
   -4.3229   18.9660  -34.2385 H   0  0  0  0  0  0  0  0  0  0  0  0
   -5.5817   18.3144  -35.3465 H   0  0  0  0  0  0  0  0  0  0  0  0
   -8.5779   19.5205  -33.0496 H   0  0  0  0  0  0  0  0  0  0  0  0
   -9.0881   21.8182  -32.1662 H   0  0  0  0  0  0  0  0  0  0  0  0
   -7.8586   24.1898  -31.1484 H   0  0  0  0  0  0  0  0  0  0  0  0
   -3.0490   25.2990  -30.4480 H   0  0  0  0  0  0  0  0  0  0  0  0
   -2.4720   23.3584  -28.2152 H   0  0  0  0  0  0  0  0  0  0  0  0
   -4.1713   23.2207  -28.7811 H   0  0  0  0  0  0  0  0  0  0  0  0
   -3.1047   21.7753  -28.7811 H   0  0  0  0  0  0  0  0  0  0  0  0
   -4.3205   20.2249  -32.4153 H   0  0  0  0  0  0  0  0  0  0  0  0
   -6.3847   16.8379  -31.9221 H   0  0  0  0  0  0  0  0  0  0  0  0
   -7.9036   17.5145  -32.6165 H   0  0  0  0  0  0  0  0  0  0  0  0
   -7.3837   15.2371  -33.4978 H   0  0  0  0  0  0  0  0  0  0  0  0
   -7.3878   16.5234  -34.7887 H   0  0  0  0  0  0  0  0  0  0  0  0
  1  2  1  0
  2  3  1  0
  3  4  1  0
  4  5  1  0
  5  6  1  0
  6  7  1  0
  7  8  2  0
  8  9  1  0
  9 10  2  0
 10 11  1  0
 11 12  2  0
 12 13  1  0
 13 14  1  0
 13 15  2  0
 12 16  1  0
 16 17  1  0
 17 18  2  0
 17 19  1  0
 19 20  1  0
 16 21  1  0
 21 22  2  0
  6 23  1  0
 23 24  1  0
 24  3  1  0
 22  7  1  0
 21 10  1  0
  1 25  1  0
  1 26  1  0
  1 27  1  0
  2 28  1  0
  2 29  1  0
  4 30  1  0
  4 31  1  0
  5 32  1  0
  5 33  1  0
  8 34  1  0
  9 35  1  0
 11 36  1  0
 14 37  1  0
 20 38  1  0
 20 39  1  0
 20 40  1  0
 22 41  1  0
 23 42  1  0
 23 43  1  0
 24 44  1  0
 24 45  1  0
M  CHG  1  14  -1
M  END
>  <UniqueID>  (7) 
7

>  <SMILES>  (7) 
CCN1CCN(c2ccc3cc(C([NH-])=O)n(C(=O)OC)c3c2)CC1

>  <Energy>  (7) 
91.72941921380989

>  <Genealogy>  (7) 
CCN1CCN(c2ccc3cc(C([NH-])=O)n(C(=O)OC)c3c2)CC1 (protonated)
CCN1CCN(c2ccc3cc(C([NH-])=O)n(C(=O)OC)c3c2)CC1 (3D coordinates assigned)
CCN1CCN(c2ccc3cc(C([NH-])=O)n(C(=O)OC)c3c2)CC1 (nonaromatic ring conformer: 91.72941921380989 kcal/mol)

>  <smiles>  (7) 
CCN1CCN(c2ccc3cc(C(N)=O)n(C(=O)OC)c3c2)CC1

>  <score_type>  (7) 
oracle

>  <origin>  (7) 
adg

>  <m_score__min__energy>  (7) 
-10.42

>  <m_primary>  (7) 
energy

$$$$
7:0
     RDKit          3D

 24 25  0  0  0  0  0  0  0  0999 V2000
   -5.6270   25.2860  -28.7580 N   0  0  0  0  0  0  0  0  0  0  0  0
   -6.4810   24.7830  -29.7860 C   0  0  0  0  0  0  0  0  0  0  0  0
   -7.5960   25.3350  -29.9880 O   0  0  0  0  0  0  0  0  0  0  0  0
   -6.0530   23.6710  -30.6590 C   0  0  0  0  0  0  0  0  0  0  0  0
   -6.9430   22.7770  -31.2470 C   0  0  0  0  0  0  0  0  0  0  0  0
   -6.1660   21.9470  -32.0200 C   0  0  0  0  0  0  0  0  0  0  0  0
   -6.5310   20.8630  -32.8140 C   0  0  0  0  0  0  0  0  0  0  0  0
   -5.5120   20.1570  -33.4750 C   0  0  0  0  0  0  0  0  0  0  0  0
   -4.1570   20.5390  -33.3220 C   0  0  0  0  0  0  0  0  0  0  0  0
   -3.1270   19.8030  -33.9880 N   0  0  0  0  0  0  0  0  0  0  0  0
   -3.8220   21.6410  -32.5080 C   0  0  0  0  0  0  0  0  0  0  0  0
   -4.8590   22.3420  -31.8770 C   0  0  0  0  0  0  0  0  0  0  0  0
   -4.7730   23.4000  -31.0400 N   0  0  0  0  0  0  0  0  0  0  0  0
   -3.5690   24.0230  -30.5610 C   0  0  0  0  0  0  0  0  0  0  0  0
   -3.4930   25.2760  -30.4700 O   0  0  0  0  0  0  0  0  0  0  0  0
   -2.4750   23.2500  -30.1900 O   0  0  0  0  0  0  0  0  0  0  0  0
   -5.9610   26.0480  -28.1260 H   0  0  0  0  0  0  0  0  0  0  0  0
   -4.6360   24.9670  -28.6760 H   0  0  0  0  0  0  0  0  0  0  0  0
   -8.0351   22.7420  -31.1203 H   0  0  0  0  0  0  0  0  0  0  0  0
   -7.5854   20.5683  -32.9205 H   0  0  0  0  0  0  0  0  0  0  0  0
   -5.7686   19.3009  -34.1163 H   0  0  0  0  0  0  0  0  0  0  0  0
   -2.5600   20.2440  -34.7460 H   0  0  0  0  0  0  0  0  0  0  0  0
   -2.9260   18.8120  -33.7280 H   0  0  0  0  0  0  0  0  0  0  0  0
   -2.7731   21.9429  -32.3717 H   0  0  0  0  0  0  0  0  0  0  0  0
  1  2  1  0
  2  3  2  0
  2  4  1  0
  4  5  2  0
  5  6  1  0
  6  7  2  0
  7  8  1  0
  8  9  2  0
  9 10  1  0
  9 11  1  0
 11 12  2  0
 12 13  1  0
 13 14  1  0
 14 15  2  0
 14 16  1  0
 13  4  1  0
 12  6  1  0
  1 17  1  0
  1 18  1  0
  5 19  1  0
  7 20  1  0
  8 21  1  0
 10 22  1  0
 10 23  1  0
 11 24  1  0
M  CHG  1  16  -1
M  END
>  <UniqueID>  (8) 
8

>  <SMILES>  (8) 
NC(=O)c1cc2ccc(N)cc2n1C(=O)[O-]

>  <Energy>  (8) 
63.91083408603213

>  <Genealogy>  (8) 
NC(=O)c1cc2ccc(N)cc2n1C(=O)[O-] (protonated)
NC(=O)c1cc2ccc(N)cc2n1C(=O)[O-] (3D coordinates assigned)
NC(=O)c1cc2ccc(N)cc2n1C(=O)[O-] (optimized conformer: 63.91083408603213 kcal/mol)

>  <smiles>  (8) 
NC(=O)c1cc2ccc(N)cc2n1C(=O)O

>  <score_type>  (8) 
oracle

>  <origin>  (8) 
adg

>  <m_score__min__energy>  (8) 
-7.4000000000000004

>  <m_primary>  (8) 
energy

$$$$
8:0
     RDKit          3D

 46 47  0  0  0  0  0  0  0  0999 V2000
   -9.1080   19.8290  -32.3260 C   0  0  0  0  0  0  0  0  0  0  0  0
   -8.3640   18.7190  -31.6010 C   0  0  0  0  0  0  0  0  0  0  0  0
   -8.2970   17.5900  -32.4380 O   0  0  0  0  0  0  0  0  0  0  0  0
   -6.6600   17.3060  -32.8260 P   0  0  0  0  0  0  0  0  0  0  0  0
   -5.8090   17.5010  -31.5900 O   0  0  0  0  0  0  0  0  0  0  0  0
   -6.1670   18.5230  -34.0870 C   0  0  0  0  0  0  0  0  0  0  0  0
   -5.3950   19.6400  -33.4450 C   0  0  0  0  0  0  0  0  0  0  0  0
   -3.9790   19.6210  -33.4550 C   0  0  0  0  0  0  0  0  0  0  0  0
   -3.2460   20.6440  -32.8320 C   0  0  0  0  0  0  0  0  0  0  0  0
   -3.9540   21.6610  -32.1980 C   0  0  0  0  0  0  0  0  0  0  0  0
   -3.4950   22.7770  -31.5360 C   0  0  0  0  0  0  0  0  0  0  0  0
   -4.6390   23.4460  -31.1050 C   0  0  0  0  0  0  0  0  0  0  0  0
   -4.6150   24.6650  -30.2650 C   0  0  0  0  0  0  0  0  0  0  0  0
   -5.4480   24.7690  -29.1080 N   0  0  0  0  0  0  0  0  0  0  0  0
   -3.8810   25.6370  -30.5820 O   0  0  0  0  0  0  0  0  0  0  0  0
   -5.7600   22.7720  -31.4860 N   0  0  0  0  0  0  0  0  0  0  0  0
   -7.1270   23.1710  -31.2940 C   0  0  0  0  0  0  0  0  0  0  0  0
   -7.5950   23.2780  -30.1280 O   0  0  0  0  0  0  0  0  0  0  0  0
   -7.9390   23.4250  -32.4030 O   0  0  0  0  0  0  0  0  0  0  0  0
   -9.3600   23.4020  -32.3360 C   0  0  0  0  0  0  0  0  0  0  0  0
   -5.3240   21.6800  -32.1550 C   0  0  0  0  0  0  0  0  0  0  0  0
   -6.0790   20.6840  -32.7830 C   0  0  0  0  0  0  0  0  0  0  0  0
   -6.4860   15.7230  -33.4480 O   0  0  0  0  0  0  0  0  0  0  0  0
   -5.1160   15.4420  -33.6080 C   0  0  0  0  0  0  0  0  0  0  0  0
   -4.6100   14.7290  -32.3640 C   0  0  0  0  0  0  0  0  0  0  0  0
   -9.5628   20.5075  -31.5893 H   0  0  0  0  0  0  0  0  0  0  0  0
   -8.4037   20.3914  -32.9566 H   0  0  0  0  0  0  0  0  0  0  0  0
   -9.8958   19.3912  -32.9566 H   0  0  0  0  0  0  0  0  0  0  0  0
   -7.3464   19.0566  -31.3549 H   0  0  0  0  0  0  0  0  0  0  0  0
   -8.8936   18.4619  -30.6718 H   0  0  0  0  0  0  0  0  0  0  0  0
   -5.5365   18.0308  -34.8421 H   0  0  0  0  0  0  0  0  0  0  0  0
   -7.0681   18.9339  -34.5657 H   0  0  0  0  0  0  0  0  0  0  0  0
   -3.4485   18.7974  -33.9553 H   0  0  0  0  0  0  0  0  0  0  0  0
   -2.1461   20.6417  -32.8446 H   0  0  0  0  0  0  0  0  0  0  0  0
   -2.4482   23.0769  -31.3803 H   0  0  0  0  0  0  0  0  0  0  0  0
   -5.4530   25.6490  -28.5450 H   0  0  0  0  0  0  0  0  0  0  0  0
   -6.0310   23.9660  -28.7860 H   0  0  0  0  0  0  0  0  0  0  0  0
   -9.6774   23.3969  -31.2828 H   0  0  0  0  0  0  0  0  0  0  0  0
   -9.7652   24.2937  -32.8367 H   0  0  0  0  0  0  0  0  0  0  0  0
   -9.7361   22.4977  -32.8367 H   0  0  0  0  0  0  0  0  0  0  0  0
   -7.1784   20.7129  -32.7620 H   0  0  0  0  0  0  0  0  0  0  0  0
   -4.9717   14.7971  -34.4874 H   0  0  0  0  0  0  0  0  0  0  0  0
   -4.5582   16.3789  -33.7530 H   0  0  0  0  0  0  0  0  0  0  0  0
   -4.9790   15.2490  -31.4677 H   0  0  0  0  0  0  0  0  0  0  0  0
   -4.9749   13.6913  -32.3622 H   0  0  0  0  0  0  0  0  0  0  0  0
   -3.5100   14.7309  -32.3622 H   0  0  0  0  0  0  0  0  0  0  0  0
  1  2  1  0
  2  3  1  0
  3  4  1  0
  4  5  2  0
  4  6  1  0
  6  7  1  0
  7  8  2  0
  8  9  1  0
  9 10  2  0
 10 11  1  0
 11 12  2  0
 12 13  1  0
 13 14  1  0
 13 15  2  0
 12 16  1  0
 16 17  1  0
 17 18  2  0
 17 19  1  0
 19 20  1  0
 16 21  1  0
 21 22  2  0
  4 23  1  0
 23 24  1  0
 24 25  1  0
 22  7  1  0
 21 10  1  0
  1 26  1  0
  1 27  1  0
  1 28  1  0
  2 29  1  0
  2 30  1  0
  6 31  1  0
  6 32  1  0
  8 33  1  0
  9 34  1  0
 11 35  1  0
 14 36  1  0
 14 37  1  0
 20 38  1  0
 20 39  1  0
 20 40  1  0
 22 41  1  0
 24 42  1  0
 24 43  1  0
 25 44  1  0
 25 45  1  0
 25 46  1  0
M  END
>  <UniqueID>  (9) 
9

>  <SMILES>  (9) 
CCOP(=O)(Cc1ccc2cc(C(N)=O)n(C(=O)OC)c2c1)OCC

>  <Energy>  (9) 
68.86488602754498

>  <Genealogy>  (9) 
CCOP(=O)(Cc1ccc2cc(C(N)=O)n(C(=O)OC)c2c1)OCC (3D coordinates assigned)
CCOP(=O)(Cc1ccc2cc(C(N)=O)n(C(=O)OC)c2c1)OCC (optimized conformer: 68.86488602754498 kcal/mol)

>  <smiles>  (9) 
CCOP(=O)(Cc1ccc2cc(C(N)=O)n(C(=O)OC)c2c1)OCC

>  <score_type>  (9) 
oracle

>  <origin>  (9) 
adg

>  <m_score__min__energy>  (9) 
-7.9299999999999997

>  <m_primary>  (9) 
energy

$$$$
9:0
     RDKit          3D

 53 54  0  0  0  0  0  0  0  0999 V2000
   -2.6540   20.8000  -33.5310 C   0  0  0  0  0  0  0  0  0  0  0  0
   -3.1340   19.4390  -33.0310 C   0  0  0  0  0  0  0  0  0  0  0  0
   -3.2190   18.3930  -34.1530 C   0  0  0  0  0  0  0  0  0  0  0  0
   -3.9790   17.1350  -33.7280 C   0  0  0  0  0  0  0  0  0  0  0  0
   -5.2910   17.1680  -34.2800 O   0  0  0  0  0  0  0  0  0  0  0  0
   -6.1450   18.2640  -34.1320 C   0  0  0  0  0  0  0  0  0  0  0  0
   -6.1130   19.2190  -34.9530 O   0  0  0  0  0  0  0  0  0  0  0  0
   -7.1040   18.3000  -32.9860 C   0  0  0  0  0  0  0  0  0  0  0  0
   -7.2820   19.7110  -32.4990 C   0  0  0  0  0  0  0  0  0  0  0  0
   -8.5780   20.2800  -32.4240 C   0  0  0  0  0  0  0  0  0  0  0  0
   -8.7600   21.5840  -31.9340 C   0  0  0  0  0  0  0  0  0  0  0  0
   -7.6310   22.2910  -31.5270 C   0  0  0  0  0  0  0  0  0  0  0  0
   -7.5250   23.5530  -30.9880 C   0  0  0  0  0  0  0  0  0  0  0  0
   -6.1640   23.7410  -30.7510 C   0  0  0  0  0  0  0  0  0  0  0  0
   -5.5770   25.0030  -30.2520 C   0  0  0  0  0  0  0  0  0  0  0  0
   -6.1440   25.6750  -29.1250 N   0  0  0  0  0  0  0  0  0  0  0  0
   -4.5850   25.5140  -30.8370 O   0  0  0  0  0  0  0  0  0  0  0  0
   -5.4590   22.6370  -31.1270 N   0  0  0  0  0  0  0  0  0  0  0  0
   -4.0510   22.4040  -30.9680 C   0  0  0  0  0  0  0  0  0  0  0  0
   -3.2200   23.1540  -31.5510 O   0  0  0  0  0  0  0  0  0  0  0  0
   -3.6080   21.3320  -30.1840 O   0  0  0  0  0  0  0  0  0  0  0  0
   -2.7690   21.4760  -29.0390 C   0  0  0  0  0  0  0  0  0  0  0  0
   -3.4870   22.2550  -27.9290 C   0  0  0  0  0  0  0  0  0  0  0  0
   -3.1410   23.7530  -27.8860 C   0  0  0  0  0  0  0  0  0  0  0  0
   -4.0700   24.5490  -26.9720 C   0  0  0  0  0  0  0  0  0  0  0  0
   -6.3710   21.7580  -31.5990 C   0  0  0  0  0  0  0  0  0  0  0  0
   -6.1630   20.4540  -32.0640 C   0  0  0  0  0  0  0  0  0  0  0  0
   -2.4258   21.4469  -32.6711 H   0  0  0  0  0  0  0  0  0  0  0  0
   -1.7482   20.6679  -34.1410 H   0  0  0  0  0  0  0  0  0  0  0  0
   -3.4422   21.2654  -34.1410 H   0  0  0  0  0  0  0  0  0  0  0  0
   -2.4320   19.0776  -32.2651 H   0  0  0  0  0  0  0  0  0  0  0  0
   -4.1468   19.5725  -32.6230 H   0  0  0  0  0  0  0  0  0  0  0  0
   -3.7346   18.8418  -35.0148 H   0  0  0  0  0  0  0  0  0  0  0  0
   -2.1918   18.0921  -34.4065 H   0  0  0  0  0  0  0  0  0  0  0  0
   -3.4485   16.2439  -34.0947 H   0  0  0  0  0  0  0  0  0  0  0  0
   -4.0422   17.0962  -32.6305 H   0  0  0  0  0  0  0  0  0  0  0  0
   -8.0764   17.9039  -33.3139 H   0  0  0  0  0  0  0  0  0  0  0  0
   -6.7044   17.6859  -32.1655 H   0  0  0  0  0  0  0  0  0  0  0  0
   -9.4496   19.6950  -32.7526 H   0  0  0  0  0  0  0  0  0  0  0  0
   -9.7626   22.0326  -31.8736 H   0  0  0  0  0  0  0  0  0  0  0  0
   -8.3410   24.2627  -30.7869 H   0  0  0  0  0  0  0  0  0  0  0  0
   -5.7600   26.5970  -28.8200 H   0  0  0  0  0  0  0  0  0  0  0  0
   -6.9150   25.2450  -28.5680 H   0  0  0  0  0  0  0  0  0  0  0  0
   -2.4993   20.4783  -28.6623 H   0  0  0  0  0  0  0  0  0  0  0  0
   -1.8667   22.0327  -29.3321 H   0  0  0  0  0  0  0  0  0  0  0  0
   -4.5715   22.1556  -28.0837 H   0  0  0  0  0  0  0  0  0  0  0  0
   -3.1521   21.8253  -26.9734 H   0  0  0  0  0  0  0  0  0  0  0  0
   -2.1091   23.8650  -27.5219 H   0  0  0  0  0  0  0  0  0  0  0  0
   -3.2595   24.1496  -28.9051 H   0  0  0  0  0  0  0  0  0  0  0  0
   -3.8217   24.3362  -25.9217 H   0  0  0  0  0  0  0  0  0  0  0  0
   -3.9444   25.6241  -27.1680 H   0  0  0  0  0  0  0  0  0  0  0  0
   -5.1131   24.2600  -27.1680 H   0  0  0  0  0  0  0  0  0  0  0  0
   -5.1529   20.0191  -32.0898 H   0  0  0  0  0  0  0  0  0  0  0  0
  1  2  1  0
  2  3  1  0
  3  4  1  0
  4  5  1  0
  5  6  1  0
  6  7  2  0
  6  8  1  0
  8  9  1  0
  9 10  2  0
 10 11  1  0
 11 12  2  0
 12 13  1  0
 13 14  2  0
 14 15  1  0
 15 16  1  0
 15 17  2  0
 14 18  1  0
 18 19  1  0
 19 20  2  0
 19 21  1  0
 21 22  1  0
 22 23  1  0
 23 24  1  0
 24 25  1  0
 18 26  1  0
 26 27  2  0
 27  9  1  0
 26 12  1  0
  1 28  1  0
  1 29  1  0
  1 30  1  0
  2 31  1  0
  2 32  1  0
  3 33  1  0
  3 34  1  0
  4 35  1  0
  4 36  1  0
  8 37  1  0
  8 38  1  0
 10 39  1  0
 11 40  1  0
 13 41  1  0
 16 42  1  0
 16 43  1  0
 22 44  1  0
 22 45  1  0
 23 46  1  0
 23 47  1  0
 24 48  1  0
 24 49  1  0
 25 50  1  0
 25 51  1  0
 25 52  1  0
 27 53  1  0
M  END
>  <UniqueID>  (10) 
10

>  <SMILES>  (10) 
CCCCOC(=O)Cc1ccc2cc(C(N)=O)n(C(=O)OCCCC)c2c1

>  <Energy>  (10) 
74.935562176007

>  <Genealogy>  (10) 
CCCCOC(=O)Cc1ccc2cc(C(N)=O)n(C(=O)OCCCC)c2c1 (3D coordinates assigned)
CCCCOC(=O)Cc1ccc2cc(C(N)=O)n(C(=O)OCCCC)c2c1 (optimized conformer: 74.935562176007 kcal/mol)

>  <smiles>  (10) 
CCCCOC(=O)Cc1ccc2cc(C(N)=O)n(C(=O)OCCCC)c2c1

>  <score_type>  (10) 
oracle

>  <origin>  (10) 
adg

>  <m_score__min__energy>  (10) 
-8.5199999999999996

>  <m_primary>  (10) 
energy

$$$$
10:0
     RDKit          3D

 43 45  0  0  0  0  0  0  0  0999 V2000
   -1.5510   25.9750  -28.9220 N   0  0  0  0  0  0  0  0  0  0  0  0
   -0.8750   24.7200  -28.9140 C   0  0  0  0  0  0  0  0  0  0  0  0
    0.1540   24.5770  -28.2030 O   0  0  0  0  0  0  0  0  0  0  0  0
   -1.4130   23.5910  -29.7040 C   0  0  0  0  0  0  0  0  0  0  0  0
   -0.6460   22.4940  -30.0900 C   0  0  0  0  0  0  0  0  0  0  0  0
   -1.4770   21.7270  -30.8740 C   0  0  0  0  0  0  0  0  0  0  0  0
   -1.2330   20.5170  -31.5170 C   0  0  0  0  0  0  0  0  0  0  0  0
   -2.2830   19.9330  -32.2420 C   0  0  0  0  0  0  0  0  0  0  0  0
   -3.5540   20.5600  -32.3100 C   0  0  0  0  0  0  0  0  0  0  0  0
   -4.6250   19.9570  -33.0680 N   0  0  0  0  0  0  0  0  0  0  0  0
   -5.3710   18.9650  -32.2720 C   0  0  0  0  0  0  0  0  0  0  0  0
   -6.7130   19.5000  -31.7360 C   0  0  0  0  0  0  0  0  0  0  0  0
   -7.2880   20.5200  -32.6440 N   0  0  0  0  0  0  0  0  0  0  0  0
   -6.8830   21.8940  -32.2830 C   0  0  0  0  0  0  0  0  0  0  0  0
   -7.6790   22.4110  -31.0770 C   0  0  0  0  0  0  0  0  0  0  0  0
   -9.0630   22.3890  -31.3530 O   0  0  0  0  0  0  0  0  0  0  0  0
   -9.4830   21.0560  -31.5580 C   0  0  0  0  0  0  0  0  0  0  0  0
   -8.7600   20.4230  -32.7630 C   0  0  0  0  0  0  0  0  0  0  0  0
   -3.7630   21.7890  -31.6390 C   0  0  0  0  0  0  0  0  0  0  0  0
   -2.6930   22.3560  -30.9390 C   0  0  0  0  0  0  0  0  0  0  0  0
   -2.6720   23.5020  -30.2220 N   0  0  0  0  0  0  0  0  0  0  0  0
   -3.7790   24.3950  -30.0140 C   0  0  0  0  0  0  0  0  0  0  0  0
   -3.8530   25.4780  -30.6520 O   0  0  0  0  0  0  0  0  0  0  0  0
   -4.7660   24.0830  -29.0870 O   0  0  0  0  0  0  0  0  0  0  0  0
   -2.5940   26.0230  -28.9520 H   0  0  0  0  0  0  0  0  0  0  0  0
    0.4009   22.2854  -29.8246 H   0  0  0  0  0  0  0  0  0  0  0  0
   -0.2469   20.0331  -31.4586 H   0  0  0  0  0  0  0  0  0  0  0  0
   -2.1189   18.9784  -32.7634 H   0  0  0  0  0  0  0  0  0  0  0  0
   -4.2120   19.4710  -33.8990 H   0  0  0  0  0  0  0  0  0  0  0  0
   -5.2790   20.6860  -33.4370 H   0  0  0  0  0  0  0  0  0  0  0  0
   -5.5723   18.0887  -32.9056 H   0  0  0  0  0  0  0  0  0  0  0  0
   -4.7493   18.7117  -31.4006 H   0  0  0  0  0  0  0  0  0  0  0  0
   -7.4209   18.6632  -31.6433 H   0  0  0  0  0  0  0  0  0  0  0  0
   -6.5335   19.9686  -30.7571 H   0  0  0  0  0  0  0  0  0  0  0  0
   -5.8116   21.8980  -32.0336 H   0  0  0  0  0  0  0  0  0  0  0  0
   -7.0853   22.5524  -33.1407 H   0  0  0  0  0  0  0  0  0  0  0  0
   -7.4732   21.7713  -30.2061 H   0  0  0  0  0  0  0  0  0  0  0  0
   -7.3742   23.4468  -30.8667 H   0  0  0  0  0  0  0  0  0  0  0  0
   -9.2604   20.4669  -30.6561 H   0  0  0  0  0  0  0  0  0  0  0  0
  -10.5638   21.0588  -31.7624 H   0  0  0  0  0  0  0  0  0  0  0  0
   -9.0413   19.3615  -32.8276 H   0  0  0  0  0  0  0  0  0  0  0  0
   -9.0633   20.9725  -33.6664 H   0  0  0  0  0  0  0  0  0  0  0  0
   -4.7438   22.2863  -31.6675 H   0  0  0  0  0  0  0  0  0  0  0  0
  1  2  1  0
  2  3  2  0
  2  4  1  0
  4  5  2  0
  5  6  1  0
  6  7  2  0
  7  8  1  0
  8  9  2  0
  9 10  1  0
 10 11  1  0
 11 12  1  0
 12 13  1  0
 13 14  1  0
 14 15  1  0
 15 16  1  0
 16 17  1  0
 17 18  1  0
  9 19  1  0
 19 20  2  0
 20 21  1  0
 21 22  1  0
 22 23  2  0
 22 24  1  0
 21  4  1  0
 20  6  1  0
 18 13  1  0
  1 25  1  0
  5 26  1  0
  7 27  1  0
  8 28  1  0
 10 29  1  0
 10 30  1  0
 11 31  1  0
 11 32  1  0
 12 33  1  0
 12 34  1  0
 14 35  1  0
 14 36  1  0
 15 37  1  0
 15 38  1  0
 17 39  1  0
 17 40  1  0
 18 41  1  0
 18 42  1  0
 19 43  1  0
M  CHG  3   1  -1  10   1  24  -1
M  END
>  <UniqueID>  (11) 
11

>  <SMILES>  (11) 
[NH-]C(=O)c1cc2ccc([NH2+]CCN3CCOCC3)cc2n1C(=O)[O-]

>  <Energy>  (11) 
89.06850220943409

>  <Genealogy>  (11) 
[NH-]C(=O)c1cc2ccc([NH2+]CCN3CCOCC3)cc2n1C(=O)[O-] (protonated)
[NH-]C(=O)c1cc2ccc([NH2+]CCN3CCOCC3)cc2n1C(=O)[O-] (3D coordinates assigned)
[NH-]C(=O)c1cc2ccc([NH2+]CCN3CCOCC3)cc2n1C(=O)[O-] (nonaromatic ring conformer: 89.06850220943409 kcal/mol)

>  <smiles>  (11) 
NC(=O)c1cc2ccc(NCCN3CCOCC3)cc2n1C(=O)O

>  <score_type>  (11) 
oracle

>  <origin>  (11) 
adg

>  <m_score__min__energy>  (11) 
-10.81

>  <m_primary>  (11) 
energy

$$$$
11:0
     RDKit          3D

 59 61  0  0  0  0  0  0  0  0999 V2000
   -3.0150   21.9250  -32.7710 C   0  0  0  0  0  0  0  0  0  0  0  0
   -3.6250   22.7090  -31.6500 C   0  0  0  0  0  0  0  0  0  0  0  0
   -2.8630   23.2390  -30.7950 O   0  0  0  0  0  0  0  0  0  0  0  0
   -5.0530   22.8470  -31.5230 N   0  0  0  0  0  0  0  0  0  0  0  0
   -5.7430   23.9070  -31.0100 C   0  0  0  0  0  0  0  0  0  0  0  0
   -5.1590   25.0990  -30.3640 C   0  0  0  0  0  0  0  0  0  0  0  0
   -3.9270   25.6560  -30.8160 N   0  0  0  0  0  0  0  0  0  0  0  0
   -5.7300   25.6070  -29.3600 O   0  0  0  0  0  0  0  0  0  0  0  0
   -7.1170   23.6870  -31.0980 C   0  0  0  0  0  0  0  0  0  0  0  0
   -7.2500   22.4450  -31.6720 C   0  0  0  0  0  0  0  0  0  0  0  0
   -8.3980   21.7190  -31.9670 C   0  0  0  0  0  0  0  0  0  0  0  0
   -8.2450   20.4520  -32.5570 C   0  0  0  0  0  0  0  0  0  0  0  0
   -6.9560   19.9440  -32.8670 C   0  0  0  0  0  0  0  0  0  0  0  0
   -6.8040   18.6260  -33.4460 N   0  0  0  0  0  0  0  0  0  0  0  0
   -7.2500   17.4210  -32.7310 C   0  0  0  0  0  0  0  0  0  0  0  0
   -6.0370   16.5320  -32.4340 C   0  0  0  0  0  0  0  0  0  0  0  0
   -5.1470   16.4320  -33.6030 N   0  0  0  0  0  0  0  0  0  0  0  0
   -3.8510   15.8130  -33.4680 C   0  0  0  0  0  0  0  0  0  0  0  0
   -3.5030   15.3130  -32.3600 O   0  0  0  0  0  0  0  0  0  0  0  0
   -2.9690   15.7900  -34.5510 O   0  0  0  0  0  0  0  0  0  0  0  0
   -1.9080   16.7260  -34.7120 C   0  0  0  0  0  0  0  0  0  0  0  0
   -2.3030   18.0670  -34.0990 C   0  0  0  0  0  0  0  0  0  0  0  0
   -0.8240   19.0340  -33.4550 Si  0  0  0  0  0  4  0  0  0  0  0  0
    0.7480   18.0290  -33.5440 C   0  0  0  0  0  0  0  0  0  0  0  0
   -0.6170   20.5670  -34.4990 C   0  0  0  0  0  0  0  0  0  0  0  0
   -1.1330   19.5430  -31.6800 C   0  0  0  0  0  0  0  0  0  0  0  0
   -5.5710   17.0110  -34.8890 C   0  0  0  0  0  0  0  0  0  0  0  0
   -6.0260   18.4650  -34.6880 C   0  0  0  0  0  0  0  0  0  0  0  0
   -5.8130   20.7180  -32.5510 C   0  0  0  0  0  0  0  0  0  0  0  0
   -5.9920   21.9590  -31.9270 C   0  0  0  0  0  0  0  0  0  0  0  0
   -2.3890   21.1205  -32.3576 H   0  0  0  0  0  0  0  0  0  0  0  0
   -3.8128   21.4878  -33.3893 H   0  0  0  0  0  0  0  0  0  0  0  0
   -2.3951   22.5909  -33.3893 H   0  0  0  0  0  0  0  0  0  0  0  0
   -3.0130   25.2970  -30.4670 H   0  0  0  0  0  0  0  0  0  0  0  0
   -7.9229   24.3632  -30.7766 H   0  0  0  0  0  0  0  0  0  0  0  0
   -9.3966   22.1237  -31.7454 H   0  0  0  0  0  0  0  0  0  0  0  0
   -9.1355   19.8465  -32.7813 H   0  0  0  0  0  0  0  0  0  0  0  0
   -7.7331   17.7115  -31.7864 H   0  0  0  0  0  0  0  0  0  0  0  0
   -7.9696   16.8680  -33.3526 H   0  0  0  0  0  0  0  0  0  0  0  0
   -5.4752   16.9623  -31.5918 H   0  0  0  0  0  0  0  0  0  0  0  0
   -6.3987   15.5232  -32.1861 H   0  0  0  0  0  0  0  0  0  0  0  0
   -1.0066   16.3461  -34.2090 H   0  0  0  0  0  0  0  0  0  0  0  0
   -1.7046   16.8630  -35.7843 H   0  0  0  0  0  0  0  0  0  0  0  0
   -2.8100   18.6694  -34.8671 H   0  0  0  0  0  0  0  0  0  0  0  0
   -2.9628   17.8600  -33.2436 H   0  0  0  0  0  0  0  0  0  0  0  0
    1.0982   17.8051  -32.5256 H   0  0  0  0  0  0  0  0  0  0  0  0
    0.5520   17.0883  -34.0794 H   0  0  0  0  0  0  0  0  0  0  0  0
    1.5195   18.6017  -34.0794 H   0  0  0  0  0  0  0  0  0  0  0  0
   -0.4987   21.4431  -33.8445 H   0  0  0  0  0  0  0  0  0  0  0  0
    0.2749   20.4605  -35.1339 H   0  0  0  0  0  0  0  0  0  0  0  0
   -1.5052   20.7009  -35.1339 H   0  0  0  0  0  0  0  0  0  0  0  0
   -0.6833   18.8022  -31.0025 H   0  0  0  0  0  0  0  0  0  0  0  0
   -0.6809   20.5290  -31.4973 H   0  0  0  0  0  0  0  0  0  0  0  0
   -2.2164   19.5969  -31.4973 H   0  0  0  0  0  0  0  0  0  0  0  0
   -4.7273   16.9878  -35.5944 H   0  0  0  0  0  0  0  0  0  0  0  0
   -6.4098   16.4230  -35.2899 H   0  0  0  0  0  0  0  0  0  0  0  0
   -5.1383   19.1128  -34.6392 H   0  0  0  0  0  0  0  0  0  0  0  0
   -6.6706   18.7429  -35.5349 H   0  0  0  0  0  0  0  0  0  0  0  0
   -4.8040   20.3516  -32.7910 H   0  0  0  0  0  0  0  0  0  0  0  0
  1  2  1  0
  2  3  2  0
  2  4  1  0
  4  5  1  0
  5  6  1  0
  6  7  1  0
  6  8  2  0
  5  9  2  0
  9 10  1  0
 10 11  2  0
 11 12  1  0
 12 13  2  0
 13 14  1  0
 14 15  1  0
 15 16  1  0
 16 17  1  0
 17 18  1  0
 18 19  2  0
 18 20  1  0
 20 21  1  0
 21 22  1  0
 22 23  1  0
 23 24  1  0
 23 25  1  0
 23 26  1  0
 17 27  1  0
 27 28  1  0
 13 29  1  0
 29 30  2  0
 30  4  1  0
 30 10  1  0
 28 14  1  0
  1 31  1  0
  1 32  1  0
  1 33  1  0
  7 34  1  0
  9 35  1  0
 11 36  1  0
 12 37  1  0
 15 38  1  0
 15 39  1  0
 16 40  1  0
 16 41  1  0
 21 42  1  0
 21 43  1  0
 22 44  1  0
 22 45  1  0
 24 46  1  0
 24 47  1  0
 24 48  1  0
 25 49  1  0
 25 50  1  0
 25 51  1  0
 26 52  1  0
 26 53  1  0
 26 54  1  0
 27 55  1  0
 27 56  1  0
 28 57  1  0
 28 58  1  0
 29 59  1  0
M  CHG  1   7  -1
M  END
>  <UniqueID>  (12) 
12

>  <SMILES>  (12) 
CC(=O)n1c(C([NH-])=O)cc2ccc(N3CCN(C(=O)OCC[Si](C)(C)C)CC3)cc21

>  <Energy>  (12) 
83.43790664493423

>  <Genealogy>  (12) 
CC(=O)n1c(C([NH-])=O)cc2ccc(N3CCN(C(=O)OCC[Si](C)(C)C)CC3)cc21 (protonated)
CC(=O)n1c(C([NH-])=O)cc2ccc(N3CCN(C(=O)OCC[Si](C)(C)C)CC3)cc21 (3D coordinates assigned)
CC(=O)n1c(C([NH-])=O)cc2ccc(N3CCN(C(=O)OCC[Si](C)(C)C)CC3)cc21 (nonaromatic ring conformer: 83.43790664493423 kcal/mol)

>  <smiles>  (12) 
CC(=O)n1c(C(N)=O)cc2ccc(N3CCN(C(=O)OCC[Si](C)(C)C)CC3)cc21

>  <score_type>  (12) 
oracle

>  <origin>  (12) 
adg

>  <m_score__min__energy>  (12) 
-10.890000000000001

>  <m_primary>  (12) 
energy

$$$$
12:0
     RDKit          3D

 31 32  0  0  0  0  0  0  0  0999 V2000
   -3.8640   23.4970  -27.9720 C   0  0  0  0  0  0  0  0  0  0  0  0
   -3.0360   22.5840  -28.8700 C   0  0  0  0  0  0  0  0  0  0  0  0
   -2.9230   23.1350  -30.1790 O   0  0  0  0  0  0  0  0  0  0  0  0
   -3.6900   22.7030  -31.2680 C   0  0  0  0  0  0  0  0  0  0  0  0
   -3.1390   22.1330  -32.2490 O   0  0  0  0  0  0  0  0  0  0  0  0
   -5.1150   22.8840  -31.2520 N   0  0  0  0  0  0  0  0  0  0  0  0
   -5.8130   24.0190  -30.9620 C   0  0  0  0  0  0  0  0  0  0  0  0
   -5.2390   25.2880  -30.4660 C   0  0  0  0  0  0  0  0  0  0  0  0
   -3.9160   25.6630  -30.8430 N   0  0  0  0  0  0  0  0  0  0  0  0
   -5.9170   26.0630  -29.7410 O   0  0  0  0  0  0  0  0  0  0  0  0
   -7.1810   23.8050  -31.1180 C   0  0  0  0  0  0  0  0  0  0  0  0
   -7.3020   22.4900  -31.5060 C   0  0  0  0  0  0  0  0  0  0  0  0
   -8.4380   21.7510  -31.8190 C   0  0  0  0  0  0  0  0  0  0  0  0
   -8.2660   20.4180  -32.2250 C   0  0  0  0  0  0  0  0  0  0  0  0
   -6.9700   19.8430  -32.3010 C   0  0  0  0  0  0  0  0  0  0  0  0
   -6.7940   18.4300  -32.7980 C   0  0  0  0  0  0  0  0  0  0  0  0
   -7.9790   17.7380  -32.6290 F   0  0  0  0  0  0  0  0  0  0  0  0
   -5.7910   17.7870  -32.0940 F   0  0  0  0  0  0  0  0  0  0  0  0
   -6.4540   18.4230  -34.1400 F   0  0  0  0  0  0  0  0  0  0  0  0
   -5.8390   20.6360  -31.9970 C   0  0  0  0  0  0  0  0  0  0  0  0
   -6.0420   21.9560  -31.5780 C   0  0  0  0  0  0  0  0  0  0  0  0
   -3.6528   23.2641  -26.9179 H   0  0  0  0  0  0  0  0  0  0  0  0
   -3.6029   24.5461  -28.1752 H   0  0  0  0  0  0  0  0  0  0  0  0
   -4.9335   23.3394  -28.1752 H   0  0  0  0  0  0  0  0  0  0  0  0
   -2.0307   22.4680  -28.4388 H   0  0  0  0  0  0  0  0  0  0  0  0
   -3.5361   21.6067  -28.9390 H   0  0  0  0  0  0  0  0  0  0  0  0
   -3.0870   25.2940  -30.3270 H   0  0  0  0  0  0  0  0  0  0  0  0
   -7.9917   24.5323  -30.9639 H   0  0  0  0  0  0  0  0  0  0  0  0
   -9.4410   22.1975  -31.7505 H   0  0  0  0  0  0  0  0  0  0  0  0
   -9.1457   19.8119  -32.4873 H   0  0  0  0  0  0  0  0  0  0  0  0
   -4.8228   20.2247  -32.0878 H   0  0  0  0  0  0  0  0  0  0  0  0
  1  2  1  0
  2  3  1  0
  3  4  1  0
  4  5  2  0
  4  6  1  0
  6  7  1  0
  7  8  1  0
  8  9  1  0
  8 10  2  0
  7 11  2  0
 11 12  1  0
 12 13  2  0
 13 14  1  0
 14 15  2  0
 15 16  1  0
 16 17  1  0
 16 18  1  0
 16 19  1  0
 15 20  1  0
 20 21  2  0
 21  6  1  0
 21 12  1  0
  1 22  1  0
  1 23  1  0
  1 24  1  0
  2 25  1  0
  2 26  1  0
  9 27  1  0
 11 28  1  0
 13 29  1  0
 14 30  1  0
 20 31  1  0
M  CHG  1   9  -1
M  END
>  <UniqueID>  (13) 
13

>  <SMILES>  (13) 
CCOC(=O)n1c(C([NH-])=O)cc2ccc(C(F)(F)F)cc21

>  <Energy>  (13) 
66.67968370598363

>  <Genealogy>  (13) 
CCOC(=O)n1c(C([NH-])=O)cc2ccc(C(F)(F)F)cc21 (protonated)
CCOC(=O)n1c(C([NH-])=O)cc2ccc(C(F)(F)F)cc21 (3D coordinates assigned)
CCOC(=O)n1c(C([NH-])=O)cc2ccc(C(F)(F)F)cc21 (optimized conformer: 66.67968370598363 kcal/mol)

>  <smiles>  (13) 
CCOC(=O)n1c(C(N)=O)cc2ccc(C(F)(F)F)cc21

>  <score_type>  (13) 
oracle

>  <origin>  (13) 
adg

>  <m_score__min__energy>  (13) 
-8.9299999999999997

>  <m_primary>  (13) 
energy

$$$$
13:0
     RDKit          3D

 50 52  0  0  0  0  0  0  0  0999 V2000
   -2.7870   20.9730  -29.2880 C   0  0  0  0  0  0  0  0  0  0  0  0
   -2.7780   22.5050  -29.1170 C   0  0  0  0  0  0  0  0  0  0  0  0
   -1.4260   22.9330  -28.5230 C   0  0  0  0  0  0  0  0  0  0  0  0
   -3.9050   22.9540  -28.1660 C   0  0  0  0  0  0  0  0  0  0  0  0
   -2.9010   23.1510  -30.3920 O   0  0  0  0  0  0  0  0  0  0  0  0
   -3.7200   22.7480  -31.4590 C   0  0  0  0  0  0  0  0  0  0  0  0
   -3.2210   22.2850  -32.5200 O   0  0  0  0  0  0  0  0  0  0  0  0
   -5.1460   22.8800  -31.3380 N   0  0  0  0  0  0  0  0  0  0  0  0
   -5.8480   23.9870  -30.9600 C   0  0  0  0  0  0  0  0  0  0  0  0
   -5.2720   25.2360  -30.4170 C   0  0  0  0  0  0  0  0  0  0  0  0
   -3.9780   25.6670  -30.8420 N   0  0  0  0  0  0  0  0  0  0  0  0
   -5.9230   25.9440  -29.6010 O   0  0  0  0  0  0  0  0  0  0  0  0
   -7.2190   23.7680  -31.0940 C   0  0  0  0  0  0  0  0  0  0  0  0
   -7.3370   22.4800  -31.5700 C   0  0  0  0  0  0  0  0  0  0  0  0
   -8.4750   21.7550  -31.9150 C   0  0  0  0  0  0  0  0  0  0  0  0
   -8.2970   20.4590  -32.4270 C   0  0  0  0  0  0  0  0  0  0  0  0
   -6.9970   19.9150  -32.5820 C   0  0  0  0  0  0  0  0  0  0  0  0
   -6.8230   18.5440  -33.1750 C   0  0  0  0  0  0  0  0  0  0  0  0
   -5.7580   18.5650  -34.2310 C   0  0  0  0  0  0  0  0  0  0  0  0
   -6.0820   18.5830  -35.4480 O   0  0  0  0  0  0  0  0  0  0  0  0
   -4.3770   18.5720  -33.8680 N   0  0  0  0  0  0  0  0  0  0  0  0
   -3.0740   18.5390  -34.5610 C   0  0  0  0  0  0  0  0  0  0  0  0
   -2.2340   18.6460  -33.3220 C   0  0  0  0  0  0  0  0  0  0  0  0
   -1.4610   19.9350  -33.1950 C   0  0  0  0  0  0  0  0  0  0  0  0
   -1.2100   20.6440  -34.2080 O   0  0  0  0  0  0  0  0  0  0  0  0
   -1.0360   20.3590  -31.9420 O   0  0  0  0  0  0  0  0  0  0  0  0
   -3.5690   18.6650  -32.6370 C   0  0  0  0  0  0  0  0  0  0  0  0
   -5.8660   20.6850  -32.2310 C   0  0  0  0  0  0  0  0  0  0  0  0
   -6.0720   21.9670  -31.7080 C   0  0  0  0  0  0  0  0  0  0  0  0
   -2.7898   20.4936  -28.2980 H   0  0  0  0  0  0  0  0  0  0  0  0
   -3.6869   20.6714  -29.8440 H   0  0  0  0  0  0  0  0  0  0  0  0
   -1.8907   20.6608  -29.8440 H   0  0  0  0  0  0  0  0  0  0  0  0
   -1.4856   22.9141  -27.4248 H   0  0  0  0  0  0  0  0  0  0  0  0
   -0.6415   22.2393  -28.8596 H   0  0  0  0  0  0  0  0  0  0  0  0
   -1.1836   23.9518  -28.8596 H   0  0  0  0  0  0  0  0  0  0  0  0
   -3.5787   22.8240  -27.1236 H   0  0  0  0  0  0  0  0  0  0  0  0
   -4.1379   24.0136  -28.3479 H   0  0  0  0  0  0  0  0  0  0  0  0
   -4.8027   22.3448  -28.3479 H   0  0  0  0  0  0  0  0  0  0  0  0
   -3.1110   25.2960  -30.3910 H   0  0  0  0  0  0  0  0  0  0  0  0
   -8.0326   24.4730  -30.8680 H   0  0  0  0  0  0  0  0  0  0  0  0
   -9.4805   22.1833  -31.7906 H   0  0  0  0  0  0  0  0  0  0  0  0
   -9.1751   19.8602  -32.7105 H   0  0  0  0  0  0  0  0  0  0  0  0
   -6.5333   17.8395  -32.3814 H   0  0  0  0  0  0  0  0  0  0  0  0
   -7.7729   18.2281  -33.6310 H   0  0  0  0  0  0  0  0  0  0  0  0
   -2.9072   17.5991  -35.1076 H   0  0  0  0  0  0  0  0  0  0  0  0
   -2.9052   19.2890  -35.3478 H   0  0  0  0  0  0  0  0  0  0  0  0
   -1.4173   17.9522  -33.0736 H   0  0  0  0  0  0  0  0  0  0  0  0
   -3.7149   17.8048  -31.9672 H   0  0  0  0  0  0  0  0  0  0  0  0
   -3.7754   19.5108  -31.9646 H   0  0  0  0  0  0  0  0  0  0  0  0
   -4.8492   20.2873  -32.3652 H   0  0  0  0  0  0  0  0  0  0  0  0
  1  2  1  0
  2  3  1  0
  2  4  1  0
  2  5  1  0
  5  6  1  0
  6  7  2  0
  6  8  1  0
  8  9  1  0
  9 10  1  0
 10 11  1  0
 10 12  2  0
  9 13  2  0
 13 14  1  0
 14 15  2  0
 15 16  1  0
 16 17  2  0
 17 18  1  0
 18 19  1  0
 19 20  2  0
 19 21  1  0
 21 22  1  0
 22 23  1  0
 23 24  1  0
 24 25  2  0
 24 26  1  0
 23 27  1  0
 17 28  1  0
 28 29  2  0
 29  8  1  0
 29 14  1  0
 27 21  1  0
  1 30  1  0
  1 31  1  0
  1 32  1  0
  3 33  1  0
  3 34  1  0
  3 35  1  0
  4 36  1  0
  4 37  1  0
  4 38  1  0
 11 39  1  0
 13 40  1  0
 15 41  1  0
 16 42  1  0
 18 43  1  0
 18 44  1  0
 22 45  1  0
 22 46  1  0
 23 47  1  0
 27 48  1  0
 27 49  1  0
 28 50  1  0
M  CHG  2  11  -1  26  -1
M  END
>  <UniqueID>  (14) 
14

>  <SMILES>  (14) 
CC(C)(C)OC(=O)n1c(C([NH-])=O)cc2ccc(CC(=O)N3CC(C(=O)[O-])C3)cc21

>  <Energy>  (14) 
128.00429189728933

>  <Genealogy>  (14) 
CC(C)(C)OC(=O)n1c(C([NH-])=O)cc2ccc(CC(=O)N3CC(C(=O)[O-])C3)cc21 (protonated)
CC(C)(C)OC(=O)n1c(C([NH-])=O)cc2ccc(CC(=O)N3CC(C(=O)[O-])C3)cc21 (3D coordinates assigned)
CC(C)(C)OC(=O)n1c(C([NH-])=O)cc2ccc(CC(=O)N3CC(C(=O)[O-])C3)cc21 (nonaromatic ring conformer: 128.00429189728933 kcal/mol)

>  <smiles>  (14) 
CC(C)(C)OC(=O)n1c(C(N)=O)cc2ccc(CC(=O)N3CC(C(=O)O)C3)cc21

>  <score_type>  (14) 
oracle

>  <origin>  (14) 
adg

>  <m_score__min__energy>  (14) 
-11.18

>  <m_primary>  (14) 
energy

$$$$
14:0
     RDKit          3D

 33 34  0  0  0  0  0  0  0  0999 V2000
   -2.7520   20.8090  -32.7110 C   0  0  0  0  0  0  0  0  0  0  0  0
   -3.4810   22.0290  -32.7370 O   0  0  0  0  0  0  0  0  0  0  0  0
   -3.8910   22.6870  -31.5730 C   0  0  0  0  0  0  0  0  0  0  0  0
   -3.0380   23.1000  -30.7400 O   0  0  0  0  0  0  0  0  0  0  0  0
   -5.2900   22.9160  -31.3380 N   0  0  0  0  0  0  0  0  0  0  0  0
   -5.8920   24.0640  -30.9160 C   0  0  0  0  0  0  0  0  0  0  0  0
   -5.2030   25.2870  -30.4510 C   0  0  0  0  0  0  0  0  0  0  0  0
   -3.8660   25.5740  -30.8490 N   0  0  0  0  0  0  0  0  0  0  0  0
   -5.7890   26.0660  -29.6520 O   0  0  0  0  0  0  0  0  0  0  0  0
   -7.2760   23.9110  -30.8960 C   0  0  0  0  0  0  0  0  0  0  0  0
   -7.5070   22.6210  -31.3140 C   0  0  0  0  0  0  0  0  0  0  0  0
   -8.7070   21.9360  -31.4850 C   0  0  0  0  0  0  0  0  0  0  0  0
   -8.6490   20.6130  -31.9540 C   0  0  0  0  0  0  0  0  0  0  0  0
   -7.4030   20.0090  -32.2580 C   0  0  0  0  0  0  0  0  0  0  0  0
   -7.3530   18.5830  -32.7380 C   0  0  0  0  0  0  0  0  0  0  0  0
   -5.9140   18.1780  -33.0670 C   0  0  0  0  0  0  0  0  0  0  0  0
   -5.7130   18.0360  -34.5460 C   0  0  0  0  0  0  0  0  0  0  0  0
   -6.1110   18.9080  -35.3010 O   0  0  0  0  0  0  0  0  0  0  0  0
   -6.2060   20.7310  -32.0620 C   0  0  0  0  0  0  0  0  0  0  0  0
   -6.2920   22.0410  -31.5760 C   0  0  0  0  0  0  0  0  0  0  0  0
   -2.5737   20.5106  -31.6674 H   0  0  0  0  0  0  0  0  0  0  0  0
   -3.3301   20.0255  -33.2228 H   0  0  0  0  0  0  0  0  0  0  0  0
   -1.7881   20.9469  -33.2228 H   0  0  0  0  0  0  0  0  0  0  0  0
   -3.0540   25.2330  -30.2900 H   0  0  0  0  0  0  0  0  0  0  0  0
   -8.0256   24.6624  -30.6072 H   0  0  0  0  0  0  0  0  0  0  0  0
   -9.6708   22.4159  -31.2598 H   0  0  0  0  0  0  0  0  0  0  0  0
   -9.5789   20.0405  -32.0866 H   0  0  0  0  0  0  0  0  0  0  0  0
   -7.7440   17.9221  -31.9504 H   0  0  0  0  0  0  0  0  0  0  0  0
   -7.9648   18.4923  -33.6476 H   0  0  0  0  0  0  0  0  0  0  0  0
   -5.2285   18.9485  -32.6845 H   0  0  0  0  0  0  0  0  0  0  0  0
   -5.7099   17.2062  -32.5938 H   0  0  0  0  0  0  0  0  0  0  0  0
   -5.2073   17.1466  -34.9500 H   0  0  0  0  0  0  0  0  0  0  0  0
   -5.2300   20.2756  -32.2856 H   0  0  0  0  0  0  0  0  0  0  0  0
  1  2  1  0
  2  3  1  0
  3  4  2  0
  3  5  1  0
  5  6  1  0
  6  7  1  0
  7  8  1  0
  7  9  2  0
  6 10  2  0
 10 11  1  0
 11 12  2  0
 12 13  1  0
 13 14  2  0
 14 15  1  0
 15 16  1  0
 16 17  1  0
 17 18  2  0
 14 19  1  0
 19 20  2  0
 20  5  1  0
 20 11  1  0
  1 21  1  0
  1 22  1  0
  1 23  1  0
  8 24  1  0
 10 25  1  0
 12 26  1  0
 13 27  1  0
 15 28  1  0
 15 29  1  0
 16 30  1  0
 16 31  1  0
 17 32  1  0
 19 33  1  0
M  CHG  1   8  -1
M  END
>  <UniqueID>  (15) 
15

>  <SMILES>  (15) 
COC(=O)n1c(C([NH-])=O)cc2ccc(CCC=O)cc21

>  <Energy>  (15) 
65.96846153385951

>  <Genealogy>  (15) 
COC(=O)n1c(C([NH-])=O)cc2ccc(CCC=O)cc21 (protonated)
COC(=O)n1c(C([NH-])=O)cc2ccc(CCC=O)cc21 (3D coordinates assigned)
COC(=O)n1c(C([NH-])=O)cc2ccc(CCC=O)cc21 (optimized conformer: 65.96846153385951 kcal/mol)

>  <smiles>  (15) 
COC(=O)n1c(C(N)=O)cc2ccc(CCC=O)cc21

>  <score_type>  (15) 
oracle

>  <origin>  (15) 
adg

>  <m_score__min__energy>  (15) 
-9.9100000000000001

>  <m_primary>  (15) 
energy

$$$$
15:0
     RDKit          3D

 47 48  0  0  0  0  0  0  0  0999 V2000
   -2.1970   21.2550  -28.2150 C   0  0  0  0  0  0  0  0  0  0  0  0
   -3.1140   22.2020  -29.0020 C   0  0  0  0  0  0  0  0  0  0  0  0
   -2.2750   23.3780  -29.5380 C   0  0  0  0  0  0  0  0  0  0  0  0
   -4.2250   22.7110  -28.0650 C   0  0  0  0  0  0  0  0  0  0  0  0
   -3.6730   21.4450  -30.0860 O   0  0  0  0  0  0  0  0  0  0  0  0
   -4.2410   21.9630  -31.2590 C   0  0  0  0  0  0  0  0  0  0  0  0
   -3.5400   22.1500  -32.2890 O   0  0  0  0  0  0  0  0  0  0  0  0
   -5.6440   22.2790  -31.2820 N   0  0  0  0  0  0  0  0  0  0  0  0
   -6.2330   23.4380  -30.8760 C   0  0  0  0  0  0  0  0  0  0  0  0
   -5.5280   24.6760  -30.4870 C   0  0  0  0  0  0  0  0  0  0  0  0
   -5.8500   25.3600  -29.2760 N   0  0  0  0  0  0  0  0  0  0  0  0
   -4.5900   25.1080  -31.2090 O   0  0  0  0  0  0  0  0  0  0  0  0
   -7.6200   23.3260  -30.9130 C   0  0  0  0  0  0  0  0  0  0  0  0
   -7.8680   22.0520  -31.3700 C   0  0  0  0  0  0  0  0  0  0  0  0
   -9.0800   21.4020  -31.5870 C   0  0  0  0  0  0  0  0  0  0  0  0
   -9.0410   20.0680  -32.0260 C   0  0  0  0  0  0  0  0  0  0  0  0
   -7.8020   19.4080  -32.2190 C   0  0  0  0  0  0  0  0  0  0  0  0
   -7.7750   17.9890  -32.7130 C   0  0  0  0  0  0  0  0  0  0  0  0
   -6.4710   17.3530  -32.3550 C   0  0  0  0  0  0  0  0  0  0  0  0
   -6.1670   17.1850  -31.1430 O   0  0  0  0  0  0  0  0  0  0  0  0
   -5.5810   16.9990  -33.3710 O   0  0  0  0  0  0  0  0  0  0  0  0
   -4.9840   18.1300  -34.5040 S   0  0  0  0  0  0  0  0  0  0  0  0
   -3.7340   19.1430  -33.7440 C   0  0  0  0  0  0  0  0  0  0  0  0
   -6.1140   19.0040  -34.9670 O   0  0  0  0  0  0  0  0  0  0  0  0
   -4.4010   17.4060  -35.6850 O   0  0  0  0  0  0  0  0  0  0  0  0
   -6.5930   20.1030  -32.0000 C   0  0  0  0  0  0  0  0  0  0  0  0
   -6.6600   21.4380  -31.5830 C   0  0  0  0  0  0  0  0  0  0  0  0
   -2.3478   21.4107  -27.1366 H   0  0  0  0  0  0  0  0  0  0  0  0
   -2.4383   20.2131  -28.4723 H   0  0  0  0  0  0  0  0  0  0  0  0
   -1.1479   21.4627  -28.4723 H   0  0  0  0  0  0  0  0  0  0  0  0
   -1.8658   23.9515  -28.6932 H   0  0  0  0  0  0  0  0  0  0  0  0
   -1.4490   22.9894  -30.1517 H   0  0  0  0  0  0  0  0  0  0  0  0
   -2.9113   24.0326  -30.1517 H   0  0  0  0  0  0  0  0  0  0  0  0
   -3.9158   22.5694  -27.0189 H   0  0  0  0  0  0  0  0  0  0  0  0
   -4.4023   23.7801  -28.2534 H   0  0  0  0  0  0  0  0  0  0  0  0
   -5.1505   22.1471  -28.2534 H   0  0  0  0  0  0  0  0  0  0  0  0
   -6.4930   24.9350  -28.5720 H   0  0  0  0  0  0  0  0  0  0  0  0
   -5.3820   26.2640  -29.0440 H   0  0  0  0  0  0  0  0  0  0  0  0
   -8.3594   24.0919  -30.6362 H   0  0  0  0  0  0  0  0  0  0  0  0
  -10.0377   21.9166  -31.4200 H   0  0  0  0  0  0  0  0  0  0  0  0
   -9.9808   19.5310  -32.2217 H   0  0  0  0  0  0  0  0  0  0  0  0
   -8.5965   17.4246  -32.2476 H   0  0  0  0  0  0  0  0  0  0  0  0
   -7.8939   17.9828  -33.8065 H   0  0  0  0  0  0  0  0  0  0  0  0
   -3.8206   19.0729  -32.6497 H   0  0  0  0  0  0  0  0  0  0  0  0
   -2.7389   18.7934  -34.0563 H   0  0  0  0  0  0  0  0  0  0  0  0
   -3.8698   20.1890  -34.0563 H   0  0  0  0  0  0  0  0  0  0  0  0
   -5.6226   19.6082  -32.1531 H   0  0  0  0  0  0  0  0  0  0  0  0
  1  2  1  0
  2  3  1  0
  2  4  1  0
  2  5  1  0
  5  6  1  0
  6  7  2  0
  6  8  1  0
  8  9  1  0
  9 10  1  0
 10 11  1  0
 10 12  2  0
  9 13  2  0
 13 14  1  0
 14 15  2  0
 15 16  1  0
 16 17  2  0
 17 18  1  0
 18 19  1  0
 19 20  2  0
 19 21  1  0
 21 22  1  0
 22 23  1  0
 22 24  2  0
 22 25  2  0
 17 26  1  0
 26 27  2  0
 27  8  1  0
 27 14  1  0
  1 28  1  0
  1 29  1  0
  1 30  1  0
  3 31  1  0
  3 32  1  0
  3 33  1  0
  4 34  1  0
  4 35  1  0
  4 36  1  0
 11 37  1  0
 11 38  1  0
 13 39  1  0
 15 40  1  0
 16 41  1  0
 18 42  1  0
 18 43  1  0
 23 44  1  0
 23 45  1  0
 23 46  1  0
 26 47  1  0
M  END
>  <UniqueID>  (16) 
16

>  <SMILES>  (16) 
CC(C)(C)OC(=O)n1c(C(N)=O)cc2ccc(CC(=O)OS(C)(=O)=O)cc21

>  <Energy>  (16) 
72.07079086664378

>  <Genealogy>  (16) 
CC(C)(C)OC(=O)n1c(C(N)=O)cc2ccc(CC(=O)OS(C)(=O)=O)cc21 (3D coordinates assigned)
CC(C)(C)OC(=O)n1c(C(N)=O)cc2ccc(CC(=O)OS(C)(=O)=O)cc21 (optimized conformer: 72.07079086664378 kcal/mol)

>  <smiles>  (16) 
CC(C)(C)OC(=O)n1c(C(N)=O)cc2ccc(CC(=O)OS(C)(=O)=O)cc21

>  <score_type>  (16) 
oracle

>  <origin>  (16) 
adg

>  <m_score__min__energy>  (16) 
-9.4000000000000004

>  <m_primary>  (16) 
energy

$$$$
16:0
     RDKit          3D

 39 41  0  0  0  0  0  0  0  0999 V2000
   -2.2830   20.9480  -32.5460 C   0  0  0  0  0  0  0  0  0  0  0  0
   -2.9320   22.2130  -32.5510 O   0  0  0  0  0  0  0  0  0  0  0  0
   -3.5850   22.7310  -31.4280 C   0  0  0  0  0  0  0  0  0  0  0  0
   -2.9280   23.0420  -30.3980 O   0  0  0  0  0  0  0  0  0  0  0  0
   -5.0130   22.8830  -31.4410 N   0  0  0  0  0  0  0  0  0  0  0  0
   -5.7480   23.9280  -30.9650 C   0  0  0  0  0  0  0  0  0  0  0  0
   -5.2130   25.2140  -30.4700 C   0  0  0  0  0  0  0  0  0  0  0  0
   -3.9100   25.6580  -30.8380 N   0  0  0  0  0  0  0  0  0  0  0  0
   -5.9370   25.9550  -29.7510 O   0  0  0  0  0  0  0  0  0  0  0  0
   -7.1100   23.6590  -31.0800 C   0  0  0  0  0  0  0  0  0  0  0  0
   -7.1870   22.4120  -31.6550 C   0  0  0  0  0  0  0  0  0  0  0  0
   -8.3010   21.6480  -31.9880 C   0  0  0  0  0  0  0  0  0  0  0  0
   -8.0870   20.3780  -32.5450 C   0  0  0  0  0  0  0  0  0  0  0  0
   -6.7700   19.8810  -32.7540 C   0  0  0  0  0  0  0  0  0  0  0  0
   -6.5620   18.5640  -33.3180 N   0  0  0  0  0  0  0  0  0  0  0  0
   -7.1820   17.3530  -32.8000 C   0  0  0  0  0  0  0  0  0  0  0  0
   -6.8320   16.2480  -33.7890 C   0  0  0  0  0  0  0  0  0  0  0  0
   -5.6400   16.7720  -34.5920 C   0  0  2  0  0  0  0  0  0  0  0  0
   -4.3880   16.2400  -34.0460 N   0  0  0  0  0  0  0  0  0  0  0  0
   -5.7060   18.2980  -34.4660 C   0  0  0  0  0  0  0  0  0  0  0  0
   -5.6650   20.6940  -32.3960 C   0  0  0  0  0  0  0  0  0  0  0  0
   -5.9100   21.9640  -31.8620 C   0  0  0  0  0  0  0  0  0  0  0  0
   -2.1173   20.6250  -31.5076 H   0  0  0  0  0  0  0  0  0  0  0  0
   -2.9139   20.2102  -33.0633 H   0  0  0  0  0  0  0  0  0  0  0  0
   -1.3157   21.0301  -33.0633 H   0  0  0  0  0  0  0  0  0  0  0  0
   -3.0570   25.1980  -30.4510 H   0  0  0  0  0  0  0  0  0  0  0  0
   -7.9459   24.3061  -30.7757 H   0  0  0  0  0  0  0  0  0  0  0  0
   -9.3194   22.0283  -31.8196 H   0  0  0  0  0  0  0  0  0  0  0  0
   -8.9508   19.7569  -32.8245 H   0  0  0  0  0  0  0  0  0  0  0  0
   -6.7823   17.1149  -31.8032 H   0  0  0  0  0  0  0  0  0  0  0  0
   -8.2706   17.4703  -32.6945 H   0  0  0  0  0  0  0  0  0  0  0  0
   -6.5584   15.3269  -33.2536 H   0  0  0  0  0  0  0  0  0  0  0  0
   -7.6835   16.0023  -34.4406 H   0  0  0  0  0  0  0  0  0  0  0  0
   -5.6743   16.4597  -35.6462 H   0  0  0  0  0  0  0  0  0  0  0  0
   -4.3340   16.4930  -33.0320 H   0  0  0  0  0  0  0  0  0  0  0  0
   -4.3940   15.1950  -34.1070 H   0  0  0  0  0  0  0  0  0  0  0  0
   -4.7009   18.7125  -34.2987 H   0  0  0  0  0  0  0  0  0  0  0  0
   -6.0998   18.7635  -35.3815 H   0  0  0  0  0  0  0  0  0  0  0  0
   -4.6351   20.3334  -32.5353 H   0  0  0  0  0  0  0  0  0  0  0  0
  1  2  1  0
  2  3  1  0
  3  4  2  0
  3  5  1  0
  5  6  1  0
  6  7  1  0
  7  8  1  0
  7  9  2  0
  6 10  2  0
 10 11  1  0
 11 12  2  0
 12 13  1  0
 13 14  2  0
 14 15  1  0
 15 16  1  0
 16 17  1  0
 17 18  1  0
 18 19  1  0
 18 20  1  0
 14 21  1  0
 21 22  2  0
 22  5  1  0
 22 11  1  0
 20 15  1  0
  1 23  1  0
  1 24  1  0
  1 25  1  0
  8 26  1  0
 10 27  1  0
 12 28  1  0
 13 29  1  0
 16 30  1  0
 16 31  1  0
 17 32  1  0
 17 33  1  0
 18 34  1  6
 19 35  1  0
 19 36  1  0
 20 37  1  0
 20 38  1  0
 21 39  1  0
M  CHG  1   8  -1
M  END
>  <UniqueID>  (17) 
17

>  <SMILES>  (17) 
COC(=O)n1c(C([NH-])=O)cc2ccc(N3CC[C@H](N)C3)cc21

>  <Energy>  (17) 
79.34865744350995

>  <Genealogy>  (17) 
COC(=O)n1c(C([NH-])=O)cc2ccc(N3CC[C@H](N)C3)cc21 (protonated)
COC(=O)n1c(C([NH-])=O)cc2ccc(N3CC[C@H](N)C3)cc21 (3D coordinates assigned)
COC(=O)n1c(C([NH-])=O)cc2ccc(N3CC[C@H](N)C3)cc21 (nonaromatic ring conformer: 79.34865744350995 kcal/mol)

>  <smiles>  (17) 
COC(=O)n1c(C(N)=O)cc2ccc(N3CC[C@H](N)C3)cc21

>  <score_type>  (17) 
oracle

>  <origin>  (17) 
adg

>  <m_score__min__energy>  (17) 
-9.8699999999999992

>  <m_primary>  (17) 
energy

$$$$
17:0
     RDKit          3D

 37 38  0  0  0  0  0  0  0  0999 V2000
   -8.2060   21.9910  -30.9900 C   0  0  0  0  0  0  0  0  0  0  0  0
   -9.1020   20.9180  -31.2570 O   0  0  0  0  0  0  0  0  0  0  0  0
   -8.7030   19.7490  -31.9110 C   0  0  0  0  0  0  0  0  0  0  0  0
   -9.0780   18.6190  -31.4940 O   0  0  0  0  0  0  0  0  0  0  0  0
   -7.7820   19.8400  -33.0850 C   0  0  0  0  0  0  0  0  0  0  0  0
   -6.4080   19.2660  -32.7320 C   0  0  0  0  0  0  0  0  0  0  0  0
   -5.3040   19.9340  -33.5580 C   0  0  0  0  0  0  0  0  0  0  0  0
   -4.2030   20.4350  -32.6620 C   0  0  0  0  0  0  0  0  0  0  0  0
   -3.0350   19.6570  -32.4690 C   0  0  0  0  0  0  0  0  0  0  0  0
   -1.9910   20.1230  -31.6530 C   0  0  0  0  0  0  0  0  0  0  0  0
   -2.1360   21.3750  -31.0600 C   0  0  0  0  0  0  0  0  0  0  0  0
   -1.2940   22.0490  -30.2070 C   0  0  0  0  0  0  0  0  0  0  0  0
   -1.9410   23.2480  -29.9250 C   0  0  0  0  0  0  0  0  0  0  0  0
   -1.3500   24.3100  -29.0870 C   0  0  0  0  0  0  0  0  0  0  0  0
   -2.1660   25.3170  -28.4850 N   0  0  0  0  0  0  0  0  0  0  0  0
   -0.0990   24.3660  -28.9490 O   0  0  0  0  0  0  0  0  0  0  0  0
   -3.1420   23.3120  -30.5660 N   0  0  0  0  0  0  0  0  0  0  0  0
   -4.1480   24.3300  -30.4290 C   0  0  0  0  0  0  0  0  0  0  0  0
   -5.2970   24.0400  -30.0040 O   0  0  0  0  0  0  0  0  0  0  0  0
   -3.8610   25.6490  -30.7610 O   0  0  0  0  0  0  0  0  0  0  0  0
   -3.2450   22.1550  -31.2610 C   0  0  0  0  0  0  0  0  0  0  0  0
   -4.3100   21.7050  -32.0530 C   0  0  0  0  0  0  0  0  0  0  0  0
   -8.0999   22.1181  -29.9025 H   0  0  0  0  0  0  0  0  0  0  0  0
   -7.2234   21.7664  -31.4305 H   0  0  0  0  0  0  0  0  0  0  0  0
   -8.6022   22.9178  -31.4305 H   0  0  0  0  0  0  0  0  0  0  0  0
   -8.2077   19.2707  -33.9244 H   0  0  0  0  0  0  0  0  0  0  0  0
   -7.6653   20.8972  -33.3654 H   0  0  0  0  0  0  0  0  0  0  0  0
   -6.2108   19.4368  -31.6634 H   0  0  0  0  0  0  0  0  0  0  0  0
   -6.4103   18.1892  -32.9567 H   0  0  0  0  0  0  0  0  0  0  0  0
   -4.8890   19.2018  -34.2663 H   0  0  0  0  0  0  0  0  0  0  0  0
   -5.7348   20.7873  -34.1023 H   0  0  0  0  0  0  0  0  0  0  0  0
   -2.9447   18.6783  -32.9630 H   0  0  0  0  0  0  0  0  0  0  0  0
   -1.0872   19.5182  -31.4875 H   0  0  0  0  0  0  0  0  0  0  0  0
   -0.3176   21.7122  -29.8285 H   0  0  0  0  0  0  0  0  0  0  0  0
   -3.1810   25.3960  -28.7150 H   0  0  0  0  0  0  0  0  0  0  0  0
   -1.7350   26.0400  -27.8670 H   0  0  0  0  0  0  0  0  0  0  0  0
   -5.2069   22.3254  -32.1968 H   0  0  0  0  0  0  0  0  0  0  0  0
  1  2  1  0
  2  3  1  0
  3  4  2  0
  3  5  1  0
  5  6  1  0
  6  7  1  0
  7  8  1  0
  8  9  2  0
  9 10  1  0
 10 11  2  0
 11 12  1  0
 12 13  2  0
 13 14  1  0
 14 15  1  0
 14 16  2  0
 13 17  1  0
 17 18  1  0
 18 19  2  0
 18 20  1  0
 17 21  1  0
 21 22  2  0
 22  8  1  0
 21 11  1  0
  1 23  1  0
  1 24  1  0
  1 25  1  0
  5 26  1  0
  5 27  1  0
  6 28  1  0
  6 29  1  0
  7 30  1  0
  7 31  1  0
  9 32  1  0
 10 33  1  0
 12 34  1  0
 15 35  1  0
 15 36  1  0
 22 37  1  0
M  CHG  1  20  -1
M  END
>  <UniqueID>  (18) 
18

>  <SMILES>  (18) 
COC(=O)CCCc1ccc2cc(C(N)=O)n(C(=O)[O-])c2c1

>  <Energy>  (18) 
68.63558351043852

>  <Genealogy>  (18) 
COC(=O)CCCc1ccc2cc(C(N)=O)n(C(=O)[O-])c2c1 (protonated)
COC(=O)CCCc1ccc2cc(C(N)=O)n(C(=O)[O-])c2c1 (3D coordinates assigned)
COC(=O)CCCc1ccc2cc(C(N)=O)n(C(=O)[O-])c2c1 (optimized conformer: 68.63558351043852 kcal/mol)

>  <smiles>  (18) 
COC(=O)CCCc1ccc2cc(C(N)=O)n(C(=O)O)c2c1

>  <score_type>  (18) 
oracle

>  <origin>  (18) 
adg

>  <m_score__min__energy>  (18) 
-8.5899999999999999

>  <m_primary>  (18) 
energy

$$$$
18:0
     RDKit          3D

 51 53  0  0  0  0  0  0  0  0999 V2000
    0.1660   21.3440  -28.7910 C   0  0  0  0  0  0  0  0  0  0  0  0
   -0.7980   22.4800  -28.8780 C   0  0  0  0  0  0  0  0  0  0  0  0
   -0.4610   23.7460  -28.8170 O   0  0  0  0  0  0  0  0  0  0  0  0
   -1.5770   24.4260  -28.9500 C   0  0  0  0  0  0  0  0  0  0  0  0
   -1.6380   25.6840  -28.9290 O   0  0  0  0  0  0  0  0  0  0  0  0
   -2.6250   23.6490  -29.1000 O   0  0  0  0  0  0  0  0  0  0  0  0
   -2.1680   22.4160  -29.0630 C   0  0  0  0  0  0  0  0  0  0  0  0
   -3.0260   21.1950  -29.2000 C   0  0  0  0  0  0  0  0  0  0  0  0
   -3.7360   21.2390  -30.4360 O   0  0  0  0  0  0  0  0  0  0  0  0
   -4.1080   22.4290  -31.0700 C   0  0  0  0  0  0  0  0  0  0  0  0
   -3.2170   23.1740  -31.5630 O   0  0  0  0  0  0  0  0  0  0  0  0
   -5.4980   22.8150  -31.1510 N   0  0  0  0  0  0  0  0  0  0  0  0
   -6.0300   24.0120  -30.7700 C   0  0  0  0  0  0  0  0  0  0  0  0
   -5.2790   25.1280  -30.1870 C   0  0  0  0  0  0  0  0  0  0  0  0
   -4.0680   25.5590  -30.7990 N   0  0  0  0  0  0  0  0  0  0  0  0
   -5.6920   25.6840  -29.1350 O   0  0  0  0  0  0  0  0  0  0  0  0
   -7.4070   24.0330  -30.9530 C   0  0  0  0  0  0  0  0  0  0  0  0
   -7.7180   22.7970  -31.4670 C   0  0  0  0  0  0  0  0  0  0  0  0
   -8.9530   22.2740  -31.8280 C   0  0  0  0  0  0  0  0  0  0  0  0
   -8.9930   20.9680  -32.3410 C   0  0  0  0  0  0  0  0  0  0  0  0
   -7.8040   20.2150  -32.4930 C   0  0  0  0  0  0  0  0  0  0  0  0
   -7.8550   18.8980  -33.0800 N   0  0  0  0  0  0  0  0  0  0  0  0
   -7.3080   17.9110  -32.1360 C   0  0  0  0  0  0  0  0  0  0  0  0
   -5.8730   17.4910  -32.5120 C   0  0  0  0  0  0  0  0  0  0  0  0
   -5.3880   18.2830  -33.6710 N   0  0  0  0  0  0  0  0  0  0  0  0
   -4.0550   18.8640  -33.4060 C   0  0  0  0  0  0  0  0  0  0  0  0
   -5.3340   17.4570  -34.8870 C   0  0  0  0  0  0  0  0  0  0  0  0
   -6.5640   20.7840  -32.1260 C   0  0  0  0  0  0  0  0  0  0  0  0
   -6.5500   22.0790  -31.5880 C   0  0  0  0  0  0  0  0  0  0  0  0
    0.3637   21.1110  -27.7343 H   0  0  0  0  0  0  0  0  0  0  0  0
   -0.2624   20.4607  -29.2873 H   0  0  0  0  0  0  0  0  0  0  0  0
    1.1072   21.6230  -29.2873 H   0  0  0  0  0  0  0  0  0  0  0  0
   -2.3904   20.2976  -29.1759 H   0  0  0  0  0  0  0  0  0  0  0  0
   -3.7459   21.1622  -28.3689 H   0  0  0  0  0  0  0  0  0  0  0  0
   -3.1460   25.1940  -30.4770 H   0  0  0  0  0  0  0  0  0  0  0  0
   -8.0986   24.8599  -30.7339 H   0  0  0  0  0  0  0  0  0  0  0  0
   -9.8732   22.8661  -31.7152 H   0  0  0  0  0  0  0  0  0  0  0  0
   -9.9582   20.5252  -32.6278 H   0  0  0  0  0  0  0  0  0  0  0  0
   -8.8440   18.6560  -33.3160 H   0  0  0  0  0  0  0  0  0  0  0  0
   -7.2970   18.8950  -33.9660 H   0  0  0  0  0  0  0  0  0  0  0  0
   -7.2974   18.3508  -31.1278 H   0  0  0  0  0  0  0  0  0  0  0  0
   -7.9459   17.0155  -32.1708 H   0  0  0  0  0  0  0  0  0  0  0  0
   -5.2083   17.6624  -31.6524 H   0  0  0  0  0  0  0  0  0  0  0  0
   -5.8731   16.4250  -32.7835 H   0  0  0  0  0  0  0  0  0  0  0  0
   -3.8948   18.9338  -32.3200 H   0  0  0  0  0  0  0  0  0  0  0  0
   -3.2802   18.2219  -33.8504 H   0  0  0  0  0  0  0  0  0  0  0  0
   -3.9979   19.8686  -33.8504 H   0  0  0  0  0  0  0  0  0  0  0  0
   -5.2646   16.3956  -34.6065 H   0  0  0  0  0  0  0  0  0  0  0  0
   -6.2447   17.6203  -35.4819 H   0  0  0  0  0  0  0  0  0  0  0  0
   -4.4523   17.7374  -35.4819 H   0  0  0  0  0  0  0  0  0  0  0  0
   -5.6278   20.2222  -32.2597 H   0  0  0  0  0  0  0  0  0  0  0  0
  1  2  1  0
  2  3  1  0
  3  4  1  0
  4  5  2  0
  4  6  1  0
  6  7  1  0
  7  8  1  0
  8  9  1  0
  9 10  1  0
 10 11  2  0
 10 12  1  0
 12 13  1  0
 13 14  1  0
 14 15  1  0
 14 16  2  0
 13 17  2  0
 17 18  1  0
 18 19  2  0
 19 20  1  0
 20 21  2  0
 21 22  1  0
 22 23  1  0
 23 24  1  0
 24 25  1  0
 25 26  1  0
 25 27  1  0
 21 28  1  0
 28 29  2  0
  7  2  2  0
 29 12  1  0
 29 18  1  0
  1 30  1  0
  1 31  1  0
  1 32  1  0
  8 33  1  0
  8 34  1  0
 15 35  1  0
 17 36  1  0
 19 37  1  0
 20 38  1  0
 22 39  1  0
 22 40  1  0
 23 41  1  0
 23 42  1  0
 24 43  1  0
 24 44  1  0
 26 45  1  0
 26 46  1  0
 26 47  1  0
 27 48  1  0
 27 49  1  0
 27 50  1  0
 28 51  1  0
M  CHG  2  15  -1  22   1
M  END
>  <UniqueID>  (19) 
19

>  <SMILES>  (19) 
Cc1oc(=O)oc1COC(=O)n1c(C([NH-])=O)cc2ccc([NH2+]CCN(C)C)cc21

>  <Energy>  (19) 
129.55301447991025

>  <Genealogy>  (19) 
Cc1oc(=O)oc1COC(=O)n1c(C([NH-])=O)cc2ccc([NH2+]CCN(C)C)cc21 (protonated)
Cc1oc(=O)oc1COC(=O)n1c(C([NH-])=O)cc2ccc([NH2+]CCN(C)C)cc21 (3D coordinates assigned)
Cc1oc(=O)oc1COC(=O)n1c(C([NH-])=O)cc2ccc([NH2+]CCN(C)C)cc21 (optimized conformer: 129.55301447991025 kcal/mol)

>  <smiles>  (19) 
Cc1oc(=O)oc1COC(=O)n1c(C(N)=O)cc2ccc(NCCN(C)C)cc21

>  <score_type>  (19) 
oracle

>  <origin>  (19) 
adg

>  <m_score__min__energy>  (19) 
-10.83

>  <m_primary>  (19) 
energy

$$$$
19:0
     RDKit          3D

 24 25  0  0  0  0  0  0  0  0999 V2000
   -1.4940   25.6550  -29.0660 N   0  0  0  0  0  0  0  0  0  0  0  0
   -0.9860   24.3350  -29.2530 C   0  0  0  0  0  0  0  0  0  0  0  0
    0.1310   24.0310  -28.7610 O   0  0  0  0  0  0  0  0  0  0  0  0
   -1.7530   23.3590  -30.0550 C   0  0  0  0  0  0  0  0  0  0  0  0
   -1.2050   22.1800  -30.5560 C   0  0  0  0  0  0  0  0  0  0  0  0
   -2.2520   21.5170  -31.1530 C   0  0  0  0  0  0  0  0  0  0  0  0
   -2.2750   20.2910  -31.8100 C   0  0  0  0  0  0  0  0  0  0  0  0
   -3.4960   19.8550  -32.3490 C   0  0  0  0  0  0  0  0  0  0  0  0
   -4.6620   20.6560  -32.2450 C   0  0  0  0  0  0  0  0  0  0  0  0
   -5.9760   20.1590  -32.7950 C   0  0  0  0  0  0  0  0  0  0  0  0
   -6.8690   21.2120  -32.8580 F   0  0  0  0  0  0  0  0  0  0  0  0
   -6.5020   19.1690  -31.9830 F   0  0  0  0  0  0  0  0  0  0  0  0
   -5.8070   19.6340  -34.0650 F   0  0  0  0  0  0  0  0  0  0  0  0
   -4.6030   21.8860  -31.5490 C   0  0  0  0  0  0  0  0  0  0  0  0
   -3.3750   22.2870  -31.0070 C   0  0  0  0  0  0  0  0  0  0  0  0
   -3.0860   23.4250  -30.3350 N   0  0  0  0  0  0  0  0  0  0  0  0
   -3.9900   24.5050  -30.0530 C   0  0  0  0  0  0  0  0  0  0  0  0
   -4.8230   24.4090  -29.1130 O   0  0  0  0  0  0  0  0  0  0  0  0
   -3.9740   25.6560  -30.8310 O   0  0  0  0  0  0  0  0  0  0  0  0
   -1.2310   26.4290  -29.7160 H   0  0  0  0  0  0  0  0  0  0  0  0
   -0.1579   21.8497  -30.4885 H   0  0  0  0  0  0  0  0  0  0  0  0
   -1.3641   19.6816  -31.9044 H   0  0  0  0  0  0  0  0  0  0  0  0
   -3.5489   18.8811  -32.8577 H   0  0  0  0  0  0  0  0  0  0  0  0
   -5.4999   22.5127  -31.4360 H   0  0  0  0  0  0  0  0  0  0  0  0
  1  2  1  0
  2  3  2  0
  2  4  1  0
  4  5  2  0
  5  6  1  0
  6  7  2  0
  7  8  1  0
  8  9  2  0
  9 10  1  0
 10 11  1  0
 10 12  1  0
 10 13  1  0
  9 14  1  0
 14 15  2  0
 15 16  1  0
 16 17  1  0
 17 18  2  0
 17 19  1  0
 16  4  1  0
 15  6  1  0
  1 20  1  0
  5 21  1  0
  7 22  1  0
  8 23  1  0
 14 24  1  0
M  CHG  2   1  -1  19  -1
M  END
>  <UniqueID>  (20) 
20

>  <SMILES>  (20) 
[NH-]C(=O)c1cc2ccc(C(F)(F)F)cc2n1C(=O)[O-]

>  <Energy>  (20) 
64.71251678562432

>  <Genealogy>  (20) 
[NH-]C(=O)c1cc2ccc(C(F)(F)F)cc2n1C(=O)[O-] (protonated)
[NH-]C(=O)c1cc2ccc(C(F)(F)F)cc2n1C(=O)[O-] (3D coordinates assigned)
[NH-]C(=O)c1cc2ccc(C(F)(F)F)cc2n1C(=O)[O-] (optimized conformer: 64.71251678562432 kcal/mol)

>  <smiles>  (20) 
NC(=O)c1cc2ccc(C(F)(F)F)cc2n1C(=O)O

>  <score_type>  (20) 
oracle

>  <origin>  (20) 
adg

>  <m_score__min__energy>  (20) 
-9.8100000000000005

>  <m_primary>  (20) 
energy

$$$$
20:0
     RDKit          3D

 47 48  0  0  0  0  0  0  0  0999 V2000
   -2.8520   19.9160  -33.7400 C   0  0  0  0  0  0  0  0  0  0  0  0
   -3.1810   21.3180  -33.2380 C   0  0  0  0  0  0  0  0  0  0  0  0
   -3.3610   21.3160  -31.8240 O   0  0  0  0  0  0  0  0  0  0  0  0
   -3.8520   22.4140  -31.1080 C   0  0  0  0  0  0  0  0  0  0  0  0
   -3.0750   23.1220  -30.4110 O   0  0  0  0  0  0  0  0  0  0  0  0
   -5.2540   22.7230  -31.1510 N   0  0  0  0  0  0  0  0  0  0  0  0
   -5.8510   23.9240  -30.9040 C   0  0  0  0  0  0  0  0  0  0  0  0
   -5.1880   25.1340  -30.3780 C   0  0  0  0  0  0  0  0  0  0  0  0
   -3.9130   25.5430  -30.8650 N   0  0  0  0  0  0  0  0  0  0  0  0
   -5.7330   25.7910  -29.4500 O   0  0  0  0  0  0  0  0  0  0  0  0
   -7.2240   23.8420  -31.1360 C   0  0  0  0  0  0  0  0  0  0  0  0
   -7.4510   22.5420  -31.5280 C   0  0  0  0  0  0  0  0  0  0  0  0
   -8.6380   21.9090  -31.8840 C   0  0  0  0  0  0  0  0  0  0  0  0
   -8.5750   20.5570  -32.2660 C   0  0  0  0  0  0  0  0  0  0  0  0
   -7.3330   19.8760  -32.3030 C   0  0  0  0  0  0  0  0  0  0  0  0
   -7.2740   18.4230  -32.6870 C   0  0  0  0  0  0  0  0  0  0  0  0
   -6.4770   18.2620  -33.9410 C   0  0  0  0  0  0  0  0  0  0  0  0
   -5.8840   19.2580  -34.4370 O   0  0  0  0  0  0  0  0  0  0  0  0
   -6.4390   17.0160  -34.5750 O   0  0  0  0  0  0  0  0  0  0  0  0
   -6.6890   15.7970  -33.8870 C   0  0  0  0  0  0  0  0  0  0  0  0
   -5.4800   15.3420  -33.2880 O   0  0  0  0  0  0  0  0  0  0  0  0
   -4.2830   16.0600  -33.3570 C   0  0  0  0  0  0  0  0  0  0  0  0
   -4.1140   17.1000  -32.6630 O   0  0  0  0  0  0  0  0  0  0  0  0
   -3.2050   15.5980  -34.2880 C   0  0  0  0  0  0  0  0  0  0  0  0
   -2.8770   16.6680  -35.3270 C   0  0  0  0  0  0  0  0  0  0  0  0
   -4.0190   17.4280  -35.6140 O   0  0  0  0  0  0  0  0  0  0  0  0
   -6.1480   20.5530  -31.9350 C   0  0  0  0  0  0  0  0  0  0  0  0
   -6.2460   21.8900  -31.5330 C   0  0  0  0  0  0  0  0  0  0  0  0
   -2.6949   19.2466  -32.8814 H   0  0  0  0  0  0  0  0  0  0  0  0
   -3.6863   19.5399  -34.3503 H   0  0  0  0  0  0  0  0  0  0  0  0
   -1.9375   19.9503  -34.3503 H   0  0  0  0  0  0  0  0  0  0  0  0
   -2.3552   21.9973  -33.4962 H   0  0  0  0  0  0  0  0  0  0  0  0
   -4.1141   21.6547  -33.7134 H   0  0  0  0  0  0  0  0  0  0  0  0
   -3.0370   25.2870  -30.3610 H   0  0  0  0  0  0  0  0  0  0  0  0
   -7.9675   24.6455  -31.0285 H   0  0  0  0  0  0  0  0  0  0  0  0
   -9.5960   22.4494  -31.8671 H   0  0  0  0  0  0  0  0  0  0  0  0
   -9.4977   20.0237  -32.5384 H   0  0  0  0  0  0  0  0  0  0  0  0
   -6.7993   17.8503  -31.8767 H   0  0  0  0  0  0  0  0  0  0  0  0
   -8.2952   18.0505  -32.8557 H   0  0  0  0  0  0  0  0  0  0  0  0
   -7.4464   15.9633  -33.1069 H   0  0  0  0  0  0  0  0  0  0  0  0
   -7.0580   15.0411  -34.5958 H   0  0  0  0  0  0  0  0  0  0  0  0
   -2.2993   15.3740  -33.7053 H   0  0  0  0  0  0  0  0  0  0  0  0
   -3.5601   14.6993  -34.8135 H   0  0  0  0  0  0  0  0  0  0  0  0
   -2.0903   17.3283  -34.9331 H   0  0  0  0  0  0  0  0  0  0  0  0
   -2.5292   16.1793  -36.2491 H   0  0  0  0  0  0  0  0  0  0  0  0
   -4.3940   17.7010  -34.7370 H   0  0  0  0  0  0  0  0  0  0  0  0
   -5.1742   20.0423  -31.9638 H   0  0  0  0  0  0  0  0  0  0  0  0
  1  2  1  0
  2  3  1  0
  3  4  1  0
  4  5  2  0
  4  6  1  0
  6  7  1  0
  7  8  1  0
  8  9  1  0
  8 10  2  0
  7 11  2  0
 11 12  1  0
 12 13  2  0
 13 14  1  0
 14 15  2  0
 15 16  1  0
 16 17  1  0
 17 18  2  0
 17 19  1  0
 19 20  1  0
 20 21  1  0
 21 22  1  0
 22 23  2  0
 22 24  1  0
 24 25  1  0
 25 26  1  0
 15 27  1  0
 27 28  2  0
 28  6  1  0
 28 12  1  0
  1 29  1  0
  1 30  1  0
  1 31  1  0
  2 32  1  0
  2 33  1  0
  9 34  1  0
 11 35  1  0
 13 36  1  0
 14 37  1  0
 16 38  1  0
 16 39  1  0
 20 40  1  0
 20 41  1  0
 24 42  1  0
 24 43  1  0
 25 44  1  0
 25 45  1  0
 26 46  1  0
 27 47  1  0
M  CHG  1   9  -1
M  END
>  <UniqueID>  (21) 
21

>  <SMILES>  (21) 
CCOC(=O)n1c(C([NH-])=O)cc2ccc(CC(=O)OCOC(=O)CCO)cc21

>  <Energy>  (21) 
72.42798919118385

>  <Genealogy>  (21) 
CCOC(=O)n1c(C([NH-])=O)cc2ccc(CC(=O)OCOC(=O)CCO)cc21 (protonated)
CCOC(=O)n1c(C([NH-])=O)cc2ccc(CC(=O)OCOC(=O)CCO)cc21 (3D coordinates assigned)
CCOC(=O)n1c(C([NH-])=O)cc2ccc(CC(=O)OCOC(=O)CCO)cc21 (optimized conformer: 72.42798919118385 kcal/mol)

>  <smiles>  (21) 
CCOC(=O)n1c(C(N)=O)cc2ccc(CC(=O)OCOC(=O)CCO)cc21

>  <score_type>  (21) 
oracle

>  <origin>  (21) 
adg

>  <m_score__min__energy>  (21) 
-9.0399999999999991

>  <m_primary>  (21) 
energy

$$$$
21:0
     RDKit          3D

 43 45  0  0  0  0  0  0  0  0999 V2000
   -3.3060   21.3710  -33.4600 C   0  0  0  0  0  0  0  0  0  0  0  0
   -3.3570   22.0780  -32.2260 O   0  0  0  0  0  0  0  0  0  0  0  0
   -4.2040   21.7060  -31.1780 C   0  0  0  0  0  0  0  0  0  0  0  0
   -3.8000   20.9060  -30.2890 O   0  0  0  0  0  0  0  0  0  0  0  0
   -5.5420   22.2270  -31.1210 N   0  0  0  0  0  0  0  0  0  0  0  0
   -5.9530   23.4100  -30.5840 C   0  0  0  0  0  0  0  0  0  0  0  0
   -5.0640   24.4770  -30.0700 C   0  0  0  0  0  0  0  0  0  0  0  0
   -5.1190   24.8770  -28.7000 N   0  0  0  0  0  0  0  0  0  0  0  0
   -4.2700   25.0670  -30.8500 O   0  0  0  0  0  0  0  0  0  0  0  0
   -7.3400   23.5280  -30.6660 C   0  0  0  0  0  0  0  0  0  0  0  0
   -7.7670   22.3720  -31.2770 C   0  0  0  0  0  0  0  0  0  0  0  0
   -9.0530   21.9560  -31.6020 C   0  0  0  0  0  0  0  0  0  0  0  0
   -9.2080   20.6980  -32.2070 C   0  0  0  0  0  0  0  0  0  0  0  0
   -8.0820   19.8700  -32.4720 C   0  0  0  0  0  0  0  0  0  0  0  0
   -8.1970   18.5640  -33.0840 N   0  0  0  0  0  0  0  0  0  0  0  0
   -7.1530   17.5380  -33.2360 C   0  0  2  0  0  0  0  0  0  0  0  0
   -6.3720   17.2690  -31.9560 C   0  0  0  0  0  0  0  0  0  0  0  0
   -4.9030   17.2760  -32.3720 C   0  0  0  0  0  0  0  0  0  0  0  0
   -4.8490   17.3080  -33.8420 N   0  0  0  0  0  0  0  0  0  0  0  0
   -3.6970   18.0790  -34.3320 C   0  0  0  0  0  0  0  0  0  0  0  0
   -6.1200   17.8780  -34.3020 C   0  0  0  0  0  0  0  0  0  0  0  0
   -6.7930   20.3370  -32.1250 C   0  0  0  0  0  0  0  0  0  0  0  0
   -6.6650   21.6040  -31.5410 C   0  0  0  0  0  0  0  0  0  0  0  0
   -3.2282   20.2919  -33.2614 H   0  0  0  0  0  0  0  0  0  0  0  0
   -4.2210   21.5727  -34.0362 H   0  0  0  0  0  0  0  0  0  0  0  0
   -2.4294   21.7019  -34.0362 H   0  0  0  0  0  0  0  0  0  0  0  0
   -5.7230   24.3750  -28.0120 H   0  0  0  0  0  0  0  0  0  0  0  0
   -4.5150   25.6570  -28.3570 H   0  0  0  0  0  0  0  0  0  0  0  0
   -7.9603   24.3666  -30.3166 H   0  0  0  0  0  0  0  0  0  0  0  0
   -9.9242   22.5938  -31.3914 H   0  0  0  0  0  0  0  0  0  0  0  0
  -10.2145   20.3480  -32.4798 H   0  0  0  0  0  0  0  0  0  0  0  0
   -9.1340   18.3040  -33.4680 H   0  0  0  0  0  0  0  0  0  0  0  0
   -7.7294   16.6476  -33.5275 H   0  0  0  0  0  0  0  0  0  0  0  0
   -6.5660   18.0569  -31.2134 H   0  0  0  0  0  0  0  0  0  0  0  0
   -6.6622   16.3153  -31.4910 H   0  0  0  0  0  0  0  0  0  0  0  0
   -4.4023   18.1647  -31.9603 H   0  0  0  0  0  0  0  0  0  0  0  0
   -4.3923   16.3800  -31.9894 H   0  0  0  0  0  0  0  0  0  0  0  0
   -3.1225   18.4635  -33.4764 H   0  0  0  0  0  0  0  0  0  0  0  0
   -3.0538   17.4288  -34.9431 H   0  0  0  0  0  0  0  0  0  0  0  0
   -4.0529   18.9216  -34.9431 H   0  0  0  0  0  0  0  0  0  0  0  0
   -6.0306   18.9689  -34.4112 H   0  0  0  0  0  0  0  0  0  0  0  0
   -6.4088   17.4707  -35.2822 H   0  0  0  0  0  0  0  0  0  0  0  0
   -5.9048   19.7152  -32.3107 H   0  0  0  0  0  0  0  0  0  0  0  0
  1  2  1  0
  2  3  1  0
  3  4  2  0
  3  5  1  0
  5  6  1  0
  6  7  1  0
  7  8  1  0
  7  9  2  0
  6 10  2  0
 10 11  1  0
 11 12  2  0
 12 13  1  0
 13 14  2  0
 14 15  1  0
 15 16  1  0
 16 17  1  0
 17 18  1  0
 18 19  1  0
 19 20  1  0
 19 21  1  0
 14 22  1  0
 22 23  2  0
 23  5  1  0
 23 11  1  0
 21 16  1  0
  1 24  1  0
  1 25  1  0
  1 26  1  0
  8 27  1  0
  8 28  1  0
 10 29  1  0
 12 30  1  0
 13 31  1  0
 15 32  1  0
 16 33  1  6
 17 34  1  0
 17 35  1  0
 18 36  1  0
 18 37  1  0
 20 38  1  0
 20 39  1  0
 20 40  1  0
 21 41  1  0
 21 42  1  0
 22 43  1  0
M  END
>  <UniqueID>  (22) 
22

>  <SMILES>  (22) 
COC(=O)n1c(C(N)=O)cc2ccc(N[C@@H]3CCN(C)C3)cc21

>  <Energy>  (22) 
86.72443846480077

>  <Genealogy>  (22) 
COC(=O)n1c(C(N)=O)cc2ccc(N[C@@H]3CCN(C)C3)cc21 (3D coordinates assigned)
COC(=O)n1c(C(N)=O)cc2ccc(N[C@@H]3CCN(C)C3)cc21 (nonaromatic ring conformer: 86.72443846480077 kcal/mol)

>  <smiles>  (22) 
COC(=O)n1c(C(N)=O)cc2ccc(N[C@@H]3CCN(C)C3)cc21

>  <score_type>  (22) 
oracle

>  <origin>  (22) 
adg

>  <m_score__min__energy>  (22) 
-8.9700000000000006

>  <m_primary>  (22) 
energy

$$$$
22:0
     RDKit          3D

 45 47  0  0  0  0  0  0  0  0999 V2000
   -3.0640   14.5790  -33.4750 C   0  0  0  0  0  0  0  0  0  0  0  0
   -4.4140   14.7780  -32.9220 N   0  0  0  0  0  0  0  0  0  0  0  0
   -4.5680   14.0500  -31.6490 C   0  0  0  0  0  0  0  0  0  0  0  0
   -4.7900   16.2180  -32.8750 C   0  0  0  0  0  0  0  0  0  0  0  0
   -6.1020   16.5650  -33.6460 C   0  0  0  0  0  0  0  0  0  0  0  0
   -6.0980   17.9900  -34.2260 C   0  0  0  0  0  0  0  0  0  0  0  0
   -5.3630   18.9080  -33.3440 N   0  0  0  0  0  0  0  0  0  0  0  0
   -5.9960   20.0850  -32.8080 C   0  0  0  0  0  0  0  0  0  0  0  0
   -7.4080   20.2250  -32.8590 C   0  0  0  0  0  0  0  0  0  0  0  0
   -8.0360   21.3670  -32.3400 C   0  0  0  0  0  0  0  0  0  0  0  0
   -7.2350   22.3470  -31.7640 C   0  0  0  0  0  0  0  0  0  0  0  0
   -7.5820   23.5580  -31.2090 C   0  0  0  0  0  0  0  0  0  0  0  0
   -6.3810   24.1320  -30.7960 C   0  0  0  0  0  0  0  0  0  0  0  0
   -6.2910   25.4110  -30.0570 C   0  0  0  0  0  0  0  0  0  0  0  0
   -5.3590   26.4200  -30.4530 N   0  0  0  0  0  0  0  0  0  0  0  0
   -7.0640   25.6370  -29.0880 O   0  0  0  0  0  0  0  0  0  0  0  0
   -5.3330   23.3100  -31.0870 N   0  0  0  0  0  0  0  0  0  0  0  0
   -3.9340   23.5620  -30.8750 C   0  0  0  0  0  0  0  0  0  0  0  0
   -3.4980   24.7430  -30.8420 O   0  0  0  0  0  0  0  0  0  0  0  0
   -3.0440   22.5060  -30.7180 O   0  0  0  0  0  0  0  0  0  0  0  0
   -5.8730   22.2210  -31.6800 C   0  0  0  0  0  0  0  0  0  0  0  0
   -5.2190   21.1020  -32.2070 C   0  0  0  0  0  0  0  0  0  0  0  0
   -3.9680   18.6020  -32.9860 C   0  0  0  0  0  0  0  0  0  0  0  0
   -3.6200   17.1350  -33.2900 C   0  0  0  0  0  0  0  0  0  0  0  0
   -2.3425   14.4726  -32.6515 H   0  0  0  0  0  0  0  0  0  0  0  0
   -3.0515   13.6693  -34.0933 H   0  0  0  0  0  0  0  0  0  0  0  0
   -2.7895   15.4464  -34.0933 H   0  0  0  0  0  0  0  0  0  0  0  0
   -4.4210   14.7449  -30.8091 H   0  0  0  0  0  0  0  0  0  0  0  0
   -5.5776   13.6169  -31.5941 H   0  0  0  0  0  0  0  0  0  0  0  0
   -3.8202   13.2451  -31.5941 H   0  0  0  0  0  0  0  0  0  0  0  0
   -5.0163   16.4185  -31.8174 H   0  0  0  0  0  0  0  0  0  0  0  0
   -6.2223   15.8500  -34.4732 H   0  0  0  0  0  0  0  0  0  0  0  0
   -6.9325   16.5040  -32.9273 H   0  0  0  0  0  0  0  0  0  0  0  0
   -5.6162   17.9760  -35.2148 H   0  0  0  0  0  0  0  0  0  0  0  0
   -7.1374   18.3394  -34.3128 H   0  0  0  0  0  0  0  0  0  0  0  0
   -8.0170   19.4282  -33.3110 H   0  0  0  0  0  0  0  0  0  0  0  0
   -9.1288   21.4837  -32.3872 H   0  0  0  0  0  0  0  0  0  0  0  0
   -8.5922   23.9824  -31.1121 H   0  0  0  0  0  0  0  0  0  0  0  0
   -4.6670   26.2490  -31.2160 H   0  0  0  0  0  0  0  0  0  0  0  0
   -5.3330   27.3350  -29.9520 H   0  0  0  0  0  0  0  0  0  0  0  0
   -4.1237   21.0153  -32.1549 H   0  0  0  0  0  0  0  0  0  0  0  0
   -3.2984   19.2559  -33.5639 H   0  0  0  0  0  0  0  0  0  0  0  0
   -3.8423   18.7713  -31.9064 H   0  0  0  0  0  0  0  0  0  0  0  0
   -3.4324   17.0210  -34.3679 H   0  0  0  0  0  0  0  0  0  0  0  0
   -2.7209   16.8522  -32.7229 H   0  0  0  0  0  0  0  0  0  0  0  0
  1  2  1  0
  2  3  1  0
  2  4  1  0
  4  5  1  0
  5  6  1  0
  6  7  1  0
  7  8  1  0
  8  9  2  0
  9 10  1  0
 10 11  2  0
 11 12  1  0
 12 13  2  0
 13 14  1  0
 14 15  1  0
 14 16  2  0
 13 17  1  0
 17 18  1  0
 18 19  2  0
 18 20  1  0
 17 21  1  0
 21 22  2  0
  7 23  1  0
 23 24  1  0
 24  4  1  0
 22  8  1  0
 21 11  1  0
  1 25  1  0
  1 26  1  0
  1 27  1  0
  3 28  1  0
  3 29  1  0
  3 30  1  0
  4 31  1  0
  5 32  1  0
  5 33  1  0
  6 34  1  0
  6 35  1  0
  9 36  1  0
 10 37  1  0
 12 38  1  0
 15 39  1  0
 15 40  1  0
 22 41  1  0
 23 42  1  0
 23 43  1  0
 24 44  1  0
 24 45  1  0
M  CHG  1  20  -1
M  END
>  <UniqueID>  (23) 
23

>  <SMILES>  (23) 
CN(C)C1CCN(c2ccc3cc(C(N)=O)n(C(=O)[O-])c3c2)CC1

>  <Energy>  (23) 
97.4719315589319

>  <Genealogy>  (23) 
CN(C)C1CCN(c2ccc3cc(C(N)=O)n(C(=O)[O-])c3c2)CC1 (protonated)
CN(C)C1CCN(c2ccc3cc(C(N)=O)n(C(=O)[O-])c3c2)CC1 (3D coordinates assigned)
CN(C)C1CCN(c2ccc3cc(C(N)=O)n(C(=O)[O-])c3c2)CC1 (nonaromatic ring conformer: 97.4719315589319 kcal/mol)

>  <smiles>  (23) 
CN(C)C1CCN(c2ccc3cc(C(N)=O)n(C(=O)O)c3c2)CC1

>  <score_type>  (23) 
oracle

>  <origin>  (23) 
adg

>  <m_score__min__energy>  (23) 
-9.5

>  <m_primary>  (23) 
energy

$$$$
23:0
     RDKit          3D

 38 39  0  0  0  0  0  0  0  0999 V2000
   -4.6130   15.8080  -32.6160 C   0  0  0  0  0  0  0  0  0  0  0  0
   -5.9820   16.1850  -32.6860 O   0  0  0  0  0  0  0  0  0  0  0  0
   -6.4340   17.4580  -32.3200 C   0  0  0  0  0  0  0  0  0  0  0  0
   -6.4920   17.7880  -31.1040 O   0  0  0  0  0  0  0  0  0  0  0  0
   -6.8020   18.4640  -33.3770 C   0  0  2  0  0  0  0  0  0  0  0  0
   -5.7330   18.5460  -34.4730 C   0  0  0  0  0  0  0  0  0  0  0  0
   -7.0520   19.8230  -32.7550 C   0  0  0  0  0  0  0  0  0  0  0  0
   -8.3740   20.2650  -32.4830 C   0  0  0  0  0  0  0  0  0  0  0  0
   -8.6060   21.5160  -31.8900 C   0  0  0  0  0  0  0  0  0  0  0  0
   -7.5040   22.3070  -31.5830 C   0  0  0  0  0  0  0  0  0  0  0  0
   -7.4450   23.5400  -30.9750 C   0  0  0  0  0  0  0  0  0  0  0  0
   -6.0900   23.8500  -30.9060 C   0  0  0  0  0  0  0  0  0  0  0  0
   -5.5750   25.1270  -30.3730 C   0  0  0  0  0  0  0  0  0  0  0  0
   -4.2240   25.5310  -30.5960 N   0  0  0  0  0  0  0  0  0  0  0  0
   -6.3570   25.9000  -29.7580 O   0  0  0  0  0  0  0  0  0  0  0  0
   -5.3370   22.8450  -31.4380 N   0  0  0  0  0  0  0  0  0  0  0  0
   -3.9040   22.7410  -31.4380 C   0  0  0  0  0  0  0  0  0  0  0  0
   -3.2470   23.0430  -30.4050 O   0  0  0  0  0  0  0  0  0  0  0  0
   -3.2400   22.3030  -32.5890 O   0  0  0  0  0  0  0  0  0  0  0  0
   -2.6410   21.0170  -32.6870 C   0  0  0  0  0  0  0  0  0  0  0  0
   -6.2200   21.9070  -31.8520 C   0  0  0  0  0  0  0  0  0  0  0  0
   -5.9590   20.6560  -32.4230 C   0  0  0  0  0  0  0  0  0  0  0  0
   -4.3092   15.7243  -31.5621 H   0  0  0  0  0  0  0  0  0  0  0  0
   -4.4738   14.8381  -33.1159 H   0  0  0  0  0  0  0  0  0  0  0  0
   -3.9968   16.5699  -33.1159 H   0  0  0  0  0  0  0  0  0  0  0  0
   -7.7336   18.1260  -33.8543 H   0  0  0  0  0  0  0  0  0  0  0  0
   -4.7382   18.6223  -34.0099 H   0  0  0  0  0  0  0  0  0  0  0  0
   -5.7782   17.6417  -35.0977 H   0  0  0  0  0  0  0  0  0  0  0  0
   -5.9156   19.4328  -35.0977 H   0  0  0  0  0  0  0  0  0  0  0  0
   -9.2265   19.6192  -32.7402 H   0  0  0  0  0  0  0  0  0  0  0  0
   -9.6283   21.8602  -31.6747 H   0  0  0  0  0  0  0  0  0  0  0  0
   -8.2884   24.1501  -30.6195 H   0  0  0  0  0  0  0  0  0  0  0  0
   -3.6000   24.9960  -31.2390 H   0  0  0  0  0  0  0  0  0  0  0  0
   -3.8670   26.4180  -30.1770 H   0  0  0  0  0  0  0  0  0  0  0  0
   -2.4564   20.6206  -31.6776 H   0  0  0  0  0  0  0  0  0  0  0  0
   -3.3158   20.3386  -33.2296 H   0  0  0  0  0  0  0  0  0  0  0  0
   -1.6875   21.0970  -33.2296 H   0  0  0  0  0  0  0  0  0  0  0  0
   -4.9257   20.3280  -32.6094 H   0  0  0  0  0  0  0  0  0  0  0  0
  1  2  1  0
  2  3  1  0
  3  4  2  0
  3  5  1  0
  5  6  1  0
  5  7  1  0
  7  8  2  0
  8  9  1  0
  9 10  2  0
 10 11  1  0
 11 12  2  0
 12 13  1  0
 13 14  1  0
 13 15  2  0
 12 16  1  0
 16 17  1  0
 17 18  2  0
 17 19  1  0
 19 20  1  0
 16 21  1  0
 21 22  2  0
 22  7  1  0
 21 10  1  0
  1 23  1  0
  1 24  1  0
  1 25  1  0
  5 26  1  6
  6 27  1  0
  6 28  1  0
  6 29  1  0
  8 30  1  0
  9 31  1  0
 11 32  1  0
 14 33  1  0
 14 34  1  0
 20 35  1  0
 20 36  1  0
 20 37  1  0
 22 38  1  0
M  END
>  <UniqueID>  (24) 
24

>  <SMILES>  (24) 
COC(=O)[C@H](C)c1ccc2cc(C(N)=O)n(C(=O)OC)c2c1

>  <Energy>  (24) 
71.09439631289546

>  <Genealogy>  (24) 
COC(=O)[C@H](C)c1ccc2cc(C(N)=O)n(C(=O)OC)c2c1 (chirality)
COC(=O)[C@H](C)c1ccc2cc(C(N)=O)n(C(=O)OC)c2c1 (3D coordinates assigned)
COC(=O)[C@H](C)c1ccc2cc(C(N)=O)n(C(=O)OC)c2c1 (optimized conformer: 71.09439631289546 kcal/mol)

>  <smiles>  (24) 
COC(=O)C(C)c1ccc2cc(C(N)=O)n(C(=O)OC)c2c1

>  <score_type>  (24) 
oracle

>  <origin>  (24) 
adg

>  <m_score__min__energy>  (24) 
-8.4199999999999999

>  <m_primary>  (24) 
energy

$$$$
24:0
     RDKit          3D

 45 46  0  0  0  0  0  0  0  0999 V2000
   -9.1010   21.8860  -31.6650 C   0  0  0  0  0  0  0  0  0  0  0  0
   -8.9070   23.3000  -32.1990 C   0  0  0  0  0  0  0  0  0  0  0  0
   -7.5560   23.7230  -32.0260 O   0  0  0  0  0  0  0  0  0  0  0  0
   -6.7570   23.3300  -30.9460 C   0  0  0  0  0  0  0  0  0  0  0  0
   -7.1900   23.4310  -29.7650 O   0  0  0  0  0  0  0  0  0  0  0  0
   -5.4420   22.8040  -31.1860 N   0  0  0  0  0  0  0  0  0  0  0  0
   -4.2610   23.2720  -30.6940 C   0  0  0  0  0  0  0  0  0  0  0  0
   -4.1160   24.3340  -29.6740 C   0  0  0  0  0  0  0  0  0  0  0  0
   -5.1120   24.5210  -28.6670 N   0  0  0  0  0  0  0  0  0  0  0  0
   -3.1220   25.1080  -29.7040 O   0  0  0  0  0  0  0  0  0  0  0  0
   -3.1920   22.5450  -31.2160 C   0  0  0  0  0  0  0  0  0  0  0  0
   -3.7620   21.6090  -32.0490 C   0  0  0  0  0  0  0  0  0  0  0  0
   -3.1620   20.6310  -32.8360 C   0  0  0  0  0  0  0  0  0  0  0  0
   -3.9930   19.8180  -33.6240 C   0  0  0  0  0  0  0  0  0  0  0  0
   -5.3990   19.9960  -33.6210 C   0  0  0  0  0  0  0  0  0  0  0  0
   -6.2130   19.1490  -34.4550 N   0  0  0  0  0  0  0  0  0  0  0  0
   -6.0860   17.6890  -34.4800 C   0  0  0  0  0  0  0  0  0  0  0  0
   -6.8460   17.0550  -33.2970 C   0  0  0  0  0  0  0  0  0  0  0  0
   -7.0600   17.9660  -32.1490 N   0  0  0  0  0  0  0  0  0  0  0  0
   -6.4440   17.4770  -30.9060 C   0  0  0  0  0  0  0  0  0  0  0  0
   -8.4750   18.3090  -31.9440 C   0  0  0  0  0  0  0  0  0  0  0  0
   -5.9710   21.0030  -32.8050 C   0  0  0  0  0  0  0  0  0  0  0  0
   -5.1200   21.7850  -32.0160 C   0  0  0  0  0  0  0  0  0  0  0  0
   -9.0983   21.9058  -30.5652 H   0  0  0  0  0  0  0  0  0  0  0  0
  -10.0622   21.4878  -32.0222 H   0  0  0  0  0  0  0  0  0  0  0  0
   -8.2826   21.2437  -32.0222 H   0  0  0  0  0  0  0  0  0  0  0  0
   -9.1570   23.3190  -33.2700 H   0  0  0  0  0  0  0  0  0  0  0  0
   -9.5655   23.9822  -31.6413 H   0  0  0  0  0  0  0  0  0  0  0  0
   -5.9210   23.8680  -28.5750 H   0  0  0  0  0  0  0  0  0  0  0  0
   -5.0190   25.2990  -27.9770 H   0  0  0  0  0  0  0  0  0  0  0  0
   -2.1217   22.6887  -31.0069 H   0  0  0  0  0  0  0  0  0  0  0  0
   -2.0700   20.4986  -32.8409 H   0  0  0  0  0  0  0  0  0  0  0  0
   -3.5467   19.0327  -34.2518 H   0  0  0  0  0  0  0  0  0  0  0  0
   -6.9260   19.6040  -35.0700 H   0  0  0  0  0  0  0  0  0  0  0  0
   -6.5027   17.3065  -35.4234 H   0  0  0  0  0  0  0  0  0  0  0  0
   -5.0212   17.4253  -34.3982 H   0  0  0  0  0  0  0  0  0  0  0  0
   -7.8295   16.7210  -33.6592 H   0  0  0  0  0  0  0  0  0  0  0  0
   -6.2210   16.2278  -32.9293 H   0  0  0  0  0  0  0  0  0  0  0  0
   -6.9769   17.9000  -30.0416 H   0  0  0  0  0  0  0  0  0  0  0  0
   -6.5057   16.3792  -30.8734 H   0  0  0  0  0  0  0  0  0  0  0  0
   -5.3888   17.7861  -30.8734 H   0  0  0  0  0  0  0  0  0  0  0  0
   -8.6873   18.3605  -30.8659 H   0  0  0  0  0  0  0  0  0  0  0  0
   -8.6865   19.2844  -32.4064 H   0  0  0  0  0  0  0  0  0  0  0  0
   -9.1097   17.5387  -32.4064 H   0  0  0  0  0  0  0  0  0  0  0  0
   -7.0587   21.1664  -32.7919 H   0  0  0  0  0  0  0  0  0  0  0  0
  1  2  1  0
  2  3  1  0
  3  4  1  0
  4  5  2  0
  4  6  1  0
  6  7  1  0
  7  8  1  0
  8  9  1  0
  8 10  2  0
  7 11  2  0
 11 12  1  0
 12 13  2  0
 13 14  1  0
 14 15  2  0
 15 16  1  0
 16 17  1  0
 17 18  1  0
 18 19  1  0
 19 20  1  0
 19 21  1  0
 15 22  1  0
 22 23  2  0
 23  6  1  0
 23 12  1  0
  1 24  1  0
  1 25  1  0
  1 26  1  0
  2 27  1  0
  2 28  1  0
  9 29  1  0
  9 30  1  0
 11 31  1  0
 13 32  1  0
 14 33  1  0
 16 34  1  0
 17 35  1  0
 17 36  1  0
 18 37  1  0
 18 38  1  0
 20 39  1  0
 20 40  1  0
 20 41  1  0
 21 42  1  0
 21 43  1  0
 21 44  1  0
 22 45  1  0
M  END
>  <UniqueID>  (25) 
25

>  <SMILES>  (25) 
CCOC(=O)n1c(C(N)=O)cc2ccc(NCCN(C)C)cc21

>  <Energy>  (25) 
79.84932382481895

>  <Genealogy>  (25) 
CCOC(=O)n1c(C(N)=O)cc2ccc(NCCN(C)C)cc21 (3D coordinates assigned)
CCOC(=O)n1c(C(N)=O)cc2ccc(NCCN(C)C)cc21 (optimized conformer: 79.84932382481895 kcal/mol)

>  <smiles>  (25) 
CCOC(=O)n1c(C(N)=O)cc2ccc(NCCN(C)C)cc21

>  <score_type>  (25) 
oracle

>  <origin>  (25) 
adg

>  <m_score__min__energy>  (25) 
-8.1699999999999999

>  <m_primary>  (25) 
energy

$$$$
25:0
     RDKit          3D

 59 63  0  0  0  0  0  0  0  0999 V2000
   -1.9240   22.1510  -28.3060 C   0  0  0  0  0  0  0  0  0  0  0  0
   -1.9890   23.1830  -29.4340 C   0  0  1  0  0  0  0  0  0  0  0  0
   -3.3830   23.4380  -29.8090 N   0  0  0  0  0  0  0  0  0  0  0  0
   -4.1400   22.5230  -30.6140 C   0  0  0  0  0  0  0  0  0  0  0  0
   -3.5840   21.5100  -31.1180 O   0  0  0  0  0  0  0  0  0  0  0  0
   -5.5270   22.7810  -30.8880 N   0  0  0  0  0  0  0  0  0  0  0  0
   -6.1750   23.9790  -30.8680 C   0  0  0  0  0  0  0  0  0  0  0  0
   -5.6040   25.2650  -30.4200 C   0  0  0  0  0  0  0  0  0  0  0  0
   -4.2970   25.6470  -30.8410 N   0  0  0  0  0  0  0  0  0  0  0  0
   -6.2710   26.0470  -29.6920 O   0  0  0  0  0  0  0  0  0  0  0  0
   -7.5060   23.8180  -31.2500 C   0  0  0  0  0  0  0  0  0  0  0  0
   -7.6540   22.4720  -31.4970 C   0  0  0  0  0  0  0  0  0  0  0  0
   -8.7730   21.7530  -31.9100 C   0  0  0  0  0  0  0  0  0  0  0  0
   -8.6320   20.3680  -32.0990 C   0  0  0  0  0  0  0  0  0  0  0  0
   -7.3860   19.7300  -31.8740 C   0  0  0  0  0  0  0  0  0  0  0  0
   -7.2470   18.2380  -32.0790 C   0  0  0  0  0  0  0  0  0  0  0  0
   -5.9900   17.8160  -32.8920 C   0  0  2  0  0  0  0  0  0  0  0  0
   -5.7490   16.2820  -32.8090 C   0  0  0  0  0  0  0  0  0  0  0  0
   -4.4670   15.9010  -33.5820 C   0  0  1  0  0  0  0  0  0  0  0  0
   -4.6160   16.3140  -35.0630 C   0  0  0  0  0  0  0  0  0  0  0  0
   -4.8370   17.8400  -35.1570 C   0  0  2  0  0  0  0  0  0  0  0  0
   -3.6250   18.5740  -34.5440 C   0  0  0  0  0  0  0  0  0  0  0  0
   -3.4620   18.1620  -33.0590 C   0  0  2  0  0  0  0  0  0  0  0  0
   -2.3750   18.8400  -32.4780 O   0  0  0  0  0  0  0  0  0  0  0  0
   -3.2550   16.6290  -32.9640 C   0  0  0  0  0  0  0  0  0  0  0  0
   -4.7510   18.5410  -32.2900 C   0  0  0  0  0  0  0  0  0  0  0  0
   -6.1190   18.2240  -34.3880 C   0  0  0  0  0  0  0  0  0  0  0  0
   -6.2720   20.4960  -31.4660 C   0  0  0  0  0  0  0  0  0  0  0  0
   -6.4450   21.8690  -31.2690 C   0  0  0  0  0  0  0  0  0  0  0  0
   -1.3170   24.4630  -29.0150 C   0  0  0  0  0  0  0  0  0  0  0  0
   -0.0960   24.4730  -28.7070 O   0  0  0  0  0  0  0  0  0  0  0  0
   -2.0460   25.6450  -28.9660 O   0  0  0  0  0  0  0  0  0  0  0  0
   -1.9565   22.6667  -27.3349 H   0  0  0  0  0  0  0  0  0  0  0  0
   -2.7808   21.4658  -28.3861 H   0  0  0  0  0  0  0  0  0  0  0  0
   -0.9880   21.5787  -28.3861 H   0  0  0  0  0  0  0  0  0  0  0  0
   -1.4571   22.7801  -30.3086 H   0  0  0  0  0  0  0  0  0  0  0  0
   -3.8530   24.3170  -29.4930 H   0  0  0  0  0  0  0  0  0  0  0  0
   -3.4980   25.6600  -30.1700 H   0  0  0  0  0  0  0  0  0  0  0  0
   -8.2745   24.6003  -31.3358 H   0  0  0  0  0  0  0  0  0  0  0  0
   -9.7370   22.2538  -32.0828 H   0  0  0  0  0  0  0  0  0  0  0  0
   -9.4974   19.7723  -32.4250 H   0  0  0  0  0  0  0  0  0  0  0  0
   -7.1945   17.7582  -31.0905 H   0  0  0  0  0  0  0  0  0  0  0  0
   -8.1217   17.9185  -32.6646 H   0  0  0  0  0  0  0  0  0  0  0  0
   -6.6086   15.7548  -33.2486 H   0  0  0  0  0  0  0  0  0  0  0  0
   -5.6312   15.9937  -31.7540 H   0  0  0  0  0  0  0  0  0  0  0  0
   -4.3116   14.8139  -33.5182 H   0  0  0  0  0  0  0  0  0  0  0  0
   -5.4780   15.7917  -35.5035 H   0  0  0  0  0  0  0  0  0  0  0  0
   -3.7014   16.0434  -35.6110 H   0  0  0  0  0  0  0  0  0  0  0  0
   -4.9446   18.1310  -36.2123 H   0  0  0  0  0  0  0  0  0  0  0  0
   -3.7854   19.6604  -34.6067 H   0  0  0  0  0  0  0  0  0  0  0  0
   -2.7153   18.3025  -35.0996 H   0  0  0  0  0  0  0  0  0  0  0  0
   -2.7260   19.6680  -32.0570 H   0  0  0  0  0  0  0  0  0  0  0  0
   -3.1536   16.3385  -31.9079 H   0  0  0  0  0  0  0  0  0  0  0  0
   -2.3437   16.3499  -33.5132 H   0  0  0  0  0  0  0  0  0  0  0  0
   -4.6402   18.2492  -31.2352 H   0  0  0  0  0  0  0  0  0  0  0  0
   -4.9040   19.6271  -32.3739 H   0  0  0  0  0  0  0  0  0  0  0  0
   -6.9797   17.7039  -34.8337 H   0  0  0  0  0  0  0  0  0  0  0  0
   -6.2640   19.3125  -34.4522 H   0  0  0  0  0  0  0  0  0  0  0  0
   -5.2915   20.0235  -31.3070 H   0  0  0  0  0  0  0  0  0  0  0  0
  1  2  1  0
  2  3  1  0
  3  4  1  0
  4  5  2  0
  4  6  1  0
  6  7  1  0
  7  8  1  0
  8  9  1  0
  8 10  2  0
  7 11  2  0
 11 12  1  0
 12 13  2  0
 13 14  1  0
 14 15  2  0
 15 16  1  0
 17 16  1  1
 17 18  1  0
 18 19  1  0
 19 20  1  0
 20 21  1  0
 21 22  1  0
 22 23  1  0
 23 24  1  1
 23 25  1  0
 23 26  1  0
 21 27  1  0
 15 28  1  0
 28 29  2  0
  2 30  1  0
 30 31  2  0
 30 32  1  0
 29  6  1  0
 29 12  1  0
 26 17  1  0
 27 17  1  0
 25 19  1  0
  1 33  1  0
  1 34  1  0
  1 35  1  0
  2 36  1  6
  3 37  1  0
  9 38  1  0
 11 39  1  0
 13 40  1  0
 14 41  1  0
 16 42  1  0
 16 43  1  0
 18 44  1  0
 18 45  1  0
 19 46  1  6
 20 47  1  0
 20 48  1  0
 21 49  1  6
 22 50  1  0
 22 51  1  0
 24 52  1  0
 25 53  1  0
 25 54  1  0
 26 55  1  0
 26 56  1  0
 27 57  1  0
 27 58  1  0
 28 59  1  0
M  CHG  2   9  -1  32  -1
M  END
>  <UniqueID>  (26) 
26

>  <SMILES>  (26) 
C[C@@H](NC(=O)n1c(C([NH-])=O)cc2ccc(CC34CC5C[C@@H](CC(O)(C5)C3)C4)cc21)C(=O)[O-]

>  <Energy>  (26) 
95.75199315453881

>  <Genealogy>  (26) 
CC(NC(=O)n1c(C([NH-])=O)cc2ccc(CC34CC5CC(CC(O)(C5)C3)C4)cc21)C(=O)[O-] (protonated)
C[C@@H](NC(=O)n1c(C([NH-])=O)cc2ccc(CC34CC5C[C@@H](CC(O)(C5)C3)C4)cc21)C(=O)[O-] (chirality)
C[C@@H](NC(=O)n1c(C([NH-])=O)cc2ccc(CC34CC5C[C@@H](CC(O)(C5)C3)C4)cc21)C(=O)[O-] (3D coordinates assigned)
C[C@@H](NC(=O)n1c(C([NH-])=O)cc2ccc(CC34CC5C[C@@H](CC(O)(C5)C3)C4)cc21)C(=O)[O-] (nonaromatic ring conformer: 95.75199315453881 kcal/mol)

>  <smiles>  (26) 
CC(NC(=O)n1c(C(N)=O)cc2ccc(CC34CC5CC(CC(O)(C5)C3)C4)cc21)C(=O)O

>  <score_type>  (26) 
oracle

>  <origin>  (26) 
adg

>  <m_score__min__energy>  (26) 
-14.34

>  <m_primary>  (26) 
energy

$$$$
26:0
     RDKit          3D

 25 26  0  0  0  0  0  0  0  0999 V2000
   -4.1350   19.2450  -33.5820 C   0  0  0  0  0  0  0  0  0  0  0  0
   -5.0300   20.2760  -32.9610 C   0  0  0  0  0  0  0  0  0  0  0  0
   -6.4330   20.1900  -33.1280 C   0  0  0  0  0  0  0  0  0  0  0  0
   -7.2790   21.1750  -32.5930 C   0  0  0  0  0  0  0  0  0  0  0  0
   -6.6930   22.2340  -31.9050 C   0  0  0  0  0  0  0  0  0  0  0  0
   -7.2740   23.3310  -31.3140 C   0  0  0  0  0  0  0  0  0  0  0  0
   -6.2150   24.0720  -30.7890 C   0  0  0  0  0  0  0  0  0  0  0  0
   -6.3900   25.2980  -29.9790 C   0  0  0  0  0  0  0  0  0  0  0  0
   -5.6220   26.4710  -30.2560 N   0  0  0  0  0  0  0  0  0  0  0  0
   -7.2470   25.3290  -29.0560 O   0  0  0  0  0  0  0  0  0  0  0  0
   -5.0270   23.4570  -31.0470 N   0  0  0  0  0  0  0  0  0  0  0  0
   -3.7080   23.9370  -30.7350 C   0  0  0  0  0  0  0  0  0  0  0  0
   -2.7290   23.1440  -30.7140 O   0  0  0  0  0  0  0  0  0  0  0  0
   -3.4960   25.2840  -30.4690 O   0  0  0  0  0  0  0  0  0  0  0  0
   -5.3370   22.3320  -31.7310 C   0  0  0  0  0  0  0  0  0  0  0  0
   -4.4700   21.3730  -32.2700 C   0  0  0  0  0  0  0  0  0  0  0  0
   -3.6347   18.6687  -32.7898 H   0  0  0  0  0  0  0  0  0  0  0  0
   -4.7352   18.5663  -34.2058 H   0  0  0  0  0  0  0  0  0  0  0  0
   -3.3787   19.7439  -34.2058 H   0  0  0  0  0  0  0  0  0  0  0  0
   -6.8647   19.3435  -33.6821 H   0  0  0  0  0  0  0  0  0  0  0  0
   -8.3705   21.1118  -32.7138 H   0  0  0  0  0  0  0  0  0  0  0  0
   -8.3460   23.5730  -31.2654 H   0  0  0  0  0  0  0  0  0  0  0  0
   -4.8680   26.4680  -30.9770 H   0  0  0  0  0  0  0  0  0  0  0  0
   -5.7830   27.3430  -29.7040 H   0  0  0  0  0  0  0  0  0  0  0  0
   -3.3802   21.4718  -32.1579 H   0  0  0  0  0  0  0  0  0  0  0  0
  1  2  1  0
  2  3  2  0
  3  4  1  0
  4  5  2  0
  5  6  1  0
  6  7  2  0
  7  8  1  0
  8  9  1  0
  8 10  2  0
  7 11  1  0
 11 12  1  0
 12 13  2  0
 12 14  1  0
 11 15  1  0
 15 16  2  0
 16  2  1  0
 15  5  1  0
  1 17  1  0
  1 18  1  0
  1 19  1  0
  3 20  1  0
  4 21  1  0
  6 22  1  0
  9 23  1  0
  9 24  1  0
 16 25  1  0
M  CHG  1  14  -1
M  END
>  <UniqueID>  (27) 
27

>  <SMILES>  (27) 
Cc1ccc2cc(C(N)=O)n(C(=O)[O-])c2c1

>  <Energy>  (27) 
63.955909229426176

>  <Genealogy>  (27) 
Cc1ccc2cc(C(N)=O)n(C(=O)[O-])c2c1 (protonated)
Cc1ccc2cc(C(N)=O)n(C(=O)[O-])c2c1 (3D coordinates assigned)
Cc1ccc2cc(C(N)=O)n(C(=O)[O-])c2c1 (optimized conformer: 63.955909229426176 kcal/mol)

>  <smiles>  (27) 
Cc1ccc2cc(C(N)=O)n(C(=O)O)c2c1

>  <score_type>  (27) 
oracle

>  <origin>  (27) 
adg

>  <m_score__min__energy>  (27) 
-8.0800000000000001

>  <m_primary>  (27) 
energy

$$$$
27:0
     RDKit          3D

 59 62  0  0  0  0  0  0  0  0999 V2000
   -6.7290   16.2760  -33.9980 C   0  0  0  0  0  0  0  0  0  0  0  0
   -6.5760   17.6090  -33.5210 O   0  0  0  0  0  0  0  0  0  0  0  0
   -6.8410   17.9700  -32.1950 C   0  0  0  0  0  0  0  0  0  0  0  0
   -5.9760   17.7910  -31.2960 O   0  0  0  0  0  0  0  0  0  0  0  0
   -8.1710   18.5530  -31.8350 C   0  0  0  0  0  0  0  0  0  0  0  0
   -8.0590   20.0480  -31.7030 C   0  0  0  0  0  0  0  0  0  0  0  0
   -9.2160   20.8620  -31.8030 C   0  0  0  0  0  0  0  0  0  0  0  0
   -9.1300   22.2550  -31.6280 C   0  0  0  0  0  0  0  0  0  0  0  0
   -7.8810   22.8010  -31.3430 C   0  0  0  0  0  0  0  0  0  0  0  0
   -7.5170   24.1020  -31.0740 C   0  0  0  0  0  0  0  0  0  0  0  0
   -6.1500   24.0540  -30.8080 C   0  0  0  0  0  0  0  0  0  0  0  0
   -5.3290   25.2410  -30.4990 C   0  0  0  0  0  0  0  0  0  0  0  0
   -3.9300   25.2250  -30.7700 N   0  0  0  0  0  0  0  0  0  0  0  0
   -5.8490   26.2650  -29.9840 O   0  0  0  0  0  0  0  0  0  0  0  0
   -5.6910   22.7760  -30.9040 N   0  0  0  0  0  0  0  0  0  0  0  0
   -4.3800   22.2790  -30.5920 C   0  0  0  0  0  0  0  0  0  0  0  0
   -4.1220   21.9700  -29.3980 O   0  0  0  0  0  0  0  0  0  0  0  0
   -3.3460   22.0590  -31.6860 C   0  0  1  0  0  0  0  0  0  0  0  0
   -2.2820   20.9880  -31.2960 C   0  0  0  0  0  0  0  0  0  0  0  0
   -2.2240   19.7930  -32.2600 C   0  0  0  0  0  0  0  0  0  0  0  0
   -3.6520   19.2380  -32.4970 C   0  0  2  0  0  0  0  0  0  0  0  0
   -3.7170   17.9630  -33.2710 N   0  0  0  0  0  0  0  0  0  0  0  0
   -3.8880   18.0930  -34.7290 C   0  0  0  0  0  0  0  0  0  0  0  0
   -3.4660   16.7550  -35.3170 C   0  0  0  0  0  0  0  0  0  0  0  0
   -2.4900   16.1640  -34.3070 C   0  0  0  0  0  0  0  0  0  0  0  0
   -2.5370   17.0970  -33.0980 C   0  0  0  0  0  0  0  0  0  0  0  0
   -4.5720   20.3220  -33.1270 C   0  0  0  0  0  0  0  0  0  0  0  0
   -4.0050   21.7500  -33.0510 C   0  0  0  0  0  0  0  0  0  0  0  0
   -6.7560   22.0250  -31.2410 C   0  0  0  0  0  0  0  0  0  0  0  0
   -6.8090   20.6380  -31.4090 C   0  0  0  0  0  0  0  0  0  0  0  0
   -6.8080   15.5876  -33.1436 H   0  0  0  0  0  0  0  0  0  0  0  0
   -7.6409   16.2077  -34.6094 H   0  0  0  0  0  0  0  0  0  0  0  0
   -5.8563   16.0029  -34.6094 H   0  0  0  0  0  0  0  0  0  0  0  0
   -8.9001   18.3104  -32.6221 H   0  0  0  0  0  0  0  0  0  0  0  0
   -8.5030   18.1297  -30.8755 H   0  0  0  0  0  0  0  0  0  0  0  0
  -10.1902   20.3994  -32.0195 H   0  0  0  0  0  0  0  0  0  0  0  0
  -10.0217   22.8934  -31.7136 H   0  0  0  0  0  0  0  0  0  0  0  0
   -8.1668   24.9895  -31.0700 H   0  0  0  0  0  0  0  0  0  0  0  0
   -3.4570   26.0450  -31.2170 H   0  0  0  0  0  0  0  0  0  0  0  0
   -2.8037   23.0096  -31.7973 H   0  0  0  0  0  0  0  0  0  0  0  0
   -2.5212   20.6114  -30.2905 H   0  0  0  0  0  0  0  0  0  0  0  0
   -1.2999   21.4816  -31.3376 H   0  0  0  0  0  0  0  0  0  0  0  0
   -1.5932   19.0037  -31.8252 H   0  0  0  0  0  0  0  0  0  0  0  0
   -1.7987   20.1216  -33.2198 H   0  0  0  0  0  0  0  0  0  0  0  0
   -4.0237   18.9767  -31.4952 H   0  0  0  0  0  0  0  0  0  0  0  0
   -4.5350   17.4120  -32.9070 H   0  0  0  0  0  0  0  0  0  0  0  0
   -4.9393   18.3045  -34.9740 H   0  0  0  0  0  0  0  0  0  0  0  0
   -3.2878   18.9208  -35.1347 H   0  0  0  0  0  0  0  0  0  0  0  0
   -4.3381   16.0962  -35.4415 H   0  0  0  0  0  0  0  0  0  0  0  0
   -3.0096   16.8688  -36.3113 H   0  0  0  0  0  0  0  0  0  0  0  0
   -2.8011   15.1484  -34.0209 H   0  0  0  0  0  0  0  0  0  0  0  0
   -1.4739   16.0839  -34.7208 H   0  0  0  0  0  0  0  0  0  0  0  0
   -2.6302   16.5113  -32.1716 H   0  0  0  0  0  0  0  0  0  0  0  0
   -1.6167   17.6953  -33.0264 H   0  0  0  0  0  0  0  0  0  0  0  0
   -5.5369   20.3051  -32.5991 H   0  0  0  0  0  0  0  0  0  0  0  0
   -4.6668   20.0753  -34.1948 H   0  0  0  0  0  0  0  0  0  0  0  0
   -4.8258   22.4637  -33.2151 H   0  0  0  0  0  0  0  0  0  0  0  0
   -3.2270   21.8400  -33.8234 H   0  0  0  0  0  0  0  0  0  0  0  0
   -5.9021   20.0226  -31.3149 H   0  0  0  0  0  0  0  0  0  0  0  0
  1  2  1  0
  2  3  1  0
  3  4  2  0
  3  5  1  0
  5  6  1  0
  6  7  2  0
  7  8  1  0
  8  9  2  0
  9 10  1  0
 10 11  2  0
 11 12  1  0
 12 13  1  0
 12 14  2  0
 11 15  1  0
 15 16  1  0
 16 17  2  0
 16 18  1  0
 18 19  1  0
 19 20  1  0
 20 21  1  0
 21 22  1  0
 22 23  1  0
 23 24  1  0
 24 25  1  0
 25 26  1  0
 21 27  1  0
 27 28  1  0
 15 29  1  0
 29 30  2  0
 30  6  1  0
 29  9  1  0
 28 18  1  0
 26 22  1  0
  1 31  1  0
  1 32  1  0
  1 33  1  0
  5 34  1  0
  5 35  1  0
  7 36  1  0
  8 37  1  0
 10 38  1  0
 13 39  1  0
 18 40  1  6
 19 41  1  0
 19 42  1  0
 20 43  1  0
 20 44  1  0
 21 45  1  1
 22 46  1  0
 23 47  1  0
 23 48  1  0
 24 49  1  0
 24 50  1  0
 25 51  1  0
 25 52  1  0
 26 53  1  0
 26 54  1  0
 27 55  1  0
 27 56  1  0
 28 57  1  0
 28 58  1  0
 30 59  1  0
M  CHG  2  13  -1  22   1
M  END
>  <UniqueID>  (28) 
28

>  <SMILES>  (28) 
COC(=O)Cc1ccc2cc(C([NH-])=O)n(C(=O)C3CCC([NH+]4CCCC4)CC3)c2c1

>  <Energy>  (28) 
112.09962507007674

>  <Genealogy>  (28) 
COC(=O)Cc1ccc2cc(C([NH-])=O)n(C(=O)C3CCC([NH+]4CCCC4)CC3)c2c1 (protonated)
COC(=O)Cc1ccc2cc(C([NH-])=O)n(C(=O)C3CCC([NH+]4CCCC4)CC3)c2c1 (3D coordinates assigned)
COC(=O)Cc1ccc2cc(C([NH-])=O)n(C(=O)C3CCC([NH+]4CCCC4)CC3)c2c1 (nonaromatic ring conformer: 112.09962507007674 kcal/mol)

>  <smiles>  (28) 
COC(=O)Cc1ccc2cc(C(N)=O)n(C(=O)C3CCC(N4CCCC4)CC3)c2c1

>  <score_type>  (28) 
oracle

>  <origin>  (28) 
adg

>  <m_score__min__energy>  (28) 
-11.34

>  <m_primary>  (28) 
energy

$$$$
28:0
     RDKit          3D

 47 49  0  0  0  0  0  0  0  0999 V2000
   -7.2090   23.2710  -30.7330 C   0  0  0  0  0  0  0  0  0  0  0  0
   -6.4650   24.1160  -31.4510 C   0  0  0  0  0  0  0  0  0  0  0  0
   -5.8710   25.3480  -30.8380 C   0  0  0  0  0  0  0  0  0  0  0  0
   -4.4620   25.1860  -30.7110 O   0  0  0  0  0  0  0  0  0  0  0  0
   -3.8790   24.4130  -29.7020 C   0  0  0  0  0  0  0  0  0  0  0  0
   -4.2420   24.5530  -28.5030 O   0  0  0  0  0  0  0  0  0  0  0  0
   -2.8460   23.4710  -30.0330 N   0  0  0  0  0  0  0  0  0  0  0  0
   -1.5260   23.5300  -29.6940 C   0  0  0  0  0  0  0  0  0  0  0  0
   -0.8490   24.6710  -29.0460 C   0  0  0  0  0  0  0  0  0  0  0  0
   -1.5120   25.9300  -28.9520 N   0  0  0  0  0  0  0  0  0  0  0  0
    0.2950   24.5370  -28.5390 O   0  0  0  0  0  0  0  0  0  0  0  0
   -0.8600   22.3840  -30.1220 C   0  0  0  0  0  0  0  0  0  0  0  0
   -1.8170   21.6160  -30.7460 C   0  0  0  0  0  0  0  0  0  0  0  0
   -1.7090   20.3660  -31.3480 C   0  0  0  0  0  0  0  0  0  0  0  0
   -2.8730   19.7950  -31.8910 C   0  0  0  0  0  0  0  0  0  0  0  0
   -4.1100   20.4750  -31.8120 C   0  0  0  0  0  0  0  0  0  0  0  0
   -5.2880   19.8790  -32.3580 N   0  0  0  0  0  0  0  0  0  0  0  0
   -6.1300   18.6950  -32.0950 C   0  0  0  0  0  0  0  0  0  0  0  0
   -7.1250   18.9680  -33.1910 C   0  0  0  0  0  0  0  0  0  0  0  0
   -8.5170   19.3200  -32.7830 N   0  0  0  0  0  0  0  0  0  0  0  0
   -8.9690   18.3930  -31.7310 C   0  0  0  0  0  0  0  0  0  0  0  0
   -8.7430   20.7170  -32.3440 C   0  0  0  0  0  0  0  0  0  0  0  0
   -6.2330   20.1450  -33.4610 C   0  0  0  0  0  0  0  0  0  0  0  0
   -4.1840   21.7400  -31.1940 C   0  0  0  0  0  0  0  0  0  0  0  0
   -3.0070   22.2950  -30.6790 C   0  0  0  0  0  0  0  0  0  0  0  0
   -7.6337   22.3735  -31.2065 H   0  0  0  0  0  0  0  0  0  0  0  0
   -7.3971   23.4724  -29.6681 H   0  0  0  0  0  0  0  0  0  0  0  0
   -6.2842   23.9034  -32.5150 H   0  0  0  0  0  0  0  0  0  0  0  0
   -6.0834   26.2154  -31.4802 H   0  0  0  0  0  0  0  0  0  0  0  0
   -6.3114   25.5100  -29.8431 H   0  0  0  0  0  0  0  0  0  0  0  0
   -2.5550   25.9910  -28.9700 H   0  0  0  0  0  0  0  0  0  0  0  0
    0.2052   22.1435  -29.9895 H   0  0  0  0  0  0  0  0  0  0  0  0
   -0.7434   19.8414  -31.3973 H   0  0  0  0  0  0  0  0  0  0  0  0
   -2.8211   18.8116  -32.3811 H   0  0  0  0  0  0  0  0  0  0  0  0
   -5.5890   17.7479  -32.2375 H   0  0  0  0  0  0  0  0  0  0  0  0
   -6.5248   18.5746  -31.0754 H   0  0  0  0  0  0  0  0  0  0  0  0
   -7.4165   18.2104  -33.9334 H   0  0  0  0  0  0  0  0  0  0  0  0
   -9.1280   19.1540  -33.6170 H   0  0  0  0  0  0  0  0  0  0  0  0
   -8.7569   18.8279  -30.7432 H   0  0  0  0  0  0  0  0  0  0  0  0
  -10.0511   18.2231  -31.8322 H   0  0  0  0  0  0  0  0  0  0  0  0
   -8.4365   17.4358  -31.8322 H   0  0  0  0  0  0  0  0  0  0  0  0
   -8.7499   20.7594  -31.2448 H   0  0  0  0  0  0  0  0  0  0  0  0
   -7.9368   21.3578  -32.7306 H   0  0  0  0  0  0  0  0  0  0  0  0
   -9.7101   21.0709  -32.7306 H   0  0  0  0  0  0  0  0  0  0  0  0
   -5.7551   20.0978  -34.4507 H   0  0  0  0  0  0  0  0  0  0  0  0
   -6.7064   21.1376  -33.4877 H   0  0  0  0  0  0  0  0  0  0  0  0
   -5.1413   22.2765  -31.1186 H   0  0  0  0  0  0  0  0  0  0  0  0
  1  2  2  0
  2  3  1  0
  3  4  1  0
  4  5  1  0
  5  6  2  0
  5  7  1  0
  7  8  1  0
  8  9  1  0
  9 10  1  0
  9 11  2  0
  8 12  2  0
 12 13  1  0
 13 14  2  0
 14 15  1  0
 15 16  2  0
 16 17  1  0
 17 18  1  0
 18 19  1  0
 19 20  1  0
 20 21  1  0
 20 22  1  0
 19 23  1  0
 16 24  1  0
 24 25  2  0
 25  7  1  0
 25 13  1  0
 23 17  1  0
  1 26  1  0
  1 27  1  0
  2 28  1  0
  3 29  1  0
  3 30  1  0
 10 31  1  0
 12 32  1  0
 14 33  1  0
 15 34  1  0
 18 35  1  0
 18 36  1  0
 19 37  1  0
 20 38  1  0
 21 39  1  0
 21 40  1  0
 21 41  1  0
 22 42  1  0
 22 43  1  0
 22 44  1  0
 23 45  1  0
 23 46  1  0
 24 47  1  0
M  CHG  2  10  -1  20   1
M  END
>  <UniqueID>  (29) 
29

>  <SMILES>  (29) 
C=CCOC(=O)n1c(C([NH-])=O)cc2ccc(N3CC([NH+](C)C)C3)cc21

>  <Energy>  (29) 
133.55250083217797

>  <Genealogy>  (29) 
C=CCOC(=O)n1c(C([NH-])=O)cc2ccc(N3CC([NH+](C)C)C3)cc21 (protonated)
C=CCOC(=O)n1c(C([NH-])=O)cc2ccc(N3CC([NH+](C)C)C3)cc21 (3D coordinates assigned)
C=CCOC(=O)n1c(C([NH-])=O)cc2ccc(N3CC([NH+](C)C)C3)cc21 (nonaromatic ring conformer: 133.55250083217797 kcal/mol)

>  <smiles>  (29) 
C=CCOC(=O)n1c(C(N)=O)cc2ccc(N3CC(N(C)C)C3)cc21

>  <score_type>  (29) 
oracle

>  <origin>  (29) 
adg

>  <m_score__min__energy>  (29) 
-10.369999999999999

>  <m_primary>  (29) 
energy

$$$$
29:0
     RDKit          3D

 35 37  0  0  0  0  0  0  0  0999 V2000
   -1.6510   25.3990  -28.0830 N   0  0  0  0  0  0  0  0  0  0  0  0
   -0.8900   24.3920  -28.7510 C   0  0  0  0  0  0  0  0  0  0  0  0
    0.3620   24.3710  -28.6130 O   0  0  0  0  0  0  0  0  0  0  0  0
   -1.5360   23.4180  -29.6530 C   0  0  0  0  0  0  0  0  0  0  0  0
   -0.9290   22.2340  -30.0600 C   0  0  0  0  0  0  0  0  0  0  0  0
   -1.8170   21.6530  -30.9350 C   0  0  0  0  0  0  0  0  0  0  0  0
   -1.7250   20.4540  -31.6370 C   0  0  0  0  0  0  0  0  0  0  0  0
   -2.8080   20.0820  -32.4500 C   0  0  0  0  0  0  0  0  0  0  0  0
   -3.9630   20.8990  -32.5310 C   0  0  0  0  0  0  0  0  0  0  0  0
   -5.1070   20.4990  -33.4230 C   0  0  0  0  0  0  0  0  0  0  0  0
   -5.6420   19.1220  -33.0270 C   0  0  0  0  0  0  0  0  0  0  0  0
   -7.0510   19.2170  -32.6530 N   0  0  0  0  0  0  0  0  0  0  0  0
   -7.7670   20.3400  -32.4870 C   0  0  0  0  0  0  0  0  0  0  0  0
   -9.0250   19.9770  -32.0590 C   0  0  0  0  0  0  0  0  0  0  0  0
   -9.0940   18.6340  -31.9450 N   0  0  0  0  0  0  0  0  0  0  0  0
   -7.8680   18.2040  -32.3100 C   0  0  0  0  0  0  0  0  0  0  0  0
   -4.0170   22.1140  -31.8130 C   0  0  0  0  0  0  0  0  0  0  0  0
   -2.9150   22.4720  -31.0260 C   0  0  0  0  0  0  0  0  0  0  0  0
   -2.7580   23.5620  -30.2400 N   0  0  0  0  0  0  0  0  0  0  0  0
   -3.7340   24.5860  -29.9800 C   0  0  0  0  0  0  0  0  0  0  0  0
   -4.4790   24.5160  -28.9670 O   0  0  0  0  0  0  0  0  0  0  0  0
   -3.8620   25.6670  -30.8420 O   0  0  0  0  0  0  0  0  0  0  0  0
   -1.1830   26.0560  -27.4210 H   0  0  0  0  0  0  0  0  0  0  0  0
   -2.6610   25.5460  -28.3020 H   0  0  0  0  0  0  0  0  0  0  0  0
    0.0518   21.8455  -29.7484 H   0  0  0  0  0  0  0  0  0  0  0  0
   -0.8313   19.8176  -31.5572 H   0  0  0  0  0  0  0  0  0  0  0  0
   -2.7593   19.1481  -33.0291 H   0  0  0  0  0  0  0  0  0  0  0  0
   -5.9140   21.2407  -33.3305 H   0  0  0  0  0  0  0  0  0  0  0  0
   -4.7481   20.4548  -34.4619 H   0  0  0  0  0  0  0  0  0  0  0  0
   -5.5376   18.4330  -33.8781 H   0  0  0  0  0  0  0  0  0  0  0  0
   -5.0669   18.7469  -32.1676 H   0  0  0  0  0  0  0  0  0  0  0  0
   -7.4126   21.3666  -32.6615 H   0  0  0  0  0  0  0  0  0  0  0  0
   -9.8474   20.6749  -31.8432 H   0  0  0  0  0  0  0  0  0  0  0  0
   -7.5701   17.1452  -32.3254 H   0  0  0  0  0  0  0  0  0  0  0  0
   -4.9030   22.7634  -31.8704 H   0  0  0  0  0  0  0  0  0  0  0  0
  1  2  1  0
  2  3  2  0
  2  4  1  0
  4  5  2  0
  5  6  1  0
  6  7  2  0
  7  8  1  0
  8  9  2  0
  9 10  1  0
 10 11  1  0
 11 12  1  0
 12 13  1  0
 13 14  2  0
 14 15  1  0
 15 16  2  0
  9 17  1  0
 17 18  2  0
 18 19  1  0
 19 20  1  0
 20 21  2  0
 20 22  1  0
 19  4  1  0
 18  6  1  0
 16 12  1  0
  1 23  1  0
  1 24  1  0
  5 25  1  0
  7 26  1  0
  8 27  1  0
 10 28  1  0
 10 29  1  0
 11 30  1  0
 11 31  1  0
 13 32  1  0
 14 33  1  0
 16 34  1  0
 17 35  1  0
M  CHG  1  22  -1
M  END
>  <UniqueID>  (30) 
30

>  <SMILES>  (30) 
NC(=O)c1cc2ccc(CCn3ccnc3)cc2n1C(=O)[O-]

>  <Energy>  (30) 
102.72864509465481

>  <Genealogy>  (30) 
NC(=O)c1cc2ccc(CCn3ccnc3)cc2n1C(=O)[O-] (protonated)
NC(=O)c1cc2ccc(CCn3ccnc3)cc2n1C(=O)[O-] (3D coordinates assigned)
NC(=O)c1cc2ccc(CCn3ccnc3)cc2n1C(=O)[O-] (optimized conformer: 102.72864509465481 kcal/mol)

>  <smiles>  (30) 
NC(=O)c1cc2ccc(CCn3ccnc3)cc2n1C(=O)O

>  <score_type>  (30) 
oracle

>  <origin>  (30) 
adg

>  <m_score__min__energy>  (30) 
-8.9100000000000001

>  <m_primary>  (30) 
energy

$$$$
30:0
     RDKit          3D

 44 45  0  0  0  0  0  0  0  0999 V2000
   -1.7050   21.3970  -32.1340 C   0  0  0  0  0  0  0  0  0  0  0  0
   -3.0820   21.9190  -32.5310 C   0  0  0  0  0  0  0  0  0  0  0  0
   -3.7040   22.6820  -31.3990 C   0  0  0  0  0  0  0  0  0  0  0  0
   -2.9740   23.1250  -30.4720 O   0  0  0  0  0  0  0  0  0  0  0  0
   -5.1240   22.8800  -31.3440 N   0  0  0  0  0  0  0  0  0  0  0  0
   -5.7980   24.0040  -30.9710 C   0  0  0  0  0  0  0  0  0  0  0  0
   -5.1910   25.2520  -30.4580 C   0  0  0  0  0  0  0  0  0  0  0  0
   -3.8770   25.6460  -30.8440 N   0  0  0  0  0  0  0  0  0  0  0  0
   -5.8350   25.9700  -29.6480 O   0  0  0  0  0  0  0  0  0  0  0  0
   -7.1720   23.8070  -31.0940 C   0  0  0  0  0  0  0  0  0  0  0  0
   -7.3170   22.5190  -31.5560 C   0  0  0  0  0  0  0  0  0  0  0  0
   -8.4660   21.8070  -31.8780 C   0  0  0  0  0  0  0  0  0  0  0  0
   -8.3170   20.4970  -32.3630 C   0  0  0  0  0  0  0  0  0  0  0  0
   -7.0250   19.9100  -32.5140 C   0  0  0  0  0  0  0  0  0  0  0  0
   -6.8160   18.4940  -33.0520 C   0  0  1  0  0  0  0  0  0  0  0  0
   -5.8840   18.4140  -34.3020 C   0  0  0  0  0  0  0  0  0  0  0  0
   -4.5630   17.7640  -34.0980 N   0  0  0  0  0  0  0  0  0  0  0  0
   -3.5050   18.7300  -33.7460 C   0  0  0  0  0  0  0  0  0  0  0  0
   -4.1770   17.0490  -35.3300 C   0  0  0  0  0  0  0  0  0  0  0  0
   -6.4560   17.4560  -32.0110 C   0  0  0  0  0  0  0  0  0  0  0  0
   -6.8270   17.6120  -30.8180 O   0  0  0  0  0  0  0  0  0  0  0  0
   -5.7260   16.3220  -32.3470 O   0  0  0  0  0  0  0  0  0  0  0  0
   -5.8850   20.6950  -32.2100 C   0  0  0  0  0  0  0  0  0  0  0  0
   -6.0680   21.9840  -31.7020 C   0  0  0  0  0  0  0  0  0  0  0  0
   -1.6264   21.3672  -31.0372 H   0  0  0  0  0  0  0  0  0  0  0  0
   -1.5661   20.3838  -32.5392 H   0  0  0  0  0  0  0  0  0  0  0  0
   -0.9294   22.0635  -32.5392 H   0  0  0  0  0  0  0  0  0  0  0  0
   -2.9795   22.5835  -33.4016 H   0  0  0  0  0  0  0  0  0  0  0  0
   -3.7275   21.0636  -32.7791 H   0  0  0  0  0  0  0  0  0  0  0  0
   -3.0370   25.2830  -30.3410 H   0  0  0  0  0  0  0  0  0  0  0  0
   -7.9714   24.5284  -30.8693 H   0  0  0  0  0  0  0  0  0  0  0  0
   -9.4629   22.2559  -31.7567 H   0  0  0  0  0  0  0  0  0  0  0  0
   -9.2107   19.9142  -32.6307 H   0  0  0  0  0  0  0  0  0  0  0  0
   -7.8242   18.2211  -33.3971 H   0  0  0  0  0  0  0  0  0  0  0  0
   -6.4174   17.8513  -35.0823 H   0  0  0  0  0  0  0  0  0  0  0  0
   -5.6595   19.4576  -34.5677 H   0  0  0  0  0  0  0  0  0  0  0  0
   -4.6310   17.0440  -33.3440 H   0  0  0  0  0  0  0  0  0  0  0  0
   -3.4248   18.8032  -32.6514 H   0  0  0  0  0  0  0  0  0  0  0  0
   -2.5451   18.3902  -34.1621 H   0  0  0  0  0  0  0  0  0  0  0  0
   -3.7563   19.7168  -34.1621 H   0  0  0  0  0  0  0  0  0  0  0  0
   -3.6698   16.1095  -35.0651 H   0  0  0  0  0  0  0  0  0  0  0  0
   -5.0771   16.8256  -35.9216 H   0  0  0  0  0  0  0  0  0  0  0  0
   -3.4964   17.6789  -35.9216 H   0  0  0  0  0  0  0  0  0  0  0  0
   -4.8726   20.2963  -32.3712 H   0  0  0  0  0  0  0  0  0  0  0  0
  1  2  1  0
  2  3  1  0
  3  4  2  0
  3  5  1  0
  5  6  1  0
  6  7  1  0
  7  8  1  0
  7  9  2  0
  6 10  2  0
 10 11  1  0
 11 12  2  0
 12 13  1  0
 13 14  2  0
 14 15  1  0
 15 16  1  0
 16 17  1  0
 17 18  1  0
 17 19  1  0
 15 20  1  0
 20 21  2  0
 20 22  1  0
 14 23  1  0
 23 24  2  0
 24  5  1  0
 24 11  1  0
  1 25  1  0
  1 26  1  0
  1 27  1  0
  2 28  1  0
  2 29  1  0
  8 30  1  0
 10 31  1  0
 12 32  1  0
 13 33  1  0
 15 34  1  6
 16 35  1  0
 16 36  1  0
 17 37  1  0
 18 38  1  0
 18 39  1  0
 18 40  1  0
 19 41  1  0
 19 42  1  0
 19 43  1  0
 23 44  1  0
M  CHG  3   8  -1  17   1  22  -1
M  END
>  <UniqueID>  (31) 
31

>  <SMILES>  (31) 
CCC(=O)n1c(C([NH-])=O)cc2ccc([C@@H](C[NH+](C)C)C(=O)[O-])cc21

>  <Energy>  (31) 
88.57521935130696

>  <Genealogy>  (31) 
CCC(=O)n1c(C([NH-])=O)cc2ccc(C(C[NH+](C)C)C(=O)[O-])cc21 (protonated)
CCC(=O)n1c(C([NH-])=O)cc2ccc([C@@H](C[NH+](C)C)C(=O)[O-])cc21 (chirality)
CCC(=O)n1c(C([NH-])=O)cc2ccc([C@@H](C[NH+](C)C)C(=O)[O-])cc21 (3D coordinates assigned)
CCC(=O)n1c(C([NH-])=O)cc2ccc([C@@H](C[NH+](C)C)C(=O)[O-])cc21 (optimized conformer: 88.57521935130696 kcal/mol)

>  <smiles>  (31) 
CCC(=O)n1c(C(N)=O)cc2ccc(C(CN(C)C)C(=O)O)cc21

>  <score_type>  (31) 
oracle

>  <origin>  (31) 
adg

>  <m_score__min__energy>  (31) 
-10.050000000000001

>  <m_primary>  (31) 
energy

$$$$
31:0
     RDKit          3D

 34 35  0  0  0  0  0  0  0  0999 V2000
   -9.1180   20.9060  -31.2380 C   0  0  0  0  0  0  0  0  0  0  0  0
   -9.4220   22.2150  -31.9570 C   0  0  0  0  0  0  0  0  0  0  0  0
   -8.2850   23.0750  -31.9340 O   0  0  0  0  0  0  0  0  0  0  0  0
   -7.2700   22.9900  -30.9730 C   0  0  0  0  0  0  0  0  0  0  0  0
   -7.5290   23.1970  -29.7560 O   0  0  0  0  0  0  0  0  0  0  0  0
   -5.9270   22.6790  -31.3800 N   0  0  0  0  0  0  0  0  0  0  0  0
   -4.7870   23.3400  -31.0300 C   0  0  0  0  0  0  0  0  0  0  0  0
   -4.7190   24.6180  -30.2950 C   0  0  0  0  0  0  0  0  0  0  0  0
   -5.3070   24.7570  -29.0010 N   0  0  0  0  0  0  0  0  0  0  0  0
   -4.1870   25.6190  -30.8420 O   0  0  0  0  0  0  0  0  0  0  0  0
   -3.6630   22.6750  -31.5110 C   0  0  0  0  0  0  0  0  0  0  0  0
   -4.1510   21.5810  -32.1870 C   0  0  0  0  0  0  0  0  0  0  0  0
   -3.4690   20.5630  -32.8470 C   0  0  0  0  0  0  0  0  0  0  0  0
   -4.2260   19.5270  -33.4190 C   0  0  0  0  0  0  0  0  0  0  0  0
   -5.6390   19.5280  -33.3240 C   0  0  0  0  0  0  0  0  0  0  0  0
   -6.4340   18.3860  -33.8960 C   0  0  0  0  0  0  0  0  0  0  0  0
   -7.1820   17.6720  -32.8110 C   0  0  0  0  0  0  0  0  0  0  0  0
   -8.1970   18.1570  -32.3370 O   0  0  0  0  0  0  0  0  0  0  0  0
   -6.2960   20.5720  -32.6350 C   0  0  0  0  0  0  0  0  0  0  0  0
   -5.5200   21.6020  -32.0920 C   0  0  0  0  0  0  0  0  0  0  0  0
   -9.1555   21.0677  -30.1506 H   0  0  0  0  0  0  0  0  0  0  0  0
   -9.8644   20.1496  -31.5222 H   0  0  0  0  0  0  0  0  0  0  0  0
   -8.1147   20.5560  -31.5222 H   0  0  0  0  0  0  0  0  0  0  0  0
   -9.6916   21.9998  -33.0015 H   0  0  0  0  0  0  0  0  0  0  0  0
  -10.2565   22.7160  -31.4446 H   0  0  0  0  0  0  0  0  0  0  0  0
   -5.2210   25.6570  -28.4790 H   0  0  0  0  0  0  0  0  0  0  0  0
   -5.9050   24.0020  -28.5960 H   0  0  0  0  0  0  0  0  0  0  0  0
   -2.6096   22.9628  -31.3788 H   0  0  0  0  0  0  0  0  0  0  0  0
   -2.3713   20.5694  -32.9185 H   0  0  0  0  0  0  0  0  0  0  0  0
   -3.7162   18.7069  -33.9459 H   0  0  0  0  0  0  0  0  0  0  0  0
   -7.1509   18.7772  -34.6329 H   0  0  0  0  0  0  0  0  0  0  0  0
   -5.7437   17.6779  -34.3776 H   0  0  0  0  0  0  0  0  0  0  0  0
   -6.8138   16.7044  -32.4393 H   0  0  0  0  0  0  0  0  0  0  0  0
   -7.3908   20.5750  -32.5281 H   0  0  0  0  0  0  0  0  0  0  0  0
  1  2  1  0
  2  3  1  0
  3  4  1  0
  4  5  2  0
  4  6  1  0
  6  7  1  0
  7  8  1  0
  8  9  1  0
  8 10  2  0
  7 11  2  0
 11 12  1  0
 12 13  2  0
 13 14  1  0
 14 15  2  0
 15 16  1  0
 16 17  1  0
 17 18  2  0
 15 19  1  0
 19 20  2  0
 20  6  1  0
 20 12  1  0
  1 21  1  0
  1 22  1  0
  1 23  1  0
  2 24  1  0
  2 25  1  0
  9 26  1  0
  9 27  1  0
 11 28  1  0
 13 29  1  0
 14 30  1  0
 16 31  1  0
 16 32  1  0
 17 33  1  0
 19 34  1  0
M  END
>  <UniqueID>  (32) 
32

>  <SMILES>  (32) 
CCOC(=O)n1c(C(N)=O)cc2ccc(CC=O)cc21

>  <Energy>  (32) 
67.10893168065056

>  <Genealogy>  (32) 
CCOC(=O)n1c(C(N)=O)cc2ccc(CC=O)cc21 (3D coordinates assigned)
CCOC(=O)n1c(C(N)=O)cc2ccc(CC=O)cc21 (optimized conformer: 67.10893168065056 kcal/mol)

>  <smiles>  (32) 
CCOC(=O)n1c(C(N)=O)cc2ccc(CC=O)cc21

>  <score_type>  (32) 
oracle

>  <origin>  (32) 
adg

>  <m_score__min__energy>  (32) 
-7.5700000000000003

>  <m_primary>  (32) 
energy

$$$$
32:0
     RDKit          3D

 43 45  0  0  0  0  0  0  0  0999 V2000
   -1.6040   25.6610  -28.9580 N   0  0  0  0  0  0  0  0  0  0  0  0
   -1.0860   24.3780  -29.3000 C   0  0  0  0  0  0  0  0  0  0  0  0
    0.0970   24.0860  -28.9800 O   0  0  0  0  0  0  0  0  0  0  0  0
   -1.9320   23.3710  -29.9730 C   0  0  0  0  0  0  0  0  0  0  0  0
   -1.4680   22.1120  -30.3510 C   0  0  0  0  0  0  0  0  0  0  0  0
   -2.5670   21.4540  -30.8530 C   0  0  0  0  0  0  0  0  0  0  0  0
   -2.6790   20.1700  -31.3730 C   0  0  0  0  0  0  0  0  0  0  0  0
   -3.9350   19.7580  -31.8430 C   0  0  0  0  0  0  0  0  0  0  0  0
   -5.0540   20.6330  -31.8090 C   0  0  0  0  0  0  0  0  0  0  0  0
   -6.4030   20.1290  -32.3040 C   0  0  0  0  0  0  0  0  0  0  0  0
   -6.8470   18.7880  -31.6560 C   0  0  0  0  0  0  0  0  0  0  0  0
   -6.8710   17.6220  -32.6540 C   0  0  0  0  0  0  0  0  0  0  0  0
   -5.6770   17.6830  -33.5160 N   0  0  0  0  0  0  0  0  0  0  0  0
   -5.4750   16.4220  -34.2620 C   0  0  0  0  0  0  0  0  0  0  0  0
   -3.9890   16.2020  -34.5590 C   0  0  0  0  0  0  0  0  0  0  0  0
   -3.2190   17.2040  -33.9540 O   0  0  0  0  0  0  0  0  0  0  0  0
   -5.7280   18.8430  -34.4380 C   0  0  0  0  0  0  0  0  0  0  0  0
   -6.4460   20.0760  -33.8440 C   0  0  0  0  0  0  0  0  0  0  0  0
   -4.8960   21.9300  -31.2590 C   0  0  0  0  0  0  0  0  0  0  0  0
   -3.6370   22.3050  -30.7760 C   0  0  0  0  0  0  0  0  0  0  0  0
   -3.2640   23.4880  -30.2400 N   0  0  0  0  0  0  0  0  0  0  0  0
   -4.1010   24.6420  -30.0650 C   0  0  0  0  0  0  0  0  0  0  0  0
   -3.9210   25.6720  -30.7670 O   0  0  0  0  0  0  0  0  0  0  0  0
   -5.1310   24.6240  -29.1330 O   0  0  0  0  0  0  0  0  0  0  0  0
   -2.6280   25.8590  -29.0100 H   0  0  0  0  0  0  0  0  0  0  0  0
   -0.4413   21.7265  -30.2660 H   0  0  0  0  0  0  0  0  0  0  0  0
   -1.8096   19.4975  -31.4148 H   0  0  0  0  0  0  0  0  0  0  0  0
   -4.0555   18.7410  -32.2444 H   0  0  0  0  0  0  0  0  0  0  0  0
   -7.1479   20.8660  -31.9695 H   0  0  0  0  0  0  0  0  0  0  0  0
   -6.1465   18.5413  -30.8446 H   0  0  0  0  0  0  0  0  0  0  0  0
   -7.8728   18.9249  -31.2833 H   0  0  0  0  0  0  0  0  0  0  0  0
   -6.8768   16.6695  -32.1038 H   0  0  0  0  0  0  0  0  0  0  0  0
   -7.7748   17.6935  -33.2770 H   0  0  0  0  0  0  0  0  0  0  0  0
   -5.8513   15.5818  -33.6599 H   0  0  0  0  0  0  0  0  0  0  0  0
   -6.0212   16.4829  -35.2148 H   0  0  0  0  0  0  0  0  0  0  0  0
   -3.6817   15.2214  -34.1665 H   0  0  0  0  0  0  0  0  0  0  0  0
   -3.8323   16.2381  -35.6472 H   0  0  0  0  0  0  0  0  0  0  0  0
   -3.8010   17.6390  -33.2770 H   0  0  0  0  0  0  0  0  0  0  0  0
   -4.6971   19.1303  -34.6924 H   0  0  0  0  0  0  0  0  0  0  0  0
   -6.3051   18.5282  -35.3200 H   0  0  0  0  0  0  0  0  0  0  0  0
   -5.9636   20.9830  -34.2373 H   0  0  0  0  0  0  0  0  0  0  0  0
   -7.5042   20.0065  -34.1362 H   0  0  0  0  0  0  0  0  0  0  0  0
   -5.7454   22.6274  -31.2128 H   0  0  0  0  0  0  0  0  0  0  0  0
  1  2  1  0
  2  3  2  0
  2  4  1  0
  4  5  2  0
  5  6  1  0
  6  7  2  0
  7  8  1  0
  8  9  2  0
  9 10  1  0
 10 11  1  0
 11 12  1  0
 12 13  1  0
 13 14  1  0
 14 15  1  0
 15 16  1  0
 13 17  1  0
 17 18  1  0
  9 19  1  0
 19 20  2  0
 20 21  1  0
 21 22  1  0
 22 23  2  0
 22 24  1  0
 21  4  1  0
 20  6  1  0
 18 10  1  0
  1 25  1  0
  5 26  1  0
  7 27  1  0
  8 28  1  0
 10 29  1  0
 11 30  1  0
 11 31  1  0
 12 32  1  0
 12 33  1  0
 14 34  1  0
 14 35  1  0
 15 36  1  0
 15 37  1  0
 16 38  1  0
 17 39  1  0
 17 40  1  0
 18 41  1  0
 18 42  1  0
 19 43  1  0
M  CHG  2   1  -1  24  -1
M  END
>  <UniqueID>  (33) 
33

>  <SMILES>  (33) 
[NH-]C(=O)c1cc2ccc(C3CCN(CCO)CC3)cc2n1C(=O)[O-]

>  <Energy>  (33) 
91.59617810175047

>  <Genealogy>  (33) 
[NH-]C(=O)c1cc2ccc(C3CCN(CCO)CC3)cc2n1C(=O)[O-] (protonated)
[NH-]C(=O)c1cc2ccc(C3CCN(CCO)CC3)cc2n1C(=O)[O-] (3D coordinates assigned)
[NH-]C(=O)c1cc2ccc(C3CCN(CCO)CC3)cc2n1C(=O)[O-] (nonaromatic ring conformer: 91.59617810175047 kcal/mol)

>  <smiles>  (33) 
NC(=O)c1cc2ccc(C3CCN(CCO)CC3)cc2n1C(=O)O

>  <score_type>  (33) 
oracle

>  <origin>  (33) 
adg

>  <m_score__min__energy>  (33) 
-11.130000000000001

>  <m_primary>  (33) 
energy

$$$$
33:0
     RDKit          3D

 33 34  0  0  0  0  0  0  0  0999 V2000
   -7.6640   22.2520  -30.6420 C   0  0  0  0  0  0  0  0  0  0  0  0
   -8.0900   21.6420  -31.9680 C   0  0  0  0  0  0  0  0  0  0  0  0
   -7.8750   20.2340  -31.9350 O   0  0  0  0  0  0  0  0  0  0  0  0
   -6.6260   19.6570  -32.1780 C   0  0  0  0  0  0  0  0  0  0  0  0
   -6.2580   18.6280  -31.5480 O   0  0  0  0  0  0  0  0  0  0  0  0
   -5.7000   20.2970  -33.1610 C   0  0  0  0  0  0  0  0  0  0  0  0
   -4.4540   20.7620  -32.4600 C   0  0  0  0  0  0  0  0  0  0  0  0
   -3.3160   19.9210  -32.4010 C   0  0  0  0  0  0  0  0  0  0  0  0
   -2.1630   20.3240  -31.7060 C   0  0  0  0  0  0  0  0  0  0  0  0
   -2.1800   21.5680  -31.0810 C   0  0  0  0  0  0  0  0  0  0  0  0
   -1.2170   22.1870  -30.3180 C   0  0  0  0  0  0  0  0  0  0  0  0
   -1.7770   23.4020  -29.9300 C   0  0  0  0  0  0  0  0  0  0  0  0
   -1.0410   24.4250  -29.1580 C   0  0  0  0  0  0  0  0  0  0  0  0
   -1.6130   25.7180  -28.9710 N   0  0  0  0  0  0  0  0  0  0  0  0
    0.0700   24.1600  -28.6280 O   0  0  0  0  0  0  0  0  0  0  0  0
   -3.0420   23.5270  -30.4270 N   0  0  0  0  0  0  0  0  0  0  0  0
   -3.9770   24.5950  -30.2040 C   0  0  0  0  0  0  0  0  0  0  0  0
   -3.8700   25.6780  -30.8370 O   0  0  0  0  0  0  0  0  0  0  0  0
   -4.9950   24.4530  -29.2680 O   0  0  0  0  0  0  0  0  0  0  0  0
   -3.2710   22.3970  -31.1320 C   0  0  0  0  0  0  0  0  0  0  0  0
   -4.4390   22.0120  -31.8030 C   0  0  0  0  0  0  0  0  0  0  0  0
   -8.0791   21.6576  -29.8147 H   0  0  0  0  0  0  0  0  0  0  0  0
   -6.5660   22.2556  -30.5760 H   0  0  0  0  0  0  0  0  0  0  0  0
   -8.0387   23.2841  -30.5760 H   0  0  0  0  0  0  0  0  0  0  0  0
   -9.1573   21.8458  -32.1391 H   0  0  0  0  0  0  0  0  0  0  0  0
   -7.4967   22.0841  -32.7819 H   0  0  0  0  0  0  0  0  0  0  0  0
   -5.4307   19.5663  -33.9379 H   0  0  0  0  0  0  0  0  0  0  0  0
   -6.2009   21.1611  -33.6219 H   0  0  0  0  0  0  0  0  0  0  0  0
   -3.3348   18.9429  -32.9040 H   0  0  0  0  0  0  0  0  0  0  0  0
   -1.2748   19.6769  -31.6573 H   0  0  0  0  0  0  0  0  0  0  0  0
   -0.2168   21.8037  -30.0674 H   0  0  0  0  0  0  0  0  0  0  0  0
   -2.6460   25.8580  -29.0110 H   0  0  0  0  0  0  0  0  0  0  0  0
   -5.3225   22.6671  -31.8177 H   0  0  0  0  0  0  0  0  0  0  0  0
  1  2  1  0
  2  3  1  0
  3  4  1  0
  4  5  2  0
  4  6  1  0
  6  7  1  0
  7  8  2  0
  8  9  1  0
  9 10  2  0
 10 11  1  0
 11 12  2  0
 12 13  1  0
 13 14  1  0
 13 15  2  0
 12 16  1  0
 16 17  1  0
 17 18  2  0
 17 19  1  0
 16 20  1  0
 20 21  2  0
 21  7  1  0
 20 10  1  0
  1 22  1  0
  1 23  1  0
  1 24  1  0
  2 25  1  0
  2 26  1  0
  6 27  1  0
  6 28  1  0
  8 29  1  0
  9 30  1  0
 11 31  1  0
 14 32  1  0
 21 33  1  0
M  CHG  2  14  -1  19  -1
M  END
>  <UniqueID>  (34) 
34

>  <SMILES>  (34) 
CCOC(=O)Cc1ccc2cc(C([NH-])=O)n(C(=O)[O-])c2c1

>  <Energy>  (34) 
65.41044008559378

>  <Genealogy>  (34) 
CCOC(=O)Cc1ccc2cc(C([NH-])=O)n(C(=O)[O-])c2c1 (protonated)
CCOC(=O)Cc1ccc2cc(C([NH-])=O)n(C(=O)[O-])c2c1 (3D coordinates assigned)
CCOC(=O)Cc1ccc2cc(C([NH-])=O)n(C(=O)[O-])c2c1 (optimized conformer: 65.41044008559378 kcal/mol)

>  <smiles>  (34) 
CCOC(=O)Cc1ccc2cc(C(N)=O)n(C(=O)O)c2c1

>  <score_type>  (34) 
oracle

>  <origin>  (34) 
adg

>  <m_score__min__energy>  (34) 
-10.4

>  <m_primary>  (34) 
energy

$$$$
34:0
     RDKit          3D

 47 49  0  0  0  0  0  0  0  0999 V2000
   -3.0800   19.5690  -32.7290 C   0  0  0  0  0  0  0  0  0  0  0  0
   -3.1140   21.0320  -32.2650 C   0  0  0  0  0  0  0  0  0  0  0  0
   -1.6680   21.5530  -32.1530 C   0  0  0  0  0  0  0  0  0  0  0  0
   -3.9140   21.8610  -33.2860 C   0  0  0  0  0  0  0  0  0  0  0  0
   -3.7560   21.0530  -30.9820 O   0  0  0  0  0  0  0  0  0  0  0  0
   -4.3020   22.1750  -30.3400 C   0  0  0  0  0  0  0  0  0  0  0  0
   -3.6890   22.7480  -29.4000 O   0  0  0  0  0  0  0  0  0  0  0  0
   -5.5940   22.6520  -30.7460 N   0  0  0  0  0  0  0  0  0  0  0  0
   -6.0610   23.9320  -30.7380 C   0  0  0  0  0  0  0  0  0  0  0  0
   -5.2780   25.1430  -30.4160 C   0  0  0  0  0  0  0  0  0  0  0  0
   -3.8890   25.2240  -30.7260 N   0  0  0  0  0  0  0  0  0  0  0  0
   -5.8530   26.1400  -29.9030 O   0  0  0  0  0  0  0  0  0  0  0  0
   -7.3860   23.9690  -31.1730 C   0  0  0  0  0  0  0  0  0  0  0  0
   -7.7120   22.6620  -31.4610 C   0  0  0  0  0  0  0  0  0  0  0  0
   -8.8990   22.1190  -31.9440 C   0  0  0  0  0  0  0  0  0  0  0  0
   -8.9540   20.7290  -32.1440 C   0  0  0  0  0  0  0  0  0  0  0  0
   -7.8390   19.9110  -31.8360 C   0  0  0  0  0  0  0  0  0  0  0  0
   -7.8930   18.4260  -32.0700 C   0  0  0  0  0  0  0  0  0  0  0  0
   -6.6900   17.9800  -32.8580 C   0  0  0  0  0  0  0  0  0  0  0  0
   -6.3690   18.6010  -34.0770 C   0  0  0  0  0  0  0  0  0  0  0  0
   -5.2820   18.1510  -34.8320 C   0  0  0  0  0  0  0  0  0  0  0  0
   -4.5110   17.0780  -34.3780 C   0  0  0  0  0  0  0  0  0  0  0  0
   -4.8290   16.4490  -33.1700 C   0  0  0  0  0  0  0  0  0  0  0  0
   -4.0840   15.4030  -32.7350 F   0  0  0  0  0  0  0  0  0  0  0  0
   -5.9170   16.8940  -32.4140 C   0  0  0  0  0  0  0  0  0  0  0  0
   -6.6520   20.4990  -31.3470 C   0  0  0  0  0  0  0  0  0  0  0  0
   -6.6150   21.8880  -31.1890 C   0  0  0  0  0  0  0  0  0  0  0  0
   -3.0646   18.9062  -31.8512 H   0  0  0  0  0  0  0  0  0  0  0  0
   -3.9734   19.3554  -33.3341 H   0  0  0  0  0  0  0  0  0  0  0  0
   -2.1776   19.3971  -33.3341 H   0  0  0  0  0  0  0  0  0  0  0  0
   -1.3949   21.6514  -31.0920 H   0  0  0  0  0  0  0  0  0  0  0  0
   -0.9841   20.8448  -32.6435 H   0  0  0  0  0  0  0  0  0  0  0  0
   -1.5929   22.5347  -32.6435 H   0  0  0  0  0  0  0  0  0  0  0  0
   -4.5822   22.5534  -32.7530 H   0  0  0  0  0  0  0  0  0  0  0  0
   -3.2194   22.4347  -33.9173 H   0  0  0  0  0  0  0  0  0  0  0  0
   -4.5120   21.1873  -33.9173 H   0  0  0  0  0  0  0  0  0  0  0  0
   -3.4970   26.0520  -31.2280 H   0  0  0  0  0  0  0  0  0  0  0  0
   -8.0329   24.8538  -31.2662 H   0  0  0  0  0  0  0  0  0  0  0  0
   -9.7673   22.7581  -32.1624 H   0  0  0  0  0  0  0  0  0  0  0  0
   -9.8713   20.2719  -32.5434 H   0  0  0  0  0  0  0  0  0  0  0  0
   -7.9060   17.9056  -31.1009 H   0  0  0  0  0  0  0  0  0  0  0  0
   -8.8037   18.1849  -32.6378 H   0  0  0  0  0  0  0  0  0  0  0  0
   -6.9754   19.4445  -34.4385 H   0  0  0  0  0  0  0  0  0  0  0  0
   -5.0335   18.6421  -35.7844 H   0  0  0  0  0  0  0  0  0  0  0  0
   -3.6533   16.7277  -34.9710 H   0  0  0  0  0  0  0  0  0  0  0  0
   -6.1690   16.3923  -31.4681 H   0  0  0  0  0  0  0  0  0  0  0  0
   -5.7780   19.8798  -31.0965 H   0  0  0  0  0  0  0  0  0  0  0  0
  1  2  1  0
  2  3  1  0
  2  4  1  0
  2  5  1  0
  5  6  1  0
  6  7  2  0
  6  8  1  0
  8  9  1  0
  9 10  1  0
 10 11  1  0
 10 12  2  0
  9 13  2  0
 13 14  1  0
 14 15  2  0
 15 16  1  0
 16 17  2  0
 17 18  1  0
 18 19  1  0
 19 20  2  0
 20 21  1  0
 21 22  2  0
 22 23  1  0
 23 24  1  0
 23 25  2  0
 17 26  1  0
 26 27  2  0
 27  8  1  0
 27 14  1  0
 25 19  1  0
  1 28  1  0
  1 29  1  0
  1 30  1  0
  3 31  1  0
  3 32  1  0
  3 33  1  0
  4 34  1  0
  4 35  1  0
  4 36  1  0
 11 37  1  0
 13 38  1  0
 15 39  1  0
 16 40  1  0
 18 41  1  0
 18 42  1  0
 20 43  1  0
 21 44  1  0
 22 45  1  0
 25 46  1  0
 26 47  1  0
M  CHG  1  11  -1
M  END
>  <UniqueID>  (35) 
35

>  <SMILES>  (35) 
CC(C)(C)OC(=O)n1c(C([NH-])=O)cc2ccc(Cc3cccc(F)c3)cc21

>  <Energy>  (35) 
81.01495211319165

>  <Genealogy>  (35) 
CC(C)(C)OC(=O)n1c(C([NH-])=O)cc2ccc(Cc3cccc(F)c3)cc21 (protonated)
CC(C)(C)OC(=O)n1c(C([NH-])=O)cc2ccc(Cc3cccc(F)c3)cc21 (3D coordinates assigned)
CC(C)(C)OC(=O)n1c(C([NH-])=O)cc2ccc(Cc3cccc(F)c3)cc21 (optimized conformer: 81.01495211319165 kcal/mol)

>  <smiles>  (35) 
CC(C)(C)OC(=O)n1c(C(N)=O)cc2ccc(Cc3cccc(F)c3)cc21

>  <score_type>  (35) 
oracle

>  <origin>  (35) 
adg

>  <m_score__min__energy>  (35) 
-11.52

>  <m_primary>  (35) 
energy

$$$$
35:0
     RDKit          3D

 41 42  0  0  0  0  0  0  0  0999 V2000
   -5.4220   16.9390  -33.6410 C   0  0  0  0  0  0  0  0  0  0  0  0
   -6.7060   17.0920  -32.8140 C   0  0  0  0  0  0  0  0  0  0  0  0
   -6.3400   17.4690  -31.3700 C   0  0  0  0  0  0  0  0  0  0  0  0
   -7.5700   18.1280  -33.4160 N   0  0  0  0  0  0  0  0  0  0  0  0
   -8.0340   19.0970  -32.4140 C   0  0  0  0  0  0  0  0  0  0  0  0
   -7.2130   20.3830  -32.5190 C   0  0  0  0  0  0  0  0  0  0  0  0
   -5.8860   20.1080  -33.0720 N   0  0  0  0  0  0  0  0  0  0  0  0
   -4.6440   20.5100  -32.4610 C   0  0  0  0  0  0  0  0  0  0  0  0
   -3.5190   19.6550  -32.5700 C   0  0  0  0  0  0  0  0  0  0  0  0
   -2.2930   19.9950  -31.9770 C   0  0  0  0  0  0  0  0  0  0  0  0
   -2.2130   21.2020  -31.2910 C   0  0  0  0  0  0  0  0  0  0  0  0
   -1.1640   21.7500  -30.5900 C   0  0  0  0  0  0  0  0  0  0  0  0
   -1.6480   22.9540  -30.0870 C   0  0  0  0  0  0  0  0  0  0  0  0
   -0.8240   23.8970  -29.3040 C   0  0  0  0  0  0  0  0  0  0  0  0
   -1.2000   25.2690  -29.1660 N   0  0  0  0  0  0  0  0  0  0  0  0
    0.2570   23.4990  -28.7950 O   0  0  0  0  0  0  0  0  0  0  0  0
   -2.9490   23.1400  -30.4500 N   0  0  0  0  0  0  0  0  0  0  0  0
   -3.8330   24.1910  -30.0250 C   0  0  0  0  0  0  0  0  0  0  0  0
   -3.7680   25.3310  -30.5590 O   0  0  0  0  0  0  0  0  0  0  0  0
   -4.7660   23.9660  -29.0210 O   0  0  0  0  0  0  0  0  0  0  0  0
   -3.2790   22.0580  -31.1920 C   0  0  0  0  0  0  0  0  0  0  0  0
   -4.5180   21.7360  -31.7590 C   0  0  0  0  0  0  0  0  0  0  0  0
   -4.5604   16.8363  -32.9649 H   0  0  0  0  0  0  0  0  0  0  0  0
   -5.4990   16.0437  -34.2754 H   0  0  0  0  0  0  0  0  0  0  0  0
   -5.2864   17.8273  -34.2754 H   0  0  0  0  0  0  0  0  0  0  0  0
   -7.2567   16.1398  -32.8066 H   0  0  0  0  0  0  0  0  0  0  0  0
   -6.9315   16.8597  -30.6708 H   0  0  0  0  0  0  0  0  0  0  0  0
   -5.2688   17.2830  -31.2027 H   0  0  0  0  0  0  0  0  0  0  0  0
   -6.5577   18.5342  -31.2027 H   0  0  0  0  0  0  0  0  0  0  0  0
   -7.0220   18.6710  -34.1270 H   0  0  0  0  0  0  0  0  0  0  0  0
   -9.0953   19.3257  -32.5910 H   0  0  0  0  0  0  0  0  0  0  0  0
   -7.9103   18.6678  -31.4088 H   0  0  0  0  0  0  0  0  0  0  0  0
   -7.7373   21.0931  -33.1754 H   0  0  0  0  0  0  0  0  0  0  0  0
   -7.0942   20.8090  -31.5118 H   0  0  0  0  0  0  0  0  0  0  0  0
   -5.8490   19.6060  -33.9880 H   0  0  0  0  0  0  0  0  0  0  0  0
   -3.6079   18.7110  -33.1276 H   0  0  0  0  0  0  0  0  0  0  0  0
   -1.4222   19.3272  -32.0526 H   0  0  0  0  0  0  0  0  0  0  0  0
   -0.1575   21.3269  -30.4557 H   0  0  0  0  0  0  0  0  0  0  0  0
   -0.6260   25.9120  -28.5750 H   0  0  0  0  0  0  0  0  0  0  0  0
   -1.9910   25.6680  -29.7160 H   0  0  0  0  0  0  0  0  0  0  0  0
   -5.3749   22.4189  -31.6622 H   0  0  0  0  0  0  0  0  0  0  0  0
  1  2  1  0
  2  3  1  0
  2  4  1  0
  4  5  1  0
  5  6  1  0
  6  7  1  0
  7  8  1  0
  8  9  2  0
  9 10  1  0
 10 11  2  0
 11 12  1  0
 12 13  2  0
 13 14  1  0
 14 15  1  0
 14 16  2  0
 13 17  1  0
 17 18  1  0
 18 19  2  0
 18 20  1  0
 17 21  1  0
 21 22  2  0
 22  8  1  0
 21 11  1  0
  1 23  1  0
  1 24  1  0
  1 25  1  0
  2 26  1  0
  3 27  1  0
  3 28  1  0
  3 29  1  0
  4 30  1  0
  5 31  1  0
  5 32  1  0
  6 33  1  0
  6 34  1  0
  7 35  1  0
  9 36  1  0
 10 37  1  0
 12 38  1  0
 15 39  1  0
 15 40  1  0
 22 41  1  0
M  CHG  1  20  -1
M  END
>  <UniqueID>  (36) 
36

>  <SMILES>  (36) 
CC(C)NCCNc1ccc2cc(C(N)=O)n(C(=O)[O-])c2c1

>  <Energy>  (36) 
74.76013770938724

>  <Genealogy>  (36) 
CC(C)NCCNc1ccc2cc(C(N)=O)n(C(=O)[O-])c2c1 (protonated)
CC(C)NCCNc1ccc2cc(C(N)=O)n(C(=O)[O-])c2c1 (3D coordinates assigned)
CC(C)NCCNc1ccc2cc(C(N)=O)n(C(=O)[O-])c2c1 (optimized conformer: 74.76013770938724 kcal/mol)

>  <smiles>  (36) 
CC(C)NCCNc1ccc2cc(C(N)=O)n(C(=O)O)c2c1

>  <score_type>  (36) 
oracle

>  <origin>  (36) 
adg

>  <m_score__min__energy>  (36) 
-9.1799999999999997

>  <m_primary>  (36) 
energy

$$$$
36:0
     RDKit          3D

 31 33  0  0  0  0  0  0  0  0999 V2000
   -1.5910   26.0240  -28.9570 N   0  0  0  0  0  0  0  0  0  0  0  0
   -0.8780   24.7930  -28.8730 C   0  0  0  0  0  0  0  0  0  0  0  0
    0.2130   24.7530  -28.2440 O   0  0  0  0  0  0  0  0  0  0  0  0
   -1.3700   23.5800  -29.5610 C   0  0  0  0  0  0  0  0  0  0  0  0
   -0.5610   22.4810  -29.8450 C   0  0  0  0  0  0  0  0  0  0  0  0
   -1.3570   21.6170  -30.5600 C   0  0  0  0  0  0  0  0  0  0  0  0
   -1.0670   20.3630  -31.0860 C   0  0  0  0  0  0  0  0  0  0  0  0
   -2.0930   19.6750  -31.7550 C   0  0  0  0  0  0  0  0  0  0  0  0
   -3.3860   20.2460  -31.8810 C   0  0  0  0  0  0  0  0  0  0  0  0
   -4.4700   19.5030  -32.5690 C   0  0  0  0  0  0  0  0  0  0  0  0
   -5.7040   19.3030  -31.9250 C   0  0  0  0  0  0  0  0  0  0  0  0
   -6.7310   18.6000  -32.5610 C   0  0  0  0  0  0  0  0  0  0  0  0
   -7.9140   18.4070  -31.9280 F   0  0  0  0  0  0  0  0  0  0  0  0
   -6.5380   18.0940  -33.8480 C   0  0  0  0  0  0  0  0  0  0  0  0
   -5.3200   18.2900  -34.5030 C   0  0  0  0  0  0  0  0  0  0  0  0
   -5.1420   17.8050  -35.7570 F   0  0  0  0  0  0  0  0  0  0  0  0
   -4.2860   18.9930  -33.8710 C   0  0  0  0  0  0  0  0  0  0  0  0
   -3.1260   19.2040  -34.5420 F   0  0  0  0  0  0  0  0  0  0  0  0
   -3.6420   21.5210  -31.3260 C   0  0  0  0  0  0  0  0  0  0  0  0
   -2.5950   22.1920  -30.6830 C   0  0  0  0  0  0  0  0  0  0  0  0
   -2.6210   23.3980  -30.0720 N   0  0  0  0  0  0  0  0  0  0  0  0
   -3.7670   24.2510  -29.9220 C   0  0  0  0  0  0  0  0  0  0  0  0
   -4.6950   23.9370  -29.1320 O   0  0  0  0  0  0  0  0  0  0  0  0
   -3.8740   25.4180  -30.6680 O   0  0  0  0  0  0  0  0  0  0  0  0
   -2.6350   26.0380  -28.9790 H   0  0  0  0  0  0  0  0  0  0  0  0
    0.4909   22.3356  -29.5581 H   0  0  0  0  0  0  0  0  0  0  0  0
   -0.0643   19.9229  -30.9814 H   0  0  0  0  0  0  0  0  0  0  0  0
   -1.8919   18.6830  -32.1858 H   0  0  0  0  0  0  0  0  0  0  0  0
   -5.8623   19.7030  -30.9126 H   0  0  0  0  0  0  0  0  0  0  0  0
   -7.3467   17.5400  -34.3470 H   0  0  0  0  0  0  0  0  0  0  0  0
   -4.6412   21.9754  -31.3978 H   0  0  0  0  0  0  0  0  0  0  0  0
  1  2  1  0
  2  3  2  0
  2  4  1  0
  4  5  2  0
  5  6  1  0
  6  7  2  0
  7  8  1  0
  8  9  2  0
  9 10  1  0
 10 11  2  0
 11 12  1  0
 12 13  1  0
 12 14  2  0
 14 15  1  0
 15 16  1  0
 15 17  2  0
 17 18  1  0
  9 19  1  0
 19 20  2  0
 20 21  1  0
 21 22  1  0
 22 23  2  0
 22 24  1  0
 21  4  1  0
 20  6  1  0
 17 10  1  0
  1 25  1  0
  5 26  1  0
  7 27  1  0
  8 28  1  0
 11 29  1  0
 14 30  1  0
 19 31  1  0
M  CHG  2   1  -1  24  -1
M  END
>  <UniqueID>  (37) 
37

>  <SMILES>  (37) 
[NH-]C(=O)c1cc2ccc(-c3cc(F)cc(F)c3F)cc2n1C(=O)[O-]

>  <Energy>  (37) 
80.39483114076239

>  <Genealogy>  (37) 
[NH-]C(=O)c1cc2ccc(-c3cc(F)cc(F)c3F)cc2n1C(=O)[O-] (protonated)
[NH-]C(=O)c1cc2ccc(-c3cc(F)cc(F)c3F)cc2n1C(=O)[O-] (3D coordinates assigned)
[NH-]C(=O)c1cc2ccc(-c3cc(F)cc(F)c3F)cc2n1C(=O)[O-] (optimized conformer: 80.39483114076239 kcal/mol)

>  <smiles>  (37) 
NC(=O)c1cc2ccc(-c3cc(F)cc(F)c3F)cc2n1C(=O)O

>  <score_type>  (37) 
oracle

>  <origin>  (37) 
adg

>  <m_score__min__energy>  (37) 
-11.32

>  <m_primary>  (37) 
energy

$$$$
37:0
     RDKit          3D

 38 40  0  0  0  0  0  0  0  0999 V2000
   -3.9700   25.6590  -30.8480 N   0  0  0  0  0  0  0  0  0  0  0  0
   -5.2760   25.3070  -30.3960 C   0  0  0  0  0  0  0  0  0  0  0  0
   -5.9000   26.0970  -29.6390 O   0  0  0  0  0  0  0  0  0  0  0  0
   -5.8640   24.0090  -30.7870 C   0  0  0  0  0  0  0  0  0  0  0  0
   -7.2020   23.8440  -31.1360 C   0  0  0  0  0  0  0  0  0  0  0  0
   -7.3220   22.5280  -31.5140 C   0  0  0  0  0  0  0  0  0  0  0  0
   -8.4360   21.8220  -31.9590 C   0  0  0  0  0  0  0  0  0  0  0  0
   -8.2750   20.4610  -32.2660 C   0  0  0  0  0  0  0  0  0  0  0  0
   -7.0190   19.8240  -32.1010 C   0  0  0  0  0  0  0  0  0  0  0  0
   -6.8480   18.3710  -32.4690 C   0  0  0  0  0  0  0  0  0  0  0  0
   -8.0640   17.7250  -32.3430 F   0  0  0  0  0  0  0  0  0  0  0  0
   -5.9260   17.7600  -31.6370 F   0  0  0  0  0  0  0  0  0  0  0  0
   -6.4040   18.2460  -33.7740 F   0  0  0  0  0  0  0  0  0  0  0  0
   -5.9060   20.5810  -31.6670 C   0  0  0  0  0  0  0  0  0  0  0  0
   -6.0910   21.9400  -31.3860 C   0  0  0  0  0  0  0  0  0  0  0  0
   -5.1840   22.8360  -30.9380 N   0  0  0  0  0  0  0  0  0  0  0  0
   -3.8040   22.5740  -30.6410 C   0  0  0  0  0  0  0  0  0  0  0  0
   -2.9000   23.2610  -31.1890 O   0  0  0  0  0  0  0  0  0  0  0  0
   -3.4570   21.5450  -29.7100 N   0  0  0  0  0  0  0  0  0  0  0  0
   -3.3540   21.7580  -28.2680 C   0  0  0  0  0  0  0  0  0  0  0  0
   -4.1980   22.9530  -27.8410 C   0  0  0  0  0  0  0  0  0  0  0  0
   -3.2990   24.1750  -27.9880 C   0  0  0  0  0  0  0  0  0  0  0  0
   -1.8610   23.6610  -28.0450 C   0  0  0  0  0  0  0  0  0  0  0  0
   -1.9290   22.1460  -27.9070 C   0  0  0  0  0  0  0  0  0  0  0  0
   -3.1190   25.2720  -30.3840 H   0  0  0  0  0  0  0  0  0  0  0  0
   -7.9952   24.6058  -31.1138 H   0  0  0  0  0  0  0  0  0  0  0  0
   -9.4132   22.3153  -32.0670 H   0  0  0  0  0  0  0  0  0  0  0  0
   -9.1332   19.8825  -32.6387 H   0  0  0  0  0  0  0  0  0  0  0  0
   -4.9173   20.1126  -31.5528 H   0  0  0  0  0  0  0  0  0  0  0  0
   -3.6798   20.8278  -27.7796 H   0  0  0  0  0  0  0  0  0  0  0  0
   -5.0816   23.0482  -28.4892 H   0  0  0  0  0  0  0  0  0  0  0  0
   -4.5617   22.8417  -26.8088 H   0  0  0  0  0  0  0  0  0  0  0  0
   -3.5445   24.7166  -28.9134 H   0  0  0  0  0  0  0  0  0  0  0  0
   -3.4367   24.8698  -27.1464 H   0  0  0  0  0  0  0  0  0  0  0  0
   -1.3994   23.9333  -29.0056 H   0  0  0  0  0  0  0  0  0  0  0  0
   -1.2519   24.1033  -27.2429 H   0  0  0  0  0  0  0  0  0  0  0  0
   -1.2162   21.6669  -28.5943 H   0  0  0  0  0  0  0  0  0  0  0  0
   -1.6676   21.8212  -26.8891 H   0  0  0  0  0  0  0  0  0  0  0  0
  1  2  1  0
  2  3  2  0
  2  4  1  0
  4  5  2  0
  5  6  1  0
  6  7  2  0
  7  8  1  0
  8  9  2  0
  9 10  1  0
 10 11  1  0
 10 12  1  0
 10 13  1  0
  9 14  1  0
 14 15  2  0
 15 16  1  0
 16 17  1  0
 17 18  2  0
 17 19  1  0
 19 20  1  0
 20 21  1  0
 21 22  1  0
 22 23  1  0
 23 24  1  0
 16  4  1  0
 24 20  1  0
 15  6  1  0
  1 25  1  0
  5 26  1  0
  7 27  1  0
  8 28  1  0
 14 29  1  0
 20 30  1  0
 21 31  1  0
 21 32  1  0
 22 33  1  0
 22 34  1  0
 23 35  1  0
 23 36  1  0
 24 37  1  0
 24 38  1  0
M  CHG  2   1  -1  19  -1
M  END
>  <UniqueID>  (38) 
38

>  <SMILES>  (38) 
[NH-]C(=O)c1cc2ccc(C(F)(F)F)cc2n1C(=O)[N-]C1CCCC1

>  <Energy>  (38) 
76.829249455346

>  <Genealogy>  (38) 
[NH-]C(=O)c1cc2ccc(C(F)(F)F)cc2n1C(=O)[N-]C1CCCC1 (protonated)
[NH-]C(=O)c1cc2ccc(C(F)(F)F)cc2n1C(=O)[N-]C1CCCC1 (3D coordinates assigned)
[NH-]C(=O)c1cc2ccc(C(F)(F)F)cc2n1C(=O)[N-]C1CCCC1 (nonaromatic ring conformer: 76.829249455346 kcal/mol)

>  <smiles>  (38) 
NC(=O)c1cc2ccc(C(F)(F)F)cc2n1C(=O)NC1CCCC1

>  <score_type>  (38) 
oracle

>  <origin>  (38) 
adg

>  <m_score__min__energy>  (38) 
-10.93

>  <m_primary>  (38) 
energy

$$$$
38:0
     RDKit          3D

 33 34  0  0  0  0  0  0  0  0999 V2000
   -9.3940   22.0580  -31.9570 C   0  0  0  0  0  0  0  0  0  0  0  0
   -8.3820   23.0480  -31.8220 O   0  0  0  0  0  0  0  0  0  0  0  0
   -7.3460   22.9450  -30.8900 C   0  0  0  0  0  0  0  0  0  0  0  0
   -7.5840   23.0860  -29.6580 O   0  0  0  0  0  0  0  0  0  0  0  0
   -6.0060   22.6760  -31.3350 N   0  0  0  0  0  0  0  0  0  0  0  0
   -4.8750   23.3750  -31.0320 C   0  0  0  0  0  0  0  0  0  0  0  0
   -4.8200   24.6600  -30.3070 C   0  0  0  0  0  0  0  0  0  0  0  0
   -5.4700   24.8270  -29.0480 N   0  0  0  0  0  0  0  0  0  0  0  0
   -4.2350   25.6430  -30.8350 O   0  0  0  0  0  0  0  0  0  0  0  0
   -3.7490   22.7390  -31.5490 C   0  0  0  0  0  0  0  0  0  0  0  0
   -4.2290   21.6240  -32.1960 C   0  0  0  0  0  0  0  0  0  0  0  0
   -3.5420   20.6260  -32.8820 C   0  0  0  0  0  0  0  0  0  0  0  0
   -4.2890   19.5680  -33.4260 C   0  0  0  0  0  0  0  0  0  0  0  0
   -5.6950   19.5150  -33.2570 C   0  0  0  0  0  0  0  0  0  0  0  0
   -6.4860   18.3860  -33.8610 C   0  0  0  0  0  0  0  0  0  0  0  0
   -7.0720   17.4960  -32.7620 C   0  0  0  0  0  0  0  0  0  0  0  0
   -8.2160   18.1570  -32.1250 C   0  0  0  0  0  0  0  0  0  0  0  0
   -9.1190   18.6770  -31.6210 N   0  0  0  0  0  0  0  0  0  0  0  0
   -6.3590   20.5510  -32.5620 C   0  0  0  0  0  0  0  0  0  0  0  0
   -5.5930   21.6060  -32.0510 C   0  0  0  0  0  0  0  0  0  0  0  0
   -9.7253   21.7339  -30.9594 H   0  0  0  0  0  0  0  0  0  0  0  0
  -10.2478   22.4792  -32.5080 H   0  0  0  0  0  0  0  0  0  0  0  0
   -8.9917   21.1951  -32.5080 H   0  0  0  0  0  0  0  0  0  0  0  0
   -6.1050   24.0910  -28.6650 H   0  0  0  0  0  0  0  0  0  0  0  0
   -5.3880   25.7310  -28.5310 H   0  0  0  0  0  0  0  0  0  0  0  0
   -2.7006   23.0596  -31.4592 H   0  0  0  0  0  0  0  0  0  0  0  0
   -2.4485   20.6648  -32.9945 H   0  0  0  0  0  0  0  0  0  0  0  0
   -3.7776   18.7730  -33.9886 H   0  0  0  0  0  0  0  0  0  0  0  0
   -7.3053   18.8010  -34.4664 H   0  0  0  0  0  0  0  0  0  0  0  0
   -5.8184   17.7806  -34.4918 H   0  0  0  0  0  0  0  0  0  0  0  0
   -7.4030   16.5446  -33.2040 H   0  0  0  0  0  0  0  0  0  0  0  0
   -6.2984   17.3107  -32.0023 H   0  0  0  0  0  0  0  0  0  0  0  0
   -7.4503   20.5292  -32.4258 H   0  0  0  0  0  0  0  0  0  0  0  0
  1  2  1  0
  2  3  1  0
  3  4  2  0
  3  5  1  0
  5  6  1  0
  6  7  1  0
  7  8  1  0
  7  9  2  0
  6 10  2  0
 10 11  1  0
 11 12  2  0
 12 13  1  0
 13 14  2  0
 14 15  1  0
 15 16  1  0
 16 17  1  0
 17 18  3  0
 14 19  1  0
 19 20  2  0
 20  5  1  0
 20 11  1  0
  1 21  1  0
  1 22  1  0
  1 23  1  0
  8 24  1  0
  8 25  1  0
 10 26  1  0
 12 27  1  0
 13 28  1  0
 15 29  1  0
 15 30  1  0
 16 31  1  0
 16 32  1  0
 19 33  1  0
M  END
>  <UniqueID>  (39) 
39

>  <SMILES>  (39) 
COC(=O)n1c(C(N)=O)cc2ccc(CCC#N)cc21

>  <Energy>  (39) 
66.39508426610672

>  <Genealogy>  (39) 
COC(=O)n1c(C(N)=O)cc2ccc(CCC#N)cc21 (3D coordinates assigned)
COC(=O)n1c(C(N)=O)cc2ccc(CCC#N)cc21 (optimized conformer: 66.39508426610672 kcal/mol)

>  <smiles>  (39) 
COC(=O)n1c(C(N)=O)cc2ccc(CCC#N)cc21

>  <score_type>  (39) 
oracle

>  <origin>  (39) 
adg

>  <m_score__min__energy>  (39) 
-7.9000000000000004

>  <m_primary>  (39) 
energy

$$$$
39:0
     RDKit          3D

 53 55  0  0  0  0  0  0  0  0999 V2000
   -0.2010   16.0490  -32.1000 C   0  0  0  0  0  0  0  0  0  0  0  0
   -1.4710   16.5960  -32.4400 O   0  0  0  0  0  0  0  0  0  0  0  0
   -1.6750   17.9070  -32.9050 C   0  0  0  0  0  0  0  0  0  0  0  0
   -0.7750   18.9500  -32.6070 C   0  0  0  0  0  0  0  0  0  0  0  0
   -1.0170   20.2460  -33.0680 C   0  0  0  0  0  0  0  0  0  0  0  0
   -2.1560   20.5200  -33.8250 C   0  0  0  0  0  0  0  0  0  0  0  0
   -3.0560   19.4960  -34.1290 C   0  0  0  0  0  0  0  0  0  0  0  0
   -2.8180   18.1840  -33.6840 C   0  0  0  0  0  0  0  0  0  0  0  0
   -3.8220   17.0990  -33.9880 C   0  0  0  0  0  0  0  0  0  0  0  0
   -5.0320   17.2830  -33.1900 N   0  0  0  0  0  0  0  0  0  0  0  0
   -6.0920   18.1500  -33.6160 C   0  0  0  0  0  0  0  0  0  0  0  0
   -6.0180   18.7520  -34.7210 O   0  0  0  0  0  0  0  0  0  0  0  0
   -7.2710   18.3920  -32.7210 C   0  0  0  0  0  0  0  0  0  0  0  0
   -7.3580   19.8410  -32.3220 C   0  0  0  0  0  0  0  0  0  0  0  0
   -8.6130   20.5000  -32.2800 C   0  0  0  0  0  0  0  0  0  0  0  0
   -8.7040   21.8460  -31.8840 C   0  0  0  0  0  0  0  0  0  0  0  0
   -7.5310   22.5030  -31.5260 C   0  0  0  0  0  0  0  0  0  0  0  0
   -7.3250   23.8040  -31.1280 C   0  0  0  0  0  0  0  0  0  0  0  0
   -5.9520   23.9110  -30.9080 C   0  0  0  0  0  0  0  0  0  0  0  0
   -5.2910   25.1420  -30.4270 C   0  0  0  0  0  0  0  0  0  0  0  0
   -3.8830   25.3200  -30.5620 N   0  0  0  0  0  0  0  0  0  0  0  0
   -5.9740   26.0350  -29.8590 O   0  0  0  0  0  0  0  0  0  0  0  0
   -5.3360   22.7230  -31.1590 N   0  0  0  0  0  0  0  0  0  0  0  0
   -3.9270   22.4420  -31.1480 C   0  0  0  0  0  0  0  0  0  0  0  0
   -3.2760   22.5140  -32.2270 O   0  0  0  0  0  0  0  0  0  0  0  0
   -3.2590   22.0450  -29.9340 N   0  0  0  0  0  0  0  0  0  0  0  0
   -2.0660   21.2030  -30.0160 C   0  0  0  0  0  0  0  0  0  0  0  0
   -3.8060   22.3920  -28.6200 C   0  0  0  0  0  0  0  0  0  0  0  0
   -6.3140   21.8740  -31.5400 C   0  0  0  0  0  0  0  0  0  0  0  0
   -6.1900   20.5450  -31.9510 C   0  0  0  0  0  0  0  0  0  0  0  0
   -0.1014   16.0061  -31.0054 H   0  0  0  0  0  0  0  0  0  0  0  0
   -0.1156   15.0343  -32.5160 H   0  0  0  0  0  0  0  0  0  0  0  0
    0.5950   16.6841  -32.5160 H   0  0  0  0  0  0  0  0  0  0  0  0
    0.1236   18.7420  -32.0076 H   0  0  0  0  0  0  0  0  0  0  0  0
   -0.3073   21.0530  -32.8334 H   0  0  0  0  0  0  0  0  0  0  0  0
   -2.3455   21.5428  -34.1827 H   0  0  0  0  0  0  0  0  0  0  0  0
   -3.9567   19.7176  -34.7203 H   0  0  0  0  0  0  0  0  0  0  0  0
   -4.0834   17.1367  -35.0558 H   0  0  0  0  0  0  0  0  0  0  0  0
   -3.3776   16.1237  -33.7404 H   0  0  0  0  0  0  0  0  0  0  0  0
   -5.1320   16.7830  -32.2770 H   0  0  0  0  0  0  0  0  0  0  0  0
   -8.1910   18.1100  -33.2540 H   0  0  0  0  0  0  0  0  0  0  0  0
   -7.1506   17.7850  -31.8115 H   0  0  0  0  0  0  0  0  0  0  0  0
   -9.5249   19.9523  -32.5602 H   0  0  0  0  0  0  0  0  0  0  0  0
   -9.6739   22.3643  -31.8580 H   0  0  0  0  0  0  0  0  0  0  0  0
   -8.0827   24.5925  -31.0087 H   0  0  0  0  0  0  0  0  0  0  0  0
   -3.4940   26.0330  -31.2200 H   0  0  0  0  0  0  0  0  0  0  0  0
   -1.7194   20.9584  -29.0011 H   0  0  0  0  0  0  0  0  0  0  0  0
   -2.3086   20.2749  -30.5543 H   0  0  0  0  0  0  0  0  0  0  0  0
   -1.2728   21.7425  -30.5543 H   0  0  0  0  0  0  0  0  0  0  0  0
   -3.1574   21.9806  -27.8326 H   0  0  0  0  0  0  0  0  0  0  0  0
   -3.8545   23.4864  -28.5204 H   0  0  0  0  0  0  0  0  0  0  0  0
   -4.8168   21.9696  -28.5204 H   0  0  0  0  0  0  0  0  0  0  0  0
   -5.2048   20.0569  -31.9852 H   0  0  0  0  0  0  0  0  0  0  0  0
  1  2  1  0
  2  3  1  0
  3  4  2  0
  4  5  1  0
  5  6  2  0
  6  7  1  0
  7  8  2  0
  8  9  1  0
  9 10  1  0
 10 11  1  0
 11 12  2  0
 11 13  1  0
 13 14  1  0
 14 15  2  0
 15 16  1  0
 16 17  2  0
 17 18  1  0
 18 19  2  0
 19 20  1  0
 20 21  1  0
 20 22  2  0
 19 23  1  0
 23 24  1  0
 24 25  2  0
 24 26  1  0
 26 27  1  0
 26 28  1  0
 23 29  1  0
 29 30  2  0
  8  3  1  0
 30 14  1  0
 29 17  1  0
  1 31  1  0
  1 32  1  0
  1 33  1  0
  4 34  1  0
  5 35  1  0
  6 36  1  0
  7 37  1  0
  9 38  1  0
  9 39  1  0
 10 40  1  0
 13 41  1  0
 13 42  1  0
 15 43  1  0
 16 44  1  0
 18 45  1  0
 21 46  1  0
 27 47  1  0
 27 48  1  0
 27 49  1  0
 28 50  1  0
 28 51  1  0
 28 52  1  0
 30 53  1  0
M  CHG  1  21  -1
M  END
>  <UniqueID>  (40) 
40

>  <SMILES>  (40) 
COc1ccccc1CNC(=O)Cc1ccc2cc(C([NH-])=O)n(C(=O)N(C)C)c2c1

>  <Energy>  (40) 
87.12596733384633

>  <Genealogy>  (40) 
COc1ccccc1CNC(=O)Cc1ccc2cc(C([NH-])=O)n(C(=O)N(C)C)c2c1 (protonated)
COc1ccccc1CNC(=O)Cc1ccc2cc(C([NH-])=O)n(C(=O)N(C)C)c2c1 (3D coordinates assigned)
COc1ccccc1CNC(=O)Cc1ccc2cc(C([NH-])=O)n(C(=O)N(C)C)c2c1 (optimized conformer: 87.12596733384633 kcal/mol)

>  <smiles>  (40) 
COc1ccccc1CNC(=O)Cc1ccc2cc(C(N)=O)n(C(=O)N(C)C)c2c1

>  <score_type>  (40) 
oracle

>  <origin>  (40) 
adg

>  <m_score__min__energy>  (40) 
-11.58

>  <m_primary>  (40) 
energy

$$$$
40:0
     RDKit          3D

 33 35  0  0  0  0  0  0  0  0999 V2000
   -8.4970   20.4350  -31.8630 C   0  0  0  0  0  0  0  0  0  0  0  0
   -8.0890   19.8260  -33.0820 O   0  0  0  0  0  0  0  0  0  0  0  0
   -6.7660   19.4520  -33.3320 C   0  0  0  0  0  0  0  0  0  0  0  0
   -6.5090   18.4840  -34.2490 N   0  0  0  0  0  0  0  0  0  0  0  0
   -5.2350   18.1010  -34.5200 C   0  0  0  0  0  0  0  0  0  0  0  0
   -4.1680   18.7000  -33.8530 C   0  0  0  0  0  0  0  0  0  0  0  0
   -4.4400   19.6940  -32.8990 C   0  0  0  0  0  0  0  0  0  0  0  0
   -3.3560   20.3840  -32.1520 C   0  0  0  0  0  0  0  0  0  0  0  0
   -2.0710   19.7960  -32.0080 C   0  0  0  0  0  0  0  0  0  0  0  0
   -1.0590   20.4460  -31.2810 C   0  0  0  0  0  0  0  0  0  0  0  0
   -1.3540   21.6800  -30.7120 C   0  0  0  0  0  0  0  0  0  0  0  0
   -0.5720   22.5040  -29.9370 C   0  0  0  0  0  0  0  0  0  0  0  0
   -1.3800   23.5960  -29.6270 C   0  0  0  0  0  0  0  0  0  0  0  0
   -0.9000   24.7730  -28.8720 C   0  0  0  0  0  0  0  0  0  0  0  0
   -1.6070   26.0090  -28.9120 N   0  0  0  0  0  0  0  0  0  0  0  0
    0.1770   24.6990  -28.2220 O   0  0  0  0  0  0  0  0  0  0  0  0
   -2.6170   23.4470  -30.1810 N   0  0  0  0  0  0  0  0  0  0  0  0
   -3.7620   24.3030  -30.0270 C   0  0  0  0  0  0  0  0  0  0  0  0
   -4.6960   23.9810  -29.2460 O   0  0  0  0  0  0  0  0  0  0  0  0
   -3.8600   25.4800  -30.7570 O   0  0  0  0  0  0  0  0  0  0  0  0
   -2.5830   22.2700  -30.8440 C   0  0  0  0  0  0  0  0  0  0  0  0
   -3.6160   21.6360  -31.5440 C   0  0  0  0  0  0  0  0  0  0  0  0
   -5.7360   20.0470  -32.6710 N   0  0  0  0  0  0  0  0  0  0  0  0
   -8.1075   19.8536  -31.0143 H   0  0  0  0  0  0  0  0  0  0  0  0
   -8.1033   21.4611  -31.8160 H   0  0  0  0  0  0  0  0  0  0  0  0
   -9.5957   20.4613  -31.8160 H   0  0  0  0  0  0  0  0  0  0  0  0
   -5.0446   17.3166  -35.2673 H   0  0  0  0  0  0  0  0  0  0  0  0
   -3.1322   18.3998  -34.0697 H   0  0  0  0  0  0  0  0  0  0  0  0
   -1.8654   18.8197  -32.4713 H   0  0  0  0  0  0  0  0  0  0  0  0
   -0.0636   19.9923  -31.1656 H   0  0  0  0  0  0  0  0  0  0  0  0
    0.4702   22.3366  -29.6275 H   0  0  0  0  0  0  0  0  0  0  0  0
   -2.6500   26.0290  -28.9690 H   0  0  0  0  0  0  0  0  0  0  0  0
   -4.6099   22.1011  -31.6203 H   0  0  0  0  0  0  0  0  0  0  0  0
  1  2  1  0
  2  3  1  0
  3  4  2  0
  4  5  1  0
  5  6  2  0
  6  7  1  0
  7  8  1  0
  8  9  2  0
  9 10  1  0
 10 11  2  0
 11 12  1  0
 12 13  2  0
 13 14  1  0
 14 15  1  0
 14 16  2  0
 13 17  1  0
 17 18  1  0
 18 19  2  0
 18 20  1  0
 17 21  1  0
 21 22  2  0
  7 23  2  0
 23  3  1  0
 22  8  1  0
 21 11  1  0
  1 24  1  0
  1 25  1  0
  1 26  1  0
  5 27  1  0
  6 28  1  0
  9 29  1  0
 10 30  1  0
 12 31  1  0
 15 32  1  0
 22 33  1  0
M  CHG  2  15  -1  20  -1
M  END
>  <UniqueID>  (41) 
41

>  <SMILES>  (41) 
COc1nccc(-c2ccc3cc(C([NH-])=O)n(C(=O)[O-])c3c2)n1

>  <Energy>  (41) 
78.41899508839663

>  <Genealogy>  (41) 
COc1nccc(-c2ccc3cc(C([NH-])=O)n(C(=O)[O-])c3c2)n1 (protonated)
COc1nccc(-c2ccc3cc(C([NH-])=O)n(C(=O)[O-])c3c2)n1 (3D coordinates assigned)
COc1nccc(-c2ccc3cc(C([NH-])=O)n(C(=O)[O-])c3c2)n1 (optimized conformer: 78.41899508839663 kcal/mol)

>  <smiles>  (41) 
COc1nccc(-c2ccc3cc(C(N)=O)n(C(=O)O)c3c2)n1

>  <score_type>  (41) 
oracle

>  <origin>  (41) 
adg

>  <m_score__min__energy>  (41) 
-11.17

>  <m_primary>  (41) 
energy

$$$$
41:0
     RDKit          3D

 37 38  0  0  0  0  0  0  0  0999 V2000
   -5.7130   16.8110  -31.9840 C   0  0  0  0  0  0  0  0  0  0  0  0
   -6.5450   17.8400  -31.2280 C   0  0  0  0  0  0  0  0  0  0  0  0
   -7.4170   18.5290  -32.1210 O   0  0  0  0  0  0  0  0  0  0  0  0
   -7.2240   19.8600  -32.5130 C   0  0  0  0  0  0  0  0  0  0  0  0
   -7.9540   20.7760  -32.0470 O   0  0  0  0  0  0  0  0  0  0  0  0
   -6.0960   20.2150  -33.4440 C   0  0  2  0  0  0  0  0  0  0  0  0
   -5.7580   19.0560  -34.3890 C   0  0  0  0  0  0  0  0  0  0  0  0
   -4.8750   20.6430  -32.6560 C   0  0  0  0  0  0  0  0  0  0  0  0
   -3.7390   19.7960  -32.5990 C   0  0  0  0  0  0  0  0  0  0  0  0
   -2.5930   20.1780  -31.8840 C   0  0  0  0  0  0  0  0  0  0  0  0
   -2.6110   21.4050  -31.2280 C   0  0  0  0  0  0  0  0  0  0  0  0
   -1.6250   22.0300  -30.5010 C   0  0  0  0  0  0  0  0  0  0  0  0
   -2.1810   23.2390  -30.0930 C   0  0  0  0  0  0  0  0  0  0  0  0
   -1.4770   24.2050  -29.2280 C   0  0  0  0  0  0  0  0  0  0  0  0
   -2.1700   25.2970  -28.6220 N   0  0  0  0  0  0  0  0  0  0  0  0
   -0.2560   24.0310  -28.9710 O   0  0  0  0  0  0  0  0  0  0  0  0
   -3.4560   23.3660  -30.5590 N   0  0  0  0  0  0  0  0  0  0  0  0
   -4.3080   24.5210  -30.4610 C   0  0  0  0  0  0  0  0  0  0  0  0
   -3.8640   25.6670  -30.7280 O   0  0  0  0  0  0  0  0  0  0  0  0
   -5.6320   24.3810  -30.0640 O   0  0  0  0  0  0  0  0  0  0  0  0
   -3.7050   22.2290  -31.2490 C   0  0  0  0  0  0  0  0  0  0  0  0
   -4.8550   21.8810  -31.9680 C   0  0  0  0  0  0  0  0  0  0  0  0
   -5.1894   16.1634  -31.2654 H   0  0  0  0  0  0  0  0  0  0  0  0
   -6.3730   16.1988  -32.6161 H   0  0  0  0  0  0  0  0  0  0  0  0
   -4.9761   17.3282  -32.6161 H   0  0  0  0  0  0  0  0  0  0  0  0
   -7.1436   17.3282  -30.4601 H   0  0  0  0  0  0  0  0  0  0  0  0
   -5.8686   18.5688  -30.7575 H   0  0  0  0  0  0  0  0  0  0  0  0
   -6.4259   21.0599  -34.0663 H   0  0  0  0  0  0  0  0  0  0  0  0
   -5.4982   18.1651  -33.7983 H   0  0  0  0  0  0  0  0  0  0  0  0
   -6.6289   18.8342  -35.0233 H   0  0  0  0  0  0  0  0  0  0  0  0
   -4.9044   19.3371  -35.0233 H   0  0  0  0  0  0  0  0  0  0  0  0
   -3.7561   18.8281  -33.1213 H   0  0  0  0  0  0  0  0  0  0  0  0
   -1.7073   19.5269  -31.8435 H   0  0  0  0  0  0  0  0  0  0  0  0
   -0.6133   21.6547  -30.2876 H   0  0  0  0  0  0  0  0  0  0  0  0
   -1.6480   25.9920  -28.0420 H   0  0  0  0  0  0  0  0  0  0  0  0
   -3.2090   25.3750  -28.6790 H   0  0  0  0  0  0  0  0  0  0  0  0
   -5.7242   22.5545  -31.9979 H   0  0  0  0  0  0  0  0  0  0  0  0
  1  2  1  0
  2  3  1  0
  3  4  1  0
  4  5  2  0
  4  6  1  0
  6  7  1  0
  6  8  1  0
  8  9  2  0
  9 10  1  0
 10 11  2  0
 11 12  1  0
 12 13  2  0
 13 14  1  0
 14 15  1  0
 14 16  2  0
 13 17  1  0
 17 18  1  0
 18 19  2  0
 18 20  1  0
 17 21  1  0
 21 22  2  0
 22  8  1  0
 21 11  1  0
  1 23  1  0
  1 24  1  0
  1 25  1  0
  2 26  1  0
  2 27  1  0
  6 28  1  6
  7 29  1  0
  7 30  1  0
  7 31  1  0
  9 32  1  0
 10 33  1  0
 12 34  1  0
 15 35  1  0
 15 36  1  0
 22 37  1  0
M  CHG  1  20  -1
M  END
>  <UniqueID>  (42) 
42

>  <SMILES>  (42) 
CCOC(=O)[C@H](C)c1ccc2cc(C(N)=O)n(C(=O)[O-])c2c1

>  <Energy>  (42) 
70.31415796149594

>  <Genealogy>  (42) 
CCOC(=O)C(C)c1ccc2cc(C(N)=O)n(C(=O)[O-])c2c1 (protonated)
CCOC(=O)[C@H](C)c1ccc2cc(C(N)=O)n(C(=O)[O-])c2c1 (chirality)
CCOC(=O)[C@H](C)c1ccc2cc(C(N)=O)n(C(=O)[O-])c2c1 (3D coordinates assigned)
CCOC(=O)[C@H](C)c1ccc2cc(C(N)=O)n(C(=O)[O-])c2c1 (optimized conformer: 70.31415796149594 kcal/mol)

>  <smiles>  (42) 
CCOC(=O)C(C)c1ccc2cc(C(N)=O)n(C(=O)O)c2c1

>  <score_type>  (42) 
oracle

>  <origin>  (42) 
adg

>  <m_score__min__energy>  (42) 
-8.8800000000000008

>  <m_primary>  (42) 
energy

$$$$
42:0
     RDKit          3D

 37 38  0  0  0  0  0  0  0  0999 V2000
   -4.2060   24.7020  -26.7920 C   0  0  0  0  0  0  0  0  0  0  0  0
   -2.9370   23.9220  -27.8410 S   0  0  0  0  0  0  0  0  0  0  0  0
   -3.7720   22.2990  -27.9890 C   0  0  0  0  0  0  0  0  0  0  0  0
   -2.9600   21.3500  -28.8640 C   0  0  0  0  0  0  0  0  0  0  0  0
   -3.4700   21.3570  -30.1910 O   0  0  0  0  0  0  0  0  0  0  0  0
   -3.8560   22.5250  -30.8530 C   0  0  0  0  0  0  0  0  0  0  0  0
   -2.9850   23.3180  -31.3030 O   0  0  0  0  0  0  0  0  0  0  0  0
   -5.2520   22.8050  -31.0410 N   0  0  0  0  0  0  0  0  0  0  0  0
   -5.8980   23.9970  -30.8940 C   0  0  0  0  0  0  0  0  0  0  0  0
   -5.3040   25.2490  -30.3760 C   0  0  0  0  0  0  0  0  0  0  0  0
   -4.0260   25.6730  -30.8440 N   0  0  0  0  0  0  0  0  0  0  0  0
   -5.9300   25.9680  -29.5540 O   0  0  0  0  0  0  0  0  0  0  0  0
   -7.2470   23.8660  -31.2160 C   0  0  0  0  0  0  0  0  0  0  0  0
   -7.4130   22.5440  -31.5590 C   0  0  0  0  0  0  0  0  0  0  0  0
   -8.5570   21.8620  -31.9620 C   0  0  0  0  0  0  0  0  0  0  0  0
   -8.4360   20.4970  -32.2720 C   0  0  0  0  0  0  0  0  0  0  0  0
   -7.1780   19.8480  -32.1910 C   0  0  0  0  0  0  0  0  0  0  0  0
   -7.0640   18.3840  -32.5100 C   0  0  0  0  0  0  0  0  0  0  0  0
   -6.3470   18.1950  -33.8080 C   0  0  0  0  0  0  0  0  0  0  0  0
   -6.0650   19.1900  -34.5260 O   0  0  0  0  0  0  0  0  0  0  0  0
   -5.9500   16.9250  -34.2040 O   0  0  0  0  0  0  0  0  0  0  0  0
   -6.0410   20.5710  -31.7670 C   0  0  0  0  0  0  0  0  0  0  0  0
   -6.1950   21.9250  -31.4460 C   0  0  0  0  0  0  0  0  0  0  0  0
   -3.9527   24.5463  -25.7330 H   0  0  0  0  0  0  0  0  0  0  0  0
   -4.2455   25.7805  -27.0048 H   0  0  0  0  0  0  0  0  0  0  0  0
   -5.1861   24.2502  -27.0048 H   0  0  0  0  0  0  0  0  0  0  0  0
   -3.8845   21.8586  -26.9873 H   0  0  0  0  0  0  0  0  0  0  0  0
   -4.7575   22.4506  -28.4535 H   0  0  0  0  0  0  0  0  0  0  0  0
   -1.9090   21.6745  -28.8758 H   0  0  0  0  0  0  0  0  0  0  0  0
   -3.0309   20.3314  -28.4549 H   0  0  0  0  0  0  0  0  0  0  0  0
   -3.1480   25.2950  -30.4230 H   0  0  0  0  0  0  0  0  0  0  0  0
   -8.0160   24.6524  -31.1995 H   0  0  0  0  0  0  0  0  0  0  0  0
   -9.5267   22.3760  -32.0356 H   0  0  0  0  0  0  0  0  0  0  0  0
   -9.3248   19.9269  -32.5802 H   0  0  0  0  0  0  0  0  0  0  0  0
   -6.5044   17.8796  -31.7085 H   0  0  0  0  0  0  0  0  0  0  0  0
   -8.0731   17.9535  -32.5903 H   0  0  0  0  0  0  0  0  0  0  0  0
   -5.0586   20.0821  -31.6909 H   0  0  0  0  0  0  0  0  0  0  0  0
  1  2  1  0
  2  3  1  0
  3  4  1  0
  4  5  1  0
  5  6  1  0
  6  7  2  0
  6  8  1  0
  8  9  1  0
  9 10  1  0
 10 11  1  0
 10 12  2  0
  9 13  2  0
 13 14  1  0
 14 15  2  0
 15 16  1  0
 16 17  2  0
 17 18  1  0
 18 19  1  0
 19 20  2  0
 19 21  1  0
 17 22  1  0
 22 23  2  0
 23  8  1  0
 23 14  1  0
  1 24  1  0
  1 25  1  0
  1 26  1  0
  3 27  1  0
  3 28  1  0
  4 29  1  0
  4 30  1  0
 11 31  1  0
 13 32  1  0
 15 33  1  0
 16 34  1  0
 18 35  1  0
 18 36  1  0
 22 37  1  0
M  CHG  2  11  -1  21  -1
M  END
>  <UniqueID>  (43) 
43

>  <SMILES>  (43) 
CSCCOC(=O)n1c(C([NH-])=O)cc2ccc(CC(=O)[O-])cc21

>  <Energy>  (43) 
65.88550182060658

>  <Genealogy>  (43) 
CSCCOC(=O)n1c(C([NH-])=O)cc2ccc(CC(=O)[O-])cc21 (protonated)
CSCCOC(=O)n1c(C([NH-])=O)cc2ccc(CC(=O)[O-])cc21 (3D coordinates assigned)
CSCCOC(=O)n1c(C([NH-])=O)cc2ccc(CC(=O)[O-])cc21 (optimized conformer: 65.88550182060658 kcal/mol)

>  <smiles>  (43) 
CSCCOC(=O)n1c(C(N)=O)cc2ccc(CC(=O)O)cc21

>  <score_type>  (43) 
oracle

>  <origin>  (43) 
adg

>  <m_score__min__energy>  (43) 
-9.4600000000000009

>  <m_primary>  (43) 
energy

$$$$
43:0
     RDKit          3D

 31 32  0  0  0  0  0  0  0  0999 V2000
   -5.3600   24.7840  -29.0200 N   0  0  0  0  0  0  0  0  0  0  0  0
   -4.6400   24.6270  -30.2430 C   0  0  0  0  0  0  0  0  0  0  0  0
   -4.2300   25.6510  -30.8530 O   0  0  0  0  0  0  0  0  0  0  0  0
   -4.4230   23.2940  -30.8390 C   0  0  0  0  0  0  0  0  0  0  0  0
   -3.1700   22.8140  -31.2040 C   0  0  0  0  0  0  0  0  0  0  0  0
   -3.4040   21.5780  -31.7630 C   0  0  0  0  0  0  0  0  0  0  0  0
   -2.5080   20.6430  -32.2640 C   0  0  0  0  0  0  0  0  0  0  0  0
   -3.0190   19.4240  -32.7340 C   0  0  0  0  0  0  0  0  0  0  0  0
   -4.4160   19.1550  -32.7130 C   0  0  0  0  0  0  0  0  0  0  0  0
   -4.9260   17.7930  -33.1670 C   0  0  0  0  0  0  0  0  0  0  0  0
   -6.1850   17.1080  -32.0980 Cl  0  0  0  0  0  0  0  0  0  0  0  0
   -3.4410   16.5510  -33.2190 Br  0  0  0  0  0  0  0  0  0  0  0  0
   -5.7190   17.8830  -34.9410 Br  0  0  0  0  0  0  0  0  0  0  0  0
   -5.2890   20.1250  -32.1540 C   0  0  0  0  0  0  0  0  0  0  0  0
   -4.7530   21.3430  -31.7150 C   0  0  0  0  0  0  0  0  0  0  0  0
   -5.3950   22.3890  -31.1450 N   0  0  0  0  0  0  0  0  0  0  0  0
   -6.7920   22.4690  -30.8140 C   0  0  0  0  0  0  0  0  0  0  0  0
   -7.1460   22.6080  -29.6120 O   0  0  0  0  0  0  0  0  0  0  0  0
   -7.7460   22.3940  -31.8390 O   0  0  0  0  0  0  0  0  0  0  0  0
   -8.8350   21.5130  -31.8610 C   0  0  0  0  0  0  0  0  0  0  0  0
   -9.9640   21.8570  -31.4160 O   0  0  0  0  0  0  0  0  0  0  0  0
   -8.6350   20.1190  -32.3620 C   0  0  0  0  0  0  0  0  0  0  0  0
   -7.7780   20.1250  -33.4470 F   0  0  0  0  0  0  0  0  0  0  0  0
   -9.8470   19.5750  -32.7500 F   0  0  0  0  0  0  0  0  0  0  0  0
   -8.0890   19.3450  -31.3560 F   0  0  0  0  0  0  0  0  0  0  0  0
   -5.4650   25.7300  -28.5910 H   0  0  0  0  0  0  0  0  0  0  0  0
   -5.8540   23.9780  -28.5780 H   0  0  0  0  0  0  0  0  0  0  0  0
   -2.1993   23.3149  -31.0739 H   0  0  0  0  0  0  0  0  0  0  0  0
   -1.4284   20.8521  -32.2916 H   0  0  0  0  0  0  0  0  0  0  0  0
   -2.3278   18.6631  -33.1255 H   0  0  0  0  0  0  0  0  0  0  0  0
   -6.3670   19.9240  -32.0670 H   0  0  0  0  0  0  0  0  0  0  0  0
  1  2  1  0
  2  3  2  0
  2  4  1  0
  4  5  2  0
  5  6  1  0
  6  7  2  0
  7  8  1  0
  8  9  2  0
  9 10  1  0
 10 11  1  0
 10 12  1  0
 10 13  1  0
  9 14  1  0
 14 15  2  0
 15 16  1  0
 16 17  1  0
 17 18  2  0
 17 19  1  0
 19 20  1  0
 20 21  2  0
 20 22  1  0
 22 23  1  0
 22 24  1  0
 22 25  1  0
 16  4  1  0
 15  6  1  0
  1 26  1  0
  1 27  1  0
  5 28  1  0
  7 29  1  0
  8 30  1  0
 14 31  1  0
M  END
>  <UniqueID>  (44) 
44

>  <SMILES>  (44) 
NC(=O)c1cc2ccc(C(Cl)(Br)Br)cc2n1C(=O)OC(=O)C(F)(F)F

>  <Energy>  (44) 
73.84691312326648

>  <Genealogy>  (44) 
NC(=O)c1cc2ccc(C(Cl)(Br)Br)cc2n1C(=O)OC(=O)C(F)(F)F (3D coordinates assigned)
NC(=O)c1cc2ccc(C(Cl)(Br)Br)cc2n1C(=O)OC(=O)C(F)(F)F (optimized conformer: 73.84691312326648 kcal/mol)

>  <smiles>  (44) 
NC(=O)c1cc2ccc(C(Cl)(Br)Br)cc2n1C(=O)OC(=O)C(F)(F)F

>  <score_type>  (44) 
oracle

>  <origin>  (44) 
adg

>  <m_score__min__energy>  (44) 
-8.6300000000000008

>  <m_primary>  (44) 
energy

$$$$
44:0
     RDKit          3D

 65 67  0  0  0  0  0  0  0  0999 V2000
    2.0550   24.6160  -24.5790 C   0  0  0  0  0  0  0  0  0  0  0  0
    0.6950   24.8020  -25.2710 C   0  0  0  0  0  0  0  0  0  0  0  0
    0.7890   25.9910  -26.2480 C   0  0  0  0  0  0  0  0  0  0  0  0
   -0.3810   25.0620  -24.1980 C   0  0  0  0  0  0  0  0  0  0  0  0
    0.4160   23.5870  -25.9800 O   0  0  0  0  0  0  0  0  0  0  0  0
   -0.6710   22.7230  -25.7710 C   0  0  0  0  0  0  0  0  0  0  0  0
   -0.7010   21.9870  -24.7470 O   0  0  0  0  0  0  0  0  0  0  0  0
   -1.7860   22.7460  -26.7000 N   0  0  0  0  0  0  0  0  0  0  0  0
   -2.0640   21.4660  -27.3860 C   0  0  0  0  0  0  0  0  0  0  0  0
   -1.8500   21.5710  -28.9040 C   0  0  0  0  0  0  0  0  0  0  0  0
   -3.1040   21.5770  -29.5850 O   0  0  0  0  0  0  0  0  0  0  0  0
   -3.4750   22.5570  -30.5110 C   0  0  0  0  0  0  0  0  0  0  0  0
   -2.6110   23.3350  -31.0010 O   0  0  0  0  0  0  0  0  0  0  0  0
   -4.8470   22.6630  -30.9220 N   0  0  0  0  0  0  0  0  0  0  0  0
   -5.6630   23.7520  -30.8330 C   0  0  0  0  0  0  0  0  0  0  0  0
   -5.2560   25.1090  -30.4140 C   0  0  0  0  0  0  0  0  0  0  0  0
   -4.0010   25.6340  -30.8370 N   0  0  0  0  0  0  0  0  0  0  0  0
   -5.9940   25.8000  -29.6620 O   0  0  0  0  0  0  0  0  0  0  0  0
   -6.9510   23.4350  -31.2630 C   0  0  0  0  0  0  0  0  0  0  0  0
   -6.8970   22.1080  -31.6230 C   0  0  0  0  0  0  0  0  0  0  0  0
   -7.9000   21.2700  -32.1050 C   0  0  0  0  0  0  0  0  0  0  0  0
   -7.5700   19.9250  -32.3550 C   0  0  0  0  0  0  0  0  0  0  0  0
   -6.2590   19.4530  -32.1110 C   0  0  0  0  0  0  0  0  0  0  0  0
   -5.9380   18.0700  -32.3450 C   0  0  0  0  0  0  0  0  0  0  0  0
   -5.6630   16.9110  -32.5360 C   0  0  0  0  0  0  0  0  0  0  0  0
   -5.3200   15.5030  -32.7610 C   0  0  0  0  0  0  0  0  0  0  0  0
   -4.9470   14.9000  -31.5520 O   0  0  0  0  0  0  0  0  0  0  0  0
   -5.2660   20.3280  -31.6270 C   0  0  0  0  0  0  0  0  0  0  0  0
   -5.6170   21.6650  -31.4060 C   0  0  0  0  0  0  0  0  0  0  0  0
   -2.3310   24.0180  -27.2750 C   0  0  0  0  0  0  0  0  0  0  0  0
   -1.4610   24.6330  -28.3730 C   0  0  0  0  0  0  0  0  0  0  0  0
   -0.1420   24.1480  -28.6490 N   0  0  0  0  0  0  0  0  0  0  0  0
   -1.8420   25.6840  -28.9500 O   0  0  0  0  0  0  0  0  0  0  0  0
   -2.7680   24.9840  -26.1590 C   0  0  0  0  0  0  0  0  0  0  0  0
   -4.2040   24.9290  -26.6720 C   0  0  0  0  0  0  0  0  0  0  0  0
   -3.7890   23.9530  -27.7730 C   0  0  0  0  0  0  0  0  0  0  0  0
    1.9168   24.6349  -23.4879 H   0  0  0  0  0  0  0  0  0  0  0  0
    2.4890   23.6501  -24.8770 H   0  0  0  0  0  0  0  0  0  0  0  0
    2.7324   25.4299  -24.8770 H   0  0  0  0  0  0  0  0  0  0  0  0
    0.8631   26.9289  -25.6781 H   0  0  0  0  0  0  0  0  0  0  0  0
    1.6808   25.8754  -26.8815 H   0  0  0  0  0  0  0  0  0  0  0  0
   -0.1099   26.0170  -26.8815 H   0  0  0  0  0  0  0  0  0  0  0  0
    0.0647   24.9543  -23.1981 H   0  0  0  0  0  0  0  0  0  0  0  0
   -0.7768   26.0816  -24.3151 H   0  0  0  0  0  0  0  0  0  0  0  0
   -1.1987   24.3356  -24.3151 H   0  0  0  0  0  0  0  0  0  0  0  0
   -1.3911   20.6940  -26.9846 H   0  0  0  0  0  0  0  0  0  0  0  0
   -3.1177   21.2055  -27.2076 H   0  0  0  0  0  0  0  0  0  0  0  0
   -1.3105   22.5025  -29.1302 H   0  0  0  0  0  0  0  0  0  0  0  0
   -1.2650   20.7031  -29.2423 H   0  0  0  0  0  0  0  0  0  0  0  0
   -3.1070   25.2870  -30.4250 H   0  0  0  0  0  0  0  0  0  0  0  0
   -7.8239   24.1031  -31.3054 H   0  0  0  0  0  0  0  0  0  0  0  0
   -8.9175   21.6476  -32.2845 H   0  0  0  0  0  0  0  0  0  0  0  0
   -8.3358   19.2369  -32.7423 H   0  0  0  0  0  0  0  0  0  0  0  0
   -6.1928   14.9775  -33.1758 H   0  0  0  0  0  0  0  0  0  0  0  0
   -4.4786   15.4454  -33.4672 H   0  0  0  0  0  0  0  0  0  0  0  0
   -5.3510   15.4470  -30.8260 H   0  0  0  0  0  0  0  0  0  0  0  0
   -4.2447   19.9708  -31.4286 H   0  0  0  0  0  0  0  0  0  0  0  0
    0.4030   24.5460  -29.4480 H   0  0  0  0  0  0  0  0  0  0  0  0
    0.3320   23.4500  -28.0360 H   0  0  0  0  0  0  0  0  0  0  0  0
   -2.6388   24.5836  -25.1426 H   0  0  0  0  0  0  0  0  0  0  0  0
   -2.2600   25.9511  -26.0299 H   0  0  0  0  0  0  0  0  0  0  0  0
   -4.9207   24.5101  -25.9503 H   0  0  0  0  0  0  0  0  0  0  0  0
   -4.7341   25.8579  -26.9291 H   0  0  0  0  0  0  0  0  0  0  0  0
   -4.2492   22.9575  -27.6884 H   0  0  0  0  0  0  0  0  0  0  0  0
   -4.0293   24.1639  -28.8255 H   0  0  0  0  0  0  0  0  0  0  0  0
  1  2  1  0
  2  3  1  0
  2  4  1  0
  2  5  1  0
  5  6  1  0
  6  7  2  0
  6  8  1  0
  8  9  1  0
  9 10  1  0
 10 11  1  0
 11 12  1  0
 12 13  2  0
 12 14  1  0
 14 15  1  0
 15 16  1  0
 16 17  1  0
 16 18  2  0
 15 19  2  0
 19 20  1  0
 20 21  2  0
 21 22  1  0
 22 23  2  0
 23 24  1  0
 24 25  3  0
 25 26  1  0
 26 27  1  0
 23 28  1  0
 28 29  2  0
  8 30  1  0
 30 31  1  0
 31 32  1  0
 31 33  2  0
 30 34  1  0
 34 35  1  0
 35 36  1  0
 29 14  1  0
 36 30  1  0
 29 20  1  0
  1 37  1  0
  1 38  1  0
  1 39  1  0
  3 40  1  0
  3 41  1  0
  3 42  1  0
  4 43  1  0
  4 44  1  0
  4 45  1  0
  9 46  1  0
  9 47  1  0
 10 48  1  0
 10 49  1  0
 17 50  1  0
 19 51  1  0
 21 52  1  0
 22 53  1  0
 26 54  1  0
 26 55  1  0
 27 56  1  0
 28 57  1  0
 32 58  1  0
 32 59  1  0
 34 60  1  0
 34 61  1  0
 35 62  1  0
 35 63  1  0
 36 64  1  0
 36 65  1  0
M  CHG  1  17  -1
M  END
>  <UniqueID>  (45) 
45

>  <SMILES>  (45) 
CC(C)(C)OC(=O)N(CCOC(=O)n1c(C([NH-])=O)cc2ccc(C#CCO)cc21)C1(C(N)=O)CCC1

>  <Energy>  (45) 
163.2293283412582

>  <Genealogy>  (45) 
CC(C)(C)OC(=O)N(CCOC(=O)n1c(C([NH-])=O)cc2ccc(C#CCO)cc21)C1(C(N)=O)CCC1 (protonated)
CC(C)(C)OC(=O)N(CCOC(=O)n1c(C([NH-])=O)cc2ccc(C#CCO)cc21)C1(C(N)=O)CCC1 (3D coordinates assigned)
CC(C)(C)OC(=O)N(CCOC(=O)n1c(C([NH-])=O)cc2ccc(C#CCO)cc21)C1(C(N)=O)CCC1 (nonaromatic ring conformer: 163.2293283412582 kcal/mol)

>  <smiles>  (45) 
CC(C)(C)OC(=O)N(CCOC(=O)n1c(C(N)=O)cc2ccc(C#CCO)cc21)C1(C(N)=O)CCC1

>  <score_type>  (45) 
oracle

>  <origin>  (45) 
adg

>  <m_score__min__energy>  (45) 
-11.67

>  <m_primary>  (45) 
energy

$$$$
45:0
     RDKit          3D

 34 36  0  0  0  0  0  0  0  0999 V2000
   -3.4360   22.1570  -30.0200 C   0  0  0  0  0  0  0  0  0  0  0  0
   -4.2020   22.4050  -31.2810 C   0  0  0  0  0  0  0  0  0  0  0  0
   -3.6460   22.1920  -32.3910 O   0  0  0  0  0  0  0  0  0  0  0  0
   -5.5810   22.7990  -31.2390 N   0  0  0  0  0  0  0  0  0  0  0  0
   -6.1050   23.9920  -30.8390 C   0  0  0  0  0  0  0  0  0  0  0  0
   -5.3350   25.2070  -30.5030 C   0  0  0  0  0  0  0  0  0  0  0  0
   -3.9260   25.2610  -30.7080 N   0  0  0  0  0  0  0  0  0  0  0  0
   -5.9350   26.2260  -30.0670 O   0  0  0  0  0  0  0  0  0  0  0  0
   -7.4990   23.9430  -30.8600 C   0  0  0  0  0  0  0  0  0  0  0  0
   -7.8130   22.6770  -31.3000 C   0  0  0  0  0  0  0  0  0  0  0  0
   -9.0540   22.0770  -31.4970 C   0  0  0  0  0  0  0  0  0  0  0  0
   -9.0770   20.7410  -31.9320 C   0  0  0  0  0  0  0  0  0  0  0  0
   -7.8690   20.0380  -32.1690 C   0  0  0  0  0  0  0  0  0  0  0  0
   -7.9070   18.5930  -32.5800 C   0  0  0  0  0  0  0  0  0  0  0  0
   -6.7040   18.2640  -33.3410 N   0  0  0  0  0  0  0  0  0  0  0  0
   -6.4270   18.7100  -34.5570 N   0  0  0  0  0  0  0  0  0  0  0  0
   -5.3110   18.1680  -35.0250 N   0  0  0  0  0  0  0  0  0  0  0  0
   -4.8650   17.3340  -34.0640 C   0  0  0  0  0  0  0  0  0  0  0  0
   -3.4260   16.3450  -34.1860 Cl  0  0  0  0  0  0  0  0  0  0  0  0
   -5.7440   17.3880  -33.0060 C   0  0  0  0  0  0  0  0  0  0  0  0
   -5.6890   16.6770  -31.8530 F   0  0  0  0  0  0  0  0  0  0  0  0
   -6.6290   20.6760  -31.9480 C   0  0  0  0  0  0  0  0  0  0  0  0
   -6.6380   22.0090  -31.5240 C   0  0  0  0  0  0  0  0  0  0  0  0
   -4.0799   22.3655  -29.1528 H   0  0  0  0  0  0  0  0  0  0  0  0
   -3.1091   21.1071  -29.9900 H   0  0  0  0  0  0  0  0  0  0  0  0
   -2.5558   22.8161  -29.9900 H   0  0  0  0  0  0  0  0  0  0  0  0
   -3.4910   26.0460  -31.2420 H   0  0  0  0  0  0  0  0  0  0  0  0
   -8.1987   24.7456  -30.5837 H   0  0  0  0  0  0  0  0  0  0  0  0
   -9.9870   22.6314  -31.3177 H   0  0  0  0  0  0  0  0  0  0  0  0
  -10.0413   20.2360  -32.0901 H   0  0  0  0  0  0  0  0  0  0  0  0
   -7.9563   17.9590  -31.6824 H   0  0  0  0  0  0  0  0  0  0  0  0
   -8.7934   18.4165  -33.2070 H   0  0  0  0  0  0  0  0  0  0  0  0
   -7.0160   19.3890  -35.0890 H   0  0  0  0  0  0  0  0  0  0  0  0
   -5.6817   20.1394  -32.1050 H   0  0  0  0  0  0  0  0  0  0  0  0
  1  2  1  0
  2  3  2  0
  2  4  1  0
  4  5  1  0
  5  6  1  0
  6  7  1  0
  6  8  2  0
  5  9  2  0
  9 10  1  0
 10 11  2  0
 11 12  1  0
 12 13  2  0
 13 14  1  0
 14 15  1  0
 15 16  1  0
 16 17  2  0
 17 18  1  0
 18 19  1  0
 18 20  2  0
 20 21  1  0
 13 22  1  0
 22 23  2  0
 23  4  1  0
 23 10  1  0
 20 15  1  0
  1 24  1  0
  1 25  1  0
  1 26  1  0
  7 27  1  0
  9 28  1  0
 11 29  1  0
 12 30  1  0
 14 31  1  0
 14 32  1  0
 16 33  1  0
 22 34  1  0
M  CHG  2   7  -1  16   1
M  END
>  <UniqueID>  (46) 
46

>  <SMILES>  (46) 
CC(=O)n1c(C([NH-])=O)cc2ccc(Cn3[nH+]nc(Cl)c3F)cc21

>  <Energy>  (46) 
110.2617092400649

>  <Genealogy>  (46) 
CC(=O)n1c(C([NH-])=O)cc2ccc(Cn3[nH+]nc(Cl)c3F)cc21 (protonated)
CC(=O)n1c(C([NH-])=O)cc2ccc(Cn3[nH+]nc(Cl)c3F)cc21 (3D coordinates assigned)
CC(=O)n1c(C([NH-])=O)cc2ccc(Cn3[nH+]nc(Cl)c3F)cc21 (optimized conformer: 110.2617092400649 kcal/mol)

>  <smiles>  (46) 
CC(=O)n1c(C(N)=O)cc2ccc(Cn3nnc(Cl)c3F)cc21

>  <score_type>  (46) 
oracle

>  <origin>  (46) 
adg

>  <m_score__min__energy>  (46) 
-11.449999999999999

>  <m_primary>  (46) 
energy

$$$$
46:0
     RDKit          3D

 35 36  0  0  0  0  0  0  0  0999 V2000
   -2.4580   21.4700  -33.3430 C   0  0  0  0  0  0  0  0  0  0  0  0
   -3.8930   21.2590  -33.1950 N   0  0  0  0  0  0  0  0  0  0  0  0
   -4.4620   19.9440  -33.1520 C   0  0  0  0  0  0  0  0  0  0  0  0
   -3.7270   18.9300  -33.2990 O   0  0  0  0  0  0  0  0  0  0  0  0
   -5.8700   19.7760  -32.9290 N   0  0  0  0  0  0  0  0  0  0  0  0
   -6.6560   18.7280  -33.3050 C   0  0  0  0  0  0  0  0  0  0  0  0
   -6.2400   17.5920  -34.1550 C   0  0  0  0  0  0  0  0  0  0  0  0
   -5.3820   17.7880  -35.2760 N   0  0  0  0  0  0  0  0  0  0  0  0
   -6.6780   16.4360  -33.9090 O   0  0  0  0  0  0  0  0  0  0  0  0
   -7.9550   18.8970  -32.8280 C   0  0  0  0  0  0  0  0  0  0  0  0
   -7.9400   20.0920  -32.1440 C   0  0  0  0  0  0  0  0  0  0  0  0
   -8.9560   20.7370  -31.4460 C   0  0  0  0  0  0  0  0  0  0  0  0
   -8.6450   21.9440  -30.7970 C   0  0  0  0  0  0  0  0  0  0  0  0
   -7.3330   22.4780  -30.8540 C   0  0  0  0  0  0  0  0  0  0  0  0
   -6.9960   23.7460  -30.1120 C   0  0  0  0  0  0  0  0  0  0  0  0
   -5.5480   23.7450  -29.6100 C   0  0  0  0  0  0  0  0  0  0  0  0
   -4.6040   24.2760  -30.6460 C   0  0  0  0  0  0  0  0  0  0  0  0
   -4.3060   25.6680  -30.6930 N   0  0  0  0  0  0  0  0  0  0  0  0
   -4.0990   23.4970  -31.4980 O   0  0  0  0  0  0  0  0  0  0  0  0
   -6.3250   21.7890  -31.5650 C   0  0  0  0  0  0  0  0  0  0  0  0
   -6.6690   20.6010  -32.2180 C   0  0  0  0  0  0  0  0  0  0  0  0
   -1.9930   21.5384  -32.3485 H   0  0  0  0  0  0  0  0  0  0  0  0
   -2.0185   20.6268  -33.8961 H   0  0  0  0  0  0  0  0  0  0  0  0
   -2.2798   22.4040  -33.8961 H   0  0  0  0  0  0  0  0  0  0  0  0
   -4.5230   22.0900  -33.1380 H   0  0  0  0  0  0  0  0  0  0  0  0
   -4.5450   18.4090  -35.2090 H   0  0  0  0  0  0  0  0  0  0  0  0
   -8.8103   18.2196  -32.9682 H   0  0  0  0  0  0  0  0  0  0  0  0
   -9.9711   20.3153  -31.4035 H   0  0  0  0  0  0  0  0  0  0  0  0
   -9.4273   22.4797  -30.2393 H   0  0  0  0  0  0  0  0  0  0  0  0
   -7.1378   24.6022  -30.7879 H   0  0  0  0  0  0  0  0  0  0  0  0
   -7.6604   23.8172  -29.2382 H   0  0  0  0  0  0  0  0  0  0  0  0
   -5.4817   24.3747  -28.7105 H   0  0  0  0  0  0  0  0  0  0  0  0
   -5.2628   22.7067  -29.3849 H   0  0  0  0  0  0  0  0  0  0  0  0
   -3.4890   26.0250  -31.2380 H   0  0  0  0  0  0  0  0  0  0  0  0
   -5.2964   22.1769  -31.6039 H   0  0  0  0  0  0  0  0  0  0  0  0
  1  2  1  0
  2  3  1  0
  3  4  2  0
  3  5  1  0
  5  6  1  0
  6  7  1  0
  7  8  1  0
  7  9  2  0
  6 10  2  0
 10 11  1  0
 11 12  2  0
 12 13  1  0
 13 14  2  0
 14 15  1  0
 15 16  1  0
 16 17  1  0
 17 18  1  0
 17 19  2  0
 14 20  1  0
 20 21  2  0
 21  5  1  0
 21 11  1  0
  1 22  1  0
  1 23  1  0
  1 24  1  0
  2 25  1  0
  8 26  1  0
 10 27  1  0
 12 28  1  0
 13 29  1  0
 15 30  1  0
 15 31  1  0
 16 32  1  0
 16 33  1  0
 18 34  1  0
 20 35  1  0
M  CHG  2   8  -1  18  -1
M  END
>  <UniqueID>  (47) 
47

>  <SMILES>  (47) 
CNC(=O)n1c(C([NH-])=O)cc2ccc(CCC([NH-])=O)cc21

>  <Energy>  (47) 
67.18296232447938

>  <Genealogy>  (47) 
CNC(=O)n1c(C([NH-])=O)cc2ccc(CCC([NH-])=O)cc21 (protonated)
CNC(=O)n1c(C([NH-])=O)cc2ccc(CCC([NH-])=O)cc21 (3D coordinates assigned)
CNC(=O)n1c(C([NH-])=O)cc2ccc(CCC([NH-])=O)cc21 (optimized conformer: 67.18296232447938 kcal/mol)

>  <smiles>  (47) 
CNC(=O)n1c(C(N)=O)cc2ccc(CCC(N)=O)cc21

>  <score_type>  (47) 
oracle

>  <origin>  (47) 
adg

>  <m_score__min__energy>  (47) 
-10.359999999999999

>  <m_primary>  (47) 
energy

$$$$
47:0
     RDKit          3D

 47 49  0  0  0  0  0  0  0  0999 V2000
   -3.1210   21.8260  -28.5020 C   0  0  0  0  0  0  0  0  0  0  0  0
   -3.1850   21.3880  -29.9630 C   0  0  0  0  0  0  0  0  0  0  0  0
   -3.7120   22.4950  -30.8240 C   0  0  0  0  0  0  0  0  0  0  0  0
   -2.9240   23.3740  -31.2680 O   0  0  0  0  0  0  0  0  0  0  0  0
   -5.1200   22.6150  -31.0690 N   0  0  0  0  0  0  0  0  0  0  0  0
   -5.9120   23.7070  -30.8820 C   0  0  0  0  0  0  0  0  0  0  0  0
   -5.4670   24.9900  -30.2840 C   0  0  0  0  0  0  0  0  0  0  0  0
   -4.1780   25.5340  -30.5790 N   0  0  0  0  0  0  0  0  0  0  0  0
   -6.2340   25.6240  -29.5130 O   0  0  0  0  0  0  0  0  0  0  0  0
   -7.2160   23.4300  -31.2990 C   0  0  0  0  0  0  0  0  0  0  0  0
   -7.1880   22.1300  -31.7530 C   0  0  0  0  0  0  0  0  0  0  0  0
   -8.1960   21.3530  -32.3110 C   0  0  0  0  0  0  0  0  0  0  0  0
   -7.8680   20.0540  -32.7360 C   0  0  0  0  0  0  0  0  0  0  0  0
   -6.5460   19.5520  -32.5920 C   0  0  0  0  0  0  0  0  0  0  0  0
   -6.2160   18.2210  -33.0560 N   0  0  0  0  0  0  0  0  0  0  0  0
   -7.2350   17.1600  -33.0050 C   0  0  0  0  0  0  0  0  0  0  0  0
   -6.8590   15.9820  -33.9090 C   0  0  0  0  0  0  0  0  0  0  0  0
   -5.4650   15.4340  -33.5590 C   0  0  0  0  0  0  0  0  0  0  0  0
   -5.0550   14.5710  -34.6090 O   0  0  0  0  0  0  0  0  0  0  0  0
   -3.7160   14.8280  -34.9660 C   0  0  0  0  0  0  0  0  0  0  0  0
   -4.4140   16.5590  -33.3480 C   0  0  0  0  0  0  0  0  0  0  0  0
   -4.9250   17.9590  -33.7110 C   0  0  0  0  0  0  0  0  0  0  0  0
   -5.5510   20.3780  -32.0130 C   0  0  0  0  0  0  0  0  0  0  0  0
   -5.9110   21.6630  -31.6010 C   0  0  0  0  0  0  0  0  0  0  0  0
   -3.2491   20.9491  -27.8504 H   0  0  0  0  0  0  0  0  0  0  0  0
   -2.1452   22.2924  -28.3014 H   0  0  0  0  0  0  0  0  0  0  0  0
   -3.9226   22.5521  -28.3014 H   0  0  0  0  0  0  0  0  0  0  0  0
   -2.1750   21.1154  -30.3030 H   0  0  0  0  0  0  0  0  0  0  0  0
   -3.8607   20.5238  -30.0443 H   0  0  0  0  0  0  0  0  0  0  0  0
   -3.4950   25.0400  -31.1970 H   0  0  0  0  0  0  0  0  0  0  0  0
   -3.8800   26.4320  -30.1350 H   0  0  0  0  0  0  0  0  0  0  0  0
   -8.0824   24.1072  -31.2708 H   0  0  0  0  0  0  0  0  0  0  0  0
   -9.2192   21.7426  -32.4168 H   0  0  0  0  0  0  0  0  0  0  0  0
   -8.6444   19.4177  -33.1858 H   0  0  0  0  0  0  0  0  0  0  0  0
   -7.3271   16.8014  -31.9692 H   0  0  0  0  0  0  0  0  0  0  0  0
   -8.1889   17.5780  -33.3589 H   0  0  0  0  0  0  0  0  0  0  0  0
   -7.6018   15.1807  -33.7815 H   0  0  0  0  0  0  0  0  0  0  0  0
   -6.8429   16.3343  -34.9509 H   0  0  0  0  0  0  0  0  0  0  0  0
   -5.5326   14.8917  -32.6044 H   0  0  0  0  0  0  0  0  0  0  0  0
   -3.1097   14.9444  -34.0556 H   0  0  0  0  0  0  0  0  0  0  0  0
   -3.3273   13.9881  -35.5605 H   0  0  0  0  0  0  0  0  0  0  0  0
   -3.6659   15.7521  -35.5605 H   0  0  0  0  0  0  0  0  0  0  0  0
   -4.1169   16.5620  -32.2889 H   0  0  0  0  0  0  0  0  0  0  0  0
   -3.5715   16.3409  -34.0207 H   0  0  0  0  0  0  0  0  0  0  0  0
   -4.1919   18.7093  -33.3798 H   0  0  0  0  0  0  0  0  0  0  0  0
   -5.0603   18.0173  -34.8011 H   0  0  0  0  0  0  0  0  0  0  0  0
   -4.5195   20.0158  -31.8909 H   0  0  0  0  0  0  0  0  0  0  0  0
  1  2  1  0
  2  3  1  0
  3  4  2  0
  3  5  1  0
  5  6  1  0
  6  7  1  0
  7  8  1  0
  7  9  2  0
  6 10  2  0
 10 11  1  0
 11 12  2  0
 12 13  1  0
 13 14  2  0
 14 15  1  0
 15 16  1  0
 16 17  1  0
 17 18  1  0
 18 19  1  0
 19 20  1  0
 18 21  1  0
 21 22  1  0
 14 23  1  0
 23 24  2  0
 24  5  1  0
 24 11  1  0
 22 15  1  0
  1 25  1  0
  1 26  1  0
  1 27  1  0
  2 28  1  0
  2 29  1  0
  8 30  1  0
  8 31  1  0
 10 32  1  0
 12 33  1  0
 13 34  1  0
 16 35  1  0
 16 36  1  0
 17 37  1  0
 17 38  1  0
 18 39  1  0
 20 40  1  0
 20 41  1  0
 20 42  1  0
 21 43  1  0
 21 44  1  0
 22 45  1  0
 22 46  1  0
 23 47  1  0
M  END
>  <UniqueID>  (48) 
48

>  <SMILES>  (48) 
CCC(=O)n1c(C(N)=O)cc2ccc(N3CCC(OC)CC3)cc21

>  <Energy>  (48) 
91.39843645708162

>  <Genealogy>  (48) 
CCC(=O)n1c(C(N)=O)cc2ccc(N3CCC(OC)CC3)cc21 (3D coordinates assigned)
CCC(=O)n1c(C(N)=O)cc2ccc(N3CCC(OC)CC3)cc21 (nonaromatic ring conformer: 91.39843645708162 kcal/mol)

>  <smiles>  (48) 
CCC(=O)n1c(C(N)=O)cc2ccc(N3CCC(OC)CC3)cc21

>  <score_type>  (48) 
oracle

>  <origin>  (48) 
adg

>  <m_score__min__energy>  (48) 
-8.9000000000000004

>  <m_primary>  (48) 
energy

$$$$
48:0
     RDKit          3D

 50 51  0  0  0  0  0  0  0  0999 V2000
   -7.7920   23.2530  -32.2960 C   0  0  0  0  0  0  0  0  0  0  0  0
   -7.8350   22.0580  -31.4410 N   0  0  0  0  0  0  0  0  0  0  0  0
   -7.3560   22.3400  -30.0810 C   0  0  0  0  0  0  0  0  0  0  0  0
   -9.1110   21.2990  -31.5240 C   0  0  0  0  0  0  0  0  0  0  0  0
   -9.1100   20.0220  -32.4030 C   0  0  0  0  0  0  0  0  0  0  0  0
   -8.4200   18.7870  -31.7940 C   0  0  0  0  0  0  0  0  0  0  0  0
   -7.2870   18.2090  -32.6710 C   0  0  0  0  0  0  0  0  0  0  0  0
   -6.5720   19.2900  -33.4990 C   0  0  0  0  0  0  0  0  0  0  0  0
   -5.5660   20.1090  -32.6700 C   0  0  0  0  0  0  0  0  0  0  0  0
   -4.0900   19.7520  -32.9210 C   0  0  0  0  0  0  0  0  0  0  0  0
   -3.1560   20.5390  -32.0380 C   0  0  0  0  0  0  0  0  0  0  0  0
   -1.8750   20.0220  -31.7230 C   0  0  0  0  0  0  0  0  0  0  0  0
   -1.0050   20.7310  -30.8790 C   0  0  0  0  0  0  0  0  0  0  0  0
   -1.4460   21.9430  -30.3560 C   0  0  0  0  0  0  0  0  0  0  0  0
   -0.8050   22.8350  -29.5290 C   0  0  0  0  0  0  0  0  0  0  0  0
   -1.7160   23.8700  -29.3250 C   0  0  0  0  0  0  0  0  0  0  0  0
   -1.4630   25.0060  -28.4130 C   0  0  0  0  0  0  0  0  0  0  0  0
   -1.2120   26.3130  -28.9220 N   0  0  0  0  0  0  0  0  0  0  0  0
   -1.5190   24.8290  -27.1670 O   0  0  0  0  0  0  0  0  0  0  0  0
   -2.8720   23.6320  -30.0060 N   0  0  0  0  0  0  0  0  0  0  0  0
   -4.0170   24.4920  -30.1240 C   0  0  0  0  0  0  0  0  0  0  0  0
   -5.1140   24.1660  -29.6000 O   0  0  0  0  0  0  0  0  0  0  0  0
   -3.9320   25.6770  -30.8450 O   0  0  0  0  0  0  0  0  0  0  0  0
   -2.6910   22.4470  -30.6320 C   0  0  0  0  0  0  0  0  0  0  0  0
   -3.5690   21.7730  -31.4880 C   0  0  0  0  0  0  0  0  0  0  0  0
   -7.7596   24.1539  -31.6656 H   0  0  0  0  0  0  0  0  0  0  0  0
   -6.8946   23.2174  -32.9311 H   0  0  0  0  0  0  0  0  0  0  0  0
   -8.6897   23.2820  -32.9311 H   0  0  0  0  0  0  0  0  0  0  0  0
   -8.0637   21.9233  -29.3492 H   0  0  0  0  0  0  0  0  0  0  0  0
   -6.3672   21.8799  -29.9378 H   0  0  0  0  0  0  0  0  0  0  0  0
   -7.2785   23.4279  -29.9378 H   0  0  0  0  0  0  0  0  0  0  0  0
   -9.3867   20.9992  -30.5022 H   0  0  0  0  0  0  0  0  0  0  0  0
   -9.8210   21.9830  -32.0118 H   0  0  0  0  0  0  0  0  0  0  0  0
  -10.1567   19.7551  -32.6109 H   0  0  0  0  0  0  0  0  0  0  0  0
   -8.5258   20.2778  -33.2992 H   0  0  0  0  0  0  0  0  0  0  0  0
   -7.9938   19.0726  -30.8210 H   0  0  0  0  0  0  0  0  0  0  0  0
   -9.1869   18.0035  -31.7046 H   0  0  0  0  0  0  0  0  0  0  0  0
   -6.5495   17.7203  -32.0173 H   0  0  0  0  0  0  0  0  0  0  0  0
   -7.7405   17.4952  -33.3745 H   0  0  0  0  0  0  0  0  0  0  0  0
   -6.0323   18.8013  -34.3236 H   0  0  0  0  0  0  0  0  0  0  0  0
   -7.3398   19.9854  -33.8689 H   0  0  0  0  0  0  0  0  0  0  0  0
   -5.7078   21.1728  -32.9113 H   0  0  0  0  0  0  0  0  0  0  0  0
   -5.7685   19.8761  -31.6142 H   0  0  0  0  0  0  0  0  0  0  0  0
   -3.9461   18.6797  -32.7222 H   0  0  0  0  0  0  0  0  0  0  0  0
   -3.8556   20.0002  -33.9667 H   0  0  0  0  0  0  0  0  0  0  0  0
   -1.5589   19.0560  -32.1436 H   0  0  0  0  0  0  0  0  0  0  0  0
   -0.0052   20.3403  -30.6385 H   0  0  0  0  0  0  0  0  0  0  0  0
    0.2110   22.7499  -29.1161 H   0  0  0  0  0  0  0  0  0  0  0  0
   -0.8790   26.4530  -29.9010 H   0  0  0  0  0  0  0  0  0  0  0  0
   -4.5569   22.1938  -31.7269 H   0  0  0  0  0  0  0  0  0  0  0  0
  1  2  1  0
  2  3  1  0
  2  4  1  0
  4  5  1  0
  5  6  1  0
  6  7  1  0
  7  8  1  0
  8  9  1  0
  9 10  1  0
 10 11  1  0
 11 12  2  0
 12 13  1  0
 13 14  2  0
 14 15  1  0
 15 16  2  0
 16 17  1  0
 17 18  1  0
 17 19  2  0
 16 20  1  0
 20 21  1  0
 21 22  2  0
 21 23  1  0
 20 24  1  0
 24 25  2  0
 25 11  1  0
 24 14  1  0
  1 26  1  0
  1 27  1  0
  1 28  1  0
  3 29  1  0
  3 30  1  0
  3 31  1  0
  4 32  1  0
  4 33  1  0
  5 34  1  0
  5 35  1  0
  6 36  1  0
  6 37  1  0
  7 38  1  0
  7 39  1  0
  8 40  1  0
  8 41  1  0
  9 42  1  0
  9 43  1  0
 10 44  1  0
 10 45  1  0
 12 46  1  0
 13 47  1  0
 15 48  1  0
 18 49  1  0
 25 50  1  0
M  CHG  2  18  -1  23  -1
M  END
>  <UniqueID>  (49) 
49

>  <SMILES>  (49) 
CN(C)CCCCCCCc1ccc2cc(C([NH-])=O)n(C(=O)[O-])c2c1

>  <Energy>  (49) 
89.99648321679076

>  <Genealogy>  (49) 
CN(C)CCCCCCCc1ccc2cc(C([NH-])=O)n(C(=O)[O-])c2c1 (protonated)
CN(C)CCCCCCCc1ccc2cc(C([NH-])=O)n(C(=O)[O-])c2c1 (3D coordinates assigned)
CN(C)CCCCCCCc1ccc2cc(C([NH-])=O)n(C(=O)[O-])c2c1 (optimized conformer: 89.99648321679076 kcal/mol)

>  <smiles>  (49) 
CN(C)CCCCCCCc1ccc2cc(C(N)=O)n(C(=O)O)c2c1

>  <score_type>  (49) 
oracle

>  <origin>  (49) 
adg

>  <m_score__min__energy>  (49) 
-11.779999999999999

>  <m_primary>  (49) 
energy

$$$$
49:0
     RDKit          3D

 30 31  0  0  0  0  0  0  0  0999 V2000
   -3.8630   25.2920  -30.5270 N   0  0  0  0  0  0  0  0  0  0  0  0
   -3.7650   23.8830  -30.7250 C   0  0  0  0  0  0  0  0  0  0  0  0
   -2.6320   23.3350  -30.7010 O   0  0  0  0  0  0  0  0  0  0  0  0
   -4.9840   23.0920  -30.9950 C   0  0  0  0  0  0  0  0  0  0  0  0
   -6.2270   23.3850  -30.4410 C   0  0  0  0  0  0  0  0  0  0  0  0
   -7.1000   22.4820  -31.0040 C   0  0  0  0  0  0  0  0  0  0  0  0
   -8.4660   22.3110  -30.8020 C   0  0  0  0  0  0  0  0  0  0  0  0
   -9.1100   21.2750  -31.4990 C   0  0  0  0  0  0  0  0  0  0  0  0
   -8.3810   20.4320  -32.3710 C   0  0  0  0  0  0  0  0  0  0  0  0
   -9.0470   19.3740  -33.0640 N   0  0  0  0  0  0  0  0  0  0  0  0
   -6.9970   20.6330  -32.5520 C   0  0  0  0  0  0  0  0  0  0  0  0
   -6.3830   21.6840  -31.8590 C   0  0  0  0  0  0  0  0  0  0  0  0
   -5.0810   22.0460  -31.8630 N   0  0  0  0  0  0  0  0  0  0  0  0
   -4.0180   21.3940  -32.5770 C   0  0  0  0  0  0  0  0  0  0  0  0
   -3.4480   21.9840  -33.5350 O   0  0  0  0  0  0  0  0  0  0  0  0
   -3.6320   20.0970  -32.2140 O   0  0  0  0  0  0  0  0  0  0  0  0
   -3.5940   19.0040  -33.1300 C   0  0  0  0  0  0  0  0  0  0  0  0
   -4.8810   18.1890  -33.0430 C   0  0  0  0  0  0  0  0  0  0  0  0
   -5.7090   18.1820  -34.6200 Cl  0  0  0  0  0  0  0  0  0  0  0  0
   -3.4870   25.9610  -31.2360 H   0  0  0  0  0  0  0  0  0  0  0  0
   -6.4618   24.1714  -29.7086 H   0  0  0  0  0  0  0  0  0  0  0  0
   -9.0244   22.9667  -30.1177 H   0  0  0  0  0  0  0  0  0  0  0  0
  -10.1905   21.1178  -31.3657 H   0  0  0  0  0  0  0  0  0  0  0  0
   -9.4580   19.5300  -34.0110 H   0  0  0  0  0  0  0  0  0  0  0  0
   -9.1320   18.4250  -32.6350 H   0  0  0  0  0  0  0  0  0  0  0  0
   -6.4148   19.9813  -33.2201 H   0  0  0  0  0  0  0  0  0  0  0  0
   -3.4800   19.3926  -34.1527 H   0  0  0  0  0  0  0  0  0  0  0  0
   -2.7437   18.3547  -32.8741 H   0  0  0  0  0  0  0  0  0  0  0  0
   -4.6384   17.1555  -32.7549 H   0  0  0  0  0  0  0  0  0  0  0  0
   -5.5435   18.6416  -32.2906 H   0  0  0  0  0  0  0  0  0  0  0  0
  1  2  1  0
  2  3  2  0
  2  4  1  0
  4  5  2  0
  5  6  1  0
  6  7  2  0
  7  8  1  0
  8  9  2  0
  9 10  1  0
  9 11  1  0
 11 12  2  0
 12 13  1  0
 13 14  1  0
 14 15  2  0
 14 16  1  0
 16 17  1  0
 17 18  1  0
 18 19  1  0
 13  4  1  0
 12  6  1  0
  1 20  1  0
  5 21  1  0
  7 22  1  0
  8 23  1  0
 10 24  1  0
 10 25  1  0
 11 26  1  0
 17 27  1  0
 17 28  1  0
 18 29  1  0
 18 30  1  0
M  CHG  1   1  -1
M  END
>  <UniqueID>  (50) 
50

>  <SMILES>  (50) 
[NH-]C(=O)c1cc2ccc(N)cc2n1C(=O)OCCCl

>  <Energy>  (50) 
64.29889100141924

>  <Genealogy>  (50) 
[NH-]C(=O)c1cc2ccc(N)cc2n1C(=O)OCCCl (protonated)
[NH-]C(=O)c1cc2ccc(N)cc2n1C(=O)OCCCl (3D coordinates assigned)
[NH-]C(=O)c1cc2ccc(N)cc2n1C(=O)OCCCl (optimized conformer: 64.29889100141924 kcal/mol)

>  <smiles>  (50) 
NC(=O)c1cc2ccc(N)cc2n1C(=O)OCCCl

>  <score_type>  (50) 
oracle

>  <origin>  (50) 
adg

>  <m_score__min__energy>  (50) 
-9.0399999999999991

>  <m_primary>  (50) 
energy

$$$$
50:0
     RDKit          3D

 37 39  0  0  0  0  0  0  0  0999 V2000
   -2.1580   25.2480  -28.4950 N   0  0  0  0  0  0  0  0  0  0  0  0
   -1.4510   24.1960  -29.1520 C   0  0  0  0  0  0  0  0  0  0  0  0
   -0.1950   24.1470  -29.0660 O   0  0  0  0  0  0  0  0  0  0  0  0
   -2.1600   23.2020  -29.9840 C   0  0  0  0  0  0  0  0  0  0  0  0
   -1.6460   21.9420  -30.2740 C   0  0  0  0  0  0  0  0  0  0  0  0
   -2.5680   21.3580  -31.1110 C   0  0  0  0  0  0  0  0  0  0  0  0
   -2.5710   20.0940  -31.6920 C   0  0  0  0  0  0  0  0  0  0  0  0
   -3.6770   19.7320  -32.4770 C   0  0  0  0  0  0  0  0  0  0  0  0
   -4.7610   20.6280  -32.6540 C   0  0  0  0  0  0  0  0  0  0  0  0
   -5.9600   20.2070  -33.4630 C   0  0  0  0  0  0  0  0  0  0  0  0
   -6.7390   19.0200  -32.8520 C   0  0  0  0  0  0  0  0  0  0  0  0
   -8.0050   19.2980  -31.9940 C   0  0  0  0  0  0  0  0  0  0  0  0
   -8.2820   18.2030  -31.1460 O   0  0  0  0  0  0  0  0  0  0  0  0
   -9.2480   19.8530  -32.6760 C   0  0  0  0  0  0  0  0  0  0  0  0
   -9.1790   21.0630  -31.9540 O   0  0  0  0  0  0  0  0  0  0  0  0
   -8.0320   20.6270  -31.2570 C   0  0  0  0  0  0  0  0  0  0  0  0
   -4.7170   21.9090  -32.0570 C   0  0  0  0  0  0  0  0  0  0  0  0
   -3.5940   22.2500  -31.2950 C   0  0  0  0  0  0  0  0  0  0  0  0
   -3.3590   23.3890  -30.6040 N   0  0  0  0  0  0  0  0  0  0  0  0
   -4.2570   24.5030  -30.4540 C   0  0  0  0  0  0  0  0  0  0  0  0
   -3.8680   25.6710  -30.7180 O   0  0  0  0  0  0  0  0  0  0  0  0
   -5.5590   24.3050  -30.0130 O   0  0  0  0  0  0  0  0  0  0  0  0
   -1.6460   25.9190  -27.8810 H   0  0  0  0  0  0  0  0  0  0  0  0
   -3.1710   25.4150  -28.6810 H   0  0  0  0  0  0  0  0  0  0  0  0
   -0.7035   21.5060  -29.9113 H   0  0  0  0  0  0  0  0  0  0  0  0
   -1.7319   19.3990  -31.5408 H   0  0  0  0  0  0  0  0  0  0  0  0
   -3.7027   18.7437  -32.9593 H   0  0  0  0  0  0  0  0  0  0  0  0
   -6.6430   21.0655  -33.5434 H   0  0  0  0  0  0  0  0  0  0  0  0
   -5.5851   19.8743  -34.4422 H   0  0  0  0  0  0  0  0  0  0  0  0
   -7.0535   18.3787  -33.6886 H   0  0  0  0  0  0  0  0  0  0  0  0
   -6.0285   18.5866  -32.1327 H   0  0  0  0  0  0  0  0  0  0  0  0
   -9.1280   18.3700  -30.6520 H   0  0  0  0  0  0  0  0  0  0  0  0
   -9.1322   19.9825  -33.7622 H   0  0  0  0  0  0  0  0  0  0  0  0
  -10.1787   19.2672  -32.6494 H   0  0  0  0  0  0  0  0  0  0  0  0
   -7.1437   21.2491  -31.4412 H   0  0  0  0  0  0  0  0  0  0  0  0
   -8.0440   20.6269  -30.1571 H   0  0  0  0  0  0  0  0  0  0  0  0
   -5.5456   22.6204  -32.1884 H   0  0  0  0  0  0  0  0  0  0  0  0
  1  2  1  0
  2  3  2  0
  2  4  1  0
  4  5  2  0
  5  6  1  0
  6  7  2  0
  7  8  1  0
  8  9  2  0
  9 10  1  0
 10 11  1  0
 11 12  1  0
 12 13  1  0
 12 14  1  0
 14 15  1  0
 15 16  1  0
  9 17  1  0
 17 18  2  0
 18 19  1  0
 19 20  1  0
 20 21  2  0
 20 22  1  0
 19  4  1  0
 18  6  1  0
 16 12  1  0
  1 23  1  0
  1 24  1  0
  5 25  1  0
  7 26  1  0
  8 27  1  0
 10 28  1  0
 10 29  1  0
 11 30  1  0
 11 31  1  0
 13 32  1  0
 14 33  1  0
 14 34  1  0
 16 35  1  0
 16 36  1  0
 17 37  1  0
M  CHG  1  22  -1
M  END
>  <UniqueID>  (51) 
51

>  <SMILES>  (51) 
NC(=O)c1cc2ccc(CCC3(O)COC3)cc2n1C(=O)[O-]

>  <Energy>  (51) 
148.25881704935892

>  <Genealogy>  (51) 
NC(=O)c1cc2ccc(CCC3(O)COC3)cc2n1C(=O)[O-] (protonated)
NC(=O)c1cc2ccc(CCC3(O)COC3)cc2n1C(=O)[O-] (3D coordinates assigned)
NC(=O)c1cc2ccc(CCC3(O)COC3)cc2n1C(=O)[O-] (nonaromatic ring conformer: 148.25881704935892 kcal/mol)

>  <smiles>  (51) 
NC(=O)c1cc2ccc(CCC3(O)COC3)cc2n1C(=O)O

>  <score_type>  (51) 
oracle

>  <origin>  (51) 
adg

>  <m_score__min__energy>  (51) 
-8.9100000000000001

>  <m_primary>  (51) 
energy

$$$$
51:0
     RDKit          3D

 28 29  0  0  0  0  0  0  0  0999 V2000
   -2.4390   20.9080  -32.5430 C   0  0  0  0  0  0  0  0  0  0  0  0
   -3.1040   22.1640  -32.5930 O   0  0  0  0  0  0  0  0  0  0  0  0
   -3.6660   22.7660  -31.4620 C   0  0  0  0  0  0  0  0  0  0  0  0
   -2.9300   23.1440  -30.5110 O   0  0  0  0  0  0  0  0  0  0  0  0
   -5.0900   22.9300  -31.3750 N   0  0  0  0  0  0  0  0  0  0  0  0
   -5.7830   23.9900  -30.8690 C   0  0  0  0  0  0  0  0  0  0  0  0
   -5.2060   25.2810  -30.4410 C   0  0  0  0  0  0  0  0  0  0  0  0
   -3.8960   25.6690  -30.8440 N   0  0  0  0  0  0  0  0  0  0  0  0
   -5.8990   26.0760  -29.7510 O   0  0  0  0  0  0  0  0  0  0  0  0
   -7.1510   23.7280  -30.8790 C   0  0  0  0  0  0  0  0  0  0  0  0
   -7.2790   22.4690  -31.4190 C   0  0  0  0  0  0  0  0  0  0  0  0
   -8.4180   21.7030  -31.6420 C   0  0  0  0  0  0  0  0  0  0  0  0
   -8.2520   20.4160  -32.1810 C   0  0  0  0  0  0  0  0  0  0  0  0
   -6.9590   19.9220  -32.4960 C   0  0  0  0  0  0  0  0  0  0  0  0
   -6.7890   18.5170  -33.0130 C   0  0  0  0  0  0  0  0  0  0  0  0
   -5.7940   17.8560  -32.3160 F   0  0  0  0  0  0  0  0  0  0  0  0
   -7.9780   17.8290  -32.8620 F   0  0  0  0  0  0  0  0  0  0  0  0
   -6.4420   18.5290  -34.3530 F   0  0  0  0  0  0  0  0  0  0  0  0
   -5.8240   20.7230  -32.2310 C   0  0  0  0  0  0  0  0  0  0  0  0
   -6.0210   22.0090  -31.7120 C   0  0  0  0  0  0  0  0  0  0  0  0
   -2.2846   20.6164  -31.4937 H   0  0  0  0  0  0  0  0  0  0  0  0
   -3.0528   20.1478  -33.0483 H   0  0  0  0  0  0  0  0  0  0  0  0
   -1.4652   20.9883  -33.0483 H   0  0  0  0  0  0  0  0  0  0  0  0
   -3.0510   25.2970  -30.3550 H   0  0  0  0  0  0  0  0  0  0  0  0
   -7.9584   24.3881  -30.5291 H   0  0  0  0  0  0  0  0  0  0  0  0
   -9.4186   22.0928  -31.4037 H   0  0  0  0  0  0  0  0  0  0  0  0
   -9.1342   19.7840  -32.3609 H   0  0  0  0  0  0  0  0  0  0  0  0
   -4.8100   20.3449  -32.4279 H   0  0  0  0  0  0  0  0  0  0  0  0
  1  2  1  0
  2  3  1  0
  3  4  2  0
  3  5  1  0
  5  6  1  0
  6  7  1  0
  7  8  1  0
  7  9  2  0
  6 10  2  0
 10 11  1  0
 11 12  2  0
 12 13  1  0
 13 14  2  0
 14 15  1  0
 15 16  1  0
 15 17  1  0
 15 18  1  0
 14 19  1  0
 19 20  2  0
 20  5  1  0
 20 11  1  0
  1 21  1  0
  1 22  1  0
  1 23  1  0
  8 24  1  0
 10 25  1  0
 12 26  1  0
 13 27  1  0
 19 28  1  0
M  CHG  1   8  -1
M  END
>  <UniqueID>  (52) 
52

>  <SMILES>  (52) 
COC(=O)n1c(C([NH-])=O)cc2ccc(C(F)(F)F)cc21

>  <Energy>  (52) 
66.32612793398144

>  <Genealogy>  (52) 
COC(=O)n1c(C([NH-])=O)cc2ccc(C(F)(F)F)cc21 (protonated)
COC(=O)n1c(C([NH-])=O)cc2ccc(C(F)(F)F)cc21 (3D coordinates assigned)
COC(=O)n1c(C([NH-])=O)cc2ccc(C(F)(F)F)cc21 (optimized conformer: 66.32612793398144 kcal/mol)

>  <smiles>  (52) 
COC(=O)n1c(C(N)=O)cc2ccc(C(F)(F)F)cc21

>  <score_type>  (52) 
oracle

>  <origin>  (52) 
adg

>  <m_score__min__energy>  (52) 
-8.8200000000000003

>  <m_primary>  (52) 
energy

$$$$
52:0
     RDKit          3D

 48 50  0  0  0  0  0  0  0  0999 V2000
   -0.8780   26.3180  -28.1670 C   0  0  0  0  0  0  0  0  0  0  0  0
   -1.5660   25.3370  -28.9150 O   0  0  0  0  0  0  0  0  0  0  0  0
   -1.6010   24.1110  -28.2060 C   0  0  0  0  0  0  0  0  0  0  0  0
   -1.5920   22.9240  -29.1760 C   0  0  0  0  0  0  0  0  0  0  0  0
   -2.9220   22.5390  -29.5230 O   0  0  0  0  0  0  0  0  0  0  0  0
   -3.3630   22.3420  -30.8360 C   0  0  0  0  0  0  0  0  0  0  0  0
   -2.5280   22.0540  -31.7410 O   0  0  0  0  0  0  0  0  0  0  0  0
   -4.7670   22.4550  -31.1470 N   0  0  0  0  0  0  0  0  0  0  0  0
   -5.5770   23.5200  -30.8830 C   0  0  0  0  0  0  0  0  0  0  0  0
   -5.1330   24.8590  -30.4640 C   0  0  0  0  0  0  0  0  0  0  0  0
   -3.7780   25.0990  -30.0840 N   0  0  0  0  0  0  0  0  0  0  0  0
   -5.9410   25.8260  -30.5160 O   0  0  0  0  0  0  0  0  0  0  0  0
   -6.9010   23.2270  -31.1920 C   0  0  0  0  0  0  0  0  0  0  0  0
   -6.8810   21.9480  -31.6930 C   0  0  0  0  0  0  0  0  0  0  0  0
   -7.9230   21.1750  -32.1940 C   0  0  0  0  0  0  0  0  0  0  0  0
   -7.6190   19.8980  -32.6900 C   0  0  0  0  0  0  0  0  0  0  0  0
   -6.2860   19.4130  -32.6780 C   0  0  0  0  0  0  0  0  0  0  0  0
   -5.9790   18.1200  -33.2440 N   0  0  0  0  0  0  0  0  0  0  0  0
   -6.9600   17.0250  -33.1020 C   0  0  0  0  0  0  0  0  0  0  0  0
   -6.7070   15.8630  -34.0680 C   0  0  0  0  0  0  0  0  0  0  0  0
   -5.0440   15.2560  -33.8680 S   0  0  0  0  0  0  0  0  0  0  0  0
   -4.9780   14.3010  -32.7080 O   0  0  0  0  0  0  0  0  0  0  0  0
   -4.6030   14.5570  -35.1240 O   0  0  0  0  0  0  0  0  0  0  0  0
   -4.0000   16.6630  -33.5540 C   0  0  0  0  0  0  0  0  0  0  0  0
   -4.7160   17.9410  -33.9880 C   0  0  0  0  0  0  0  0  0  0  0  0
   -5.2570   20.2180  -32.1330 C   0  0  0  0  0  0  0  0  0  0  0  0
   -5.5840   21.4990  -31.6600 C   0  0  0  0  0  0  0  0  0  0  0  0
   -1.0147   26.1230  -27.0931 H   0  0  0  0  0  0  0  0  0  0  0  0
    0.1936   26.2818  -28.4127 H   0  0  0  0  0  0  0  0  0  0  0  0
   -1.2771   27.3132  -28.4127 H   0  0  0  0  0  0  0  0  0  0  0  0
   -0.7203   24.0480  -27.5499 H   0  0  0  0  0  0  0  0  0  0  0  0
   -2.5245   24.0735  -27.6096 H   0  0  0  0  0  0  0  0  0  0  0  0
   -1.0499   23.2097  -30.0895 H   0  0  0  0  0  0  0  0  0  0  0  0
   -1.0968   22.0731  -28.6853 H   0  0  0  0  0  0  0  0  0  0  0  0
   -3.4850   26.0450  -29.7510 H   0  0  0  0  0  0  0  0  0  0  0  0
   -3.0590   24.3480  -30.1690 H   0  0  0  0  0  0  0  0  0  0  0  0
   -7.7769   23.8798  -31.0628 H   0  0  0  0  0  0  0  0  0  0  0  0
   -8.9557   21.5537  -32.2012 H   0  0  0  0  0  0  0  0  0  0  0  0
   -8.4239   19.2656  -33.0929 H   0  0  0  0  0  0  0  0  0  0  0  0
   -6.9101   16.6415  -32.0722 H   0  0  0  0  0  0  0  0  0  0  0  0
   -7.9510   17.4393  -33.3394 H   0  0  0  0  0  0  0  0  0  0  0  0
   -7.4189   15.0516  -33.8563 H   0  0  0  0  0  0  0  0  0  0  0  0
   -6.8408   16.2164  -35.1011 H   0  0  0  0  0  0  0  0  0  0  0  0
   -3.7733   16.7177  -32.4790 H   0  0  0  0  0  0  0  0  0  0  0  0
   -3.0647   16.5576  -34.1233 H   0  0  0  0  0  0  0  0  0  0  0  0
   -4.0604   18.8032  -33.7962 H   0  0  0  0  0  0  0  0  0  0  0  0
   -4.9493   17.8646  -35.0603 H   0  0  0  0  0  0  0  0  0  0  0  0
   -4.2225   19.8476  -32.0811 H   0  0  0  0  0  0  0  0  0  0  0  0
  1  2  1  0
  2  3  1  0
  3  4  1  0
  4  5  1  0
  5  6  1  0
  6  7  2  0
  6  8  1  0
  8  9  1  0
  9 10  1  0
 10 11  1  0
 10 12  2  0
  9 13  2  0
 13 14  1  0
 14 15  2  0
 15 16  1  0
 16 17  2  0
 17 18  1  0
 18 19  1  0
 19 20  1  0
 20 21  1  0
 21 22  2  0
 21 23  2  0
 21 24  1  0
 24 25  1  0
 17 26  1  0
 26 27  2  0
 27  8  1  0
 27 14  1  0
 25 18  1  0
  1 28  1  0
  1 29  1  0
  1 30  1  0
  3 31  1  0
  3 32  1  0
  4 33  1  0
  4 34  1  0
 11 35  1  0
 11 36  1  0
 13 37  1  0
 15 38  1  0
 16 39  1  0
 19 40  1  0
 19 41  1  0
 20 42  1  0
 20 43  1  0
 24 44  1  0
 24 45  1  0
 25 46  1  0
 25 47  1  0
 26 48  1  0
M  END
>  <UniqueID>  (53) 
53

>  <SMILES>  (53) 
COCCOC(=O)n1c(C(N)=O)cc2ccc(N3CCS(=O)(=O)CC3)cc21

>  <Energy>  (53) 
86.90213223548169

>  <Genealogy>  (53) 
COCCOC(=O)n1c(C(N)=O)cc2ccc(N3CCS(=O)(=O)CC3)cc21 (3D coordinates assigned)
COCCOC(=O)n1c(C(N)=O)cc2ccc(N3CCS(=O)(=O)CC3)cc21 (nonaromatic ring conformer: 86.90213223548169 kcal/mol)

>  <smiles>  (53) 
COCCOC(=O)n1c(C(N)=O)cc2ccc(N3CCS(=O)(=O)CC3)cc21

>  <score_type>  (53) 
oracle

>  <origin>  (53) 
adg

>  <m_score__min__energy>  (53) 
-9.2699999999999996

>  <m_primary>  (53) 
energy

$$$$
53:0
     RDKit          3D

 52 54  0  0  0  0  0  0  0  0999 V2000
   -6.2470   17.0680  -32.2590 C   0  0  0  0  0  0  0  0  0  0  0  0
   -6.7300   17.8110  -33.4400 N   0  0  0  0  0  0  0  0  0  0  0  0
   -5.7540   17.7530  -34.5540 C   0  0  0  0  0  0  0  0  0  0  0  0
   -4.4450   18.4880  -34.2110 C   0  0  0  0  0  0  0  0  0  0  0  0
   -4.7190   19.6900  -33.4150 N   0  0  0  0  0  0  0  0  0  0  0  0
   -3.6760   20.2830  -32.6170 C   0  0  0  0  0  0  0  0  0  0  0  0
   -2.4170   19.6420  -32.4940 C   0  0  0  0  0  0  0  0  0  0  0  0
   -1.3920   20.2120  -31.7210 C   0  0  0  0  0  0  0  0  0  0  0  0
   -1.6470   21.4280  -31.0960 C   0  0  0  0  0  0  0  0  0  0  0  0
   -0.8460   22.1830  -30.2700 C   0  0  0  0  0  0  0  0  0  0  0  0
   -1.6140   23.2930  -29.9260 C   0  0  0  0  0  0  0  0  0  0  0  0
   -1.1030   24.4130  -29.1080 C   0  0  0  0  0  0  0  0  0  0  0  0
   -1.8410   25.6250  -28.9820 N   0  0  0  0  0  0  0  0  0  0  0  0
    0.0230   24.3150  -28.5520 O   0  0  0  0  0  0  0  0  0  0  0  0
   -2.8440   23.2240  -30.5100 N   0  0  0  0  0  0  0  0  0  0  0  0
   -3.9530   24.1170  -30.3240 C   0  0  0  0  0  0  0  0  0  0  0  0
   -3.8490   25.3220  -30.6780 O   0  0  0  0  0  0  0  0  0  0  0  0
   -5.1470   23.6280  -29.7720 O   0  0  0  0  0  0  0  0  0  0  0  0
   -6.4730   23.8620  -30.2660 C   0  0  0  0  0  0  0  0  0  0  0  0
   -6.4870   23.8440  -31.8060 C   0  0  0  0  0  0  0  0  0  0  0  0
   -7.0250   25.1980  -29.7340 C   0  0  0  0  0  0  0  0  0  0  0  0
   -7.3580   22.7180  -29.7480 C   0  0  0  0  0  0  0  0  0  0  0  0
   -2.8480   22.0770  -31.2240 C   0  0  0  0  0  0  0  0  0  0  0  0
   -3.8920   21.5220  -31.9720 C   0  0  0  0  0  0  0  0  0  0  0  0
   -6.0650   20.2660  -33.4610 C   0  0  0  0  0  0  0  0  0  0  0  0
   -7.1190   19.2060  -33.0850 C   0  0  0  0  0  0  0  0  0  0  0  0
   -6.5792   17.5790  -31.3433 H   0  0  0  0  0  0  0  0  0  0  0  0
   -6.6540   16.0462  -32.2769 H   0  0  0  0  0  0  0  0  0  0  0  0
   -5.1480   17.0253  -32.2769 H   0  0  0  0  0  0  0  0  0  0  0  0
   -7.5930   17.3160  -33.7690 H   0  0  0  0  0  0  0  0  0  0  0  0
   -5.5238   16.6993  -34.7703 H   0  0  0  0  0  0  0  0  0  0  0  0
   -6.2040   18.2485  -35.4269 H   0  0  0  0  0  0  0  0  0  0  0  0
   -3.7928   17.8146  -33.6355 H   0  0  0  0  0  0  0  0  0  0  0  0
   -3.9520   18.7884  -35.1473 H   0  0  0  0  0  0  0  0  0  0  0  0
   -2.2410   18.6867  -33.0102 H   0  0  0  0  0  0  0  0  0  0  0  0
   -0.4180   19.7122  -31.6133 H   0  0  0  0  0  0  0  0  0  0  0  0
    0.1819   21.9578  -29.9496 H   0  0  0  0  0  0  0  0  0  0  0  0
   -2.8450   25.6760  -29.2650 H   0  0  0  0  0  0  0  0  0  0  0  0
   -7.1270   23.0212  -32.1573 H   0  0  0  0  0  0  0  0  0  0  0  0
   -6.8810   24.8004  -32.1803 H   0  0  0  0  0  0  0  0  0  0  0  0
   -5.4631   23.6976  -32.1803 H   0  0  0  0  0  0  0  0  0  0  0  0
   -7.0196   25.1850  -28.6341 H   0  0  0  0  0  0  0  0  0  0  0  0
   -6.3947   26.0245  -30.0940 H   0  0  0  0  0  0  0  0  0  0  0  0
   -8.0549   25.3386  -30.0940 H   0  0  0  0  0  0  0  0  0  0  0  0
   -7.3553   22.7215  -28.6480 H   0  0  0  0  0  0  0  0  0  0  0  0
   -8.3866   22.8562  -30.1126 H   0  0  0  0  0  0  0  0  0  0  0  0
   -6.9658   21.7571  -30.1126 H   0  0  0  0  0  0  0  0  0  0  0  0
   -4.8595   22.0385  -32.0563 H   0  0  0  0  0  0  0  0  0  0  0  0
   -6.1247   21.1037  -32.7506 H   0  0  0  0  0  0  0  0  0  0  0  0
   -6.2656   20.6203  -34.4829 H   0  0  0  0  0  0  0  0  0  0  0  0
   -7.2845   19.2530  -31.9985 H   0  0  0  0  0  0  0  0  0  0  0  0
   -8.0256   19.4401  -33.6622 H   0  0  0  0  0  0  0  0  0  0  0  0
  1  2  1  0
  2  3  1  0
  3  4  1  0
  4  5  1  0
  5  6  1  0
  6  7  2  0
  7  8  1  0
  8  9  2  0
  9 10  1  0
 10 11  2  0
 11 12  1  0
 12 13  1  0
 12 14  2  0
 11 15  1  0
 15 16  1  0
 16 17  2  0
 16 18  1  0
 18 19  1  0
 19 20  1  0
 19 21  1  0
 19 22  1  0
 15 23  1  0
 23 24  2  0
  5 25  1  0
 25 26  1  0
 26  2  1  0
 24  6  1  0
 23  9  1  0
  1 27  1  0
  1 28  1  0
  1 29  1  0
  2 30  1  0
  3 31  1  0
  3 32  1  0
  4 33  1  0
  4 34  1  0
  7 35  1  0
  8 36  1  0
 10 37  1  0
 13 38  1  0
 20 39  1  0
 20 40  1  0
 20 41  1  0
 21 42  1  0
 21 43  1  0
 21 44  1  0
 22 45  1  0
 22 46  1  0
 22 47  1  0
 24 48  1  0
 25 49  1  0
 25 50  1  0
 26 51  1  0
 26 52  1  0
M  CHG  2   2   1  13  -1
M  END
>  <UniqueID>  (54) 
54

>  <SMILES>  (54) 
C[NH+]1CCN(c2ccc3cc(C([NH-])=O)n(C(=O)OC(C)(C)C)c3c2)CC1

>  <Energy>  (54) 
98.26972095917785

>  <Genealogy>  (54) 
C[NH+]1CCN(c2ccc3cc(C([NH-])=O)n(C(=O)OC(C)(C)C)c3c2)CC1 (protonated)
C[NH+]1CCN(c2ccc3cc(C([NH-])=O)n(C(=O)OC(C)(C)C)c3c2)CC1 (3D coordinates assigned)
C[NH+]1CCN(c2ccc3cc(C([NH-])=O)n(C(=O)OC(C)(C)C)c3c2)CC1 (nonaromatic ring conformer: 98.26972095917785 kcal/mol)

>  <smiles>  (54) 
CN1CCN(c2ccc3cc(C(N)=O)n(C(=O)OC(C)(C)C)c3c2)CC1

>  <score_type>  (54) 
oracle

>  <origin>  (54) 
adg

>  <m_score__min__energy>  (54) 
-10.69

>  <m_primary>  (54) 
energy

$$$$
54:0
     RDKit          3D

 30 31  0  0  0  0  0  0  0  0999 V2000
   -8.8750   21.8880  -31.5860 C   0  0  0  0  0  0  0  0  0  0  0  0
   -8.8710   20.5920  -32.1730 O   0  0  0  0  0  0  0  0  0  0  0  0
   -7.6920   19.8950  -32.4500 C   0  0  0  0  0  0  0  0  0  0  0  0
   -7.4070   18.8350  -31.8270 O   0  0  0  0  0  0  0  0  0  0  0  0
   -6.7350   20.4410  -33.4610 C   0  0  0  0  0  0  0  0  0  0  0  0
   -5.4220   20.7610  -32.8020 C   0  0  0  0  0  0  0  0  0  0  0  0
   -4.3400   19.8510  -32.8950 C   0  0  0  0  0  0  0  0  0  0  0  0
   -3.1150   20.1290  -32.2650 C   0  0  0  0  0  0  0  0  0  0  0  0
   -3.0090   21.3120  -31.5390 C   0  0  0  0  0  0  0  0  0  0  0  0
   -1.9370   21.8350  -30.8530 C   0  0  0  0  0  0  0  0  0  0  0  0
   -2.3930   23.0390  -30.3200 C   0  0  0  0  0  0  0  0  0  0  0  0
   -1.5760   23.8910  -29.4290 C   0  0  0  0  0  0  0  0  0  0  0  0
   -1.8130   25.2930  -29.3340 N   0  0  0  0  0  0  0  0  0  0  0  0
   -0.6900   23.3650  -28.7040 O   0  0  0  0  0  0  0  0  0  0  0  0
   -3.6930   23.2570  -30.6700 N   0  0  0  0  0  0  0  0  0  0  0  0
   -4.4990   24.4140  -30.3940 C   0  0  0  0  0  0  0  0  0  0  0  0
   -5.5520   24.3070  -29.7120 O   0  0  0  0  0  0  0  0  0  0  0  0
   -4.1110   25.6660  -30.8540 O   0  0  0  0  0  0  0  0  0  0  0  0
   -4.0560   22.1900  -31.4140 C   0  0  0  0  0  0  0  0  0  0  0  0
   -5.2800   21.9470  -32.0480 C   0  0  0  0  0  0  0  0  0  0  0  0
   -8.8747   21.7941  -30.4900 H   0  0  0  0  0  0  0  0  0  0  0  0
   -7.9786   22.4387  -31.9071 H   0  0  0  0  0  0  0  0  0  0  0  0
   -9.7748   22.4332  -31.9071 H   0  0  0  0  0  0  0  0  0  0  0  0
   -6.5737   19.6934  -34.2516 H   0  0  0  0  0  0  0  0  0  0  0  0
   -7.1544   21.3593  -33.8978 H   0  0  0  0  0  0  0  0  0  0  0  0
   -4.4600   18.9183  -33.4656 H   0  0  0  0  0  0  0  0  0  0  0  0
   -2.2664   19.4335  -32.3431 H   0  0  0  0  0  0  0  0  0  0  0  0
   -0.9338   21.3962  -30.7478 H   0  0  0  0  0  0  0  0  0  0  0  0
   -2.7850   25.6740  -29.3330 H   0  0  0  0  0  0  0  0  0  0  0  0
   -6.1112   22.6623  -31.9612 H   0  0  0  0  0  0  0  0  0  0  0  0
  1  2  1  0
  2  3  1  0
  3  4  2  0
  3  5  1  0
  5  6  1  0
  6  7  2  0
  7  8  1  0
  8  9  2  0
  9 10  1  0
 10 11  2  0
 11 12  1  0
 12 13  1  0
 12 14  2  0
 11 15  1  0
 15 16  1  0
 16 17  2  0
 16 18  1  0
 15 19  1  0
 19 20  2  0
 20  6  1  0
 19  9  1  0
  1 21  1  0
  1 22  1  0
  1 23  1  0
  5 24  1  0
  5 25  1  0
  7 26  1  0
  8 27  1  0
 10 28  1  0
 13 29  1  0
 20 30  1  0
M  CHG  2  13  -1  18  -1
M  END
>  <UniqueID>  (55) 
55

>  <SMILES>  (55) 
COC(=O)Cc1ccc2cc(C([NH-])=O)n(C(=O)[O-])c2c1

>  <Energy>  (55) 
66.09790017744133

>  <Genealogy>  (55) 
COC(=O)Cc1ccc2cc(C([NH-])=O)n(C(=O)[O-])c2c1 (protonated)
COC(=O)Cc1ccc2cc(C([NH-])=O)n(C(=O)[O-])c2c1 (3D coordinates assigned)
COC(=O)Cc1ccc2cc(C([NH-])=O)n(C(=O)[O-])c2c1 (optimized conformer: 66.09790017744133 kcal/mol)

>  <smiles>  (55) 
COC(=O)Cc1ccc2cc(C(N)=O)n(C(=O)O)c2c1

>  <score_type>  (55) 
oracle

>  <origin>  (55) 
adg

>  <m_score__min__energy>  (55) 
-10.039999999999999

>  <m_primary>  (55) 
energy

$$$$
55:0
     RDKit          3D

 34 35  0  0  0  0  0  0  0  0999 V2000
   -3.8800   24.1200  -27.4140 C   0  0  0  0  0  0  0  0  0  0  0  0
   -4.0240   22.9910  -28.1130 C   0  0  0  0  0  0  0  0  0  0  0  0
   -2.9230   22.4680  -28.9910 C   0  0  0  0  0  0  0  0  0  0  0  0
   -2.9260   23.1300  -30.2530 O   0  0  0  0  0  0  0  0  0  0  0  0
   -3.6890   22.6990  -31.3440 C   0  0  0  0  0  0  0  0  0  0  0  0
   -3.1350   22.1410  -32.3290 O   0  0  0  0  0  0  0  0  0  0  0  0
   -5.1090   22.9160  -31.3480 N   0  0  0  0  0  0  0  0  0  0  0  0
   -5.7900   24.0080  -30.8980 C   0  0  0  0  0  0  0  0  0  0  0  0
   -5.1900   25.2830  -30.4520 C   0  0  0  0  0  0  0  0  0  0  0  0
   -3.8710   25.6510  -30.8470 N   0  0  0  0  0  0  0  0  0  0  0  0
   -5.8700   26.0820  -29.7540 O   0  0  0  0  0  0  0  0  0  0  0  0
   -7.1640   23.7990  -30.9920 C   0  0  0  0  0  0  0  0  0  0  0  0
   -7.3060   22.5390  -31.5270 C   0  0  0  0  0  0  0  0  0  0  0  0
   -8.4580   21.8160  -31.8220 C   0  0  0  0  0  0  0  0  0  0  0  0
   -8.3070   20.5180  -32.3390 C   0  0  0  0  0  0  0  0  0  0  0  0
   -7.0170   19.9720  -32.5530 C   0  0  0  0  0  0  0  0  0  0  0  0
   -6.8690   18.5660  -33.0660 C   0  0  0  0  0  0  0  0  0  0  0  0
   -5.8400   18.5100  -34.1540 C   0  0  0  0  0  0  0  0  0  0  0  0
   -6.1150   18.8800  -35.2840 O   0  0  0  0  0  0  0  0  0  0  0  0
   -5.8700   20.7320  -32.2320 C   0  0  0  0  0  0  0  0  0  0  0  0
   -6.0510   22.0270  -31.7330 C   0  0  0  0  0  0  0  0  0  0  0  0
   -4.7015   24.4818  -26.7782 H   0  0  0  0  0  0  0  0  0  0  0  0
   -2.9399   24.6880  -27.4741 H   0  0  0  0  0  0  0  0  0  0  0  0
   -4.9690   22.4322  -28.0443 H   0  0  0  0  0  0  0  0  0  0  0  0
   -1.9553   22.6384  -28.4964 H   0  0  0  0  0  0  0  0  0  0  0  0
   -3.0838   21.3924  -29.1561 H   0  0  0  0  0  0  0  0  0  0  0  0
   -3.0370   25.2960  -30.3290 H   0  0  0  0  0  0  0  0  0  0  0  0
   -7.9655   24.4937  -30.7005 H   0  0  0  0  0  0  0  0  0  0  0  0
   -9.4561   22.2473  -31.6556 H   0  0  0  0  0  0  0  0  0  0  0  0
   -9.1985   19.9203  -32.5798 H   0  0  0  0  0  0  0  0  0  0  0  0
   -6.5581   17.9100  -32.2396 H   0  0  0  0  0  0  0  0  0  0  0  0
   -7.8351   18.2320  -33.4724 H   0  0  0  0  0  0  0  0  0  0  0  0
   -4.8306   18.1331  -33.9328 H   0  0  0  0  0  0  0  0  0  0  0  0
   -4.8609   20.3167  -32.3707 H   0  0  0  0  0  0  0  0  0  0  0  0
  1  2  2  0
  2  3  1  0
  3  4  1  0
  4  5  1  0
  5  6  2  0
  5  7  1  0
  7  8  1  0
  8  9  1  0
  9 10  1  0
  9 11  2  0
  8 12  2  0
 12 13  1  0
 13 14  2  0
 14 15  1  0
 15 16  2  0
 16 17  1  0
 17 18  1  0
 18 19  2  0
 16 20  1  0
 20 21  2  0
 21  7  1  0
 21 13  1  0
  1 22  1  0
  1 23  1  0
  2 24  1  0
  3 25  1  0
  3 26  1  0
 10 27  1  0
 12 28  1  0
 14 29  1  0
 15 30  1  0
 17 31  1  0
 17 32  1  0
 18 33  1  0
 20 34  1  0
M  CHG  1  10  -1
M  END
>  <UniqueID>  (56) 
56

>  <SMILES>  (56) 
C=CCOC(=O)n1c(C([NH-])=O)cc2ccc(CC=O)cc21

>  <Energy>  (56) 
66.95777408865162

>  <Genealogy>  (56) 
C=CCOC(=O)n1c(C([NH-])=O)cc2ccc(CC=O)cc21 (protonated)
C=CCOC(=O)n1c(C([NH-])=O)cc2ccc(CC=O)cc21 (3D coordinates assigned)
C=CCOC(=O)n1c(C([NH-])=O)cc2ccc(CC=O)cc21 (optimized conformer: 66.95777408865162 kcal/mol)

>  <smiles>  (56) 
C=CCOC(=O)n1c(C(N)=O)cc2ccc(CC=O)cc21

>  <score_type>  (56) 
oracle

>  <origin>  (56) 
adg

>  <m_score__min__energy>  (56) 
-9.7799999999999994

>  <m_primary>  (56) 
energy

$$$$
56:0
     RDKit          3D

 49 51  0  0  0  0  0  0  0  0999 V2000
   -5.2190   14.8150  -33.7420 C   0  0  0  0  0  0  0  0  0  0  0  0
   -4.3450   15.6330  -32.8050 C   0  0  0  0  0  0  0  0  0  0  0  0
   -4.3570   16.9970  -33.2140 O   0  0  0  0  0  0  0  0  0  0  0  0
   -4.6540   17.3890  -34.5210 C   0  0  0  0  0  0  0  0  0  0  0  0
   -3.9970   16.9320  -35.4960 O   0  0  0  0  0  0  0  0  0  0  0  0
   -5.7160   18.4150  -34.7570 C   0  0  0  0  0  0  0  0  0  0  0  0
   -6.5870   18.5280  -33.5770 N   0  0  0  0  0  0  0  0  0  0  0  0
   -7.2960   17.3430  -33.0820 C   0  0  0  0  0  0  0  0  0  0  0  0
   -6.7840   19.8040  -32.9220 C   0  0  0  0  0  0  0  0  0  0  0  0
   -8.0930   20.2570  -32.6050 C   0  0  0  0  0  0  0  0  0  0  0  0
   -8.2920   21.4900  -31.9620 C   0  0  0  0  0  0  0  0  0  0  0  0
   -7.1710   22.2470  -31.6400 C   0  0  0  0  0  0  0  0  0  0  0  0
   -7.0800   23.4780  -31.0340 C   0  0  0  0  0  0  0  0  0  0  0  0
   -5.7170   23.7550  -30.9630 C   0  0  0  0  0  0  0  0  0  0  0  0
   -5.1630   24.9560  -30.3020 C   0  0  0  0  0  0  0  0  0  0  0  0
   -3.9830   25.5680  -30.8170 N   0  0  0  0  0  0  0  0  0  0  0  0
   -5.7390   25.4690  -29.3070 O   0  0  0  0  0  0  0  0  0  0  0  0
   -4.9940   22.7380  -31.5110 N   0  0  0  0  0  0  0  0  0  0  0  0
   -3.5700   22.6700  -31.6890 C   0  0  0  0  0  0  0  0  0  0  0  0
   -2.8150   23.1740  -30.8160 O   0  0  0  0  0  0  0  0  0  0  0  0
   -3.0530   22.0200  -32.8240 O   0  0  0  0  0  0  0  0  0  0  0  0
   -2.1440   20.9080  -32.9090 C   0  0  0  0  0  0  0  0  0  0  0  0
   -0.7090   21.1920  -32.4680 C   0  0  0  0  0  0  0  0  0  0  0  0
   -2.3240   19.9180  -34.0500 C   0  0  0  0  0  0  0  0  0  0  0  0
   -2.6800   19.5150  -32.6120 C   0  0  0  0  0  0  0  0  0  0  0  0
   -5.8990   21.8230  -31.9220 C   0  0  0  0  0  0  0  0  0  0  0  0
   -5.6710   20.6100  -32.5810 C   0  0  0  0  0  0  0  0  0  0  0  0
   -5.8965   14.1809  -33.1513 H   0  0  0  0  0  0  0  0  0  0  0  0
   -5.8102   15.4918  -34.3763 H   0  0  0  0  0  0  0  0  0  0  0  0
   -4.5827   14.1804  -34.3763 H   0  0  0  0  0  0  0  0  0  0  0  0
   -4.7338   15.5545  -31.7790 H   0  0  0  0  0  0  0  0  0  0  0  0
   -3.3144   15.2498  -32.8371 H   0  0  0  0  0  0  0  0  0  0  0  0
   -5.2430   19.3885  -34.9536 H   0  0  0  0  0  0  0  0  0  0  0  0
   -6.3229   18.1097  -35.6222 H   0  0  0  0  0  0  0  0  0  0  0  0
   -7.2935   17.3471  -31.9820 H   0  0  0  0  0  0  0  0  0  0  0  0
   -8.3338   17.3578  -33.4464 H   0  0  0  0  0  0  0  0  0  0  0  0
   -6.7923   16.4355  -33.4464 H   0  0  0  0  0  0  0  0  0  0  0  0
   -8.9613   19.6344  -32.8664 H   0  0  0  0  0  0  0  0  0  0  0  0
   -9.3044   21.8460  -31.7205 H   0  0  0  0  0  0  0  0  0  0  0  0
   -7.9081   24.1099  -30.6804 H   0  0  0  0  0  0  0  0  0  0  0  0
   -3.0380   25.2970  -30.4620 H   0  0  0  0  0  0  0  0  0  0  0  0
   -0.6583   21.2020  -31.3692 H   0  0  0  0  0  0  0  0  0  0  0  0
   -0.0434   20.4082  -32.8586 H   0  0  0  0  0  0  0  0  0  0  0  0
   -0.3922   22.1703  -32.8586 H   0  0  0  0  0  0  0  0  0  0  0  0
   -3.1211   20.0720  -34.7922 H   0  0  0  0  0  0  0  0  0  0  0  0
   -1.6729   19.5077  -34.8360 H   0  0  0  0  0  0  0  0  0  0  0  0
   -3.7325   19.3799  -32.3223 H   0  0  0  0  0  0  0  0  0  0  0  0
   -2.3905   18.6956  -31.9376 H   0  0  0  0  0  0  0  0  0  0  0  0
   -4.6484   20.2893  -32.8290 H   0  0  0  0  0  0  0  0  0  0  0  0
  1  2  1  0
  2  3  1  0
  3  4  1  0
  4  5  2  0
  4  6  1  0
  6  7  1  0
  7  8  1  0
  7  9  1  0
  9 10  2  0
 10 11  1  0
 11 12  2  0
 12 13  1  0
 13 14  2  0
 14 15  1  0
 15 16  1  0
 15 17  2  0
 14 18  1  0
 18 19  1  0
 19 20  2  0
 19 21  1  0
 21 22  1  0
 22 23  1  0
 22 24  1  0
 24 25  1  0
 18 26  1  0
 26 27  2  0
 27  9  1  0
 26 12  1  0
 25 22  1  0
  1 28  1  0
  1 29  1  0
  1 30  1  0
  2 31  1  0
  2 32  1  0
  6 33  1  0
  6 34  1  0
  8 35  1  0
  8 36  1  0
  8 37  1  0
 10 38  1  0
 11 39  1  0
 13 40  1  0
 16 41  1  0
 23 42  1  0
 23 43  1  0
 23 44  1  0
 24 45  1  0
 24 46  1  0
 25 47  1  0
 25 48  1  0
 27 49  1  0
M  CHG  1  16  -1
M  END
>  <UniqueID>  (57) 
57

>  <SMILES>  (57) 
CCOC(=O)CN(C)c1ccc2cc(C([NH-])=O)n(C(=O)OC3(C)CC3)c2c1

>  <Energy>  (57) 
357.1307055052287

>  <Genealogy>  (57) 
CCOC(=O)CN(C)c1ccc2cc(C([NH-])=O)n(C(=O)OC3(C)CC3)c2c1 (protonated)
CCOC(=O)CN(C)c1ccc2cc(C([NH-])=O)n(C(=O)OC3(C)CC3)c2c1 (3D coordinates assigned)
CCOC(=O)CN(C)c1ccc2cc(C([NH-])=O)n(C(=O)OC3(C)CC3)c2c1 (nonaromatic ring conformer: 357.1307055052287 kcal/mol)

>  <smiles>  (57) 
CCOC(=O)CN(C)c1ccc2cc(C(N)=O)n(C(=O)OC3(C)CC3)c2c1

>  <score_type>  (57) 
oracle

>  <origin>  (57) 
adg

>  <m_score__min__energy>  (57) 
-10.460000000000001

>  <m_primary>  (57) 
energy

$$$$
57:0
     RDKit          3D

 31 33  0  0  0  0  0  0  0  0999 V2000
   -7.2100   14.7900  -34.3060 C   0  0  0  0  0  0  0  0  0  0  0  0
   -6.4110   16.0340  -34.0850 C   0  0  0  0  0  0  0  0  0  0  0  0
   -5.0920   16.1690  -34.5060 C   0  0  0  0  0  0  0  0  0  0  0  0
   -4.5970   17.7320  -34.1400 S   0  0  0  0  0  0  0  0  0  0  0  0
   -6.0750   18.1860  -33.4660 C   0  0  0  0  0  0  0  0  0  0  0  0
   -6.3840   19.5250  -32.9050 C   0  0  0  0  0  0  0  0  0  0  0  0
   -7.7340   19.9320  -32.7380 C   0  0  0  0  0  0  0  0  0  0  0  0
   -8.0470   21.1980  -32.2170 C   0  0  0  0  0  0  0  0  0  0  0  0
   -6.9960   22.0390  -31.8710 C   0  0  0  0  0  0  0  0  0  0  0  0
   -7.0150   23.3180  -31.3640 C   0  0  0  0  0  0  0  0  0  0  0  0
   -5.6770   23.6760  -31.2140 C   0  0  0  0  0  0  0  0  0  0  0  0
   -5.2470   24.9450  -30.5960 C   0  0  0  0  0  0  0  0  0  0  0  0
   -3.8700   25.3150  -30.5630 N   0  0  0  0  0  0  0  0  0  0  0  0
   -6.0980   25.6840  -30.0320 O   0  0  0  0  0  0  0  0  0  0  0  0
   -4.8610   22.6640  -31.6290 N   0  0  0  0  0  0  0  0  0  0  0  0
   -3.4290   22.6550  -31.7410 C   0  0  0  0  0  0  0  0  0  0  0  0
   -2.8520   21.9590  -32.6160 O   0  0  0  0  0  0  0  0  0  0  0  0
   -5.6860   21.6660  -32.0170 C   0  0  0  0  0  0  0  0  0  0  0  0
   -5.3440   20.4150  -32.5460 C   0  0  0  0  0  0  0  0  0  0  0  0
   -6.9500   17.1520  -33.5230 N   0  0  0  0  0  0  0  0  0  0  0  0
   -7.4888   14.3559  -33.3345 H   0  0  0  0  0  0  0  0  0  0  0  0
   -8.1202   15.0347  -34.8731 H   0  0  0  0  0  0  0  0  0  0  0  0
   -6.6089   14.0640  -34.8731 H   0  0  0  0  0  0  0  0  0  0  0  0
   -4.4828   15.3921  -34.9912 H   0  0  0  0  0  0  0  0  0  0  0  0
   -8.5461   19.2460  -33.0207 H   0  0  0  0  0  0  0  0  0  0  0  0
   -9.0924   21.5145  -32.0867 H   0  0  0  0  0  0  0  0  0  0  0  0
   -7.8990   23.9283  -31.1273 H   0  0  0  0  0  0  0  0  0  0  0  0
   -3.4940   26.0400  -31.2130 H   0  0  0  0  0  0  0  0  0  0  0  0
   -2.8278   23.2658  -31.0514 H   0  0  0  0  0  0  0  0  0  0  0  0
   -4.2898   20.1305  -32.6795 H   0  0  0  0  0  0  0  0  0  0  0  0
   -7.9420   17.2010  -33.2050 H   0  0  0  0  0  0  0  0  0  0  0  0
  1  2  1  0
  2  3  2  0
  3  4  1  0
  4  5  1  0
  5  6  1  0
  6  7  2  0
  7  8  1  0
  8  9  2  0
  9 10  1  0
 10 11  2  0
 11 12  1  0
 12 13  1  0
 12 14  2  0
 11 15  1  0
 15 16  1  0
 16 17  2  0
 15 18  1  0
 18 19  2  0
  5 20  2  0
 20  2  1  0
 19  6  1  0
 18  9  1  0
  1 21  1  0
  1 22  1  0
  1 23  1  0
  3 24  1  0
  7 25  1  0
  8 26  1  0
 10 27  1  0
 13 28  1  0
 16 29  1  0
 19 30  1  0
 20 31  1  0
M  CHG  2  13  -1  20   1
M  END
>  <UniqueID>  (58) 
58

>  <SMILES>  (58) 
Cc1csc(-c2ccc3cc(C([NH-])=O)n(C=O)c3c2)[nH+]1

>  <Energy>  (58) 
102.41993767632266

>  <Genealogy>  (58) 
Cc1csc(-c2ccc3cc(C([NH-])=O)n(C=O)c3c2)[nH+]1 (protonated)
Cc1csc(-c2ccc3cc(C([NH-])=O)n(C=O)c3c2)[nH+]1 (3D coordinates assigned)
Cc1csc(-c2ccc3cc(C([NH-])=O)n(C=O)c3c2)[nH+]1 (optimized conformer: 102.41993767632266 kcal/mol)

>  <smiles>  (58) 
Cc1csc(-c2ccc3cc(C(N)=O)n(C=O)c3c2)n1

>  <score_type>  (58) 
oracle

>  <origin>  (58) 
adg

>  <m_score__min__energy>  (58) 
-9.7200000000000006

>  <m_primary>  (58) 
energy

$$$$
58:0
     RDKit          3D

 33 35  0  0  0  0  0  0  0  0999 V2000
   -1.9370   25.2690  -29.2110 N   0  0  0  0  0  0  0  0  0  0  0  0
   -1.6500   23.8810  -29.3590 C   0  0  0  0  0  0  0  0  0  0  0  0
   -0.7160   23.3690  -28.6880 O   0  0  0  0  0  0  0  0  0  0  0  0
   -2.4700   23.0260  -30.2430 C   0  0  0  0  0  0  0  0  0  0  0  0
   -2.0360   21.7970  -30.7340 C   0  0  0  0  0  0  0  0  0  0  0  0
   -3.1090   21.2810  -31.4250 C   0  0  0  0  0  0  0  0  0  0  0  0
   -3.2310   20.0810  -32.1200 C   0  0  0  0  0  0  0  0  0  0  0  0
   -4.4510   19.8150  -32.7630 C   0  0  0  0  0  0  0  0  0  0  0  0
   -5.5120   20.7530  -32.7150 C   0  0  0  0  0  0  0  0  0  0  0  0
   -6.8210   20.4450  -33.3850 C   0  0  0  0  0  0  0  0  0  0  0  0
   -7.7320   19.7440  -32.4290 C   0  0  0  0  0  0  0  0  0  0  0  0
   -8.8750   20.2220  -32.1940 O   0  0  0  0  0  0  0  0  0  0  0  0
   -7.2730   18.5630  -31.7590 N   0  0  0  0  0  0  0  0  0  0  0  0
   -6.5200   17.4920  -32.3420 C   0  0  0  0  0  0  0  0  0  0  0  0
   -5.7170   16.6940  -31.6070 N   0  0  0  0  0  0  0  0  0  0  0  0
   -5.1090   15.7480  -32.3710 C   0  0  0  0  0  0  0  0  0  0  0  0
   -5.4260   15.7870  -33.7250 C   0  0  0  0  0  0  0  0  0  0  0  0
   -6.5070   17.0530  -33.9680 S   0  0  0  0  0  0  0  0  0  0  0  0
   -5.3550   21.9550  -31.9900 C   0  0  0  0  0  0  0  0  0  0  0  0
   -4.1350   22.1860  -31.3440 C   0  0  0  0  0  0  0  0  0  0  0  0
   -3.7570   23.2660  -30.6220 N   0  0  0  0  0  0  0  0  0  0  0  0
   -4.5300   24.4560  -30.3990 C   0  0  0  0  0  0  0  0  0  0  0  0
   -5.6170   24.4000  -29.7650 O   0  0  0  0  0  0  0  0  0  0  0  0
   -4.1000   25.6770  -30.9060 O   0  0  0  0  0  0  0  0  0  0  0  0
   -2.9070   25.6320  -29.3340 H   0  0  0  0  0  0  0  0  0  0  0  0
   -1.0462   21.3366  -30.5984 H   0  0  0  0  0  0  0  0  0  0  0  0
   -2.3982   19.3637  -32.1642 H   0  0  0  0  0  0  0  0  0  0  0  0
   -4.5841   18.8695  -33.3091 H   0  0  0  0  0  0  0  0  0  0  0  0
   -7.2911   21.3832  -33.7148 H   0  0  0  0  0  0  0  0  0  0  0  0
   -6.6382   19.7943  -34.2528 H   0  0  0  0  0  0  0  0  0  0  0  0
   -4.4162   15.0051  -31.9489 H   0  0  0  0  0  0  0  0  0  0  0  0
   -5.0382   15.1095  -34.5000 H   0  0  0  0  0  0  0  0  0  0  0  0
   -6.1708   22.6908  -31.9345 H   0  0  0  0  0  0  0  0  0  0  0  0
  1  2  1  0
  2  3  2  0
  2  4  1  0
  4  5  2  0
  5  6  1  0
  6  7  2  0
  7  8  1  0
  8  9  2  0
  9 10  1  0
 10 11  1  0
 11 12  2  0
 11 13  1  0
 13 14  1  0
 14 15  2  0
 15 16  1  0
 16 17  2  0
 17 18  1  0
  9 19  1  0
 19 20  2  0
 20 21  1  0
 21 22  1  0
 22 23  2  0
 22 24  1  0
 21  4  1  0
 20  6  1  0
 18 14  1  0
  1 25  1  0
  5 26  1  0
  7 27  1  0
  8 28  1  0
 10 29  1  0
 10 30  1  0
 16 31  1  0
 17 32  1  0
 19 33  1  0
M  CHG  3   1  -1  13  -1  24  -1
M  END
>  <UniqueID>  (59) 
59

>  <SMILES>  (59) 
[NH-]C(=O)c1cc2ccc(CC(=O)[N-]c3nccs3)cc2n1C(=O)[O-]

>  <Energy>  (59) 
104.58717695352256

>  <Genealogy>  (59) 
[NH-]C(=O)c1cc2ccc(CC(=O)[N-]c3nccs3)cc2n1C(=O)[O-] (protonated)
[NH-]C(=O)c1cc2ccc(CC(=O)[N-]c3nccs3)cc2n1C(=O)[O-] (3D coordinates assigned)
[NH-]C(=O)c1cc2ccc(CC(=O)[N-]c3nccs3)cc2n1C(=O)[O-] (optimized conformer: 104.58717695352256 kcal/mol)

>  <smiles>  (59) 
NC(=O)c1cc2ccc(CC(=O)Nc3nccs3)cc2n1C(=O)O

>  <score_type>  (59) 
oracle

>  <origin>  (59) 
adg

>  <m_score__min__energy>  (59) 
-11.34

>  <m_primary>  (59) 
energy

$$$$
59:0
     RDKit          3D

 36 37  0  0  0  0  0  0  0  0999 V2000
   -5.3010   18.2430  -34.6210 C   0  0  0  0  0  0  0  0  0  0  0  0
   -6.3230   18.1470  -33.5710 N   0  0  0  0  0  0  0  0  0  0  0  0
   -6.8030   16.8190  -33.1680 C   0  0  0  0  0  0  0  0  0  0  0  0
   -6.8500   19.3440  -32.9410 C   0  0  0  0  0  0  0  0  0  0  0  0
   -8.2490   19.6040  -32.9270 C   0  0  0  0  0  0  0  0  0  0  0  0
   -8.7660   20.7650  -32.3300 C   0  0  0  0  0  0  0  0  0  0  0  0
   -7.8720   21.6500  -31.7400 C   0  0  0  0  0  0  0  0  0  0  0  0
   -8.1020   22.8580  -31.1240 C   0  0  0  0  0  0  0  0  0  0  0  0
   -6.8470   23.3160  -30.7340 C   0  0  0  0  0  0  0  0  0  0  0  0
   -6.6380   24.5640  -29.9740 C   0  0  0  0  0  0  0  0  0  0  0  0
   -5.4580   24.7690  -29.1950 N   0  0  0  0  0  0  0  0  0  0  0  0
   -7.5420   25.4430  -29.9660 O   0  0  0  0  0  0  0  0  0  0  0  0
   -5.8770   22.4350  -31.1060 N   0  0  0  0  0  0  0  0  0  0  0  0
   -4.4540   22.5940  -30.9790 C   0  0  0  0  0  0  0  0  0  0  0  0
   -3.7390   22.7170  -32.0110 O   0  0  0  0  0  0  0  0  0  0  0  0
   -3.8660   22.6060  -29.7120 O   0  0  0  0  0  0  0  0  0  0  0  0
   -2.5460   23.0820  -29.4780 C   0  0  0  0  0  0  0  0  0  0  0  0
   -2.5120   24.5580  -29.6910 C   0  0  0  0  0  0  0  0  0  0  0  0
   -1.6290   25.2570  -29.1300 O   0  0  0  0  0  0  0  0  0  0  0  0
   -3.4890   25.1710  -30.4660 O   0  0  0  0  0  0  0  0  0  0  0  0
   -6.5230   21.4170  -31.7190 C   0  0  0  0  0  0  0  0  0  0  0  0
   -5.9770   20.2810  -32.3290 C   0  0  0  0  0  0  0  0  0  0  0  0
   -4.3075   18.3363  -34.1582 H   0  0  0  0  0  0  0  0  0  0  0  0
   -5.3310   17.3381  -35.2457 H   0  0  0  0  0  0  0  0  0  0  0  0
   -5.4990   19.1265  -35.2457 H   0  0  0  0  0  0  0  0  0  0  0  0
   -6.8261   16.7551  -32.0701 H   0  0  0  0  0  0  0  0  0  0  0  0
   -7.8159   16.6589  -33.5660 H   0  0  0  0  0  0  0  0  0  0  0  0
   -6.1266   16.0483  -33.5660 H   0  0  0  0  0  0  0  0  0  0  0  0
   -8.9374   18.8829  -33.3919 H   0  0  0  0  0  0  0  0  0  0  0  0
   -9.8471   20.9679  -32.3294 H   0  0  0  0  0  0  0  0  0  0  0  0
   -9.0710   23.3559  -30.9720 H   0  0  0  0  0  0  0  0  0  0  0  0
   -4.7730   23.9960  -29.0420 H   0  0  0  0  0  0  0  0  0  0  0  0
   -5.3100   25.6740  -28.6970 H   0  0  0  0  0  0  0  0  0  0  0  0
   -2.2501   22.8526  -28.4437 H   0  0  0  0  0  0  0  0  0  0  0  0
   -1.8479   22.5921  -30.1727 H   0  0  0  0  0  0  0  0  0  0  0  0
   -4.8892   20.1174  -32.3338 H   0  0  0  0  0  0  0  0  0  0  0  0
  1  2  1  0
  2  3  1  0
  2  4  1  0
  4  5  2  0
  5  6  1  0
  6  7  2  0
  7  8  1  0
  8  9  2  0
  9 10  1  0
 10 11  1  0
 10 12  2  0
  9 13  1  0
 13 14  1  0
 14 15  2  0
 14 16  1  0
 16 17  1  0
 17 18  1  0
 18 19  2  0
 18 20  1  0
 13 21  1  0
 21 22  2  0
 22  4  1  0
 21  7  1  0
  1 23  1  0
  1 24  1  0
  1 25  1  0
  3 26  1  0
  3 27  1  0
  3 28  1  0
  5 29  1  0
  6 30  1  0
  8 31  1  0
 11 32  1  0
 11 33  1  0
 17 34  1  0
 17 35  1  0
 22 36  1  0
M  CHG  1  20  -1
M  END
>  <UniqueID>  (60) 
60

>  <SMILES>  (60) 
CN(C)c1ccc2cc(C(N)=O)n(C(=O)OCC(=O)[O-])c2c1

>  <Energy>  (60) 
73.48267307339708

>  <Genealogy>  (60) 
CN(C)c1ccc2cc(C(N)=O)n(C(=O)OCC(=O)[O-])c2c1 (protonated)
CN(C)c1ccc2cc(C(N)=O)n(C(=O)OCC(=O)[O-])c2c1 (3D coordinates assigned)
CN(C)c1ccc2cc(C(N)=O)n(C(=O)OCC(=O)[O-])c2c1 (optimized conformer: 73.48267307339708 kcal/mol)

>  <smiles>  (60) 
CN(C)c1ccc2cc(C(N)=O)n(C(=O)OCC(=O)O)c2c1

>  <score_type>  (60) 
oracle

>  <origin>  (60) 
adg

>  <m_score__min__energy>  (60) 
-10.199999999999999

>  <m_primary>  (60) 
energy

$$$$
60:0
     RDKit          3D

 36 37  0  0  0  0  0  0  0  0999 V2000
   -4.4578   22.6634  -27.1368 H   0  0  0  0  0  0  0  0  0  0  0  0
   -3.8350   23.5520  -27.3170 C   0  0  0  0  0  0  0  0  0  0  0  0
   -2.7800   23.4620  -28.1370 C   0  0  0  0  0  0  0  0  0  0  0  0
   -2.1503   24.3479  -28.3061 H   0  0  0  0  0  0  0  0  0  0  0  0
   -2.4410   22.1730  -28.8300 C   0  0  0  0  0  0  0  0  0  0  0  0
   -1.5323   22.3153  -29.4334 H   0  0  0  0  0  0  0  0  0  0  0  0
   -2.2757   21.3950  -28.0701 H   0  0  0  0  0  0  0  0  0  0  0  0
   -3.5090   21.7640  -29.6810 O   0  0  0  0  0  0  0  0  0  0  0  0
   -3.9280   22.5010  -30.7960 C   0  0  0  0  0  0  0  0  0  0  0  0
   -3.0780   22.9860  -31.5910 O   0  0  0  0  0  0  0  0  0  0  0  0
   -5.3320   22.6910  -31.0410 N   0  0  0  0  0  0  0  0  0  0  0  0
   -6.0800   23.7870  -30.7370 C   0  0  0  0  0  0  0  0  0  0  0  0
   -5.5590   25.0840  -30.2650 C   0  0  0  0  0  0  0  0  0  0  0  0
   -6.3220   25.8700  -29.6430 O   0  0  0  0  0  0  0  0  0  0  0  0
   -4.2230   25.4940  -30.5620 N   0  0  0  0  0  0  0  0  0  0  0  0
   -3.8620   26.4050  -30.2020 H   0  0  0  0  0  0  0  0  0  0  0  0
   -3.6200   24.9360  -31.2060 H   0  0  0  0  0  0  0  0  0  0  0  0
   -7.4280   23.5500  -30.9880 C   0  0  0  0  0  0  0  0  0  0  0  0
   -8.2682   24.2425  -30.8314 H   0  0  0  0  0  0  0  0  0  0  0  0
   -7.4850   22.2640  -31.4740 C   0  0  0  0  0  0  0  0  0  0  0  0
   -8.5840   21.5030  -31.8610 C   0  0  0  0  0  0  0  0  0  0  0  0
   -9.6002   21.9237  -31.8393 H   0  0  0  0  0  0  0  0  0  0  0  0
   -8.3570   20.1820  -32.2800 C   0  0  0  0  0  0  0  0  0  0  0  0
   -9.2072   19.5550  -32.5868 H   0  0  0  0  0  0  0  0  0  0  0  0
   -7.0430   19.6470  -32.3120 C   0  0  0  0  0  0  0  0  0  0  0  0
   -6.8200   18.2080  -32.7020 C   0  0  0  0  0  0  0  0  0  0  0  0
   -7.9680   17.4630  -32.4950 F   0  0  0  0  0  0  0  0  0  0  0  0
   -5.8010   17.6490  -31.9510 F   0  0  0  0  0  0  0  0  0  0  0  0
   -6.4800   18.1470  -34.0400 F   0  0  0  0  0  0  0  0  0  0  0  0
   -5.9550   20.4440  -31.8860 C   0  0  0  0  0  0  0  0  0  0  0  0
   -4.9337   20.0360  -31.8630 H   0  0  0  0  0  0  0  0  0  0  0  0
   -6.2080   21.7650  -31.4940 C   0  0  0  0  0  0  0  0  0  0  0  0
   -4.1800   24.8420  -26.6420 C   0  0  0  0  0  0  0  0  0  0  0  0
   -4.1437   24.7061  -25.5510 H   0  0  0  0  0  0  0  0  0  0  0  0
   -3.4573   25.6162  -26.9394 H   0  0  0  0  0  0  0  0  0  0  0  0
   -5.1926   25.1521  -26.9394 H   0  0  0  0  0  0  0  0  0  0  0  0
  1  2  1  0
  2  3  2  0
  3  4  1  0
  3  5  1  0
  5  6  1  0
  5  7  1  0
  5  8  1  0
  8  9  1  0
  9 10  2  0
  9 11  1  0
 11 12  1  0
 12 13  1  0
 13 14  2  0
 13 15  1  0
 15 16  1  0
 15 17  1  0
 12 18  2  0
 18 19  1  0
 18 20  1  0
 20 21  2  0
 21 22  1  0
 21 23  1  0
 23 24  1  0
 23 25  2  0
 25 26  1  0
 26 27  1  0
 26 28  1  0
 26 29  1  0
 25 30  1  0
 30 31  1  0
 30 32  2  0
  2 33  1  0
 33 34  1  0
 33 35  1  0
 33 36  1  0
 32 11  1  0
 32 20  1  0
M  END
>  <UniqueID>  (61) 
61

>  <SMILES>  (61) 
C/C=C/COC(=O)n1c(C(N)=O)cc2ccc(C(F)(F)F)cc21

>  <Energy>  (61) 
68.64063554474285

>  <Genealogy>  (61) 
C/C=C/COC(=O)n1c(C(N)=O)cc2ccc(C(F)(F)F)cc21 (cis-trans isomerization)
C/C=C/COC(=O)n1c(C(N)=O)cc2ccc(C(F)(F)F)cc21 (3D coordinates assigned)
C/C=C/COC(=O)n1c(C(N)=O)cc2ccc(C(F)(F)F)cc21 (optimized conformer: 68.64063554474285 kcal/mol)

>  <smiles>  (61) 
C/C=C/COC(=O)n1c(C(N)=O)cc2ccc(C(F)(F)F)cc21

>  <score_type>  (61) 
oracle

>  <origin>  (61) 
adg

>  <m_score__min__energy>  (61) 
-8.4399999999999995

>  <m_primary>  (61) 
energy

$$$$
61:0
     RDKit          3D

 41 42  0  0  0  0  0  0  0  0999 V2000
   -8.1890   23.0440  -31.9540 C   0  0  0  0  0  0  0  0  0  0  0  0
   -7.1380   22.7680  -30.9260 C   0  0  0  0  0  0  0  0  0  0  0  0
   -7.4670   22.7200  -29.7100 O   0  0  0  0  0  0  0  0  0  0  0  0
   -5.7610   22.5900  -31.3010 N   0  0  0  0  0  0  0  0  0  0  0  0
   -4.6910   23.3610  -30.9550 C   0  0  0  0  0  0  0  0  0  0  0  0
   -4.7540   24.6600  -30.2560 C   0  0  0  0  0  0  0  0  0  0  0  0
   -5.4730   24.8040  -29.0310 N   0  0  0  0  0  0  0  0  0  0  0  0
   -4.2080   25.6700  -30.7760 O   0  0  0  0  0  0  0  0  0  0  0  0
   -3.5040   22.7890  -31.4070 C   0  0  0  0  0  0  0  0  0  0  0  0
   -3.8840   21.6400  -32.0650 C   0  0  0  0  0  0  0  0  0  0  0  0
   -3.1100   20.6800  -32.7090 C   0  0  0  0  0  0  0  0  0  0  0  0
   -3.7700   19.5760  -33.2770 C   0  0  0  0  0  0  0  0  0  0  0  0
   -5.1770   19.4460  -33.1740 C   0  0  0  0  0  0  0  0  0  0  0  0
   -5.8340   18.3010  -33.7360 N   0  0  0  0  0  0  0  0  0  0  0  0
   -5.2580   17.6660  -34.9210 C   0  0  0  0  0  0  0  0  0  0  0  0
   -7.2330   18.0260  -33.3810 C   0  0  0  0  0  0  0  0  0  0  0  0
   -7.4050   17.8180  -31.8710 C   0  0  0  0  0  0  0  0  0  0  0  0
   -8.5990   18.6030  -31.3120 C   0  0  0  0  0  0  0  0  0  0  0  0
   -9.3360   19.3130  -32.4090 C   0  0  0  0  0  0  0  0  0  0  0  0
   -9.6280   20.4930  -32.2990 O   0  0  0  0  0  0  0  0  0  0  0  0
   -5.9300   20.4430  -32.5190 C   0  0  0  0  0  0  0  0  0  0  0  0
   -5.2500   21.5430  -31.9860 C   0  0  0  0  0  0  0  0  0  0  0  0
   -9.1360   23.2927  -31.4526 H   0  0  0  0  0  0  0  0  0  0  0  0
   -7.8738   23.8898  -32.5827 H   0  0  0  0  0  0  0  0  0  0  0  0
   -8.3301   22.1524  -32.5827 H   0  0  0  0  0  0  0  0  0  0  0  0
   -6.0780   24.0330  -28.6700 H   0  0  0  0  0  0  0  0  0  0  0  0
   -5.4770   25.7190  -28.5300 H   0  0  0  0  0  0  0  0  0  0  0  0
   -2.4824   23.1725  -31.2683 H   0  0  0  0  0  0  0  0  0  0  0  0
   -2.0165   20.7814  -32.7718 H   0  0  0  0  0  0  0  0  0  0  0  0
   -3.1887   18.8064  -33.8060 H   0  0  0  0  0  0  0  0  0  0  0  0
   -4.5491   16.8845  -34.6102 H   0  0  0  0  0  0  0  0  0  0  0  0
   -6.0611   17.2146  -35.5220 H   0  0  0  0  0  0  0  0  0  0  0  0
   -4.7306   18.4214  -35.5220 H   0  0  0  0  0  0  0  0  0  0  0  0
   -7.8547   18.8768  -33.6967 H   0  0  0  0  0  0  0  0  0  0  0  0
   -7.5409   17.1017  -33.8917 H   0  0  0  0  0  0  0  0  0  0  0  0
   -7.5624   16.7469  -31.6763 H   0  0  0  0  0  0  0  0  0  0  0  0
   -6.4955   18.1851  -31.3730 H   0  0  0  0  0  0  0  0  0  0  0  0
   -9.2855   17.9050  -30.8105 H   0  0  0  0  0  0  0  0  0  0  0  0
   -8.2235   19.3524  -30.5997 H   0  0  0  0  0  0  0  0  0  0  0  0
   -9.6158   18.7651  -33.3209 H   0  0  0  0  0  0  0  0  0  0  0  0
   -7.0230   20.3576  -32.4298 H   0  0  0  0  0  0  0  0  0  0  0  0
  1  2  1  0
  2  3  2  0
  2  4  1  0
  4  5  1  0
  5  6  1  0
  6  7  1  0
  6  8  2  0
  5  9  2  0
  9 10  1  0
 10 11  2  0
 11 12  1  0
 12 13  2  0
 13 14  1  0
 14 15  1  0
 14 16  1  0
 16 17  1  0
 17 18  1  0
 18 19  1  0
 19 20  2  0
 13 21  1  0
 21 22  2  0
 22  4  1  0
 22 10  1  0
  1 23  1  0
  1 24  1  0
  1 25  1  0
  7 26  1  0
  7 27  1  0
  9 28  1  0
 11 29  1  0
 12 30  1  0
 15 31  1  0
 15 32  1  0
 15 33  1  0
 16 34  1  0
 16 35  1  0
 17 36  1  0
 17 37  1  0
 18 38  1  0
 18 39  1  0
 19 40  1  0
 21 41  1  0
M  END
>  <UniqueID>  (62) 
62

>  <SMILES>  (62) 
CC(=O)n1c(C(N)=O)cc2ccc(N(C)CCCC=O)cc21

>  <Energy>  (62) 
78.24051639256156

>  <Genealogy>  (62) 
CC(=O)n1c(C(N)=O)cc2ccc(N(C)CCCC=O)cc21 (3D coordinates assigned)
CC(=O)n1c(C(N)=O)cc2ccc(N(C)CCCC=O)cc21 (optimized conformer: 78.24051639256156 kcal/mol)

>  <smiles>  (62) 
CC(=O)n1c(C(N)=O)cc2ccc(N(C)CCCC=O)cc21

>  <score_type>  (62) 
oracle

>  <origin>  (62) 
adg

>  <m_score__min__energy>  (62) 
-8.0299999999999994

>  <m_primary>  (62) 
energy

$$$$
62:0
     RDKit          3D

 37 39  0  0  0  0  0  0  0  0999 V2000
    0.2340   21.6680  -28.2950 C   0  0  0  0  0  0  0  0  0  0  0  0
   -0.6350   22.8620  -28.5060 C   0  0  0  0  0  0  0  0  0  0  0  0
   -0.2000   24.0950  -28.6260 O   0  0  0  0  0  0  0  0  0  0  0  0
   -1.2690   24.8360  -28.8090 C   0  0  0  0  0  0  0  0  0  0  0  0
   -1.2350   26.0850  -28.9650 O   0  0  0  0  0  0  0  0  0  0  0  0
   -2.3780   24.1320  -28.8150 O   0  0  0  0  0  0  0  0  0  0  0  0
   -2.0130   22.8860  -28.6250 C   0  0  0  0  0  0  0  0  0  0  0  0
   -2.9450   21.7220  -28.5740 C   0  0  0  0  0  0  0  0  0  0  0  0
   -3.4830   21.4940  -29.8710 O   0  0  0  0  0  0  0  0  0  0  0  0
   -3.8440   22.5330  -30.7330 C   0  0  0  0  0  0  0  0  0  0  0  0
   -2.9570   23.2190  -31.3100 O   0  0  0  0  0  0  0  0  0  0  0  0
   -5.2330   22.8310  -30.9420 N   0  0  0  0  0  0  0  0  0  0  0  0
   -5.8370   24.0530  -30.8950 C   0  0  0  0  0  0  0  0  0  0  0  0
   -5.2130   25.3120  -30.4390 C   0  0  0  0  0  0  0  0  0  0  0  0
   -3.8980   25.6710  -30.8520 N   0  0  0  0  0  0  0  0  0  0  0  0
   -5.8320   26.0580  -29.6330 O   0  0  0  0  0  0  0  0  0  0  0  0
   -7.1770   23.9510  -31.2640 C   0  0  0  0  0  0  0  0  0  0  0  0
   -7.3800   22.6180  -31.5370 C   0  0  0  0  0  0  0  0  0  0  0  0
   -8.5310   21.9550  -31.9510 C   0  0  0  0  0  0  0  0  0  0  0  0
   -8.4480   20.5720  -32.1820 C   0  0  0  0  0  0  0  0  0  0  0  0
   -7.2180   19.8830  -32.0230 C   0  0  0  0  0  0  0  0  0  0  0  0
   -7.1500   18.3920  -32.2380 C   0  0  0  0  0  0  0  0  0  0  0  0
   -6.7770   18.1030  -33.5390 F   0  0  0  0  0  0  0  0  0  0  0  0
   -6.2220   17.8490  -31.3710 F   0  0  0  0  0  0  0  0  0  0  0  0
   -8.3830   17.8070  -32.0030 F   0  0  0  0  0  0  0  0  0  0  0  0
   -6.0760   20.5890  -31.5770 C   0  0  0  0  0  0  0  0  0  0  0  0
   -6.1920   21.9630  -31.3360 C   0  0  0  0  0  0  0  0  0  0  0  0
    0.3613   21.4931  -27.2165 H   0  0  0  0  0  0  0  0  0  0  0  0
   -0.2354   20.7867  -28.7565 H   0  0  0  0  0  0  0  0  0  0  0  0
    1.2169   21.8437  -28.7565 H   0  0  0  0  0  0  0  0  0  0  0  0
   -2.3982   20.8277  -28.2405 H   0  0  0  0  0  0  0  0  0  0  0  0
   -3.7616   21.9341  -27.8682 H   0  0  0  0  0  0  0  0  0  0  0  0
   -3.0580   25.2850  -30.3670 H   0  0  0  0  0  0  0  0  0  0  0  0
   -7.9157   24.7639  -31.3242 H   0  0  0  0  0  0  0  0  0  0  0  0
   -9.4773   22.4975  -32.0931 H   0  0  0  0  0  0  0  0  0  0  0  0
   -9.3465   20.0170  -32.4896 H   0  0  0  0  0  0  0  0  0  0  0  0
   -5.1185   20.0699  -31.4231 H   0  0  0  0  0  0  0  0  0  0  0  0
  1  2  1  0
  2  3  1  0
  3  4  1  0
  4  5  2  0
  4  6  1  0
  6  7  1  0
  7  8  1  0
  8  9  1  0
  9 10  1  0
 10 11  2  0
 10 12  1  0
 12 13  1  0
 13 14  1  0
 14 15  1  0
 14 16  2  0
 13 17  2  0
 17 18  1  0
 18 19  2  0
 19 20  1  0
 20 21  2  0
 21 22  1  0
 22 23  1  0
 22 24  1  0
 22 25  1  0
 21 26  1  0
 26 27  2  0
  7  2  2  0
 27 12  1  0
 27 18  1  0
  1 28  1  0
  1 29  1  0
  1 30  1  0
  8 31  1  0
  8 32  1  0
 15 33  1  0
 17 34  1  0
 19 35  1  0
 20 36  1  0
 26 37  1  0
M  CHG  1  15  -1
M  END
>  <UniqueID>  (63) 
63

>  <SMILES>  (63) 
Cc1oc(=O)oc1COC(=O)n1c(C([NH-])=O)cc2ccc(C(F)(F)F)cc21

>  <Energy>  (63) 
107.76637180816368

>  <Genealogy>  (63) 
Cc1oc(=O)oc1COC(=O)n1c(C([NH-])=O)cc2ccc(C(F)(F)F)cc21 (protonated)
Cc1oc(=O)oc1COC(=O)n1c(C([NH-])=O)cc2ccc(C(F)(F)F)cc21 (3D coordinates assigned)
Cc1oc(=O)oc1COC(=O)n1c(C([NH-])=O)cc2ccc(C(F)(F)F)cc21 (optimized conformer: 107.76637180816368 kcal/mol)

>  <smiles>  (63) 
Cc1oc(=O)oc1COC(=O)n1c(C(N)=O)cc2ccc(C(F)(F)F)cc21

>  <score_type>  (63) 
oracle

>  <origin>  (63) 
adg

>  <m_score__min__energy>  (63) 
-10.609999999999999

>  <m_primary>  (63) 
energy

$$$$
63:0
     RDKit          3D

 42 44  0  0  0  0  0  0  0  0999 V2000
   -6.1160   17.3560  -34.6170 N   0  0  0  0  0  0  0  0  0  0  0  0
   -6.8320   17.7220  -33.4370 C   0  0  0  0  0  0  0  0  0  0  0  0
   -7.3670   16.8210  -32.7370 O   0  0  0  0  0  0  0  0  0  0  0  0
   -6.9080   19.1280  -32.9900 C   0  0  0  0  0  0  0  0  0  0  0  0
   -8.1050   19.7740  -32.6970 C   0  0  0  0  0  0  0  0  0  0  0  0
   -7.7440   21.0300  -32.2670 C   0  0  0  0  0  0  0  0  0  0  0  0
   -8.5390   22.0950  -31.8540 C   0  0  0  0  0  0  0  0  0  0  0  0
   -7.9000   23.2920  -31.4910 C   0  0  0  0  0  0  0  0  0  0  0  0
   -6.4900   23.4040  -31.5520 C   0  0  0  0  0  0  0  0  0  0  0  0
   -5.8190   24.7020  -31.2000 C   0  0  0  0  0  0  0  0  0  0  0  0
   -4.5870   24.4410  -30.3950 C   0  0  0  0  0  0  0  0  0  0  0  0
   -4.5160   23.4210  -29.6590 O   0  0  0  0  0  0  0  0  0  0  0  0
   -3.4970   25.2960  -30.4940 O   0  0  0  0  0  0  0  0  0  0  0  0
   -5.7170   22.3090  -31.9970 C   0  0  0  0  0  0  0  0  0  0  0  0
   -6.3760   21.1180  -32.3240 C   0  0  0  0  0  0  0  0  0  0  0  0
   -5.8460   19.9520  -32.7630 N   0  0  0  0  0  0  0  0  0  0  0  0
   -4.4600   19.6700  -33.0360 C   0  0  0  0  0  0  0  0  0  0  0  0
   -4.1220   19.3000  -34.1910 O   0  0  0  0  0  0  0  0  0  0  0  0
   -3.3980   19.8890  -32.0330 C   0  0  0  0  0  0  0  0  0  0  0  0
   -2.2360   20.5380  -32.2410 C   0  0  0  0  0  0  0  0  0  0  0  0
   -1.2160   20.5630  -31.1320 C   0  0  0  0  0  0  0  0  0  0  0  0
    0.0970   21.1690  -31.6310 C   0  0  0  0  0  0  0  0  0  0  0  0
    0.4040   20.6420  -32.9070 O   0  0  0  0  0  0  0  0  0  0  0  0
   -0.4480   21.1940  -33.9020 C   0  0  0  0  0  0  0  0  0  0  0  0
   -1.9270   21.3590  -33.4740 C   0  0  0  0  0  0  0  0  0  0  0  0
   -5.5100   18.0420  -35.1180 H   0  0  0  0  0  0  0  0  0  0  0  0
   -6.1140   16.3620  -34.9410 H   0  0  0  0  0  0  0  0  0  0  0  0
   -9.1228   19.3672  -32.7894 H   0  0  0  0  0  0  0  0  0  0  0  0
   -9.6343   22.0022  -31.8131 H   0  0  0  0  0  0  0  0  0  0  0  0
   -8.5008   24.1505  -31.1562 H   0  0  0  0  0  0  0  0  0  0  0  0
   -5.5445   25.2320  -32.1240 H   0  0  0  0  0  0  0  0  0  0  0  0
   -6.5126   25.3171  -30.6079 H   0  0  0  0  0  0  0  0  0  0  0  0
   -4.6235   22.3900  -32.0845 H   0  0  0  0  0  0  0  0  0  0  0  0
   -3.5718   19.4855  -31.0246 H   0  0  0  0  0  0  0  0  0  0  0  0
   -1.6013   21.1685  -30.2984 H   0  0  0  0  0  0  0  0  0  0  0  0
   -1.0290   19.5328  -30.7949 H   0  0  0  0  0  0  0  0  0  0  0  0
   -0.0066   22.2619  -31.7008 H   0  0  0  0  0  0  0  0  0  0  0  0
    0.9058   20.9218  -30.9277 H   0  0  0  0  0  0  0  0  0  0  0  0
   -0.0581   22.1860  -34.1740 H   0  0  0  0  0  0  0  0  0  0  0  0
   -0.4465   20.4814  -34.7400 H   0  0  0  0  0  0  0  0  0  0  0  0
   -2.1211   22.4197  -33.2565 H   0  0  0  0  0  0  0  0  0  0  0  0
   -2.5682   21.0073  -34.2957 H   0  0  0  0  0  0  0  0  0  0  0  0
  1  2  1  0
  2  3  2  0
  2  4  1  0
  4  5  2  0
  5  6  1  0
  6  7  2  0
  7  8  1  0
  8  9  2  0
  9 10  1  0
 10 11  1  0
 11 12  2  0
 11 13  1  0
  9 14  1  0
 14 15  2  0
 15 16  1  0
 16 17  1  0
 17 18  2  0
 17 19  1  0
 19 20  2  3
 20 21  1  0
 21 22  1  0
 22 23  1  0
 23 24  1  0
 24 25  1  0
 16  4  1  0
 25 20  1  0
 15  6  1  0
  1 26  1  0
  1 27  1  0
  5 28  1  0
  7 29  1  0
  8 30  1  0
 10 31  1  0
 10 32  1  0
 14 33  1  0
 19 34  1  0
 21 35  1  0
 21 36  1  0
 22 37  1  0
 22 38  1  0
 24 39  1  0
 24 40  1  0
 25 41  1  0
 25 42  1  0
M  CHG  1  13  -1
M  END
>  <UniqueID>  (64) 
64

>  <SMILES>  (64) 
NC(=O)c1cc2ccc(CC(=O)[O-])cc2n1C(=O)C=C1CCOCC1

>  <Energy>  (64) 
91.75468631240375

>  <Genealogy>  (64) 
NC(=O)c1cc2ccc(CC(=O)[O-])cc2n1C(=O)C=C1CCOCC1 (protonated)
NC(=O)c1cc2ccc(CC(=O)[O-])cc2n1C(=O)C=C1CCOCC1 (3D coordinates assigned)
NC(=O)c1cc2ccc(CC(=O)[O-])cc2n1C(=O)C=C1CCOCC1 (nonaromatic ring conformer: 91.75468631240375 kcal/mol)

>  <smiles>  (64) 
NC(=O)c1cc2ccc(CC(=O)O)cc2n1C(=O)C=C1CCOCC1

>  <score_type>  (64) 
oracle

>  <origin>  (64) 
adg

>  <m_score__min__energy>  (64) 
-10.720000000000001

>  <m_primary>  (64) 
energy

$$$$
64:0
     RDKit          3D

 61 62  0  0  0  0  0  0  0  0999 V2000
   -9.4500   20.8210  -32.0210 C   0  0  0  0  0  0  0  0  0  0  0  0
   -9.2990   19.3210  -32.2940 C   0  0  0  0  0  0  0  0  0  0  0  0
   -7.9570   18.9730  -32.8020 N   0  0  0  0  0  0  0  0  0  0  0  0
   -6.9080   19.9240  -32.3840 C   0  0  0  0  0  0  0  0  0  0  0  0
   -5.8910   20.2030  -33.5120 C   0  0  0  0  0  0  0  0  0  0  0  0
   -4.6180   19.4930  -33.2810 N   0  0  0  0  0  0  0  0  0  0  0  0
   -4.2730   18.3230  -34.1150 C   0  0  0  0  0  0  0  0  0  0  0  0
   -5.4470   17.8610  -34.9880 C   0  0  0  0  0  0  0  0  0  0  0  0
   -6.5120   17.3990  -34.1760 O   0  0  0  0  0  0  0  0  0  0  0  0
   -6.3260   16.0420  -33.8420 C   0  0  0  0  0  0  0  0  0  0  0  0
   -3.5720   20.1650  -32.5380 C   0  0  0  0  0  0  0  0  0  0  0  0
   -2.2690   19.6020  -32.4530 C   0  0  0  0  0  0  0  0  0  0  0  0
   -1.2450   20.2530  -31.7460 C   0  0  0  0  0  0  0  0  0  0  0  0
   -1.5470   21.4540  -31.1160 C   0  0  0  0  0  0  0  0  0  0  0  0
   -0.7400   22.3050  -30.3950 C   0  0  0  0  0  0  0  0  0  0  0  0
   -1.5670   23.3590  -30.0080 C   0  0  0  0  0  0  0  0  0  0  0  0
   -1.1240   24.4610  -29.1290 C   0  0  0  0  0  0  0  0  0  0  0  0
   -1.9200   25.6320  -28.9700 N   0  0  0  0  0  0  0  0  0  0  0  0
   -0.0610   24.3400  -28.4640 O   0  0  0  0  0  0  0  0  0  0  0  0
   -2.8320   23.1690  -30.4750 N   0  0  0  0  0  0  0  0  0  0  0  0
   -3.9460   24.0670  -30.3760 C   0  0  0  0  0  0  0  0  0  0  0  0
   -3.8380   25.2460  -30.8100 O   0  0  0  0  0  0  0  0  0  0  0  0
   -5.1340   23.6260  -29.7720 O   0  0  0  0  0  0  0  0  0  0  0  0
   -6.4680   23.8720  -30.2390 C   0  0  0  0  0  0  0  0  0  0  0  0
   -7.4200   22.7520  -29.7740 C   0  0  0  0  0  0  0  0  0  0  0  0
   -6.4180   23.8740  -31.7750 C   0  0  0  0  0  0  0  0  0  0  0  0
   -6.9680   25.2470  -29.7570 C   0  0  0  0  0  0  0  0  0  0  0  0
   -2.8030   21.9990  -31.1530 C   0  0  0  0  0  0  0  0  0  0  0  0
   -3.8390   21.3830  -31.8620 C   0  0  0  0  0  0  0  0  0  0  0  0
   -9.4676   20.9961  -30.9352 H   0  0  0  0  0  0  0  0  0  0  0  0
   -8.6018   21.3619  -32.4659 H   0  0  0  0  0  0  0  0  0  0  0  0
  -10.3890   21.1820  -32.4659 H   0  0  0  0  0  0  0  0  0  0  0  0
   -9.4753   18.7721  -31.3572 H   0  0  0  0  0  0  0  0  0  0  0  0
  -10.0317   19.0456  -33.0669 H   0  0  0  0  0  0  0  0  0  0  0  0
   -7.6960   18.0140  -32.4700 H   0  0  0  0  0  0  0  0  0  0  0  0
   -7.9910   18.9320  -33.8490 H   0  0  0  0  0  0  0  0  0  0  0  0
   -7.3844   20.8721  -32.0940 H   0  0  0  0  0  0  0  0  0  0  0  0
   -6.3624   19.4759  -31.5405 H   0  0  0  0  0  0  0  0  0  0  0  0
   -6.3181   19.8686  -34.4690 H   0  0  0  0  0  0  0  0  0  0  0  0
   -5.6848   21.2833  -33.5311 H   0  0  0  0  0  0  0  0  0  0  0  0
   -3.4304   18.5915  -34.7692 H   0  0  0  0  0  0  0  0  0  0  0  0
   -4.0108   17.4952  -33.4398 H   0  0  0  0  0  0  0  0  0  0  0  0
   -5.7975   18.7046  -35.6007 H   0  0  0  0  0  0  0  0  0  0  0  0
   -5.1089   17.0391  -35.6362 H   0  0  0  0  0  0  0  0  0  0  0  0
   -6.3110   15.9325  -32.7476 H   0  0  0  0  0  0  0  0  0  0  0  0
   -7.1508   15.4454  -34.2589 H   0  0  0  0  0  0  0  0  0  0  0  0
   -5.3711   15.6893  -34.2589 H   0  0  0  0  0  0  0  0  0  0  0  0
   -2.0600   18.6423  -32.9484 H   0  0  0  0  0  0  0  0  0  0  0  0
   -0.2333   19.8246  -31.6925 H   0  0  0  0  0  0  0  0  0  0  0  0
    0.3298   22.1801  -30.1716 H   0  0  0  0  0  0  0  0  0  0  0  0
   -2.9030   25.6690  -29.3170 H   0  0  0  0  0  0  0  0  0  0  0  0
   -7.4438   22.7240  -28.6746 H   0  0  0  0  0  0  0  0  0  0  0  0
   -8.4320   22.9481  -30.1578 H   0  0  0  0  0  0  0  0  0  0  0  0
   -7.0634   21.7848  -30.1578 H   0  0  0  0  0  0  0  0  0  0  0  0
   -5.3704   23.9159  -32.1077 H   0  0  0  0  0  0  0  0  0  0  0  0
   -6.8880   22.9563  -32.1584 H   0  0  0  0  0  0  0  0  0  0  0  0
   -6.9598   24.7512  -32.1584 H   0  0  0  0  0  0  0  0  0  0  0  0
   -6.9761   25.2693  -28.6573 H   0  0  0  0  0  0  0  0  0  0  0  0
   -6.2984   26.0337  -30.1348 H   0  0  0  0  0  0  0  0  0  0  0  0
   -7.9865   25.4198  -30.1348 H   0  0  0  0  0  0  0  0  0  0  0  0
   -4.8416   21.8343  -31.8948 H   0  0  0  0  0  0  0  0  0  0  0  0
  1  2  1  0
  2  3  1  0
  3  4  1  0
  4  5  1  0
  5  6  1  0
  6  7  1  0
  7  8  1  0
  8  9  1  0
  9 10  1  0
  6 11  1  0
 11 12  2  0
 12 13  1  0
 13 14  2  0
 14 15  1  0
 15 16  2  0
 16 17  1  0
 17 18  1  0
 17 19  2  0
 16 20  1  0
 20 21  1  0
 21 22  2  0
 21 23  1  0
 23 24  1  0
 24 25  1  0
 24 26  1  0
 24 27  1  0
 20 28  1  0
 28 29  2  0
 29 11  1  0
 28 14  1  0
  1 30  1  0
  1 31  1  0
  1 32  1  0
  2 33  1  0
  2 34  1  0
  3 35  1  0
  3 36  1  0
  4 37  1  0
  4 38  1  0
  5 39  1  0
  5 40  1  0
  7 41  1  0
  7 42  1  0
  8 43  1  0
  8 44  1  0
 10 45  1  0
 10 46  1  0
 10 47  1  0
 12 48  1  0
 13 49  1  0
 15 50  1  0
 18 51  1  0
 25 52  1  0
 25 53  1  0
 25 54  1  0
 26 55  1  0
 26 56  1  0
 26 57  1  0
 27 58  1  0
 27 59  1  0
 27 60  1  0
 29 61  1  0
M  CHG  2   3   1  18  -1
M  END
>  <UniqueID>  (65) 
65

>  <SMILES>  (65) 
CC[NH2+]CCN(CCOC)c1ccc2cc(C([NH-])=O)n(C(=O)OC(C)(C)C)c2c1

>  <Energy>  (65) 
98.10372364586965

>  <Genealogy>  (65) 
CC[NH2+]CCN(CCOC)c1ccc2cc(C([NH-])=O)n(C(=O)OC(C)(C)C)c2c1 (protonated)
CC[NH2+]CCN(CCOC)c1ccc2cc(C([NH-])=O)n(C(=O)OC(C)(C)C)c2c1 (3D coordinates assigned)
CC[NH2+]CCN(CCOC)c1ccc2cc(C([NH-])=O)n(C(=O)OC(C)(C)C)c2c1 (optimized conformer: 98.10372364586965 kcal/mol)

>  <smiles>  (65) 
CCNCCN(CCOC)c1ccc2cc(C(N)=O)n(C(=O)OC(C)(C)C)c2c1

>  <score_type>  (65) 
oracle

>  <origin>  (65) 
adg

>  <m_score__min__energy>  (65) 
-10.01

>  <m_primary>  (65) 
energy

$$$$
65:0
     RDKit          3D

 42 44  0  0  0  0  0  0  0  0999 V2000
   -6.8530   16.6790  -33.7020 C   0  0  0  0  0  0  0  0  0  0  0  0
   -6.6880   18.1920  -33.5360 C   0  0  2  0  0  0  0  0  0  0  0  0
   -5.3620   18.5330  -32.8370 C   0  0  0  0  0  0  0  0  0  0  0  0
   -5.3270   19.9500  -32.4520 N   0  0  0  0  0  0  0  0  0  0  0  0
   -4.1260   20.4900  -31.8670 C   0  0  0  0  0  0  0  0  0  0  0  0
   -2.9210   19.7400  -31.8920 C   0  0  0  0  0  0  0  0  0  0  0  0
   -1.7470   20.2510  -31.3190 C   0  0  0  0  0  0  0  0  0  0  0  0
   -1.7980   21.5160  -30.7400 C   0  0  0  0  0  0  0  0  0  0  0  0
   -0.8170   22.2280  -30.0890 C   0  0  0  0  0  0  0  0  0  0  0  0
   -1.4250   23.4180  -29.7030 C   0  0  0  0  0  0  0  0  0  0  0  0
   -0.7050   24.5100  -29.0190 C   0  0  0  0  0  0  0  0  0  0  0  0
   -1.2930   25.8030  -28.8650 N   0  0  0  0  0  0  0  0  0  0  0  0
    0.4710   24.3140  -28.6090 O   0  0  0  0  0  0  0  0  0  0  0  0
   -2.7330   23.4410  -30.0860 N   0  0  0  0  0  0  0  0  0  0  0  0
   -3.7160   24.4460  -29.7780 C   0  0  0  0  0  0  0  0  0  0  0  0
   -4.4370   24.3380  -28.7520 O   0  0  0  0  0  0  0  0  0  0  0  0
   -3.8840   25.5470  -30.6070 O   0  0  0  0  0  0  0  0  0  0  0  0
   -2.9470   22.2660  -30.7220 C   0  0  0  0  0  0  0  0  0  0  0  0
   -4.1380   21.7690  -31.2640 C   0  0  0  0  0  0  0  0  0  0  0  0
   -6.3930   20.8510  -32.9110 C   0  0  0  0  0  0  0  0  0  0  0  0
   -7.8000   20.2220  -32.7110 C   0  0  2  0  0  0  0  0  0  0  0  0
   -8.4370   20.7190  -31.4040 C   0  0  0  0  0  0  0  0  0  0  0  0
   -7.8070   18.7400  -32.7570 N   0  0  0  0  0  0  0  0  0  0  0  0
   -6.9047   16.2049  -32.7108 H   0  0  0  0  0  0  0  0  0  0  0  0
   -7.7793   16.4699  -34.2572 H   0  0  0  0  0  0  0  0  0  0  0  0
   -5.9936   16.2752  -34.2572 H   0  0  0  0  0  0  0  0  0  0  0  0
   -6.6803   18.6425  -34.5395 H   0  0  0  0  0  0  0  0  0  0  0  0
   -5.2589   17.9113  -31.9354 H   0  0  0  0  0  0  0  0  0  0  0  0
   -4.5341   18.3355  -33.5338 H   0  0  0  0  0  0  0  0  0  0  0  0
   -2.9077   18.7474  -32.3658 H   0  0  0  0  0  0  0  0  0  0  0  0
   -0.8135   19.6692  -31.3269 H   0  0  0  0  0  0  0  0  0  0  0  0
    0.2246   21.9219  -29.9118 H   0  0  0  0  0  0  0  0  0  0  0  0
   -0.7840   26.5520  -28.3460 H   0  0  0  0  0  0  0  0  0  0  0  0
   -2.1920   26.0440  -29.3370 H   0  0  0  0  0  0  0  0  0  0  0  0
   -5.0641   22.3611  -31.2217 H   0  0  0  0  0  0  0  0  0  0  0  0
   -6.3373   21.7897  -32.3402 H   0  0  0  0  0  0  0  0  0  0  0  0
   -6.2484   21.0353  -33.9858 H   0  0  0  0  0  0  0  0  0  0  0  0
   -8.4026   20.5584  -33.5676 H   0  0  0  0  0  0  0  0  0  0  0  0
   -7.8935   20.2950  -30.5468 H   0  0  0  0  0  0  0  0  0  0  0  0
   -8.3843   21.8170  -31.3648 H   0  0  0  0  0  0  0  0  0  0  0  0
   -9.4892   20.4008  -31.3648 H   0  0  0  0  0  0  0  0  0  0  0  0
   -7.7540   18.3450  -31.7860 H   0  0  0  0  0  0  0  0  0  0  0  0
  1  2  1  0
  2  3  1  0
  3  4  1  0
  4  5  1  0
  5  6  2  0
  6  7  1  0
  7  8  2  0
  8  9  1  0
  9 10  2  0
 10 11  1  0
 11 12  1  0
 11 13  2  0
 10 14  1  0
 14 15  1  0
 15 16  2  0
 15 17  1  0
 14 18  1  0
 18 19  2  0
  4 20  1  0
 20 21  1  0
 21 22  1  0
 21 23  1  0
 23  2  1  0
 19  5  1  0
 18  8  1  0
  1 24  1  0
  1 25  1  0
  1 26  1  0
  2 27  1  6
  3 28  1  0
  3 29  1  0
  6 30  1  0
  7 31  1  0
  9 32  1  0
 12 33  1  0
 12 34  1  0
 19 35  1  0
 20 36  1  0
 20 37  1  0
 21 38  1  6
 22 39  1  0
 22 40  1  0
 22 41  1  0
 23 42  1  0
M  CHG  1  17  -1
M  END
>  <UniqueID>  (66) 
66

>  <SMILES>  (66) 
C[C@@H]1CN(c2ccc3cc(C(N)=O)n(C(=O)[O-])c3c2)C[C@H](C)N1

>  <Energy>  (66) 
89.16544116534239

>  <Genealogy>  (66) 
C[C@@H]1CN(c2ccc3cc(C(N)=O)n(C(=O)[O-])c3c2)C[C@H](C)N1 (protonated)
C[C@@H]1CN(c2ccc3cc(C(N)=O)n(C(=O)[O-])c3c2)C[C@H](C)N1 (3D coordinates assigned)
C[C@@H]1CN(c2ccc3cc(C(N)=O)n(C(=O)[O-])c3c2)C[C@H](C)N1 (nonaromatic ring conformer: 89.16544116534239 kcal/mol)

>  <smiles>  (66) 
C[C@@H]1CN(c2ccc3cc(C(N)=O)n(C(=O)O)c3c2)C[C@H](C)N1

>  <score_type>  (66) 
oracle

>  <origin>  (66) 
adg

>  <m_score__min__energy>  (66) 
-9.6699999999999999

>  <m_primary>  (66) 
energy

$$$$
66:0
     RDKit          3D

 35 36  0  0  0  0  0  0  0  0999 V2000
   -4.5750   15.1860  -32.2100 C   0  0  0  0  0  0  0  0  0  0  0  0
   -5.3410   15.3350  -33.4000 O   0  0  0  0  0  0  0  0  0  0  0  0
   -6.2710   16.3640  -33.5730 C   0  0  0  0  0  0  0  0  0  0  0  0
   -7.1620   16.2850  -34.4620 O   0  0  0  0  0  0  0  0  0  0  0  0
   -6.1850   17.5880  -32.7150 C   0  0  0  0  0  0  0  0  0  0  0  0
   -7.2400   18.5370  -33.0720 N   0  0  0  0  0  0  0  0  0  0  0  0
   -7.3520   19.8690  -32.5350 C   0  0  0  0  0  0  0  0  0  0  0  0
   -8.6150   20.4840  -32.3140 C   0  0  0  0  0  0  0  0  0  0  0  0
   -8.6990   21.7880  -31.8000 C   0  0  0  0  0  0  0  0  0  0  0  0
   -7.5130   22.4530  -31.5070 C   0  0  0  0  0  0  0  0  0  0  0  0
   -7.3060   23.7270  -31.0310 C   0  0  0  0  0  0  0  0  0  0  0  0
   -5.9230   23.8710  -30.9460 C   0  0  0  0  0  0  0  0  0  0  0  0
   -5.2580   25.0830  -30.4220 C   0  0  0  0  0  0  0  0  0  0  0  0
   -3.8560   25.2840  -30.5860 N   0  0  0  0  0  0  0  0  0  0  0  0
   -5.9310   25.9410  -29.7900 O   0  0  0  0  0  0  0  0  0  0  0  0
   -5.3000   22.7300  -31.3570 N   0  0  0  0  0  0  0  0  0  0  0  0
   -3.8870   22.5020  -31.4850 C   0  0  0  0  0  0  0  0  0  0  0  0
   -3.0000   22.4870  -30.2820 C   0  0  0  0  0  0  0  0  0  0  0  0
   -3.3850   22.3030  -32.6230 O   0  0  0  0  0  0  0  0  0  0  0  0
   -6.2870   21.8740  -31.6990 C   0  0  0  0  0  0  0  0  0  0  0  0
   -6.1720   20.5840  -32.2300 C   0  0  0  0  0  0  0  0  0  0  0  0
   -5.2289   15.3132  -31.3347 H   0  0  0  0  0  0  0  0  0  0  0  0
   -4.1235   14.1832  -32.1877 H   0  0  0  0  0  0  0  0  0  0  0  0
   -3.7805   15.9464  -32.1877 H   0  0  0  0  0  0  0  0  0  0  0  0
   -6.2991   17.2995  -31.6597 H   0  0  0  0  0  0  0  0  0  0  0  0
   -5.2070   18.0661  -32.8728 H   0  0  0  0  0  0  0  0  0  0  0  0
   -7.9480   18.2200  -33.7730 H   0  0  0  0  0  0  0  0  0  0  0  0
   -9.5370   19.9317  -32.5485 H   0  0  0  0  0  0  0  0  0  0  0  0
   -9.6740   22.2694  -31.6339 H   0  0  0  0  0  0  0  0  0  0  0  0
   -8.0708   24.4740  -30.7722 H   0  0  0  0  0  0  0  0  0  0  0  0
   -3.4910   26.0330  -31.2140 H   0  0  0  0  0  0  0  0  0  0  0  0
   -3.6170   22.4974  -29.3714 H   0  0  0  0  0  0  0  0  0  0  0  0
   -2.3803   21.5782  -30.2947 H   0  0  0  0  0  0  0  0  0  0  0  0
   -2.3499   23.3743  -30.2947 H   0  0  0  0  0  0  0  0  0  0  0  0
   -5.1830   20.1359  -32.4063 H   0  0  0  0  0  0  0  0  0  0  0  0
  1  2  1  0
  2  3  1  0
  3  4  2  0
  3  5  1  0
  5  6  1  0
  6  7  1  0
  7  8  2  0
  8  9  1  0
  9 10  2  0
 10 11  1  0
 11 12  2  0
 12 13  1  0
 13 14  1  0
 13 15  2  0
 12 16  1  0
 16 17  1  0
 17 18  1  0
 17 19  2  0
 16 20  1  0
 20 21  2  0
 21  7  1  0
 20 10  1  0
  1 22  1  0
  1 23  1  0
  1 24  1  0
  5 25  1  0
  5 26  1  0
  6 27  1  0
  8 28  1  0
  9 29  1  0
 11 30  1  0
 14 31  1  0
 18 32  1  0
 18 33  1  0
 18 34  1  0
 21 35  1  0
M  CHG  1  14  -1
M  END
>  <UniqueID>  (67) 
67

>  <SMILES>  (67) 
COC(=O)CNc1ccc2cc(C([NH-])=O)n(C(C)=O)c2c1

>  <Energy>  (67) 
70.205581854252

>  <Genealogy>  (67) 
COC(=O)CNc1ccc2cc(C([NH-])=O)n(C(C)=O)c2c1 (protonated)
COC(=O)CNc1ccc2cc(C([NH-])=O)n(C(C)=O)c2c1 (3D coordinates assigned)
COC(=O)CNc1ccc2cc(C([NH-])=O)n(C(C)=O)c2c1 (optimized conformer: 70.205581854252 kcal/mol)

>  <smiles>  (67) 
COC(=O)CNc1ccc2cc(C(N)=O)n(C(C)=O)c2c1

>  <score_type>  (67) 
oracle

>  <origin>  (67) 
adg

>  <m_score__min__energy>  (67) 
-9.8000000000000007

>  <m_primary>  (67) 
energy

$$$$
67:0
     RDKit          3D

 49 52  0  0  0  0  0  0  0  0999 V2000
   -6.3730   25.8210  -28.9790 N   0  0  0  0  0  0  0  0  0  0  0  0
   -5.8300   25.3420  -30.2100 C   0  0  0  0  0  0  0  0  0  0  0  0
   -5.0110   26.0600  -30.8440 O   0  0  0  0  0  0  0  0  0  0  0  0
   -6.1580   23.9950  -30.7170 C   0  0  0  0  0  0  0  0  0  0  0  0
   -7.4610   23.5460  -30.9070 C   0  0  0  0  0  0  0  0  0  0  0  0
   -7.3360   22.2870  -31.4470 C   0  0  0  0  0  0  0  0  0  0  0  0
   -8.3170   21.3740  -31.8190 C   0  0  0  0  0  0  0  0  0  0  0  0
   -7.9040   20.1270  -32.3140 C   0  0  0  0  0  0  0  0  0  0  0  0
   -6.5250   19.8080  -32.4220 C   0  0  0  0  0  0  0  0  0  0  0  0
   -6.1010   18.4810  -32.9360 C   0  0  0  0  0  0  0  0  0  0  0  0
   -4.7360   18.1630  -33.0520 C   0  0  0  0  0  0  0  0  0  0  0  0
   -4.3370   16.9140  -33.5360 C   0  0  0  0  0  0  0  0  0  0  0  0
   -5.2930   15.9610  -33.9220 C   0  0  0  0  0  0  0  0  0  0  0  0
   -4.8780   14.6310  -34.4260 C   0  0  0  0  0  0  0  0  0  0  0  0
   -5.6270   13.6380  -34.2180 O   0  0  0  0  0  0  0  0  0  0  0  0
   -3.6390   14.4430  -35.1380 N   0  0  0  0  0  0  0  0  0  0  0  0
   -3.1360   15.4700  -36.0620 C   0  0  0  0  0  0  0  0  0  0  0  0
   -2.6490   14.8110  -37.3560 C   0  0  0  0  0  0  0  0  0  0  0  0
   -1.5960   13.7110  -37.1050 C   0  0  0  0  0  0  0  0  0  0  0  0
   -1.5410   13.2240  -35.6460 C   0  0  0  0  0  0  0  0  0  0  0  0
   -2.9350   13.1590  -35.0140 C   0  0  0  0  0  0  0  0  0  0  0  0
   -6.6560   16.2690  -33.7890 C   0  0  0  0  0  0  0  0  0  0  0  0
   -7.0570   17.5190  -33.3060 C   0  0  0  0  0  0  0  0  0  0  0  0
   -5.5580   20.7650  -32.0300 C   0  0  0  0  0  0  0  0  0  0  0  0
   -5.9980   22.0080  -31.5590 C   0  0  0  0  0  0  0  0  0  0  0  0
   -5.2590   23.0490  -31.1110 N   0  0  0  0  0  0  0  0  0  0  0  0
   -3.8290   23.0910  -30.9610 C   0  0  0  0  0  0  0  0  0  0  0  0
   -3.1280   22.0830  -31.2380 O   0  0  0  0  0  0  0  0  0  0  0  0
   -3.2060   24.2460  -30.5030 O   0  0  0  0  0  0  0  0  0  0  0  0
   -6.9200   25.1920  -28.3500 H   0  0  0  0  0  0  0  0  0  0  0  0
   -6.1600   26.7890  -28.6540 H   0  0  0  0  0  0  0  0  0  0  0  0
   -8.3925   24.0831  -30.6749 H   0  0  0  0  0  0  0  0  0  0  0  0
   -9.3849   21.6217  -31.7280 H   0  0  0  0  0  0  0  0  0  0  0  0
   -8.6583   19.3879  -32.6220 H   0  0  0  0  0  0  0  0  0  0  0  0
   -3.9765   18.9030  -32.7595 H   0  0  0  0  0  0  0  0  0  0  0  0
   -3.2660   16.6759  -33.6151 H   0  0  0  0  0  0  0  0  0  0  0  0
   -3.9443   16.1788  -36.2951 H   0  0  0  0  0  0  0  0  0  0  0  0
   -2.2987   16.0045  -35.5895 H   0  0  0  0  0  0  0  0  0  0  0  0
   -3.5123   14.3613  -37.8683 H   0  0  0  0  0  0  0  0  0  0  0  0
   -2.1740   15.5919  -37.9680 H   0  0  0  0  0  0  0  0  0  0  0  0
   -1.8327   12.8511  -37.7488 H   0  0  0  0  0  0  0  0  0  0  0  0
   -0.6137   14.1503  -37.3330 H   0  0  0  0  0  0  0  0  0  0  0  0
   -1.0925   12.2199  -35.6227 H   0  0  0  0  0  0  0  0  0  0  0  0
   -0.9377   13.9405  -35.0693 H   0  0  0  0  0  0  0  0  0  0  0  0
   -3.5218   12.3785  -35.5204 H   0  0  0  0  0  0  0  0  0  0  0  0
   -2.8205   12.9282  -33.9446 H   0  0  0  0  0  0  0  0  0  0  0  0
   -7.4142   15.5220  -34.0666 H   0  0  0  0  0  0  0  0  0  0  0  0
   -8.1284   17.7510  -33.2150 H   0  0  0  0  0  0  0  0  0  0  0  0
   -4.4838   20.5368  -32.0941 H   0  0  0  0  0  0  0  0  0  0  0  0
  1  2  1  0
  2  3  2  0
  2  4  1  0
  4  5  2  0
  5  6  1  0
  6  7  2  0
  7  8  1  0
  8  9  2  0
  9 10  1  0
 10 11  2  0
 11 12  1  0
 12 13  2  0
 13 14  1  0
 14 15  2  0
 14 16  1  0
 16 17  1  0
 17 18  1  0
 18 19  1  0
 19 20  1  0
 20 21  1  0
 13 22  1  0
 22 23  2  0
  9 24  1  0
 24 25  2  0
 25 26  1  0
 26 27  1  0
 27 28  2  0
 27 29  1  0
 26  4  1  0
 25  6  1  0
 23 10  1  0
 21 16  1  0
  1 30  1  0
  1 31  1  0
  5 32  1  0
  7 33  1  0
  8 34  1  0
 11 35  1  0
 12 36  1  0
 17 37  1  0
 17 38  1  0
 18 39  1  0
 18 40  1  0
 19 41  1  0
 19 42  1  0
 20 43  1  0
 20 44  1  0
 21 45  1  0
 21 46  1  0
 22 47  1  0
 23 48  1  0
 24 49  1  0
M  CHG  1  29  -1
M  END
>  <UniqueID>  (68) 
68

>  <SMILES>  (68) 
NC(=O)c1cc2ccc(-c3ccc(C(=O)N4CCCCC4)cc3)cc2n1C(=O)[O-]

>  <Energy>  (68) 
103.11404849843841

>  <Genealogy>  (68) 
NC(=O)c1cc2ccc(-c3ccc(C(=O)N4CCCCC4)cc3)cc2n1C(=O)[O-] (protonated)
NC(=O)c1cc2ccc(-c3ccc(C(=O)N4CCCCC4)cc3)cc2n1C(=O)[O-] (3D coordinates assigned)
NC(=O)c1cc2ccc(-c3ccc(C(=O)N4CCCCC4)cc3)cc2n1C(=O)[O-] (nonaromatic ring conformer: 103.11404849843841 kcal/mol)

>  <smiles>  (68) 
NC(=O)c1cc2ccc(-c3ccc(C(=O)N4CCCCC4)cc3)cc2n1C(=O)O

>  <score_type>  (68) 
oracle

>  <origin>  (68) 
adg

>  <m_score__min__energy>  (68) 
-10.6

>  <m_primary>  (68) 
energy

$$$$
68:0
     RDKit          3D

 30 31  0  0  0  0  0  0  0  0999 V2000
   -8.4590   21.0390  -31.9910 C   0  0  0  0  0  0  0  0  0  0  0  0
   -7.4790   19.9120  -31.9180 C   0  0  0  0  0  0  0  0  0  0  0  0
   -7.8480   18.8080  -31.4350 O   0  0  0  0  0  0  0  0  0  0  0  0
   -6.1350   20.0640  -32.4060 N   0  0  0  0  0  0  0  0  0  0  0  0
   -5.5010   19.2790  -33.3230 C   0  0  0  0  0  0  0  0  0  0  0  0
   -6.1240   18.1960  -34.1100 C   0  0  0  0  0  0  0  0  0  0  0  0
   -6.9830   17.2320  -33.4980 N   0  0  0  0  0  0  0  0  0  0  0  0
   -5.9320   18.1470  -35.3540 O   0  0  0  0  0  0  0  0  0  0  0  0
   -4.1640   19.6450  -33.4420 C   0  0  0  0  0  0  0  0  0  0  0  0
   -3.9930   20.6930  -32.5660 C   0  0  0  0  0  0  0  0  0  0  0  0
   -2.8480   21.4190  -32.2540 C   0  0  0  0  0  0  0  0  0  0  0  0
   -2.9470   22.4120  -31.2640 C   0  0  0  0  0  0  0  0  0  0  0  0
   -4.1790   22.6560  -30.6080 C   0  0  0  0  0  0  0  0  0  0  0  0
   -4.2590   23.6840  -29.5150 C   0  0  0  0  0  0  0  0  0  0  0  0
   -3.5290   24.9240  -29.9210 C   0  0  0  0  0  0  0  0  0  0  0  0
   -3.9770   25.6490  -30.8470 O   0  0  0  0  0  0  0  0  0  0  0  0
   -2.3260   25.2530  -29.3100 O   0  0  0  0  0  0  0  0  0  0  0  0
   -5.3160   21.8870  -30.9390 C   0  0  0  0  0  0  0  0  0  0  0  0
   -5.1960   20.9230  -31.9490 C   0  0  0  0  0  0  0  0  0  0  0  0
   -8.7325   21.3536  -30.9730 H   0  0  0  0  0  0  0  0  0  0  0  0
   -8.0050   21.8856  -32.5268 H   0  0  0  0  0  0  0  0  0  0  0  0
   -9.3604   20.7069  -32.5268 H   0  0  0  0  0  0  0  0  0  0  0  0
   -7.3700   16.4440  -34.0630 H   0  0  0  0  0  0  0  0  0  0  0  0
   -7.3160   17.3500  -32.5170 H   0  0  0  0  0  0  0  0  0  0  0  0
   -3.4047   19.1929  -34.0971 H   0  0  0  0  0  0  0  0  0  0  0  0
   -1.8947   21.2221  -32.7662 H   0  0  0  0  0  0  0  0  0  0  0  0
   -2.0601   23.0050  -30.9962 H   0  0  0  0  0  0  0  0  0  0  0  0
   -5.3139   23.9294  -29.3229 H   0  0  0  0  0  0  0  0  0  0  0  0
   -3.7973   23.2767  -28.6034 H   0  0  0  0  0  0  0  0  0  0  0  0
   -6.2720   22.0408  -30.4171 H   0  0  0  0  0  0  0  0  0  0  0  0
  1  2  1  0
  2  3  2  0
  2  4  1  0
  4  5  1  0
  5  6  1  0
  6  7  1  0
  6  8  2  0
  5  9  2  0
  9 10  1  0
 10 11  2  0
 11 12  1  0
 12 13  2  0
 13 14  1  0
 14 15  1  0
 15 16  2  0
 15 17  1  0
 13 18  1  0
 18 19  2  0
 19  4  1  0
 19 10  1  0
  1 20  1  0
  1 21  1  0
  1 22  1  0
  7 23  1  0
  7 24  1  0
  9 25  1  0
 11 26  1  0
 12 27  1  0
 14 28  1  0
 14 29  1  0
 18 30  1  0
M  CHG  1  17  -1
M  END
>  <UniqueID>  (69) 
69

>  <SMILES>  (69) 
CC(=O)n1c(C(N)=O)cc2ccc(CC(=O)[O-])cc21

>  <Energy>  (69) 
67.8252671251429

>  <Genealogy>  (69) 
CC(=O)n1c(C(N)=O)cc2ccc(CC(=O)[O-])cc21 (protonated)
CC(=O)n1c(C(N)=O)cc2ccc(CC(=O)[O-])cc21 (3D coordinates assigned)
CC(=O)n1c(C(N)=O)cc2ccc(CC(=O)[O-])cc21 (optimized conformer: 67.8252671251429 kcal/mol)

>  <smiles>  (69) 
CC(=O)n1c(C(N)=O)cc2ccc(CC(=O)O)cc21

>  <score_type>  (69) 
oracle

>  <origin>  (69) 
adg

>  <m_score__min__energy>  (69) 
-9.2300000000000004

>  <m_primary>  (69) 
energy

$$$$
69:0
     RDKit          3D

 42 44  0  0  0  0  0  0  0  0999 V2000
   -4.1870   24.5560  -27.2040 C   0  0  0  0  0  0  0  0  0  0  0  0
   -2.8000   24.2490  -27.6580 C   0  0  0  0  0  0  0  0  0  0  0  0
   -1.7940   25.0910  -27.6060 O   0  0  0  0  0  0  0  0  0  0  0  0
   -0.7600   24.4470  -28.0980 C   0  0  0  0  0  0  0  0  0  0  0  0
    0.3890   24.9500  -28.2050 O   0  0  0  0  0  0  0  0  0  0  0  0
   -1.0560   23.2220  -28.4650 O   0  0  0  0  0  0  0  0  0  0  0  0
   -2.3320   23.0650  -28.2020 C   0  0  0  0  0  0  0  0  0  0  0  0
   -3.1040   21.8110  -28.4740 C   0  0  0  0  0  0  0  0  0  0  0  0
   -3.2080   21.5940  -29.8780 O   0  0  0  0  0  0  0  0  0  0  0  0
   -3.6100   22.5870  -30.7790 C   0  0  0  0  0  0  0  0  0  0  0  0
   -2.7540   23.3170  -31.3480 O   0  0  0  0  0  0  0  0  0  0  0  0
   -5.0060   22.7820  -31.0440 N   0  0  0  0  0  0  0  0  0  0  0  0
   -5.7480   23.9060  -30.8310 C   0  0  0  0  0  0  0  0  0  0  0  0
   -5.2250   25.2250  -30.4170 C   0  0  0  0  0  0  0  0  0  0  0  0
   -3.9390   25.6710  -30.8420 N   0  0  0  0  0  0  0  0  0  0  0  0
   -5.9420   25.9880  -29.7180 O   0  0  0  0  0  0  0  0  0  0  0  0
   -7.0850   23.6730  -31.1460 C   0  0  0  0  0  0  0  0  0  0  0  0
   -7.1370   22.3650  -31.5720 C   0  0  0  0  0  0  0  0  0  0  0  0
   -8.2190   21.6080  -32.0000 C   0  0  0  0  0  0  0  0  0  0  0  0
   -7.9880   20.2700  -32.3600 C   0  0  0  0  0  0  0  0  0  0  0  0
   -6.6840   19.7000  -32.2800 C   0  0  0  0  0  0  0  0  0  0  0  0
   -6.4570   18.3110  -32.6440 N   0  0  0  0  0  0  0  0  0  0  0  0
   -6.2100   17.9350  -34.0410 C   0  0  0  0  0  0  0  0  0  0  0  0
   -6.4720   17.2580  -31.6190 C   0  0  0  0  0  0  0  0  0  0  0  0
   -5.6110   20.5170  -31.8340 C   0  0  0  0  0  0  0  0  0  0  0  0
   -5.8710   21.8500  -31.5030 C   0  0  0  0  0  0  0  0  0  0  0  0
   -4.2198   24.5632  -26.1045 H   0  0  0  0  0  0  0  0  0  0  0  0
   -4.4880   25.5425  -27.5863 H   0  0  0  0  0  0  0  0  0  0  0  0
   -4.8762   23.7887  -27.5863 H   0  0  0  0  0  0  0  0  0  0  0  0
   -2.5863   20.9577  -28.0115 H   0  0  0  0  0  0  0  0  0  0  0  0
   -4.1140   21.9113  -28.0498 H   0  0  0  0  0  0  0  0  0  0  0  0
   -3.0680   25.2660  -30.4360 H   0  0  0  0  0  0  0  0  0  0  0  0
   -7.9214   24.3834  -31.0704 H   0  0  0  0  0  0  0  0  0  0  0  0
   -9.2277   22.0431  -32.0556 H   0  0  0  0  0  0  0  0  0  0  0  0
   -8.8278   19.6515  -32.7096 H   0  0  0  0  0  0  0  0  0  0  0  0
   -5.6063   17.0160  -34.0721 H   0  0  0  0  0  0  0  0  0  0  0  0
   -7.1700   17.7605  -34.5490 H   0  0  0  0  0  0  0  0  0  0  0  0
   -5.6686   18.7467  -34.5490 H   0  0  0  0  0  0  0  0  0  0  0  0
   -6.4654   17.7186  -30.6201 H   0  0  0  0  0  0  0  0  0  0  0  0
   -7.3789   16.6464  -31.7348 H   0  0  0  0  0  0  0  0  0  0  0  0
   -5.5828   16.6208  -31.7348 H   0  0  0  0  0  0  0  0  0  0  0  0
   -4.5933   20.1079  -31.7506 H   0  0  0  0  0  0  0  0  0  0  0  0
  1  2  1  0
  2  3  1  0
  3  4  1  0
  4  5  2  0
  4  6  1  0
  6  7  1  0
  7  8  1  0
  8  9  1  0
  9 10  1  0
 10 11  2  0
 10 12  1  0
 12 13  1  0
 13 14  1  0
 14 15  1  0
 14 16  2  0
 13 17  2  0
 17 18  1  0
 18 19  2  0
 19 20  1  0
 20 21  2  0
 21 22  1  0
 22 23  1  0
 22 24  1  0
 21 25  1  0
 25 26  2  0
  7  2  2  0
 26 12  1  0
 26 18  1  0
  1 27  1  0
  1 28  1  0
  1 29  1  0
  8 30  1  0
  8 31  1  0
 15 32  1  0
 17 33  1  0
 19 34  1  0
 20 35  1  0
 23 36  1  0
 23 37  1  0
 23 38  1  0
 24 39  1  0
 24 40  1  0
 24 41  1  0
 25 42  1  0
M  CHG  1  15  -1
M  END
>  <UniqueID>  (70) 
70

>  <SMILES>  (70) 
Cc1oc(=O)oc1COC(=O)n1c(C([NH-])=O)cc2ccc(N(C)C)cc21

>  <Energy>  (70) 
114.00407272573054

>  <Genealogy>  (70) 
Cc1oc(=O)oc1COC(=O)n1c(C([NH-])=O)cc2ccc(N(C)C)cc21 (protonated)
Cc1oc(=O)oc1COC(=O)n1c(C([NH-])=O)cc2ccc(N(C)C)cc21 (3D coordinates assigned)
Cc1oc(=O)oc1COC(=O)n1c(C([NH-])=O)cc2ccc(N(C)C)cc21 (optimized conformer: 114.00407272573054 kcal/mol)

>  <smiles>  (70) 
Cc1oc(=O)oc1COC(=O)n1c(C(N)=O)cc2ccc(N(C)C)cc21

>  <score_type>  (70) 
oracle

>  <origin>  (70) 
adg

>  <m_score__min__energy>  (70) 
-10.85

>  <m_primary>  (70) 
energy

$$$$
70:0
     RDKit          3D

 38 40  0  0  0  0  0  0  0  0999 V2000
   -6.4810   23.8240  -31.0380 C   0  0  0  0  0  0  0  0  0  0  0  0
   -6.0720   23.2250  -29.6980 C   0  0  0  0  0  0  0  0  0  0  0  0
   -4.8580   23.8640  -29.2000 N   0  0  0  0  0  0  0  0  0  0  0  0
   -3.7920   24.3080  -30.0440 C   0  0  0  0  0  0  0  0  0  0  0  0
   -3.8640   25.4280  -30.6190 O   0  0  0  0  0  0  0  0  0  0  0  0
   -2.6490   23.4660  -30.2590 N   0  0  0  0  0  0  0  0  0  0  0  0
   -1.4080   23.5840  -29.7090 C   0  0  0  0  0  0  0  0  0  0  0  0
   -0.9210   24.7230  -28.9020 C   0  0  0  0  0  0  0  0  0  0  0  0
   -1.5780   25.9860  -28.9460 N   0  0  0  0  0  0  0  0  0  0  0  0
    0.1180   24.5920  -28.2010 O   0  0  0  0  0  0  0  0  0  0  0  0
   -0.6040   22.5080  -30.0810 C   0  0  0  0  0  0  0  0  0  0  0  0
   -1.3950   21.7260  -30.8890 C   0  0  0  0  0  0  0  0  0  0  0  0
   -1.1090   20.5230  -31.5290 C   0  0  0  0  0  0  0  0  0  0  0  0
   -2.1300   19.9160  -32.2790 C   0  0  0  0  0  0  0  0  0  0  0  0
   -3.4130   20.5130  -32.3700 C   0  0  0  0  0  0  0  0  0  0  0  0
   -4.4850   19.8650  -33.1500 C   0  0  0  0  0  0  0  0  0  0  0  0
   -5.6400   20.4630  -33.5060 N   0  0  0  0  0  0  0  0  0  0  0  0
   -6.3320   19.5630  -34.1870 N   0  0  0  0  0  0  0  0  0  0  0  0
   -5.5720   18.4540  -34.2250 C   0  0  0  0  0  0  0  0  0  0  0  0
   -5.9820   17.1760  -34.8770 C   0  0  0  0  0  0  0  0  0  0  0  0
   -6.8380   16.3820  -33.9450 C   0  0  0  0  0  0  0  0  0  0  0  0
   -7.1470   15.1930  -34.2260 O   0  0  0  0  0  0  0  0  0  0  0  0
   -7.2540   16.9340  -32.7410 O   0  0  0  0  0  0  0  0  0  0  0  0
   -4.4390   18.6290  -33.5890 O   0  0  0  0  0  0  0  0  0  0  0  0
   -3.6660   21.7340  -31.7060 C   0  0  0  0  0  0  0  0  0  0  0  0
   -2.6240   22.3240  -30.9810 C   0  0  0  0  0  0  0  0  0  0  0  0
   -7.0937   24.7214  -30.8668 H   0  0  0  0  0  0  0  0  0  0  0  0
   -5.5805   24.0980  -31.6073 H   0  0  0  0  0  0  0  0  0  0  0  0
   -7.0640   23.0851  -31.6073 H   0  0  0  0  0  0  0  0  0  0  0  0
   -6.8841   23.3756  -28.9715 H   0  0  0  0  0  0  0  0  0  0  0  0
   -5.8779   22.1508  -29.8337 H   0  0  0  0  0  0  0  0  0  0  0  0
   -2.6210   26.0490  -28.9580 H   0  0  0  0  0  0  0  0  0  0  0  0
    0.4407   22.3238  -29.7901 H   0  0  0  0  0  0  0  0  0  0  0  0
   -0.1135   20.0618  -31.4497 H   0  0  0  0  0  0  0  0  0  0  0  0
   -1.9322   18.9681  -32.8009 H   0  0  0  0  0  0  0  0  0  0  0  0
   -6.5493   17.3992  -35.7926 H   0  0  0  0  0  0  0  0  0  0  0  0
   -5.0837   16.5934  -35.1291 H   0  0  0  0  0  0  0  0  0  0  0  0
   -4.6568   22.2091  -31.7574 H   0  0  0  0  0  0  0  0  0  0  0  0
  1  2  1  0
  2  3  1  0
  3  4  1  0
  4  5  2  0
  4  6  1  0
  6  7  1  0
  7  8  1  0
  8  9  1  0
  8 10  2  0
  7 11  2  0
 11 12  1  0
 12 13  2  0
 13 14  1  0
 14 15  2  0
 15 16  1  0
 16 17  2  0
 17 18  1  0
 18 19  2  0
 19 20  1  0
 20 21  1  0
 21 22  2  0
 21 23  1  0
 19 24  1  0
 15 25  1  0
 25 26  2  0
 26  6  1  0
 26 12  1  0
 24 16  1  0
  1 27  1  0
  1 28  1  0
  1 29  1  0
  2 30  1  0
  2 31  1  0
  9 32  1  0
 11 33  1  0
 13 34  1  0
 14 35  1  0
 20 36  1  0
 20 37  1  0
 25 38  1  0
M  CHG  3   3  -1   9  -1  23  -1
M  END
>  <UniqueID>  (71) 
71

>  <SMILES>  (71) 
CC[N-]C(=O)n1c(C([NH-])=O)cc2ccc(-c3nnc(CC(=O)[O-])o3)cc21

>  <Energy>  (71) 
107.58200781254394

>  <Genealogy>  (71) 
CC[N-]C(=O)n1c(C([NH-])=O)cc2ccc(-c3nnc(CC(=O)[O-])o3)cc21 (protonated)
CC[N-]C(=O)n1c(C([NH-])=O)cc2ccc(-c3nnc(CC(=O)[O-])o3)cc21 (3D coordinates assigned)
CC[N-]C(=O)n1c(C([NH-])=O)cc2ccc(-c3nnc(CC(=O)[O-])o3)cc21 (optimized conformer: 107.58200781254394 kcal/mol)

>  <smiles>  (71) 
CCNC(=O)n1c(C(N)=O)cc2ccc(-c3nnc(CC(=O)O)o3)cc21

>  <score_type>  (71) 
oracle

>  <origin>  (71) 
adg

>  <m_score__min__energy>  (71) 
-10.9

>  <m_primary>  (71) 
energy

$$$$
71:0
     RDKit          3D

 38 40  0  0  0  0  0  0  0  0999 V2000
   -1.1150   16.6210  -32.8260 C   0  0  0  0  0  0  0  0  0  0  0  0
   -2.4700   16.2370  -33.0260 O   0  0  0  0  0  0  0  0  0  0  0  0
   -3.3000   16.8610  -33.9630 C   0  0  0  0  0  0  0  0  0  0  0  0
   -2.7980   17.4930  -34.9320 O   0  0  0  0  0  0  0  0  0  0  0  0
   -4.7270   16.7800  -33.8170 N   0  0  0  0  0  0  0  0  0  0  0  0
   -5.5160   15.6880  -34.0200 C   0  0  0  0  0  0  0  0  0  0  0  0
   -5.0800   14.4030  -34.6030 C   0  0  0  0  0  0  0  0  0  0  0  0
   -3.6940   14.0950  -34.7600 N   0  0  0  0  0  0  0  0  0  0  0  0
   -5.9450   13.5880  -35.0200 O   0  0  0  0  0  0  0  0  0  0  0  0
   -6.8300   15.9520  -33.6470 C   0  0  0  0  0  0  0  0  0  0  0  0
   -6.8290   17.2590  -33.2170 C   0  0  0  0  0  0  0  0  0  0  0  0
   -7.8710   18.0350  -32.7180 C   0  0  0  0  0  0  0  0  0  0  0  0
   -7.5780   19.3460  -32.3090 C   0  0  0  0  0  0  0  0  0  0  0  0
   -6.2570   19.8570  -32.4000 C   0  0  0  0  0  0  0  0  0  0  0  0
   -5.9540   21.2350  -31.9460 C   0  0  0  0  0  0  0  0  0  0  0  0
   -4.6500   21.5710  -31.5460 C   0  0  0  0  0  0  0  0  0  0  0  0
   -4.3510   22.8650  -31.1110 C   0  0  0  0  0  0  0  0  0  0  0  0
   -5.3500   23.8520  -31.0700 C   0  0  0  0  0  0  0  0  0  0  0  0
   -5.0390   25.2240  -30.6090 C   0  0  0  0  0  0  0  0  0  0  0  0
   -3.8660   25.6760  -30.6940 O   0  0  0  0  0  0  0  0  0  0  0  0
   -6.0360   26.0330  -30.0790 O   0  0  0  0  0  0  0  0  0  0  0  0
   -6.6530   23.5190  -31.4750 C   0  0  0  0  0  0  0  0  0  0  0  0
   -6.9550   22.2240  -31.9110 C   0  0  0  0  0  0  0  0  0  0  0  0
   -8.2160   21.9520  -32.3310 F   0  0  0  0  0  0  0  0  0  0  0  0
   -5.2250   19.0330  -32.9070 C   0  0  0  0  0  0  0  0  0  0  0  0
   -5.5480   17.7370  -33.3260 C   0  0  0  0  0  0  0  0  0  0  0  0
   -0.9060   16.6802  -31.7477 H   0  0  0  0  0  0  0  0  0  0  0  0
   -0.4507   15.8757  -33.2878 H   0  0  0  0  0  0  0  0  0  0  0  0
   -0.9405   17.6040  -33.2878 H   0  0  0  0  0  0  0  0  0  0  0  0
   -2.9580   14.8120  -34.5800 H   0  0  0  0  0  0  0  0  0  0  0  0
   -3.4040   13.1650  -35.1360 H   0  0  0  0  0  0  0  0  0  0  0  0
   -7.6866   15.2631  -33.6872 H   0  0  0  0  0  0  0  0  0  0  0  0
   -8.8927   17.6337  -32.6462 H   0  0  0  0  0  0  0  0  0  0  0  0
   -8.3817   19.9844  -31.9134 H   0  0  0  0  0  0  0  0  0  0  0  0
   -3.8573   20.8089  -31.5754 H   0  0  0  0  0  0  0  0  0  0  0  0
   -3.3258   23.1126  -30.7984 H   0  0  0  0  0  0  0  0  0  0  0  0
   -7.4436   24.2834  -31.4492 H   0  0  0  0  0  0  0  0  0  0  0  0
   -4.1909   19.4027  -32.9706 H   0  0  0  0  0  0  0  0  0  0  0  0
  1  2  1  0
  2  3  1  0
  3  4  2  0
  3  5  1  0
  5  6  1  0
  6  7  1  0
  7  8  1  0
  7  9  2  0
  6 10  2  0
 10 11  1  0
 11 12  2  0
 12 13  1  0
 13 14  2  0
 14 15  1  0
 15 16  2  0
 16 17  1  0
 17 18  2  0
 18 19  1  0
 19 20  2  0
 19 21  1  0
 18 22  1  0
 22 23  2  0
 23 24  1  0
 14 25  1  0
 25 26  2  0
 26  5  1  0
 26 11  1  0
 23 15  1  0
  1 27  1  0
  1 28  1  0
  1 29  1  0
  8 30  1  0
  8 31  1  0
 10 32  1  0
 12 33  1  0
 13 34  1  0
 16 35  1  0
 17 36  1  0
 22 37  1  0
 25 38  1  0
M  CHG  1  21  -1
M  END
>  <UniqueID>  (72) 
72

>  <SMILES>  (72) 
COC(=O)n1c(C(N)=O)cc2ccc(-c3ccc(C(=O)[O-])cc3F)cc21

>  <Energy>  (72) 
84.94555662868609

>  <Genealogy>  (72) 
COC(=O)n1c(C(N)=O)cc2ccc(-c3ccc(C(=O)[O-])cc3F)cc21 (protonated)
COC(=O)n1c(C(N)=O)cc2ccc(-c3ccc(C(=O)[O-])cc3F)cc21 (3D coordinates assigned)
COC(=O)n1c(C(N)=O)cc2ccc(-c3ccc(C(=O)[O-])cc3F)cc21 (optimized conformer: 84.94555662868609 kcal/mol)

>  <smiles>  (72) 
COC(=O)n1c(C(N)=O)cc2ccc(-c3ccc(C(=O)O)cc3F)cc21

>  <score_type>  (72) 
oracle

>  <origin>  (72) 
adg

>  <m_score__min__energy>  (72) 
-8.8599999999999994

>  <m_primary>  (72) 
energy

$$$$
72:0
     RDKit          3D

 42 43  0  0  0  0  0  0  0  0999 V2000
   -5.2190   16.5380  -32.7510 C   0  0  0  0  0  0  0  0  0  0  0  0
   -5.6980   16.6440  -31.4290 O   0  0  0  0  0  0  0  0  0  0  0  0
   -6.4720   17.8200  -31.2780 C   0  0  0  0  0  0  0  0  0  0  0  0
   -7.5860   17.8740  -32.3270 C   0  0  0  0  0  0  0  0  0  0  0  0
   -7.9540   19.2670  -32.6300 N   0  0  0  0  0  0  0  0  0  0  0  0
   -9.3770   19.6220  -32.6790 C   0  0  0  0  0  0  0  0  0  0  0  0
   -6.9740   20.3190  -32.7930 C   0  0  0  0  0  0  0  0  0  0  0  0
   -7.2260   21.4740  -32.3490 O   0  0  0  0  0  0  0  0  0  0  0  0
   -5.6720   20.1130  -33.5220 C   0  0  0  0  0  0  0  0  0  0  0  0
   -4.4980   20.5530  -32.6840 C   0  0  0  0  0  0  0  0  0  0  0  0
   -3.3570   19.7190  -32.5650 C   0  0  0  0  0  0  0  0  0  0  0  0
   -2.2570   20.1160  -31.7880 C   0  0  0  0  0  0  0  0  0  0  0  0
   -2.3150   21.3570  -31.1610 C   0  0  0  0  0  0  0  0  0  0  0  0
   -1.4060   21.9680  -30.3290 C   0  0  0  0  0  0  0  0  0  0  0  0
   -1.9830   23.1880  -29.9880 C   0  0  0  0  0  0  0  0  0  0  0  0
   -1.3080   24.1980  -29.1510 C   0  0  0  0  0  0  0  0  0  0  0  0
   -2.0380   25.2680  -28.5500 N   0  0  0  0  0  0  0  0  0  0  0  0
   -0.0570   24.1490  -29.0110 O   0  0  0  0  0  0  0  0  0  0  0  0
   -3.2070   23.3250  -30.5740 N   0  0  0  0  0  0  0  0  0  0  0  0
   -4.1580   24.3810  -30.3640 C   0  0  0  0  0  0  0  0  0  0  0  0
   -5.2610   24.1470  -29.8030 O   0  0  0  0  0  0  0  0  0  0  0  0
   -3.8680   25.6770  -30.7730 O   0  0  0  0  0  0  0  0  0  0  0  0
   -3.3940   22.1930  -31.2920 C   0  0  0  0  0  0  0  0  0  0  0  0
   -4.5120   21.8140  -32.0450 C   0  0  0  0  0  0  0  0  0  0  0  0
   -4.1451   16.3004  -32.7339 H   0  0  0  0  0  0  0  0  0  0  0  0
   -5.7632   15.7385  -33.2752 H   0  0  0  0  0  0  0  0  0  0  0  0
   -5.3751   17.4924  -33.2752 H   0  0  0  0  0  0  0  0  0  0  0  0
   -6.9210   17.8302  -30.2738 H   0  0  0  0  0  0  0  0  0  0  0  0
   -5.8173   18.6936  -31.4126 H   0  0  0  0  0  0  0  0  0  0  0  0
   -7.2372   17.3849  -33.2485 H   0  0  0  0  0  0  0  0  0  0  0  0
   -8.4702   17.3553  -31.9282 H   0  0  0  0  0  0  0  0  0  0  0  0
   -9.7662   19.7191  -31.6547 H   0  0  0  0  0  0  0  0  0  0  0  0
   -9.4984   20.5779  -33.2095 H   0  0  0  0  0  0  0  0  0  0  0  0
   -9.9332   18.8351  -33.2095 H   0  0  0  0  0  0  0  0  0  0  0  0
   -5.5608   19.0452  -33.7616 H   0  0  0  0  0  0  0  0  0  0  0  0
   -5.6891   20.7187  -34.4401 H   0  0  0  0  0  0  0  0  0  0  0  0
   -3.3336   18.7510  -33.0869 H   0  0  0  0  0  0  0  0  0  0  0  0
   -1.3764   19.4660  -31.6782 H   0  0  0  0  0  0  0  0  0  0  0  0
   -0.4313   21.5762  -30.0028 H   0  0  0  0  0  0  0  0  0  0  0  0
   -1.5500   25.9530  -27.9310 H   0  0  0  0  0  0  0  0  0  0  0  0
   -3.0430   25.4310  -28.7800 H   0  0  0  0  0  0  0  0  0  0  0  0
   -5.3811   22.4820  -32.1372 H   0  0  0  0  0  0  0  0  0  0  0  0
  1  2  1  0
  2  3  1  0
  3  4  1  0
  4  5  1  0
  5  6  1  0
  5  7  1  0
  7  8  2  0
  7  9  1  0
  9 10  1  0
 10 11  2  0
 11 12  1  0
 12 13  2  0
 13 14  1  0
 14 15  2  0
 15 16  1  0
 16 17  1  0
 16 18  2  0
 15 19  1  0
 19 20  1  0
 20 21  2  0
 20 22  1  0
 19 23  1  0
 23 24  2  0
 24 10  1  0
 23 13  1  0
  1 25  1  0
  1 26  1  0
  1 27  1  0
  3 28  1  0
  3 29  1  0
  4 30  1  0
  4 31  1  0
  6 32  1  0
  6 33  1  0
  6 34  1  0
  9 35  1  0
  9 36  1  0
 11 37  1  0
 12 38  1  0
 14 39  1  0
 17 40  1  0
 17 41  1  0
 24 42  1  0
M  CHG  1  22  -1
M  END
>  <UniqueID>  (73) 
73

>  <SMILES>  (73) 
COCCN(C)C(=O)Cc1ccc2cc(C(N)=O)n(C(=O)[O-])c2c1

>  <Energy>  (73) 
79.6683036403834

>  <Genealogy>  (73) 
COCCN(C)C(=O)Cc1ccc2cc(C(N)=O)n(C(=O)[O-])c2c1 (protonated)
COCCN(C)C(=O)Cc1ccc2cc(C(N)=O)n(C(=O)[O-])c2c1 (3D coordinates assigned)
COCCN(C)C(=O)Cc1ccc2cc(C(N)=O)n(C(=O)[O-])c2c1 (optimized conformer: 79.6683036403834 kcal/mol)

>  <smiles>  (73) 
COCCN(C)C(=O)Cc1ccc2cc(C(N)=O)n(C(=O)O)c2c1

>  <score_type>  (73) 
oracle

>  <origin>  (73) 
adg

>  <m_score__min__energy>  (73) 
-8.5899999999999999

>  <m_primary>  (73) 
energy

$$$$
73:0
     RDKit          3D

 35 36  0  0  0  0  0  0  0  0999 V2000
   -8.0240   19.7670  -32.2850 C   0  0  0  0  0  0  0  0  0  0  0  0
   -7.0580   20.8690  -32.7040 C   0  0  0  0  0  0  0  0  0  0  0  0
   -5.7610   20.2960  -33.0920 N   0  0  0  0  0  0  0  0  0  0  0  0
   -5.6860   19.2800  -34.1520 C   0  0  0  0  0  0  0  0  0  0  0  0
   -5.7510   17.8780  -33.5550 C   0  0  0  0  0  0  0  0  0  0  0  0
   -4.5590   20.7270  -32.4260 C   0  0  0  0  0  0  0  0  0  0  0  0
   -3.4150   19.8900  -32.4070 C   0  0  0  0  0  0  0  0  0  0  0  0
   -2.2410   20.2950  -31.7510 C   0  0  0  0  0  0  0  0  0  0  0  0
   -2.2370   21.5400  -31.1310 C   0  0  0  0  0  0  0  0  0  0  0  0
   -1.2470   22.1640  -30.4060 C   0  0  0  0  0  0  0  0  0  0  0  0
   -1.7920   23.3840  -30.0110 C   0  0  0  0  0  0  0  0  0  0  0  0
   -1.0300   24.4130  -29.2730 C   0  0  0  0  0  0  0  0  0  0  0  0
   -1.6390   25.6660  -28.9710 N   0  0  0  0  0  0  0  0  0  0  0  0
    0.1420   24.1850  -28.8720 O   0  0  0  0  0  0  0  0  0  0  0  0
   -3.0720   23.5070  -30.4670 N   0  0  0  0  0  0  0  0  0  0  0  0
   -3.9960   24.5810  -30.2260 C   0  0  0  0  0  0  0  0  0  0  0  0
   -3.8760   25.6750  -30.8390 O   0  0  0  0  0  0  0  0  0  0  0  0
   -5.0180   24.4320  -29.2960 O   0  0  0  0  0  0  0  0  0  0  0  0
   -3.3270   22.3710  -31.1540 C   0  0  0  0  0  0  0  0  0  0  0  0
   -4.5160   21.9860  -31.7850 C   0  0  0  0  0  0  0  0  0  0  0  0
   -8.0685   19.7163  -31.1871 H   0  0  0  0  0  0  0  0  0  0  0  0
   -9.0257   19.9867  -32.6828 H   0  0  0  0  0  0  0  0  0  0  0  0
   -7.6750   18.8027  -32.6828 H   0  0  0  0  0  0  0  0  0  0  0  0
   -7.4821   21.4166  -33.5585 H   0  0  0  0  0  0  0  0  0  0  0  0
   -6.9060   21.5511  -31.8545 H   0  0  0  0  0  0  0  0  0  0  0  0
   -6.5289   19.4175  -34.8453 H   0  0  0  0  0  0  0  0  0  0  0  0
   -4.7318   19.3945  -34.6871 H   0  0  0  0  0  0  0  0  0  0  0  0
   -5.7478   17.9465  -32.4571 H   0  0  0  0  0  0  0  0  0  0  0  0
   -6.6732   17.3798  -33.8886 H   0  0  0  0  0  0  0  0  0  0  0  0
   -4.8788   17.2966  -33.8886 H   0  0  0  0  0  0  0  0  0  0  0  0
   -3.4471   18.9130  -32.9114 H   0  0  0  0  0  0  0  0  0  0  0  0
   -1.3521   19.6475  -31.7283 H   0  0  0  0  0  0  0  0  0  0  0  0
   -0.2397   21.7809  -30.1854 H   0  0  0  0  0  0  0  0  0  0  0  0
   -2.6710   25.7960  -29.0560 H   0  0  0  0  0  0  0  0  0  0  0  0
   -5.3952   22.6471  -31.7820 H   0  0  0  0  0  0  0  0  0  0  0  0
  1  2  1  0
  2  3  1  0
  3  4  1  0
  4  5  1  0
  3  6  1  0
  6  7  2  0
  7  8  1  0
  8  9  2  0
  9 10  1  0
 10 11  2  0
 11 12  1  0
 12 13  1  0
 12 14  2  0
 11 15  1  0
 15 16  1  0
 16 17  2  0
 16 18  1  0
 15 19  1  0
 19 20  2  0
 20  6  1  0
 19  9  1  0
  1 21  1  0
  1 22  1  0
  1 23  1  0
  2 24  1  0
  2 25  1  0
  4 26  1  0
  4 27  1  0
  5 28  1  0
  5 29  1  0
  5 30  1  0
  7 31  1  0
  8 32  1  0
 10 33  1  0
 13 34  1  0
 20 35  1  0
M  CHG  2  13  -1  18  -1
M  END
>  <UniqueID>  (74) 
74

>  <SMILES>  (74) 
CCN(CC)c1ccc2cc(C([NH-])=O)n(C(=O)[O-])c2c1

>  <Energy>  (74) 
71.75597113752731

>  <Genealogy>  (74) 
CCN(CC)c1ccc2cc(C([NH-])=O)n(C(=O)[O-])c2c1 (protonated)
CCN(CC)c1ccc2cc(C([NH-])=O)n(C(=O)[O-])c2c1 (3D coordinates assigned)
CCN(CC)c1ccc2cc(C([NH-])=O)n(C(=O)[O-])c2c1 (optimized conformer: 71.75597113752731 kcal/mol)

>  <smiles>  (74) 
CCN(CC)c1ccc2cc(C(N)=O)n(C(=O)O)c2c1

>  <score_type>  (74) 
oracle

>  <origin>  (74) 
adg

>  <m_score__min__energy>  (74) 
-10.59

>  <m_primary>  (74) 
energy

$$$$
74:0
     RDKit          3D

 47 48  0  0  0  0  0  0  0  0999 V2000
   -9.4750   19.3310  -32.5790 C   0  0  0  0  0  0  0  0  0  0  0  0
   -8.6820   18.4540  -31.6160 C   0  0  0  0  0  0  0  0  0  0  0  0
   -7.9270   17.4780  -32.3300 O   0  0  0  0  0  0  0  0  0  0  0  0
   -6.5620   17.2550  -32.1140 C   0  0  0  0  0  0  0  0  0  0  0  0
   -6.0080   17.6490  -31.0530 O   0  0  0  0  0  0  0  0  0  0  0  0
   -5.7360   16.5820  -33.1710 C   0  0  0  0  0  0  0  0  0  0  0  0
   -5.7300   17.3500  -34.5050 C   0  0  0  0  0  0  0  0  0  0  0  0
   -4.7380   18.5260  -34.5550 C   0  0  0  0  0  0  0  0  0  0  0  0
   -5.2450   19.7370  -33.8160 C   0  0  0  0  0  0  0  0  0  0  0  0
   -6.6280   20.0430  -33.8120 C   0  0  0  0  0  0  0  0  0  0  0  0
   -7.1140   21.1460  -33.0890 C   0  0  0  0  0  0  0  0  0  0  0  0
   -6.1960   21.9200  -32.3840 C   0  0  0  0  0  0  0  0  0  0  0  0
   -6.3970   23.0170  -31.5760 C   0  0  0  0  0  0  0  0  0  0  0  0
   -5.1300   23.3720  -31.1130 C   0  0  0  0  0  0  0  0  0  0  0  0
   -4.8750   24.5590  -30.2710 C   0  0  0  0  0  0  0  0  0  0  0  0
   -3.8600   25.4870  -30.6430 N   0  0  0  0  0  0  0  0  0  0  0  0
   -5.5190   24.7440  -29.2050 O   0  0  0  0  0  0  0  0  0  0  0  0
   -4.1860   22.5220  -31.6080 N   0  0  0  0  0  0  0  0  0  0  0  0
   -2.7790   22.4960  -31.3170 C   0  0  0  0  0  0  0  0  0  0  0  0
   -1.9830   21.9210  -32.1100 O   0  0  0  0  0  0  0  0  0  0  0  0
   -2.2950   23.1410  -30.1730 O   0  0  0  0  0  0  0  0  0  0  0  0
   -2.4480   22.6230  -28.8530 C   0  0  0  0  0  0  0  0  0  0  0  0
   -2.0860   23.6860  -27.8160 C   0  0  0  0  0  0  0  0  0  0  0  0
   -1.6210   24.9100  -28.4770 C   0  0  0  0  0  0  0  0  0  0  0  0
   -1.2540   25.8750  -28.9990 N   0  0  0  0  0  0  0  0  0  0  0  0
   -4.8540   21.6440  -32.3870 C   0  0  0  0  0  0  0  0  0  0  0  0
   -4.3440   20.5460  -33.0880 C   0  0  0  0  0  0  0  0  0  0  0  0
  -10.1049   20.0277  -32.0064 H   0  0  0  0  0  0  0  0  0  0  0  0
   -8.7799   19.9014  -33.2126 H   0  0  0  0  0  0  0  0  0  0  0  0
  -10.1122   18.6966  -33.2126 H   0  0  0  0  0  0  0  0  0  0  0  0
   -7.9959   19.0862  -31.0333 H   0  0  0  0  0  0  0  0  0  0  0  0
   -9.3855   17.9373  -30.9466 H   0  0  0  0  0  0  0  0  0  0  0  0
   -4.7007   16.5001  -32.8084 H   0  0  0  0  0  0  0  0  0  0  0  0
   -6.1824   15.5946  -33.3603 H   0  0  0  0  0  0  0  0  0  0  0  0
   -5.4685   16.6445  -35.3074 H   0  0  0  0  0  0  0  0  0  0  0  0
   -6.7351   17.7807  -34.6248 H   0  0  0  0  0  0  0  0  0  0  0  0
   -3.7885   18.2067  -34.1005 H   0  0  0  0  0  0  0  0  0  0  0  0
   -4.6053   18.8081  -35.6099 H   0  0  0  0  0  0  0  0  0  0  0  0
   -7.3277   19.4120  -34.3796 H   0  0  0  0  0  0  0  0  0  0  0  0
   -8.1865   21.3902  -33.0804 H   0  0  0  0  0  0  0  0  0  0  0  0
   -7.3534   23.5087  -31.3449 H   0  0  0  0  0  0  0  0  0  0  0  0
   -2.8560   25.2990  -30.4290 H   0  0  0  0  0  0  0  0  0  0  0  0
   -3.4930   22.3133  -28.7044 H   0  0  0  0  0  0  0  0  0  0  0  0
   -1.7760   21.7611  -28.7287 H   0  0  0  0  0  0  0  0  0  0  0  0
   -2.9739   23.9171  -27.2091 H   0  0  0  0  0  0  0  0  0  0  0  0
   -1.2798   23.2988  -27.1756 H   0  0  0  0  0  0  0  0  0  0  0  0
   -3.2680   20.3181  -33.0728 H   0  0  0  0  0  0  0  0  0  0  0  0
  1  2  1  0
  2  3  1  0
  3  4  1  0
  4  5  2  0
  4  6  1  0
  6  7  1  0
  7  8  1  0
  8  9  1  0
  9 10  2  0
 10 11  1  0
 11 12  2  0
 12 13  1  0
 13 14  2  0
 14 15  1  0
 15 16  1  0
 15 17  2  0
 14 18  1  0
 18 19  1  0
 19 20  2  0
 19 21  1  0
 21 22  1  0
 22 23  1  0
 23 24  1  0
 24 25  3  0
 18 26  1  0
 26 27  2  0
 27  9  1  0
 26 12  1  0
  1 28  1  0
  1 29  1  0
  1 30  1  0
  2 31  1  0
  2 32  1  0
  6 33  1  0
  6 34  1  0
  7 35  1  0
  7 36  1  0
  8 37  1  0
  8 38  1  0
 10 39  1  0
 11 40  1  0
 13 41  1  0
 16 42  1  0
 22 43  1  0
 22 44  1  0
 23 45  1  0
 23 46  1  0
 27 47  1  0
M  CHG  1  16  -1
M  END
>  <UniqueID>  (75) 
75

>  <SMILES>  (75) 
CCOC(=O)CCCc1ccc2cc(C([NH-])=O)n(C(=O)OCCC#N)c2c1

>  <Energy>  (75) 
69.9653251257205

>  <Genealogy>  (75) 
CCOC(=O)CCCc1ccc2cc(C([NH-])=O)n(C(=O)OCCC#N)c2c1 (protonated)
CCOC(=O)CCCc1ccc2cc(C([NH-])=O)n(C(=O)OCCC#N)c2c1 (3D coordinates assigned)
CCOC(=O)CCCc1ccc2cc(C([NH-])=O)n(C(=O)OCCC#N)c2c1 (optimized conformer: 69.9653251257205 kcal/mol)

>  <smiles>  (75) 
CCOC(=O)CCCc1ccc2cc(C(N)=O)n(C(=O)OCCC#N)c2c1

>  <score_type>  (75) 
oracle

>  <origin>  (75) 
adg

>  <m_score__min__energy>  (75) 
-10.17

>  <m_primary>  (75) 
energy

$$$$
75:0
     RDKit          3D

 50 51  0  0  0  0  0  0  0  0999 V2000
   -5.7410   18.4820  -34.9590 C   0  0  0  0  0  0  0  0  0  0  0  0
   -4.8040   17.8910  -33.9890 N   0  0  0  0  0  0  0  0  0  0  0  0
   -4.0200   18.9300  -33.3040 C   0  0  0  0  0  0  0  0  0  0  0  0
   -5.4460   16.9420  -33.0500 C   0  0  0  0  0  0  0  0  0  0  0  0
   -6.1170   17.6030  -31.8180 C   0  0  0  0  0  0  0  0  0  0  0  0
   -7.6300   17.7940  -32.0030 C   0  0  0  0  0  0  0  0  0  0  0  0
   -7.9070   18.9470  -32.8580 N   0  0  0  0  0  0  0  0  0  0  0  0
   -7.8270   20.2840  -32.3490 C   0  0  0  0  0  0  0  0  0  0  0  0
   -9.0180   20.9980  -32.0820 C   0  0  0  0  0  0  0  0  0  0  0  0
   -8.9680   22.3060  -31.5750 C   0  0  0  0  0  0  0  0  0  0  0  0
   -7.7160   22.8780  -31.3700 C   0  0  0  0  0  0  0  0  0  0  0  0
   -7.3880   24.1370  -30.9290 C   0  0  0  0  0  0  0  0  0  0  0  0
   -5.9980   24.1880  -30.9590 C   0  0  0  0  0  0  0  0  0  0  0  0
   -5.2210   25.3500  -30.4790 C   0  0  0  0  0  0  0  0  0  0  0  0
   -3.8800   25.5410  -30.9260 N   0  0  0  0  0  0  0  0  0  0  0  0
   -5.7430   26.2030  -29.7140 O   0  0  0  0  0  0  0  0  0  0  0  0
   -5.4810   23.0100  -31.4140 N   0  0  0  0  0  0  0  0  0  0  0  0
   -4.1090   22.7310  -31.7490 C   0  0  0  0  0  0  0  0  0  0  0  0
   -3.8360   22.1120  -32.8140 O   0  0  0  0  0  0  0  0  0  0  0  0
   -3.0800   23.1070  -30.8810 O   0  0  0  0  0  0  0  0  0  0  0  0
   -2.9420   22.5530  -29.5760 C   0  0  0  0  0  0  0  0  0  0  0  0
   -2.8690   23.6830  -28.5510 C   0  0  0  0  0  0  0  0  0  0  0  0
   -1.5010   24.3700  -28.5390 C   0  0  0  0  0  0  0  0  0  0  0  0
   -1.6160   25.6740  -28.9880 F   0  0  0  0  0  0  0  0  0  0  0  0
   -0.6130   23.6840  -29.3480 F   0  0  0  0  0  0  0  0  0  0  0  0
   -1.0090   24.3840  -27.2470 F   0  0  0  0  0  0  0  0  0  0  0  0
   -6.5490   22.2100  -31.6450 C   0  0  0  0  0  0  0  0  0  0  0  0
   -6.5730   20.8990  -32.1430 C   0  0  0  0  0  0  0  0  0  0  0  0
   -6.5522   18.9936  -34.4203 H   0  0  0  0  0  0  0  0  0  0  0  0
   -5.2063   19.2066  -35.5907 H   0  0  0  0  0  0  0  0  0  0  0  0
   -6.1645   17.6873  -35.5907 H   0  0  0  0  0  0  0  0  0  0  0  0
   -4.1155   18.8035  -32.2155 H   0  0  0  0  0  0  0  0  0  0  0  0
   -2.9622   18.8408  -33.5921 H   0  0  0  0  0  0  0  0  0  0  0  0
   -4.3960   19.9228  -33.5921 H   0  0  0  0  0  0  0  0  0  0  0  0
   -6.2167   16.3832  -33.6012 H   0  0  0  0  0  0  0  0  0  0  0  0
   -4.6425   16.3004  -32.6591 H   0  0  0  0  0  0  0  0  0  0  0  0
   -5.9471   16.9641  -30.9388 H   0  0  0  0  0  0  0  0  0  0  0  0
   -5.6682   18.5988  -31.6876 H   0  0  0  0  0  0  0  0  0  0  0  0
   -8.0534   16.8910  -32.4670 H   0  0  0  0  0  0  0  0  0  0  0  0
   -8.0865   17.9681  -31.0175 H   0  0  0  0  0  0  0  0  0  0  0  0
   -8.5150   18.7830  -33.6920 H   0  0  0  0  0  0  0  0  0  0  0  0
   -9.9922   20.5243  -32.2733 H   0  0  0  0  0  0  0  0  0  0  0  0
   -9.8896   22.8615  -31.3469 H   0  0  0  0  0  0  0  0  0  0  0  0
   -8.0779   24.9354  -30.6181 H   0  0  0  0  0  0  0  0  0  0  0  0
   -3.0720   25.2260  -30.3460 H   0  0  0  0  0  0  0  0  0  0  0  0
   -3.8088   21.9127  -29.3554 H   0  0  0  0  0  0  0  0  0  0  0  0
   -2.0219   21.9521  -29.5270 H   0  0  0  0  0  0  0  0  0  0  0  0
   -3.6382   24.4309  -28.7938 H   0  0  0  0  0  0  0  0  0  0  0  0
   -3.0341   23.2451  -27.5555 H   0  0  0  0  0  0  0  0  0  0  0  0
   -5.6386   20.3637  -32.3673 H   0  0  0  0  0  0  0  0  0  0  0  0
  1  2  1  0
  2  3  1  0
  2  4  1  0
  4  5  1  0
  5  6  1  0
  6  7  1  0
  7  8  1  0
  8  9  2  0
  9 10  1  0
 10 11  2  0
 11 12  1  0
 12 13  2  0
 13 14  1  0
 14 15  1  0
 14 16  2  0
 13 17  1  0
 17 18  1  0
 18 19  2  0
 18 20  1  0
 20 21  1  0
 21 22  1  0
 22 23  1  0
 23 24  1  0
 23 25  1  0
 23 26  1  0
 17 27  1  0
 27 28  2  0
 28  8  1  0
 27 11  1  0
  1 29  1  0
  1 30  1  0
  1 31  1  0
  3 32  1  0
  3 33  1  0
  3 34  1  0
  4 35  1  0
  4 36  1  0
  5 37  1  0
  5 38  1  0
  6 39  1  0
  6 40  1  0
  7 41  1  0
  9 42  1  0
 10 43  1  0
 12 44  1  0
 15 45  1  0
 21 46  1  0
 21 47  1  0
 22 48  1  0
 22 49  1  0
 28 50  1  0
M  CHG  1  15  -1
M  END
>  <UniqueID>  (76) 
76

>  <SMILES>  (76) 
CN(C)CCCNc1ccc2cc(C([NH-])=O)n(C(=O)OCCC(F)(F)F)c2c1

>  <Energy>  (76) 
86.55918560474348

>  <Genealogy>  (76) 
CN(C)CCCNc1ccc2cc(C([NH-])=O)n(C(=O)OCCC(F)(F)F)c2c1 (protonated)
CN(C)CCCNc1ccc2cc(C([NH-])=O)n(C(=O)OCCC(F)(F)F)c2c1 (3D coordinates assigned)
CN(C)CCCNc1ccc2cc(C([NH-])=O)n(C(=O)OCCC(F)(F)F)c2c1 (optimized conformer: 86.55918560474348 kcal/mol)

>  <smiles>  (76) 
CN(C)CCCNc1ccc2cc(C(N)=O)n(C(=O)OCCC(F)(F)F)c2c1

>  <score_type>  (76) 
oracle

>  <origin>  (76) 
adg

>  <m_score__min__energy>  (76) 
-10.140000000000001

>  <m_primary>  (76) 
energy

$$$$
76:0
     RDKit          3D

 27 28  0  0  0  0  0  0  0  0999 V2000
   -6.4750   20.9700  -32.7240 C   0  0  0  0  0  0  0  0  0  0  0  0
   -5.3090   19.9890  -32.8040 C   0  0  0  0  0  0  0  0  0  0  0  0
   -4.9940   19.7670  -34.1350 F   0  0  0  0  0  0  0  0  0  0  0  0
   -5.6970   18.7780  -32.2530 F   0  0  0  0  0  0  0  0  0  0  0  0
   -4.1100   20.5390  -32.0660 C   0  0  0  0  0  0  0  0  0  0  0  0
   -2.8950   19.8050  -32.0260 C   0  0  0  0  0  0  0  0  0  0  0  0
   -1.7650   20.3200  -31.3700 C   0  0  0  0  0  0  0  0  0  0  0  0
   -1.8670   21.5770  -30.7850 C   0  0  0  0  0  0  0  0  0  0  0  0
   -0.9350   22.3010  -30.0750 C   0  0  0  0  0  0  0  0  0  0  0  0
   -1.5760   23.4880  -29.7290 C   0  0  0  0  0  0  0  0  0  0  0  0
   -0.9010   24.6010  -29.0300 C   0  0  0  0  0  0  0  0  0  0  0  0
   -1.5200   25.8790  -28.9160 N   0  0  0  0  0  0  0  0  0  0  0  0
    0.2610   24.4340  -28.5700 O   0  0  0  0  0  0  0  0  0  0  0  0
   -2.8560   23.4970  -30.1980 N   0  0  0  0  0  0  0  0  0  0  0  0
   -3.8670   24.4930  -29.9730 C   0  0  0  0  0  0  0  0  0  0  0  0
   -4.7530   24.3150  -29.0960 O   0  0  0  0  0  0  0  0  0  0  0  0
   -3.8590   25.6760  -30.7030 O   0  0  0  0  0  0  0  0  0  0  0  0
   -3.0170   22.3190  -30.8450 C   0  0  0  0  0  0  0  0  0  0  0  0
   -4.1650   21.8240  -31.4740 C   0  0  0  0  0  0  0  0  0  0  0  0
   -6.7136   21.1707  -31.6691 H   0  0  0  0  0  0  0  0  0  0  0  0
   -6.1978   21.9105  -33.2226 H   0  0  0  0  0  0  0  0  0  0  0  0
   -7.3542   20.5360  -33.2226 H   0  0  0  0  0  0  0  0  0  0  0  0
   -2.8382   18.8212  -32.5147 H   0  0  0  0  0  0  0  0  0  0  0  0
   -0.8278   19.7462  -31.3206 H   0  0  0  0  0  0  0  0  0  0  0  0
    0.0963   22.0047  -29.8328 H   0  0  0  0  0  0  0  0  0  0  0  0
   -2.5580   25.9780  -28.9580 H   0  0  0  0  0  0  0  0  0  0  0  0
   -5.0891   22.4197  -31.5077 H   0  0  0  0  0  0  0  0  0  0  0  0
  1  2  1  0
  2  3  1  0
  2  4  1  0
  2  5  1  0
  5  6  2  0
  6  7  1  0
  7  8  2  0
  8  9  1  0
  9 10  2  0
 10 11  1  0
 11 12  1  0
 11 13  2  0
 10 14  1  0
 14 15  1  0
 15 16  2  0
 15 17  1  0
 14 18  1  0
 18 19  2  0
 19  5  1  0
 18  8  1  0
  1 20  1  0
  1 21  1  0
  1 22  1  0
  6 23  1  0
  7 24  1  0
  9 25  1  0
 12 26  1  0
 19 27  1  0
M  CHG  2  12  -1  17  -1
M  END
>  <UniqueID>  (77) 
77

>  <SMILES>  (77) 
CC(F)(F)c1ccc2cc(C([NH-])=O)n(C(=O)[O-])c2c1

>  <Energy>  (77) 
65.62141727830337

>  <Genealogy>  (77) 
CC(F)(F)c1ccc2cc(C([NH-])=O)n(C(=O)[O-])c2c1 (protonated)
CC(F)(F)c1ccc2cc(C([NH-])=O)n(C(=O)[O-])c2c1 (3D coordinates assigned)
CC(F)(F)c1ccc2cc(C([NH-])=O)n(C(=O)[O-])c2c1 (optimized conformer: 65.62141727830337 kcal/mol)

>  <smiles>  (77) 
CC(F)(F)c1ccc2cc(C(N)=O)n(C(=O)O)c2c1

>  <score_type>  (77) 
oracle

>  <origin>  (77) 
adg

>  <m_score__min__energy>  (77) 
-9.9900000000000002

>  <m_primary>  (77) 
energy

$$$$
77:0
     RDKit          3D

 33 35  0  0  0  0  0  0  0  0999 V2000
   -7.7900   22.3440  -31.9330 C   0  0  0  0  0  0  0  0  0  0  0  0
   -7.5860   20.9200  -32.3380 C   0  0  0  0  0  0  0  0  0  0  0  0
   -8.5650   20.1440  -32.8440 N   0  0  0  0  0  0  0  0  0  0  0  0
   -8.0430   18.9750  -33.0820 O   0  0  0  0  0  0  0  0  0  0  0  0
   -6.7730   18.9430  -32.7500 C   0  0  0  0  0  0  0  0  0  0  0  0
   -5.9040   17.7370  -32.9030 C   0  0  0  0  0  0  0  0  0  0  0  0
   -6.4140   20.1850  -32.2570 C   0  0  0  0  0  0  0  0  0  0  0  0
   -5.0920   20.6230  -31.7590 C   0  0  0  0  0  0  0  0  0  0  0  0
   -3.9780   19.7490  -31.8300 C   0  0  0  0  0  0  0  0  0  0  0  0
   -2.7150   20.1580  -31.3730 C   0  0  0  0  0  0  0  0  0  0  0  0
   -2.5960   21.4400  -30.8440 C   0  0  0  0  0  0  0  0  0  0  0  0
   -1.4910   22.0960  -30.3570 C   0  0  0  0  0  0  0  0  0  0  0  0
   -1.9480   23.3540  -29.9710 C   0  0  0  0  0  0  0  0  0  0  0  0
   -1.0910   24.3610  -29.3100 C   0  0  0  0  0  0  0  0  0  0  0  0
   -1.5810   25.6680  -29.0250 N   0  0  0  0  0  0  0  0  0  0  0  0
    0.0740   24.0470  -28.9470 O   0  0  0  0  0  0  0  0  0  0  0  0
   -3.2830   23.4750  -30.2180 N   0  0  0  0  0  0  0  0  0  0  0  0
   -4.1120   24.6360  -30.0470 C   0  0  0  0  0  0  0  0  0  0  0  0
   -3.8900   25.6790  -30.7170 O   0  0  0  0  0  0  0  0  0  0  0  0
   -5.1800   24.6120  -29.1600 O   0  0  0  0  0  0  0  0  0  0  0  0
   -3.6650   22.2920  -30.7500 C   0  0  0  0  0  0  0  0  0  0  0  0
   -4.9320   21.9160  -31.2150 C   0  0  0  0  0  0  0  0  0  0  0  0
   -7.8002   22.4152  -30.8354 H   0  0  0  0  0  0  0  0  0  0  0  0
   -6.9709   22.9599  -32.3328 H   0  0  0  0  0  0  0  0  0  0  0  0
   -8.7490   22.7051  -32.3328 H   0  0  0  0  0  0  0  0  0  0  0  0
   -5.6287   17.3549  -31.9089 H   0  0  0  0  0  0  0  0  0  0  0  0
   -6.4505   16.9591  -33.4564 H   0  0  0  0  0  0  0  0  0  0  0  0
   -4.9931   18.0092  -33.4564 H   0  0  0  0  0  0  0  0  0  0  0  0
   -4.1046   18.7393  -32.2477 H   0  0  0  0  0  0  0  0  0  0  0  0
   -1.8461   19.4859  -31.4312 H   0  0  0  0  0  0  0  0  0  0  0  0
   -0.4635   21.7096  -30.2869 H   0  0  0  0  0  0  0  0  0  0  0  0
   -2.6060   25.8580  -28.9720 H   0  0  0  0  0  0  0  0  0  0  0  0
   -5.7821   22.6118  -31.1576 H   0  0  0  0  0  0  0  0  0  0  0  0
  1  2  1  0
  2  3  2  0
  3  4  1  0
  4  5  1  0
  5  6  1  0
  5  7  2  0
  7  8  1  0
  8  9  2  0
  9 10  1  0
 10 11  2  0
 11 12  1  0
 12 13  2  0
 13 14  1  0
 14 15  1  0
 14 16  2  0
 13 17  1  0
 17 18  1  0
 18 19  2  0
 18 20  1  0
 17 21  1  0
 21 22  2  0
  7  2  1  0
 22  8  1  0
 21 11  1  0
  1 23  1  0
  1 24  1  0
  1 25  1  0
  6 26  1  0
  6 27  1  0
  6 28  1  0
  9 29  1  0
 10 30  1  0
 12 31  1  0
 15 32  1  0
 22 33  1  0
M  CHG  2  15  -1  20  -1
M  END
>  <UniqueID>  (78) 
78

>  <SMILES>  (78) 
Cc1noc(C)c1-c1ccc2cc(C([NH-])=O)n(C(=O)[O-])c2c1

>  <Energy>  (78) 
108.86644959129269

>  <Genealogy>  (78) 
Cc1noc(C)c1-c1ccc2cc(C([NH-])=O)n(C(=O)[O-])c2c1 (protonated)
Cc1noc(C)c1-c1ccc2cc(C([NH-])=O)n(C(=O)[O-])c2c1 (3D coordinates assigned)
Cc1noc(C)c1-c1ccc2cc(C([NH-])=O)n(C(=O)[O-])c2c1 (optimized conformer: 108.86644959129269 kcal/mol)

>  <smiles>  (78) 
Cc1noc(C)c1-c1ccc2cc(C(N)=O)n(C(=O)O)c2c1

>  <score_type>  (78) 
oracle

>  <origin>  (78) 
adg

>  <m_score__min__energy>  (78) 
-11.710000000000001

>  <m_primary>  (78) 
energy

$$$$
78:0
     RDKit          3D

 34 35  0  0  0  0  0  0  0  0999 V2000
   -9.0130   20.9690  -31.4210 C   0  0  0  0  0  0  0  0  0  0  0  0
   -8.6810   19.4910  -31.5830 C   0  0  0  0  0  0  0  0  0  0  0  0
   -7.2850   19.3120  -31.8140 O   0  0  0  0  0  0  0  0  0  0  0  0
   -6.5980   19.9000  -32.8830 C   0  0  0  0  0  0  0  0  0  0  0  0
   -7.2340   20.4110  -33.8450 O   0  0  0  0  0  0  0  0  0  0  0  0
   -5.1610   19.9400  -32.8730 N   0  0  0  0  0  0  0  0  0  0  0  0
   -4.3030   19.1860  -33.6170 C   0  0  0  0  0  0  0  0  0  0  0  0
   -4.6880   18.0580  -34.4950 C   0  0  0  0  0  0  0  0  0  0  0  0
   -5.8660   18.1300  -35.3010 N   0  0  0  0  0  0  0  0  0  0  0  0
   -3.9610   17.0330  -34.5640 O   0  0  0  0  0  0  0  0  0  0  0  0
   -2.9830   19.5580  -33.3650 C   0  0  0  0  0  0  0  0  0  0  0  0
   -3.0610   20.5690  -32.4340 C   0  0  0  0  0  0  0  0  0  0  0  0
   -2.0480   21.3060  -31.8280 C   0  0  0  0  0  0  0  0  0  0  0  0
   -2.4170   22.3070  -30.9150 C   0  0  0  0  0  0  0  0  0  0  0  0
   -3.7840   22.5620  -30.6370 C   0  0  0  0  0  0  0  0  0  0  0  0
   -4.1670   23.6220  -29.6430 C   0  0  0  0  0  0  0  0  0  0  0  0
   -3.4920   24.9110  -29.9820 C   0  0  0  0  0  0  0  0  0  0  0  0
   -3.9890   25.6790  -30.8460 O   0  0  0  0  0  0  0  0  0  0  0  0
   -2.3360   25.2890  -29.3090 O   0  0  0  0  0  0  0  0  0  0  0  0
   -4.7840   21.7850  -31.2630 C   0  0  0  0  0  0  0  0  0  0  0  0
   -4.3860   20.7810  -32.1550 C   0  0  0  0  0  0  0  0  0  0  0  0
   -9.0687   21.2171  -30.3508 H   0  0  0  0  0  0  0  0  0  0  0  0
   -8.2287   21.5754  -31.8976 H   0  0  0  0  0  0  0  0  0  0  0  0
   -9.9813   21.1817  -31.8976 H   0  0  0  0  0  0  0  0  0  0  0  0
   -8.9676   18.9537  -30.6669 H   0  0  0  0  0  0  0  0  0  0  0  0
   -9.2366   19.0955  -32.4460 H   0  0  0  0  0  0  0  0  0  0  0  0
   -6.1090   17.3450  -35.9440 H   0  0  0  0  0  0  0  0  0  0  0  0
   -6.5220   18.9400  -35.2320 H   0  0  0  0  0  0  0  0  0  0  0  0
   -2.0730   19.1339  -33.8145 H   0  0  0  0  0  0  0  0  0  0  0  0
   -0.9901   21.1103  -32.0573 H   0  0  0  0  0  0  0  0  0  0  0  0
   -1.6387   22.8987  -30.4109 H   0  0  0  0  0  0  0  0  0  0  0  0
   -5.2574   23.7652  -29.6657 H   0  0  0  0  0  0  0  0  0  0  0  0
   -3.8524   23.3040  -28.6381 H   0  0  0  0  0  0  0  0  0  0  0  0
   -5.8492   21.9640  -31.0550 H   0  0  0  0  0  0  0  0  0  0  0  0
  1  2  1  0
  2  3  1  0
  3  4  1  0
  4  5  2  0
  4  6  1  0
  6  7  1  0
  7  8  1  0
  8  9  1  0
  8 10  2  0
  7 11  2  0
 11 12  1  0
 12 13  2  0
 13 14  1  0
 14 15  2  0
 15 16  1  0
 16 17  1  0
 17 18  2  0
 17 19  1  0
 15 20  1  0
 20 21  2  0
 21  6  1  0
 21 12  1  0
  1 22  1  0
  1 23  1  0
  1 24  1  0
  2 25  1  0
  2 26  1  0
  9 27  1  0
  9 28  1  0
 11 29  1  0
 13 30  1  0
 14 31  1  0
 16 32  1  0
 16 33  1  0
 20 34  1  0
M  CHG  1  19  -1
M  END
>  <UniqueID>  (79) 
79

>  <SMILES>  (79) 
CCOC(=O)n1c(C(N)=O)cc2ccc(CC(=O)[O-])cc21

>  <Energy>  (79) 
67.05420376911637

>  <Genealogy>  (79) 
CCOC(=O)n1c(C(N)=O)cc2ccc(CC(=O)[O-])cc21 (protonated)
CCOC(=O)n1c(C(N)=O)cc2ccc(CC(=O)[O-])cc21 (3D coordinates assigned)
CCOC(=O)n1c(C(N)=O)cc2ccc(CC(=O)[O-])cc21 (optimized conformer: 67.05420376911637 kcal/mol)

>  <smiles>  (79) 
CCOC(=O)n1c(C(N)=O)cc2ccc(CC(=O)O)cc21

>  <score_type>  (79) 
oracle

>  <origin>  (79) 
adg

>  <m_score__min__energy>  (79) 
-9.2100000000000009

>  <m_primary>  (79) 
energy

$$$$
79:0
     RDKit          3D

 64 67  0  0  0  0  0  0  0  0999 V2000
   -1.8480   16.6880  -34.1090 C   0  0  0  0  0  0  0  0  0  0  0  0
   -3.1140   16.0150  -33.6630 C   0  0  0  0  0  0  0  0  0  0  0  0
   -3.0530   14.8150  -33.2790 O   0  0  0  0  0  0  0  0  0  0  0  0
   -4.3900   16.6940  -33.6980 N   0  0  0  0  0  0  0  0  0  0  0  0
   -4.6000   17.8300  -34.6170 C   0  0  0  0  0  0  0  0  0  0  0  0
   -6.0430   18.3430  -34.5440 C   0  0  0  0  0  0  0  0  0  0  0  0
   -6.4390   18.4770  -33.1370 N   0  0  0  0  0  0  0  0  0  0  0  0
   -6.7380   19.7660  -32.5560 C   0  0  0  0  0  0  0  0  0  0  0  0
   -8.0050   20.3740  -32.7650 C   0  0  0  0  0  0  0  0  0  0  0  0
   -8.2740   21.6610  -32.2770 C   0  0  0  0  0  0  0  0  0  0  0  0
   -7.2640   22.3260  -31.5950 C   0  0  0  0  0  0  0  0  0  0  0  0
   -7.2400   23.6010  -31.0870 C   0  0  0  0  0  0  0  0  0  0  0  0
   -5.9610   23.7680  -30.5710 C   0  0  0  0  0  0  0  0  0  0  0  0
   -5.4750   25.0720  -30.0920 C   0  0  0  0  0  0  0  0  0  0  0  0
   -6.1170   25.7160  -28.9930 N   0  0  0  0  0  0  0  0  0  0  0  0
   -4.4630   25.6040  -30.6170 O   0  0  0  0  0  0  0  0  0  0  0  0
   -5.2050   22.6420  -30.7560 N   0  0  0  0  0  0  0  0  0  0  0  0
   -3.7850   22.4710  -30.5420 C   0  0  0  0  0  0  0  0  0  0  0  0
   -2.9710   22.8780  -31.4160 O   0  0  0  0  0  0  0  0  0  0  0  0
   -3.2390   21.8990  -29.2590 C   0  0  0  0  0  0  0  0  0  0  0  0
   -2.2660   22.8250  -28.6320 N   0  0  0  0  0  0  0  0  0  0  0  0
   -0.9660   22.1410  -28.4020 C   0  0  0  0  0  0  0  0  0  0  0  0
    0.0070   22.9300  -27.5010 C   0  0  0  0  0  0  0  0  0  0  0  0
    0.1570   24.4300  -27.8560 C   0  0  0  0  0  0  0  0  0  0  0  0
   -1.1260   25.1220  -28.1230 N   0  0  0  0  0  0  0  0  0  0  0  0
   -0.9010   26.5740  -28.2120 C   0  0  0  0  0  0  0  0  0  0  0  0
   -2.1700   24.8110  -27.1210 C   0  0  0  0  0  0  0  0  0  0  0  0
   -2.8100   23.4290  -27.3930 C   0  0  0  0  0  0  0  0  0  0  0  0
   -6.0290   21.7660  -31.3870 C   0  0  0  0  0  0  0  0  0  0  0  0
   -5.7390   20.4740  -31.8480 C   0  0  0  0  0  0  0  0  0  0  0  0
   -6.2860   17.3180  -32.2430 C   0  0  0  0  0  0  0  0  0  0  0  0
   -5.5220   16.1680  -32.9190 C   0  0  0  0  0  0  0  0  0  0  0  0
   -1.2668   16.9969  -33.2276 H   0  0  0  0  0  0  0  0  0  0  0  0
   -1.2533   15.9870  -34.7131 H   0  0  0  0  0  0  0  0  0  0  0  0
   -2.0964   17.5731  -34.7131 H   0  0  0  0  0  0  0  0  0  0  0  0
   -3.9150   18.6455  -34.3418 H   0  0  0  0  0  0  0  0  0  0  0  0
   -4.4035   17.4881  -35.6439 H   0  0  0  0  0  0  0  0  0  0  0  0
   -6.1103   19.3227  -35.0397 H   0  0  0  0  0  0  0  0  0  0  0  0
   -6.7131   17.6321  -35.0496 H   0  0  0  0  0  0  0  0  0  0  0  0
   -8.7848   19.8284  -33.3165 H   0  0  0  0  0  0  0  0  0  0  0  0
   -9.2571   22.1301  -32.4302 H   0  0  0  0  0  0  0  0  0  0  0  0
   -8.0595   24.3347  -31.0882 H   0  0  0  0  0  0  0  0  0  0  0  0
   -6.9750   25.3010  -28.5660 H   0  0  0  0  0  0  0  0  0  0  0  0
   -5.7820   26.6470  -28.6650 H   0  0  0  0  0  0  0  0  0  0  0  0
   -4.0709   21.7255  -28.5606 H   0  0  0  0  0  0  0  0  0  0  0  0
   -2.7236   20.9550  -29.4894 H   0  0  0  0  0  0  0  0  0  0  0  0
   -1.1657   21.1689  -27.9276 H   0  0  0  0  0  0  0  0  0  0  0  0
   -0.4806   22.0410  -29.3840 H   0  0  0  0  0  0  0  0  0  0  0  0
   -0.3542   22.8591  -26.4644 H   0  0  0  0  0  0  0  0  0  0  0  0
    0.9988   22.4781  -27.6497 H   0  0  0  0  0  0  0  0  0  0  0  0
    0.6532   24.9357  -27.0146 H   0  0  0  0  0  0  0  0  0  0  0  0
    0.7417   24.4778  -28.7865 H   0  0  0  0  0  0  0  0  0  0  0  0
   -0.8354   26.9976  -27.1990 H   0  0  0  0  0  0  0  0  0  0  0  0
    0.0378   26.7672  -28.7518 H   0  0  0  0  0  0  0  0  0  0  0  0
   -1.7373   27.0422  -28.7518 H   0  0  0  0  0  0  0  0  0  0  0  0
   -1.7159   24.8056  -26.1191 H   0  0  0  0  0  0  0  0  0  0  0  0
   -2.9555   25.5783  -27.1857 H   0  0  0  0  0  0  0  0  0  0  0  0
   -2.5982   22.7615  -26.5447 H   0  0  0  0  0  0  0  0  0  0  0  0
   -3.8947   23.5640  -27.5166 H   0  0  0  0  0  0  0  0  0  0  0  0
   -4.7543   20.0201  -31.6628 H   0  0  0  0  0  0  0  0  0  0  0  0
   -5.7337   17.6322  -31.3451 H   0  0  0  0  0  0  0  0  0  0  0  0
   -7.2908   16.9531  -31.9838 H   0  0  0  0  0  0  0  0  0  0  0  0
   -5.1435   15.4812  -32.1476 H   0  0  0  0  0  0  0  0  0  0  0  0
   -6.2051   15.6348  -33.5966 H   0  0  0  0  0  0  0  0  0  0  0  0
  1  2  1  0
  2  3  2  0
  2  4  1  0
  4  5  1  0
  5  6  1  0
  6  7  1  0
  7  8  1  0
  8  9  2  0
  9 10  1  0
 10 11  2  0
 11 12  1  0
 12 13  2  0
 13 14  1  0
 14 15  1  0
 14 16  2  0
 13 17  1  0
 17 18  1  0
 18 19  2  0
 18 20  1  0
 20 21  1  0
 21 22  1  0
 22 23  1  0
 23 24  1  0
 24 25  1  0
 25 26  1  0
 25 27  1  0
 27 28  1  0
 17 29  1  0
 29 30  2  0
  7 31  1  0
 31 32  1  0
 32  4  1  0
 30  8  1  0
 29 11  1  0
 28 21  1  0
  1 33  1  0
  1 34  1  0
  1 35  1  0
  5 36  1  0
  5 37  1  0
  6 38  1  0
  6 39  1  0
  9 40  1  0
 10 41  1  0
 12 42  1  0
 15 43  1  0
 15 44  1  0
 20 45  1  0
 20 46  1  0
 22 47  1  0
 22 48  1  0
 23 49  1  0
 23 50  1  0
 24 51  1  0
 24 52  1  0
 26 53  1  0
 26 54  1  0
 26 55  1  0
 27 56  1  0
 27 57  1  0
 28 58  1  0
 28 59  1  0
 30 60  1  0
 31 61  1  0
 31 62  1  0
 32 63  1  0
 32 64  1  0
M  END
>  <UniqueID>  (80) 
80

>  <SMILES>  (80) 
CC(=O)N1CCN(c2ccc3cc(C(N)=O)n(C(=O)CN4CCCN(C)CC4)c3c2)CC1

>  <Energy>  (80) 
129.02186588818262

>  <Genealogy>  (80) 
CC(=O)N1CCN(c2ccc3cc(C(N)=O)n(C(=O)CN4CCCN(C)CC4)c3c2)CC1 (3D coordinates assigned)
CC(=O)N1CCN(c2ccc3cc(C(N)=O)n(C(=O)CN4CCCN(C)CC4)c3c2)CC1 (nonaromatic ring conformer: 129.02186588818262 kcal/mol)

>  <smiles>  (80) 
CC(=O)N1CCN(c2ccc3cc(C(N)=O)n(C(=O)CN4CCCN(C)CC4)c3c2)CC1

>  <score_type>  (80) 
oracle

>  <origin>  (80) 
adg

>  <m_score__min__energy>  (80) 
-8.5600000000000005

>  <m_primary>  (80) 
energy

$$$$
80:0
     RDKit          3D

 47 49  0  0  0  0  0  0  0  0999 V2000
   -4.0770   23.5920  -27.5190 C   0  0  0  0  0  0  0  0  0  0  0  0
   -4.3440   24.5100  -28.5740 O   0  0  0  0  0  0  0  0  0  0  0  0
   -3.6890   24.4490  -29.8170 C   0  0  0  0  0  0  0  0  0  0  0  0
   -4.0250   25.2520  -30.7360 O   0  0  0  0  0  0  0  0  0  0  0  0
   -2.6680   23.4490  -30.0500 N   0  0  0  0  0  0  0  0  0  0  0  0
   -1.4080   23.4160  -29.5160 C   0  0  0  0  0  0  0  0  0  0  0  0
   -0.7600   24.4840  -28.7240 C   0  0  0  0  0  0  0  0  0  0  0  0
   -1.5170   25.5960  -28.2250 N   0  0  0  0  0  0  0  0  0  0  0  0
    0.4910   24.4470  -28.5490 O   0  0  0  0  0  0  0  0  0  0  0  0
   -0.7600   22.2290  -29.8300 C   0  0  0  0  0  0  0  0  0  0  0  0
   -1.6460   21.5290  -30.6100 C   0  0  0  0  0  0  0  0  0  0  0  0
   -1.4960   20.2870  -31.2150 C   0  0  0  0  0  0  0  0  0  0  0  0
   -2.5600   19.7980  -31.9870 C   0  0  0  0  0  0  0  0  0  0  0  0
   -3.7600   20.5420  -32.1280 C   0  0  0  0  0  0  0  0  0  0  0  0
   -4.8930   20.0380  -33.0080 C   0  0  1  0  0  0  0  0  0  0  0  0
   -4.7670   18.5030  -33.2400 C   0  0  0  0  0  0  0  0  0  0  0  0
   -5.8460   17.6430  -32.5520 C   0  0  0  0  0  0  0  0  0  0  0  0
   -7.2120   17.6260  -33.2830 C   0  0  0  0  0  0  0  0  0  0  0  0
   -8.0570   18.7830  -32.9140 N   0  0  0  0  0  0  0  0  0  0  0  0
   -8.3100   18.7980  -31.4650 C   0  0  0  0  0  0  0  0  0  0  0  0
   -7.4590   20.0740  -33.3290 C   0  0  0  0  0  0  0  0  0  0  0  0
   -6.2650   20.5040  -32.4570 C   0  0  0  0  0  0  0  0  0  0  0  0
   -3.8700   21.8060  -31.4970 C   0  0  0  0  0  0  0  0  0  0  0  0
   -2.7900   22.2800  -30.7350 C   0  0  0  0  0  0  0  0  0  0  0  0
   -4.2229   24.0935  -26.5509 H   0  0  0  0  0  0  0  0  0  0  0  0
   -4.7633   22.7358  -27.5955 H   0  0  0  0  0  0  0  0  0  0  0  0
   -3.0385   23.2375  -27.5955 H   0  0  0  0  0  0  0  0  0  0  0  0
   -1.0480   26.3380  -27.6500 H   0  0  0  0  0  0  0  0  0  0  0  0
   -2.5260   25.7030  -28.4830 H   0  0  0  0  0  0  0  0  0  0  0  0
    0.2480   21.9164  -29.5199 H   0  0  0  0  0  0  0  0  0  0  0  0
   -0.5707   19.7049  -31.0922 H   0  0  0  0  0  0  0  0  0  0  0  0
   -2.4629   18.8246  -32.4900 H   0  0  0  0  0  0  0  0  0  0  0  0
   -4.8178   20.4885  -34.0087 H   0  0  0  0  0  0  0  0  0  0  0  0
   -4.8232   18.3170  -34.3227 H   0  0  0  0  0  0  0  0  0  0  0  0
   -3.8079   18.2048  -32.7914 H   0  0  0  0  0  0  0  0  0  0  0  0
   -5.4752   16.6092  -32.4914 H   0  0  0  0  0  0  0  0  0  0  0  0
   -6.0238   18.0930  -31.5641 H   0  0  0  0  0  0  0  0  0  0  0  0
   -7.0335   17.6493  -34.3682 H   0  0  0  0  0  0  0  0  0  0  0  0
   -7.7436   16.7104  -32.9846 H   0  0  0  0  0  0  0  0  0  0  0  0
   -7.3533   18.7413  -30.9251 H   0  0  0  0  0  0  0  0  0  0  0  0
   -8.8298   19.7285  -31.1932 H   0  0  0  0  0  0  0  0  0  0  0  0
   -8.9361   17.9354  -31.1932 H   0  0  0  0  0  0  0  0  0  0  0  0
   -7.1148   19.9802  -34.3695 H   0  0  0  0  0  0  0  0  0  0  0  0
   -8.2371   20.8433  -33.2158 H   0  0  0  0  0  0  0  0  0  0  0  0
   -6.2590   21.6021  -32.3930 H   0  0  0  0  0  0  0  0  0  0  0  0
   -6.3959   20.0278  -31.4741 H   0  0  0  0  0  0  0  0  0  0  0  0
   -4.7860   22.4058  -31.6023 H   0  0  0  0  0  0  0  0  0  0  0  0
  1  2  1  0
  2  3  1  0
  3  4  2  0
  3  5  1  0
  5  6  1  0
  6  7  1  0
  7  8  1  0
  7  9  2  0
  6 10  2  0
 10 11  1  0
 11 12  2  0
 12 13  1  0
 13 14  2  0
 14 15  1  0
 15 16  1  0
 16 17  1  0
 17 18  1  0
 18 19  1  0
 19 20  1  0
 19 21  1  0
 21 22  1  0
 14 23  1  0
 23 24  2  0
 24  5  1  0
 24 11  1  0
 22 15  1  0
  1 25  1  0
  1 26  1  0
  1 27  1  0
  8 28  1  0
  8 29  1  0
 10 30  1  0
 12 31  1  0
 13 32  1  0
 15 33  1  6
 16 34  1  0
 16 35  1  0
 17 36  1  0
 17 37  1  0
 18 38  1  0
 18 39  1  0
 20 40  1  0
 20 41  1  0
 20 42  1  0
 21 43  1  0
 21 44  1  0
 22 45  1  0
 22 46  1  0
 23 47  1  0
M  END
>  <UniqueID>  (81) 
81

>  <SMILES>  (81) 
COC(=O)n1c(C(N)=O)cc2ccc([C@H]3CCCN(C)CC3)cc21

>  <Energy>  (81) 
98.48687146611775

>  <Genealogy>  (81) 
COC(=O)n1c(C(N)=O)cc2ccc([C@H]3CCCN(C)CC3)cc21 (chirality)
COC(=O)n1c(C(N)=O)cc2ccc([C@H]3CCCN(C)CC3)cc21 (3D coordinates assigned)
COC(=O)n1c(C(N)=O)cc2ccc([C@H]3CCCN(C)CC3)cc21 (nonaromatic ring conformer: 98.48687146611775 kcal/mol)

>  <smiles>  (81) 
COC(=O)n1c(C(N)=O)cc2ccc(C3CCCN(C)CC3)cc21

>  <score_type>  (81) 
oracle

>  <origin>  (81) 
adg

>  <m_score__min__energy>  (81) 
-6.9699999999999998

>  <m_primary>  (81) 
energy

$$$$
81:0
     RDKit          3D

 39 41  0  0  0  0  0  0  0  0999 V2000
   -3.1730   22.7830  -28.9960 C   0  0  0  0  0  0  0  0  0  0  0  0
   -2.7790   23.1420  -30.3160 O   0  0  0  0  0  0  0  0  0  0  0  0
   -3.4960   22.7500  -31.4500 C   0  0  0  0  0  0  0  0  0  0  0  0
   -2.8940   22.2680  -32.4490 O   0  0  0  0  0  0  0  0  0  0  0  0
   -4.9270   22.8730  -31.4670 N   0  0  0  0  0  0  0  0  0  0  0  0
   -5.6790   23.8940  -30.9660 C   0  0  0  0  0  0  0  0  0  0  0  0
   -5.1660   25.1810  -30.4520 C   0  0  0  0  0  0  0  0  0  0  0  0
   -3.8860   25.6680  -30.8460 N   0  0  0  0  0  0  0  0  0  0  0  0
   -5.8880   25.8840  -29.6960 O   0  0  0  0  0  0  0  0  0  0  0  0
   -7.0370   23.5990  -31.0740 C   0  0  0  0  0  0  0  0  0  0  0  0
   -7.0940   22.3600  -31.6710 C   0  0  0  0  0  0  0  0  0  0  0  0
   -8.1960   21.5780  -32.0040 C   0  0  0  0  0  0  0  0  0  0  0  0
   -7.9600   20.3200  -32.5830 C   0  0  0  0  0  0  0  0  0  0  0  0
   -6.6360   19.8660  -32.8170 C   0  0  0  0  0  0  0  0  0  0  0  0
   -6.4080   18.5630  -33.3880 N   0  0  0  0  0  0  0  0  0  0  0  0
   -5.7320   18.4330  -34.6850 C   0  0  0  0  0  0  0  0  0  0  0  0
   -5.2390   16.9950  -34.8970 C   0  0  0  0  0  0  0  0  0  0  0  0
   -4.6990   16.4470  -33.6460 N   0  0  0  0  0  0  0  0  0  0  0  0
   -5.7260   16.3200  -32.5910 C   0  0  0  0  0  0  0  0  0  0  0  0
   -6.8720   17.3460  -32.7110 C   0  0  0  0  0  0  0  0  0  0  0  0
   -5.5440   20.6870  -32.4550 C   0  0  0  0  0  0  0  0  0  0  0  0
   -5.8080   21.9430  -31.8970 C   0  0  0  0  0  0  0  0  0  0  0  0
   -2.5637   23.3382  -28.2677 H   0  0  0  0  0  0  0  0  0  0  0  0
   -4.2348   23.0306  -28.8502 H   0  0  0  0  0  0  0  0  0  0  0  0
   -3.0250   21.7028  -28.8502 H   0  0  0  0  0  0  0  0  0  0  0  0
   -3.0120   25.2860  -30.4210 H   0  0  0  0  0  0  0  0  0  0  0  0
   -7.8830   24.2234  -30.7509 H   0  0  0  0  0  0  0  0  0  0  0  0
   -9.2203   21.9340  -31.8195 H   0  0  0  0  0  0  0  0  0  0  0  0
   -8.8111   19.6797  -32.8581 H   0  0  0  0  0  0  0  0  0  0  0  0
   -6.4369   18.6953  -35.4877 H   0  0  0  0  0  0  0  0  0  0  0  0
   -4.8656   19.1105  -34.7022 H   0  0  0  0  0  0  0  0  0  0  0  0
   -6.0795   16.3700  -35.2330 H   0  0  0  0  0  0  0  0  0  0  0  0
   -4.4430   17.0000  -35.6562 H   0  0  0  0  0  0  0  0  0  0  0  0
   -3.9410   17.0850  -33.3050 H   0  0  0  0  0  0  0  0  0  0  0  0
   -6.1576   15.3098  -32.6470 H   0  0  0  0  0  0  0  0  0  0  0  0
   -5.2243   16.5108  -31.6308 H   0  0  0  0  0  0  0  0  0  0  0  0
   -7.6954   16.9021  -33.2898 H   0  0  0  0  0  0  0  0  0  0  0  0
   -7.2167   17.6120  -31.7008 H   0  0  0  0  0  0  0  0  0  0  0  0
   -4.5094   20.3463  -32.6085 H   0  0  0  0  0  0  0  0  0  0  0  0
  1  2  1  0
  2  3  1  0
  3  4  2  0
  3  5  1  0
  5  6  1  0
  6  7  1  0
  7  8  1  0
  7  9  2  0
  6 10  2  0
 10 11  1  0
 11 12  2  0
 12 13  1  0
 13 14  2  0
 14 15  1  0
 15 16  1  0
 16 17  1  0
 17 18  1  0
 18 19  1  0
 19 20  1  0
 14 21  1  0
 21 22  2  0
 22  5  1  0
 22 11  1  0
 20 15  1  0
  1 23  1  0
  1 24  1  0
  1 25  1  0
  8 26  1  0
 10 27  1  0
 12 28  1  0
 13 29  1  0
 16 30  1  0
 16 31  1  0
 17 32  1  0
 17 33  1  0
 18 34  1  0
 19 35  1  0
 19 36  1  0
 20 37  1  0
 20 38  1  0
 21 39  1  0
M  CHG  1   8  -1
M  END
>  <UniqueID>  (82) 
82

>  <SMILES>  (82) 
COC(=O)n1c(C([NH-])=O)cc2ccc(N3CCNCC3)cc21

>  <Energy>  (82) 
85.86545017779811

>  <Genealogy>  (82) 
COC(=O)n1c(C([NH-])=O)cc2ccc(N3CCNCC3)cc21 (protonated)
COC(=O)n1c(C([NH-])=O)cc2ccc(N3CCNCC3)cc21 (3D coordinates assigned)
COC(=O)n1c(C([NH-])=O)cc2ccc(N3CCNCC3)cc21 (nonaromatic ring conformer: 85.86545017779811 kcal/mol)

>  <smiles>  (82) 
COC(=O)n1c(C(N)=O)cc2ccc(N3CCNCC3)cc21

>  <score_type>  (82) 
oracle

>  <origin>  (82) 
adg

>  <m_score__min__energy>  (82) 
-9.9000000000000004

>  <m_primary>  (82) 
energy

$$$$
82:0
     RDKit          3D

 46 48  0  0  0  0  0  0  0  0999 V2000
   -0.4290   21.1910  -32.9390 C   0  0  0  0  0  0  0  0  0  0  0  0
   -1.9230   20.8820  -32.6880 C   0  0  0  0  0  0  0  0  0  0  0  0
   -2.1100   20.1350  -31.3530 C   0  0  0  0  0  0  0  0  0  0  0  0
   -2.4440   19.9950  -33.8360 C   0  0  0  0  0  0  0  0  0  0  0  0
   -2.7060   22.0860  -32.6960 O   0  0  0  0  0  0  0  0  0  0  0  0
   -3.3430   22.6770  -31.6000 C   0  0  0  0  0  0  0  0  0  0  0  0
   -2.6660   23.1780  -30.6670 O   0  0  0  0  0  0  0  0  0  0  0  0
   -4.7820   22.6920  -31.5390 N   0  0  0  0  0  0  0  0  0  0  0  0
   -5.5780   23.7160  -31.1190 C   0  0  0  0  0  0  0  0  0  0  0  0
   -5.1250   24.9310  -30.4190 C   0  0  0  0  0  0  0  0  0  0  0  0
   -3.9370   25.6060  -30.8360 N   0  0  0  0  0  0  0  0  0  0  0  0
   -5.7580   25.3440  -29.4050 O   0  0  0  0  0  0  0  0  0  0  0  0
   -6.9210   23.4180  -31.3350 C   0  0  0  0  0  0  0  0  0  0  0  0
   -6.9320   22.1600  -31.8830 C   0  0  0  0  0  0  0  0  0  0  0  0
   -8.0070   21.3670  -32.2770 C   0  0  0  0  0  0  0  0  0  0  0  0
   -7.7330   20.0930  -32.8000 C   0  0  0  0  0  0  0  0  0  0  0  0
   -6.3950   19.6320  -32.9290 C   0  0  0  0  0  0  0  0  0  0  0  0
   -6.1230   18.3030  -33.4300 N   0  0  0  0  0  0  0  0  0  0  0  0
   -5.2930   18.0280  -34.5940 C   0  0  0  0  0  0  0  0  0  0  0  0
   -5.0620   16.5240  -34.5930 C   0  0  0  0  0  0  0  0  0  0  0  0
   -6.1670   15.9450  -33.7180 C   0  0  0  0  0  0  0  0  0  0  0  0
   -5.7110   14.8510  -33.0040 F   0  0  0  0  0  0  0  0  0  0  0  0
   -7.2390   15.5680  -34.5100 F   0  0  0  0  0  0  0  0  0  0  0  0
   -6.5800   17.0770  -32.7850 C   0  0  0  0  0  0  0  0  0  0  0  0
   -5.3290   20.4840  -32.5380 C   0  0  0  0  0  0  0  0  0  0  0  0
   -5.6310   21.7410  -31.9970 C   0  0  0  0  0  0  0  0  0  0  0  0
    0.0902   21.2984  -31.9752 H   0  0  0  0  0  0  0  0  0  0  0  0
    0.0248   20.3677  -33.5102 H   0  0  0  0  0  0  0  0  0  0  0  0
   -0.3390   22.1268  -33.5102 H   0  0  0  0  0  0  0  0  0  0  0  0
   -1.9363   20.8287  -30.5172 H   0  0  0  0  0  0  0  0  0  0  0  0
   -3.1348   19.7397  -31.2945 H   0  0  0  0  0  0  0  0  0  0  0  0
   -1.3923   19.3034  -31.2945 H   0  0  0  0  0  0  0  0  0  0  0  0
   -2.9591   19.1180  -33.4170 H   0  0  0  0  0  0  0  0  0  0  0  0
   -3.1468   20.5719  -34.4551 H   0  0  0  0  0  0  0  0  0  0  0  0
   -1.5979   19.6621  -34.4551 H   0  0  0  0  0  0  0  0  0  0  0  0
   -3.0010   25.2990  -30.4980 H   0  0  0  0  0  0  0  0  0  0  0  0
   -7.7892   24.0560  -31.1133 H   0  0  0  0  0  0  0  0  0  0  0  0
   -9.0415   21.7285  -32.1812 H   0  0  0  0  0  0  0  0  0  0  0  0
   -8.5640   19.4441  -33.1136 H   0  0  0  0  0  0  0  0  0  0  0  0
   -5.8106   18.3354  -35.5147 H   0  0  0  0  0  0  0  0  0  0  0  0
   -4.3442   18.5832  -34.5548 H   0  0  0  0  0  0  0  0  0  0  0  0
   -5.1309   16.1234  -35.6152 H   0  0  0  0  0  0  0  0  0  0  0  0
   -4.0624   16.2641  -34.2146 H   0  0  0  0  0  0  0  0  0  0  0  0
   -7.6728   17.0928  -32.6607 H   0  0  0  0  0  0  0  0  0  0  0  0
   -6.1441   16.9576  -31.7821 H   0  0  0  0  0  0  0  0  0  0  0  0
   -4.2837   20.1630  -32.6576 H   0  0  0  0  0  0  0  0  0  0  0  0
  1  2  1  0
  2  3  1  0
  2  4  1  0
  2  5  1  0
  5  6  1  0
  6  7  2  0
  6  8  1  0
  8  9  1  0
  9 10  1  0
 10 11  1  0
 10 12  2  0
  9 13  2  0
 13 14  1  0
 14 15  2  0
 15 16  1  0
 16 17  2  0
 17 18  1  0
 18 19  1  0
 19 20  1  0
 20 21  1  0
 21 22  1  0
 21 23  1  0
 21 24  1  0
 17 25  1  0
 25 26  2  0
 26  8  1  0
 26 14  1  0
 24 18  1  0
  1 27  1  0
  1 28  1  0
  1 29  1  0
  3 30  1  0
  3 31  1  0
  3 32  1  0
  4 33  1  0
  4 34  1  0
  4 35  1  0
 11 36  1  0
 13 37  1  0
 15 38  1  0
 16 39  1  0
 19 40  1  0
 19 41  1  0
 20 42  1  0
 20 43  1  0
 24 44  1  0
 24 45  1  0
 25 46  1  0
M  CHG  1  11  -1
M  END
>  <UniqueID>  (83) 
83

>  <SMILES>  (83) 
CC(C)(C)OC(=O)n1c(C([NH-])=O)cc2ccc(N3CCC(F)(F)C3)cc21

>  <Energy>  (83) 
84.22788574634652

>  <Genealogy>  (83) 
CC(C)(C)OC(=O)n1c(C([NH-])=O)cc2ccc(N3CCC(F)(F)C3)cc21 (protonated)
CC(C)(C)OC(=O)n1c(C([NH-])=O)cc2ccc(N3CCC(F)(F)C3)cc21 (3D coordinates assigned)
CC(C)(C)OC(=O)n1c(C([NH-])=O)cc2ccc(N3CCC(F)(F)C3)cc21 (nonaromatic ring conformer: 84.22788574634652 kcal/mol)

>  <smiles>  (83) 
CC(C)(C)OC(=O)n1c(C(N)=O)cc2ccc(N3CCC(F)(F)C3)cc21

>  <score_type>  (83) 
oracle

>  <origin>  (83) 
adg

>  <m_score__min__energy>  (83) 
-10.609999999999999

>  <m_primary>  (83) 
energy

$$$$
83:0
     RDKit          3D

 43 44  0  0  0  0  0  0  0  0999 V2000
   -3.0240   19.5860  -32.8550 C   0  0  0  0  0  0  0  0  0  0  0  0
   -3.9530   19.2930  -33.7680 C   0  0  0  0  0  0  0  0  0  0  0  0
   -4.4840   17.8980  -33.9440 C   0  0  0  0  0  0  0  0  0  0  0  0
   -4.8850   17.3630  -32.6850 O   0  0  0  0  0  0  0  0  0  0  0  0
   -6.0560   17.7430  -32.0200 C   0  0  0  0  0  0  0  0  0  0  0  0
   -6.2240   17.4710  -30.7990 O   0  0  0  0  0  0  0  0  0  0  0  0
   -7.1510   18.4060  -32.7900 C   0  0  0  0  0  0  0  0  0  0  0  0
   -7.3440   19.8080  -32.2810 C   0  0  0  0  0  0  0  0  0  0  0  0
   -8.6240   20.4160  -32.3160 C   0  0  0  0  0  0  0  0  0  0  0  0
   -8.7980   21.7410  -31.8830 C   0  0  0  0  0  0  0  0  0  0  0  0
   -7.6750   22.4380  -31.4460 C   0  0  0  0  0  0  0  0  0  0  0  0
   -7.5600   23.7270  -30.9760 C   0  0  0  0  0  0  0  0  0  0  0  0
   -6.2060   23.8990  -30.7050 C   0  0  0  0  0  0  0  0  0  0  0  0
   -5.6240   25.1790  -30.2520 C   0  0  0  0  0  0  0  0  0  0  0  0
   -4.2720   25.5250  -30.5550 N   0  0  0  0  0  0  0  0  0  0  0  0
   -6.3490   26.0040  -29.6350 O   0  0  0  0  0  0  0  0  0  0  0  0
   -5.5100   22.7600  -30.9790 N   0  0  0  0  0  0  0  0  0  0  0  0
   -4.1110   22.5130  -30.7640 C   0  0  0  0  0  0  0  0  0  0  0  0
   -3.2550   23.0360  -31.5280 O   0  0  0  0  0  0  0  0  0  0  0  0
   -3.7050   21.6880  -29.7090 O   0  0  0  0  0  0  0  0  0  0  0  0
   -3.7780   22.0760  -28.3390 C   0  0  0  0  0  0  0  0  0  0  0  0
   -3.3780   23.5140  -28.1740 C   0  0  0  0  0  0  0  0  0  0  0  0
   -3.8900   24.2720  -27.2020 C   0  0  0  0  0  0  0  0  0  0  0  0
   -6.4250   21.8740  -31.4320 C   0  0  0  0  0  0  0  0  0  0  0  0
   -6.2300   20.5450  -31.8210 C   0  0  0  0  0  0  0  0  0  0  0  0
   -2.6584   20.6185  -32.7541 H   0  0  0  0  0  0  0  0  0  0  0  0
   -2.6242   18.7949  -32.2036 H   0  0  0  0  0  0  0  0  0  0  0  0
   -4.3415   20.0967  -34.4107 H   0  0  0  0  0  0  0  0  0  0  0  0
   -5.3502   17.9214  -34.6217 H   0  0  0  0  0  0  0  0  0  0  0  0
   -3.6927   17.2630  -34.3690 H   0  0  0  0  0  0  0  0  0  0  0  0
   -6.8827   18.4367  -33.8563 H   0  0  0  0  0  0  0  0  0  0  0  0
   -8.0844   17.8381  -32.6629 H   0  0  0  0  0  0  0  0  0  0  0  0
   -9.4887   19.8452  -32.6855 H   0  0  0  0  0  0  0  0  0  0  0  0
   -9.7914   22.2134  -31.8891 H   0  0  0  0  0  0  0  0  0  0  0  0
   -8.3662   24.4635  -30.8431 H   0  0  0  0  0  0  0  0  0  0  0  0
   -3.7000   24.9470  -31.2100 H   0  0  0  0  0  0  0  0  0  0  0  0
   -3.8640   26.4150  -30.1900 H   0  0  0  0  0  0  0  0  0  0  0  0
   -4.8097   21.9445  -27.9807 H   0  0  0  0  0  0  0  0  0  0  0  0
   -3.0891   21.4475  -27.7556 H   0  0  0  0  0  0  0  0  0  0  0  0
   -2.6470   23.9522  -28.8694 H   0  0  0  0  0  0  0  0  0  0  0  0
   -3.5801   25.3228  -27.1030 H   0  0  0  0  0  0  0  0  0  0  0  0
   -4.6218   23.8459  -26.5000 H   0  0  0  0  0  0  0  0  0  0  0  0
   -5.2325   20.0842  -31.7700 H   0  0  0  0  0  0  0  0  0  0  0  0
  1  2  2  0
  2  3  1  0
  3  4  1  0
  4  5  1  0
  5  6  2  0
  5  7  1  0
  7  8  1  0
  8  9  2  0
  9 10  1  0
 10 11  2  0
 11 12  1  0
 12 13  2  0
 13 14  1  0
 14 15  1  0
 14 16  2  0
 13 17  1  0
 17 18  1  0
 18 19  2  0
 18 20  1  0
 20 21  1  0
 21 22  1  0
 22 23  2  0
 17 24  1  0
 24 25  2  0
 25  8  1  0
 24 11  1  0
  1 26  1  0
  1 27  1  0
  2 28  1  0
  3 29  1  0
  3 30  1  0
  7 31  1  0
  7 32  1  0
  9 33  1  0
 10 34  1  0
 12 35  1  0
 15 36  1  0
 15 37  1  0
 21 38  1  0
 21 39  1  0
 22 40  1  0
 23 41  1  0
 23 42  1  0
 25 43  1  0
M  END
>  <UniqueID>  (84) 
84

>  <SMILES>  (84) 
C=CCOC(=O)Cc1ccc2cc(C(N)=O)n(C(=O)OCC=C)c2c1

>  <Energy>  (84) 
70.34000651384702

>  <Genealogy>  (84) 
C=CCOC(=O)Cc1ccc2cc(C(N)=O)n(C(=O)OCC=C)c2c1 (3D coordinates assigned)
C=CCOC(=O)Cc1ccc2cc(C(N)=O)n(C(=O)OCC=C)c2c1 (optimized conformer: 70.34000651384702 kcal/mol)

>  <smiles>  (84) 
C=CCOC(=O)Cc1ccc2cc(C(N)=O)n(C(=O)OCC=C)c2c1

>  <score_type>  (84) 
oracle

>  <origin>  (84) 
adg

>  <m_score__min__energy>  (84) 
-8.0099999999999998

>  <m_primary>  (84) 
energy

$$$$
84:0
     RDKit          3D

 36 38  0  0  0  0  0  0  0  0999 V2000
   -5.3990   26.5120  -30.4020 N   0  0  0  0  0  0  0  0  0  0  0  0
   -6.2850   25.4740  -29.9790 C   0  0  0  0  0  0  0  0  0  0  0  0
   -7.0350   25.6740  -28.9870 O   0  0  0  0  0  0  0  0  0  0  0  0
   -6.3540   24.1930  -30.7170 C   0  0  0  0  0  0  0  0  0  0  0  0
   -7.5470   23.5910  -31.1150 C   0  0  0  0  0  0  0  0  0  0  0  0
   -7.1810   22.3880  -31.6720 C   0  0  0  0  0  0  0  0  0  0  0  0
   -7.9660   21.3910  -32.2400 C   0  0  0  0  0  0  0  0  0  0  0  0
   -7.3190   20.2600  -32.7650 C   0  0  0  0  0  0  0  0  0  0  0  0
   -5.9040   20.1460  -32.7200 C   0  0  0  0  0  0  0  0  0  0  0  0
   -5.2300   18.9520  -33.2880 C   0  0  0  0  0  0  0  0  0  0  0  0
   -3.9250   19.0470  -33.8050 C   0  0  0  0  0  0  0  0  0  0  0  0
   -3.2870   17.9200  -34.3290 C   0  0  0  0  0  0  0  0  0  0  0  0
   -3.9430   16.6880  -34.3500 C   0  0  0  0  0  0  0  0  0  0  0  0
   -5.2500   16.5750  -33.8550 C   0  0  0  0  0  0  0  0  0  0  0  0
   -5.9460   15.2420  -33.8470 C   0  0  0  0  0  0  0  0  0  0  0  0
   -7.1850   15.3410  -34.4940 O   0  0  0  0  0  0  0  0  0  0  0  0
   -5.8840   17.7050  -33.3130 C   0  0  0  0  0  0  0  0  0  0  0  0
   -5.1420   21.1840  -32.1320 C   0  0  0  0  0  0  0  0  0  0  0  0
   -5.8150   22.2900  -31.6010 C   0  0  0  0  0  0  0  0  0  0  0  0
   -5.2920   23.3930  -31.0180 N   0  0  0  0  0  0  0  0  0  0  0  0
   -3.8970   23.6860  -30.8280 C   0  0  0  0  0  0  0  0  0  0  0  0
   -3.0310   22.7870  -30.9900 O   0  0  0  0  0  0  0  0  0  0  0  0
   -3.4900   24.9670  -30.4800 O   0  0  0  0  0  0  0  0  0  0  0  0
   -4.7260   26.3660  -31.1860 H   0  0  0  0  0  0  0  0  0  0  0  0
   -5.3860   27.4270  -29.8980 H   0  0  0  0  0  0  0  0  0  0  0  0
   -8.5651   23.9930  -31.0065 H   0  0  0  0  0  0  0  0  0  0  0  0
   -9.0613   21.4850  -32.2772 H   0  0  0  0  0  0  0  0  0  0  0  0
   -7.9152   19.4532  -33.2162 H   0  0  0  0  0  0  0  0  0  0  0  0
   -3.4034   20.0154  -33.7966 H   0  0  0  0  0  0  0  0  0  0  0  0
   -2.2646   18.0037  -34.7262 H   0  0  0  0  0  0  0  0  0  0  0  0
   -3.4326   15.8024  -34.7564 H   0  0  0  0  0  0  0  0  0  0  0  0
   -5.3212   14.5024  -34.3690 H   0  0  0  0  0  0  0  0  0  0  0  0
   -6.1082   14.9272  -32.8056 H   0  0  0  0  0  0  0  0  0  0  0  0
   -7.2210   14.6000  -35.1530 H   0  0  0  0  0  0  0  0  0  0  0  0
   -6.9012   17.6151  -32.9041 H   0  0  0  0  0  0  0  0  0  0  0  0
   -4.0444   21.1225  -32.0933 H   0  0  0  0  0  0  0  0  0  0  0  0
  1  2  1  0
  2  3  2  0
  2  4  1  0
  4  5  2  0
  5  6  1  0
  6  7  2  0
  7  8  1  0
  8  9  2  0
  9 10  1  0
 10 11  2  0
 11 12  1  0
 12 13  2  0
 13 14  1  0
 14 15  1  0
 15 16  1  0
 14 17  2  0
  9 18  1  0
 18 19  2  0
 19 20  1  0
 20 21  1  0
 21 22  2  0
 21 23  1  0
 20  4  1  0
 19  6  1  0
 17 10  1  0
  1 24  1  0
  1 25  1  0
  5 26  1  0
  7 27  1  0
  8 28  1  0
 11 29  1  0
 12 30  1  0
 13 31  1  0
 15 32  1  0
 15 33  1  0
 16 34  1  0
 17 35  1  0
 18 36  1  0
M  CHG  1  23  -1
M  END
>  <UniqueID>  (85) 
85

>  <SMILES>  (85) 
NC(=O)c1cc2ccc(-c3cccc(CO)c3)cc2n1C(=O)[O-]

>  <Energy>  (85) 
82.40264309102773

>  <Genealogy>  (85) 
NC(=O)c1cc2ccc(-c3cccc(CO)c3)cc2n1C(=O)[O-] (protonated)
NC(=O)c1cc2ccc(-c3cccc(CO)c3)cc2n1C(=O)[O-] (3D coordinates assigned)
NC(=O)c1cc2ccc(-c3cccc(CO)c3)cc2n1C(=O)[O-] (optimized conformer: 82.40264309102773 kcal/mol)

>  <smiles>  (85) 
NC(=O)c1cc2ccc(-c3cccc(CO)c3)cc2n1C(=O)O

>  <score_type>  (85) 
oracle

>  <origin>  (85) 
adg

>  <m_score__min__energy>  (85) 
-9.4299999999999997

>  <m_primary>  (85) 
energy

$$$$
85:0
     RDKit          3D

 49 51  0  0  0  0  0  0  0  0999 V2000
   -4.3230   15.6320  -33.5930 C   0  0  0  0  0  0  0  0  0  0  0  0
   -4.2180   16.9950  -33.2020 O   0  0  0  0  0  0  0  0  0  0  0  0
   -5.2390   17.9250  -33.4280 C   0  0  0  0  0  0  0  0  0  0  0  0
   -5.2240   18.6390  -34.4710 O   0  0  0  0  0  0  0  0  0  0  0  0
   -6.3870   18.0650  -32.4440 C   0  0  0  0  0  0  0  0  0  0  0  0
   -7.6220   17.3990  -33.0930 C   0  0  0  0  0  0  0  0  0  0  0  0
   -6.0700   17.3200  -31.1300 C   0  0  0  0  0  0  0  0  0  0  0  0
   -6.6020   19.5520  -32.1130 C   0  0  0  0  0  0  0  0  0  0  0  0
   -7.8740   20.1410  -32.3650 C   0  0  0  0  0  0  0  0  0  0  0  0
   -8.1090   21.5040  -32.1250 C   0  0  0  0  0  0  0  0  0  0  0  0
   -7.0590   22.2700  -31.6370 C   0  0  0  0  0  0  0  0  0  0  0  0
   -7.0050   23.6150  -31.3510 C   0  0  0  0  0  0  0  0  0  0  0  0
   -5.7010   23.8480  -30.9210 C   0  0  0  0  0  0  0  0  0  0  0  0
   -5.2270   25.1590  -30.4310 C   0  0  0  0  0  0  0  0  0  0  0  0
   -3.9570   25.6550  -30.8470 N   0  0  0  0  0  0  0  0  0  0  0  0
   -5.9490   25.8650  -29.6790 O   0  0  0  0  0  0  0  0  0  0  0  0
   -4.9760   22.6940  -30.9470 N   0  0  0  0  0  0  0  0  0  0  0  0
   -3.5790   22.5320  -30.6550 C   0  0  0  0  0  0  0  0  0  0  0  0
   -2.7220   23.2220  -31.2740 O   0  0  0  0  0  0  0  0  0  0  0  0
   -3.1750   21.6260  -29.6700 O   0  0  0  0  0  0  0  0  0  0  0  0
   -2.7930   22.0320  -28.3620 C   0  0  0  0  0  0  0  0  0  0  0  0
   -1.8950   23.2210  -28.4590 C   0  0  0  0  0  0  0  0  0  0  0  0
   -2.2960   24.4330  -28.7680 O   0  0  0  0  0  0  0  0  0  0  0  0
   -1.2240   25.1900  -28.7190 C   0  0  0  0  0  0  0  0  0  0  0  0
   -1.2290   26.4240  -28.9620 O   0  0  0  0  0  0  0  0  0  0  0  0
   -0.1450   24.5180  -28.3840 O   0  0  0  0  0  0  0  0  0  0  0  0
   -0.5350   23.2770  -28.2090 C   0  0  0  0  0  0  0  0  0  0  0  0
    0.3640   22.1490  -27.8270 C   0  0  0  0  0  0  0  0  0  0  0  0
   -5.8230   21.7360  -31.3870 C   0  0  0  0  0  0  0  0  0  0  0  0
   -5.5530   20.3860  -31.6360 C   0  0  0  0  0  0  0  0  0  0  0  0
   -4.3720   14.9962  -32.6967 H   0  0  0  0  0  0  0  0  0  0  0  0
   -5.2346   15.4917  -34.1924 H   0  0  0  0  0  0  0  0  0  0  0  0
   -3.4436   15.3537  -34.1924 H   0  0  0  0  0  0  0  0  0  0  0  0
   -8.2981   17.0344  -32.3056 H   0  0  0  0  0  0  0  0  0  0  0  0
   -8.1496   18.1349  -33.7176 H   0  0  0  0  0  0  0  0  0  0  0  0
   -7.2970   16.5538  -33.7176 H   0  0  0  0  0  0  0  0  0  0  0  0
   -6.3404   17.9555  -30.2738 H   0  0  0  0  0  0  0  0  0  0  0  0
   -6.6483   16.3851  -31.0898 H   0  0  0  0  0  0  0  0  0  0  0  0
   -4.9954   17.0884  -31.0898 H   0  0  0  0  0  0  0  0  0  0  0  0
   -8.6894   19.5147  -32.7559 H   0  0  0  0  0  0  0  0  0  0  0  0
   -9.0952   21.9515  -32.3177 H   0  0  0  0  0  0  0  0  0  0  0  0
   -7.8186   24.3497  -31.4425 H   0  0  0  0  0  0  0  0  0  0  0  0
   -3.0730   25.2510  -30.4650 H   0  0  0  0  0  0  0  0  0  0  0  0
   -3.6899   22.2948  -27.7818 H   0  0  0  0  0  0  0  0  0  0  0  0
   -2.2633   21.2091  -27.8598 H   0  0  0  0  0  0  0  0  0  0  0  0
    0.4194   22.0794  -26.7306 H   0  0  0  0  0  0  0  0  0  0  0  0
   -0.0347   21.2082  -28.2344 H   0  0  0  0  0  0  0  0  0  0  0  0
    1.3700   22.3278  -28.2344 H   0  0  0  0  0  0  0  0  0  0  0  0
   -4.5464   19.9764  -31.4658 H   0  0  0  0  0  0  0  0  0  0  0  0
  1  2  1  0
  2  3  1  0
  3  4  2  0
  3  5  1  0
  5  6  1  0
  5  7  1  0
  5  8  1  0
  8  9  2  0
  9 10  1  0
 10 11  2  0
 11 12  1  0
 12 13  2  0
 13 14  1  0
 14 15  1  0
 14 16  2  0
 13 17  1  0
 17 18  1  0
 18 19  2  0
 18 20  1  0
 20 21  1  0
 21 22  1  0
 22 23  1  0
 23 24  1  0
 24 25  2  0
 24 26  1  0
 26 27  1  0
 27 28  1  0
 17 29  1  0
 29 30  2  0
 30  8  1  0
 29 11  1  0
 27 22  2  0
  1 31  1  0
  1 32  1  0
  1 33  1  0
  6 34  1  0
  6 35  1  0
  6 36  1  0
  7 37  1  0
  7 38  1  0
  7 39  1  0
  9 40  1  0
 10 41  1  0
 12 42  1  0
 15 43  1  0
 21 44  1  0
 21 45  1  0
 28 46  1  0
 28 47  1  0
 28 48  1  0
 30 49  1  0
M  CHG  1  15  -1
M  END
>  <UniqueID>  (86) 
86

>  <SMILES>  (86) 
COC(=O)C(C)(C)c1ccc2cc(C([NH-])=O)n(C(=O)OCc3oc(=O)oc3C)c2c1

>  <Energy>  (86) 
118.80222179653835

>  <Genealogy>  (86) 
COC(=O)C(C)(C)c1ccc2cc(C([NH-])=O)n(C(=O)OCc3oc(=O)oc3C)c2c1 (protonated)
COC(=O)C(C)(C)c1ccc2cc(C([NH-])=O)n(C(=O)OCc3oc(=O)oc3C)c2c1 (3D coordinates assigned)
COC(=O)C(C)(C)c1ccc2cc(C([NH-])=O)n(C(=O)OCc3oc(=O)oc3C)c2c1 (optimized conformer: 118.80222179653835 kcal/mol)

>  <smiles>  (86) 
COC(=O)C(C)(C)c1ccc2cc(C(N)=O)n(C(=O)OCc3oc(=O)oc3C)c2c1

>  <score_type>  (86) 
oracle

>  <origin>  (86) 
adg

>  <m_score__min__energy>  (86) 
-11.039999999999999

>  <m_primary>  (86) 
energy

$$$$
86:0
     RDKit          3D

 47 50  0  0  0  0  0  0  0  0999 V2000
   -4.1320   23.2940  -28.2490 C   0  0  0  0  0  0  0  0  0  0  0  0
   -2.6720   23.6170  -28.5950 C   0  0  2  0  0  0  0  0  0  0  0  0
   -2.5570   24.9200  -29.3370 C   0  0  0  0  0  0  0  0  0  0  0  0
   -1.5860   25.6880  -29.1070 O   0  0  0  0  0  0  0  0  0  0  0  0
   -3.4820   25.2680  -30.3140 O   0  0  0  0  0  0  0  0  0  0  0  0
   -2.0350   22.4920  -29.3860 C   0  0  0  0  0  0  0  0  0  0  0  0
   -0.8470   21.8790  -28.9080 C   0  0  0  0  0  0  0  0  0  0  0  0
   -0.2550   20.8170  -29.6090 C   0  0  0  0  0  0  0  0  0  0  0  0
   -0.8590   20.3950  -30.7900 C   0  0  0  0  0  0  0  0  0  0  0  0
   -0.5250   19.3590  -31.6290 C   0  0  0  0  0  0  0  0  0  0  0  0
   -1.4880   19.3750  -32.6330 C   0  0  0  0  0  0  0  0  0  0  0  0
   -1.4900   18.4360  -33.7720 C   0  0  0  0  0  0  0  0  0  0  0  0
   -2.6740   17.7310  -34.1450 N   0  0  0  0  0  0  0  0  0  0  0  0
   -0.4420   18.2890  -34.4560 O   0  0  0  0  0  0  0  0  0  0  0  0
   -2.3890   20.3750  -32.4220 N   0  0  0  0  0  0  0  0  0  0  0  0
   -3.6070   20.6090  -33.1490 C   0  0  0  0  0  0  0  0  0  0  0  0
   -3.7350   21.6410  -33.8620 O   0  0  0  0  0  0  0  0  0  0  0  0
   -4.6550   19.6940  -33.0450 O   0  0  0  0  0  0  0  0  0  0  0  0
   -5.8600   19.8020  -33.7910 C   0  0  0  0  0  0  0  0  0  0  0  0
   -7.0270   19.6170  -32.8760 C   0  0  0  0  0  0  0  0  0  0  0  0
   -7.7490   18.5220  -32.8300 O   0  0  0  0  0  0  0  0  0  0  0  0
   -8.6480   18.7190  -31.8970 C   0  0  0  0  0  0  0  0  0  0  0  0
   -9.5170   17.8700  -31.5750 O   0  0  0  0  0  0  0  0  0  0  0  0
   -8.5410   19.9000  -31.3340 O   0  0  0  0  0  0  0  0  0  0  0  0
   -7.5370   20.5010  -31.9290 C   0  0  0  0  0  0  0  0  0  0  0  0
   -7.0810   21.8570  -31.5760 C   0  0  0  0  0  0  0  0  0  0  0  0
   -6.2710   22.7060  -32.3250 C   0  0  0  0  0  0  0  0  0  0  0  0
   -6.0310   23.9360  -31.7000 C   0  0  0  0  0  0  0  0  0  0  0  0
   -6.6610   24.0710  -30.4710 C   0  0  0  0  0  0  0  0  0  0  0  0
   -7.5150   22.6570  -30.1630 S   0  0  0  0  0  0  0  0  0  0  0  0
   -1.9920   20.9910  -31.2840 C   0  0  0  0  0  0  0  0  0  0  0  0
   -2.6170   22.0350  -30.5930 C   0  0  0  0  0  0  0  0  0  0  0  0
   -4.2525   23.2673  -27.1559 H   0  0  0  0  0  0  0  0  0  0  0  0
   -4.7889   24.0685  -28.6715 H   0  0  0  0  0  0  0  0  0  0  0  0
   -4.4009   22.3146  -28.6715 H   0  0  0  0  0  0  0  0  0  0  0  0
   -2.1258   23.7207  -27.6458 H   0  0  0  0  0  0  0  0  0  0  0  0
   -0.3852   22.2406  -27.9774 H   0  0  0  0  0  0  0  0  0  0  0  0
    0.6594   20.3324  -29.2361 H   0  0  0  0  0  0  0  0  0  0  0  0
    0.3227   18.6653  -31.5282 H   0  0  0  0  0  0  0  0  0  0  0  0
   -2.6490   17.0390  -34.9280 H   0  0  0  0  0  0  0  0  0  0  0  0
   -3.5910   17.9430  -33.6950 H   0  0  0  0  0  0  0  0  0  0  0  0
   -5.9143   20.7960  -34.2591 H   0  0  0  0  0  0  0  0  0  0  0  0
   -5.8793   19.0286  -34.5730 H   0  0  0  0  0  0  0  0  0  0  0  0
   -5.8604   22.4375  -33.3096 H   0  0  0  0  0  0  0  0  0  0  0  0
   -5.4015   24.7222  -32.1423 H   0  0  0  0  0  0  0  0  0  0  0  0
   -6.6102   24.9508  -29.8127 H   0  0  0  0  0  0  0  0  0  0  0  0
   -3.5406   22.4908  -30.9793 H   0  0  0  0  0  0  0  0  0  0  0  0
  1  2  1  0
  2  3  1  0
  3  4  2  0
  3  5  1  0
  2  6  1  0
  6  7  2  0
  7  8  1  0
  8  9  2  0
  9 10  1  0
 10 11  2  0
 11 12  1  0
 12 13  1  0
 12 14  2  0
 11 15  1  0
 15 16  1  0
 16 17  2  0
 16 18  1  0
 18 19  1  0
 19 20  1  0
 20 21  1  0
 21 22  1  0
 22 23  2  0
 22 24  1  0
 24 25  1  0
 25 26  1  0
 26 27  2  0
 27 28  1  0
 28 29  2  0
 29 30  1  0
 15 31  1  0
 31 32  2  0
 32  6  1  0
 31  9  1  0
 25 20  2  0
 30 26  1  0
  1 33  1  0
  1 34  1  0
  1 35  1  0
  2 36  1  1
  7 37  1  0
  8 38  1  0
 10 39  1  0
 13 40  1  0
 13 41  1  0
 19 42  1  0
 19 43  1  0
 27 44  1  0
 28 45  1  0
 29 46  1  0
 32 47  1  0
M  CHG  1   5  -1
M  END
>  <UniqueID>  (87) 
87

>  <SMILES>  (87) 
C[C@H](C(=O)[O-])c1ccc2cc(C(N)=O)n(C(=O)OCc3oc(=O)oc3-c3cccs3)c2c1

>  <Energy>  (87) 
145.652980159523

>  <Genealogy>  (87) 
CC(C(=O)[O-])c1ccc2cc(C(N)=O)n(C(=O)OCc3oc(=O)oc3-c3cccs3)c2c1 (protonated)
C[C@H](C(=O)[O-])c1ccc2cc(C(N)=O)n(C(=O)OCc3oc(=O)oc3-c3cccs3)c2c1 (chirality)
C[C@H](C(=O)[O-])c1ccc2cc(C(N)=O)n(C(=O)OCc3oc(=O)oc3-c3cccs3)c2c1 (3D coordinates assigned)
C[C@H](C(=O)[O-])c1ccc2cc(C(N)=O)n(C(=O)OCc3oc(=O)oc3-c3cccs3)c2c1 (optimized conformer: 145.652980159523 kcal/mol)

>  <smiles>  (87) 
CC(C(=O)O)c1ccc2cc(C(N)=O)n(C(=O)OCc3oc(=O)oc3-c3cccs3)c2c1

>  <score_type>  (87) 
oracle

>  <origin>  (87) 
adg

>  <m_score__min__energy>  (87) 
-11.550000000000001

>  <m_primary>  (87) 
energy

$$$$
87:0
     RDKit          3D

 48 50  0  0  0  0  0  0  0  0999 V2000
   -4.4250   17.4140  -34.9390 C   0  0  0  0  0  0  0  0  0  0  0  0
   -5.7400   18.1640  -34.7280 C   0  0  0  0  0  0  0  0  0  0  0  0
   -6.2290   18.2490  -33.2620 C   0  0  0  0  0  0  0  0  0  0  0  0
   -6.5700   19.6170  -32.7320 C   0  0  0  0  0  0  0  0  0  0  0  0
   -7.9250   19.9860  -32.5510 C   0  0  0  0  0  0  0  0  0  0  0  0
   -8.2600   21.2370  -32.0080 C   0  0  0  0  0  0  0  0  0  0  0  0
   -7.2210   22.0910  -31.6500 C   0  0  0  0  0  0  0  0  0  0  0  0
   -7.2620   23.3410  -31.0760 C   0  0  0  0  0  0  0  0  0  0  0  0
   -5.9300   23.7190  -30.9160 C   0  0  0  0  0  0  0  0  0  0  0  0
   -5.5010   25.0410  -30.4100 C   0  0  0  0  0  0  0  0  0  0  0  0
   -4.1690   25.5090  -30.6290 N   0  0  0  0  0  0  0  0  0  0  0  0
   -6.3010   25.7550  -29.7490 O   0  0  0  0  0  0  0  0  0  0  0  0
   -5.0980   22.7400  -31.3720 N   0  0  0  0  0  0  0  0  0  0  0  0
   -3.6620   22.7170  -31.3120 C   0  0  0  0  0  0  0  0  0  0  0  0
   -3.0050   22.2260  -32.2680 O   0  0  0  0  0  0  0  0  0  0  0  0
   -3.0120   23.2330  -30.1800 O   0  0  0  0  0  0  0  0  0  0  0  0
   -2.9440   22.6210  -28.8850 C   0  0  0  0  0  0  0  0  0  0  0  0
   -2.8910   21.0860  -29.0110 C   0  0  0  0  0  0  0  0  0  0  0  0
   -4.1410   23.0540  -28.0170 C   0  0  0  0  0  0  0  0  0  0  0  0
   -1.6480   23.1090  -28.2210 C   0  0  0  0  0  0  0  0  0  0  0  0
   -5.9030   21.7490  -31.8180 C   0  0  0  0  0  0  0  0  0  0  0  0
   -5.5410   20.5020  -32.3380 C   0  0  0  0  0  0  0  0  0  0  0  0
   -5.8600   17.1870  -32.2180 C   0  0  0  0  0  0  0  0  0  0  0  0
   -7.2330   17.1640  -32.8680 C   0  0  0  0  0  0  0  0  0  0  0  0
   -3.9852   17.1632  -33.9625 H   0  0  0  0  0  0  0  0  0  0  0  0
   -4.6167   16.4894  -35.5032 H   0  0  0  0  0  0  0  0  0  0  0  0
   -3.7268   18.0497  -35.5032 H   0  0  0  0  0  0  0  0  0  0  0  0
   -5.6090   19.1902  -35.1019 H   0  0  0  0  0  0  0  0  0  0  0  0
   -6.5061   17.5900  -35.2698 H   0  0  0  0  0  0  0  0  0  0  0  0
   -8.7231   19.2858  -32.8386 H   0  0  0  0  0  0  0  0  0  0  0  0
   -9.3105   21.5326  -31.8700 H   0  0  0  0  0  0  0  0  0  0  0  0
   -8.1565   23.9194  -30.8016 H   0  0  0  0  0  0  0  0  0  0  0  0
   -3.8650   26.4260  -30.2340 H   0  0  0  0  0  0  0  0  0  0  0  0
   -3.4940   24.9700  -31.2150 H   0  0  0  0  0  0  0  0  0  0  0  0
   -2.8755   20.6360  -28.0074 H   0  0  0  0  0  0  0  0  0  0  0  0
   -3.7775   20.7322  -29.5578 H   0  0  0  0  0  0  0  0  0  0  0  0
   -1.9822   20.7941  -29.5578 H   0  0  0  0  0  0  0  0  0  0  0  0
   -3.8764   22.9583  -26.9536 H   0  0  0  0  0  0  0  0  0  0  0  0
   -4.3951   24.1010  -28.2388 H   0  0  0  0  0  0  0  0  0  0  0  0
   -5.0061   22.4118  -28.2388 H   0  0  0  0  0  0  0  0  0  0  0  0
   -1.7582   23.0675  -27.1273 H   0  0  0  0  0  0  0  0  0  0  0  0
   -0.8123   22.4640  -28.5300 H   0  0  0  0  0  0  0  0  0  0  0  0
   -1.4453   24.1450  -28.5300 H   0  0  0  0  0  0  0  0  0  0  0  0
   -4.4831   20.2176  -32.4377 H   0  0  0  0  0  0  0  0  0  0  0  0
   -5.1228   16.4082  -32.4630 H   0  0  0  0  0  0  0  0  0  0  0  0
   -5.4910   17.2111  -31.1820 H   0  0  0  0  0  0  0  0  0  0  0  0
   -7.4888   16.3675  -33.5822 H   0  0  0  0  0  0  0  0  0  0  0  0
   -8.2677   17.1638  -32.4946 H   0  0  0  0  0  0  0  0  0  0  0  0
  1  2  1  0
  2  3  1  0
  3  4  1  0
  4  5  2  0
  5  6  1  0
  6  7  2  0
  7  8  1  0
  8  9  2  0
  9 10  1  0
 10 11  1  0
 10 12  2  0
  9 13  1  0
 13 14  1  0
 14 15  2  0
 14 16  1  0
 16 17  1  0
 17 18  1  0
 17 19  1  0
 17 20  1  0
 13 21  1  0
 21 22  2  0
  3 23  1  0
 23 24  1  0
 24  3  1  0
 22  4  1  0
 21  7  1  0
  1 25  1  0
  1 26  1  0
  1 27  1  0
  2 28  1  0
  2 29  1  0
  5 30  1  0
  6 31  1  0
  8 32  1  0
 11 33  1  0
 11 34  1  0
 18 35  1  0
 18 36  1  0
 18 37  1  0
 19 38  1  0
 19 39  1  0
 19 40  1  0
 20 41  1  0
 20 42  1  0
 20 43  1  0
 22 44  1  0
 23 45  1  0
 23 46  1  0
 24 47  1  0
 24 48  1  0
M  END
>  <UniqueID>  (88) 
88

>  <SMILES>  (88) 
CCC1(c2ccc3cc(C(N)=O)n(C(=O)OC(C)(C)C)c3c2)CC1

>  <Energy>  (88) 
348.7508518652996

>  <Genealogy>  (88) 
CCC1(c2ccc3cc(C(N)=O)n(C(=O)OC(C)(C)C)c3c2)CC1 (3D coordinates assigned)
CCC1(c2ccc3cc(C(N)=O)n(C(=O)OC(C)(C)C)c3c2)CC1 (nonaromatic ring conformer: 348.7508518652996 kcal/mol)

>  <smiles>  (88) 
CCC1(c2ccc3cc(C(N)=O)n(C(=O)OC(C)(C)C)c3c2)CC1

>  <score_type>  (88) 
oracle

>  <origin>  (88) 
adg

>  <m_score__min__energy>  (88) 
-9.3699999999999992

>  <m_primary>  (88) 
energy

$$$$
88:0
     RDKit          3D

 48 50  0  0  0  0  0  0  0  0999 V2000
   -6.2820   24.8960  -29.7230 C   0  0  0  0  0  0  0  0  0  0  0  0
   -5.1870   23.8620  -29.4600 C   0  0  0  0  0  0  0  0  0  0  0  0
   -3.9120   24.2060  -30.1790 C   0  0  0  0  0  0  0  0  0  0  0  0
   -3.8360   25.2990  -30.8010 O   0  0  0  0  0  0  0  0  0  0  0  0
   -2.8390   23.2490  -30.2660 N   0  0  0  0  0  0  0  0  0  0  0  0
   -1.5610   23.3670  -29.7950 C   0  0  0  0  0  0  0  0  0  0  0  0
   -0.9890   24.5080  -29.0340 C   0  0  0  0  0  0  0  0  0  0  0  0
   -1.6730   25.7560  -28.9410 N   0  0  0  0  0  0  0  0  0  0  0  0
    0.1240   24.3710  -28.4470 O   0  0  0  0  0  0  0  0  0  0  0  0
   -0.7900   22.2850  -30.2140 C   0  0  0  0  0  0  0  0  0  0  0  0
   -1.6320   21.5020  -30.9690 C   0  0  0  0  0  0  0  0  0  0  0  0
   -1.3710   20.3310  -31.6690 C   0  0  0  0  0  0  0  0  0  0  0  0
   -2.4170   19.7590  -32.4100 C   0  0  0  0  0  0  0  0  0  0  0  0
   -3.7060   20.3510  -32.4320 C   0  0  0  0  0  0  0  0  0  0  0  0
   -4.7730   19.7610  -33.2160 N   0  0  0  0  0  0  0  0  0  0  0  0
   -6.1620   20.2450  -33.1020 C   0  0  0  0  0  0  0  0  0  0  0  0
   -7.1090   19.0670  -32.8070 C   0  0  0  0  0  0  0  0  0  0  0  0
   -6.7980   17.7860  -33.6440 C   0  0  0  0  0  0  0  0  0  0  0  0
   -6.3760   16.6820  -32.7480 N   0  0  0  0  0  0  0  0  0  0  0  0
   -6.1070   17.1110  -31.3670 C   0  0  0  0  0  0  0  0  0  0  0  0
   -5.7650   18.0840  -34.7680 C   0  0  0  0  0  0  0  0  0  0  0  0
   -4.4760   18.7010  -34.2000 C   0  0  0  0  0  0  0  0  0  0  0  0
   -3.9350   21.5260  -31.6730 C   0  0  0  0  0  0  0  0  0  0  0  0
   -2.8620   22.1000  -30.9800 C   0  0  0  0  0  0  0  0  0  0  0  0
   -6.6743   25.2665  -28.7644 H   0  0  0  0  0  0  0  0  0  0  0  0
   -5.8631   25.7358  -30.2969 H   0  0  0  0  0  0  0  0  0  0  0  0
   -7.0964   24.4297  -30.2969 H   0  0  0  0  0  0  0  0  0  0  0  0
   -4.9869   23.8220  -28.3791 H   0  0  0  0  0  0  0  0  0  0  0  0
   -5.5385   22.8885  -29.8325 H   0  0  0  0  0  0  0  0  0  0  0  0
   -2.7160   25.7970  -29.0050 H   0  0  0  0  0  0  0  0  0  0  0  0
    0.2700   22.0963  -29.9884 H   0  0  0  0  0  0  0  0  0  0  0  0
   -0.3745   19.8658  -31.6434 H   0  0  0  0  0  0  0  0  0  0  0  0
   -2.2344   18.8376  -32.9824 H   0  0  0  0  0  0  0  0  0  0  0  0
   -6.2263   20.9775  -32.2839 H   0  0  0  0  0  0  0  0  0  0  0  0
   -6.4583   20.7171  -34.0503 H   0  0  0  0  0  0  0  0  0  0  0  0
   -7.0255   18.8132  -31.7399 H   0  0  0  0  0  0  0  0  0  0  0  0
   -8.1227   19.3929  -33.0831 H   0  0  0  0  0  0  0  0  0  0  0  0
   -7.7154   17.4585  -34.1550 H   0  0  0  0  0  0  0  0  0  0  0  0
   -5.4830   16.2750  -33.1190 H   0  0  0  0  0  0  0  0  0  0  0  0
   -7.0990   15.9210  -32.7390 H   0  0  0  0  0  0  0  0  0  0  0  0
   -6.5572   16.3930  -30.6657 H   0  0  0  0  0  0  0  0  0  0  0  0
   -5.0204   17.1533  -31.2013 H   0  0  0  0  0  0  0  0  0  0  0  0
   -6.5422   18.1075  -31.2013 H   0  0  0  0  0  0  0  0  0  0  0  0
   -5.5150   17.1441  -35.2820 H   0  0  0  0  0  0  0  0  0  0  0  0
   -6.2139   18.8052  -35.4668 H   0  0  0  0  0  0  0  0  0  0  0  0
   -3.8879   17.9117  -33.7090 H   0  0  0  0  0  0  0  0  0  0  0  0
   -3.9118   19.1491  -35.0312 H   0  0  0  0  0  0  0  0  0  0  0  0
   -4.9367   21.9784  -31.6292 H   0  0  0  0  0  0  0  0  0  0  0  0
  1  2  1  0
  2  3  1  0
  3  4  2  0
  3  5  1  0
  5  6  1  0
  6  7  1  0
  7  8  1  0
  7  9  2  0
  6 10  2  0
 10 11  1  0
 11 12  2  0
 12 13  1  0
 13 14  2  0
 14 15  1  0
 15 16  1  0
 16 17  1  0
 17 18  1  0
 18 19  1  0
 19 20  1  0
 18 21  1  0
 21 22  1  0
 14 23  1  0
 23 24  2  0
 24  5  1  0
 24 11  1  0
 22 15  1  0
  1 25  1  0
  1 26  1  0
  1 27  1  0
  2 28  1  0
  2 29  1  0
  8 30  1  0
 10 31  1  0
 12 32  1  0
 13 33  1  0
 16 34  1  0
 16 35  1  0
 17 36  1  0
 17 37  1  0
 18 38  1  0
 19 39  1  0
 19 40  1  0
 20 41  1  0
 20 42  1  0
 20 43  1  0
 21 44  1  0
 21 45  1  0
 22 46  1  0
 22 47  1  0
 23 48  1  0
M  CHG  2   8  -1  19   1
M  END
>  <UniqueID>  (89) 
89

>  <SMILES>  (89) 
CCC(=O)n1c(C([NH-])=O)cc2ccc(N3CCC([NH2+]C)CC3)cc21

>  <Energy>  (89) 
96.29337041932037

>  <Genealogy>  (89) 
CCC(=O)n1c(C([NH-])=O)cc2ccc(N3CCC([NH2+]C)CC3)cc21 (protonated)
CCC(=O)n1c(C([NH-])=O)cc2ccc(N3CCC([NH2+]C)CC3)cc21 (3D coordinates assigned)
CCC(=O)n1c(C([NH-])=O)cc2ccc(N3CCC([NH2+]C)CC3)cc21 (nonaromatic ring conformer: 96.29337041932037 kcal/mol)

>  <smiles>  (89) 
CCC(=O)n1c(C(N)=O)cc2ccc(N3CCC(NC)CC3)cc21

>  <score_type>  (89) 
oracle

>  <origin>  (89) 
adg

>  <m_score__min__energy>  (89) 
-10.43

>  <m_primary>  (89) 
energy

$$$$
89:0
     RDKit          3D

 67 70  0  0  0  0  0  0  0  0999 V2000
   -5.0240   24.7700  -29.0820 N   0  0  0  0  0  0  0  0  0  0  0  0
   -6.2480   24.5030  -29.7670 C   0  0  0  0  0  0  0  0  0  0  0  0
   -7.1280   25.4000  -29.8370 O   0  0  0  0  0  0  0  0  0  0  0  0
   -6.4710   23.2100  -30.4420 C   0  0  0  0  0  0  0  0  0  0  0  0
   -7.7350   22.7100  -30.7400 C   0  0  0  0  0  0  0  0  0  0  0  0
   -7.5070   21.5570  -31.4550 C   0  0  0  0  0  0  0  0  0  0  0  0
   -8.4130   20.6630  -32.0180 C   0  0  0  0  0  0  0  0  0  0  0  0
   -7.8990   19.5510  -32.7060 C   0  0  0  0  0  0  0  0  0  0  0  0
   -6.5010   19.3430  -32.8050 C   0  0  0  0  0  0  0  0  0  0  0  0
   -5.9880   18.2200  -33.5490 N   0  0  0  0  0  0  0  0  0  0  0  0
   -5.7400   16.9240  -32.9150 C   0  0  0  0  0  0  0  0  0  0  0  0
   -4.2320   16.6040  -32.9490 C   0  0  0  0  0  0  0  0  0  0  0  0
   -3.5040   17.2120  -34.1050 N   0  0  0  0  0  0  0  0  0  0  0  0
   -2.6440   18.3660  -33.6940 C   0  0  2  0  0  0  0  0  0  0  0  0
   -3.1410   19.7470  -34.2070 C   0  0  0  0  0  0  0  0  0  0  0  0
   -2.2150   20.8840  -33.7550 C   0  0  0  0  0  0  0  0  0  0  0  0
   -0.8050   20.6250  -34.1820 C   0  0  0  0  0  0  0  0  0  0  0  0
    0.0030   21.5810  -34.3090 O   0  0  0  0  0  0  0  0  0  0  0  0
   -0.3550   19.2890  -34.3940 N   0  0  0  0  0  0  0  0  0  0  0  0
   -1.2270   18.1690  -34.2180 C   0  0  0  0  0  0  0  0  0  0  0  0
   -0.7890   17.0190  -34.4870 O   0  0  0  0  0  0  0  0  0  0  0  0
   -4.4050   17.4230  -35.2660 C   0  0  0  0  0  0  0  0  0  0  0  0
   -5.5550   18.3930  -34.9360 C   0  0  0  0  0  0  0  0  0  0  0  0
   -5.6150   20.2710  -32.2140 C   0  0  0  0  0  0  0  0  0  0  0  0
   -6.1500   21.3830  -31.5540 C   0  0  0  0  0  0  0  0  0  0  0  0
   -5.4970   22.3910  -30.9300 N   0  0  0  0  0  0  0  0  0  0  0  0
   -4.0770   22.5110  -30.7250 C   0  0  0  0  0  0  0  0  0  0  0  0
   -3.4750   23.5590  -31.0870 O   0  0  0  0  0  0  0  0  0  0  0  0
   -3.3700   21.4770  -30.1010 O   0  0  0  0  0  0  0  0  0  0  0  0
   -2.4460   20.6310  -30.7810 C   0  0  0  0  0  0  0  0  0  0  0  0
   -1.3440   20.1450  -29.8330 C   0  0  0  0  0  0  0  0  0  0  0  0
   -0.7170   21.2680  -28.9830 C   0  0  0  0  0  0  0  0  0  0  0  0
   -1.0780   21.2270  -27.4870 C   0  0  0  0  0  0  0  0  0  0  0  0
   -1.9800   22.3860  -27.0590 C   0  0  0  0  0  0  0  0  0  0  0  0
   -2.3310   23.1590  -28.2000 O   0  0  0  0  0  0  0  0  0  0  0  0
   -2.7190   24.4790  -28.0940 N   0  0  0  0  0  0  0  0  0  0  0  0
   -2.3570   25.2970  -28.9630 O   0  0  0  0  0  0  0  0  0  0  0  0
   -3.5090   24.9010  -27.0490 O   0  0  0  0  0  0  0  0  0  0  0  0
   -4.2340   24.0900  -29.1060 H   0  0  0  0  0  0  0  0  0  0  0  0
   -4.8970   25.6700  -28.5680 H   0  0  0  0  0  0  0  0  0  0  0  0
   -8.7074   23.1435  -30.4633 H   0  0  0  0  0  0  0  0  0  0  0  0
   -9.4976   20.8221  -31.9272 H   0  0  0  0  0  0  0  0  0  0  0  0
   -8.5898   18.8337  -33.1731 H   0  0  0  0  0  0  0  0  0  0  0  0
   -6.0824   16.9574  -31.8702 H   0  0  0  0  0  0  0  0  0  0  0  0
   -6.2888   16.1425  -33.4609 H   0  0  0  0  0  0  0  0  0  0  0  0
   -3.7784   16.9788  -32.0196 H   0  0  0  0  0  0  0  0  0  0  0  0
   -4.1420   15.5130  -33.0563 H   0  0  0  0  0  0  0  0  0  0  0  0
   -2.6855   18.3800  -32.5949 H   0  0  0  0  0  0  0  0  0  0  0  0
   -3.1736   19.7288  -35.3064 H   0  0  0  0  0  0  0  0  0  0  0  0
   -4.1411   19.9303  -33.7874 H   0  0  0  0  0  0  0  0  0  0  0  0
   -2.5592   21.8282  -34.2022 H   0  0  0  0  0  0  0  0  0  0  0  0
   -2.2442   20.9460  -32.6571 H   0  0  0  0  0  0  0  0  0  0  0  0
   -3.8189   17.8377  -36.0994 H   0  0  0  0  0  0  0  0  0  0  0  0
   -4.8465   16.4518  -35.5340 H   0  0  0  0  0  0  0  0  0  0  0  0
   -5.2094   19.4272  -35.0812 H   0  0  0  0  0  0  0  0  0  0  0  0
   -6.4032   18.1799  -35.6032 H   0  0  0  0  0  0  0  0  0  0  0  0
   -4.5266   20.1226  -32.2714 H   0  0  0  0  0  0  0  0  0  0  0  0
   -2.9845   19.7600  -31.1827 H   0  0  0  0  0  0  0  0  0  0  0  0
   -1.9793   21.2053  -31.5948 H   0  0  0  0  0  0  0  0  0  0  0  0
   -1.7761   19.3955  -29.1536 H   0  0  0  0  0  0  0  0  0  0  0  0
   -0.5409   19.7303  -30.4599 H   0  0  0  0  0  0  0  0  0  0  0  0
    0.3769   21.1943  -29.0727 H   0  0  0  0  0  0  0  0  0  0  0  0
   -1.1231   22.2132  -29.3726 H   0  0  0  0  0  0  0  0  0  0  0  0
   -1.5992   20.2812  -27.2777 H   0  0  0  0  0  0  0  0  0  0  0  0
   -0.1398   21.3125  -26.9191 H   0  0  0  0  0  0  0  0  0  0  0  0
   -2.8923   21.9874  -26.5912 H   0  0  0  0  0  0  0  0  0  0  0  0
   -1.4450   23.0200  -26.3367 H   0  0  0  0  0  0  0  0  0  0  0  0
  1  2  1  0
  2  3  2  0
  2  4  1  0
  4  5  2  0
  5  6  1  0
  6  7  2  0
  7  8  1  0
  8  9  2  0
  9 10  1  0
 10 11  1  0
 11 12  1  0
 12 13  1  0
 13 14  1  0
 14 15  1  0
 15 16  1  0
 16 17  1  0
 17 18  2  0
 17 19  1  0
 19 20  1  0
 20 21  2  0
 13 22  1  0
 22 23  1  0
  9 24  1  0
 24 25  2  0
 25 26  1  0
 26 27  1  0
 27 28  2  0
 27 29  1  0
 29 30  1  0
 30 31  1  0
 31 32  1  0
 32 33  1  0
 33 34  1  0
 34 35  1  0
 35 36  1  0
 36 37  2  0
 36 38  1  0
 26  4  1  0
 25  6  1  0
 23 10  1  0
 20 14  1  0
  1 39  1  0
  1 40  1  0
  5 41  1  0
  7 42  1  0
  8 43  1  0
 11 44  1  0
 11 45  1  0
 12 46  1  0
 12 47  1  0
 14 48  1  1
 15 49  1  0
 15 50  1  0
 16 51  1  0
 16 52  1  0
 22 53  1  0
 22 54  1  0
 23 55  1  0
 23 56  1  0
 24 57  1  0
 30 58  1  0
 30 59  1  0
 31 60  1  0
 31 61  1  0
 32 62  1  0
 32 63  1  0
 33 64  1  0
 33 65  1  0
 34 66  1  0
 34 67  1  0
M  CHG  3  19  -1  36   1  38  -1
M  END
>  <UniqueID>  (90) 
90

>  <SMILES>  (90) 
NC(=O)c1cc2ccc(N3CCN([C@@H]4CCC(=O)[N-]C4=O)CC3)cc2n1C(=O)OCCCCCO[N+](=O)[O-]

>  <Energy>  (90) 
113.55521885794839

>  <Genealogy>  (90) 
NC(=O)c1cc2ccc(N3CCN(C4CCC(=O)[N-]C4=O)CC3)cc2n1C(=O)OCCCCCO[N+](=O)[O-] (protonated)
NC(=O)c1cc2ccc(N3CCN([C@@H]4CCC(=O)[N-]C4=O)CC3)cc2n1C(=O)OCCCCCO[N+](=O)[O-] (chirality)
NC(=O)c1cc2ccc(N3CCN([C@@H]4CCC(=O)[N-]C4=O)CC3)cc2n1C(=O)OCCCCCO[N+](=O)[O-] (3D coordinates assigned)
NC(=O)c1cc2ccc(N3CCN([C@@H]4CCC(=O)[N-]C4=O)CC3)cc2n1C(=O)OCCCCCO[N+](=O)[O-] (nonaromatic ring conformer: 113.55521885794839 kcal/mol)

>  <smiles>  (90) 
NC(=O)c1cc2ccc(N3CCN(C4CCC(=O)NC4=O)CC3)cc2n1C(=O)OCCCCCO[N+](=O)[O-]

>  <score_type>  (90) 
oracle

>  <origin>  (90) 
adg

>  <m_score__min__energy>  (90) 
-10.85

>  <m_primary>  (90) 
energy

$$$$
90:0
     RDKit          3D

 39 41  0  0  0  0  0  0  0  0999 V2000
   -9.5430   21.5920  -31.7180 C   0  0  0  0  0  0  0  0  0  0  0  0
   -8.6680   20.4160  -31.5890 N   0  0  1  0  0  0  0  0  0  0  0  0
   -8.8840   19.4370  -32.6650 C   0  0  0  0  0  0  0  0  0  0  0  0
   -7.5420   18.7620  -32.9440 C   0  0  0  0  0  0  0  0  0  0  0  0
   -6.5200   19.5060  -32.0890 C   0  0  1  0  0  0  0  0  0  0  0  0
   -5.2880   19.8000  -32.8370 N   0  0  0  0  0  0  0  0  0  0  0  0
   -4.1000   20.3620  -32.2450 C   0  0  0  0  0  0  0  0  0  0  0  0
   -2.8460   19.6940  -32.3000 C   0  0  0  0  0  0  0  0  0  0  0  0
   -1.7000   20.2670  -31.7240 C   0  0  0  0  0  0  0  0  0  0  0  0
   -1.8330   21.4980  -31.0920 C   0  0  0  0  0  0  0  0  0  0  0  0
   -0.8840   22.2840  -30.4780 C   0  0  0  0  0  0  0  0  0  0  0  0
   -1.5720   23.4080  -30.0280 C   0  0  0  0  0  0  0  0  0  0  0  0
   -0.9410   24.4780  -29.2280 C   0  0  0  0  0  0  0  0  0  0  0  0
   -1.6360   25.6910  -28.9480 N   0  0  0  0  0  0  0  0  0  0  0  0
    0.2080   24.2990  -28.7420 O   0  0  0  0  0  0  0  0  0  0  0  0
   -2.8920   23.3260  -30.3580 N   0  0  0  0  0  0  0  0  0  0  0  0
   -3.9100   24.3210  -30.1590 C   0  0  0  0  0  0  0  0  0  0  0  0
   -4.8810   24.0930  -29.3910 O   0  0  0  0  0  0  0  0  0  0  0  0
   -3.8470   25.5330  -30.8350 O   0  0  0  0  0  0  0  0  0  0  0  0
   -3.0350   22.1480  -31.0070 C   0  0  0  0  0  0  0  0  0  0  0  0
   -4.1890   21.6100  -31.5870 C   0  0  0  0  0  0  0  0  0  0  0  0
   -7.2490   20.7740  -31.6580 C   0  0  0  0  0  0  0  0  0  0  0  0
   -9.8153   21.9580  -30.7170 H   0  0  0  0  0  0  0  0  0  0  0  0
   -9.0133   22.3847  -32.2667 H   0  0  0  0  0  0  0  0  0  0  0  0
  -10.4545   21.3124  -32.2667 H   0  0  0  0  0  0  0  0  0  0  0  0
   -8.8570   19.9560  -30.6650 H   0  0  0  0  0  0  0  0  0  0  0  0
   -9.6236   18.6869  -32.3481 H   0  0  0  0  0  0  0  0  0  0  0  0
   -9.2655   19.9322  -33.5701 H   0  0  0  0  0  0  0  0  0  0  0  0
   -7.5801   17.7002  -32.6591 H   0  0  0  0  0  0  0  0  0  0  0  0
   -7.2825   18.8003  -34.0123 H   0  0  0  0  0  0  0  0  0  0  0  0
   -6.1805   18.9107  -31.2286 H   0  0  0  0  0  0  0  0  0  0  0  0
   -5.2640   19.6010  -33.8630 H   0  0  0  0  0  0  0  0  0  0  0  0
   -2.7724   18.7168  -32.7996 H   0  0  0  0  0  0  0  0  0  0  0  0
   -0.7266   19.7569  -31.7716 H   0  0  0  0  0  0  0  0  0  0  0  0
    0.1892   22.0698  -30.3666 H   0  0  0  0  0  0  0  0  0  0  0  0
   -2.6710   25.7560  -29.0640 H   0  0  0  0  0  0  0  0  0  0  0  0
   -5.1470   22.1477  -31.5321 H   0  0  0  0  0  0  0  0  0  0  0  0
   -6.8896   21.1062  -30.6729 H   0  0  0  0  0  0  0  0  0  0  0  0
   -7.0742   21.6004  -32.3627 H   0  0  0  0  0  0  0  0  0  0  0  0
  1  2  1  0
  2  3  1  0
  3  4  1  0
  4  5  1  0
  5  6  1  0
  6  7  1  0
  7  8  2  0
  8  9  1  0
  9 10  2  0
 10 11  1  0
 11 12  2  0
 12 13  1  0
 13 14  1  0
 13 15  2  0
 12 16  1  0
 16 17  1  0
 17 18  2  0
 17 19  1  0
 16 20  1  0
 20 21  2  0
  5 22  1  0
 22  2  1  0
 21  7  1  0
 20 10  1  0
  1 23  1  0
  1 24  1  0
  1 25  1  0
  2 26  1  1
  3 27  1  0
  3 28  1  0
  4 29  1  0
  4 30  1  0
  5 31  1  1
  6 32  1  0
  8 33  1  0
  9 34  1  0
 11 35  1  0
 14 36  1  0
 21 37  1  0
 22 38  1  0
 22 39  1  0
M  CHG  3   2   1  14  -1  19  -1
M  END
>  <UniqueID>  (91) 
91

>  <SMILES>  (91) 
C[N@H+]1CC[C@@H](Nc2ccc3cc(C([NH-])=O)n(C(=O)[O-])c3c2)C1

>  <Energy>  (91) 
83.64722050652965

>  <Genealogy>  (91) 
C[NH+]1CCC(Nc2ccc3cc(C([NH-])=O)n(C(=O)[O-])c3c2)C1 (protonated)
C[N@H+]1CC[C@@H](Nc2ccc3cc(C([NH-])=O)n(C(=O)[O-])c3c2)C1 (chirality)
C[N@H+]1CC[C@@H](Nc2ccc3cc(C([NH-])=O)n(C(=O)[O-])c3c2)C1 (3D coordinates assigned)
C[N@H+]1CC[C@@H](Nc2ccc3cc(C([NH-])=O)n(C(=O)[O-])c3c2)C1 (nonaromatic ring conformer: 83.64722050652965 kcal/mol)

>  <smiles>  (91) 
CN1CCC(Nc2ccc3cc(C(N)=O)n(C(=O)O)c3c2)C1

>  <score_type>  (91) 
oracle

>  <origin>  (91) 
adg

>  <m_score__min__energy>  (91) 
-10.539999999999999

>  <m_primary>  (91) 
energy

$$$$
91:0
     RDKit          3D

 45 46  0  0  0  0  0  0  0  0999 V2000
   -8.9820   23.0480  -31.9820 C   0  0  0  0  0  0  0  0  0  0  0  0
   -9.1600   21.8560  -31.4070 C   0  0  0  0  0  0  0  0  0  0  0  0
   -9.6330   20.6720  -32.1950 C   0  0  0  0  0  0  0  0  0  0  0  0
   -8.5700   20.1860  -33.0070 O   0  0  0  0  0  0  0  0  0  0  0  0
   -7.5360   19.3860  -32.5120 C   0  0  0  0  0  0  0  0  0  0  0  0
   -7.7960   18.4060  -31.7610 O   0  0  0  0  0  0  0  0  0  0  0  0
   -6.1740   19.6880  -32.8570 N   0  0  0  0  0  0  0  0  0  0  0  0
   -5.3470   18.9870  -33.6840 C   0  0  0  0  0  0  0  0  0  0  0  0
   -5.7330   17.8300  -34.5150 C   0  0  0  0  0  0  0  0  0  0  0  0
   -6.5760   16.7970  -34.0000 N   0  0  0  0  0  0  0  0  0  0  0  0
   -5.3630   17.7820  -35.7180 O   0  0  0  0  0  0  0  0  0  0  0  0
   -4.0740   19.5480  -33.7000 C   0  0  0  0  0  0  0  0  0  0  0  0
   -4.1480   20.6380  -32.8630 C   0  0  0  0  0  0  0  0  0  0  0  0
   -3.1690   21.5620  -32.5110 C   0  0  0  0  0  0  0  0  0  0  0  0
   -3.5170   22.5810  -31.6080 C   0  0  0  0  0  0  0  0  0  0  0  0
   -4.8260   22.6540  -31.0680 C   0  0  0  0  0  0  0  0  0  0  0  0
   -5.1740   23.7450  -30.0740 C   0  0  2  0  0  0  0  0  0  0  0  0
   -6.5020   24.4150  -30.4490 C   0  0  0  0  0  0  0  0  0  0  0  0
   -4.0470   24.7400  -29.9600 C   0  0  0  0  0  0  0  0  0  0  0  0
   -3.8840   25.6290  -30.8400 O   0  0  0  0  0  0  0  0  0  0  0  0
   -3.1190   24.6210  -28.8760 N   0  0  0  0  0  0  0  0  0  0  0  0
   -1.6670   24.6220  -29.0300 C   0  0  0  0  0  0  0  0  0  0  0  0
   -1.3310   23.7750  -30.0710 F   0  0  0  0  0  0  0  0  0  0  0  0
   -1.2290   25.8980  -29.3420 F   0  0  0  0  0  0  0  0  0  0  0  0
   -0.9860   24.1360  -27.7510 C   0  0  0  0  0  0  0  0  0  0  0  0
    0.3820   24.3170  -27.8520 F   0  0  0  0  0  0  0  0  0  0  0  0
   -1.2510   22.7930  -27.5520 F   0  0  0  0  0  0  0  0  0  0  0  0
   -5.7860   21.6810  -31.4350 C   0  0  0  0  0  0  0  0  0  0  0  0
   -5.4220   20.6980  -32.3620 C   0  0  0  0  0  0  0  0  0  0  0  0
   -8.6340   23.9017  -31.3819 H   0  0  0  0  0  0  0  0  0  0  0  0
   -9.1834   23.1762  -33.0558 H   0  0  0  0  0  0  0  0  0  0  0  0
   -8.9552   21.7406  -30.3324 H   0  0  0  0  0  0  0  0  0  0  0  0
   -9.9593   19.8795  -31.5055 H   0  0  0  0  0  0  0  0  0  0  0  0
  -10.4757   20.9713  -32.8355 H   0  0  0  0  0  0  0  0  0  0  0  0
   -6.8090   15.9690  -34.5910 H   0  0  0  0  0  0  0  0  0  0  0  0
   -7.0360   16.8930  -33.0690 H   0  0  0  0  0  0  0  0  0  0  0  0
   -3.1961   19.1957  -34.2615 H   0  0  0  0  0  0  0  0  0  0  0  0
   -2.1529   21.4968  -32.9272 H   0  0  0  0  0  0  0  0  0  0  0  0
   -2.7658   23.3300  -31.3170 H   0  0  0  0  0  0  0  0  0  0  0  0
   -5.3080   23.2907  -29.0812 H   0  0  0  0  0  0  0  0  0  0  0  0
   -7.0458   24.6893  -29.5330 H   0  0  0  0  0  0  0  0  0  0  0  0
   -6.3017   25.3199  -31.0414 H   0  0  0  0  0  0  0  0  0  0  0  0
   -7.1108   23.7162  -31.0414 H   0  0  0  0  0  0  0  0  0  0  0  0
   -1.3761   24.7152  -26.9011 H   0  0  0  0  0  0  0  0  0  0  0  0
   -6.7966   21.6971  -31.0009 H   0  0  0  0  0  0  0  0  0  0  0  0
  1  2  2  0
  2  3  1  0
  3  4  1  0
  4  5  1  0
  5  6  2  0
  5  7  1  0
  7  8  1  0
  8  9  1  0
  9 10  1  0
  9 11  2  0
  8 12  2  0
 12 13  1  0
 13 14  2  0
 14 15  1  0
 15 16  2  0
 16 17  1  0
 17 18  1  0
 17 19  1  0
 19 20  2  0
 19 21  1  0
 21 22  1  0
 22 23  1  0
 22 24  1  0
 22 25  1  0
 25 26  1  0
 25 27  1  0
 16 28  1  0
 28 29  2  0
 29  7  1  0
 29 13  1  0
  1 30  1  0
  1 31  1  0
  2 32  1  0
  3 33  1  0
  3 34  1  0
 10 35  1  0
 10 36  1  0
 12 37  1  0
 14 38  1  0
 15 39  1  0
 17 40  1  1
 18 41  1  0
 18 42  1  0
 18 43  1  0
 25 44  1  0
 28 45  1  0
M  CHG  1  21  -1
M  END
>  <UniqueID>  (92) 
92

>  <SMILES>  (92) 
C=CCOC(=O)n1c(C(N)=O)cc2ccc([C@H](C)C(=O)[N-]C(F)(F)C(F)F)cc21

>  <Energy>  (92) 
72.90818956310547

>  <Genealogy>  (92) 
C=CCOC(=O)n1c(C(N)=O)cc2ccc(C(C)C(=O)[N-]C(F)(F)C(F)F)cc21 (protonated)
C=CCOC(=O)n1c(C(N)=O)cc2ccc([C@H](C)C(=O)[N-]C(F)(F)C(F)F)cc21 (chirality)
C=CCOC(=O)n1c(C(N)=O)cc2ccc([C@H](C)C(=O)[N-]C(F)(F)C(F)F)cc21 (3D coordinates assigned)
C=CCOC(=O)n1c(C(N)=O)cc2ccc([C@H](C)C(=O)[N-]C(F)(F)C(F)F)cc21 (optimized conformer: 72.90818956310547 kcal/mol)

>  <smiles>  (92) 
C=CCOC(=O)n1c(C(N)=O)cc2ccc(C(C)C(=O)NC(F)(F)C(F)F)cc21

>  <score_type>  (92) 
oracle

>  <origin>  (92) 
adg

>  <m_score__min__energy>  (92) 
-9.2400000000000002

>  <m_primary>  (92) 
energy

$$$$
