0:0
     RDKit          3D

 50 51  0  0  0  0  0  0  0  0999 V2000
   -7.6780   18.7020  -32.5730 C   0  0  0  0  0  0  0  0  0  0  0  0
   -7.6410   20.1270  -32.1080 C   0  0  0  0  0  0  0  0  0  0  0  0
   -8.8440   20.8380  -31.8690 C   0  0  0  0  0  0  0  0  0  0  0  0
   -8.8090   22.1800  -31.4550 C   0  0  0  0  0  0  0  0  0  0  0  0
   -7.5650   22.7770  -31.2790 C   0  0  0  0  0  0  0  0  0  0  0  0
   -7.2450   24.0660  -30.9170 C   0  0  0  0  0  0  0  0  0  0  0  0
   -5.8520   24.1150  -30.9140 C   0  0  0  0  0  0  0  0  0  0  0  0
   -5.0830   25.3080  -30.5000 C   0  0  0  0  0  0  0  0  0  0  0  0
   -3.6590   25.2900  -30.4680 N   0  0  0  0  0  0  0  0  0  0  0  0
   -5.6930   26.3440  -30.1250 O   0  0  0  0  0  0  0  0  0  0  0  0
   -5.3320   22.9040  -31.2670 N   0  0  0  0  0  0  0  0  0  0  0  0
   -3.9530   22.5560  -31.4560 C   0  0  0  0  0  0  0  0  0  0  0  0
   -3.4920   22.4400  -32.6250 O   0  0  0  0  0  0  0  0  0  0  0  0
   -3.1410   22.3300  -30.3370 O   0  0  0  0  0  0  0  0  0  0  0  0
   -1.7840   22.6720  -30.2430 C   0  0  0  0  0  0  0  0  0  0  0  0
   -1.4240   23.7720  -29.7480 O   0  0  0  0  0  0  0  0  0  0  0  0
   -0.8070   21.7860  -30.6990 O   0  0  0  0  0  0  0  0  0  0  0  0
   -0.1780   20.8300  -29.8490 C   0  0  0  0  0  0  0  0  0  0  0  0
   -0.0510   19.5770  -30.5160 O   0  0  0  0  0  0  0  0  0  0  0  0
    0.2740   19.4630  -31.8700 C   0  0  0  0  0  0  0  0  0  0  0  0
    0.4980   18.3300  -32.3780 O   0  0  0  0  0  0  0  0  0  0  0  0
    0.3500   20.6290  -32.6420 O   0  0  0  0  0  0  0  0  0  0  0  0
   -0.4300   20.9020  -33.7700 C   0  0  0  0  0  0  0  0  0  0  0  0
   -0.2390   21.9460  -34.4520 O   0  0  0  0  0  0  0  0  0  0  0  0
   -1.4290   19.9880  -34.1260 O   0  0  0  0  0  0  0  0  0  0  0  0
   -2.6220   19.7820  -33.4200 C   0  0  0  0  0  0  0  0  0  0  0  0
   -2.6500   19.8380  -32.1590 O   0  0  0  0  0  0  0  0  0  0  0  0
   -3.7830   19.4860  -34.1410 O   0  0  0  0  0  0  0  0  0  0  0  0
   -4.2370   18.1560  -34.3970 C   0  0  0  0  0  0  0  0  0  0  0  0
   -5.6220   18.2190  -35.0360 C   0  0  0  0  0  0  0  0  0  0  0  0
   -4.2840   17.3510  -33.0950 C   0  0  0  0  0  0  0  0  0  0  0  0
   -6.3940   22.0960  -31.4840 C   0  0  0  0  0  0  0  0  0  0  0  0
   -6.3970   20.7650  -31.9170 C   0  0  0  0  0  0  0  0  0  0  0  0
   -7.6954   18.0320  -31.7008 H   0  0  0  0  0  0  0  0  0  0  0  0
   -8.5807   18.5376  -33.1797 H   0  0  0  0  0  0  0  0  0  0  0  0
   -6.7850   18.4910  -33.1797 H   0  0  0  0  0  0  0  0  0  0  0  0
   -9.8122   20.3350  -32.0088 H   0  0  0  0  0  0  0  0  0  0  0  0
   -9.7375   22.7418  -31.2754 H   0  0  0  0  0  0  0  0  0  0  0  0
   -7.9412   24.8841  -30.6802 H   0  0  0  0  0  0  0  0  0  0  0  0
   -3.1220   24.4850  -30.8590 H   0  0  0  0  0  0  0  0  0  0  0  0
    0.8217   21.1951  -29.5709 H   0  0  0  0  0  0  0  0  0  0  0  0
   -0.7954   20.6932  -28.9490 H   0  0  0  0  0  0  0  0  0  0  0  0
   -3.5398   17.6538  -35.0837 H   0  0  0  0  0  0  0  0  0  0  0  0
   -6.3883   18.2539  -34.2476 H   0  0  0  0  0  0  0  0  0  0  0  0
   -5.6970   19.1215  -35.6604 H   0  0  0  0  0  0  0  0  0  0  0  0
   -5.7786   17.3271  -35.6604 H   0  0  0  0  0  0  0  0  0  0  0  0
   -4.2439   18.0385  -32.2372 H   0  0  0  0  0  0  0  0  0  0  0  0
   -5.2176   16.7705  -33.0563 H   0  0  0  0  0  0  0  0  0  0  0  0
   -3.4243   16.6658  -33.0563 H   0  0  0  0  0  0  0  0  0  0  0  0
   -5.4540   20.2302  -32.1036 H   0  0  0  0  0  0  0  0  0  0  0  0
  1  2  1  0
  2  3  2  0
  3  4  1  0
  4  5  2  0
  5  6  1  0
  6  7  2  0
  7  8  1  0
  8  9  1  0
  8 10  2  0
  7 11  1  0
 11 12  1  0
 12 13  2  0
 12 14  1  0
 14 15  1  0
 15 16  2  0
 15 17  1  0
 17 18  1  0
 18 19  1  0
 19 20  1  0
 20 21  2  0
 20 22  1  0
 22 23  1  0
 23 24  2  0
 23 25  1  0
 25 26  1  0
 26 27  2  0
 26 28  1  0
 28 29  1  0
 29 30  1  0
 29 31  1  0
 11 32  1  0
 32 33  2  0
 33  2  1  0
 32  5  1  0
  1 34  1  0
  1 35  1  0
  1 36  1  0
  3 37  1  0
  4 38  1  0
  6 39  1  0
  9 40  1  0
 18 41  1  0
 18 42  1  0
 29 43  1  0
 30 44  1  0
 30 45  1  0
 30 46  1  0
 31 47  1  0
 31 48  1  0
 31 49  1  0
 33 50  1  0
M  CHG  1   9  -1
M  END
>  <UniqueID>  (1) 
1

>  <SMILES>  (1) 
Cc1ccc2cc(C([NH-])=O)n(C(=O)OC(=O)OCOC(=O)OC(=O)OC(=O)OC(C)C)c2c1

>  <Energy>  (1) 
79.89653922511127

>  <Genealogy>  (1) 
Cc1ccc2cc(C([NH-])=O)n(C(=O)OC(=O)OCOC(=O)OC(=O)OC(=O)OC(C)C)c2c1 (protonated)
Cc1ccc2cc(C([NH-])=O)n(C(=O)OC(=O)OCOC(=O)OC(=O)OC(=O)OC(C)C)c2c1 (3D coordinates assigned)
Cc1ccc2cc(C([NH-])=O)n(C(=O)OC(=O)OCOC(=O)OC(=O)OC(=O)OC(C)C)c2c1 (optimized conformer: 79.89653922511127 kcal/mol)

>  <smiles>  (1) 
Cc1ccc2cc(C(N)=O)n(C(=O)OC(=O)OCOC(=O)OC(=O)OC(=O)OC(C)C)c2c1

>  <score_type>  (1) 
oracle

>  <origin>  (1) 
adg

>  <m_score__min__energy>  (1) 
-11.07

>  <m_primary>  (1) 
energy

$$$$
1:0
     RDKit          3D

 28 29  0  0  0  0  0  0  0  0999 V2000
   -3.8620   22.6600  -28.4020 C   0  0  0  0  0  0  0  0  0  0  0  0
   -3.4230   22.0740  -29.5140 C   0  0  0  0  0  0  0  0  0  0  0  0
   -3.9980   22.3510  -30.8430 C   0  0  0  0  0  0  0  0  0  0  0  0
   -3.2620   22.2500  -31.8610 O   0  0  0  0  0  0  0  0  0  0  0  0
   -5.3810   22.7010  -31.0080 N   0  0  0  0  0  0  0  0  0  0  0  0
   -5.9750   23.9080  -30.8020 C   0  0  0  0  0  0  0  0  0  0  0  0
   -5.2850   25.1620  -30.4300 C   0  0  0  0  0  0  0  0  0  0  0  0
   -3.8790   25.3060  -30.6030 N   0  0  0  0  0  0  0  0  0  0  0  0
   -5.9510   26.1310  -29.9760 O   0  0  0  0  0  0  0  0  0  0  0  0
   -7.3470   23.8200  -31.0370 C   0  0  0  0  0  0  0  0  0  0  0  0
   -7.5710   22.5130  -31.4080 C   0  0  0  0  0  0  0  0  0  0  0  0
   -8.7540   21.8640  -31.7440 C   0  0  0  0  0  0  0  0  0  0  0  0
   -8.6870   20.4970  -32.0680 C   0  0  0  0  0  0  0  0  0  0  0  0
   -7.4440   19.8100  -32.0670 C   0  0  0  0  0  0  0  0  0  0  0  0
   -7.3950   18.3340  -32.3630 C   0  0  0  0  0  0  0  0  0  0  0  0
   -8.6600   17.7770  -32.2850 F   0  0  0  0  0  0  0  0  0  0  0  0
   -6.5710   17.7120  -31.4420 F   0  0  0  0  0  0  0  0  0  0  0  0
   -6.9000   18.1060  -33.6360 F   0  0  0  0  0  0  0  0  0  0  0  0
   -6.2670   20.5020  -31.6970 C   0  0  0  0  0  0  0  0  0  0  0  0
   -6.3660   21.8610  -31.3860 C   0  0  0  0  0  0  0  0  0  0  0  0
   -3.3990   22.4190  -27.4337 H   0  0  0  0  0  0  0  0  0  0  0  0
   -4.6877   23.3851  -28.4516 H   0  0  0  0  0  0  0  0  0  0  0  0
   -2.5962   21.3525  -29.4379 H   0  0  0  0  0  0  0  0  0  0  0  0
   -3.4860   26.0480  -31.2240 H   0  0  0  0  0  0  0  0  0  0  0  0
   -8.0920   24.6241  -30.9454 H   0  0  0  0  0  0  0  0  0  0  0  0
   -9.7127   22.4031  -31.7560 H   0  0  0  0  0  0  0  0  0  0  0  0
   -9.6082   19.9536  -32.3252 H   0  0  0  0  0  0  0  0  0  0  0  0
   -5.2978   19.9834  -31.6551 H   0  0  0  0  0  0  0  0  0  0  0  0
  1  2  2  0
  2  3  1  0
  3  4  2  0
  3  5  1  0
  5  6  1  0
  6  7  1  0
  7  8  1  0
  7  9  2  0
  6 10  2  0
 10 11  1  0
 11 12  2  0
 12 13  1  0
 13 14  2  0
 14 15  1  0
 15 16  1  0
 15 17  1  0
 15 18  1  0
 14 19  1  0
 19 20  2  0
 20  5  1  0
 20 11  1  0
  1 21  1  0
  1 22  1  0
  2 23  1  0
  8 24  1  0
 10 25  1  0
 12 26  1  0
 13 27  1  0
 19 28  1  0
M  CHG  1   8  -1
M  END
>  <UniqueID>  (2) 
2

>  <SMILES>  (2) 
C=CC(=O)n1c(C([NH-])=O)cc2ccc(C(F)(F)F)cc21

>  <Energy>  (2) 
67.9317591791671

>  <Genealogy>  (2) 
C=CC(=O)n1c(C([NH-])=O)cc2ccc(C(F)(F)F)cc21 (protonated)
C=CC(=O)n1c(C([NH-])=O)cc2ccc(C(F)(F)F)cc21 (3D coordinates assigned)
C=CC(=O)n1c(C([NH-])=O)cc2ccc(C(F)(F)F)cc21 (optimized conformer: 67.9317591791671 kcal/mol)

>  <smiles>  (2) 
C=CC(=O)n1c(C(N)=O)cc2ccc(C(F)(F)F)cc21

>  <score_type>  (2) 
oracle

>  <origin>  (2) 
adg

>  <m_score__min__energy>  (2) 
-9.5800000000000001

>  <m_primary>  (2) 
energy

$$$$
2:0
     RDKit          3D

 38 39  0  0  0  0  0  0  0  0999 V2000
   -6.0600   17.9460  -34.4280 C   0  0  0  0  0  0  0  0  0  0  0  0
   -6.3970   18.1830  -33.0190 N   0  0  0  0  0  0  0  0  0  0  0  0
   -6.4350   17.0410  -32.0960 C   0  0  0  0  0  0  0  0  0  0  0  0
   -6.6910   19.5240  -32.5460 C   0  0  0  0  0  0  0  0  0  0  0  0
   -8.0230   20.0280  -32.5690 C   0  0  0  0  0  0  0  0  0  0  0  0
   -8.3150   21.3270  -32.1240 C   0  0  0  0  0  0  0  0  0  0  0  0
   -7.2670   22.1060  -31.6470 C   0  0  0  0  0  0  0  0  0  0  0  0
   -7.2700   23.4030  -31.1890 C   0  0  0  0  0  0  0  0  0  0  0  0
   -5.9460   23.6750  -30.8550 C   0  0  0  0  0  0  0  0  0  0  0  0
   -5.5050   24.9510  -30.2570 C   0  0  0  0  0  0  0  0  0  0  0  0
   -6.1120   25.4600  -29.0680 N   0  0  0  0  0  0  0  0  0  0  0  0
   -4.6170   25.6320  -30.8360 O   0  0  0  0  0  0  0  0  0  0  0  0
   -5.1530   22.5960  -31.1110 N   0  0  0  0  0  0  0  0  0  0  0  0
   -3.7230   22.5160  -31.0000 C   0  0  0  0  0  0  0  0  0  0  0  0
   -3.0010   22.6770  -32.0230 O   0  0  0  0  0  0  0  0  0  0  0  0
   -3.1350   22.2510  -29.7600 O   0  0  0  0  0  0  0  0  0  0  0  0
   -3.4160   23.0170  -28.5940 C   0  0  0  0  0  0  0  0  0  0  0  0
   -2.4530   24.1940  -28.5180 C   0  0  0  0  0  0  0  0  0  0  0  0
   -2.5100   24.9250  -29.7100 O   0  0  0  0  0  0  0  0  0  0  0  0
   -5.9800   21.6420  -31.5940 C   0  0  0  0  0  0  0  0  0  0  0  0
   -5.6550   20.3600  -32.0540 C   0  0  0  0  0  0  0  0  0  0  0  0
   -5.1616   17.3142  -34.4889 H   0  0  0  0  0  0  0  0  0  0  0  0
   -6.8996   17.4385  -34.9255 H   0  0  0  0  0  0  0  0  0  0  0  0
   -5.8663   18.9078  -34.9255 H   0  0  0  0  0  0  0  0  0  0  0  0
   -6.4228   17.4073  -31.0588 H   0  0  0  0  0  0  0  0  0  0  0  0
   -7.3530   16.4601  -32.2690 H   0  0  0  0  0  0  0  0  0  0  0  0
   -5.5577   16.4004  -32.2690 H   0  0  0  0  0  0  0  0  0  0  0  0
   -8.8367   19.3885  -32.9418 H   0  0  0  0  0  0  0  0  0  0  0  0
   -9.3431   21.7171  -32.1519 H   0  0  0  0  0  0  0  0  0  0  0  0
   -8.1330   24.0799  -31.1047 H   0  0  0  0  0  0  0  0  0  0  0  0
   -6.9610   25.0100  -28.6610 H   0  0  0  0  0  0  0  0  0  0  0  0
   -5.7610   26.3430  -28.6370 H   0  0  0  0  0  0  0  0  0  0  0  0
   -4.4495   23.3908  -28.6407 H   0  0  0  0  0  0  0  0  0  0  0  0
   -3.2955   22.3854  -27.7015 H   0  0  0  0  0  0  0  0  0  0  0  0
   -2.7347   24.8437  -27.6763 H   0  0  0  0  0  0  0  0  0  0  0  0
   -1.4297   23.8196  -28.3677 H   0  0  0  0  0  0  0  0  0  0  0  0
   -2.9040   24.3150  -30.3880 H   0  0  0  0  0  0  0  0  0  0  0  0
   -4.6135   20.0066  -32.0343 H   0  0  0  0  0  0  0  0  0  0  0  0
  1  2  1  0
  2  3  1  0
  2  4  1  0
  4  5  2  0
  5  6  1  0
  6  7  2  0
  7  8  1  0
  8  9  2  0
  9 10  1  0
 10 11  1  0
 10 12  2  0
  9 13  1  0
 13 14  1  0
 14 15  2  0
 14 16  1  0
 16 17  1  0
 17 18  1  0
 18 19  1  0
 13 20  1  0
 20 21  2  0
 21  4  1  0
 20  7  1  0
  1 22  1  0
  1 23  1  0
  1 24  1  0
  3 25  1  0
  3 26  1  0
  3 27  1  0
  5 28  1  0
  6 29  1  0
  8 30  1  0
 11 31  1  0
 11 32  1  0
 17 33  1  0
 17 34  1  0
 18 35  1  0
 18 36  1  0
 19 37  1  0
 21 38  1  0
M  END
>  <UniqueID>  (3) 
3

>  <SMILES>  (3) 
CN(C)c1ccc2cc(C(N)=O)n(C(=O)OCCO)c2c1

>  <Energy>  (3) 
73.35738599161549

>  <Genealogy>  (3) 
CN(C)c1ccc2cc(C(N)=O)n(C(=O)OCCO)c2c1 (3D coordinates assigned)
CN(C)c1ccc2cc(C(N)=O)n(C(=O)OCCO)c2c1 (optimized conformer: 73.35738599161549 kcal/mol)

>  <smiles>  (3) 
CN(C)c1ccc2cc(C(N)=O)n(C(=O)OCCO)c2c1

>  <score_type>  (3) 
oracle

>  <origin>  (3) 
adg

>  <m_score__min__energy>  (3) 
-8.1899999999999995

>  <m_primary>  (3) 
energy

$$$$
3:0
     RDKit          3D

 34 35  0  0  0  0  0  0  0  0999 V2000
    0.5280   23.4680  -27.4090 C   0  0  0  0  0  0  0  0  0  0  0  0
    0.2740   24.2080  -28.5960 O   0  0  0  0  0  0  0  0  0  0  0  0
   -0.9870   24.2520  -29.2010 C   0  0  0  0  0  0  0  0  0  0  0  0
   -1.6670   25.3130  -29.1950 O   0  0  0  0  0  0  0  0  0  0  0  0
   -1.5150   23.0320  -29.8880 C   0  0  0  0  0  0  0  0  0  0  0  0
   -2.9360   23.0910  -29.9840 O   0  0  0  0  0  0  0  0  0  0  0  0
   -3.6480   22.6770  -31.1150 C   0  0  0  0  0  0  0  0  0  0  0  0
   -3.0480   22.1270  -32.0790 O   0  0  0  0  0  0  0  0  0  0  0  0
   -5.0700   22.8650  -31.1700 N   0  0  0  0  0  0  0  0  0  0  0  0
   -5.7720   24.0130  -30.9540 C   0  0  0  0  0  0  0  0  0  0  0  0
   -5.2120   25.2960  -30.4800 C   0  0  0  0  0  0  0  0  0  0  0  0
   -3.8800   25.6620  -30.8330 N   0  0  0  0  0  0  0  0  0  0  0  0
   -5.9090   26.0910  -29.7950 O   0  0  0  0  0  0  0  0  0  0  0  0
   -7.1340   23.7990  -31.1600 C   0  0  0  0  0  0  0  0  0  0  0  0
   -7.2470   22.4710  -31.5020 C   0  0  0  0  0  0  0  0  0  0  0  0
   -8.3740   21.7220  -31.8240 C   0  0  0  0  0  0  0  0  0  0  0  0
   -8.1930   20.3710  -32.1620 C   0  0  0  0  0  0  0  0  0  0  0  0
   -6.8970   19.7980  -32.1800 C   0  0  0  0  0  0  0  0  0  0  0  0
   -6.7230   18.3550  -32.5620 C   0  0  0  0  0  0  0  0  0  0  0  0
   -5.7630   17.7710  -31.7550 F   0  0  0  0  0  0  0  0  0  0  0  0
   -7.9220   17.6850  -32.4030 F   0  0  0  0  0  0  0  0  0  0  0  0
   -5.7740   20.5910  -31.8510 C   0  0  0  0  0  0  0  0  0  0  0  0
   -5.9870   21.9290  -31.5000 C   0  0  0  0  0  0  0  0  0  0  0  0
    0.3124   24.0962  -26.5321 H   0  0  0  0  0  0  0  0  0  0  0  0
   -0.1154   22.5761  -27.3882 H   0  0  0  0  0  0  0  0  0  0  0  0
    1.5836   23.1592  -27.3882 H   0  0  0  0  0  0  0  0  0  0  0  0
   -1.0857   22.9711  -30.8990 H   0  0  0  0  0  0  0  0  0  0  0  0
   -1.2336   22.1437  -29.3034 H   0  0  0  0  0  0  0  0  0  0  0  0
   -3.0600   25.2360  -30.3480 H   0  0  0  0  0  0  0  0  0  0  0  0
   -7.9460   24.5354  -31.0686 H   0  0  0  0  0  0  0  0  0  0  0  0
   -9.3767   22.1742  -31.8142 H   0  0  0  0  0  0  0  0  0  0  0  0
   -9.0659   19.7514  -32.4153 H   0  0  0  0  0  0  0  0  0  0  0  0
   -6.4041   18.2960  -33.6131 H   0  0  0  0  0  0  0  0  0  0  0  0
   -4.7590   20.1674  -31.8704 H   0  0  0  0  0  0  0  0  0  0  0  0
  1  2  1  0
  2  3  1  0
  3  4  2  0
  3  5  1  0
  5  6  1  0
  6  7  1  0
  7  8  2  0
  7  9  1  0
  9 10  1  0
 10 11  1  0
 11 12  1  0
 11 13  2  0
 10 14  2  0
 14 15  1  0
 15 16  2  0
 16 17  1  0
 17 18  2  0
 18 19  1  0
 19 20  1  0
 19 21  1  0
 18 22  1  0
 22 23  2  0
 23  9  1  0
 23 15  1  0
  1 24  1  0
  1 25  1  0
  1 26  1  0
  5 27  1  0
  5 28  1  0
 12 29  1  0
 14 30  1  0
 16 31  1  0
 17 32  1  0
 19 33  1  0
 22 34  1  0
M  CHG  1  12  -1
M  END
>  <UniqueID>  (4) 
4

>  <SMILES>  (4) 
COC(=O)COC(=O)n1c(C([NH-])=O)cc2ccc(C(F)F)cc21

>  <Energy>  (4) 
67.8448632524716

>  <Genealogy>  (4) 
COC(=O)COC(=O)n1c(C([NH-])=O)cc2ccc(C(F)F)cc21 (protonated)
COC(=O)COC(=O)n1c(C([NH-])=O)cc2ccc(C(F)F)cc21 (3D coordinates assigned)
COC(=O)COC(=O)n1c(C([NH-])=O)cc2ccc(C(F)F)cc21 (optimized conformer: 67.8448632524716 kcal/mol)

>  <smiles>  (4) 
COC(=O)COC(=O)n1c(C(N)=O)cc2ccc(C(F)F)cc21

>  <score_type>  (4) 
oracle

>  <origin>  (4) 
adg

>  <m_score__min__energy>  (4) 
-9.4700000000000006

>  <m_primary>  (4) 
energy

$$$$
4:0
     RDKit          3D

 44 46  0  0  0  0  0  0  0  0999 V2000
   -4.1960   24.9020  -26.6680 C   0  0  0  0  0  0  0  0  0  0  0  0
   -3.2580   24.0280  -27.4730 C   0  0  0  0  0  0  0  0  0  0  0  0
   -1.9540   23.9120  -26.6740 C   0  0  0  0  0  0  0  0  0  0  0  0
   -3.9130   22.6750  -27.6450 C   0  0  0  0  0  0  0  0  0  0  0  0
   -2.9450   24.6510  -28.7070 O   0  0  0  0  0  0  0  0  0  0  0  0
   -2.7010   23.9180  -29.8430 C   0  0  0  0  0  0  0  0  0  0  0  0
   -1.7440   23.1090  -29.9520 O   0  0  0  0  0  0  0  0  0  0  0  0
   -3.5520   24.0750  -30.9310 O   0  0  0  0  0  0  0  0  0  0  0  0
   -4.3080   23.0470  -31.4580 C   0  0  0  0  0  0  0  0  0  0  0  0
   -3.6310   22.1580  -32.0850 O   0  0  0  0  0  0  0  0  0  0  0  0
   -5.7110   22.9190  -31.3570 N   0  0  0  0  0  0  0  0  0  0  0  0
   -6.5750   23.7830  -30.7990 C   0  0  0  0  0  0  0  0  0  0  0  0
   -6.3610   25.0570  -30.1560 C   0  0  0  0  0  0  0  0  0  0  0  0
   -5.1270   25.7580  -30.3870 N   0  0  0  0  0  0  0  0  0  0  0  0
   -7.1610   25.6410  -29.3910 O   0  0  0  0  0  0  0  0  0  0  0  0
   -7.8530   23.2230  -30.9390 C   0  0  0  0  0  0  0  0  0  0  0  0
   -7.7400   22.0150  -31.5870 C   0  0  0  0  0  0  0  0  0  0  0  0
   -8.6990   21.0840  -31.9600 C   0  0  0  0  0  0  0  0  0  0  0  0
   -8.3190   19.9450  -32.6040 C   0  0  0  0  0  0  0  0  0  0  0  0
   -6.9820   19.7370  -32.8730 C   0  0  0  0  0  0  0  0  0  0  0  0
   -6.5530   18.5210  -33.5630 C   0  0  0  0  0  0  0  0  0  0  0  0
   -5.7400   18.4730  -34.6300 N   0  0  0  0  0  0  0  0  0  0  0  0
   -5.5770   17.2140  -34.9750 O   0  0  0  0  0  0  0  0  0  0  0  0
   -6.2510   16.4310  -34.1740 C   0  0  0  0  0  0  0  0  0  0  0  0
   -6.3210   15.1640  -34.2150 O   0  0  0  0  0  0  0  0  0  0  0  0
   -6.8620   17.2420  -33.2910 N   0  0  0  0  0  0  0  0  0  0  0  0
   -6.0380   20.6800  -32.4920 C   0  0  0  0  0  0  0  0  0  0  0  0
   -6.3980   21.8530  -31.8330 C   0  0  0  0  0  0  0  0  0  0  0  0
   -4.0197   24.7377  -25.5947 H   0  0  0  0  0  0  0  0  0  0  0  0
   -4.0127   25.9588  -26.9122 H   0  0  0  0  0  0  0  0  0  0  0  0
   -5.2372   24.6446  -26.9122 H   0  0  0  0  0  0  0  0  0  0  0  0
   -2.1804   23.9321  -25.5977 H   0  0  0  0  0  0  0  0  0  0  0  0
   -1.4528   22.9657  -26.9256 H   0  0  0  0  0  0  0  0  0  0  0  0
   -1.2936   24.7549  -26.9256 H   0  0  0  0  0  0  0  0  0  0  0  0
   -4.1231   22.2410  -26.6563 H   0  0  0  0  0  0  0  0  0  0  0  0
   -4.8544   22.7915  -28.2019 H   0  0  0  0  0  0  0  0  0  0  0  0
   -3.2377   22.0088  -28.2019 H   0  0  0  0  0  0  0  0  0  0  0  0
   -4.3160   25.6710  -29.7130 H   0  0  0  0  0  0  0  0  0  0  0  0
   -5.0700   26.3560  -31.2520 H   0  0  0  0  0  0  0  0  0  0  0  0
   -8.7921   23.6757  -30.5881 H   0  0  0  0  0  0  0  0  0  0  0  0
   -9.7609   21.2647  -31.7368 H   0  0  0  0  0  0  0  0  0  0  0  0
   -9.0697   19.1998  -32.9060 H   0  0  0  0  0  0  0  0  0  0  0  0
   -7.4750   16.9090  -32.5230 H   0  0  0  0  0  0  0  0  0  0  0  0
   -4.9769   20.4962  -32.7165 H   0  0  0  0  0  0  0  0  0  0  0  0
  1  2  1  0
  2  3  1  0
  2  4  1  0
  2  5  1  0
  5  6  1  0
  6  7  2  0
  6  8  1  0
  8  9  1  0
  9 10  2  0
  9 11  1  0
 11 12  1  0
 12 13  1  0
 13 14  1  0
 13 15  2  0
 12 16  2  0
 16 17  1  0
 17 18  2  0
 18 19  1  0
 19 20  2  0
 20 21  1  0
 21 22  2  0
 22 23  1  0
 23 24  1  0
 24 25  2  0
 24 26  1  0
 20 27  1  0
 27 28  2  0
 28 11  1  0
 28 17  1  0
 26 21  1  0
  1 29  1  0
  1 30  1  0
  1 31  1  0
  3 32  1  0
  3 33  1  0
  3 34  1  0
  4 35  1  0
  4 36  1  0
  4 37  1  0
 14 38  1  0
 14 39  1  0
 16 40  1  0
 18 41  1  0
 19 42  1  0
 26 43  1  0
 27 44  1  0
M  END
>  <smiles>  (5) 
CC(C)(C)OC(=O)OC(=O)n1c(C(N)=O)cc2ccc(-c3noc(=O)[nH]3)cc21

>  <score_type>  (5) 
oracle

>  <origin>  (5) 
adg

>  <m_score__min__energy>  (5) 
-9.6600000000000001

>  <m_primary>  (5) 
energy

$$$$
5:0
     RDKit          3D

 34 35  0  0  0  0  0  0  0  0999 V2000
   -6.0650   18.1570  -34.2610 C   0  0  0  0  0  0  0  0  0  0  0  0
   -6.0170   19.4320  -33.4700 C   0  0  0  0  0  0  0  0  0  0  0  0
   -7.2180   20.0550  -33.0480 C   0  0  0  0  0  0  0  0  0  0  0  0
   -7.1810   21.2340  -32.2850 C   0  0  0  0  0  0  0  0  0  0  0  0
   -5.9360   21.7520  -31.9460 C   0  0  0  0  0  0  0  0  0  0  0  0
   -5.6110   22.8880  -31.2390 C   0  0  0  0  0  0  0  0  0  0  0  0
   -4.2170   22.9190  -31.2080 C   0  0  0  0  0  0  0  0  0  0  0  0
   -3.4380   23.9490  -30.4900 C   0  0  0  0  0  0  0  0  0  0  0  0
   -3.8670   25.3090  -30.5170 N   0  0  0  0  0  0  0  0  0  0  0  0
   -2.4110   23.6400  -29.8310 O   0  0  0  0  0  0  0  0  0  0  0  0
   -3.7020   21.8440  -31.8690 N   0  0  0  0  0  0  0  0  0  0  0  0
   -2.3190   21.5400  -32.1120 C   0  0  0  0  0  0  0  0  0  0  0  0
   -1.5700   21.2370  -31.1450 O   0  0  0  0  0  0  0  0  0  0  0  0
   -1.8010   21.5820  -33.4510 N   0  0  0  0  0  0  0  0  0  0  0  0
   -0.4110   21.4650  -33.7810 C   0  0  0  0  0  0  0  0  0  0  0  0
    0.4580   21.3410  -32.8740 O   0  0  0  0  0  0  0  0  0  0  0  0
   -0.0270   21.4990  -35.1240 O   0  0  0  0  0  0  0  0  0  0  0  0
    1.2950   21.8250  -35.5380 C   0  0  0  0  0  0  0  0  0  0  0  0
    1.3150   23.2130  -36.0820 C   0  0  0  0  0  0  0  0  0  0  0  0
    2.2610   23.5860  -36.8250 O   0  0  0  0  0  0  0  0  0  0  0  0
    0.3150   24.1140  -35.7310 O   0  0  0  0  0  0  0  0  0  0  0  0
   -4.7650   21.1430  -32.3180 C   0  0  0  0  0  0  0  0  0  0  0  0
   -4.7710   19.9780  -33.0960 C   0  0  0  0  0  0  0  0  0  0  0  0
   -6.0973   17.2995  -33.5728 H   0  0  0  0  0  0  0  0  0  0  0  0
   -6.9640   18.1524  -34.8949 H   0  0  0  0  0  0  0  0  0  0  0  0
   -5.1689   18.0848  -34.8949 H   0  0  0  0  0  0  0  0  0  0  0  0
   -8.1872   19.6117  -33.3202 H   0  0  0  0  0  0  0  0  0  0  0  0
   -8.1084   21.7320  -31.9656 H   0  0  0  0  0  0  0  0  0  0  0  0
   -6.3040   23.6167  -30.7931 H   0  0  0  0  0  0  0  0  0  0  0  0
   -3.4940   25.9760  -31.2280 H   0  0  0  0  0  0  0  0  0  0  0  0
   -2.4770   21.7050  -34.2370 H   0  0  0  0  0  0  0  0  0  0  0  0
    1.9762   21.7584  -34.6769 H   0  0  0  0  0  0  0  0  0  0  0  0
    1.6206   21.1201  -36.3171 H   0  0  0  0  0  0  0  0  0  0  0  0
   -3.8295   19.5017  -33.4070 H   0  0  0  0  0  0  0  0  0  0  0  0
  1  2  1  0
  2  3  2  0
  3  4  1  0
  4  5  2  0
  5  6  1  0
  6  7  2  0
  7  8  1  0
  8  9  1  0
  8 10  2  0
  7 11  1  0
 11 12  1  0
 12 13  2  0
 12 14  1  0
 14 15  1  0
 15 16  2  0
 15 17  1  0
 17 18  1  0
 18 19  1  0
 19 20  2  0
 19 21  1  0
 11 22  1  0
 22 23  2  0
 23  2  1  0
 22  5  1  0
  1 24  1  0
  1 25  1  0
  1 26  1  0
  3 27  1  0
  4 28  1  0
  6 29  1  0
  9 30  1  0
 14 31  1  0
 18 32  1  0
 18 33  1  0
 23 34  1  0
M  CHG  2   9  -1  21  -1
M  END
>  <UniqueID>  (6) 
5

>  <SMILES>  (6) 
Cc1ccc2cc(C([NH-])=O)n(C(=O)NC(=O)OCC(=O)[O-])c2c1

>  <Energy>  (6) 
69.34024664464103

>  <Genealogy>  (6) 
Cc1ccc2cc(C([NH-])=O)n(C(=O)NC(=O)OCC(=O)[O-])c2c1 (protonated)
Cc1ccc2cc(C([NH-])=O)n(C(=O)NC(=O)OCC(=O)[O-])c2c1 (3D coordinates assigned)
Cc1ccc2cc(C([NH-])=O)n(C(=O)NC(=O)OCC(=O)[O-])c2c1 (optimized conformer: 69.34024664464103 kcal/mol)

>  <smiles>  (6) 
Cc1ccc2cc(C(N)=O)n(C(=O)NC(=O)OCC(=O)O)c2c1

>  <score_type>  (6) 
oracle

>  <origin>  (6) 
adg

>  <m_score__min__energy>  (6) 
-11.949999999999999

>  <m_primary>  (6) 
energy

$$$$
6:0
     RDKit          3D

 35 36  0  0  0  0  0  0  0  0999 V2000
   -6.2350   18.1850  -32.4920 C   0  0  0  0  0  0  0  0  0  0  0  0
   -6.5770   19.6040  -32.1520 C   0  0  0  0  0  0  0  0  0  0  0  0
   -7.8960   20.0830  -32.3500 C   0  0  0  0  0  0  0  0  0  0  0  0
   -8.2230   21.4190  -32.0610 C   0  0  0  0  0  0  0  0  0  0  0  0
   -7.2110   22.2520  -31.5950 C   0  0  0  0  0  0  0  0  0  0  0  0
   -7.2540   23.5760  -31.2220 C   0  0  0  0  0  0  0  0  0  0  0  0
   -5.9540   23.8930  -30.8340 C   0  0  0  0  0  0  0  0  0  0  0  0
   -5.5340   25.2430  -30.4000 C   0  0  0  0  0  0  0  0  0  0  0  0
   -4.1770   25.6510  -30.5660 N   0  0  0  0  0  0  0  0  0  0  0  0
   -6.3550   26.0350  -29.8670 O   0  0  0  0  0  0  0  0  0  0  0  0
   -5.1400   22.8080  -30.9640 N   0  0  0  0  0  0  0  0  0  0  0  0
   -3.7430   22.7210  -30.6330 C   0  0  0  0  0  0  0  0  0  0  0  0
   -2.9850   22.0160  -31.3540 O   0  0  0  0  0  0  0  0  0  0  0  0
   -3.2410   23.3410  -29.4250 N   0  0  1  0  0  0  0  0  0  0  0  0
   -3.9880   22.8480  -28.2560 C   0  0  0  0  0  0  0  0  0  0  0  0
   -1.7700   23.2030  -29.2750 C   0  0  0  0  0  0  0  0  0  0  0  0
   -1.0420   24.5090  -29.0860 C   0  0  0  0  0  0  0  0  0  0  0  0
   -1.6170   25.5990  -29.3430 O   0  0  0  0  0  0  0  0  0  0  0  0
    0.2640   24.5180  -28.6100 O   0  0  0  0  0  0  0  0  0  0  0  0
   -5.9240   21.8120  -31.4280 C   0  0  0  0  0  0  0  0  0  0  0  0
   -5.5730   20.4840  -31.6920 C   0  0  0  0  0  0  0  0  0  0  0  0
   -6.0962   17.6091  -31.5651 H   0  0  0  0  0  0  0  0  0  0  0  0
   -7.0520   17.7418  -33.0802 H   0  0  0  0  0  0  0  0  0  0  0  0
   -5.3057   18.1626  -33.0802 H   0  0  0  0  0  0  0  0  0  0  0  0
   -8.6710   19.4029  -32.7334 H   0  0  0  0  0  0  0  0  0  0  0  0
   -9.2477   21.7944  -32.1991 H   0  0  0  0  0  0  0  0  0  0  0  0
   -8.1290   24.2425  -31.2288 H   0  0  0  0  0  0  0  0  0  0  0  0
   -3.5190   25.6670  -29.7540 H   0  0  0  0  0  0  0  0  0  0  0  0
   -3.4370   24.3680  -29.4880 H   0  0  0  0  0  0  0  0  0  0  0  0
   -3.4868   23.1788  -27.3344 H   0  0  0  0  0  0  0  0  0  0  0  0
   -5.0124   23.2480  -28.2801 H   0  0  0  0  0  0  0  0  0  0  0  0
   -4.0230   21.7488  -28.2801 H   0  0  0  0  0  0  0  0  0  0  0  0
   -1.5708   22.5674  -28.3996 H   0  0  0  0  0  0  0  0  0  0  0  0
   -1.3967   22.7664  -30.2131 H   0  0  0  0  0  0  0  0  0  0  0  0
   -4.5406   20.1339  -31.5450 H   0  0  0  0  0  0  0  0  0  0  0  0
  1  2  1  0
  2  3  2  0
  3  4  1  0
  4  5  2  0
  5  6  1  0
  6  7  2  0
  7  8  1  0
  8  9  1  0
  8 10  2  0
  7 11  1  0
 11 12  1  0
 12 13  2  0
 12 14  1  0
 14 15  1  0
 14 16  1  0
 16 17  1  0
 17 18  2  0
 17 19  1  0
 11 20  1  0
 20 21  2  0
 21  2  1  0
 20  5  1  0
  1 22  1  0
  1 23  1  0
  1 24  1  0
  3 25  1  0
  4 26  1  0
  6 27  1  0
  9 28  1  0
 14 29  1  6
 15 30  1  0
 15 31  1  0
 15 32  1  0
 16 33  1  0
 16 34  1  0
 21 35  1  0
M  CHG  3   9  -1  14   1  19  -1
M  END
>  <UniqueID>  (7) 
6

>  <SMILES>  (7) 
Cc1ccc2cc(C([NH-])=O)n(C(=O)[N@@H+](C)CC(=O)[O-])c2c1

>  <Energy>  (7) 
78.34379387169358

>  <Genealogy>  (7) 
Cc1ccc2cc(C([NH-])=O)n(C(=O)[NH+](C)CC(=O)[O-])c2c1 (protonated)
Cc1ccc2cc(C([NH-])=O)n(C(=O)[N@@H+](C)CC(=O)[O-])c2c1 (chirality)
Cc1ccc2cc(C([NH-])=O)n(C(=O)[N@@H+](C)CC(=O)[O-])c2c1 (3D coordinates assigned)
Cc1ccc2cc(C([NH-])=O)n(C(=O)[N@@H+](C)CC(=O)[O-])c2c1 (optimized conformer: 78.34379387169358 kcal/mol)

>  <smiles>  (7) 
Cc1ccc2cc(C(N)=O)n(C(=O)N(C)CC(=O)O)c2c1

>  <score_type>  (7) 
oracle

>  <origin>  (7) 
adg

>  <m_score__min__energy>  (7) 
-10.82

>  <m_primary>  (7) 
energy

$$$$
7:0
     RDKit          3D

 42 45  0  0  0  0  0  0  0  0999 V2000
   -1.1420   21.8820  -26.4770 C   0  0  0  0  0  0  0  0  0  0  0  0
   -1.3680   22.9190  -27.5270 C   0  0  0  0  0  0  0  0  0  0  0  0
   -1.3120   24.2130  -27.3120 O   0  0  0  0  0  0  0  0  0  0  0  0
   -1.5360   24.7800  -28.4750 C   0  0  0  0  0  0  0  0  0  0  0  0
   -1.5590   26.0270  -28.6510 O   0  0  0  0  0  0  0  0  0  0  0  0
   -1.7280   23.9060  -29.4370 O   0  0  0  0  0  0  0  0  0  0  0  0
   -1.6280   22.7250  -28.8740 C   0  0  0  0  0  0  0  0  0  0  0  0
   -1.7560   21.4250  -29.6070 C   0  0  0  0  0  0  0  0  0  0  0  0
   -3.0500   21.3030  -30.1930 O   0  0  0  0  0  0  0  0  0  0  0  0
   -3.6210   22.2880  -31.0080 C   0  0  0  0  0  0  0  0  0  0  0  0
   -2.8850   23.0170  -31.7290 O   0  0  0  0  0  0  0  0  0  0  0  0
   -5.0480   22.4690  -31.0270 N   0  0  0  0  0  0  0  0  0  0  0  0
   -5.7460   23.5700  -30.6290 C   0  0  0  0  0  0  0  0  0  0  0  0
   -5.1880   24.7400  -29.9230 C   0  0  0  0  0  0  0  0  0  0  0  0
   -3.8630   25.2010  -30.1900 N   0  0  0  0  0  0  0  0  0  0  0  0
   -5.8720   25.3090  -29.0300 O   0  0  0  0  0  0  0  0  0  0  0  0
   -7.0970   23.4340  -30.9330 C   0  0  0  0  0  0  0  0  0  0  0  0
   -7.2130   22.1960  -31.5210 C   0  0  0  0  0  0  0  0  0  0  0  0
   -8.3350   21.5560  -32.0360 C   0  0  0  0  0  0  0  0  0  0  0  0
   -8.1610   20.2940  -32.6260 C   0  0  0  0  0  0  0  0  0  0  0  0
   -6.8770   19.6930  -32.6950 C   0  0  0  0  0  0  0  0  0  0  0  0
   -6.7040   18.3610  -33.3230 C   0  0  0  0  0  0  0  0  0  0  0  0
   -7.2090   17.1560  -32.8690 C   0  0  0  0  0  0  0  0  0  0  0  0
   -6.7960   16.2060  -33.7810 C   0  0  0  0  0  0  0  0  0  0  0  0
   -6.0860   16.7770  -34.7260 O   0  0  0  0  0  0  0  0  0  0  0  0
   -6.0110   18.0660  -34.4850 C   0  0  0  0  0  0  0  0  0  0  0  0
   -5.7610   20.3810  -32.1620 C   0  0  0  0  0  0  0  0  0  0  0  0
   -5.9640   21.6320  -31.5660 C   0  0  0  0  0  0  0  0  0  0  0  0
   -1.2418   22.3400  -25.4819 H   0  0  0  0  0  0  0  0  0  0  0  0
   -1.8864   21.0797  -26.5878 H   0  0  0  0  0  0  0  0  0  0  0  0
   -0.1313   21.4622  -26.5878 H   0  0  0  0  0  0  0  0  0  0  0  0
   -0.9948   21.3809  -30.3998 H   0  0  0  0  0  0  0  0  0  0  0  0
   -1.6114   20.6005  -28.8933 H   0  0  0  0  0  0  0  0  0  0  0  0
   -3.2160   24.6560  -30.8020 H   0  0  0  0  0  0  0  0  0  0  0  0
   -3.4950   26.0500  -29.7050 H   0  0  0  0  0  0  0  0  0  0  0  0
   -7.9004   24.1611  -30.7436 H   0  0  0  0  0  0  0  0  0  0  0  0
   -9.3289   22.0244  -31.9827 H   0  0  0  0  0  0  0  0  0  0  0  0
   -9.0313   19.7639  -33.0403 H   0  0  0  0  0  0  0  0  0  0  0  0
   -7.8153   16.9891  -31.9664 H   0  0  0  0  0  0  0  0  0  0  0  0
   -7.0270   15.1320  -33.7245 H   0  0  0  0  0  0  0  0  0  0  0  0
   -5.4794   18.7985  -35.1101 H   0  0  0  0  0  0  0  0  0  0  0  0
   -4.7539   19.9418  -32.2148 H   0  0  0  0  0  0  0  0  0  0  0  0
  1  2  1  0
  2  3  1  0
  3  4  1  0
  4  5  2  0
  4  6  1  0
  6  7  1  0
  7  8  1  0
  8  9  1  0
  9 10  1  0
 10 11  2  0
 10 12  1  0
 12 13  1  0
 13 14  1  0
 14 15  1  0
 14 16  2  0
 13 17  2  0
 17 18  1  0
 18 19  2  0
 19 20  1  0
 20 21  2  0
 21 22  1  0
 22 23  1  0
 23 24  2  0
 24 25  1  0
 25 26  1  0
 21 27  1  0
 27 28  2  0
  7  2  2  0
 28 12  1  0
 28 18  1  0
 26 22  2  0
  1 29  1  0
  1 30  1  0
  1 31  1  0
  8 32  1  0
  8 33  1  0
 15 34  1  0
 15 35  1  0
 17 36  1  0
 19 37  1  0
 20 38  1  0
 23 39  1  0
 24 40  1  0
 26 41  1  0
 27 42  1  0
M  END
>  <UniqueID>  (8) 
7

>  <SMILES>  (8) 
Cc1oc(=O)oc1COC(=O)n1c(C(N)=O)cc2ccc(-c3ccoc3)cc21

>  <Energy>  (8) 
142.7172768526492

>  <Genealogy>  (8) 
Cc1oc(=O)oc1COC(=O)n1c(C(N)=O)cc2ccc(-c3ccoc3)cc21 (3D coordinates assigned)
Cc1oc(=O)oc1COC(=O)n1c(C(N)=O)cc2ccc(-c3ccoc3)cc21 (optimized conformer: 142.7172768526492 kcal/mol)

>  <smiles>  (8) 
Cc1oc(=O)oc1COC(=O)n1c(C(N)=O)cc2ccc(-c3ccoc3)cc21

>  <score_type>  (8) 
oracle

>  <origin>  (8) 
adg

>  <m_score__min__energy>  (8) 
-10.01

>  <m_primary>  (8) 
energy

$$$$
8:0
     RDKit          3D

 41 42  0  0  0  0  0  0  0  0999 V2000
   -6.9000   18.3490  -32.4470 C   0  0  0  0  0  0  0  0  0  0  0  0
   -7.0480   19.8120  -32.1540 C   0  0  0  0  0  0  0  0  0  0  0  0
   -8.3210   20.4270  -32.2390 C   0  0  0  0  0  0  0  0  0  0  0  0
   -8.4820   21.7860  -31.9180 C   0  0  0  0  0  0  0  0  0  0  0  0
   -7.3560   22.4980  -31.5140 C   0  0  0  0  0  0  0  0  0  0  0  0
   -7.2340   23.8110  -31.1190 C   0  0  0  0  0  0  0  0  0  0  0  0
   -5.8870   23.9800  -30.8080 C   0  0  0  0  0  0  0  0  0  0  0  0
   -5.3000   25.2790  -30.4180 C   0  0  0  0  0  0  0  0  0  0  0  0
   -3.9920   25.6500  -30.8420 N   0  0  0  0  0  0  0  0  0  0  0  0
   -5.9840   26.0940  -29.7420 O   0  0  0  0  0  0  0  0  0  0  0  0
   -5.2040   22.8140  -30.9940 N   0  0  0  0  0  0  0  0  0  0  0  0
   -3.8220   22.5470  -30.7100 C   0  0  0  0  0  0  0  0  0  0  0  0
   -2.9250   23.2340  -31.2700 O   0  0  0  0  0  0  0  0  0  0  0  0
   -3.4880   21.5390  -29.7950 O   0  0  0  0  0  0  0  0  0  0  0  0
   -3.0160   21.7560  -28.4950 C   0  0  0  0  0  0  0  0  0  0  0  0
   -3.2300   20.9180  -27.5750 O   0  0  0  0  0  0  0  0  0  0  0  0
   -2.2950   22.9250  -28.2310 O   0  0  0  0  0  0  0  0  0  0  0  0
   -2.8940   24.1230  -27.7430 C   0  0  0  0  0  0  0  0  0  0  0  0
   -1.9510   25.2860  -27.8890 C   0  0  0  0  0  0  0  0  0  0  0  0
   -1.5680   25.6050  -29.0490 O   0  0  0  0  0  0  0  0  0  0  0  0
   -1.4630   26.0210  -26.7450 N   0  0  0  0  0  0  0  0  0  0  0  0
   -1.9250   25.6990  -25.3900 C   0  0  0  0  0  0  0  0  0  0  0  0
   -0.4970   27.1050  -26.9550 C   0  0  0  0  0  0  0  0  0  0  0  0
   -6.1160   21.9190  -31.4300 C   0  0  0  0  0  0  0  0  0  0  0  0
   -5.9320   20.5620  -31.7250 C   0  0  0  0  0  0  0  0  0  0  0  0
   -6.8434   17.7896  -31.5016 H   0  0  0  0  0  0  0  0  0  0  0  0
   -7.7676   18.0016  -33.0272 H   0  0  0  0  0  0  0  0  0  0  0  0
   -5.9804   18.1824  -33.0272 H   0  0  0  0  0  0  0  0  0  0  0  0
   -9.1916   19.8358  -32.5591 H   0  0  0  0  0  0  0  0  0  0  0  0
   -9.4668   22.2717  -31.9839 H   0  0  0  0  0  0  0  0  0  0  0  0
   -8.0314   24.5666  -31.0612 H   0  0  0  0  0  0  0  0  0  0  0  0
   -3.1450   25.2160  -30.4110 H   0  0  0  0  0  0  0  0  0  0  0  0
   -3.8109   24.3274  -28.3152 H   0  0  0  0  0  0  0  0  0  0  0  0
   -3.1311   23.9913  -26.6770 H   0  0  0  0  0  0  0  0  0  0  0  0
   -1.2548   26.1661  -24.6534 H   0  0  0  0  0  0  0  0  0  0  0  0
   -2.9468   26.0816  -25.2504 H   0  0  0  0  0  0  0  0  0  0  0  0
   -1.9197   24.6079  -25.2504 H   0  0  0  0  0  0  0  0  0  0  0  0
   -0.1568   27.4868  -25.9811 H   0  0  0  0  0  0  0  0  0  0  0  0
    0.3656   26.7230  -27.5207 H   0  0  0  0  0  0  0  0  0  0  0  0
   -0.9755   27.9181  -27.5207 H   0  0  0  0  0  0  0  0  0  0  0  0
   -4.9423   20.0926  -31.6248 H   0  0  0  0  0  0  0  0  0  0  0  0
  1  2  1  0
  2  3  2  0
  3  4  1  0
  4  5  2  0
  5  6  1  0
  6  7  2  0
  7  8  1  0
  8  9  1  0
  8 10  2  0
  7 11  1  0
 11 12  1  0
 12 13  2  0
 12 14  1  0
 14 15  1  0
 15 16  2  0
 15 17  1  0
 17 18  1  0
 18 19  1  0
 19 20  2  0
 19 21  1  0
 21 22  1  0
 21 23  1  0
 11 24  1  0
 24 25  2  0
 25  2  1  0
 24  5  1  0
  1 26  1  0
  1 27  1  0
  1 28  1  0
  3 29  1  0
  4 30  1  0
  6 31  1  0
  9 32  1  0
 18 33  1  0
 18 34  1  0
 22 35  1  0
 22 36  1  0
 22 37  1  0
 23 38  1  0
 23 39  1  0
 23 40  1  0
 25 41  1  0
M  CHG  1   9  -1
M  END
>  <UniqueID>  (9) 
8

>  <SMILES>  (9) 
Cc1ccc2cc(C([NH-])=O)n(C(=O)OC(=O)OCC(=O)N(C)C)c2c1

>  <Energy>  (9) 
76.08466129382825

>  <Genealogy>  (9) 
Cc1ccc2cc(C([NH-])=O)n(C(=O)OC(=O)OCC(=O)N(C)C)c2c1 (protonated)
Cc1ccc2cc(C([NH-])=O)n(C(=O)OC(=O)OCC(=O)N(C)C)c2c1 (3D coordinates assigned)
Cc1ccc2cc(C([NH-])=O)n(C(=O)OC(=O)OCC(=O)N(C)C)c2c1 (optimized conformer: 76.08466129382825 kcal/mol)

>  <smiles>  (9) 
Cc1ccc2cc(C(N)=O)n(C(=O)OC(=O)OCC(=O)N(C)C)c2c1

>  <score_type>  (9) 
oracle

>  <origin>  (9) 
adg

>  <m_score__min__energy>  (9) 
-10.34

>  <m_primary>  (9) 
energy

$$$$
9:0
     RDKit          3D

 35 37  0  0  0  0  0  0  0  0999 V2000
   -5.4720   25.3010  -28.6430 N   0  0  0  0  0  0  0  0  0  0  0  0
   -6.5160   24.9200  -29.5380 C   0  0  0  0  0  0  0  0  0  0  0  0
   -7.5120   25.6770  -29.6840 O   0  0  0  0  0  0  0  0  0  0  0  0
   -6.4110   23.6900  -30.3490 C   0  0  0  0  0  0  0  0  0  0  0  0
   -7.4960   22.8620  -30.6230 C   0  0  0  0  0  0  0  0  0  0  0  0
   -7.0020   21.8850  -31.4560 C   0  0  0  0  0  0  0  0  0  0  0  0
   -7.6470   20.7950  -32.0350 C   0  0  0  0  0  0  0  0  0  0  0  0
   -6.8840   19.9170  -32.8230 C   0  0  0  0  0  0  0  0  0  0  0  0
   -5.4970   20.1360  -33.0050 C   0  0  0  0  0  0  0  0  0  0  0  0
   -4.7230   19.2010  -33.7740 N   0  0  0  0  0  0  0  0  0  0  0  0
   -3.2760   19.3790  -33.8920 C   0  0  0  0  0  0  0  0  0  0  0  0
   -2.6140   18.0290  -34.1890 C   0  0  0  0  0  0  0  0  0  0  0  0
   -3.2270   17.4010  -35.2990 O   0  0  0  0  0  0  0  0  0  0  0  0
   -4.5690   17.0720  -34.9840 C   0  0  0  0  0  0  0  0  0  0  0  0
   -5.3990   18.3370  -34.7410 C   0  0  0  0  0  0  0  0  0  0  0  0
   -4.8750   21.2570  -32.4100 C   0  0  0  0  0  0  0  0  0  0  0  0
   -5.6650   22.1310  -31.6510 C   0  0  0  0  0  0  0  0  0  0  0  0
   -5.2860   23.2420  -30.9760 N   0  0  0  0  0  0  0  0  0  0  0  0
   -3.9490   23.7610  -30.8440 C   0  0  0  0  0  0  0  0  0  0  0  0
   -2.9540   22.9920  -30.9250 O   0  0  0  0  0  0  0  0  0  0  0  0
   -3.7430   25.1140  -30.6040 O   0  0  0  0  0  0  0  0  0  0  0  0
   -4.5630   24.7860  -28.6270 H   0  0  0  0  0  0  0  0  0  0  0  0
   -5.5800   26.1480  -28.0410 H   0  0  0  0  0  0  0  0  0  0  0  0
   -8.5266   22.9665  -30.2530 H   0  0  0  0  0  0  0  0  0  0  0  0
   -8.7229   20.6263  -31.8799 H   0  0  0  0  0  0  0  0  0  0  0  0
   -7.3678   19.0530  -33.3021 H   0  0  0  0  0  0  0  0  0  0  0  0
   -3.0591   20.0810  -34.7107 H   0  0  0  0  0  0  0  0  0  0  0  0
   -2.8793   19.7803  -32.9478 H   0  0  0  0  0  0  0  0  0  0  0  0
   -1.5485   18.1908  -34.4095 H   0  0  0  0  0  0  0  0  0  0  0  0
   -2.7291   17.3792  -33.3089 H   0  0  0  0  0  0  0  0  0  0  0  0
   -5.0077   16.5085  -35.8207 H   0  0  0  0  0  0  0  0  0  0  0  0
   -4.5762   16.4650  -34.0666 H   0  0  0  0  0  0  0  0  0  0  0  0
   -5.5226   18.8794  -35.6900 H   0  0  0  0  0  0  0  0  0  0  0  0
   -6.3840   18.0515  -34.3432 H   0  0  0  0  0  0  0  0  0  0  0  0
   -3.7979   21.4389  -32.5394 H   0  0  0  0  0  0  0  0  0  0  0  0
  1  2  1  0
  2  3  2  0
  2  4  1  0
  4  5  2  0
  5  6  1  0
  6  7  2  0
  7  8  1  0
  8  9  2  0
  9 10  1  0
 10 11  1  0
 11 12  1  0
 12 13  1  0
 13 14  1  0
 14 15  1  0
  9 16  1  0
 16 17  2  0
 17 18  1  0
 18 19  1  0
 19 20  2  0
 19 21  1  0
 18  4  1  0
 17  6  1  0
 15 10  1  0
  1 22  1  0
  1 23  1  0
  5 24  1  0
  7 25  1  0
  8 26  1  0
 11 27  1  0
 11 28  1  0
 12 29  1  0
 12 30  1  0
 14 31  1  0
 14 32  1  0
 15 33  1  0
 15 34  1  0
 16 35  1  0
M  CHG  1  21  -1
M  END
>  <UniqueID>  (10) 
9

>  <SMILES>  (10) 
NC(=O)c1cc2ccc(N3CCOCC3)cc2n1C(=O)[O-]

>  <Energy>  (10) 
82.28292093538384

>  <Genealogy>  (10) 
NC(=O)c1cc2ccc(N3CCOCC3)cc2n1C(=O)[O-] (protonated)
NC(=O)c1cc2ccc(N3CCOCC3)cc2n1C(=O)[O-] (3D coordinates assigned)
NC(=O)c1cc2ccc(N3CCOCC3)cc2n1C(=O)[O-] (nonaromatic ring conformer: 82.28292093538384 kcal/mol)

>  <smiles>  (10) 
NC(=O)c1cc2ccc(N3CCOCC3)cc2n1C(=O)O

>  <score_type>  (10) 
oracle

>  <origin>  (10) 
adg

>  <m_score__min__energy>  (10) 
-9.3399999999999999

>  <m_primary>  (10) 
energy

$$$$
10:0
     RDKit          3D

 39 41  0  0  0  0  0  0  0  0999 V2000
   -3.8610   25.3410  -30.8740 N   0  0  0  0  0  0  0  0  0  0  0  0
   -5.2370   25.2200  -30.5230 C   0  0  0  0  0  0  0  0  0  0  0  0
   -5.8000   26.1580  -29.9010 O   0  0  0  0  0  0  0  0  0  0  0  0
   -5.9760   23.9850  -30.8560 C   0  0  0  0  0  0  0  0  0  0  0  0
   -7.3160   23.9670  -31.2390 C   0  0  0  0  0  0  0  0  0  0  0  0
   -7.5940   22.6510  -31.5300 C   0  0  0  0  0  0  0  0  0  0  0  0
   -8.7800   22.0530  -31.9480 C   0  0  0  0  0  0  0  0  0  0  0  0
   -8.7820   20.6620  -32.1460 C   0  0  0  0  0  0  0  0  0  0  0  0
   -7.6060   19.9010  -31.9330 C   0  0  0  0  0  0  0  0  0  0  0  0
   -7.6360   18.4070  -32.0930 C   0  0  0  0  0  0  0  0  0  0  0  0
   -6.6520   17.9980  -33.0910 N   0  0  0  0  0  0  0  0  0  0  0  0
   -6.1520   18.7720  -34.0710 C   0  0  0  0  0  0  0  0  0  0  0  0
   -5.3130   18.0000  -34.8440 C   0  0  0  0  0  0  0  0  0  0  0  0
   -5.3620   16.7430  -34.2700 C   0  0  0  0  0  0  0  0  0  0  0  0
   -6.1900   16.7630  -33.2080 N   0  0  0  0  0  0  0  0  0  0  0  0
   -6.4250   20.5390  -31.4980 C   0  0  0  0  0  0  0  0  0  0  0  0
   -6.4500   21.9260  -31.3190 C   0  0  0  0  0  0  0  0  0  0  0  0
   -5.4510   22.7280  -30.8980 N   0  0  0  0  0  0  0  0  0  0  0  0
   -4.1360   22.2980  -30.5100 C   0  0  0  0  0  0  0  0  0  0  0  0
   -3.3150   21.9410  -31.3960 O   0  0  0  0  0  0  0  0  0  0  0  0
   -3.7300   22.2300  -29.0670 C   0  0  0  0  0  0  0  0  0  0  0  0
   -3.5260   23.5310  -28.5660 O   0  0  0  0  0  0  0  0  0  0  0  0
   -1.9240   24.0020  -28.9090 P   0  0  2  0  0  0  0  0  0  0  0  0
   -0.9910   23.5110  -27.8230 O   0  0  0  0  0  0  0  0  0  0  0  0
   -1.8560   25.6900  -28.9650 O   0  0  0  0  0  0  0  0  0  0  0  0
   -1.4360   23.3880  -30.4110 O   0  0  0  0  0  0  0  0  0  0  0  0
   -3.1390   24.7270  -30.4390 H   0  0  0  0  0  0  0  0  0  0  0  0
   -8.0048   24.8227  -31.2964 H   0  0  0  0  0  0  0  0  0  0  0  0
   -9.6874   22.6512  -32.1180 H   0  0  0  0  0  0  0  0  0  0  0  0
   -9.7053   20.1591  -32.4694 H   0  0  0  0  0  0  0  0  0  0  0  0
   -7.3990   17.9315  -31.1298 H   0  0  0  0  0  0  0  0  0  0  0  0
   -8.6386   18.0964  -32.4221 H   0  0  0  0  0  0  0  0  0  0  0  0
   -6.3747   19.8377  -34.2280 H   0  0  0  0  0  0  0  0  0  0  0  0
   -4.7322   18.3142  -35.7238 H   0  0  0  0  0  0  0  0  0  0  0  0
   -4.8091   15.8613  -34.6263 H   0  0  0  0  0  0  0  0  0  0  0  0
   -5.5092   19.9611  -31.3048 H   0  0  0  0  0  0  0  0  0  0  0  0
   -4.5237   21.7359  -28.4874 H   0  0  0  0  0  0  0  0  0  0  0  0
   -2.7952   21.6568  -28.9797 H   0  0  0  0  0  0  0  0  0  0  0  0
   -2.1200   23.7010  -31.0560 H   0  0  0  0  0  0  0  0  0  0  0  0
  1  2  1  0
  2  3  2  0
  2  4  1  0
  4  5  2  0
  5  6  1  0
  6  7  2  0
  7  8  1  0
  8  9  2  0
  9 10  1  0
 10 11  1  0
 11 12  1  0
 12 13  2  0
 13 14  1  0
 14 15  2  0
  9 16  1  0
 16 17  2  0
 17 18  1  0
 18 19  1  0
 19 20  2  0
 19 21  1  0
 21 22  1  0
 22 23  1  0
 23 24  2  0
 23 25  1  6
 23 26  1  0
 18  4  1  0
 17  6  1  0
 15 11  1  0
  1 27  1  0
  5 28  1  0
  7 29  1  0
  8 30  1  0
 10 31  1  0
 10 32  1  0
 12 33  1  0
 13 34  1  0
 14 35  1  0
 16 36  1  0
 21 37  1  0
 21 38  1  0
 26 39  1  0
M  CHG  2   1  -1  25  -1
M  END
>  <UniqueID>  (11) 
10

>  <SMILES>  (11) 
[NH-]C(=O)c1cc2ccc(Cn3cccn3)cc2n1C(=O)CO[P@](=O)([O-])O

>  <Energy>  (11) 
106.02911294320047

>  <Genealogy>  (11) 
[NH-]C(=O)c1cc2ccc(Cn3cccn3)cc2n1C(=O)COP(=O)([O-])O (protonated)
[NH-]C(=O)c1cc2ccc(Cn3cccn3)cc2n1C(=O)CO[P@](=O)([O-])O (chirality)
[NH-]C(=O)c1cc2ccc(Cn3cccn3)cc2n1C(=O)CO[P@](=O)([O-])O (3D coordinates assigned)
[NH-]C(=O)c1cc2ccc(Cn3cccn3)cc2n1C(=O)CO[P@](=O)([O-])O (optimized conformer: 106.02911294320047 kcal/mol)

>  <smiles>  (11) 
NC(=O)c1cc2ccc(Cn3cccn3)cc2n1C(=O)COP(=O)(O)O

>  <score_type>  (11) 
oracle

>  <origin>  (11) 
adg

>  <m_score__min__energy>  (11) 
-12.619999999999999

>  <m_primary>  (11) 
energy

$$$$
11:0
     RDKit          3D

 39 40  0  0  0  0  0  0  0  0999 V2000
   -4.1120   23.6590  -27.6640 C   0  0  0  0  0  0  0  0  0  0  0  0
   -3.0590   23.5140  -28.6870 N   0  0  1  0  0  0  0  0  0  0  0  0
   -1.6850   23.5660  -28.1260 C   0  0  0  0  0  0  0  0  0  0  0  0
   -0.8300   24.7670  -28.5750 C   0  0  0  0  0  0  0  0  0  0  0  0
   -1.6360   25.8570  -28.9200 O   0  0  0  0  0  0  0  0  0  0  0  0
   -3.2620   22.3400  -29.5170 C   0  0  0  0  0  0  0  0  0  0  0  0
   -2.9430   21.1940  -29.0950 O   0  0  0  0  0  0  0  0  0  0  0  0
   -3.8280   22.4630  -30.8780 C   0  0  0  0  0  0  0  0  0  0  0  0
   -3.0790   22.3610  -31.8880 O   0  0  0  0  0  0  0  0  0  0  0  0
   -5.2280   22.7130  -31.0640 N   0  0  0  0  0  0  0  0  0  0  0  0
   -5.8860   23.8970  -30.9320 C   0  0  0  0  0  0  0  0  0  0  0  0
   -5.2810   25.1750  -30.5000 C   0  0  0  0  0  0  0  0  0  0  0  0
   -3.8630   25.3220  -30.4880 N   0  0  0  0  0  0  0  0  0  0  0  0
   -6.0040   26.1450  -30.1520 O   0  0  0  0  0  0  0  0  0  0  0  0
   -7.2390   23.7370  -31.2290 C   0  0  0  0  0  0  0  0  0  0  0  0
   -7.3860   22.4060  -31.5530 C   0  0  0  0  0  0  0  0  0  0  0  0
   -8.5140   21.7000  -31.9580 C   0  0  0  0  0  0  0  0  0  0  0  0
   -8.3620   20.3370  -32.2670 C   0  0  0  0  0  0  0  0  0  0  0  0
   -7.0960   19.7040  -32.1570 C   0  0  0  0  0  0  0  0  0  0  0  0
   -6.9330   18.2580  -32.5520 C   0  0  0  0  0  0  0  0  0  0  0  0
   -8.1100   17.5600  -32.3450 F   0  0  0  0  0  0  0  0  0  0  0  0
   -6.5960   18.1870  -33.8900 F   0  0  0  0  0  0  0  0  0  0  0  0
   -5.9360   17.6570  -31.8030 F   0  0  0  0  0  0  0  0  0  0  0  0
   -5.9700   20.4650  -31.7660 C   0  0  0  0  0  0  0  0  0  0  0  0
   -6.1570   21.8130  -31.4480 C   0  0  0  0  0  0  0  0  0  0  0  0
   -3.6613   23.5969  -26.6625 H   0  0  0  0  0  0  0  0  0  0  0  0
   -4.6074   24.6338  -27.7834 H   0  0  0  0  0  0  0  0  0  0  0  0
   -4.8525   22.8543  -27.7834 H   0  0  0  0  0  0  0  0  0  0  0  0
   -3.1570   24.3550  -29.3040 H   0  0  0  0  0  0  0  0  0  0  0  0
   -1.7677   23.5999  -27.0296 H   0  0  0  0  0  0  0  0  0  0  0  0
   -1.1702   22.6706  -28.5044 H   0  0  0  0  0  0  0  0  0  0  0  0
   -0.1619   25.0603  -27.7518 H   0  0  0  0  0  0  0  0  0  0  0  0
   -0.2464   24.4699  -29.4589 H   0  0  0  0  0  0  0  0  0  0  0  0
   -1.9880   25.6640  -29.8280 H   0  0  0  0  0  0  0  0  0  0  0  0
   -3.3640   25.6390  -29.6290 H   0  0  0  0  0  0  0  0  0  0  0  0
   -8.0222   24.5091  -31.2089 H   0  0  0  0  0  0  0  0  0  0  0  0
   -9.4945   22.1928  -32.0341 H   0  0  0  0  0  0  0  0  0  0  0  0
   -9.2342   19.7541  -32.5979 H   0  0  0  0  0  0  0  0  0  0  0  0
   -4.9712   20.0071  -31.7134 H   0  0  0  0  0  0  0  0  0  0  0  0
  1  2  1  0
  2  3  1  0
  3  4  1  0
  4  5  1  0
  2  6  1  0
  6  7  2  0
  6  8  1  0
  8  9  2  0
  8 10  1  0
 10 11  1  0
 11 12  1  0
 12 13  1  0
 12 14  2  0
 11 15  2  0
 15 16  1  0
 16 17  2  0
 17 18  1  0
 18 19  2  0
 19 20  1  0
 20 21  1  0
 20 22  1  0
 20 23  1  0
 19 24  1  0
 24 25  2  0
 25 10  1  0
 25 16  1  0
  1 26  1  0
  1 27  1  0
  1 28  1  0
  2 29  1  6
  3 30  1  0
  3 31  1  0
  4 32  1  0
  4 33  1  0
  5 34  1  0
 13 35  1  0
 15 36  1  0
 17 37  1  0
 18 38  1  0
 24 39  1  0
M  CHG  2   2   1  13  -1
M  END
>  <UniqueID>  (12) 
11

>  <SMILES>  (12) 
C[N@@H+](CCO)C(=O)C(=O)n1c(C([NH-])=O)cc2ccc(C(F)(F)F)cc21

>  <Energy>  (12) 
82.91206805768557

>  <Genealogy>  (12) 
C[NH+](CCO)C(=O)C(=O)n1c(C([NH-])=O)cc2ccc(C(F)(F)F)cc21 (protonated)
C[N@@H+](CCO)C(=O)C(=O)n1c(C([NH-])=O)cc2ccc(C(F)(F)F)cc21 (chirality)
C[N@@H+](CCO)C(=O)C(=O)n1c(C([NH-])=O)cc2ccc(C(F)(F)F)cc21 (3D coordinates assigned)
C[N@@H+](CCO)C(=O)C(=O)n1c(C([NH-])=O)cc2ccc(C(F)(F)F)cc21 (optimized conformer: 82.91206805768557 kcal/mol)

>  <smiles>  (12) 
CN(CCO)C(=O)C(=O)n1c(C(N)=O)cc2ccc(C(F)(F)F)cc21

>  <score_type>  (12) 
oracle

>  <origin>  (12) 
adg

>  <m_score__min__energy>  (12) 
-9.1699999999999999

>  <m_primary>  (12) 
energy

$$$$
12:0
     RDKit          3D

 51 53  0  0  0  0  0  0  0  0999 V2000
   -8.7790   23.0970  -31.9900 C   0  0  0  0  0  0  0  0  0  0  0  0
   -7.3700   22.8000  -31.4420 C   0  0  0  0  0  0  0  0  0  0  0  0
   -7.3460   22.9250  -29.9070 C   0  0  0  0  0  0  0  0  0  0  0  0
   -6.3830   23.8170  -32.0370 C   0  0  0  0  0  0  0  0  0  0  0  0
   -6.9310   21.4960  -31.8490 O   0  0  0  0  0  0  0  0  0  0  0  0
   -7.6940   20.3180  -31.8220 C   0  0  0  0  0  0  0  0  0  0  0  0
   -8.6390   20.1820  -30.9950 O   0  0  0  0  0  0  0  0  0  0  0  0
   -7.3450   19.2360  -32.7170 N   0  0  0  0  0  0  0  0  0  0  0  0
   -6.4950   18.2040  -32.0580 C   0  0  0  0  0  0  0  0  0  0  0  0
   -4.9990   18.3040  -32.4180 C   0  0  0  0  0  0  0  0  0  0  0  0
   -4.6310   19.6950  -32.7000 N   0  0  0  0  0  0  0  0  0  0  0  0
   -3.5670   20.3470  -31.9820 C   0  0  0  0  0  0  0  0  0  0  0  0
   -2.2960   19.7290  -31.8710 C   0  0  0  0  0  0  0  0  0  0  0  0
   -1.2480   20.3600  -31.1810 C   0  0  0  0  0  0  0  0  0  0  0  0
   -1.4930   21.6130  -30.6260 C   0  0  0  0  0  0  0  0  0  0  0  0
   -0.6640   22.4340  -29.8970 C   0  0  0  0  0  0  0  0  0  0  0  0
   -1.4290   23.5600  -29.5990 C   0  0  0  0  0  0  0  0  0  0  0  0
   -0.8930   24.7430  -28.8940 C   0  0  0  0  0  0  0  0  0  0  0  0
   -1.6030   25.9790  -28.9420 N   0  0  0  0  0  0  0  0  0  0  0  0
    0.1650   24.6660  -28.2170 O   0  0  0  0  0  0  0  0  0  0  0  0
   -2.6850   23.4360  -30.1180 N   0  0  0  0  0  0  0  0  0  0  0  0
   -3.7890   24.3460  -29.9870 C   0  0  0  0  0  0  0  0  0  0  0  0
   -3.8450   25.3860  -30.6940 O   0  0  0  0  0  0  0  0  0  0  0  0
   -4.7940   24.1000  -29.0590 O   0  0  0  0  0  0  0  0  0  0  0  0
   -2.7060   22.2390  -30.7450 C   0  0  0  0  0  0  0  0  0  0  0  0
   -3.7740   21.6240  -31.4090 C   0  0  0  0  0  0  0  0  0  0  0  0
   -5.3860   20.4270  -33.7220 C   0  0  0  0  0  0  0  0  0  0  0  0
   -6.7560   19.7680  -33.9670 C   0  0  0  0  0  0  0  0  0  0  0  0
   -9.4753   23.2438  -31.1511 H   0  0  0  0  0  0  0  0  0  0  0  0
   -8.7486   24.0085  -32.6051 H   0  0  0  0  0  0  0  0  0  0  0  0
   -9.1191   22.2508  -32.6051 H   0  0  0  0  0  0  0  0  0  0  0  0
   -7.5352   21.9398  -29.4559 H   0  0  0  0  0  0  0  0  0  0  0  0
   -6.3608   23.2929  -29.5844 H   0  0  0  0  0  0  0  0  0  0  0  0
   -8.1249   23.6316  -29.5844 H   0  0  0  0  0  0  0  0  0  0  0  0
   -5.8680   24.3477  -31.2227 H   0  0  0  0  0  0  0  0  0  0  0  0
   -5.6428   23.2901  -32.6571 H   0  0  0  0  0  0  0  0  0  0  0  0
   -6.9319   24.5411  -32.6571 H   0  0  0  0  0  0  0  0  0  0  0  0
   -8.2450   18.7700  -32.9820 H   0  0  0  0  0  0  0  0  0  0  0  0
   -6.5972   18.3153  -30.9684 H   0  0  0  0  0  0  0  0  0  0  0  0
   -6.8451   17.2250  -32.4172 H   0  0  0  0  0  0  0  0  0  0  0  0
   -4.3980   17.9344  -31.5741 H   0  0  0  0  0  0  0  0  0  0  0  0
   -4.8073   17.6963  -33.3146 H   0  0  0  0  0  0  0  0  0  0  0  0
   -2.1286   18.7438  -32.3307 H   0  0  0  0  0  0  0  0  0  0  0  0
   -0.2637   19.8789  -31.0821 H   0  0  0  0  0  0  0  0  0  0  0  0
    0.3806   22.2424  -29.6103 H   0  0  0  0  0  0  0  0  0  0  0  0
   -2.6470   25.9980  -28.9690 H   0  0  0  0  0  0  0  0  0  0  0  0
   -4.7519   22.1222  -31.4836 H   0  0  0  0  0  0  0  0  0  0  0  0
   -5.5393   21.4626  -33.3844 H   0  0  0  0  0  0  0  0  0  0  0  0
   -4.8142   20.4111  -34.6616 H   0  0  0  0  0  0  0  0  0  0  0  0
   -7.4402   20.5175  -34.3915 H   0  0  0  0  0  0  0  0  0  0  0  0
   -6.6100   18.9262  -34.6599 H   0  0  0  0  0  0  0  0  0  0  0  0
  1  2  1  0
  2  3  1  0
  2  4  1  0
  2  5  1  0
  5  6  1  0
  6  7  2  0
  6  8  1  0
  8  9  1  0
  9 10  1  0
 10 11  1  0
 11 12  1  0
 12 13  2  0
 13 14  1  0
 14 15  2  0
 15 16  1  0
 16 17  2  0
 17 18  1  0
 18 19  1  0
 18 20  2  0
 17 21  1  0
 21 22  1  0
 22 23  2  0
 22 24  1  0
 21 25  1  0
 25 26  2  0
 11 27  1  0
 27 28  1  0
 28  8  1  0
 26 12  1  0
 25 15  1  0
  1 29  1  0
  1 30  1  0
  1 31  1  0
  3 32  1  0
  3 33  1  0
  3 34  1  0
  4 35  1  0
  4 36  1  0
  4 37  1  0
  8 38  1  0
  9 39  1  0
  9 40  1  0
 10 41  1  0
 10 42  1  0
 13 43  1  0
 14 44  1  0
 16 45  1  0
 19 46  1  0
 26 47  1  0
 27 48  1  0
 27 49  1  0
 28 50  1  0
 28 51  1  0
M  CHG  3   8   1  19  -1  24  -1
M  END
>  <UniqueID>  (13) 
12

>  <SMILES>  (13) 
CC(C)(C)OC(=O)[NH+]1CCN(c2ccc3cc(C([NH-])=O)n(C(=O)[O-])c3c2)CC1

>  <Energy>  (13) 
99.53731430202559

>  <Genealogy>  (13) 
CC(C)(C)OC(=O)[NH+]1CCN(c2ccc3cc(C([NH-])=O)n(C(=O)[O-])c3c2)CC1 (protonated)
CC(C)(C)OC(=O)[NH+]1CCN(c2ccc3cc(C([NH-])=O)n(C(=O)[O-])c3c2)CC1 (3D coordinates assigned)
CC(C)(C)OC(=O)[NH+]1CCN(c2ccc3cc(C([NH-])=O)n(C(=O)[O-])c3c2)CC1 (nonaromatic ring conformer: 99.53731430202559 kcal/mol)

>  <smiles>  (13) 
CC(C)(C)OC(=O)N1CCN(c2ccc3cc(C(N)=O)n(C(=O)O)c3c2)CC1

>  <score_type>  (13) 
oracle

>  <origin>  (13) 
adg

>  <m_score__min__energy>  (13) 
-11.970000000000001

>  <m_primary>  (13) 
energy

$$$$
13:0
     RDKit          3D

 39 40  0  0  0  0  0  0  0  0999 V2000
   -7.2510   18.3740  -32.5080 C   0  0  0  0  0  0  0  0  0  0  0  0
   -7.3260   19.8420  -32.2110 C   0  0  0  0  0  0  0  0  0  0  0  0
   -8.5680   20.5190  -32.2890 C   0  0  0  0  0  0  0  0  0  0  0  0
   -8.6560   21.8890  -31.9900 C   0  0  0  0  0  0  0  0  0  0  0  0
   -7.4930   22.5470  -31.5970 C   0  0  0  0  0  0  0  0  0  0  0  0
   -7.2920   23.8670  -31.2680 C   0  0  0  0  0  0  0  0  0  0  0  0
   -5.9380   23.9680  -30.9540 C   0  0  0  0  0  0  0  0  0  0  0  0
   -5.3070   25.2110  -30.4590 C   0  0  0  0  0  0  0  0  0  0  0  0
   -3.9800   25.5390  -30.8630 N   0  0  0  0  0  0  0  0  0  0  0  0
   -5.9400   26.0030  -29.7130 O   0  0  0  0  0  0  0  0  0  0  0  0
   -5.3240   22.7570  -31.0910 N   0  0  0  0  0  0  0  0  0  0  0  0
   -3.9330   22.4460  -30.9170 C   0  0  0  0  0  0  0  0  0  0  0  0
   -3.0580   23.3110  -31.1960 O   0  0  0  0  0  0  0  0  0  0  0  0
   -3.5640   21.1730  -30.4610 O   0  0  0  0  0  0  0  0  0  0  0  0
   -2.3180   20.8420  -29.9170 C   0  0  0  0  0  0  0  0  0  0  0  0
   -1.2700   20.8740  -30.6210 O   0  0  0  0  0  0  0  0  0  0  0  0
   -2.2520   20.4670  -28.5720 O   0  0  0  0  0  0  0  0  0  0  0  0
   -2.1770   21.4090  -27.5060 C   0  0  0  0  0  0  0  0  0  0  0  0
   -3.2160   22.3780  -27.6260 O   0  0  0  0  0  0  0  0  0  0  0  0
   -2.9660   23.7500  -27.7280 C   0  0  0  0  0  0  0  0  0  0  0  0
   -3.7880   24.5140  -28.3050 O   0  0  0  0  0  0  0  0  0  0  0  0
   -1.6910   24.3060  -27.1880 C   0  0  0  0  0  0  0  0  0  0  0  0
   -0.9530   25.0300  -28.2670 C   0  0  0  0  0  0  0  0  0  0  0  0
    0.2480   24.7460  -28.5130 O   0  0  0  0  0  0  0  0  0  0  0  0
   -1.5770   26.0520  -28.9700 O   0  0  0  0  0  0  0  0  0  0  0  0
   -6.2910   21.8980  -31.4830 C   0  0  0  0  0  0  0  0  0  0  0  0
   -6.1700   20.5380  -31.7930 C   0  0  0  0  0  0  0  0  0  0  0  0
   -7.2222   17.8099  -31.5641 H   0  0  0  0  0  0  0  0  0  0  0  0
   -8.1349   18.0718  -33.0889 H   0  0  0  0  0  0  0  0  0  0  0  0
   -6.3409   18.1635  -33.0889 H   0  0  0  0  0  0  0  0  0  0  0  0
   -9.4718   19.9670  -32.5864 H   0  0  0  0  0  0  0  0  0  0  0  0
   -9.6136   22.4252  -32.0640 H   0  0  0  0  0  0  0  0  0  0  0  0
   -8.0411   24.6724  -31.2554 H   0  0  0  0  0  0  0  0  0  0  0  0
   -3.1610   25.2910  -30.2640 H   0  0  0  0  0  0  0  0  0  0  0  0
   -2.2830   20.8806  -26.5471 H   0  0  0  0  0  0  0  0  0  0  0  0
   -1.2044   21.9210  -27.5495 H   0  0  0  0  0  0  0  0  0  0  0  0
   -1.9161   25.0044  -26.3685 H   0  0  0  0  0  0  0  0  0  0  0  0
   -1.0668   23.4813  -26.8136 H   0  0  0  0  0  0  0  0  0  0  0  0
   -5.2002   20.0250  -31.7132 H   0  0  0  0  0  0  0  0  0  0  0  0
  1  2  1  0
  2  3  2  0
  3  4  1  0
  4  5  2  0
  5  6  1  0
  6  7  2  0
  7  8  1  0
  8  9  1  0
  8 10  2  0
  7 11  1  0
 11 12  1  0
 12 13  2  0
 12 14  1  0
 14 15  1  0
 15 16  2  0
 15 17  1  0
 17 18  1  0
 18 19  1  0
 19 20  1  0
 20 21  2  0
 20 22  1  0
 22 23  1  0
 23 24  2  0
 23 25  1  0
 11 26  1  0
 26 27  2  0
 27  2  1  0
 26  5  1  0
  1 28  1  0
  1 29  1  0
  1 30  1  0
  3 31  1  0
  4 32  1  0
  6 33  1  0
  9 34  1  0
 18 35  1  0
 18 36  1  0
 22 37  1  0
 22 38  1  0
 27 39  1  0
M  CHG  2   9  -1  25  -1
M  END
>  <UniqueID>  (14) 
13

>  <SMILES>  (14) 
Cc1ccc2cc(C([NH-])=O)n(C(=O)OC(=O)OCOC(=O)CC(=O)[O-])c2c1

>  <Energy>  (14) 
72.59174756207477

>  <Genealogy>  (14) 
Cc1ccc2cc(C([NH-])=O)n(C(=O)OC(=O)OCOC(=O)CC(=O)[O-])c2c1 (protonated)
Cc1ccc2cc(C([NH-])=O)n(C(=O)OC(=O)OCOC(=O)CC(=O)[O-])c2c1 (3D coordinates assigned)
Cc1ccc2cc(C([NH-])=O)n(C(=O)OC(=O)OCOC(=O)CC(=O)[O-])c2c1 (optimized conformer: 72.59174756207477 kcal/mol)

>  <smiles>  (14) 
Cc1ccc2cc(C(N)=O)n(C(=O)OC(=O)OCOC(=O)CC(=O)O)c2c1

>  <score_type>  (14) 
oracle

>  <origin>  (14) 
adg

>  <m_score__min__energy>  (14) 
-11.960000000000001

>  <m_primary>  (14) 
energy

$$$$
14:0
     RDKit          3D

 38 39  0  0  0  0  0  0  0  0999 V2000
   -7.6460   18.7490  -32.6330 C   0  0  0  0  0  0  0  0  0  0  0  0
   -7.5940   20.1840  -32.1990 C   0  0  0  0  0  0  0  0  0  0  0  0
   -8.7920   20.8890  -31.9300 C   0  0  0  0  0  0  0  0  0  0  0  0
   -8.7540   22.2180  -31.4760 C   0  0  0  0  0  0  0  0  0  0  0  0
   -7.5080   22.8100  -31.2950 C   0  0  0  0  0  0  0  0  0  0  0  0
   -7.1820   24.0660  -30.8380 C   0  0  0  0  0  0  0  0  0  0  0  0
   -5.7900   24.1100  -30.8380 C   0  0  0  0  0  0  0  0  0  0  0  0
   -5.0140   25.3200  -30.4900 C   0  0  0  0  0  0  0  0  0  0  0  0
   -3.5900   25.2670  -30.4690 N   0  0  0  0  0  0  0  0  0  0  0  0
   -5.5970   26.3910  -30.1750 O   0  0  0  0  0  0  0  0  0  0  0  0
   -5.2740   22.9250  -31.2720 N   0  0  0  0  0  0  0  0  0  0  0  0
   -3.8910   22.5460  -31.3460 C   0  0  0  0  0  0  0  0  0  0  0  0
   -3.3700   22.2990  -32.4670 O   0  0  0  0  0  0  0  0  0  0  0  0
   -3.1430   22.4290  -30.1660 O   0  0  0  0  0  0  0  0  0  0  0  0
   -1.7590   22.6140  -30.0680 C   0  0  0  0  0  0  0  0  0  0  0  0
   -0.9590   21.6570  -30.2600 O   0  0  0  0  0  0  0  0  0  0  0  0
   -1.2740   23.8900  -29.7630 O   0  0  0  0  0  0  0  0  0  0  0  0
   -0.9700   24.3060  -28.4340 C   0  0  0  0  0  0  0  0  0  0  0  0
   -1.9070   25.2840  -27.9940 O   0  0  0  0  0  0  0  0  0  0  0  0
   -2.7390   25.0950  -26.8870 C   0  0  0  0  0  0  0  0  0  0  0  0
   -2.3560   25.4180  -25.7290 O   0  0  0  0  0  0  0  0  0  0  0  0
   -4.0740   24.4520  -27.0720 C   0  0  0  0  0  0  0  0  0  0  0  0
   -4.0330   23.5640  -28.1560 O   0  0  0  0  0  0  0  0  0  0  0  0
   -6.3380   22.1410  -31.5510 C   0  0  0  0  0  0  0  0  0  0  0  0
   -6.3470   20.8110  -31.9880 C   0  0  0  0  0  0  0  0  0  0  0  0
   -7.6696   18.0984  -31.7463 H   0  0  0  0  0  0  0  0  0  0  0  0
   -8.5508   18.5807  -33.2355 H   0  0  0  0  0  0  0  0  0  0  0  0
   -6.7557   18.5156  -33.2355 H   0  0  0  0  0  0  0  0  0  0  0  0
   -9.7618   20.3914  -32.0779 H   0  0  0  0  0  0  0  0  0  0  0  0
   -9.6809   22.7734  -31.2700 H   0  0  0  0  0  0  0  0  0  0  0  0
   -7.8741   24.8660  -30.5365 H   0  0  0  0  0  0  0  0  0  0  0  0
   -3.0870   24.6500  -29.7930 H   0  0  0  0  0  0  0  0  0  0  0  0
   -1.0125   23.4354  -27.7629 H   0  0  0  0  0  0  0  0  0  0  0  0
    0.0383   24.7454  -28.4192 H   0  0  0  0  0  0  0  0  0  0  0  0
   -4.3420   23.9000  -26.1590 H   0  0  0  0  0  0  0  0  0  0  0  0
   -4.8250   25.2306  -27.2716 H   0  0  0  0  0  0  0  0  0  0  0  0
   -3.3190   23.8910  -28.7630 H   0  0  0  0  0  0  0  0  0  0  0  0
   -5.4062   20.2683  -32.1625 H   0  0  0  0  0  0  0  0  0  0  0  0
  1  2  1  0
  2  3  2  0
  3  4  1  0
  4  5  2  0
  5  6  1  0
  6  7  2  0
  7  8  1  0
  8  9  1  0
  8 10  2  0
  7 11  1  0
 11 12  1  0
 12 13  2  0
 12 14  1  0
 14 15  1  0
 15 16  2  0
 15 17  1  0
 17 18  1  0
 18 19  1  0
 19 20  1  0
 20 21  2  0
 20 22  1  0
 22 23  1  0
 11 24  1  0
 24 25  2  0
 25  2  1  0
 24  5  1  0
  1 26  1  0
  1 27  1  0
  1 28  1  0
  3 29  1  0
  4 30  1  0
  6 31  1  0
  9 32  1  0
 18 33  1  0
 18 34  1  0
 22 35  1  0
 22 36  1  0
 23 37  1  0
 25 38  1  0
M  CHG  1   9  -1
M  END
>  <UniqueID>  (15) 
14

>  <SMILES>  (15) 
Cc1ccc2cc(C([NH-])=O)n(C(=O)OC(=O)OCOC(=O)CO)c2c1

>  <Energy>  (15) 
72.45521444822316

>  <Genealogy>  (15) 
Cc1ccc2cc(C([NH-])=O)n(C(=O)OC(=O)OCOC(=O)CO)c2c1 (protonated)
Cc1ccc2cc(C([NH-])=O)n(C(=O)OC(=O)OCOC(=O)CO)c2c1 (3D coordinates assigned)
Cc1ccc2cc(C([NH-])=O)n(C(=O)OC(=O)OCOC(=O)CO)c2c1 (optimized conformer: 72.45521444822316 kcal/mol)

>  <smiles>  (15) 
Cc1ccc2cc(C(N)=O)n(C(=O)OC(=O)OCOC(=O)CO)c2c1

>  <score_type>  (15) 
oracle

>  <origin>  (15) 
adg

>  <m_score__min__energy>  (15) 
-9.0500000000000007

>  <m_primary>  (15) 
energy

$$$$
15:0
     RDKit          3D

 37 38  0  0  0  0  0  0  0  0999 V2000
   -1.1490   26.4570  -27.8810 C   0  0  0  0  0  0  0  0  0  0  0  0
   -1.5530   25.5860  -28.9310 O   0  0  0  0  0  0  0  0  0  0  0  0
   -1.2840   24.2160  -28.9170 C   0  0  0  0  0  0  0  0  0  0  0  0
   -0.2370   23.7600  -29.4540 O   0  0  0  0  0  0  0  0  0  0  0  0
   -2.2760   23.2770  -28.3050 C   0  0  0  0  0  0  0  0  0  0  0  0
   -2.1700   21.8960  -28.9460 C   0  0  0  0  0  0  0  0  0  0  0  0
   -3.3320   21.6580  -29.7900 N   0  0  0  0  0  0  0  0  0  0  0  0
   -3.7730   22.5890  -30.7830 C   0  0  0  0  0  0  0  0  0  0  0  0
   -2.9320   23.2160  -31.4780 O   0  0  0  0  0  0  0  0  0  0  0  0
   -5.1750   22.8440  -30.9560 N   0  0  0  0  0  0  0  0  0  0  0  0
   -5.8260   24.0420  -30.8790 C   0  0  0  0  0  0  0  0  0  0  0  0
   -5.2360   25.3260  -30.4440 C   0  0  0  0  0  0  0  0  0  0  0  0
   -3.9090   25.6680  -30.8440 N   0  0  0  0  0  0  0  0  0  0  0  0
   -5.8970   26.1410  -29.7470 O   0  0  0  0  0  0  0  0  0  0  0  0
   -7.1710   23.8870  -31.2110 C   0  0  0  0  0  0  0  0  0  0  0  0
   -7.3270   22.5490  -31.4940 C   0  0  0  0  0  0  0  0  0  0  0  0
   -8.4550   21.8460  -31.9070 C   0  0  0  0  0  0  0  0  0  0  0  0
   -8.3140   20.4750  -32.1770 C   0  0  0  0  0  0  0  0  0  0  0  0
   -7.0540   19.8400  -32.0460 C   0  0  0  0  0  0  0  0  0  0  0  0
   -6.9200   18.3730  -32.3310 C   0  0  0  0  0  0  0  0  0  0  0  0
   -5.9360   20.5790  -31.6050 C   0  0  0  0  0  0  0  0  0  0  0  0
   -6.1080   21.9420  -31.3320 C   0  0  0  0  0  0  0  0  0  0  0  0
   -1.3669   25.9872  -26.9106 H   0  0  0  0  0  0  0  0  0  0  0  0
   -0.0691   26.6507  -27.9603 H   0  0  0  0  0  0  0  0  0  0  0  0
   -1.6986   27.4065  -27.9603 H   0  0  0  0  0  0  0  0  0  0  0  0
   -2.0765   23.1919  -27.2266 H   0  0  0  0  0  0  0  0  0  0  0  0
   -3.2893   23.6706  -28.4730 H   0  0  0  0  0  0  0  0  0  0  0  0
   -1.2570   21.8455  -29.5575 H   0  0  0  0  0  0  0  0  0  0  0  0
   -2.1285   21.1300  -28.1577 H   0  0  0  0  0  0  0  0  0  0  0  0
   -3.0840   25.1520  -30.4610 H   0  0  0  0  0  0  0  0  0  0  0  0
   -7.9443   24.6688  -31.2406 H   0  0  0  0  0  0  0  0  0  0  0  0
   -9.4270   22.3487  -32.0185 H   0  0  0  0  0  0  0  0  0  0  0  0
   -9.1895   19.8888  -32.4930 H   0  0  0  0  0  0  0  0  0  0  0  0
   -6.8693   17.8183  -31.3824 H   0  0  0  0  0  0  0  0  0  0  0  0
   -7.7906   18.0309  -32.9098 H   0  0  0  0  0  0  0  0  0  0  0  0
   -6.0018   18.1943  -32.9098 H   0  0  0  0  0  0  0  0  0  0  0  0
   -4.9551   20.0974  -31.4789 H   0  0  0  0  0  0  0  0  0  0  0  0
  1  2  1  0
  2  3  1  0
  3  4  2  0
  3  5  1  0
  5  6  1  0
  6  7  1  0
  7  8  1  0
  8  9  2  0
  8 10  1  0
 10 11  1  0
 11 12  1  0
 12 13  1  0
 12 14  2  0
 11 15  2  0
 15 16  1  0
 16 17  2  0
 17 18  1  0
 18 19  2  0
 19 20  1  0
 19 21  1  0
 21 22  2  0
 22 10  1  0
 22 16  1  0
  1 23  1  0
  1 24  1  0
  1 25  1  0
  5 26  1  0
  5 27  1  0
  6 28  1  0
  6 29  1  0
 13 30  1  0
 15 31  1  0
 17 32  1  0
 18 33  1  0
 20 34  1  0
 20 35  1  0
 20 36  1  0
 21 37  1  0
M  CHG  2   7  -1  13  -1
M  END
>  <UniqueID>  (16) 
15

>  <SMILES>  (16) 
COC(=O)CC[N-]C(=O)n1c(C([NH-])=O)cc2ccc(C)cc21

>  <Energy>  (16) 
67.47257227806259

>  <Genealogy>  (16) 
COC(=O)CC[N-]C(=O)n1c(C([NH-])=O)cc2ccc(C)cc21 (protonated)
COC(=O)CC[N-]C(=O)n1c(C([NH-])=O)cc2ccc(C)cc21 (3D coordinates assigned)
COC(=O)CC[N-]C(=O)n1c(C([NH-])=O)cc2ccc(C)cc21 (optimized conformer: 67.47257227806259 kcal/mol)

>  <smiles>  (16) 
COC(=O)CCNC(=O)n1c(C(N)=O)cc2ccc(C)cc21

>  <score_type>  (16) 
oracle

>  <origin>  (16) 
adg

>  <m_score__min__energy>  (16) 
-10.82

>  <m_primary>  (16) 
energy

$$$$
16:0
     RDKit          3D

 30 31  0  0  0  0  0  0  0  0999 V2000
   -4.2330   25.5040  -30.6140 N   0  0  0  0  0  0  0  0  0  0  0  0
   -5.5930   25.1340  -30.3800 C   0  0  0  0  0  0  0  0  0  0  0  0
   -6.3460   25.9300  -29.7580 O   0  0  0  0  0  0  0  0  0  0  0  0
   -6.1080   23.8210  -30.8260 C   0  0  0  0  0  0  0  0  0  0  0  0
   -7.4510   23.5660  -31.1000 C   0  0  0  0  0  0  0  0  0  0  0  0
   -7.4880   22.2730  -31.5710 C   0  0  0  0  0  0  0  0  0  0  0  0
   -8.5730   21.5010  -31.9720 C   0  0  0  0  0  0  0  0  0  0  0  0
   -8.3250   20.1790  -32.3790 C   0  0  0  0  0  0  0  0  0  0  0  0
   -7.0060   19.6580  -32.3910 C   0  0  0  0  0  0  0  0  0  0  0  0
   -6.7610   18.2200  -32.7700 C   0  0  0  0  0  0  0  0  0  0  0  0
   -5.6980   17.6990  -32.0530 F   0  0  0  0  0  0  0  0  0  0  0  0
   -6.4670   18.1130  -34.1180 F   0  0  0  0  0  0  0  0  0  0  0  0
   -7.8950   17.4780  -32.4970 F   0  0  0  0  0  0  0  0  0  0  0  0
   -5.9320   20.4700  -31.9530 C   0  0  0  0  0  0  0  0  0  0  0  0
   -6.2070   21.7890  -31.5690 C   0  0  0  0  0  0  0  0  0  0  0  0
   -5.3470   22.7280  -31.1140 N   0  0  0  0  0  0  0  0  0  0  0  0
   -3.9340   22.5690  -30.9000 C   0  0  0  0  0  0  0  0  0  0  0  0
   -3.1290   22.7800  -31.8480 O   0  0  0  0  0  0  0  0  0  0  0  0
   -3.4680   22.1690  -29.6400 O   0  0  0  0  0  0  0  0  0  0  0  0
   -2.8710   23.0140  -28.6960 C   0  0  0  0  0  0  0  0  0  0  0  0
   -3.1990   22.9700  -27.4790 O   0  0  0  0  0  0  0  0  0  0  0  0
   -1.8450   23.9650  -29.1310 C   0  0  0  0  0  0  0  0  0  0  0  0
   -0.6600   23.5780  -29.3090 O   0  0  0  0  0  0  0  0  0  0  0  0
   -2.1740   25.2970  -29.3490 O   0  0  0  0  0  0  0  0  0  0  0  0
   -3.5940   24.8940  -31.1700 H   0  0  0  0  0  0  0  0  0  0  0  0
   -3.8710   26.4170  -30.2620 H   0  0  0  0  0  0  0  0  0  0  0  0
   -8.3005   24.2522  -30.9679 H   0  0  0  0  0  0  0  0  0  0  0  0
   -9.5932   21.9122  -31.9706 H   0  0  0  0  0  0  0  0  0  0  0  0
   -9.1642   19.5405  -32.6921 H   0  0  0  0  0  0  0  0  0  0  0  0
   -4.9062   20.0747  -31.9151 H   0  0  0  0  0  0  0  0  0  0  0  0
  1  2  1  0
  2  3  2  0
  2  4  1  0
  4  5  2  0
  5  6  1  0
  6  7  2  0
  7  8  1  0
  8  9  2  0
  9 10  1  0
 10 11  1  0
 10 12  1  0
 10 13  1  0
  9 14  1  0
 14 15  2  0
 15 16  1  0
 16 17  1  0
 17 18  2  0
 17 19  1  0
 19 20  1  0
 20 21  2  0
 20 22  1  0
 22 23  2  0
 22 24  1  0
 16  4  1  0
 15  6  1  0
  1 25  1  0
  1 26  1  0
  5 27  1  0
  7 28  1  0
  8 29  1  0
 14 30  1  0
M  CHG  1  24  -1
M  END
>  <UniqueID>  (17) 
16

>  <SMILES>  (17) 
NC(=O)c1cc2ccc(C(F)(F)F)cc2n1C(=O)OC(=O)C(=O)[O-]

>  <Energy>  (17) 
69.31632629597601

>  <Genealogy>  (17) 
NC(=O)c1cc2ccc(C(F)(F)F)cc2n1C(=O)OC(=O)C(=O)[O-] (protonated)
NC(=O)c1cc2ccc(C(F)(F)F)cc2n1C(=O)OC(=O)C(=O)[O-] (3D coordinates assigned)
NC(=O)c1cc2ccc(C(F)(F)F)cc2n1C(=O)OC(=O)C(=O)[O-] (optimized conformer: 69.31632629597601 kcal/mol)

>  <smiles>  (17) 
NC(=O)c1cc2ccc(C(F)(F)F)cc2n1C(=O)OC(=O)C(=O)O

>  <score_type>  (17) 
oracle

>  <origin>  (17) 
adg

>  <m_score__min__energy>  (17) 
-9.7899999999999991

>  <m_primary>  (17) 
energy

$$$$
17:0
     RDKit          3D

 34 35  0  0  0  0  0  0  0  0999 V2000
   -8.5240   18.4210  -31.4320 C   0  0  0  0  0  0  0  0  0  0  0  0
   -7.8570   19.5190  -32.1380 N   0  0  0  0  0  0  0  0  0  0  0  0
   -8.5520   20.7980  -32.3230 C   0  0  0  0  0  0  0  0  0  0  0  0
   -6.5160   19.3150  -32.6380 C   0  0  0  0  0  0  0  0  0  0  0  0
   -5.9510   18.2000  -32.4670 O   0  0  0  0  0  0  0  0  0  0  0  0
   -5.7660   20.3820  -33.3930 C   0  0  0  0  0  0  0  0  0  0  0  0
   -4.5350   20.8180  -32.6430 C   0  0  0  0  0  0  0  0  0  0  0  0
   -3.3660   20.0170  -32.6710 C   0  0  0  0  0  0  0  0  0  0  0  0
   -2.2080   20.4140  -31.9830 C   0  0  0  0  0  0  0  0  0  0  0  0
   -2.2520   21.6060  -31.2650 C   0  0  0  0  0  0  0  0  0  0  0  0
   -1.2710   22.2340  -30.5340 C   0  0  0  0  0  0  0  0  0  0  0  0
   -1.8620   23.3950  -30.0420 C   0  0  0  0  0  0  0  0  0  0  0  0
   -1.1790   24.3300  -29.1240 C   0  0  0  0  0  0  0  0  0  0  0  0
   -1.6740   25.6570  -28.9670 N   0  0  0  0  0  0  0  0  0  0  0  0
   -0.1400   23.9830  -28.5050 O   0  0  0  0  0  0  0  0  0  0  0  0
   -3.1580   23.4860  -30.4580 N   0  0  0  0  0  0  0  0  0  0  0  0
   -4.0820   24.5630  -30.2300 C   0  0  0  0  0  0  0  0  0  0  0  0
   -3.9200   25.6720  -30.8040 O   0  0  0  0  0  0  0  0  0  0  0  0
   -5.1470   24.4010  -29.3550 O   0  0  0  0  0  0  0  0  0  0  0  0
   -3.3810   22.3800  -31.2050 C   0  0  0  0  0  0  0  0  0  0  0  0
   -4.5450   22.0160  -31.8930 C   0  0  0  0  0  0  0  0  0  0  0  0
   -8.4315   18.5732  -30.3465 H   0  0  0  0  0  0  0  0  0  0  0  0
   -9.5881   18.3992  -31.7099 H   0  0  0  0  0  0  0  0  0  0  0  0
   -8.0529   17.4666  -31.7099 H   0  0  0  0  0  0  0  0  0  0  0  0
   -8.7881   21.2325  -31.3404 H   0  0  0  0  0  0  0  0  0  0  0  0
   -7.9053   21.4890  -32.8836 H   0  0  0  0  0  0  0  0  0  0  0  0
   -9.4836   20.6313  -32.8836 H   0  0  0  0  0  0  0  0  0  0  0  0
   -5.4663   19.9839  -34.3736 H   0  0  0  0  0  0  0  0  0  0  0  0
   -6.4270   21.2530  -33.5130 H   0  0  0  0  0  0  0  0  0  0  0  0
   -3.3659   19.0742  -33.2378 H   0  0  0  0  0  0  0  0  0  0  0  0
   -1.2943   19.8021  -32.0105 H   0  0  0  0  0  0  0  0  0  0  0  0
   -0.2382   21.8917  -30.3722 H   0  0  0  0  0  0  0  0  0  0  0  0
   -2.7000   25.8540  -28.9880 H   0  0  0  0  0  0  0  0  0  0  0  0
   -5.4451   22.6469  -31.8508 H   0  0  0  0  0  0  0  0  0  0  0  0
  1  2  1  0
  2  3  1  0
  2  4  1  0
  4  5  2  0
  4  6  1  0
  6  7  1  0
  7  8  2  0
  8  9  1  0
  9 10  2  0
 10 11  1  0
 11 12  2  0
 12 13  1  0
 13 14  1  0
 13 15  2  0
 12 16  1  0
 16 17  1  0
 17 18  2  0
 17 19  1  0
 16 20  1  0
 20 21  2  0
 21  7  1  0
 20 10  1  0
  1 22  1  0
  1 23  1  0
  1 24  1  0
  3 25  1  0
  3 26  1  0
  3 27  1  0
  6 28  1  0
  6 29  1  0
  8 30  1  0
  9 31  1  0
 11 32  1  0
 14 33  1  0
 21 34  1  0
M  CHG  2  14  -1  19  -1
M  END
>  <UniqueID>  (18) 
17

>  <SMILES>  (18) 
CN(C)C(=O)Cc1ccc2cc(C([NH-])=O)n(C(=O)[O-])c2c1

>  <Energy>  (18) 
69.9609023735225

>  <Genealogy>  (18) 
CN(C)C(=O)Cc1ccc2cc(C([NH-])=O)n(C(=O)[O-])c2c1 (protonated)
CN(C)C(=O)Cc1ccc2cc(C([NH-])=O)n(C(=O)[O-])c2c1 (3D coordinates assigned)
CN(C)C(=O)Cc1ccc2cc(C([NH-])=O)n(C(=O)[O-])c2c1 (optimized conformer: 69.9609023735225 kcal/mol)

>  <smiles>  (18) 
CN(C)C(=O)Cc1ccc2cc(C(N)=O)n(C(=O)O)c2c1

>  <score_type>  (18) 
oracle

>  <origin>  (18) 
adg

>  <m_score__min__energy>  (18) 
-11.029999999999999

>  <m_primary>  (18) 
energy

$$$$
18:0
     RDKit          3D

 31 32  0  0  0  0  0  0  0  0999 V2000
   -3.9440   25.6680  -30.8430 N   0  0  0  0  0  0  0  0  0  0  0  0
   -5.2030   25.0420  -30.6170 C   0  0  0  0  0  0  0  0  0  0  0  0
   -6.1130   25.6830  -30.0250 O   0  0  0  0  0  0  0  0  0  0  0  0
   -5.4750   23.6780  -31.1160 C   0  0  0  0  0  0  0  0  0  0  0  0
   -6.7500   23.2200  -31.4420 C   0  0  0  0  0  0  0  0  0  0  0  0
   -6.5650   21.9490  -31.9370 C   0  0  0  0  0  0  0  0  0  0  0  0
   -7.4970   21.0240  -32.3980 C   0  0  0  0  0  0  0  0  0  0  0  0
   -7.0270   19.7710  -32.8210 C   0  0  0  0  0  0  0  0  0  0  0  0
   -5.6430   19.4600  -32.7700 C   0  0  0  0  0  0  0  0  0  0  0  0
   -5.1480   18.1070  -33.2100 C   0  0  0  0  0  0  0  0  0  0  0  0
   -5.8420   16.8260  -32.1830 Cl  0  0  0  0  0  0  0  0  0  0  0  0
   -5.5830   17.8070  -34.9120 Cl  0  0  0  0  0  0  0  0  0  0  0  0
   -4.7280   20.4270  -32.2940 C   0  0  0  0  0  0  0  0  0  0  0  0
   -5.2240   21.6750  -31.8970 C   0  0  0  0  0  0  0  0  0  0  0  0
   -4.5400   22.7260  -31.3930 N   0  0  0  0  0  0  0  0  0  0  0  0
   -3.1340   22.7690  -31.1100 C   0  0  0  0  0  0  0  0  0  0  0  0
   -2.3100   22.3250  -31.9550 O   0  0  0  0  0  0  0  0  0  0  0  0
   -2.6880   23.2870  -29.8880 O   0  0  0  0  0  0  0  0  0  0  0  0
   -1.3540   23.1320  -29.4090 C   0  0  0  0  0  0  0  0  0  0  0  0
   -0.8460   24.6020  -28.4660 P   0  0  0  0  0  0  0  0  0  0  0  0
   -1.5690   24.6240  -27.1390 O   0  0  0  0  0  0  0  0  0  0  0  0
   -1.2440   25.9920  -29.3430 O   0  0  0  0  0  0  0  0  0  0  0  0
    0.8230   24.5730  -28.1960 O   0  0  0  0  0  0  0  0  0  0  0  0
   -3.0790   25.3240  -30.3690 H   0  0  0  0  0  0  0  0  0  0  0  0
   -7.7019   23.7594  -31.3280 H   0  0  0  0  0  0  0  0  0  0  0  0
   -8.5692   21.2675  -32.4299 H   0  0  0  0  0  0  0  0  0  0  0  0
   -7.7393   19.0215  -33.1963 H   0  0  0  0  0  0  0  0  0  0  0  0
   -4.0525   18.0943  -33.1112 H   0  0  0  0  0  0  0  0  0  0  0  0
   -3.6523   20.2044  -32.2369 H   0  0  0  0  0  0  0  0  0  0  0  0
   -1.3032   22.2474  -28.7571 H   0  0  0  0  0  0  0  0  0  0  0  0
   -0.6781   23.0071  -30.2678 H   0  0  0  0  0  0  0  0  0  0  0  0
  1  2  1  0
  2  3  2  0
  2  4  1  0
  4  5  2  0
  5  6  1  0
  6  7  2  0
  7  8  1  0
  8  9  2  0
  9 10  1  0
 10 11  1  0
 10 12  1  0
  9 13  1  0
 13 14  2  0
 14 15  1  0
 15 16  1  0
 16 17  2  0
 16 18  1  0
 18 19  1  0
 19 20  1  0
 20 21  2  0
 20 22  1  0
 20 23  1  0
 15  4  1  0
 14  6  1  0
  1 24  1  0
  5 25  1  0
  7 26  1  0
  8 27  1  0
 10 28  1  0
 13 29  1  0
 19 30  1  0
 19 31  1  0
M  CHG  3   1  -1  22  -1  23  -1
M  END
>  <UniqueID>  (19) 
18

>  <SMILES>  (19) 
[NH-]C(=O)c1cc2ccc(C(Cl)Cl)cc2n1C(=O)OCP(=O)([O-])[O-]

>  <Energy>  (19) 
65.43872113931917

>  <Genealogy>  (19) 
[NH-]C(=O)c1cc2ccc(C(Cl)Cl)cc2n1C(=O)OCP(=O)([O-])[O-] (protonated)
[NH-]C(=O)c1cc2ccc(C(Cl)Cl)cc2n1C(=O)OCP(=O)([O-])[O-] (3D coordinates assigned)
[NH-]C(=O)c1cc2ccc(C(Cl)Cl)cc2n1C(=O)OCP(=O)([O-])[O-] (optimized conformer: 65.43872113931917 kcal/mol)

>  <smiles>  (19) 
NC(=O)c1cc2ccc(C(Cl)Cl)cc2n1C(=O)OCP(=O)(O)O

>  <score_type>  (19) 
oracle

>  <origin>  (19) 
adg

>  <m_score__min__energy>  (19) 
-14.5

>  <m_primary>  (19) 
energy

$$$$
19:0
     RDKit          3D

 31 32  0  0  0  0  0  0  0  0999 V2000
   -6.7780   18.2340  -32.9630 C   0  0  0  0  0  0  0  0  0  0  0  0
   -7.0070   19.6510  -32.5240 C   0  0  0  0  0  0  0  0  0  0  0  0
   -8.3280   20.1560  -32.4400 C   0  0  0  0  0  0  0  0  0  0  0  0
   -8.5640   21.4700  -32.0060 C   0  0  0  0  0  0  0  0  0  0  0  0
   -7.4660   22.2420  -31.6390 C   0  0  0  0  0  0  0  0  0  0  0  0
   -7.4100   23.5490  -31.2090 C   0  0  0  0  0  0  0  0  0  0  0  0
   -6.0590   23.8070  -30.9950 C   0  0  0  0  0  0  0  0  0  0  0  0
   -5.5520   25.0880  -30.4620 C   0  0  0  0  0  0  0  0  0  0  0  0
   -4.1990   25.4940  -30.6740 N   0  0  0  0  0  0  0  0  0  0  0  0
   -6.3100   25.8100  -29.7620 O   0  0  0  0  0  0  0  0  0  0  0  0
   -5.3040   22.7120  -31.2920 N   0  0  0  0  0  0  0  0  0  0  0  0
   -3.8700   22.6240  -31.3110 C   0  0  0  0  0  0  0  0  0  0  0  0
   -3.2670   22.3410  -32.3820 O   0  0  0  0  0  0  0  0  0  0  0  0
   -3.1460   22.8500  -30.1370 O   0  0  0  0  0  0  0  0  0  0  0  0
   -1.7260   22.9280  -30.1110 C   0  0  0  0  0  0  0  0  0  0  0  0
   -1.3150   24.1770  -29.4070 C   0  0  0  0  0  0  0  0  0  0  0  0
   -0.1770   24.2560  -28.8760 O   0  0  0  0  0  0  0  0  0  0  0  0
   -2.1690   25.2730  -29.3770 O   0  0  0  0  0  0  0  0  0  0  0  0
   -6.1830   21.7590  -31.6840 C   0  0  0  0  0  0  0  0  0  0  0  0
   -5.9180   20.4620  -32.1370 C   0  0  0  0  0  0  0  0  0  0  0  0
   -6.6737   17.5884  -32.0785 H   0  0  0  0  0  0  0  0  0  0  0  0
   -7.6329   17.8943  -33.5661 H   0  0  0  0  0  0  0  0  0  0  0  0
   -5.8596   18.1809  -33.5661 H   0  0  0  0  0  0  0  0  0  0  0  0
   -9.1762   19.5128  -32.7173 H   0  0  0  0  0  0  0  0  0  0  0  0
   -9.5849   21.8766  -31.9576 H   0  0  0  0  0  0  0  0  0  0  0  0
   -8.2528   24.2412  -31.0653 H   0  0  0  0  0  0  0  0  0  0  0  0
   -3.5020   24.8450  -31.0990 H   0  0  0  0  0  0  0  0  0  0  0  0
   -3.8710   26.4230  -30.3290 H   0  0  0  0  0  0  0  0  0  0  0  0
   -1.3195   22.0553  -29.5789 H   0  0  0  0  0  0  0  0  0  0  0  0
   -1.3382   22.9399  -31.1403 H   0  0  0  0  0  0  0  0  0  0  0  0
   -4.8866   20.0835  -32.1903 H   0  0  0  0  0  0  0  0  0  0  0  0
  1  2  1  0
  2  3  2  0
  3  4  1  0
  4  5  2  0
  5  6  1  0
  6  7  2  0
  7  8  1  0
  8  9  1  0
  8 10  2  0
  7 11  1  0
 11 12  1  0
 12 13  2  0
 12 14  1  0
 14 15  1  0
 15 16  1  0
 16 17  2  0
 16 18  1  0
 11 19  1  0
 19 20  2  0
 20  2  1  0
 19  5  1  0
  1 21  1  0
  1 22  1  0
  1 23  1  0
  3 24  1  0
  4 25  1  0
  6 26  1  0
  9 27  1  0
  9 28  1  0
 15 29  1  0
 15 30  1  0
 20 31  1  0
M  CHG  1  18  -1
M  END
>  <UniqueID>  (20) 
19

>  <SMILES>  (20) 
Cc1ccc2cc(C(N)=O)n(C(=O)OCC(=O)[O-])c2c1

>  <Energy>  (20) 
66.6303676256002

>  <Genealogy>  (20) 
Cc1ccc2cc(C(N)=O)n(C(=O)OCC(=O)[O-])c2c1 (protonated)
Cc1ccc2cc(C(N)=O)n(C(=O)OCC(=O)[O-])c2c1 (3D coordinates assigned)
Cc1ccc2cc(C(N)=O)n(C(=O)OCC(=O)[O-])c2c1 (optimized conformer: 66.6303676256002 kcal/mol)

>  <smiles>  (20) 
Cc1ccc2cc(C(N)=O)n(C(=O)OCC(=O)O)c2c1

>  <score_type>  (20) 
oracle

>  <origin>  (20) 
adg

>  <m_score__min__energy>  (20) 
-10.140000000000001

>  <m_primary>  (20) 
energy

$$$$
20:0
     RDKit          3D

 43 44  0  0  0  0  0  0  0  0999 V2000
   -4.5030   16.2380  -34.8320 C   0  0  0  0  0  0  0  0  0  0  0  0
   -5.1660   17.2440  -33.9870 N   0  0  0  0  0  0  0  0  0  0  0  0
   -4.3660   18.4800  -33.9690 C   0  0  0  0  0  0  0  0  0  0  0  0
   -5.3720   16.7240  -32.6180 C   0  0  0  0  0  0  0  0  0  0  0  0
   -6.5270   17.4550  -31.9200 C   0  0  0  0  0  0  0  0  0  0  0  0
   -7.0720   18.5110  -32.7770 N   0  0  0  0  0  0  0  0  0  0  0  0
   -7.2420   19.8830  -32.3770 C   0  0  0  0  0  0  0  0  0  0  0  0
   -8.5220   20.4990  -32.3490 C   0  0  0  0  0  0  0  0  0  0  0  0
   -8.6640   21.8430  -31.9620 C   0  0  0  0  0  0  0  0  0  0  0  0
   -7.5170   22.5460  -31.6120 C   0  0  0  0  0  0  0  0  0  0  0  0
   -7.3670   23.8580  -31.2250 C   0  0  0  0  0  0  0  0  0  0  0  0
   -6.0010   24.0260  -31.0120 C   0  0  0  0  0  0  0  0  0  0  0  0
   -5.4060   25.2770  -30.4950 C   0  0  0  0  0  0  0  0  0  0  0  0
   -4.0790   25.6580  -30.8460 N   0  0  0  0  0  0  0  0  0  0  0  0
   -6.0630   25.9950  -29.6940 O   0  0  0  0  0  0  0  0  0  0  0  0
   -5.3310   22.8660  -31.2670 N   0  0  0  0  0  0  0  0  0  0  0  0
   -3.9140   22.6410  -31.2400 C   0  0  0  0  0  0  0  0  0  0  0  0
   -3.3460   22.0890  -32.2230 O   0  0  0  0  0  0  0  0  0  0  0  0
   -3.1730   23.0120  -30.1130 O   0  0  0  0  0  0  0  0  0  0  0  0
   -1.7480   23.0390  -30.0850 C   0  0  0  0  0  0  0  0  0  0  0  0
   -1.2640   24.2450  -29.3460 C   0  0  0  0  0  0  0  0  0  0  0  0
   -1.9580   25.2950  -29.3280 O   0  0  0  0  0  0  0  0  0  0  0  0
   -0.0350   24.2200  -28.6990 O   0  0  0  0  0  0  0  0  0  0  0  0
   -6.2750   21.9690  -31.6300 C   0  0  0  0  0  0  0  0  0  0  0  0
   -6.1010   20.6400  -32.0300 C   0  0  0  0  0  0  0  0  0  0  0  0
   -4.0101   15.4901  -34.1935 H   0  0  0  0  0  0  0  0  0  0  0  0
   -5.2516   15.7417  -35.4671 H   0  0  0  0  0  0  0  0  0  0  0  0
   -3.7517   16.7302  -35.4671 H   0  0  0  0  0  0  0  0  0  0  0  0
   -4.1737   18.7771  -32.9275 H   0  0  0  0  0  0  0  0  0  0  0  0
   -3.4093   18.3051  -34.4830 H   0  0  0  0  0  0  0  0  0  0  0  0
   -4.9173   19.2811  -34.4830 H   0  0  0  0  0  0  0  0  0  0  0  0
   -5.6062   15.6506  -32.6724 H   0  0  0  0  0  0  0  0  0  0  0  0
   -4.4517   16.8888  -32.0384 H   0  0  0  0  0  0  0  0  0  0  0  0
   -7.3232   16.7321  -31.6888 H   0  0  0  0  0  0  0  0  0  0  0  0
   -6.1448   17.9144  -30.9965 H   0  0  0  0  0  0  0  0  0  0  0  0
   -7.2530   18.2630  -33.7770 H   0  0  0  0  0  0  0  0  0  0  0  0
   -9.4117   19.9179  -32.6333 H   0  0  0  0  0  0  0  0  0  0  0  0
   -9.6530   22.3239  -31.9369 H   0  0  0  0  0  0  0  0  0  0  0  0
   -8.1580   24.6135  -31.1086 H   0  0  0  0  0  0  0  0  0  0  0  0
   -3.3060   24.9560  -30.8650 H   0  0  0  0  0  0  0  0  0  0  0  0
   -1.3781   22.1332  -29.5822 H   0  0  0  0  0  0  0  0  0  0  0  0
   -1.3715   23.0785  -31.1178 H   0  0  0  0  0  0  0  0  0  0  0  0
   -5.0966   20.1937  -32.0734 H   0  0  0  0  0  0  0  0  0  0  0  0
  1  2  1  0
  2  3  1  0
  2  4  1  0
  4  5  1  0
  5  6  1  0
  6  7  1  0
  7  8  2  0
  8  9  1  0
  9 10  2  0
 10 11  1  0
 11 12  2  0
 12 13  1  0
 13 14  1  0
 13 15  2  0
 12 16  1  0
 16 17  1  0
 17 18  2  0
 17 19  1  0
 19 20  1  0
 20 21  1  0
 21 22  2  0
 21 23  1  0
 16 24  1  0
 24 25  2  0
 25  7  1  0
 24 10  1  0
  1 26  1  0
  1 27  1  0
  1 28  1  0
  3 29  1  0
  3 30  1  0
  3 31  1  0
  4 32  1  0
  4 33  1  0
  5 34  1  0
  5 35  1  0
  6 36  1  0
  8 37  1  0
  9 38  1  0
 11 39  1  0
 14 40  1  0
 20 41  1  0
 20 42  1  0
 25 43  1  0
M  CHG  2  14  -1  23  -1
M  END
>  <UniqueID>  (21) 
20

>  <SMILES>  (21) 
CN(C)CCNc1ccc2cc(C([NH-])=O)n(C(=O)OCC(=O)[O-])c2c1

>  <Energy>  (21) 
78.88674326874396

>  <Genealogy>  (21) 
CN(C)CCNc1ccc2cc(C([NH-])=O)n(C(=O)OCC(=O)[O-])c2c1 (protonated)
CN(C)CCNc1ccc2cc(C([NH-])=O)n(C(=O)OCC(=O)[O-])c2c1 (3D coordinates assigned)
CN(C)CCNc1ccc2cc(C([NH-])=O)n(C(=O)OCC(=O)[O-])c2c1 (optimized conformer: 78.88674326874396 kcal/mol)

>  <smiles>  (21) 
CN(C)CCNc1ccc2cc(C(N)=O)n(C(=O)OCC(=O)O)c2c1

>  <score_type>  (21) 
oracle

>  <origin>  (21) 
adg

>  <m_score__min__energy>  (21) 
-11.9

>  <m_primary>  (21) 
energy

$$$$
21:0
     RDKit          3D

 37 39  0  0  0  0  0  0  0  0999 V2000
   -4.2280   25.6040  -30.7470 N   0  0  0  0  0  0  0  0  0  0  0  0
   -5.5760   25.2290  -30.4620 C   0  0  0  0  0  0  0  0  0  0  0  0
   -6.2900   25.9840  -29.7500 O   0  0  0  0  0  0  0  0  0  0  0  0
   -6.1270   23.9430  -30.9330 C   0  0  0  0  0  0  0  0  0  0  0  0
   -7.4720   23.7510  -31.2320 C   0  0  0  0  0  0  0  0  0  0  0  0
   -7.5850   22.4190  -31.5600 C   0  0  0  0  0  0  0  0  0  0  0  0
   -8.7040   21.6840  -31.9370 C   0  0  0  0  0  0  0  0  0  0  0  0
   -8.5280   20.3250  -32.2430 C   0  0  0  0  0  0  0  0  0  0  0  0
   -7.2390   19.7310  -32.1960 C   0  0  0  0  0  0  0  0  0  0  0  0
   -7.0670   18.2630  -32.4890 C   0  0  0  0  0  0  0  0  0  0  0  0
   -6.6310   18.1070  -33.7900 F   0  0  0  0  0  0  0  0  0  0  0  0
   -8.2670   17.5900  -32.3320 F   0  0  0  0  0  0  0  0  0  0  0  0
   -6.1400   17.6970  -31.6310 F   0  0  0  0  0  0  0  0  0  0  0  0
   -6.1300   20.5080  -31.7880 C   0  0  0  0  0  0  0  0  0  0  0  0
   -6.3390   21.8550  -31.4650 C   0  0  0  0  0  0  0  0  0  0  0  0
   -5.4290   22.7810  -31.0820 N   0  0  0  0  0  0  0  0  0  0  0  0
   -4.0090   22.5910  -30.9660 C   0  0  0  0  0  0  0  0  0  0  0  0
   -3.2620   22.8420  -31.9510 O   0  0  0  0  0  0  0  0  0  0  0  0
   -3.4710   22.1220  -29.7600 O   0  0  0  0  0  0  0  0  0  0  0  0
   -3.6540   22.7190  -28.5060 C   0  0  0  0  0  0  0  0  0  0  0  0
   -4.5320   22.2930  -27.7060 O   0  0  0  0  0  0  0  0  0  0  0  0
   -2.8080   23.8590  -28.1120 C   0  0  0  0  0  0  0  0  0  0  0  0
   -2.8120   24.3400  -26.7920 C   0  0  0  0  0  0  0  0  0  0  0  0
   -1.9930   25.4200  -26.4530 C   0  0  0  0  0  0  0  0  0  0  0  0
   -1.1830   26.0100  -27.4250 C   0  0  0  0  0  0  0  0  0  0  0  0
   -1.2030   25.5070  -28.7280 C   0  0  0  0  0  0  0  0  0  0  0  0
   -2.0050   24.4540  -29.0390 N   0  0  0  0  0  0  0  0  0  0  0  0
   -3.5620   24.9310  -31.1850 H   0  0  0  0  0  0  0  0  0  0  0  0
   -3.8670   26.5350  -30.4400 H   0  0  0  0  0  0  0  0  0  0  0  0
   -8.2742   24.5033  -31.2108 H   0  0  0  0  0  0  0  0  0  0  0  0
   -9.6972   22.1534  -31.9937 H   0  0  0  0  0  0  0  0  0  0  0  0
   -9.3986   19.7134  -32.5223 H   0  0  0  0  0  0  0  0  0  0  0  0
   -5.1254   20.0644  -31.7257 H   0  0  0  0  0  0  0  0  0  0  0  0
   -3.4542   23.8705  -26.0322 H   0  0  0  0  0  0  0  0  0  0  0  0
   -1.9864   25.8046  -25.4224 H   0  0  0  0  0  0  0  0  0  0  0  0
   -0.5361   26.8616  -27.1676 H   0  0  0  0  0  0  0  0  0  0  0  0
   -0.5695   25.9631  -29.5030 H   0  0  0  0  0  0  0  0  0  0  0  0
  1  2  1  0
  2  3  2  0
  2  4  1  0
  4  5  2  0
  5  6  1  0
  6  7  2  0
  7  8  1  0
  8  9  2  0
  9 10  1  0
 10 11  1  0
 10 12  1  0
 10 13  1  0
  9 14  1  0
 14 15  2  0
 15 16  1  0
 16 17  1  0
 17 18  2  0
 17 19  1  0
 19 20  1  0
 20 21  2  0
 20 22  1  0
 22 23  2  0
 23 24  1  0
 24 25  2  0
 25 26  1  0
 26 27  2  0
 16  4  1  0
 27 22  1  0
 15  6  1  0
  1 28  1  0
  1 29  1  0
  5 30  1  0
  7 31  1  0
  8 32  1  0
 14 33  1  0
 23 34  1  0
 24 35  1  0
 25 36  1  0
 26 37  1  0
M  END
>  <UniqueID>  (22) 
21

>  <SMILES>  (22) 
NC(=O)c1cc2ccc(C(F)(F)F)cc2n1C(=O)OC(=O)c1ccccn1

>  <Energy>  (22) 
80.78098916590743

>  <Genealogy>  (22) 
NC(=O)c1cc2ccc(C(F)(F)F)cc2n1C(=O)OC(=O)c1ccccn1 (3D coordinates assigned)
NC(=O)c1cc2ccc(C(F)(F)F)cc2n1C(=O)OC(=O)c1ccccn1 (optimized conformer: 80.78098916590743 kcal/mol)

>  <smiles>  (22) 
NC(=O)c1cc2ccc(C(F)(F)F)cc2n1C(=O)OC(=O)c1ccccn1

>  <score_type>  (22) 
oracle

>  <origin>  (22) 
adg

>  <m_score__min__energy>  (22) 
-9.2599999999999998

>  <m_primary>  (22) 
energy

$$$$
22:0
     RDKit          3D

 46 47  0  0  0  0  0  0  0  0999 V2000
   -5.7250   18.3880  -34.7310 C   0  0  0  0  0  0  0  0  0  0  0  0
   -6.4280   18.5140  -33.4470 N   0  0  0  0  0  0  0  0  0  0  0  0
   -6.9270   17.2820  -32.8080 C   0  0  0  0  0  0  0  0  0  0  0  0
   -5.9250   16.7260  -31.7860 C   0  0  0  0  0  0  0  0  0  0  0  0
   -6.1230   17.3310  -30.4740 N   0  0  0  0  0  0  0  0  0  0  0  0
   -6.6620   19.8300  -32.8710 C   0  0  0  0  0  0  0  0  0  0  0  0
   -7.9790   20.3590  -32.7540 C   0  0  0  0  0  0  0  0  0  0  0  0
   -8.2100   21.6210  -32.1840 C   0  0  0  0  0  0  0  0  0  0  0  0
   -7.1130   22.3470  -31.7380 C   0  0  0  0  0  0  0  0  0  0  0  0
   -7.0590   23.5760  -31.1220 C   0  0  0  0  0  0  0  0  0  0  0  0
   -5.7060   23.8080  -30.8830 C   0  0  0  0  0  0  0  0  0  0  0  0
   -5.1860   25.0640  -30.3020 C   0  0  0  0  0  0  0  0  0  0  0  0
   -3.9790   25.6500  -30.7840 N   0  0  0  0  0  0  0  0  0  0  0  0
   -5.8410   25.6520  -29.4010 O   0  0  0  0  0  0  0  0  0  0  0  0
   -4.9560   22.7590  -31.3260 N   0  0  0  0  0  0  0  0  0  0  0  0
   -3.5400   22.5720  -31.1770 C   0  0  0  0  0  0  0  0  0  0  0  0
   -2.8240   22.3800  -32.1980 O   0  0  0  0  0  0  0  0  0  0  0  0
   -2.9740   22.5870  -29.8950 O   0  0  0  0  0  0  0  0  0  0  0  0
   -2.5000   23.7290  -29.2350 C   0  0  0  0  0  0  0  0  0  0  0  0
   -1.3870   24.2390  -29.5470 O   0  0  0  0  0  0  0  0  0  0  0  0
   -3.3130   24.3320  -28.2080 N   0  0  0  0  0  0  0  0  0  0  0  0
   -2.4570   24.9320  -27.1730 C   0  0  0  0  0  0  0  0  0  0  0  0
   -4.2280   23.3390  -27.6240 C   0  0  0  0  0  0  0  0  0  0  0  0
   -5.8340   21.8730  -31.8480 C   0  0  0  0  0  0  0  0  0  0  0  0
   -5.5750   20.6120  -32.3940 C   0  0  0  0  0  0  0  0  0  0  0  0
   -4.6575   18.1967  -34.5473 H   0  0  0  0  0  0  0  0  0  0  0  0
   -6.1541   17.5524  -35.3035 H   0  0  0  0  0  0  0  0  0  0  0  0
   -5.8372   19.3206  -35.3035 H   0  0  0  0  0  0  0  0  0  0  0  0
   -7.8735   17.5053  -32.2940 H   0  0  0  0  0  0  0  0  0  0  0  0
   -7.0731   16.5243  -33.5919 H   0  0  0  0  0  0  0  0  0  0  0  0
   -6.0619   15.6376  -31.7041 H   0  0  0  0  0  0  0  0  0  0  0  0
   -4.9074   16.9628  -32.1300 H   0  0  0  0  0  0  0  0  0  0  0  0
   -5.4960   18.1660  -30.4100 H   0  0  0  0  0  0  0  0  0  0  0  0
   -5.7810   16.6560  -29.7510 H   0  0  0  0  0  0  0  0  0  0  0  0
   -8.8320   19.7672  -33.1174 H   0  0  0  0  0  0  0  0  0  0  0  0
   -9.2298   22.0231  -32.0932 H   0  0  0  0  0  0  0  0  0  0  0  0
   -7.9036   24.2348  -30.8716 H   0  0  0  0  0  0  0  0  0  0  0  0
   -3.0480   25.2880  -30.4830 H   0  0  0  0  0  0  0  0  0  0  0  0
   -3.8890   25.0940  -28.6380 H   0  0  0  0  0  0  0  0  0  0  0  0
   -2.8412   24.6627  -26.1781 H   0  0  0  0  0  0  0  0  0  0  0  0
   -1.4294   24.5555  -27.2835 H   0  0  0  0  0  0  0  0  0  0  0  0
   -2.4604   26.0264  -27.2835 H   0  0  0  0  0  0  0  0  0  0  0  0
   -4.1771   23.3943  -26.5266 H   0  0  0  0  0  0  0  0  0  0  0  0
   -5.2560   23.5487  -27.9544 H   0  0  0  0  0  0  0  0  0  0  0  0
   -3.9350   22.3315  -27.9544 H   0  0  0  0  0  0  0  0  0  0  0  0
   -4.5449   20.2307  -32.4535 H   0  0  0  0  0  0  0  0  0  0  0  0
  1  2  1  0
  2  3  1  0
  3  4  1  0
  4  5  1  0
  2  6  1  0
  6  7  2  0
  7  8  1  0
  8  9  2  0
  9 10  1  0
 10 11  2  0
 11 12  1  0
 12 13  1  0
 12 14  2  0
 11 15  1  0
 15 16  1  0
 16 17  2  0
 16 18  1  0
 18 19  1  0
 19 20  2  0
 19 21  1  0
 21 22  1  0
 21 23  1  0
 15 24  1  0
 24 25  2  0
 25  6  1  0
 24  9  1  0
  1 26  1  0
  1 27  1  0
  1 28  1  0
  3 29  1  0
  3 30  1  0
  4 31  1  0
  4 32  1  0
  5 33  1  0
  5 34  1  0
  7 35  1  0
  8 36  1  0
 10 37  1  0
 13 38  1  0
 21 39  1  0
 22 40  1  0
 22 41  1  0
 22 42  1  0
 23 43  1  0
 23 44  1  0
 23 45  1  0
 25 46  1  0
M  CHG  2  13  -1  21   1
M  END
>  <UniqueID>  (23) 
22

>  <SMILES>  (23) 
CN(CCN)c1ccc2cc(C([NH-])=O)n(C(=O)OC(=O)[NH+](C)C)c2c1

>  <Energy>  (23) 
86.35738569377328

>  <Genealogy>  (23) 
CN(CCN)c1ccc2cc(C([NH-])=O)n(C(=O)OC(=O)[NH+](C)C)c2c1 (protonated)
CN(CCN)c1ccc2cc(C([NH-])=O)n(C(=O)OC(=O)[NH+](C)C)c2c1 (3D coordinates assigned)
CN(CCN)c1ccc2cc(C([NH-])=O)n(C(=O)OC(=O)[NH+](C)C)c2c1 (optimized conformer: 86.35738569377328 kcal/mol)

>  <smiles>  (23) 
CN(C)C(=O)OC(=O)n1c(C(N)=O)cc2ccc(N(C)CCN)cc21

>  <score_type>  (23) 
oracle

>  <origin>  (23) 
adg

>  <m_score__min__energy>  (23) 
-8.9800000000000004

>  <m_primary>  (23) 
energy

$$$$
23:0
     RDKit          3D

 45 48  0  0  0  0  0  0  0  0999 V2000
   -7.2220   21.1680  -31.6470 C   0  0  0  0  0  0  0  0  0  0  0  0
   -7.2250   20.0290  -32.5800 N   0  0  0  0  0  0  0  0  0  0  0  0
   -6.4960   20.3340  -33.8370 C   0  0  0  0  0  0  0  0  0  0  0  0
   -5.6510   19.1470  -34.3560 C   0  0  2  0  0  0  0  0  0  0  0  0
   -6.4690   17.8470  -34.2980 C   0  0  0  0  0  0  0  0  0  0  0  0
   -7.0750   17.5810  -32.9110 C   0  0  0  0  0  0  0  0  0  0  0  0
   -6.8620   18.7480  -31.9260 C   0  0  1  0  0  0  0  0  0  0  0  0
   -5.4340   18.7350  -31.3200 C   0  0  0  0  0  0  0  0  0  0  0  0
   -4.4390   19.3870  -32.1800 N   0  0  0  0  0  0  0  0  0  0  0  0
   -3.3760   20.1400  -31.5690 C   0  0  0  0  0  0  0  0  0  0  0  0
   -2.0690   19.5980  -31.4890 C   0  0  0  0  0  0  0  0  0  0  0  0
   -1.0240   20.3320  -30.9070 C   0  0  0  0  0  0  0  0  0  0  0  0
   -1.3200   21.5990  -30.4020 C   0  0  0  0  0  0  0  0  0  0  0  0
   -0.5090   22.5100  -29.7690 C   0  0  0  0  0  0  0  0  0  0  0  0
   -1.3280   23.5960  -29.4760 C   0  0  0  0  0  0  0  0  0  0  0  0
   -0.8250   24.8510  -28.8760 C   0  0  0  0  0  0  0  0  0  0  0  0
   -1.5670   26.0640  -28.9640 N   0  0  0  0  0  0  0  0  0  0  0  0
    0.2980   24.8660  -28.3100 O   0  0  0  0  0  0  0  0  0  0  0  0
   -2.6020   23.3590  -29.9050 N   0  0  0  0  0  0  0  0  0  0  0  0
   -3.7640   24.1870  -29.7290 C   0  0  0  0  0  0  0  0  0  0  0  0
   -4.6560   23.8680  -28.8990 O   0  0  0  0  0  0  0  0  0  0  0  0
   -3.9290   25.3340  -30.4970 O   0  0  0  0  0  0  0  0  0  0  0  0
   -2.5770   22.1380  -30.4760 C   0  0  0  0  0  0  0  0  0  0  0  0
   -3.6350   21.4270  -31.0530 C   0  0  0  0  0  0  0  0  0  0  0  0
   -4.3130   19.0210  -33.5980 C   0  0  0  0  0  0  0  0  0  0  0  0
   -7.2230   20.7945  -30.6124 H   0  0  0  0  0  0  0  0  0  0  0  0
   -6.3222   21.7779  -31.8158 H   0  0  0  0  0  0  0  0  0  0  0  0
   -8.1185   21.7826  -31.8158 H   0  0  0  0  0  0  0  0  0  0  0  0
   -7.2304   20.6045  -34.6100 H   0  0  0  0  0  0  0  0  0  0  0  0
   -5.8014   21.1587  -33.6196 H   0  0  0  0  0  0  0  0  0  0  0  0
   -5.3939   19.3416  -35.4077 H   0  0  0  0  0  0  0  0  0  0  0  0
   -7.2866   17.9142  -35.0309 H   0  0  0  0  0  0  0  0  0  0  0  0
   -5.7837   17.0164  -34.5228 H   0  0  0  0  0  0  0  0  0  0  0  0
   -8.1559   17.4133  -33.0272 H   0  0  0  0  0  0  0  0  0  0  0  0
   -6.5652   16.7005  -32.4928 H   0  0  0  0  0  0  0  0  0  0  0  0
   -7.5344   18.6250  -31.0642 H   0  0  0  0  0  0  0  0  0  0  0  0
   -5.4589   19.2593  -30.3533 H   0  0  0  0  0  0  0  0  0  0  0  0
   -5.1336   17.6826  -31.2094 H   0  0  0  0  0  0  0  0  0  0  0  0
   -1.8716   18.5918  -31.8871 H   0  0  0  0  0  0  0  0  0  0  0  0
   -0.0048   19.9221  -30.8507 H   0  0  0  0  0  0  0  0  0  0  0  0
    0.5620   22.4032  -29.5418 H   0  0  0  0  0  0  0  0  0  0  0  0
   -2.6110   26.0580  -28.9770 H   0  0  0  0  0  0  0  0  0  0  0  0
   -4.6444   21.8612  -31.1030 H   0  0  0  0  0  0  0  0  0  0  0  0
   -3.5747   19.6854  -34.0706 H   0  0  0  0  0  0  0  0  0  0  0  0
   -3.9959   17.9688  -33.6473 H   0  0  0  0  0  0  0  0  0  0  0  0
  1  2  1  0
  2  3  1  0
  3  4  1  0
  4  5  1  0
  5  6  1  0
  6  7  1  0
  7  8  1  0
  8  9  1  0
  9 10  1  0
 10 11  2  0
 11 12  1  0
 12 13  2  0
 13 14  1  0
 14 15  2  0
 15 16  1  0
 16 17  1  0
 16 18  2  0
 15 19  1  0
 19 20  1  0
 20 21  2  0
 20 22  1  0
 19 23  1  0
 23 24  2  0
  9 25  1  0
  7  2  1  0
 24 10  1  0
 25  4  1  0
 23 13  1  0
  1 26  1  0
  1 27  1  0
  1 28  1  0
  3 29  1  0
  3 30  1  0
  4 31  1  6
  5 32  1  0
  5 33  1  0
  6 34  1  0
  6 35  1  0
  7 36  1  1
  8 37  1  0
  8 38  1  0
 11 39  1  0
 12 40  1  0
 14 41  1  0
 17 42  1  0
 24 43  1  0
 25 44  1  0
 25 45  1  0
M  CHG  2  17  -1  22  -1
M  END
>  <UniqueID>  (24) 
23

>  <SMILES>  (24) 
CN1C[C@@H]2CC[C@H]1CN(c1ccc3cc(C([NH-])=O)n(C(=O)[O-])c3c1)C2

>  <Energy>  (24) 
106.91031061896689

>  <Genealogy>  (24) 
CN1CC2CCC1CN(c1ccc3cc(C([NH-])=O)n(C(=O)[O-])c3c1)C2 (protonated)
CN1C[C@@H]2CC[C@H]1CN(c1ccc3cc(C([NH-])=O)n(C(=O)[O-])c3c1)C2 (chirality)
CN1C[C@@H]2CC[C@H]1CN(c1ccc3cc(C([NH-])=O)n(C(=O)[O-])c3c1)C2 (3D coordinates assigned)
CN1C[C@@H]2CC[C@H]1CN(c1ccc3cc(C([NH-])=O)n(C(=O)[O-])c3c1)C2 (nonaromatic ring conformer: 106.91031061896689 kcal/mol)

>  <smiles>  (24) 
CN1CC2CCC1CN(c1ccc3cc(C(N)=O)n(C(=O)O)c3c1)C2

>  <score_type>  (24) 
oracle

>  <origin>  (24) 
adg

>  <m_score__min__energy>  (24) 
-10.640000000000001

>  <m_primary>  (24) 
energy

$$$$
24:0
     RDKit          3D

 50 51  0  0  0  0  0  0  0  0999 V2000
   -1.7770   22.3310  -30.9080 C   0  0  0  0  0  0  0  0  0  0  0  0
   -3.1330   22.6670  -30.4510 N   0  0  2  0  0  0  0  0  0  0  0  0
   -3.4840   21.8970  -29.2830 C   0  0  0  0  0  0  0  0  0  0  0  0
   -2.9550   20.7680  -29.0760 O   0  0  0  0  0  0  0  0  0  0  0  0
   -4.4160   22.4140  -28.3750 O   0  0  0  0  0  0  0  0  0  0  0  0
   -4.1140   23.4830  -27.4860 C   0  0  0  0  0  0  0  0  0  0  0  0
   -3.4890   24.5380  -28.2100 O   0  0  0  0  0  0  0  0  0  0  0  0
   -2.1060   24.7480  -28.2110 C   0  0  0  0  0  0  0  0  0  0  0  0
   -1.4750   24.7840  -29.3050 O   0  0  0  0  0  0  0  0  0  0  0  0
   -1.3920   25.0030  -26.8990 C   0  0  0  0  0  0  0  0  0  0  0  0
   -0.1800   25.9370  -27.1050 C   0  0  0  0  0  0  0  0  0  0  0  0
   -2.3800   25.6550  -25.9190 C   0  0  0  0  0  0  0  0  0  0  0  0
   -0.8950   23.6660  -26.3150 C   0  0  0  0  0  0  0  0  0  0  0  0
   -4.0870   22.4570  -31.5160 C   0  0  0  0  0  0  0  0  0  0  0  0
   -3.7010   22.0850  -32.6600 O   0  0  0  0  0  0  0  0  0  0  0  0
   -5.4660   22.8020  -31.3220 N   0  0  0  0  0  0  0  0  0  0  0  0
   -5.9850   23.9950  -30.9200 C   0  0  0  0  0  0  0  0  0  0  0  0
   -5.2030   25.1600  -30.4560 C   0  0  0  0  0  0  0  0  0  0  0  0
   -3.8460   25.3140  -30.8620 N   0  0  0  0  0  0  0  0  0  0  0  0
   -5.7350   26.0430  -29.7330 O   0  0  0  0  0  0  0  0  0  0  0  0
   -7.3790   23.9490  -30.9340 C   0  0  0  0  0  0  0  0  0  0  0  0
   -7.6970   22.6760  -31.3540 C   0  0  0  0  0  0  0  0  0  0  0  0
   -8.9390   22.0790  -31.5600 C   0  0  0  0  0  0  0  0  0  0  0  0
   -8.9620   20.7510  -32.0230 C   0  0  0  0  0  0  0  0  0  0  0  0
   -7.7540   20.0510  -32.2680 C   0  0  0  0  0  0  0  0  0  0  0  0
   -7.7910   18.7020  -32.7450 N   0  0  0  0  0  0  0  0  0  0  0  0
   -6.5140   20.6860  -32.0470 C   0  0  0  0  0  0  0  0  0  0  0  0
   -6.5230   22.0050  -31.5810 C   0  0  0  0  0  0  0  0  0  0  0  0
   -1.1258   22.1696  -30.0363 H   0  0  0  0  0  0  0  0  0  0  0  0
   -1.8112   21.4142  -31.5148 H   0  0  0  0  0  0  0  0  0  0  0  0
   -1.3792   23.1577  -31.5148 H   0  0  0  0  0  0  0  0  0  0  0  0
   -3.1390   23.6810  -30.1890 H   0  0  0  0  0  0  0  0  0  0  0  0
   -5.0431   23.8527  -27.0275 H   0  0  0  0  0  0  0  0  0  0  0  0
   -3.4346   23.1251  -26.6984 H   0  0  0  0  0  0  0  0  0  0  0  0
    0.2174   26.2433  -26.1261 H   0  0  0  0  0  0  0  0  0  0  0  0
    0.6013   25.4052  -27.6678 H   0  0  0  0  0  0  0  0  0  0  0  0
   -0.4952   26.8280  -27.6678 H   0  0  0  0  0  0  0  0  0  0  0  0
   -2.0637   25.4463  -24.8863 H   0  0  0  0  0  0  0  0  0  0  0  0
   -2.3970   26.7423  -26.0846 H   0  0  0  0  0  0  0  0  0  0  0  0
   -3.3864   25.2431  -26.0846 H   0  0  0  0  0  0  0  0  0  0  0  0
   -0.9137   23.7163  -25.2163 H   0  0  0  0  0  0  0  0  0  0  0  0
   -1.5502   22.8508  -26.6560 H   0  0  0  0  0  0  0  0  0  0  0  0
    0.1336   23.4767  -26.6560 H   0  0  0  0  0  0  0  0  0  0  0  0
   -3.0700   25.2920  -30.1620 H   0  0  0  0  0  0  0  0  0  0  0  0
   -8.0759   24.7570  -30.6667 H   0  0  0  0  0  0  0  0  0  0  0  0
   -9.8719   22.6288  -31.3667 H   0  0  0  0  0  0  0  0  0  0  0  0
   -9.9263   20.2510  -32.1966 H   0  0  0  0  0  0  0  0  0  0  0  0
   -8.4230   18.4330  -33.5330 H   0  0  0  0  0  0  0  0  0  0  0  0
   -7.1890   17.9660  -32.3150 H   0  0  0  0  0  0  0  0  0  0  0  0
   -5.5670   20.1591  -32.2357 H   0  0  0  0  0  0  0  0  0  0  0  0
  1  2  1  0
  2  3  1  0
  3  4  2  0
  3  5  1  0
  5  6  1  0
  6  7  1  0
  7  8  1  0
  8  9  2  0
  8 10  1  0
 10 11  1  0
 10 12  1  0
 10 13  1  0
  2 14  1  0
 14 15  2  0
 14 16  1  0
 16 17  1  0
 17 18  1  0
 18 19  1  0
 18 20  2  0
 17 21  2  0
 21 22  1  0
 22 23  2  0
 23 24  1  0
 24 25  2  0
 25 26  1  0
 25 27  1  0
 27 28  2  0
 28 16  1  0
 28 22  1  0
  1 29  1  0
  1 30  1  0
  1 31  1  0
  2 32  1  1
  6 33  1  0
  6 34  1  0
 11 35  1  0
 11 36  1  0
 11 37  1  0
 12 38  1  0
 12 39  1  0
 12 40  1  0
 13 41  1  0
 13 42  1  0
 13 43  1  0
 19 44  1  0
 21 45  1  0
 23 46  1  0
 24 47  1  0
 26 48  1  0
 26 49  1  0
 27 50  1  0
M  CHG  2   2   1  19  -1
M  END
>  <UniqueID>  (25) 
24

>  <SMILES>  (25) 
C[NH+](C(=O)OCOC(=O)C(C)(C)C)C(=O)n1c(C([NH-])=O)cc2ccc(N)cc21

>  <Energy>  (25) 
82.3780069619456

>  <Genealogy>  (25) 
C[NH+](C(=O)OCOC(=O)C(C)(C)C)C(=O)n1c(C([NH-])=O)cc2ccc(N)cc21 (protonated)
C[NH+](C(=O)OCOC(=O)C(C)(C)C)C(=O)n1c(C([NH-])=O)cc2ccc(N)cc21 (3D coordinates assigned)
C[NH+](C(=O)OCOC(=O)C(C)(C)C)C(=O)n1c(C([NH-])=O)cc2ccc(N)cc21 (optimized conformer: 82.3780069619456 kcal/mol)

>  <smiles>  (25) 
CN(C(=O)OCOC(=O)C(C)(C)C)C(=O)n1c(C(N)=O)cc2ccc(N)cc21

>  <score_type>  (25) 
oracle

>  <origin>  (25) 
adg

>  <m_score__min__energy>  (25) 
-9.6699999999999999

>  <m_primary>  (25) 
energy

$$$$
25:0
     RDKit          3D

 43 45  0  0  0  0  0  0  0  0999 V2000
   -6.0560   25.4200  -29.0500 N   0  0  0  0  0  0  0  0  0  0  0  0
   -5.4820   24.9670  -30.2770 C   0  0  0  0  0  0  0  0  0  0  0  0
   -4.5680   25.6490  -30.8140 O   0  0  0  0  0  0  0  0  0  0  0  0
   -5.9220   23.6970  -30.8950 C   0  0  0  0  0  0  0  0  0  0  0  0
   -7.2430   23.4190  -31.2450 C   0  0  0  0  0  0  0  0  0  0  0  0
   -7.2380   22.1170  -31.6870 C   0  0  0  0  0  0  0  0  0  0  0  0
   -8.2820   21.3290  -32.1620 C   0  0  0  0  0  0  0  0  0  0  0  0
   -7.9840   20.0210  -32.5750 C   0  0  0  0  0  0  0  0  0  0  0  0
   -6.6560   19.5260  -32.5180 C   0  0  0  0  0  0  0  0  0  0  0  0
   -6.3680   18.1820  -32.9470 N   0  0  0  0  0  0  0  0  0  0  0  0
   -6.1520   17.9010  -34.3720 C   0  0  0  0  0  0  0  0  0  0  0  0
   -5.5910   16.4910  -34.5580 C   0  0  0  0  0  0  0  0  0  0  0  0
   -4.6740   16.2120  -33.5220 O   0  0  0  0  0  0  0  0  0  0  0  0
   -5.3670   15.9910  -32.3040 C   0  0  0  0  0  0  0  0  0  0  0  0
   -6.4330   17.0680  -31.9910 C   0  0  0  0  0  0  0  0  0  0  0  0
   -5.6240   20.3550  -32.0230 C   0  0  0  0  0  0  0  0  0  0  0  0
   -5.9530   21.6490  -31.6000 C   0  0  0  0  0  0  0  0  0  0  0  0
   -5.1320   22.6080  -31.1170 N   0  0  0  0  0  0  0  0  0  0  0  0
   -3.7110   22.5020  -30.9330 C   0  0  0  0  0  0  0  0  0  0  0  0
   -2.9310   22.8060  -31.8770 O   0  0  0  0  0  0  0  0  0  0  0  0
   -3.2010   22.0410  -29.7130 O   0  0  0  0  0  0  0  0  0  0  0  0
   -2.0830   22.6280  -29.0500 C   0  0  0  0  0  0  0  0  0  0  0  0
   -2.4140   24.0410  -28.5730 C   0  0  0  0  0  0  0  0  0  0  0  0
   -2.4520   24.9230  -29.6600 O   0  0  0  0  0  0  0  0  0  0  0  0
   -5.7100   26.2970  -28.6020 H   0  0  0  0  0  0  0  0  0  0  0  0
   -6.8520   24.9130  -28.6030 H   0  0  0  0  0  0  0  0  0  0  0  0
   -8.1063   24.0977  -31.1810 H   0  0  0  0  0  0  0  0  0  0  0  0
   -9.3092   21.7192  -32.2123 H   0  0  0  0  0  0  0  0  0  0  0  0
   -8.7902   19.3719  -32.9474 H   0  0  0  0  0  0  0  0  0  0  0  0
   -7.1096   17.9836  -34.9069 H   0  0  0  0  0  0  0  0  0  0  0  0
   -5.4308   18.6279  -34.7738 H   0  0  0  0  0  0  0  0  0  0  0  0
   -6.4136   15.7614  -34.5266 H   0  0  0  0  0  0  0  0  0  0  0  0
   -5.0799   16.4236  -35.5297 H   0  0  0  0  0  0  0  0  0  0  0  0
   -5.8676   15.0132  -32.3617 H   0  0  0  0  0  0  0  0  0  0  0  0
   -4.6206   16.0332  -31.4971 H   0  0  0  0  0  0  0  0  0  0  0  0
   -7.4313   16.6091  -32.0438 H   0  0  0  0  0  0  0  0  0  0  0  0
   -6.2380   17.4650  -30.9838 H   0  0  0  0  0  0  0  0  0  0  0  0
   -4.5867   19.9925  -31.9712 H   0  0  0  0  0  0  0  0  0  0  0  0
   -1.8128   22.0087  -28.1820 H   0  0  0  0  0  0  0  0  0  0  0  0
   -1.2430   22.6833  -29.7581 H   0  0  0  0  0  0  0  0  0  0  0  0
   -3.3949   24.0358  -28.0751 H   0  0  0  0  0  0  0  0  0  0  0  0
   -1.6367   24.3730  -27.8690 H   0  0  0  0  0  0  0  0  0  0  0  0
   -2.8260   24.4050  -30.4200 H   0  0  0  0  0  0  0  0  0  0  0  0
  1  2  1  0
  2  3  2  0
  2  4  1  0
  4  5  2  0
  5  6  1  0
  6  7  2  0
  7  8  1  0
  8  9  2  0
  9 10  1  0
 10 11  1  0
 11 12  1  0
 12 13  1  0
 13 14  1  0
 14 15  1  0
  9 16  1  0
 16 17  2  0
 17 18  1  0
 18 19  1  0
 19 20  2  0
 19 21  1  0
 21 22  1  0
 22 23  1  0
 23 24  1  0
 18  4  1  0
 17  6  1  0
 15 10  1  0
  1 25  1  0
  1 26  1  0
  5 27  1  0
  7 28  1  0
  8 29  1  0
 11 30  1  0
 11 31  1  0
 12 32  1  0
 12 33  1  0
 14 34  1  0
 14 35  1  0
 15 36  1  0
 15 37  1  0
 16 38  1  0
 22 39  1  0
 22 40  1  0
 23 41  1  0
 23 42  1  0
 24 43  1  0
M  END
>  <UniqueID>  (26) 
25

>  <SMILES>  (26) 
NC(=O)c1cc2ccc(N3CCOCC3)cc2n1C(=O)OCCO

>  <Energy>  (26) 
89.90925369539545

>  <Genealogy>  (26) 
NC(=O)c1cc2ccc(N3CCOCC3)cc2n1C(=O)OCCO (3D coordinates assigned)
NC(=O)c1cc2ccc(N3CCOCC3)cc2n1C(=O)OCCO (nonaromatic ring conformer: 89.90925369539545 kcal/mol)

>  <smiles>  (26) 
NC(=O)c1cc2ccc(N3CCOCC3)cc2n1C(=O)OCCO

>  <score_type>  (26) 
oracle

>  <origin>  (26) 
adg

>  <m_score__min__energy>  (26) 
-9.4499999999999993

>  <m_primary>  (26) 
energy

$$$$
26:0
     RDKit          3D

 47 49  0  0  0  0  0  0  0  0999 V2000
   -3.4830   25.3010  -30.8720 H   0  0  0  0  0  0  0  0  0  0  0  0
   -4.2560   25.9080  -30.5170 N   0  0  0  0  0  0  0  0  0  0  0  0
   -5.5050   25.3480  -30.1200 C   0  0  0  0  0  0  0  0  0  0  0  0
   -6.2630   26.0080  -29.3600 O   0  0  0  0  0  0  0  0  0  0  0  0
   -5.9390   24.0280  -30.6200 C   0  0  0  0  0  0  0  0  0  0  0  0
   -7.2540   23.7260  -30.9690 C   0  0  0  0  0  0  0  0  0  0  0  0
   -8.1353   24.3773  -30.8741 H   0  0  0  0  0  0  0  0  0  0  0  0
   -7.2160   22.4390  -31.4580 C   0  0  0  0  0  0  0  0  0  0  0  0
   -8.2380   21.6320  -31.9450 C   0  0  0  0  0  0  0  0  0  0  0  0
   -9.2738   21.9988  -31.9968 H   0  0  0  0  0  0  0  0  0  0  0  0
   -7.9080   20.3340  -32.3690 C   0  0  0  0  0  0  0  0  0  0  0  0
   -8.6974   19.6757  -32.7607 H   0  0  0  0  0  0  0  0  0  0  0  0
   -6.5690   19.8570  -32.3000 C   0  0  0  0  0  0  0  0  0  0  0  0
   -6.2400   18.5150  -32.7320 N   0  0  0  0  0  0  0  0  0  0  0  0
   -7.2220   17.4450  -32.8660 C   0  0  0  0  0  0  0  0  0  0  0  0
   -8.0471   17.7650  -33.5193 H   0  0  0  0  0  0  0  0  0  0  0  0
   -7.6574   17.1778  -31.8918 H   0  0  0  0  0  0  0  0  0  0  0  0
   -6.4860   16.2640  -33.4860 C   0  0  0  0  0  0  0  0  0  0  0  0
   -6.7203   16.1832  -34.5577 H   0  0  0  0  0  0  0  0  0  0  0  0
   -6.7784   15.3094  -33.0242 H   0  0  0  0  0  0  0  0  0  0  0  0
   -4.9910   16.5670  -33.2820 C   0  0  1  0  0  0  0  0  0  0  0  0
   -4.6176   16.0355  -32.3942 H   0  0  0  0  0  0  0  0  0  0  0  0
   -4.0810   16.0180  -34.3260 N   0  0  0  0  0  0  0  0  0  0  0  0
   -3.7630   17.0340  -35.3450 C   0  0  0  0  0  0  0  0  0  0  0  0
   -3.4697   17.9712  -34.8493 H   0  0  0  0  0  0  0  0  0  0  0  0
   -2.9338   16.6763  -35.9731 H   0  0  0  0  0  0  0  0  0  0  0  0
   -4.6481   17.2129  -35.9731 H   0  0  0  0  0  0  0  0  0  0  0  0
   -2.8530   15.3690  -33.8240 C   0  0  0  0  0  0  0  0  0  0  0  0
   -2.8598   15.3726  -32.7240 H   0  0  0  0  0  0  0  0  0  0  0  0
   -2.8120   14.3314  -34.1870 H   0  0  0  0  0  0  0  0  0  0  0  0
   -1.9726   15.9196  -34.1870 H   0  0  0  0  0  0  0  0  0  0  0  0
   -4.8960   18.0850  -33.0930 C   0  0  0  0  0  0  0  0  0  0  0  0
   -4.5747   18.5697  -34.0267 H   0  0  0  0  0  0  0  0  0  0  0  0
   -4.1592   18.3558  -32.3225 H   0  0  0  0  0  0  0  0  0  0  0  0
   -5.5610   20.7170  -31.7960 C   0  0  0  0  0  0  0  0  0  0  0  0
   -4.5172   20.3771  -31.7252 H   0  0  0  0  0  0  0  0  0  0  0  0
   -5.9200   22.0050  -31.3910 C   0  0  0  0  0  0  0  0  0  0  0  0
   -5.1260   22.9650  -30.8760 N   0  0  0  0  0  0  0  0  0  0  0  0
   -3.7260   22.8300  -30.5980 C   0  0  0  0  0  0  0  0  0  0  0  0
   -2.8920   23.0530  -31.5150 O   0  0  0  0  0  0  0  0  0  0  0  0
   -3.2800   22.4630  -29.2360 C   0  0  0  0  0  0  0  0  0  0  0  0
   -3.7335   21.5686  -28.7839 H   0  0  0  0  0  0  0  0  0  0  0  0
   -2.3720   23.1240  -28.5040 C   0  0  0  0  0  0  0  0  0  0  0  0
   -2.2774   22.8391  -27.4458 H   0  0  0  0  0  0  0  0  0  0  0  0
   -1.4890   24.1990  -28.9920 C   0  0  0  0  0  0  0  0  0  0  0  0
   -1.9910   25.3040  -29.3250 O   0  0  0  0  0  0  0  0  0  0  0  0
   -0.1070   24.0520  -29.0030 O   0  0  0  0  0  0  0  0  0  0  0  0
  1  2  1  0
  2  3  1  0
  3  4  2  0
  3  5  1  0
  5  6  2  0
  6  7  1  0
  6  8  1  0
  8  9  2  0
  9 10  1  0
  9 11  1  0
 11 12  1  0
 11 13  2  0
 13 14  1  0
 14 15  1  0
 15 16  1  0
 15 17  1  0
 15 18  1  0
 18 19  1  0
 18 20  1  0
 18 21  1  0
 21 22  1  1
 21 23  1  0
 23 24  1  0
 24 25  1  0
 24 26  1  0
 24 27  1  0
 23 28  1  0
 28 29  1  0
 28 30  1  0
 28 31  1  0
 21 32  1  0
 32 33  1  0
 32 34  1  0
 13 35  1  0
 35 36  1  0
 35 37  2  0
 37 38  1  0
 38 39  1  0
 39 40  2  0
 39 41  1  0
 41 42  1  0
 41 43  2  0
 43 44  1  0
 43 45  1  0
 45 46  2  0
 45 47  1  0
 38  5  1  0
 37  8  1  0
 32 14  1  0
M  CHG  2   2  -1  47  -1
M  END
>  <UniqueID>  (27) 
26

>  <SMILES>  (27) 
CN(C)[C@@H]1CCN(c2ccc3cc(C([NH-])=O)n(C(=O)/C=C\C(=O)[O-])c3c2)C1

>  <Energy>  (27) 
104.55901637453843

>  <Genealogy>  (27) 
CN(C)C1CCN(c2ccc3cc(C([NH-])=O)n(C(=O)/C=C\C(=O)[O-])c3c2)C1 (protonated)
CN(C)[C@@H]1CCN(c2ccc3cc(C([NH-])=O)n(C(=O)/C=C\C(=O)[O-])c3c2)C1 (chirality)
CN(C)[C@@H]1CCN(c2ccc3cc(C([NH-])=O)n(C(=O)/C=C\C(=O)[O-])c3c2)C1 (cis-trans isomerization)
CN(C)[C@@H]1CCN(c2ccc3cc(C([NH-])=O)n(C(=O)/C=C\C(=O)[O-])c3c2)C1 (3D coordinates assigned)
CN(C)[C@@H]1CCN(c2ccc3cc(C([NH-])=O)n(C(=O)/C=C\C(=O)[O-])c3c2)C1 (nonaromatic ring conformer: 104.55901637453843 kcal/mol)

>  <smiles>  (27) 
CN(C)C1CCN(c2ccc3cc(C(N)=O)n(C(=O)/C=C\C(=O)O)c3c2)C1

>  <score_type>  (27) 
oracle

>  <origin>  (27) 
adg

>  <m_score__min__energy>  (27) 
-12.81

>  <m_primary>  (27) 
energy

$$$$
27:0
     RDKit          3D

 39 40  0  0  0  0  0  0  0  0999 V2000
   -8.3840   23.1990  -31.9640 C   0  0  0  0  0  0  0  0  0  0  0  0
   -9.0170   21.8250  -31.7710 C   0  0  0  0  0  0  0  0  0  0  0  0
   -8.4320   20.8730  -32.6570 O   0  0  0  0  0  0  0  0  0  0  0  0
   -7.5850   19.8440  -32.2340 C   0  0  0  0  0  0  0  0  0  0  0  0
   -8.0470   18.8550  -31.6010 O   0  0  0  0  0  0  0  0  0  0  0  0
   -6.1840   19.9010  -32.5460 N   0  0  0  0  0  0  0  0  0  0  0  0
   -5.4980   19.1530  -33.4560 C   0  0  0  0  0  0  0  0  0  0  0  0
   -6.0320   18.0050  -34.2180 C   0  0  0  0  0  0  0  0  0  0  0  0
   -6.8540   17.0250  -33.5870 N   0  0  0  0  0  0  0  0  0  0  0  0
   -5.7210   17.8610  -35.4300 O   0  0  0  0  0  0  0  0  0  0  0  0
   -4.1700   19.5660  -33.5240 C   0  0  0  0  0  0  0  0  0  0  0  0
   -4.0600   20.5900  -32.6110 C   0  0  0  0  0  0  0  0  0  0  0  0
   -2.9640   21.3750  -32.2790 C   0  0  0  0  0  0  0  0  0  0  0  0
   -3.1430   22.3860  -31.3220 C   0  0  0  0  0  0  0  0  0  0  0  0
   -4.4070   22.6040  -30.7000 C   0  0  0  0  0  0  0  0  0  0  0  0
   -4.5580   23.7580  -29.6950 C   0  0  0  0  0  0  0  0  0  0  0  0
   -6.0290   24.2290  -29.7210 C   0  0  0  0  0  0  0  0  0  0  0  0
   -4.2000   23.3560  -28.2470 C   0  0  0  0  0  0  0  0  0  0  0  0
   -3.6200   24.8890  -30.0810 C   0  0  0  0  0  0  0  0  0  0  0  0
   -3.9000   25.6730  -31.0280 O   0  0  0  0  0  0  0  0  0  0  0  0
   -2.4640   25.1100  -29.3410 O   0  0  0  0  0  0  0  0  0  0  0  0
   -5.5030   21.7860  -31.0930 C   0  0  0  0  0  0  0  0  0  0  0  0
   -5.2870   20.7730  -32.0330 C   0  0  0  0  0  0  0  0  0  0  0  0
   -8.1769   23.6485  -30.9816 H   0  0  0  0  0  0  0  0  0  0  0  0
   -7.4435   23.0939  -32.5248 H   0  0  0  0  0  0  0  0  0  0  0  0
   -9.0750   23.8456  -32.5248 H   0  0  0  0  0  0  0  0  0  0  0  0
   -8.8593   21.4971  -30.7329 H   0  0  0  0  0  0  0  0  0  0  0  0
  -10.0929   21.8969  -31.9885 H   0  0  0  0  0  0  0  0  0  0  0  0
   -7.7080   17.3020  -33.0550 H   0  0  0  0  0  0  0  0  0  0  0  0
   -3.3775   19.1602  -34.1699 H   0  0  0  0  0  0  0  0  0  0  0  0
   -1.9847   21.2096  -32.7518 H   0  0  0  0  0  0  0  0  0  0  0  0
   -2.2900   23.0235  -31.0462 H   0  0  0  0  0  0  0  0  0  0  0  0
   -6.3948   24.3461  -28.6902 H   0  0  0  0  0  0  0  0  0  0  0  0
   -6.0960   25.1935  -30.2456 H   0  0  0  0  0  0  0  0  0  0  0  0
   -6.6437   23.4828  -30.2456 H   0  0  0  0  0  0  0  0  0  0  0  0
   -4.7615   23.9865  -27.5419 H   0  0  0  0  0  0  0  0  0  0  0  0
   -4.4625   22.3003  -28.0840 H   0  0  0  0  0  0  0  0  0  0  0  0
   -3.1211   23.4949  -28.0840 H   0  0  0  0  0  0  0  0  0  0  0  0
   -6.5033   21.9476  -30.6648 H   0  0  0  0  0  0  0  0  0  0  0  0
  1  2  1  0
  2  3  1  0
  3  4  1  0
  4  5  2  0
  4  6  1  0
  6  7  1  0
  7  8  1  0
  8  9  1  0
  8 10  2  0
  7 11  2  0
 11 12  1  0
 12 13  2  0
 13 14  1  0
 14 15  2  0
 15 16  1  0
 16 17  1  0
 16 18  1  0
 16 19  1  0
 19 20  2  0
 19 21  1  0
 15 22  1  0
 22 23  2  0
 23  6  1  0
 23 12  1  0
  1 24  1  0
  1 25  1  0
  1 26  1  0
  2 27  1  0
  2 28  1  0
  9 29  1  0
 11 30  1  0
 13 31  1  0
 14 32  1  0
 17 33  1  0
 17 34  1  0
 17 35  1  0
 18 36  1  0
 18 37  1  0
 18 38  1  0
 22 39  1  0
M  CHG  2   9  -1  21  -1
M  END
>  <UniqueID>  (28) 
27

>  <SMILES>  (28) 
CCOC(=O)n1c(C([NH-])=O)cc2ccc(C(C)(C)C(=O)[O-])cc21

>  <Energy>  (28) 
77.42768500018241

>  <Genealogy>  (28) 
CCOC(=O)n1c(C([NH-])=O)cc2ccc(C(C)(C)C(=O)[O-])cc21 (protonated)
CCOC(=O)n1c(C([NH-])=O)cc2ccc(C(C)(C)C(=O)[O-])cc21 (3D coordinates assigned)
CCOC(=O)n1c(C([NH-])=O)cc2ccc(C(C)(C)C(=O)[O-])cc21 (optimized conformer: 77.42768500018241 kcal/mol)

>  <smiles>  (28) 
CCOC(=O)n1c(C(N)=O)cc2ccc(C(C)(C)C(=O)O)cc21

>  <score_type>  (28) 
oracle

>  <origin>  (28) 
adg

>  <m_score__min__energy>  (28) 
-9.8499999999999996

>  <m_primary>  (28) 
energy

$$$$
28:0
     RDKit          3D

 40 41  0  0  0  0  0  0  0  0999 V2000
   -0.9390   20.8020  -33.8160 C   0  0  0  0  0  0  0  0  0  0  0  0
   -1.6790   21.0570  -32.5770 N   0  0  0  0  0  0  0  0  0  0  0  0
   -1.1890   20.5000  -31.3110 C   0  0  0  0  0  0  0  0  0  0  0  0
   -2.9330   21.7740  -32.6500 C   0  0  0  0  0  0  0  0  0  0  0  0
   -3.4930   21.9250  -33.7700 O   0  0  0  0  0  0  0  0  0  0  0  0
   -3.5950   22.3510  -31.4580 C   0  0  0  0  0  0  0  0  0  0  0  0
   -2.9070   22.8310  -30.5170 O   0  0  0  0  0  0  0  0  0  0  0  0
   -5.0270   22.4370  -31.3940 N   0  0  0  0  0  0  0  0  0  0  0  0
   -5.7800   23.4130  -30.8110 C   0  0  0  0  0  0  0  0  0  0  0  0
   -5.2530   24.6660  -30.2260 C   0  0  0  0  0  0  0  0  0  0  0  0
   -5.7320   25.1450  -28.9680 N   0  0  0  0  0  0  0  0  0  0  0  0
   -4.3860   25.3370  -30.8470 O   0  0  0  0  0  0  0  0  0  0  0  0
   -7.1370   23.1070  -30.9220 C   0  0  0  0  0  0  0  0  0  0  0  0
   -7.1870   21.9100  -31.6010 C   0  0  0  0  0  0  0  0  0  0  0  0
   -8.2810   21.1450  -31.9850 C   0  0  0  0  0  0  0  0  0  0  0  0
   -8.0380   19.9400  -32.6650 C   0  0  0  0  0  0  0  0  0  0  0  0
   -6.7090   19.5110  -32.9510 C   0  0  0  0  0  0  0  0  0  0  0  0
   -6.4680   18.2590  -33.6480 N   0  0  0  0  0  0  0  0  0  0  0  0
   -5.7350   18.2430  -34.9200 C   0  0  0  0  0  0  0  0  0  0  0  0
   -6.9520   16.9900  -33.0920 C   0  0  0  0  0  0  0  0  0  0  0  0
   -5.6260   20.3300  -32.5390 C   0  0  0  0  0  0  0  0  0  0  0  0
   -5.9030   21.5290  -31.8740 C   0  0  0  0  0  0  0  0  0  0  0  0
    0.0751   20.4525  -33.5721 H   0  0  0  0  0  0  0  0  0  0  0  0
   -1.4609   20.0319  -34.4029 H   0  0  0  0  0  0  0  0  0  0  0  0
   -0.8757   21.7302  -34.4029 H   0  0  0  0  0  0  0  0  0  0  0  0
   -1.6576   21.0326  -30.4703 H   0  0  0  0  0  0  0  0  0  0  0  0
   -1.4454   19.4317  -31.2568 H   0  0  0  0  0  0  0  0  0  0  0  0
   -0.0967   20.6181  -31.2568 H   0  0  0  0  0  0  0  0  0  0  0  0
   -6.4040   24.5900  -28.3930 H   0  0  0  0  0  0  0  0  0  0  0  0
   -5.3790   26.0490  -28.5840 H   0  0  0  0  0  0  0  0  0  0  0  0
   -7.9864   23.6967  -30.5468 H   0  0  0  0  0  0  0  0  0  0  0  0
   -9.3073   21.4730  -31.7632 H   0  0  0  0  0  0  0  0  0  0  0  0
   -8.8874   19.3171  -32.9821 H   0  0  0  0  0  0  0  0  0  0  0  0
   -4.6536   18.2194  -34.7198 H   0  0  0  0  0  0  0  0  0  0  0  0
   -6.0207   17.3509  -35.4966 H   0  0  0  0  0  0  0  0  0  0  0  0
   -5.9815   19.1467  -35.4966 H   0  0  0  0  0  0  0  0  0  0  0  0
   -6.9329   17.0401  -31.9933 H   0  0  0  0  0  0  0  0  0  0  0  0
   -7.9821   16.8095  -33.4330 H   0  0  0  0  0  0  0  0  0  0  0  0
   -6.3038   16.1693  -33.4330 H   0  0  0  0  0  0  0  0  0  0  0  0
   -4.5875   20.0275  -32.7389 H   0  0  0  0  0  0  0  0  0  0  0  0
  1  2  1  0
  2  3  1  0
  2  4  1  0
  4  5  2  0
  4  6  1  0
  6  7  2  0
  6  8  1  0
  8  9  1  0
  9 10  1  0
 10 11  1  0
 10 12  2  0
  9 13  2  0
 13 14  1  0
 14 15  2  0
 15 16  1  0
 16 17  2  0
 17 18  1  0
 18 19  1  0
 18 20  1  0
 17 21  1  0
 21 22  2  0
 22  8  1  0
 22 14  1  0
  1 23  1  0
  1 24  1  0
  1 25  1  0
  3 26  1  0
  3 27  1  0
  3 28  1  0
 11 29  1  0
 11 30  1  0
 13 31  1  0
 15 32  1  0
 16 33  1  0
 19 34  1  0
 19 35  1  0
 19 36  1  0
 20 37  1  0
 20 38  1  0
 20 39  1  0
 21 40  1  0
M  END
>  <UniqueID>  (29) 
28

>  <SMILES>  (29) 
CN(C)C(=O)C(=O)n1c(C(N)=O)cc2ccc(N(C)C)cc21

>  <Energy>  (29) 
80.55229996408549

>  <Genealogy>  (29) 
CN(C)C(=O)C(=O)n1c(C(N)=O)cc2ccc(N(C)C)cc21 (3D coordinates assigned)
CN(C)C(=O)C(=O)n1c(C(N)=O)cc2ccc(N(C)C)cc21 (optimized conformer: 80.55229996408549 kcal/mol)

>  <smiles>  (29) 
CN(C)C(=O)C(=O)n1c(C(N)=O)cc2ccc(N(C)C)cc21

>  <score_type>  (29) 
oracle

>  <origin>  (29) 
adg

>  <m_score__min__energy>  (29) 
-8.5500000000000007

>  <m_primary>  (29) 
energy

$$$$
29:0
     RDKit          3D

 36 37  0  0  0  0  0  0  0  0999 V2000
   -5.7350   18.1000  -34.7210 C   0  0  0  0  0  0  0  0  0  0  0  0
   -6.4420   18.2330  -33.4410 N   0  0  0  0  0  0  0  0  0  0  0  0
   -6.8670   17.0160  -32.7370 C   0  0  0  0  0  0  0  0  0  0  0  0
   -6.7170   19.5440  -32.8820 C   0  0  0  0  0  0  0  0  0  0  0  0
   -8.0510   20.0330  -32.7980 C   0  0  0  0  0  0  0  0  0  0  0  0
   -8.3280   21.2930  -32.2480 C   0  0  0  0  0  0  0  0  0  0  0  0
   -7.2610   22.0590  -31.7960 C   0  0  0  0  0  0  0  0  0  0  0  0
   -7.2550   23.2950  -31.1920 C   0  0  0  0  0  0  0  0  0  0  0  0
   -5.9160   23.5720  -30.9380 C   0  0  0  0  0  0  0  0  0  0  0  0
   -5.4470   24.8390  -30.3390 C   0  0  0  0  0  0  0  0  0  0  0  0
   -5.6670   25.1300  -28.9580 N   0  0  0  0  0  0  0  0  0  0  0  0
   -4.7930   25.6510  -31.0440 O   0  0  0  0  0  0  0  0  0  0  0  0
   -5.1230   22.5450  -31.3550 N   0  0  0  0  0  0  0  0  0  0  0  0
   -3.7060   22.4080  -31.1560 C   0  0  0  0  0  0  0  0  0  0  0  0
   -2.9250   22.4650  -32.1450 O   0  0  0  0  0  0  0  0  0  0  0  0
   -3.2080   22.2110  -29.8610 O   0  0  0  0  0  0  0  0  0  0  0  0
   -3.2920   23.1390  -28.8140 C   0  0  0  0  0  0  0  0  0  0  0  0
   -4.2700   23.1360  -28.0160 O   0  0  0  0  0  0  0  0  0  0  0  0
   -2.1720   24.1030  -28.6010 C   0  0  0  0  0  0  0  0  0  0  0  0
   -2.0860   24.4400  -27.2630 F   0  0  0  0  0  0  0  0  0  0  0  0
   -2.4050   25.2460  -29.3430 F   0  0  0  0  0  0  0  0  0  0  0  0
   -0.9750   23.5350  -29.0000 F   0  0  0  0  0  0  0  0  0  0  0  0
   -5.9640   21.6250  -31.8810 C   0  0  0  0  0  0  0  0  0  0  0  0
   -5.6590   20.3630  -32.4050 C   0  0  0  0  0  0  0  0  0  0  0  0
   -4.6700   17.8996  -34.5325 H   0  0  0  0  0  0  0  0  0  0  0  0
   -6.1687   17.2677  -35.2947 H   0  0  0  0  0  0  0  0  0  0  0  0
   -5.8367   19.0330  -35.2947 H   0  0  0  0  0  0  0  0  0  0  0  0
   -6.8092   17.1815  -31.6511 H   0  0  0  0  0  0  0  0  0  0  0  0
   -7.9030   16.7737  -33.0164 H   0  0  0  0  0  0  0  0  0  0  0  0
   -6.2071   16.1814  -33.0164 H   0  0  0  0  0  0  0  0  0  0  0  0
   -8.8789   19.4120  -33.1708 H   0  0  0  0  0  0  0  0  0  0  0  0
   -9.3610   21.6642  -32.1766 H   0  0  0  0  0  0  0  0  0  0  0  0
   -8.1236   23.9287  -30.9596 H   0  0  0  0  0  0  0  0  0  0  0  0
   -5.3690   26.0490  -28.5630 H   0  0  0  0  0  0  0  0  0  0  0  0
   -6.0550   24.4100  -28.3100 H   0  0  0  0  0  0  0  0  0  0  0  0
   -4.6175   20.0116  -32.4466 H   0  0  0  0  0  0  0  0  0  0  0  0
  1  2  1  0
  2  3  1  0
  2  4  1  0
  4  5  2  0
  5  6  1  0
  6  7  2  0
  7  8  1  0
  8  9  2  0
  9 10  1  0
 10 11  1  0
 10 12  2  0
  9 13  1  0
 13 14  1  0
 14 15  2  0
 14 16  1  0
 16 17  1  0
 17 18  2  0
 17 19  1  0
 19 20  1  0
 19 21  1  0
 19 22  1  0
 13 23  1  0
 23 24  2  0
 24  4  1  0
 23  7  1  0
  1 25  1  0
  1 26  1  0
  1 27  1  0
  3 28  1  0
  3 29  1  0
  3 30  1  0
  5 31  1  0
  6 32  1  0
  8 33  1  0
 11 34  1  0
 11 35  1  0
 24 36  1  0
M  END
>  <UniqueID>  (30) 
29

>  <SMILES>  (30) 
CN(C)c1ccc2cc(C(N)=O)n(C(=O)OC(=O)C(F)(F)F)c2c1

>  <Energy>  (30) 
76.41664776659549

>  <Genealogy>  (30) 
CN(C)c1ccc2cc(C(N)=O)n(C(=O)OC(=O)C(F)(F)F)c2c1 (3D coordinates assigned)
CN(C)c1ccc2cc(C(N)=O)n(C(=O)OC(=O)C(F)(F)F)c2c1 (optimized conformer: 76.41664776659549 kcal/mol)

>  <smiles>  (30) 
CN(C)c1ccc2cc(C(N)=O)n(C(=O)OC(=O)C(F)(F)F)c2c1

>  <score_type>  (30) 
oracle

>  <origin>  (30) 
adg

>  <m_score__min__energy>  (30) 
-8.0399999999999991

>  <m_primary>  (30) 
energy

$$$$
30:0
     RDKit          3D

 42 43  0  0  0  0  0  0  0  0999 V2000
   -8.8070   19.2750  -31.6060 C   0  0  0  0  0  0  0  0  0  0  0  0
   -7.8030   18.2230  -31.4440 N   0  0  0  0  0  0  0  0  0  0  0  0
   -7.6130   17.5040  -32.7100 C   0  0  0  0  0  0  0  0  0  0  0  0
   -6.1290   17.1870  -32.9310 C   0  0  0  0  0  0  0  0  0  0  0  0
   -5.4750   18.2150  -33.7620 N   0  0  0  0  0  0  0  0  0  0  0  0
   -5.4130   18.0340  -35.2170 C   0  0  0  0  0  0  0  0  0  0  0  0
   -4.8700   19.3860  -33.1640 C   0  0  0  0  0  0  0  0  0  0  0  0
   -3.4560   19.5250  -33.1390 C   0  0  0  0  0  0  0  0  0  0  0  0
   -2.8520   20.6420  -32.5430 C   0  0  0  0  0  0  0  0  0  0  0  0
   -3.6780   21.6120  -31.9870 C   0  0  0  0  0  0  0  0  0  0  0  0
   -3.3540   22.7700  -31.3190 C   0  0  0  0  0  0  0  0  0  0  0  0
   -4.5720   23.3470  -30.9710 C   0  0  0  0  0  0  0  0  0  0  0  0
   -4.6880   24.6480  -30.2820 C   0  0  0  0  0  0  0  0  0  0  0  0
   -5.3990   24.7720  -29.0510 N   0  0  0  0  0  0  0  0  0  0  0  0
   -4.1960   25.6760  -30.8180 O   0  0  0  0  0  0  0  0  0  0  0  0
   -5.6100   22.5710  -31.3930 N   0  0  0  0  0  0  0  0  0  0  0  0
   -7.0070   22.7650  -31.1160 C   0  0  0  0  0  0  0  0  0  0  0  0
   -7.3960   22.9520  -29.9310 O   0  0  0  0  0  0  0  0  0  0  0  0
   -7.9310   22.7490  -32.1650 O   0  0  0  0  0  0  0  0  0  0  0  0
   -9.3120   22.4670  -31.9680 C   0  0  0  0  0  0  0  0  0  0  0  0
   -5.0450   21.5120  -32.0170 C   0  0  0  0  0  0  0  0  0  0  0  0
   -5.6740   20.3990  -32.5880 C   0  0  0  0  0  0  0  0  0  0  0  0
   -9.1379   19.6217  -30.6159 H   0  0  0  0  0  0  0  0  0  0  0  0
   -8.3692   20.1172  -32.1620 H   0  0  0  0  0  0  0  0  0  0  0  0
   -9.6687   18.8770  -32.1620 H   0  0  0  0  0  0  0  0  0  0  0  0
   -6.9010   18.6950  -31.1970 H   0  0  0  0  0  0  0  0  0  0  0  0
   -8.1835   16.5639  -32.6814 H   0  0  0  0  0  0  0  0  0  0  0  0
   -7.9678   18.1383  -33.5357 H   0  0  0  0  0  0  0  0  0  0  0  0
   -5.6239   17.1418  -31.9549 H   0  0  0  0  0  0  0  0  0  0  0  0
   -6.0562   16.2222  -33.4544 H   0  0  0  0  0  0  0  0  0  0  0  0
   -5.0643   17.0160  -35.4453 H   0  0  0  0  0  0  0  0  0  0  0  0
   -6.4138   18.1841  -35.6481 H   0  0  0  0  0  0  0  0  0  0  0  0
   -4.7144   18.7662  -35.6481 H   0  0  0  0  0  0  0  0  0  0  0  0
   -2.8263   18.7458  -33.5933 H   0  0  0  0  0  0  0  0  0  0  0  0
   -1.7574   20.7472  -32.5164 H   0  0  0  0  0  0  0  0  0  0  0  0
   -2.3469   23.1575  -31.1053 H   0  0  0  0  0  0  0  0  0  0  0  0
   -5.4360   25.6920  -28.5580 H   0  0  0  0  0  0  0  0  0  0  0  0
   -5.9570   23.9780  -28.6660 H   0  0  0  0  0  0  0  0  0  0  0  0
   -9.5271   22.4231  -30.8901 H   0  0  0  0  0  0  0  0  0  0  0  0
   -9.9178   23.2600  -32.4308 H   0  0  0  0  0  0  0  0  0  0  0  0
   -9.5584   21.5000  -32.4308 H   0  0  0  0  0  0  0  0  0  0  0  0
   -6.7707   20.3134  -32.5890 H   0  0  0  0  0  0  0  0  0  0  0  0
  1  2  1  0
  2  3  1  0
  3  4  1  0
  4  5  1  0
  5  6  1  0
  5  7  1  0
  7  8  2  0
  8  9  1  0
  9 10  2  0
 10 11  1  0
 11 12  2  0
 12 13  1  0
 13 14  1  0
 13 15  2  0
 12 16  1  0
 16 17  1  0
 17 18  2  0
 17 19  1  0
 19 20  1  0
 16 21  1  0
 21 22  2  0
 22  7  1  0
 21 10  1  0
  1 23  1  0
  1 24  1  0
  1 25  1  0
  2 26  1  0
  3 27  1  0
  3 28  1  0
  4 29  1  0
  4 30  1  0
  6 31  1  0
  6 32  1  0
  6 33  1  0
  8 34  1  0
  9 35  1  0
 11 36  1  0
 14 37  1  0
 14 38  1  0
 20 39  1  0
 20 40  1  0
 20 41  1  0
 22 42  1  0
M  END
>  <UniqueID>  (31) 
30

>  <SMILES>  (31) 
CNCCN(C)c1ccc2cc(C(N)=O)n(C(=O)OC)c2c1

>  <Energy>  (31) 
76.96689725370275

>  <Genealogy>  (31) 
CNCCN(C)c1ccc2cc(C(N)=O)n(C(=O)OC)c2c1 (3D coordinates assigned)
CNCCN(C)c1ccc2cc(C(N)=O)n(C(=O)OC)c2c1 (optimized conformer: 76.96689725370275 kcal/mol)

>  <smiles>  (31) 
CNCCN(C)c1ccc2cc(C(N)=O)n(C(=O)OC)c2c1

>  <score_type>  (31) 
oracle

>  <origin>  (31) 
adg

>  <m_score__min__energy>  (31) 
-7.6299999999999999

>  <m_primary>  (31) 
energy

$$$$
31:0
     RDKit          3D

 31 32  0  0  0  0  0  0  0  0999 V2000
   -3.2140   20.2080  -33.3950 C   0  0  0  0  0  0  0  0  0  0  0  0
   -3.4590   21.5180  -33.3630 C   0  0  0  0  0  0  0  0  0  0  0  0
   -3.1710   22.3270  -32.2520 O   0  0  0  0  0  0  0  0  0  0  0  0
   -3.9190   22.3770  -31.0670 C   0  0  0  0  0  0  0  0  0  0  0  0
   -3.3870   22.0920  -29.9590 O   0  0  0  0  0  0  0  0  0  0  0  0
   -5.3210   22.6800  -31.1280 N   0  0  0  0  0  0  0  0  0  0  0  0
   -5.9200   23.8880  -30.9260 C   0  0  0  0  0  0  0  0  0  0  0  0
   -5.2580   25.1120  -30.4280 C   0  0  0  0  0  0  0  0  0  0  0  0
   -3.8560   25.3040  -30.5910 N   0  0  0  0  0  0  0  0  0  0  0  0
   -5.9310   25.9760  -29.8070 O   0  0  0  0  0  0  0  0  0  0  0  0
   -7.2870   23.8040  -31.1790 C   0  0  0  0  0  0  0  0  0  0  0  0
   -7.5130   22.4950  -31.5360 C   0  0  0  0  0  0  0  0  0  0  0  0
   -8.6940   21.8600  -31.9100 C   0  0  0  0  0  0  0  0  0  0  0  0
   -8.6290   20.5020  -32.2630 C   0  0  0  0  0  0  0  0  0  0  0  0
   -7.3940   19.8080  -32.2360 C   0  0  0  0  0  0  0  0  0  0  0  0
   -7.3300   18.3680  -32.6610 C   0  0  0  0  0  0  0  0  0  0  0  0
   -6.3410   18.2040  -33.7690 C   0  0  0  0  0  0  0  0  0  0  0  0
   -5.7930   17.0880  -33.9710 O   0  0  0  0  0  0  0  0  0  0  0  0
   -6.0580   19.2710  -34.6130 O   0  0  0  0  0  0  0  0  0  0  0  0
   -6.2140   20.4890  -31.8630 C   0  0  0  0  0  0  0  0  0  0  0  0
   -6.3110   21.8360  -31.4980 C   0  0  0  0  0  0  0  0  0  0  0  0
   -3.4609   19.6241  -34.2939 H   0  0  0  0  0  0  0  0  0  0  0  0
   -2.7649   19.7110  -32.5225 H   0  0  0  0  0  0  0  0  0  0  0  0
   -3.9086   21.9881  -34.2501 H   0  0  0  0  0  0  0  0  0  0  0  0
   -3.4850   26.0370  -31.2350 H   0  0  0  0  0  0  0  0  0  0  0  0
   -8.0288   24.6131  -31.1083 H   0  0  0  0  0  0  0  0  0  0  0  0
   -9.6492   22.4052  -31.9285 H   0  0  0  0  0  0  0  0  0  0  0  0
   -9.5452   19.9725  -32.5631 H   0  0  0  0  0  0  0  0  0  0  0  0
   -7.0234   17.7491  -31.8049 H   0  0  0  0  0  0  0  0  0  0  0  0
   -8.3227   18.0520  -33.0143 H   0  0  0  0  0  0  0  0  0  0  0  0
   -5.2426   19.9728  -31.8596 H   0  0  0  0  0  0  0  0  0  0  0  0
  1  2  2  0
  2  3  1  0
  3  4  1  0
  4  5  2  0
  4  6  1  0
  6  7  1  0
  7  8  1  0
  8  9  1  0
  8 10  2  0
  7 11  2  0
 11 12  1  0
 12 13  2  0
 13 14  1  0
 14 15  2  0
 15 16  1  0
 16 17  1  0
 17 18  2  0
 17 19  1  0
 15 20  1  0
 20 21  2  0
 21  6  1  0
 21 12  1  0
  1 22  1  0
  1 23  1  0
  2 24  1  0
  9 25  1  0
 11 26  1  0
 13 27  1  0
 14 28  1  0
 16 29  1  0
 16 30  1  0
 20 31  1  0
M  CHG  2   9  -1  19  -1
M  END
>  <UniqueID>  (32) 
31

>  <SMILES>  (32) 
C=COC(=O)n1c(C([NH-])=O)cc2ccc(CC(=O)[O-])cc21

>  <Energy>  (32) 
72.3454177913687

>  <Genealogy>  (32) 
C=COC(=O)n1c(C([NH-])=O)cc2ccc(CC(=O)[O-])cc21 (protonated)
C=COC(=O)n1c(C([NH-])=O)cc2ccc(CC(=O)[O-])cc21 (3D coordinates assigned)
C=COC(=O)n1c(C([NH-])=O)cc2ccc(CC(=O)[O-])cc21 (optimized conformer: 72.3454177913687 kcal/mol)

>  <smiles>  (32) 
C=COC(=O)n1c(C(N)=O)cc2ccc(CC(=O)O)cc21

>  <score_type>  (32) 
oracle

>  <origin>  (32) 
adg

>  <m_score__min__energy>  (32) 
-9.7400000000000002

>  <m_primary>  (32) 
energy

$$$$
32:0
     RDKit          3D

 47 49  0  0  0  0  0  0  0  0999 V2000
   -5.5420   13.6360  -34.5360 C   0  0  0  0  0  0  0  0  0  0  0  0
   -4.7680   14.8280  -34.6110 O   0  0  0  0  0  0  0  0  0  0  0  0
   -5.2260   16.0580  -34.1340 C   0  0  0  0  0  0  0  0  0  0  0  0
   -5.6190   16.1760  -32.7990 C   0  0  0  0  0  0  0  0  0  0  0  0
   -6.0780   17.4030  -32.3230 C   0  0  0  0  0  0  0  0  0  0  0  0
   -6.1480   18.5150  -33.1790 C   0  0  0  0  0  0  0  0  0  0  0  0
   -6.6430   19.8260  -32.6880 C   0  0  0  0  0  0  0  0  0  0  0  0
   -8.0190   20.1610  -32.7970 C   0  0  0  0  0  0  0  0  0  0  0  0
   -8.4990   21.3940  -32.3240 C   0  0  0  0  0  0  0  0  0  0  0  0
   -7.5850   22.2790  -31.7630 C   0  0  0  0  0  0  0  0  0  0  0  0
   -7.7870   23.5140  -31.1880 C   0  0  0  0  0  0  0  0  0  0  0  0
   -6.5270   23.9330  -30.7680 C   0  0  0  0  0  0  0  0  0  0  0  0
   -6.2760   25.2350  -30.1160 C   0  0  0  0  0  0  0  0  0  0  0  0
   -5.1660   26.0510  -30.4900 N   0  0  0  0  0  0  0  0  0  0  0  0
   -7.0840   25.6560  -29.2450 O   0  0  0  0  0  0  0  0  0  0  0  0
   -5.5850   22.9950  -31.0650 N   0  0  0  0  0  0  0  0  0  0  0  0
   -4.2000   22.9980  -30.6840 C   0  0  0  0  0  0  0  0  0  0  0  0
   -3.5020   24.0290  -30.8840 O   0  0  0  0  0  0  0  0  0  0  0  0
   -3.6140   21.8240  -30.1010 N   0  0  0  0  0  0  0  0  0  0  0  0
   -2.3400   21.8020  -29.4440 C   0  0  0  0  0  0  0  0  0  0  0  0
   -1.6350   22.8470  -29.3760 O   0  0  0  0  0  0  0  0  0  0  0  0
   -1.8920   20.6070  -28.8740 O   0  0  0  0  0  0  0  0  0  0  0  0
   -2.4420   20.0480  -27.6820 C   0  0  0  0  0  0  0  0  0  0  0  0
   -1.6020   20.4280  -26.4600 C   0  0  0  0  0  0  0  0  0  0  0  0
   -0.6880   21.4400  -26.7860 O   0  0  0  0  0  0  0  0  0  0  0  0
   -6.2490   21.9860  -31.6700 C   0  0  0  0  0  0  0  0  0  0  0  0
   -5.7470   20.7540  -32.1050 C   0  0  0  0  0  0  0  0  0  0  0  0
   -5.7410   18.3500  -34.5150 C   0  0  0  0  0  0  0  0  0  0  0  0
   -5.2950   17.1440  -34.9540 N   0  0  0  0  0  0  0  0  0  0  0  0
   -5.7116   13.3747  -33.4810 H   0  0  0  0  0  0  0  0  0  0  0  0
   -6.5096   13.7951  -35.0345 H   0  0  0  0  0  0  0  0  0  0  0  0
   -5.0030   12.8169  -35.0345 H   0  0  0  0  0  0  0  0  0  0  0  0
   -5.5666   15.3063  -32.1276 H   0  0  0  0  0  0  0  0  0  0  0  0
   -6.3870   17.5013  -31.2719 H   0  0  0  0  0  0  0  0  0  0  0  0
   -8.7173   19.4465  -33.2573 H   0  0  0  0  0  0  0  0  0  0  0  0
   -9.5661   21.6514  -32.3954 H   0  0  0  0  0  0  0  0  0  0  0  0
   -8.7396   24.0539  -31.0830 H   0  0  0  0  0  0  0  0  0  0  0  0
   -4.5890   25.8270  -31.3300 H   0  0  0  0  0  0  0  0  0  0  0  0
   -4.9760   26.9420  -29.9800 H   0  0  0  0  0  0  0  0  0  0  0  0
   -4.1580   20.9330  -30.1300 H   0  0  0  0  0  0  0  0  0  0  0  0
   -3.4660   20.4262  -27.5464 H   0  0  0  0  0  0  0  0  0  0  0  0
   -2.4457   18.9522  -27.7779 H   0  0  0  0  0  0  0  0  0  0  0  0
   -2.2676   20.7856  -25.6606 H   0  0  0  0  0  0  0  0  0  0  0  0
   -1.0449   19.5416  -26.1225 H   0  0  0  0  0  0  0  0  0  0  0  0
   -0.8400   21.6650  -27.7420 H   0  0  0  0  0  0  0  0  0  0  0  0
   -4.6794   20.5121  -31.9962 H   0  0  0  0  0  0  0  0  0  0  0  0
   -5.7840   19.2025  -35.2088 H   0  0  0  0  0  0  0  0  0  0  0  0
  1  2  1  0
  2  3  1  0
  3  4  2  0
  4  5  1  0
  5  6  2  0
  6  7  1  0
  7  8  2  0
  8  9  1  0
  9 10  2  0
 10 11  1  0
 11 12  2  0
 12 13  1  0
 13 14  1  0
 13 15  2  0
 12 16  1  0
 16 17  1  0
 17 18  2  0
 17 19  1  0
 19 20  1  0
 20 21  2  0
 20 22  1  0
 22 23  1  0
 23 24  1  0
 24 25  1  0
 16 26  1  0
 26 27  2  0
  6 28  1  0
 28 29  2  0
 29  3  1  0
 27  7  1  0
 26 10  1  0
  1 30  1  0
  1 31  1  0
  1 32  1  0
  4 33  1  0
  5 34  1  0
  8 35  1  0
  9 36  1  0
 11 37  1  0
 14 38  1  0
 14 39  1  0
 19 40  1  0
 23 41  1  0
 23 42  1  0
 24 43  1  0
 24 44  1  0
 25 45  1  0
 27 46  1  0
 28 47  1  0
M  END
>  <UniqueID>  (33) 
32

>  <SMILES>  (33) 
COc1ccc(-c2ccc3cc(C(N)=O)n(C(=O)NC(=O)OCCO)c3c2)cn1

>  <Energy>  (33) 
88.97668538839943

>  <Genealogy>  (33) 
COc1ccc(-c2ccc3cc(C(N)=O)n(C(=O)NC(=O)OCCO)c3c2)cn1 (3D coordinates assigned)
COc1ccc(-c2ccc3cc(C(N)=O)n(C(=O)NC(=O)OCCO)c3c2)cn1 (optimized conformer: 88.97668538839943 kcal/mol)

>  <smiles>  (33) 
COc1ccc(-c2ccc3cc(C(N)=O)n(C(=O)NC(=O)OCCO)c3c2)cn1

>  <score_type>  (33) 
oracle

>  <origin>  (33) 
adg

>  <m_score__min__energy>  (33) 
-9.0899999999999999

>  <m_primary>  (33) 
energy

$$$$
33:0
     RDKit          3D

 50 51  0  0  0  0  0  0  0  0999 V2000
   -2.5430   21.3070  -28.4200 C   0  0  0  0  0  0  0  0  0  0  0  0
   -1.6160   21.3760  -29.6460 C   0  0  0  0  0  0  0  0  0  0  0  0
   -0.6010   22.5210  -29.4540 C   0  0  0  0  0  0  0  0  0  0  0  0
   -0.8450   20.0470  -29.7890 C   0  0  0  0  0  0  0  0  0  0  0  0
   -2.4580   21.6350  -30.8800 C   0  0  0  0  0  0  0  0  0  0  0  0
   -2.7040   22.8200  -31.2370 O   0  0  0  0  0  0  0  0  0  0  0  0
   -2.8870   20.5540  -31.6630 O   0  0  0  0  0  0  0  0  0  0  0  0
   -3.5370   20.6570  -32.8980 C   0  0  0  0  0  0  0  0  0  0  0  0
   -2.8750   20.8000  -33.9610 O   0  0  0  0  0  0  0  0  0  0  0  0
   -4.9720   20.5890  -32.9540 N   0  0  0  0  0  0  0  0  0  0  0  0
   -5.7370   19.5770  -33.4490 C   0  0  0  0  0  0  0  0  0  0  0  0
   -5.2500   18.4270  -34.2350 C   0  0  0  0  0  0  0  0  0  0  0  0
   -3.8670   18.0700  -34.2430 N   0  0  0  0  0  0  0  0  0  0  0  0
   -6.0560   17.7890  -34.9640 O   0  0  0  0  0  0  0  0  0  0  0  0
   -7.0840   19.7950  -33.1690 C   0  0  0  0  0  0  0  0  0  0  0  0
   -7.1260   20.9910  -32.4920 C   0  0  0  0  0  0  0  0  0  0  0  0
   -8.2120   21.6710  -31.9470 C   0  0  0  0  0  0  0  0  0  0  0  0
   -7.9600   22.8650  -31.2530 C   0  0  0  0  0  0  0  0  0  0  0  0
   -6.6360   23.3560  -31.1170 C   0  0  0  0  0  0  0  0  0  0  0  0
   -6.3690   24.6240  -30.3520 C   0  0  0  0  0  0  0  0  0  0  0  0
   -4.9050   24.7690  -30.0840 C   0  0  0  0  0  0  0  0  0  0  0  0
   -4.2390   25.6500  -30.6920 O   0  0  0  0  0  0  0  0  0  0  0  0
   -4.3040   23.9530  -29.1200 O   0  0  0  0  0  0  0  0  0  0  0  0
   -3.8130   24.4420  -27.8760 C   0  0  0  0  0  0  0  0  0  0  0  0
   -2.3590   24.8920  -28.0140 C   0  0  0  0  0  0  0  0  0  0  0  0
   -2.1140   25.2690  -29.3390 O   0  0  0  0  0  0  0  0  0  0  0  0
   -5.5600   22.6370  -31.6850 C   0  0  0  0  0  0  0  0  0  0  0  0
   -5.8390   21.4530  -32.3770 C   0  0  0  0  0  0  0  0  0  0  0  0
   -1.9398   21.3519  -27.5012 H   0  0  0  0  0  0  0  0  0  0  0  0
   -3.2427   22.1556  -28.4411 H   0  0  0  0  0  0  0  0  0  0  0  0
   -3.1093   20.3642  -28.4411 H   0  0  0  0  0  0  0  0  0  0  0  0
   -0.4453   22.6966  -28.3793 H   0  0  0  0  0  0  0  0  0  0  0  0
    0.3553   22.2458  -29.9229 H   0  0  0  0  0  0  0  0  0  0  0  0
   -0.9889   23.4373  -29.9229 H   0  0  0  0  0  0  0  0  0  0  0  0
   -0.6136   19.6481  -28.7904 H   0  0  0  0  0  0  0  0  0  0  0  0
   -1.4628   19.3221  -30.3393 H   0  0  0  0  0  0  0  0  0  0  0  0
    0.0910   20.2235  -30.3393 H   0  0  0  0  0  0  0  0  0  0  0  0
   -3.1520   18.6670  -33.7740 H   0  0  0  0  0  0  0  0  0  0  0  0
   -3.5390   17.2640  -34.8190 H   0  0  0  0  0  0  0  0  0  0  0  0
   -7.9334   19.1480  -33.4333 H   0  0  0  0  0  0  0  0  0  0  0  0
   -9.2360   21.2845  -32.0569 H   0  0  0  0  0  0  0  0  0  0  0  0
   -8.7970   23.4251  -30.8105 H   0  0  0  0  0  0  0  0  0  0  0  0
   -6.7169   25.4844  -30.9426 H   0  0  0  0  0  0  0  0  0  0  0  0
   -6.9064   24.5836  -29.3930 H   0  0  0  0  0  0  0  0  0  0  0  0
   -4.4273   25.2961  -27.5549 H   0  0  0  0  0  0  0  0  0  0  0  0
   -3.8664   23.6349  -27.1305 H   0  0  0  0  0  0  0  0  0  0  0  0
   -2.1749   25.7483  -27.3486 H   0  0  0  0  0  0  0  0  0  0  0  0
   -1.6898   24.0640  -27.7374 H   0  0  0  0  0  0  0  0  0  0  0  0
   -2.5150   24.5620  -29.9100 H   0  0  0  0  0  0  0  0  0  0  0  0
   -4.5264   22.9999  -31.5854 H   0  0  0  0  0  0  0  0  0  0  0  0
  1  2  1  0
  2  3  1  0
  2  4  1  0
  2  5  1  0
  5  6  2  0
  5  7  1  0
  7  8  1  0
  8  9  2  0
  8 10  1  0
 10 11  1  0
 11 12  1  0
 12 13  1  0
 12 14  2  0
 11 15  2  0
 15 16  1  0
 16 17  2  0
 17 18  1  0
 18 19  2  0
 19 20  1  0
 20 21  1  0
 21 22  2  0
 21 23  1  0
 23 24  1  0
 24 25  1  0
 25 26  1  0
 19 27  1  0
 27 28  2  0
 28 10  1  0
 28 16  1  0
  1 29  1  0
  1 30  1  0
  1 31  1  0
  3 32  1  0
  3 33  1  0
  3 34  1  0
  4 35  1  0
  4 36  1  0
  4 37  1  0
 13 38  1  0
 13 39  1  0
 15 40  1  0
 17 41  1  0
 18 42  1  0
 20 43  1  0
 20 44  1  0
 24 45  1  0
 24 46  1  0
 25 47  1  0
 25 48  1  0
 26 49  1  0
 27 50  1  0
M  END
>  <UniqueID>  (34) 
33

>  <SMILES>  (34) 
CC(C)(C)C(=O)OC(=O)n1c(C(N)=O)cc2ccc(CC(=O)OCCO)cc21

>  <Energy>  (34) 
77.26683795899028

>  <Genealogy>  (34) 
CC(C)(C)C(=O)OC(=O)n1c(C(N)=O)cc2ccc(CC(=O)OCCO)cc21 (3D coordinates assigned)
CC(C)(C)C(=O)OC(=O)n1c(C(N)=O)cc2ccc(CC(=O)OCCO)cc21 (optimized conformer: 77.26683795899028 kcal/mol)

>  <smiles>  (34) 
CC(C)(C)C(=O)OC(=O)n1c(C(N)=O)cc2ccc(CC(=O)OCCO)cc21

>  <score_type>  (34) 
oracle

>  <origin>  (34) 
adg

>  <m_score__min__energy>  (34) 
-8.3499999999999996

>  <m_primary>  (34) 
energy

$$$$
34:0
     RDKit          3D

 31 32  0  0  0  0  0  0  0  0999 V2000
   -2.7150   24.9360  -29.6980 N   0  0  0  0  0  0  0  0  0  0  0  0
   -3.0920   23.8260  -28.8880 C   0  0  0  0  0  0  0  0  0  0  0  0
   -3.1450   23.9520  -27.6360 O   0  0  0  0  0  0  0  0  0  0  0  0
   -3.4780   22.5310  -29.5270 C   0  0  0  0  0  0  0  0  0  0  0  0
   -4.0840   22.7950  -30.8720 C   0  0  0  0  0  0  0  0  0  0  0  0
   -3.3350   23.0360  -31.8560 O   0  0  0  0  0  0  0  0  0  0  0  0
   -5.5070   22.9010  -31.0180 N   0  0  0  0  0  0  0  0  0  0  0  0
   -6.2890   23.9990  -30.8280 C   0  0  0  0  0  0  0  0  0  0  0  0
   -5.8220   25.2910  -30.2770 C   0  0  0  0  0  0  0  0  0  0  0  0
   -6.3800   25.8210  -29.0740 N   0  0  0  0  0  0  0  0  0  0  0  0
   -4.9080   25.9310  -30.8620 O   0  0  0  0  0  0  0  0  0  0  0  0
   -7.6150   23.7090  -31.1500 C   0  0  0  0  0  0  0  0  0  0  0  0
   -7.6150   22.3890  -31.5410 C   0  0  0  0  0  0  0  0  0  0  0  0
   -8.6610   21.5820  -31.9790 C   0  0  0  0  0  0  0  0  0  0  0  0
   -8.3650   20.2560  -32.3370 C   0  0  0  0  0  0  0  0  0  0  0  0
   -7.0400   19.7560  -32.2420 C   0  0  0  0  0  0  0  0  0  0  0  0
   -6.7380   18.3470  -32.6850 C   0  0  0  0  0  0  0  0  0  0  0  0
   -5.6920   17.8090  -31.9560 F   0  0  0  0  0  0  0  0  0  0  0  0
   -6.3950   18.3550  -34.0240 F   0  0  0  0  0  0  0  0  0  0  0  0
   -7.8500   17.5410  -32.5090 F   0  0  0  0  0  0  0  0  0  0  0  0
   -6.0020   20.6160  -31.8130 C   0  0  0  0  0  0  0  0  0  0  0  0
   -6.3300   21.9260  -31.4510 C   0  0  0  0  0  0  0  0  0  0  0  0
   -2.9860   24.9810  -30.7060 H   0  0  0  0  0  0  0  0  0  0  0  0
   -2.5844   21.9005  -29.6455 H   0  0  0  0  0  0  0  0  0  0  0  0
   -4.2116   22.0141  -28.8909 H   0  0  0  0  0  0  0  0  0  0  0  0
   -7.1790   25.3550  -28.5920 H   0  0  0  0  0  0  0  0  0  0  0  0
   -6.0230   26.7230  -28.6860 H   0  0  0  0  0  0  0  0  0  0  0  0
   -8.4773   24.3902  -31.1017 H   0  0  0  0  0  0  0  0  0  0  0  0
   -9.6881   21.9705  -32.0429 H   0  0  0  0  0  0  0  0  0  0  0  0
   -9.1699   19.5974  -32.6953 H   0  0  0  0  0  0  0  0  0  0  0  0
   -4.9615   20.2625  -31.7653 H   0  0  0  0  0  0  0  0  0  0  0  0
  1  2  1  0
  2  3  2  0
  2  4  1  0
  4  5  1  0
  5  6  2  0
  5  7  1  0
  7  8  1  0
  8  9  1  0
  9 10  1  0
  9 11  2  0
  8 12  2  0
 12 13  1  0
 13 14  2  0
 14 15  1  0
 15 16  2  0
 16 17  1  0
 17 18  1  0
 17 19  1  0
 17 20  1  0
 16 21  1  0
 21 22  2  0
 22  7  1  0
 22 13  1  0
  1 23  1  0
  4 24  1  0
  4 25  1  0
 10 26  1  0
 10 27  1  0
 12 28  1  0
 14 29  1  0
 15 30  1  0
 21 31  1  0
M  CHG  1   1  -1
M  END
>  <UniqueID>  (35) 
34

>  <SMILES>  (35) 
[NH-]C(=O)CC(=O)n1c(C(N)=O)cc2ccc(C(F)(F)F)cc21

>  <Energy>  (35) 
68.6297779956965

>  <Genealogy>  (35) 
[NH-]C(=O)CC(=O)n1c(C(N)=O)cc2ccc(C(F)(F)F)cc21 (protonated)
[NH-]C(=O)CC(=O)n1c(C(N)=O)cc2ccc(C(F)(F)F)cc21 (3D coordinates assigned)
[NH-]C(=O)CC(=O)n1c(C(N)=O)cc2ccc(C(F)(F)F)cc21 (optimized conformer: 68.6297779956965 kcal/mol)

>  <smiles>  (35) 
NC(=O)CC(=O)n1c(C(N)=O)cc2ccc(C(F)(F)F)cc21

>  <score_type>  (35) 
oracle

>  <origin>  (35) 
adg

>  <m_score__min__energy>  (35) 
-10.43

>  <m_primary>  (35) 
energy

$$$$
35:0
     RDKit          3D

 57 60  0  0  0  0  0  0  0  0999 V2000
   -4.6590   14.0570  -31.3040 C   0  0  0  0  0  0  0  0  0  0  0  0
   -4.0160   13.9140  -32.6280 N   0  0  2  0  0  0  0  0  0  0  0  0
   -2.9020   14.8990  -32.8020 C   0  0  0  0  0  0  0  0  0  0  0  0
   -2.8290   15.4840  -34.2330 C   0  0  1  0  0  0  0  0  0  0  0  0
   -3.0010   14.3760  -35.2780 C   0  0  0  0  0  0  0  0  0  0  0  0
   -4.3030   13.5780  -35.0810 C   0  0  0  0  0  0  0  0  0  0  0  0
   -5.0060   13.8930  -33.7430 C   0  0  2  0  0  0  0  0  0  0  0  0
   -5.8640   15.1790  -33.8520 C   0  0  0  0  0  0  0  0  0  0  0  0
   -5.1020   16.4260  -33.6870 N   0  0  0  0  0  0  0  0  0  0  0  0
   -5.8380   17.5840  -33.2270 C   0  0  0  0  0  0  0  0  0  0  0  0
   -7.2480   17.5210  -33.0410 C   0  0  0  0  0  0  0  0  0  0  0  0
   -7.9460   18.6180  -32.5200 C   0  0  0  0  0  0  0  0  0  0  0  0
   -7.2240   19.7630  -32.1990 C   0  0  0  0  0  0  0  0  0  0  0  0
   -7.6710   20.9610  -31.7050 C   0  0  0  0  0  0  0  0  0  0  0  0
   -6.5610   21.7980  -31.6950 C   0  0  0  0  0  0  0  0  0  0  0  0
   -6.6030   23.1610  -31.1170 C   0  0  0  0  0  0  0  0  0  0  0  0
   -5.9570   24.2660  -31.7510 N   0  0  0  0  0  0  0  0  0  0  0  0
   -7.1980   23.3530  -30.0210 O   0  0  0  0  0  0  0  0  0  0  0  0
   -5.4490   21.1470  -32.1600 N   0  0  0  0  0  0  0  0  0  0  0  0
   -4.2070   21.7630  -32.5750 C   0  0  0  0  0  0  0  0  0  0  0  0
   -4.1700   22.5500  -33.5650 O   0  0  0  0  0  0  0  0  0  0  0  0
   -2.9760   21.4510  -31.9290 N   0  0  0  0  0  0  0  0  0  0  0  0
   -2.5480   22.2290  -30.8080 C   0  0  0  0  0  0  0  0  0  0  0  0
   -1.4200   22.8040  -30.8190 O   0  0  0  0  0  0  0  0  0  0  0  0
   -3.3770   22.2860  -29.6370 N   0  0  0  0  0  0  0  0  0  0  0  0
   -3.8740   23.5490  -29.0940 C   0  0  0  0  0  0  0  0  0  0  0  0
   -3.2470   24.7490  -29.7360 C   0  0  0  0  0  0  0  0  0  0  0  0
   -2.2210   25.2840  -29.2350 O   0  0  0  0  0  0  0  0  0  0  0  0
   -3.8420   25.3220  -30.8560 O   0  0  0  0  0  0  0  0  0  0  0  0
   -5.8710   19.8810  -32.4310 C   0  0  0  0  0  0  0  0  0  0  0  0
   -5.1490   18.7860  -32.9310 C   0  0  0  0  0  0  0  0  0  0  0  0
   -3.8470   16.6310  -34.4340 C   0  0  0  0  0  0  0  0  0  0  0  0
   -3.9120   13.8909  -30.5138 H   0  0  0  0  0  0  0  0  0  0  0  0
   -5.0766   15.0700  -31.2067 H   0  0  0  0  0  0  0  0  0  0  0  0
   -5.4666   13.3165  -31.2067 H   0  0  0  0  0  0  0  0  0  0  0  0
   -3.5780   12.9560  -32.6190 H   0  0  0  0  0  0  0  0  0  0  0  0
   -3.0517   15.7262  -32.0925 H   0  0  0  0  0  0  0  0  0  0  0  0
   -1.9586   14.3644  -32.6169 H   0  0  0  0  0  0  0  0  0  0  0  0
   -1.8299   15.9231  -34.3709 H   0  0  0  0  0  0  0  0  0  0  0  0
   -3.0153   14.8334  -36.2783 H   0  0  0  0  0  0  0  0  0  0  0  0
   -2.1595   13.6765  -35.1657 H   0  0  0  0  0  0  0  0  0  0  0  0
   -4.9910   13.8206  -35.9043 H   0  0  0  0  0  0  0  0  0  0  0  0
   -4.0368   12.5108  -35.0700 H   0  0  0  0  0  0  0  0  0  0  0  0
   -5.7173   13.0884  -33.5050 H   0  0  0  0  0  0  0  0  0  0  0  0
   -6.3397   15.1937  -34.8437 H   0  0  0  0  0  0  0  0  0  0  0  0
   -6.5945   15.1430  -33.0304 H   0  0  0  0  0  0  0  0  0  0  0  0
   -7.7934   16.6040  -33.3084 H   0  0  0  0  0  0  0  0  0  0  0  0
   -9.0347   18.5753  -32.3689 H   0  0  0  0  0  0  0  0  0  0  0  0
   -8.6936   21.2083  -31.3838 H   0  0  0  0  0  0  0  0  0  0  0  0
   -5.0400   24.1510  -32.2510 H   0  0  0  0  0  0  0  0  0  0  0  0
   -2.4000   20.6790  -32.3240 H   0  0  0  0  0  0  0  0  0  0  0  0
   -3.9600   21.4490  -29.4310 H   0  0  0  0  0  0  0  0  0  0  0  0
   -4.9616   23.5948  -29.2522 H   0  0  0  0  0  0  0  0  0  0  0  0
   -3.6133   23.5733  -28.0256 H   0  0  0  0  0  0  0  0  0  0  0  0
   -4.0632   18.8601  -33.0908 H   0  0  0  0  0  0  0  0  0  0  0  0
   -4.0850   16.7045  -35.5054 H   0  0  0  0  0  0  0  0  0  0  0  0
   -3.3837   17.5525  -34.0517 H   0  0  0  0  0  0  0  0  0  0  0  0
  1  2  1  0
  2  3  1  0
  3  4  1  0
  4  5  1  0
  5  6  1  0
  6  7  1  0
  7  8  1  0
  8  9  1  0
  9 10  1  0
 10 11  2  0
 11 12  1  0
 12 13  2  0
 13 14  1  0
 14 15  2  0
 15 16  1  0
 16 17  1  0
 16 18  2  0
 15 19  1  0
 19 20  1  0
 20 21  2  0
 20 22  1  0
 22 23  1  0
 23 24  2  0
 23 25  1  0
 25 26  1  0
 26 27  1  0
 27 28  2  0
 27 29  1  0
 19 30  1  0
 30 31  2  0
  9 32  1  0
  7  2  1  0
 31 10  1  0
 32  4  1  0
 30 13  1  0
  1 33  1  0
  1 34  1  0
  1 35  1  0
  2 36  1  1
  3 37  1  0
  3 38  1  0
  4 39  1  6
  5 40  1  0
  5 41  1  0
  6 42  1  0
  6 43  1  0
  7 44  1  1
  8 45  1  0
  8 46  1  0
 11 47  1  0
 12 48  1  0
 14 49  1  0
 17 50  1  0
 22 51  1  0
 25 52  1  0
 26 53  1  0
 26 54  1  0
 31 55  1  0
 32 56  1  0
 32 57  1  0
M  CHG  3   2   1  17  -1  29  -1
M  END
>  <UniqueID>  (36) 
35

>  <SMILES>  (36) 
C[N@@H+]1C[C@H]2CCC1CN(c1ccc3cc(C([NH-])=O)n(C(=O)NC(=O)NCC(=O)[O-])c3c1)C2

>  <Energy>  (36) 
139.67624692386408

>  <Genealogy>  (36) 
C[NH+]1CC2CCC1CN(c1ccc3cc(C([NH-])=O)n(C(=O)NC(=O)NCC(=O)[O-])c3c1)C2 (protonated)
C[N@@H+]1C[C@H]2CCC1CN(c1ccc3cc(C([NH-])=O)n(C(=O)NC(=O)NCC(=O)[O-])c3c1)C2 (chirality)
C[N@@H+]1C[C@H]2CCC1CN(c1ccc3cc(C([NH-])=O)n(C(=O)NC(=O)NCC(=O)[O-])c3c1)C2 (3D coordinates assigned)
C[N@@H+]1C[C@H]2CCC1CN(c1ccc3cc(C([NH-])=O)n(C(=O)NC(=O)NCC(=O)[O-])c3c1)C2 (nonaromatic ring conformer: 139.67624692386408 kcal/mol)

>  <smiles>  (36) 
CN1CC2CCC1CN(c1ccc3cc(C(N)=O)n(C(=O)NC(=O)NCC(=O)O)c3c1)C2

>  <score_type>  (36) 
oracle

>  <origin>  (36) 
adg

>  <m_score__min__energy>  (36) 
-10.289999999999999

>  <m_primary>  (36) 
energy

$$$$
36:0
     RDKit          3D

 34 35  0  0  0  0  0  0  0  0999 V2000
   -3.8750   25.3200  -30.8420 N   0  0  0  0  0  0  0  0  0  0  0  0
   -5.2030   24.8990  -30.5420 C   0  0  0  0  0  0  0  0  0  0  0  0
   -5.9240   25.6150  -29.7990 O   0  0  0  0  0  0  0  0  0  0  0  0
   -5.7290   23.6480  -31.1280 C   0  0  0  0  0  0  0  0  0  0  0  0
   -7.0860   23.4030  -31.3330 C   0  0  0  0  0  0  0  0  0  0  0  0
   -7.1560   22.1190  -31.8240 C   0  0  0  0  0  0  0  0  0  0  0  0
   -8.2600   21.3640  -32.2030 C   0  0  0  0  0  0  0  0  0  0  0  0
   -8.0350   20.0670  -32.6960 C   0  0  0  0  0  0  0  0  0  0  0  0
   -6.7160   19.5600  -32.8260 C   0  0  0  0  0  0  0  0  0  0  0  0
   -6.4870   18.1540  -33.3200 C   0  0  0  0  0  0  0  0  0  0  0  0
   -7.6350   17.4100  -33.1210 F   0  0  0  0  0  0  0  0  0  0  0  0
   -6.1760   18.1540  -34.6690 F   0  0  0  0  0  0  0  0  0  0  0  0
   -5.4400   17.5610  -32.6360 F   0  0  0  0  0  0  0  0  0  0  0  0
   -5.6210   20.3520  -32.4090 C   0  0  0  0  0  0  0  0  0  0  0  0
   -5.8770   21.6310  -31.9030 C   0  0  0  0  0  0  0  0  0  0  0  0
   -4.9910   22.5570  -31.4780 N   0  0  0  0  0  0  0  0  0  0  0  0
   -3.5600   22.4250  -31.4670 C   0  0  0  0  0  0  0  0  0  0  0  0
   -2.9760   21.8750  -32.4400 O   0  0  0  0  0  0  0  0  0  0  0  0
   -2.8000   22.9210  -30.3560 N   0  0  0  0  0  0  0  0  0  0  0  0
   -1.3440   22.8000  -30.2780 C   0  0  0  0  0  0  0  0  0  0  0  0
   -0.7820   23.5840  -29.0870 C   0  0  0  0  0  0  0  0  0  0  0  0
   -1.5980   24.8050  -28.7930 C   0  0  0  0  0  0  0  0  0  0  0  0
   -2.6190   24.7240  -28.0610 O   0  0  0  0  0  0  0  0  0  0  0  0
   -1.2260   26.0350  -29.3200 O   0  0  0  0  0  0  0  0  0  0  0  0
   -3.1220   25.2780  -30.1190 H   0  0  0  0  0  0  0  0  0  0  0  0
   -7.9235   24.0903  -31.1427 H   0  0  0  0  0  0  0  0  0  0  0  0
   -9.2792   21.7694  -32.1196 H   0  0  0  0  0  0  0  0  0  0  0  0
   -8.8905   19.4384  -32.9841 H   0  0  0  0  0  0  0  0  0  0  0  0
   -4.5916   19.9711  -32.4809 H   0  0  0  0  0  0  0  0  0  0  0  0
   -3.2910   23.4740  -29.6180 H   0  0  0  0  0  0  0  0  0  0  0  0
   -1.0784   21.7385  -30.1654 H   0  0  0  0  0  0  0  0  0  0  0  0
   -0.9117   23.2142  -31.2008 H   0  0  0  0  0  0  0  0  0  0  0  0
   -0.7817   22.9333  -28.2001 H   0  0  0  0  0  0  0  0  0  0  0  0
    0.2389   23.9064  -29.3396 H   0  0  0  0  0  0  0  0  0  0  0  0
  1  2  1  0
  2  3  2  0
  2  4  1  0
  4  5  2  0
  5  6  1  0
  6  7  2  0
  7  8  1  0
  8  9  2  0
  9 10  1  0
 10 11  1  0
 10 12  1  0
 10 13  1  0
  9 14  1  0
 14 15  2  0
 15 16  1  0
 16 17  1  0
 17 18  2  0
 17 19  1  0
 19 20  1  0
 20 21  1  0
 21 22  1  0
 22 23  2  0
 22 24  1  0
 16  4  1  0
 15  6  1  0
  1 25  1  0
  5 26  1  0
  7 27  1  0
  8 28  1  0
 14 29  1  0
 19 30  1  0
 20 31  1  0
 20 32  1  0
 21 33  1  0
 21 34  1  0
M  CHG  2   1  -1  24  -1
M  END
>  <UniqueID>  (37) 
36

>  <SMILES>  (37) 
[NH-]C(=O)c1cc2ccc(C(F)(F)F)cc2n1C(=O)NCCC(=O)[O-]

>  <Energy>  (37) 
68.21640323341319

>  <Genealogy>  (37) 
[NH-]C(=O)c1cc2ccc(C(F)(F)F)cc2n1C(=O)NCCC(=O)[O-] (protonated)
[NH-]C(=O)c1cc2ccc(C(F)(F)F)cc2n1C(=O)NCCC(=O)[O-] (3D coordinates assigned)
[NH-]C(=O)c1cc2ccc(C(F)(F)F)cc2n1C(=O)NCCC(=O)[O-] (optimized conformer: 68.21640323341319 kcal/mol)

>  <smiles>  (37) 
NC(=O)c1cc2ccc(C(F)(F)F)cc2n1C(=O)NCCC(=O)O

>  <score_type>  (37) 
oracle

>  <origin>  (37) 
adg

>  <m_score__min__energy>  (37) 
-11.65

>  <m_primary>  (37) 
energy

$$$$
37:0
     RDKit          3D

 38 39  0  0  0  0  0  0  0  0999 V2000
   -5.8330   22.9110  -29.3700 C   0  0  0  0  0  0  0  0  0  0  0  0
   -5.5050   24.1310  -29.8100 C   0  0  0  0  0  0  0  0  0  0  0  0
   -6.4960   25.2570  -29.6770 C   0  0  0  0  0  0  0  0  0  0  0  0
   -4.2020   24.3760  -30.4750 C   0  0  0  0  0  0  0  0  0  0  0  0
   -3.9130   25.5200  -30.9220 O   0  0  0  0  0  0  0  0  0  0  0  0
   -3.2460   23.3170  -30.6100 N   0  0  0  0  0  0  0  0  0  0  0  0
   -1.9890   23.2560  -30.0930 C   0  0  0  0  0  0  0  0  0  0  0  0
   -1.3280   24.3190  -29.3060 C   0  0  0  0  0  0  0  0  0  0  0  0
   -2.0160   25.5210  -28.9720 N   0  0  0  0  0  0  0  0  0  0  0  0
   -0.1380   24.1640  -28.9260 O   0  0  0  0  0  0  0  0  0  0  0  0
   -1.3860   22.0460  -30.4320 C   0  0  0  0  0  0  0  0  0  0  0  0
   -2.3260   21.3650  -31.1750 C   0  0  0  0  0  0  0  0  0  0  0  0
   -2.2690   20.1080  -31.7620 C   0  0  0  0  0  0  0  0  0  0  0  0
   -3.4000   19.6530  -32.4590 C   0  0  0  0  0  0  0  0  0  0  0  0
   -4.5730   20.4550  -32.5670 C   0  0  0  0  0  0  0  0  0  0  0  0
   -5.7450   19.9740  -33.2810 N   0  0  0  0  0  0  0  0  0  0  0  0
   -5.6160   18.9170  -34.2910 C   0  0  0  0  0  0  0  0  0  0  0  0
   -7.0800   20.5490  -33.0490 C   0  0  0  0  0  0  0  0  0  0  0  0
   -8.0280   19.5060  -32.5450 C   0  0  0  0  0  0  0  0  0  0  0  0
   -9.2680   19.6410  -32.7120 O   0  0  0  0  0  0  0  0  0  0  0  0
   -7.5390   18.3630  -31.9230 O   0  0  0  0  0  0  0  0  0  0  0  0
   -4.5780   21.7340  -31.9520 C   0  0  0  0  0  0  0  0  0  0  0  0
   -3.4370   22.1550  -31.2660 C   0  0  0  0  0  0  0  0  0  0  0  0
   -5.1162   22.0818  -29.4626 H   0  0  0  0  0  0  0  0  0  0  0  0
   -6.8196   22.7370  -28.9156 H   0  0  0  0  0  0  0  0  0  0  0  0
   -6.6768   25.4624  -28.6116 H   0  0  0  0  0  0  0  0  0  0  0  0
   -6.0933   26.1589  -30.1611 H   0  0  0  0  0  0  0  0  0  0  0  0
   -7.4418   24.9722  -30.1611 H   0  0  0  0  0  0  0  0  0  0  0  0
   -3.0000   25.6810  -29.2790 H   0  0  0  0  0  0  0  0  0  0  0  0
   -0.3747   21.7067  -30.1635 H   0  0  0  0  0  0  0  0  0  0  0  0
   -1.3646   19.4869  -31.6834 H   0  0  0  0  0  0  0  0  0  0  0  0
   -3.3801   18.6593  -32.9303 H   0  0  0  0  0  0  0  0  0  0  0  0
   -5.4973   17.9445  -33.7909 H   0  0  0  0  0  0  0  0  0  0  0  0
   -6.5185   18.8983  -34.9196 H   0  0  0  0  0  0  0  0  0  0  0  0
   -4.7355   19.1160  -34.9196 H   0  0  0  0  0  0  0  0  0  0  0  0
   -7.0011   21.3547  -32.3043 H   0  0  0  0  0  0  0  0  0  0  0  0
   -7.4641   20.9438  -34.0012 H   0  0  0  0  0  0  0  0  0  0  0  0
   -5.4647   22.3820  -32.0146 H   0  0  0  0  0  0  0  0  0  0  0  0
  1  2  2  0
  2  3  1  0
  2  4  1  0
  4  5  2  0
  4  6  1  0
  6  7  1  0
  7  8  1  0
  8  9  1  0
  8 10  2  0
  7 11  2  0
 11 12  1  0
 12 13  2  0
 13 14  1  0
 14 15  2  0
 15 16  1  0
 16 17  1  0
 16 18  1  0
 18 19  1  0
 19 20  2  0
 19 21  1  0
 15 22  1  0
 22 23  2  0
 23  6  1  0
 23 12  1  0
  1 24  1  0
  1 25  1  0
  3 26  1  0
  3 27  1  0
  3 28  1  0
  9 29  1  0
 11 30  1  0
 13 31  1  0
 14 32  1  0
 17 33  1  0
 17 34  1  0
 17 35  1  0
 18 36  1  0
 18 37  1  0
 22 38  1  0
M  CHG  2   9  -1  21  -1
M  END
>  <UniqueID>  (38) 
37

>  <SMILES>  (38) 
C=C(C)C(=O)n1c(C([NH-])=O)cc2ccc(N(C)CC(=O)[O-])cc21

>  <Energy>  (38) 
78.30071790873751

>  <Genealogy>  (38) 
C=C(C)C(=O)n1c(C([NH-])=O)cc2ccc(N(C)CC(=O)[O-])cc21 (protonated)
C=C(C)C(=O)n1c(C([NH-])=O)cc2ccc(N(C)CC(=O)[O-])cc21 (3D coordinates assigned)
C=C(C)C(=O)n1c(C([NH-])=O)cc2ccc(N(C)CC(=O)[O-])cc21 (optimized conformer: 78.30071790873751 kcal/mol)

>  <smiles>  (38) 
C=C(C)C(=O)n1c(C(N)=O)cc2ccc(N(C)CC(=O)O)cc21

>  <score_type>  (38) 
oracle

>  <origin>  (38) 
adg

>  <m_score__min__energy>  (38) 
-10.1

>  <m_primary>  (38) 
energy

$$$$
38:0
     RDKit          3D

 27 29  0  0  0  0  0  0  0  0999 V2000
   -1.5330   25.9660  -28.9200 N   0  0  0  0  0  0  0  0  0  0  0  0
   -0.8940   24.6930  -28.9730 C   0  0  0  0  0  0  0  0  0  0  0  0
    0.2100   24.5330  -28.3880 O   0  0  0  0  0  0  0  0  0  0  0  0
   -1.4790   23.5800  -29.7490 C   0  0  0  0  0  0  0  0  0  0  0  0
   -0.7630   22.4440  -30.1170 C   0  0  0  0  0  0  0  0  0  0  0  0
   -1.6230   21.7070  -30.8960 C   0  0  0  0  0  0  0  0  0  0  0  0
   -1.4350   20.4790  -31.5200 C   0  0  0  0  0  0  0  0  0  0  0  0
   -2.5080   19.9330  -32.2410 C   0  0  0  0  0  0  0  0  0  0  0  0
   -3.7540   20.6120  -32.3220 C   0  0  0  0  0  0  0  0  0  0  0  0
   -4.8870   20.0180  -33.0780 C   0  0  0  0  0  0  0  0  0  0  0  0
   -4.8650   18.9210  -33.9240 C   0  0  0  0  0  0  0  0  0  0  0  0
   -6.1040   18.7150  -34.4070 N   0  0  0  0  0  0  0  0  0  0  0  0
   -6.8750   19.6300  -33.8950 O   0  0  0  0  0  0  0  0  0  0  0  0
   -6.2070   20.4310  -33.0990 C   0  0  0  0  0  0  0  0  0  0  0  0
   -3.9030   21.8600  -31.6700 C   0  0  0  0  0  0  0  0  0  0  0  0
   -2.8090   22.3890  -30.9740 C   0  0  0  0  0  0  0  0  0  0  0  0
   -2.7380   23.5430  -30.2720 N   0  0  0  0  0  0  0  0  0  0  0  0
   -3.8090   24.4740  -30.0480 C   0  0  0  0  0  0  0  0  0  0  0  0
   -4.6960   24.2280  -29.1880 O   0  0  0  0  0  0  0  0  0  0  0  0
   -3.8620   25.6670  -30.7580 O   0  0  0  0  0  0  0  0  0  0  0  0
   -2.5720   26.0480  -28.9830 H   0  0  0  0  0  0  0  0  0  0  0  0
    0.2715   22.1901  -29.8426 H   0  0  0  0  0  0  0  0  0  0  0  0
   -0.4728   19.9505  -31.4506 H   0  0  0  0  0  0  0  0  0  0  0  0
   -2.3830   18.9662  -32.7505 H   0  0  0  0  0  0  0  0  0  0  0  0
   -3.9778   18.3160  -34.1624 H   0  0  0  0  0  0  0  0  0  0  0  0
   -6.6247   21.2840  -32.5440 H   0  0  0  0  0  0  0  0  0  0  0  0
   -4.8588   22.4031  -31.7094 H   0  0  0  0  0  0  0  0  0  0  0  0
  1  2  1  0
  2  3  2  0
  2  4  1  0
  4  5  2  0
  5  6  1  0
  6  7  2  0
  7  8  1  0
  8  9  2  0
  9 10  1  0
 10 11  1  0
 11 12  2  0
 12 13  1  0
 13 14  1  0
  9 15  1  0
 15 16  2  0
 16 17  1  0
 17 18  1  0
 18 19  2  0
 18 20  1  0
 17  4  1  0
 16  6  1  0
 14 10  2  0
  1 21  1  0
  5 22  1  0
  7 23  1  0
  8 24  1  0
 11 25  1  0
 14 26  1  0
 15 27  1  0
M  CHG  2   1  -1  20  -1
M  END
>  <UniqueID>  (39) 
38

>  <SMILES>  (39) 
[NH-]C(=O)c1cc2ccc(-c3cnoc3)cc2n1C(=O)[O-]

>  <Energy>  (39) 
102.34918198506242

>  <Genealogy>  (39) 
[NH-]C(=O)c1cc2ccc(-c3cnoc3)cc2n1C(=O)[O-] (protonated)
[NH-]C(=O)c1cc2ccc(-c3cnoc3)cc2n1C(=O)[O-] (3D coordinates assigned)
[NH-]C(=O)c1cc2ccc(-c3cnoc3)cc2n1C(=O)[O-] (optimized conformer: 102.34918198506242 kcal/mol)

>  <smiles>  (39) 
NC(=O)c1cc2ccc(-c3cnoc3)cc2n1C(=O)O

>  <score_type>  (39) 
oracle

>  <origin>  (39) 
adg

>  <m_score__min__energy>  (39) 
-10.85

>  <m_primary>  (39) 
energy

$$$$
39:0
     RDKit          3D

 41 43  0  0  0  0  0  0  0  0999 V2000
   -4.1610   25.5090  -30.5110 N   0  0  0  0  0  0  0  0  0  0  0  0
   -5.4810   24.9990  -30.3130 C   0  0  0  0  0  0  0  0  0  0  0  0
   -6.2620   25.5970  -29.5260 O   0  0  0  0  0  0  0  0  0  0  0  0
   -5.9240   23.7500  -30.9630 C   0  0  0  0  0  0  0  0  0  0  0  0
   -7.2570   23.4580  -31.2340 C   0  0  0  0  0  0  0  0  0  0  0  0
   -7.2490   22.1920  -31.7730 C   0  0  0  0  0  0  0  0  0  0  0  0
   -8.3000   21.4120  -32.2310 C   0  0  0  0  0  0  0  0  0  0  0  0
   -8.0040   20.1500  -32.7710 C   0  0  0  0  0  0  0  0  0  0  0  0
   -6.6590   19.6810  -32.8690 C   0  0  0  0  0  0  0  0  0  0  0  0
   -6.3570   18.3700  -33.4430 N   0  0  0  0  0  0  0  0  0  0  0  0
   -7.2000   17.2110  -33.0790 C   0  0  0  0  0  0  0  0  0  0  0  0
   -6.8150   15.9220  -33.8090 C   0  0  0  0  0  0  0  0  0  0  0  0
   -5.4170   15.8120  -33.9370 O   0  0  0  0  0  0  0  0  0  0  0  0
   -4.9780   16.7930  -34.8450 C   0  0  0  0  0  0  0  0  0  0  0  0
   -5.1320   18.1980  -34.2540 C   0  0  0  0  0  0  0  0  0  0  0  0
   -5.6190   20.5240  -32.3840 C   0  0  0  0  0  0  0  0  0  0  0  0
   -5.9500   21.7650  -31.8270 C   0  0  0  0  0  0  0  0  0  0  0  0
   -5.1200   22.7120  -31.3330 N   0  0  0  0  0  0  0  0  0  0  0  0
   -3.6840   22.6710  -31.3150 C   0  0  0  0  0  0  0  0  0  0  0  0
   -3.0480   22.3650  -32.3620 O   0  0  0  0  0  0  0  0  0  0  0  0
   -2.9940   22.9630  -30.1340 O   0  0  0  0  0  0  0  0  0  0  0  0
   -1.5750   23.0140  -30.0620 C   0  0  0  0  0  0  0  0  0  0  0  0
   -1.1670   24.2560  -29.3430 C   0  0  0  0  0  0  0  0  0  0  0  0
   -0.0820   24.2890  -28.7040 O   0  0  0  0  0  0  0  0  0  0  0  0
   -2.0070   25.3620  -29.3330 O   0  0  0  0  0  0  0  0  0  0  0  0
   -3.8790   26.4140  -30.0750 H   0  0  0  0  0  0  0  0  0  0  0  0
   -3.4380   24.9510  -31.0150 H   0  0  0  0  0  0  0  0  0  0  0  0
   -8.1309   24.1018  -31.0555 H   0  0  0  0  0  0  0  0  0  0  0  0
   -9.3377   21.7722  -32.1729 H   0  0  0  0  0  0  0  0  0  0  0  0
   -8.8251   19.5097  -33.1257 H   0  0  0  0  0  0  0  0  0  0  0  0
   -7.1068   17.0391  -31.9965 H   0  0  0  0  0  0  0  0  0  0  0  0
   -8.2307   17.4551  -33.3757 H   0  0  0  0  0  0  0  0  0  0  0  0
   -7.1929   15.0599  -33.2399 H   0  0  0  0  0  0  0  0  0  0  0  0
   -7.2581   15.9440  -34.8156 H   0  0  0  0  0  0  0  0  0  0  0  0
   -3.9182   16.6163  -35.0806 H   0  0  0  0  0  0  0  0  0  0  0  0
   -5.5919   16.7270  -35.7554 H   0  0  0  0  0  0  0  0  0  0  0  0
   -4.2606   18.4036  -33.6150 H   0  0  0  0  0  0  0  0  0  0  0  0
   -5.2055   18.8969  -35.1003 H   0  0  0  0  0  0  0  0  0  0  0  0
   -4.5684   20.2041  -32.4462 H   0  0  0  0  0  0  0  0  0  0  0  0
   -1.2019   22.1339  -29.5177 H   0  0  0  0  0  0  0  0  0  0  0  0
   -1.1523   23.0179  -31.0775 H   0  0  0  0  0  0  0  0  0  0  0  0
  1  2  1  0
  2  3  2  0
  2  4  1  0
  4  5  2  0
  5  6  1  0
  6  7  2  0
  7  8  1  0
  8  9  2  0
  9 10  1  0
 10 11  1  0
 11 12  1  0
 12 13  1  0
 13 14  1  0
 14 15  1  0
  9 16  1  0
 16 17  2  0
 17 18  1  0
 18 19  1  0
 19 20  2  0
 19 21  1  0
 21 22  1  0
 22 23  1  0
 23 24  2  0
 23 25  1  0
 18  4  1  0
 17  6  1  0
 15 10  1  0
  1 26  1  0
  1 27  1  0
  5 28  1  0
  7 29  1  0
  8 30  1  0
 11 31  1  0
 11 32  1  0
 12 33  1  0
 12 34  1  0
 14 35  1  0
 14 36  1  0
 15 37  1  0
 15 38  1  0
 16 39  1  0
 22 40  1  0
 22 41  1  0
M  CHG  1  25  -1
M  END
>  <UniqueID>  (40) 
39

>  <SMILES>  (40) 
NC(=O)c1cc2ccc(N3CCOCC3)cc2n1C(=O)OCC(=O)[O-]

>  <Energy>  (40) 
86.15735320599323

>  <Genealogy>  (40) 
NC(=O)c1cc2ccc(N3CCOCC3)cc2n1C(=O)OCC(=O)[O-] (protonated)
NC(=O)c1cc2ccc(N3CCOCC3)cc2n1C(=O)OCC(=O)[O-] (3D coordinates assigned)
NC(=O)c1cc2ccc(N3CCOCC3)cc2n1C(=O)OCC(=O)[O-] (nonaromatic ring conformer: 86.15735320599323 kcal/mol)

>  <smiles>  (40) 
NC(=O)c1cc2ccc(N3CCOCC3)cc2n1C(=O)OCC(=O)O

>  <score_type>  (40) 
oracle

>  <origin>  (40) 
adg

>  <m_score__min__energy>  (40) 
-10.9

>  <m_primary>  (40) 
energy

$$$$
40:0
     RDKit          3D

 33 34  0  0  0  0  0  0  0  0999 V2000
    2.2370   20.5020  -36.8240 N   0  0  0  0  0  0  0  0  0  0  0  0
    1.4460   19.3870  -36.4060 C   0  0  0  0  0  0  0  0  0  0  0  0
    1.7370   18.2370  -36.8290 O   0  0  0  0  0  0  0  0  0  0  0  0
    0.3230   19.5700  -35.4590 C   0  0  0  0  0  0  0  0  0  0  0  0
   -0.5090   18.5370  -35.0340 C   0  0  0  0  0  0  0  0  0  0  0  0
   -1.4660   19.1380  -34.2490 C   0  0  0  0  0  0  0  0  0  0  0  0
   -2.5430   18.5790  -33.5680 C   0  0  0  0  0  0  0  0  0  0  0  0
   -3.3620   19.4350  -32.8130 C   0  0  0  0  0  0  0  0  0  0  0  0
   -3.0800   20.8220  -32.7400 C   0  0  0  0  0  0  0  0  0  0  0  0
   -3.9740   21.7320  -31.9460 C   0  0  0  0  0  0  0  0  0  0  0  0
   -3.1450   22.2450  -30.4100 P   0  0  2  0  0  0  0  0  0  0  0  0
   -1.7470   22.7280  -30.7240 O   0  0  0  0  0  0  0  0  0  0  0  0
   -3.0630   20.9320  -29.3470 O   0  0  0  0  0  0  0  0  0  0  0  0
   -4.0970   23.5900  -29.6420 C   0  0  0  0  0  0  0  0  0  0  0  0
   -3.4710   24.9070  -29.9600 C   0  0  0  0  0  0  0  0  0  0  0  0
   -3.9750   25.6520  -30.8420 O   0  0  0  0  0  0  0  0  0  0  0  0
   -2.3040   25.2960  -29.3150 O   0  0  0  0  0  0  0  0  0  0  0  0
   -1.9830   21.3550  -33.4520 C   0  0  0  0  0  0  0  0  0  0  0  0
   -1.1970   20.4820  -34.2130 C   0  0  0  0  0  0  0  0  0  0  0  0
   -0.1000   20.7650  -34.9520 N   0  0  0  0  0  0  0  0  0  0  0  0
    0.5180   22.0520  -35.1080 C   0  0  0  0  0  0  0  0  0  0  0  0
   -0.0660   22.9670  -35.7460 O   0  0  0  0  0  0  0  0  0  0  0  0
    1.7740   22.3000  -34.5660 O   0  0  0  0  0  0  0  0  0  0  0  0
    1.9950   21.4760  -36.5400 H   0  0  0  0  0  0  0  0  0  0  0  0
    3.0510   20.3560  -37.4610 H   0  0  0  0  0  0  0  0  0  0  0  0
   -0.4199   17.4674  -35.2749 H   0  0  0  0  0  0  0  0  0  0  0  0
   -2.7470   17.4993  -33.6193 H   0  0  0  0  0  0  0  0  0  0  0  0
   -4.2291   19.0255  -32.2741 H   0  0  0  0  0  0  0  0  0  0  0  0
   -4.2105   22.6230  -32.5461 H   0  0  0  0  0  0  0  0  0  0  0  0
   -4.8989   21.1936  -31.6918 H   0  0  0  0  0  0  0  0  0  0  0  0
   -5.1268   23.5737  -30.0284 H   0  0  0  0  0  0  0  0  0  0  0  0
   -4.1047   23.4487  -28.5511 H   0  0  0  0  0  0  0  0  0  0  0  0
   -1.7520   22.4296  -33.4096 H   0  0  0  0  0  0  0  0  0  0  0  0
  1  2  1  0
  2  3  2  0
  2  4  1  0
  4  5  2  0
  5  6  1  0
  6  7  2  0
  7  8  1  0
  8  9  2  0
  9 10  1  0
 10 11  1  0
 11 12  2  0
 11 13  1  1
 11 14  1  0
 14 15  1  0
 15 16  2  0
 15 17  1  0
  9 18  1  0
 18 19  2  0
 19 20  1  0
 20 21  1  0
 21 22  2  0
 21 23  1  0
 20  4  1  0
 19  6  1  0
  1 24  1  0
  1 25  1  0
  5 26  1  0
  7 27  1  0
  8 28  1  0
 10 29  1  0
 10 30  1  0
 14 31  1  0
 14 32  1  0
 18 33  1  0
M  CHG  3  13  -1  17  -1  23  -1
M  END
>  <UniqueID>  (41) 
40

>  <SMILES>  (41) 
NC(=O)c1cc2ccc(C[P@](=O)([O-])CC(=O)[O-])cc2n1C(=O)[O-]

>  <Energy>  (41) 
63.13186506508667

>  <Genealogy>  (41) 
NC(=O)c1cc2ccc(CP(=O)([O-])CC(=O)[O-])cc2n1C(=O)[O-] (protonated)
NC(=O)c1cc2ccc(C[P@](=O)([O-])CC(=O)[O-])cc2n1C(=O)[O-] (chirality)
NC(=O)c1cc2ccc(C[P@](=O)([O-])CC(=O)[O-])cc2n1C(=O)[O-] (3D coordinates assigned)
NC(=O)c1cc2ccc(C[P@](=O)([O-])CC(=O)[O-])cc2n1C(=O)[O-] (optimized conformer: 63.13186506508667 kcal/mol)

>  <smiles>  (41) 
NC(=O)c1cc2ccc(CP(=O)(O)CC(=O)O)cc2n1C(=O)O

>  <score_type>  (41) 
oracle

>  <origin>  (41) 
adg

>  <m_score__min__energy>  (41) 
-11.09

>  <m_primary>  (41) 
energy

$$$$
41:0
     RDKit          3D

 33 34  0  0  0  0  0  0  0  0999 V2000
   -3.9820   25.6730  -30.8590 N   0  0  0  0  0  0  0  0  0  0  0  0
   -5.2570   25.2290  -30.4040 C   0  0  0  0  0  0  0  0  0  0  0  0
   -5.9210   25.9550  -29.6200 O   0  0  0  0  0  0  0  0  0  0  0  0
   -5.8030   23.9430  -30.8850 C   0  0  0  0  0  0  0  0  0  0  0  0
   -7.1310   23.7620  -31.2670 C   0  0  0  0  0  0  0  0  0  0  0  0
   -7.2500   22.4210  -31.5540 C   0  0  0  0  0  0  0  0  0  0  0  0
   -8.3490   21.6940  -31.9990 C   0  0  0  0  0  0  0  0  0  0  0  0
   -8.1760   20.3220  -32.2430 C   0  0  0  0  0  0  0  0  0  0  0  0
   -6.9190   19.6990  -32.0280 C   0  0  0  0  0  0  0  0  0  0  0  0
   -6.7320   18.2380  -32.3500 C   0  0  0  0  0  0  0  0  0  0  0  0
   -6.1800   18.0820  -33.6100 F   0  0  0  0  0  0  0  0  0  0  0  0
   -5.8880   17.6390  -31.4310 F   0  0  0  0  0  0  0  0  0  0  0  0
   -7.9610   17.6050  -32.3160 F   0  0  0  0  0  0  0  0  0  0  0  0
   -5.8200   20.4780  -31.5970 C   0  0  0  0  0  0  0  0  0  0  0  0
   -6.0270   21.8400  -31.3490 C   0  0  0  0  0  0  0  0  0  0  0  0
   -5.1260   22.7610  -30.9450 N   0  0  0  0  0  0  0  0  0  0  0  0
   -3.7310   22.5280  -30.6960 C   0  0  0  0  0  0  0  0  0  0  0  0
   -3.1400   21.5900  -31.2970 O   0  0  0  0  0  0  0  0  0  0  0  0
   -3.0040   23.3840  -29.8020 N   0  0  0  0  0  0  0  0  0  0  0  0
   -1.5820   23.1780  -29.5100 C   0  0  2  0  0  0  0  0  0  0  0  0
   -1.4180   22.1550  -28.4220 C   0  0  0  0  0  0  0  0  0  0  0  0
   -2.3940   21.7420  -27.8150 O   0  0  0  0  0  0  0  0  0  0  0  0
   -0.9400   24.4720  -29.0970 C   0  0  0  0  0  0  0  0  0  0  0  0
    0.2190   24.4810  -28.6010 O   0  0  0  0  0  0  0  0  0  0  0  0
   -1.6270   25.6690  -29.2540 O   0  0  0  0  0  0  0  0  0  0  0  0
   -3.1030   25.3120  -30.4260 H   0  0  0  0  0  0  0  0  0  0  0  0
   -7.9177   24.5286  -31.3266 H   0  0  0  0  0  0  0  0  0  0  0  0
   -9.3239   22.1789  -32.1550 H   0  0  0  0  0  0  0  0  0  0  0  0
   -9.0247   19.7231  -32.6050 H   0  0  0  0  0  0  0  0  0  0  0  0
   -4.8271   20.0247  -31.4601 H   0  0  0  0  0  0  0  0  0  0  0  0
   -3.5140   24.1850  -29.3650 H   0  0  0  0  0  0  0  0  0  0  0  0
   -1.0879   22.8121  -30.4221 H   0  0  0  0  0  0  0  0  0  0  0  0
   -0.4159   21.7769  -28.1714 H   0  0  0  0  0  0  0  0  0  0  0  0
  1  2  1  0
  2  3  2  0
  2  4  1  0
  4  5  2  0
  5  6  1  0
  6  7  2  0
  7  8  1  0
  8  9  2  0
  9 10  1  0
 10 11  1  0
 10 12  1  0
 10 13  1  0
  9 14  1  0
 14 15  2  0
 15 16  1  0
 16 17  1  0
 17 18  2  0
 17 19  1  0
 19 20  1  0
 20 21  1  0
 21 22  2  0
 20 23  1  0
 23 24  2  0
 23 25  1  0
 16  4  1  0
 15  6  1  0
  1 26  1  0
  5 27  1  0
  7 28  1  0
  8 29  1  0
 14 30  1  0
 19 31  1  0
 20 32  1  6
 21 33  1  0
M  CHG  2   1  -1  25  -1
M  END
>  <UniqueID>  (42) 
41

>  <SMILES>  (42) 
[NH-]C(=O)c1cc2ccc(C(F)(F)F)cc2n1C(=O)N[C@H](C=O)C(=O)[O-]

>  <Energy>  (42) 
70.87199111189346

>  <Genealogy>  (42) 
[NH-]C(=O)c1cc2ccc(C(F)(F)F)cc2n1C(=O)NC(C=O)C(=O)[O-] (protonated)
[NH-]C(=O)c1cc2ccc(C(F)(F)F)cc2n1C(=O)N[C@H](C=O)C(=O)[O-] (chirality)
[NH-]C(=O)c1cc2ccc(C(F)(F)F)cc2n1C(=O)N[C@H](C=O)C(=O)[O-] (3D coordinates assigned)
[NH-]C(=O)c1cc2ccc(C(F)(F)F)cc2n1C(=O)N[C@H](C=O)C(=O)[O-] (optimized conformer: 70.87199111189346 kcal/mol)

>  <smiles>  (42) 
NC(=O)c1cc2ccc(C(F)(F)F)cc2n1C(=O)NC(C=O)C(=O)O

>  <score_type>  (42) 
oracle

>  <origin>  (42) 
adg

>  <m_score__min__energy>  (42) 
-11.77

>  <m_primary>  (42) 
energy

$$$$
42:0
     RDKit          3D

 35 37  0  0  0  0  0  0  0  0999 V2000
   -1.6080   25.7050  -28.9570 N   0  0  0  0  0  0  0  0  0  0  0  0
   -1.0500   24.4300  -29.2650 C   0  0  0  0  0  0  0  0  0  0  0  0
    0.1020   24.1430  -28.8440 O   0  0  0  0  0  0  0  0  0  0  0  0
   -1.8240   23.4220  -30.0200 C   0  0  0  0  0  0  0  0  0  0  0  0
   -1.2860   22.2130  -30.4550 C   0  0  0  0  0  0  0  0  0  0  0  0
   -2.3350   21.5310  -31.0270 C   0  0  0  0  0  0  0  0  0  0  0  0
   -2.3640   20.2780  -31.6280 C   0  0  0  0  0  0  0  0  0  0  0  0
   -3.5850   19.8320  -32.1620 C   0  0  0  0  0  0  0  0  0  0  0  0
   -4.7450   20.6460  -32.1010 C   0  0  0  0  0  0  0  0  0  0  0  0
   -5.9910   20.1770  -32.6510 N   0  0  0  0  0  0  0  0  0  0  0  0
   -6.0350   19.0080  -33.5370 C   0  0  0  0  0  0  0  0  0  0  0  0
   -7.1020   18.0030  -33.0560 C   0  0  0  0  0  0  0  0  0  0  0  0
   -8.2110   18.6240  -32.3020 N   0  0  0  0  0  0  0  0  0  0  0  0
   -8.4550   20.0150  -32.7020 C   0  0  0  0  0  0  0  0  0  0  0  0
   -7.2410   20.8910  -32.3640 C   0  0  0  0  0  0  0  0  0  0  0  0
   -4.6750   21.9120  -31.4740 C   0  0  0  0  0  0  0  0  0  0  0  0
   -3.4510   22.3220  -30.9330 C   0  0  0  0  0  0  0  0  0  0  0  0
   -3.1540   23.4900  -30.3200 N   0  0  0  0  0  0  0  0  0  0  0  0
   -4.0490   24.5950  -30.1170 C   0  0  0  0  0  0  0  0  0  0  0  0
   -3.8820   25.6720  -30.7460 O   0  0  0  0  0  0  0  0  0  0  0  0
   -5.1230   24.4760  -29.2440 O   0  0  0  0  0  0  0  0  0  0  0  0
   -2.6400   25.8550  -28.9660 H   0  0  0  0  0  0  0  0  0  0  0  0
   -0.2434   21.8752  -30.3611 H   0  0  0  0  0  0  0  0  0  0  0  0
   -1.4593   19.6548  -31.6839 H   0  0  0  0  0  0  0  0  0  0  0  0
   -3.6418   18.8396  -32.6330 H   0  0  0  0  0  0  0  0  0  0  0  0
   -6.2816   19.3366  -34.5574 H   0  0  0  0  0  0  0  0  0  0  0  0
   -5.0516   18.5152  -33.5236 H   0  0  0  0  0  0  0  0  0  0  0  0
   -7.5229   17.4962  -33.9369 H   0  0  0  0  0  0  0  0  0  0  0  0
   -6.5988   17.3065  -32.3692 H   0  0  0  0  0  0  0  0  0  0  0  0
   -7.9740   18.6080  -31.2820 H   0  0  0  0  0  0  0  0  0  0  0  0
   -8.6388   20.0533  -33.7859 H   0  0  0  0  0  0  0  0  0  0  0  0
   -9.3312   20.3943  -32.1558 H   0  0  0  0  0  0  0  0  0  0  0  0
   -7.2791   21.8097  -32.9678 H   0  0  0  0  0  0  0  0  0  0  0  0
   -7.2698   21.1377  -31.2924 H   0  0  0  0  0  0  0  0  0  0  0  0
   -5.5622   22.5594  -31.4130 H   0  0  0  0  0  0  0  0  0  0  0  0
  1  2  1  0
  2  3  2  0
  2  4  1  0
  4  5  2  0
  5  6  1  0
  6  7  2  0
  7  8  1  0
  8  9  2  0
  9 10  1  0
 10 11  1  0
 11 12  1  0
 12 13  1  0
 13 14  1  0
 14 15  1  0
  9 16  1  0
 16 17  2  0
 17 18  1  0
 18 19  1  0
 19 20  2  0
 19 21  1  0
 18  4  1  0
 17  6  1  0
 15 10  1  0
  1 22  1  0
  5 23  1  0
  7 24  1  0
  8 25  1  0
 11 26  1  0
 11 27  1  0
 12 28  1  0
 12 29  1  0
 13 30  1  0
 14 31  1  0
 14 32  1  0
 15 33  1  0
 15 34  1  0
 16 35  1  0
M  CHG  2   1  -1  21  -1
M  END
>  <UniqueID>  (43) 
42

>  <SMILES>  (43) 
[NH-]C(=O)c1cc2ccc(N3CCNCC3)cc2n1C(=O)[O-]

>  <Energy>  (43) 
84.79972444889644

>  <Genealogy>  (43) 
[NH-]C(=O)c1cc2ccc(N3CCNCC3)cc2n1C(=O)[O-] (protonated)
[NH-]C(=O)c1cc2ccc(N3CCNCC3)cc2n1C(=O)[O-] (3D coordinates assigned)
[NH-]C(=O)c1cc2ccc(N3CCNCC3)cc2n1C(=O)[O-] (nonaromatic ring conformer: 84.79972444889644 kcal/mol)

>  <smiles>  (43) 
NC(=O)c1cc2ccc(N3CCNCC3)cc2n1C(=O)O

>  <score_type>  (43) 
oracle

>  <origin>  (43) 
adg

>  <m_score__min__energy>  (43) 
-11.24

>  <m_primary>  (43) 
energy

$$$$
43:0
     RDKit          3D

 54 56  0  0  0  0  0  0  0  0999 V2000
   -9.1970   22.6170  -31.9790 C   0  0  0  0  0  0  0  0  0  0  0  0
   -7.8350   21.9910  -31.9710 C   0  0  0  0  0  0  0  0  0  0  0  0
   -7.6720   20.6430  -32.3750 C   0  0  0  0  0  0  0  0  0  0  0  0
   -6.3970   20.0510  -32.3910 C   0  0  0  0  0  0  0  0  0  0  0  0
   -5.3090   20.8360  -32.0180 C   0  0  0  0  0  0  0  0  0  0  0  0
   -3.9790   20.5030  -31.9020 C   0  0  0  0  0  0  0  0  0  0  0  0
   -3.3460   21.6650  -31.4770 C   0  0  0  0  0  0  0  0  0  0  0  0
   -1.8880   21.7630  -31.2640 C   0  0  0  0  0  0  0  0  0  0  0  0
   -1.3450   22.0490  -29.9750 N   0  0  0  0  0  0  0  0  0  0  0  0
   -1.1090   21.6520  -32.2500 O   0  0  0  0  0  0  0  0  0  0  0  0
   -4.2440   22.6790  -31.3270 N   0  0  0  0  0  0  0  0  0  0  0  0
   -3.9990   23.9740  -30.7540 C   0  0  0  0  0  0  0  0  0  0  0  0
   -4.6240   24.9840  -31.1760 O   0  0  0  0  0  0  0  0  0  0  0  0
   -3.0710   24.0900  -29.7130 O   0  0  0  0  0  0  0  0  0  0  0  0
   -3.3170   23.8150  -28.3630 C   0  0  0  0  0  0  0  0  0  0  0  0
   -3.7340   22.6810  -28.0010 O   0  0  0  0  0  0  0  0  0  0  0  0
   -3.0810   24.8810  -27.3220 C   0  0  1  0  0  0  0  0  0  0  0  0
   -4.2230   24.9240  -26.2980 C   0  0  0  0  0  0  0  0  0  0  0  0
   -1.7750   24.7160  -26.6470 N   0  0  0  0  0  0  0  0  0  0  0  0
   -1.3670   25.6680  -25.6080 C   0  0  0  0  0  0  0  0  0  0  0  0
   -0.8720   23.6350  -26.9770 C   0  0  0  0  0  0  0  0  0  0  0  0
   -0.4280   23.5230  -28.1530 O   0  0  0  0  0  0  0  0  0  0  0  0
   -0.5100   22.6960  -26.0030 O   0  0  0  0  0  0  0  0  0  0  0  0
   -1.1980   21.4650  -25.8080 C   0  0  0  0  0  0  0  0  0  0  0  0
   -1.0180   20.5730  -26.9970 C   0  0  0  0  0  0  0  0  0  0  0  0
   -0.2450   20.8460  -28.0220 O   0  0  0  0  0  0  0  0  0  0  0  0
   -0.3490   19.8190  -28.8340 C   0  0  0  0  0  0  0  0  0  0  0  0
    0.2600   19.7340  -29.9330 O   0  0  0  0  0  0  0  0  0  0  0  0
   -1.1550   18.8900  -28.3740 O   0  0  0  0  0  0  0  0  0  0  0  0
   -1.5900   19.3320  -27.2170 C   0  0  0  0  0  0  0  0  0  0  0  0
   -2.5460   18.6010  -26.3330 C   0  0  0  0  0  0  0  0  0  0  0  0
   -5.4450   22.1540  -31.6610 C   0  0  0  0  0  0  0  0  0  0  0  0
   -6.7060   22.7610  -31.6160 C   0  0  0  0  0  0  0  0  0  0  0  0
   -9.5352   22.7724  -30.9439 H   0  0  0  0  0  0  0  0  0  0  0  0
   -9.1526   23.5850  -32.4995 H   0  0  0  0  0  0  0  0  0  0  0  0
   -9.9027   21.9529  -32.4995 H   0  0  0  0  0  0  0  0  0  0  0  0
   -8.5504   20.0546  -32.6787 H   0  0  0  0  0  0  0  0  0  0  0  0
   -6.2630   19.0006  -32.6888 H   0  0  0  0  0  0  0  0  0  0  0  0
   -3.5157   19.5258  -32.1028 H   0  0  0  0  0  0  0  0  0  0  0  0
   -1.9650   22.3050  -29.1760 H   0  0  0  0  0  0  0  0  0  0  0  0
   -0.3110   22.0940  -29.8380 H   0  0  0  0  0  0  0  0  0  0  0  0
   -3.0592   25.8452  -27.8510 H   0  0  0  0  0  0  0  0  0  0  0  0
   -3.8043   24.9082  -25.2809 H   0  0  0  0  0  0  0  0  0  0  0  0
   -4.8079   25.8448  -26.4395 H   0  0  0  0  0  0  0  0  0  0  0  0
   -4.8755   24.0498  -26.4395 H   0  0  0  0  0  0  0  0  0  0  0  0
   -1.5544   25.2308  -24.6161 H   0  0  0  0  0  0  0  0  0  0  0  0
   -0.2948   25.8897  -25.7144 H   0  0  0  0  0  0  0  0  0  0  0  0
   -1.9459   26.5973  -25.7144 H   0  0  0  0  0  0  0  0  0  0  0  0
   -0.7976   20.9635  -24.9146 H   0  0  0  0  0  0  0  0  0  0  0  0
   -2.2702   21.6722  -25.6762 H   0  0  0  0  0  0  0  0  0  0  0  0
   -2.2930   18.7944  -25.2801 H   0  0  0  0  0  0  0  0  0  0  0  0
   -3.5702   18.9485  -26.5338 H   0  0  0  0  0  0  0  0  0  0  0  0
   -2.4791   17.5216  -26.5338 H   0  0  0  0  0  0  0  0  0  0  0  0
   -6.8145   23.8124  -31.3114 H   0  0  0  0  0  0  0  0  0  0  0  0
  1  2  1  0
  2  3  2  0
  3  4  1  0
  4  5  2  0
  5  6  1  0
  6  7  2  0
  7  8  1  0
  8  9  1  0
  8 10  2  0
  7 11  1  0
 11 12  1  0
 12 13  2  0
 12 14  1  0
 14 15  1  0
 15 16  2  0
 15 17  1  0
 17 18  1  0
 17 19  1  0
 19 20  1  0
 19 21  1  0
 21 22  2  0
 21 23  1  0
 23 24  1  0
 24 25  1  0
 25 26  1  0
 26 27  1  0
 27 28  2  0
 27 29  1  0
 29 30  1  0
 30 31  1  0
 11 32  1  0
 32 33  2  0
 33  2  1  0
 32  5  1  0
 30 25  2  0
  1 34  1  0
  1 35  1  0
  1 36  1  0
  3 37  1  0
  4 38  1  0
  6 39  1  0
  9 40  1  0
  9 41  1  0
 17 42  1  6
 18 43  1  0
 18 44  1  0
 18 45  1  0
 20 46  1  0
 20 47  1  0
 20 48  1  0
 24 49  1  0
 24 50  1  0
 31 51  1  0
 31 52  1  0
 31 53  1  0
 33 54  1  0
M  END
>  <UniqueID>  (44) 
43

>  <SMILES>  (44) 
Cc1ccc2cc(C(N)=O)n(C(=O)OC(=O)[C@@H](C)N(C)C(=O)OCc3oc(=O)oc3C)c2c1

>  <Energy>  (44) 
119.4554731699698

>  <Genealogy>  (44) 
Cc1ccc2cc(C(N)=O)n(C(=O)OC(=O)[C@@H](C)N(C)C(=O)OCc3oc(=O)oc3C)c2c1 (chirality)
Cc1ccc2cc(C(N)=O)n(C(=O)OC(=O)[C@@H](C)N(C)C(=O)OCc3oc(=O)oc3C)c2c1 (3D coordinates assigned)
Cc1ccc2cc(C(N)=O)n(C(=O)OC(=O)[C@@H](C)N(C)C(=O)OCc3oc(=O)oc3C)c2c1 (optimized conformer: 119.4554731699698 kcal/mol)

>  <smiles>  (44) 
Cc1ccc2cc(C(N)=O)n(C(=O)OC(=O)C(C)N(C)C(=O)OCc3oc(=O)oc3C)c2c1

>  <score_type>  (44) 
oracle

>  <origin>  (44) 
adg

>  <m_score__min__energy>  (44) 
-10.19

>  <m_primary>  (44) 
energy

$$$$
44:0
     RDKit          3D

 40 41  0  0  0  0  0  0  0  0999 V2000
   -7.4800   20.7410  -32.0180 C   0  0  0  0  0  0  0  0  0  0  0  0
   -6.6690   19.9380  -33.0450 C   0  0  1  0  0  0  0  0  0  0  0  0
   -5.4730   20.6880  -33.4520 N   0  0  0  0  0  0  0  0  0  0  0  0
   -4.3460   21.0530  -32.6230 C   0  0  0  0  0  0  0  0  0  0  0  0
   -3.2530   20.1550  -32.5350 C   0  0  0  0  0  0  0  0  0  0  0  0
   -2.1440   20.4400  -31.7220 C   0  0  0  0  0  0  0  0  0  0  0  0
   -2.1450   21.6360  -31.0150 C   0  0  0  0  0  0  0  0  0  0  0  0
   -1.2210   22.1390  -30.1280 C   0  0  0  0  0  0  0  0  0  0  0  0
   -1.7410   23.3590  -29.7100 C   0  0  0  0  0  0  0  0  0  0  0  0
   -1.0370   24.2680  -28.7840 C   0  0  0  0  0  0  0  0  0  0  0  0
   -1.7440   25.2610  -28.0400 N   0  0  0  0  0  0  0  0  0  0  0  0
    0.2180   24.2040  -28.6890 O   0  0  0  0  0  0  0  0  0  0  0  0
   -2.9430   23.6010  -30.3040 N   0  0  0  0  0  0  0  0  0  0  0  0
   -3.8420   24.6930  -30.0470 C   0  0  0  0  0  0  0  0  0  0  0  0
   -3.8910   25.6740  -30.8350 O   0  0  0  0  0  0  0  0  0  0  0  0
   -4.6670   24.6800  -28.9290 O   0  0  0  0  0  0  0  0  0  0  0  0
   -3.1750   22.5350  -31.1040 C   0  0  0  0  0  0  0  0  0  0  0  0
   -4.3020   22.2660  -31.8910 C   0  0  0  0  0  0  0  0  0  0  0  0
   -6.3270   18.5310  -32.5900 C   0  0  0  0  0  0  0  0  0  0  0  0
   -6.5950   18.1820  -31.4060 O   0  0  0  0  0  0  0  0  0  0  0  0
   -5.7050   17.5780  -33.4800 N   0  0  0  0  0  0  0  0  0  0  0  0
   -5.1220   16.3570  -32.9150 C   0  0  0  0  0  0  0  0  0  0  0  0
   -5.6810   17.7980  -34.9310 C   0  0  0  0  0  0  0  0  0  0  0  0
   -7.1807   20.4447  -31.0018 H   0  0  0  0  0  0  0  0  0  0  0  0
   -7.2882   21.8150  -32.1582 H   0  0  0  0  0  0  0  0  0  0  0  0
   -8.5521   20.5386  -32.1582 H   0  0  0  0  0  0  0  0  0  0  0  0
   -7.3178   19.8028  -33.9229 H   0  0  0  0  0  0  0  0  0  0  0  0
   -5.4180   20.9370  -34.4670 H   0  0  0  0  0  0  0  0  0  0  0  0
   -3.2737   19.2194  -33.1131 H   0  0  0  0  0  0  0  0  0  0  0  0
   -1.3005   19.7379  -31.6472 H   0  0  0  0  0  0  0  0  0  0  0  0
   -0.2736   21.6751  -29.8163 H   0  0  0  0  0  0  0  0  0  0  0  0
   -1.2350   25.8730  -27.3650 H   0  0  0  0  0  0  0  0  0  0  0  0
   -2.7540   25.4550  -28.2240 H   0  0  0  0  0  0  0  0  0  0  0  0
   -5.1360   22.9816  -31.9400 H   0  0  0  0  0  0  0  0  0  0  0  0
   -5.1484   16.4123  -31.8167 H   0  0  0  0  0  0  0  0  0  0  0  0
   -5.7006   15.4844  -33.2522 H   0  0  0  0  0  0  0  0  0  0  0  0
   -4.0796   16.2583  -33.2522 H   0  0  0  0  0  0  0  0  0  0  0  0
   -5.5638   18.8721  -35.1371 H   0  0  0  0  0  0  0  0  0  0  0  0
   -4.8377   17.2460  -35.3717 H   0  0  0  0  0  0  0  0  0  0  0  0
   -6.6234   17.4408  -35.3717 H   0  0  0  0  0  0  0  0  0  0  0  0
  1  2  1  0
  2  3  1  0
  3  4  1  0
  4  5  2  0
  5  6  1  0
  6  7  2  0
  7  8  1  0
  8  9  2  0
  9 10  1  0
 10 11  1  0
 10 12  2  0
  9 13  1  0
 13 14  1  0
 14 15  2  0
 14 16  1  0
 13 17  1  0
 17 18  2  0
  2 19  1  0
 19 20  2  0
 19 21  1  0
 21 22  1  0
 21 23  1  0
 18  4  1  0
 17  7  1  0
  1 24  1  0
  1 25  1  0
  1 26  1  0
  2 27  1  6
  3 28  1  0
  5 29  1  0
  6 30  1  0
  8 31  1  0
 11 32  1  0
 11 33  1  0
 18 34  1  0
 22 35  1  0
 22 36  1  0
 22 37  1  0
 23 38  1  0
 23 39  1  0
 23 40  1  0
M  CHG  1  16  -1
M  END
>  <UniqueID>  (45) 
44

>  <SMILES>  (45) 
C[C@@H](Nc1ccc2cc(C(N)=O)n(C(=O)[O-])c2c1)C(=O)N(C)C

>  <Energy>  (45) 
78.79862487058435

>  <Genealogy>  (45) 
CC(Nc1ccc2cc(C(N)=O)n(C(=O)[O-])c2c1)C(=O)N(C)C (protonated)
C[C@@H](Nc1ccc2cc(C(N)=O)n(C(=O)[O-])c2c1)C(=O)N(C)C (chirality)
C[C@@H](Nc1ccc2cc(C(N)=O)n(C(=O)[O-])c2c1)C(=O)N(C)C (3D coordinates assigned)
C[C@@H](Nc1ccc2cc(C(N)=O)n(C(=O)[O-])c2c1)C(=O)N(C)C (optimized conformer: 78.79862487058435 kcal/mol)

>  <smiles>  (45) 
CC(Nc1ccc2cc(C(N)=O)n(C(=O)O)c2c1)C(=O)N(C)C

>  <score_type>  (45) 
oracle

>  <origin>  (45) 
adg

>  <m_score__min__energy>  (45) 
-8.9499999999999993

>  <m_primary>  (45) 
energy

$$$$
45:0
     RDKit          3D

 42 44  0  0  0  0  0  0  0  0999 V2000
   -4.2250   25.5450  -30.5510 N   0  0  0  0  0  0  0  0  0  0  0  0
   -5.5880   25.1500  -30.3880 C   0  0  0  0  0  0  0  0  0  0  0  0
   -6.3900   25.9280  -29.8060 O   0  0  0  0  0  0  0  0  0  0  0  0
   -6.0880   23.8760  -30.9430 C   0  0  0  0  0  0  0  0  0  0  0  0
   -7.4340   23.6300  -31.1980 C   0  0  0  0  0  0  0  0  0  0  0  0
   -7.4730   22.3730  -31.7550 C   0  0  0  0  0  0  0  0  0  0  0  0
   -8.5620   21.6210  -32.1820 C   0  0  0  0  0  0  0  0  0  0  0  0
   -8.3160   20.3300  -32.6810 C   0  0  0  0  0  0  0  0  0  0  0  0
   -6.9980   19.8100  -32.7340 C   0  0  0  0  0  0  0  0  0  0  0  0
   -6.7800   18.4380  -33.2520 C   0  0  0  0  0  0  0  0  0  0  0  0
   -7.2260   17.2520  -32.6900 C   0  0  0  0  0  0  0  0  0  0  0  0
   -6.7800   16.2510  -33.5250 C   0  0  0  0  0  0  0  0  0  0  0  0
   -6.0910   16.8770  -34.5410 C   0  0  0  0  0  0  0  0  0  0  0  0
   -6.1080   18.1750  -34.3510 O   0  0  0  0  0  0  0  0  0  0  0  0
   -5.9170   20.6070  -32.2860 C   0  0  0  0  0  0  0  0  0  0  0  0
   -6.1880   21.8970  -31.8130 C   0  0  0  0  0  0  0  0  0  0  0  0
   -5.3240   22.8110  -31.3130 N   0  0  0  0  0  0  0  0  0  0  0  0
   -3.9140   22.6370  -31.0950 C   0  0  0  0  0  0  0  0  0  0  0  0
   -3.0980   22.8890  -32.0230 O   0  0  0  0  0  0  0  0  0  0  0  0
   -3.4610   22.1880  -29.8460 O   0  0  0  0  0  0  0  0  0  0  0  0
   -2.4840   22.8210  -29.0670 C   0  0  0  0  0  0  0  0  0  0  0  0
   -1.4090   22.2350  -28.7650 O   0  0  0  0  0  0  0  0  0  0  0  0
   -2.7190   24.1900  -28.5990 C   0  0  0  0  0  0  0  0  0  0  0  0
   -3.5150   24.3930  -27.6420 O   0  0  0  0  0  0  0  0  0  0  0  0
   -2.0560   25.2860  -29.2370 N   0  0  0  0  0  0  0  0  0  0  0  0
   -1.1390   26.1940  -28.5540 C   0  0  0  0  0  0  0  0  0  0  0  0
   -0.1100   25.4160  -27.7370 C   0  0  0  0  0  0  0  0  0  0  0  0
    0.4500   24.3910  -28.5110 O   0  0  0  0  0  0  0  0  0  0  0  0
   -3.5780   25.0060  -31.1680 H   0  0  0  0  0  0  0  0  0  0  0  0
   -3.8780   26.4250  -30.1110 H   0  0  0  0  0  0  0  0  0  0  0  0
   -8.2846   24.2979  -30.9971 H   0  0  0  0  0  0  0  0  0  0  0  0
   -9.5843   22.0239  -32.1309 H   0  0  0  0  0  0  0  0  0  0  0  0
   -9.1568   19.7153  -33.0349 H   0  0  0  0  0  0  0  0  0  0  0  0
   -7.8143   17.1344  -31.7680 H   0  0  0  0  0  0  0  0  0  0  0  0
   -6.9414   15.1696  -33.4048 H   0  0  0  0  0  0  0  0  0  0  0  0
   -5.6013   16.3662  -35.3832 H   0  0  0  0  0  0  0  0  0  0  0  0
   -4.8870   20.2215  -32.3089 H   0  0  0  0  0  0  0  0  0  0  0  0
   -0.6156   26.8074  -29.3022 H   0  0  0  0  0  0  0  0  0  0  0  0
   -1.7195   26.8325  -27.8719 H   0  0  0  0  0  0  0  0  0  0  0  0
    0.6866   26.1005  -27.4099 H   0  0  0  0  0  0  0  0  0  0  0  0
   -0.6082   24.9728  -26.8621 H   0  0  0  0  0  0  0  0  0  0  0  0
   -0.2790   24.0560  -29.0940 H   0  0  0  0  0  0  0  0  0  0  0  0
  1  2  1  0
  2  3  2  0
  2  4  1  0
  4  5  2  0
  5  6  1  0
  6  7  2  0
  7  8  1  0
  8  9  2  0
  9 10  1  0
 10 11  2  0
 11 12  1  0
 12 13  2  0
 13 14  1  0
  9 15  1  0
 15 16  2  0
 16 17  1  0
 17 18  1  0
 18 19  2  0
 18 20  1  0
 20 21  1  0
 21 22  2  0
 21 23  1  0
 23 24  2  0
 23 25  1  0
 25 26  1  0
 26 27  1  0
 27 28  1  0
 17  4  1  0
 16  6  1  0
 14 10  1  0
  1 29  1  0
  1 30  1  0
  5 31  1  0
  7 32  1  0
  8 33  1  0
 11 34  1  0
 12 35  1  0
 13 36  1  0
 15 37  1  0
 26 38  1  0
 26 39  1  0
 27 40  1  0
 27 41  1  0
 28 42  1  0
M  CHG  1  25  -1
M  END
>  <UniqueID>  (46) 
45

>  <SMILES>  (46) 
NC(=O)c1cc2ccc(-c3ccco3)cc2n1C(=O)OC(=O)C(=O)[N-]CCO

>  <Energy>  (46) 
106.22004843364147

>  <Genealogy>  (46) 
NC(=O)c1cc2ccc(-c3ccco3)cc2n1C(=O)OC(=O)C(=O)[N-]CCO (protonated)
NC(=O)c1cc2ccc(-c3ccco3)cc2n1C(=O)OC(=O)C(=O)[N-]CCO (3D coordinates assigned)
NC(=O)c1cc2ccc(-c3ccco3)cc2n1C(=O)OC(=O)C(=O)[N-]CCO (optimized conformer: 106.22004843364147 kcal/mol)

>  <smiles>  (46) 
NC(=O)c1cc2ccc(-c3ccco3)cc2n1C(=O)OC(=O)C(=O)NCCO

>  <score_type>  (46) 
oracle

>  <origin>  (46) 
adg

>  <m_score__min__energy>  (46) 
-10.67

>  <m_primary>  (46) 
energy

$$$$
46:0
     RDKit          3D

 44 45  0  0  0  0  0  0  0  0999 V2000
   -3.8680   25.3580  -30.8410 N   0  0  0  0  0  0  0  0  0  0  0  0
   -5.2340   25.1370  -30.5030 C   0  0  0  0  0  0  0  0  0  0  0  0
   -5.8430   25.9970  -29.8130 O   0  0  0  0  0  0  0  0  0  0  0  0
   -5.9260   23.8910  -30.8960 C   0  0  0  0  0  0  0  0  0  0  0  0
   -7.3090   23.8010  -31.0360 C   0  0  0  0  0  0  0  0  0  0  0  0
   -7.5600   22.4820  -31.3320 C   0  0  0  0  0  0  0  0  0  0  0  0
   -8.7660   21.8420  -31.5980 C   0  0  0  0  0  0  0  0  0  0  0  0
   -8.7300   20.4740  -31.9190 C   0  0  0  0  0  0  0  0  0  0  0  0
   -7.4970   19.7720  -31.9630 C   0  0  0  0  0  0  0  0  0  0  0  0
   -7.4650   18.3220  -32.3750 C   0  0  0  0  0  0  0  0  0  0  0  0
   -6.6600   17.5890  -31.5200 F   0  0  0  0  0  0  0  0  0  0  0  0
   -8.7490   17.8110  -32.3360 F   0  0  0  0  0  0  0  0  0  0  0  0
   -6.9650   18.1900  -33.6590 F   0  0  0  0  0  0  0  0  0  0  0  0
   -6.2910   20.4670  -31.7120 C   0  0  0  0  0  0  0  0  0  0  0  0
   -6.3590   21.8230  -31.3720 C   0  0  0  0  0  0  0  0  0  0  0  0
   -5.3420   22.6760  -31.1080 N   0  0  0  0  0  0  0  0  0  0  0  0
   -3.9400   22.3620  -31.1400 C   0  0  0  0  0  0  0  0  0  0  0  0
   -3.1260   23.1600  -31.6810 O   0  0  0  0  0  0  0  0  0  0  0  0
   -3.4860   21.1520  -30.6040 O   0  0  0  0  0  0  0  0  0  0  0  0
   -2.1140   20.8950  -30.3250 C   0  0  0  0  0  0  0  0  0  0  0  0
   -1.9760   20.4360  -28.9850 O   0  0  0  0  0  0  0  0  0  0  0  0
   -2.1800   21.2660  -27.8780 C   0  0  0  0  0  0  0  0  0  0  0  0
   -2.4310   20.7700  -26.7460 O   0  0  0  0  0  0  0  0  0  0  0  0
   -2.0330   22.7590  -28.0420 C   0  0  1  0  0  0  0  0  0  0  0  0
   -3.1830   23.3270  -28.7510 N   0  0  0  0  0  0  0  0  0  0  0  0
   -1.8650   23.4560  -26.6750 C   0  0  0  0  0  0  0  0  0  0  0  0
   -1.5550   24.9590  -26.7830 C   0  0  0  0  0  0  0  0  0  0  0  0
   -0.8900   25.2960  -28.0830 C   0  0  0  0  0  0  0  0  0  0  0  0
   -1.5800   25.6630  -29.0700 O   0  0  0  0  0  0  0  0  0  0  0  0
    0.4870   25.1660  -28.2160 O   0  0  0  0  0  0  0  0  0  0  0  0
   -3.1030   24.8540  -30.3430 H   0  0  0  0  0  0  0  0  0  0  0  0
   -8.0441   24.6127  -30.9319 H   0  0  0  0  0  0  0  0  0  0  0  0
   -9.7190   22.3898  -31.5583 H   0  0  0  0  0  0  0  0  0  0  0  0
   -9.6673   19.9417  -32.1385 H   0  0  0  0  0  0  0  0  0  0  0  0
   -5.3210   19.9531  -31.7825 H   0  0  0  0  0  0  0  0  0  0  0  0
   -1.7380   20.1259  -31.0157 H   0  0  0  0  0  0  0  0  0  0  0  0
   -1.5356   21.8216  -30.4546 H   0  0  0  0  0  0  0  0  0  0  0  0
   -1.1268   22.9350  -28.6402 H   0  0  0  0  0  0  0  0  0  0  0  0
   -3.8050   22.5580  -29.0920 H   0  0  0  0  0  0  0  0  0  0  0  0
   -2.8400   23.8530  -29.5870 H   0  0  0  0  0  0  0  0  0  0  0  0
   -2.7981   23.3336  -26.1054 H   0  0  0  0  0  0  0  0  0  0  0  0
   -1.0051   22.9847  -26.1765 H   0  0  0  0  0  0  0  0  0  0  0  0
   -2.4961   25.5234  -26.7072 H   0  0  0  0  0  0  0  0  0  0  0  0
   -0.8678   25.2268  -25.9669 H   0  0  0  0  0  0  0  0  0  0  0  0
  1  2  1  0
  2  3  2  0
  2  4  1  0
  4  5  2  0
  5  6  1  0
  6  7  2  0
  7  8  1  0
  8  9  2  0
  9 10  1  0
 10 11  1  0
 10 12  1  0
 10 13  1  0
  9 14  1  0
 14 15  2  0
 15 16  1  0
 16 17  1  0
 17 18  2  0
 17 19  1  0
 19 20  1  0
 20 21  1  0
 21 22  1  0
 22 23  2  0
 22 24  1  0
 24 25  1  0
 24 26  1  0
 26 27  1  0
 27 28  1  0
 28 29  2  0
 28 30  1  0
 16  4  1  0
 15  6  1  0
  1 31  1  0
  5 32  1  0
  7 33  1  0
  8 34  1  0
 14 35  1  0
 20 36  1  0
 20 37  1  0
 24 38  1  6
 25 39  1  0
 25 40  1  0
 26 41  1  0
 26 42  1  0
 27 43  1  0
 27 44  1  0
M  CHG  2   1  -1  30  -1
M  END
>  <UniqueID>  (47) 
46

>  <SMILES>  (47) 
[NH-]C(=O)c1cc2ccc(C(F)(F)F)cc2n1C(=O)OCOC(=O)[C@@H](N)CCC(=O)[O-]

>  <Energy>  (47) 
75.43670043974325

>  <Genealogy>  (47) 
[NH-]C(=O)c1cc2ccc(C(F)(F)F)cc2n1C(=O)OCOC(=O)[C@@H](N)CCC(=O)[O-] (protonated)
[NH-]C(=O)c1cc2ccc(C(F)(F)F)cc2n1C(=O)OCOC(=O)[C@@H](N)CCC(=O)[O-] (3D coordinates assigned)
[NH-]C(=O)c1cc2ccc(C(F)(F)F)cc2n1C(=O)OCOC(=O)[C@@H](N)CCC(=O)[O-] (optimized conformer: 75.43670043974325 kcal/mol)

>  <smiles>  (47) 
NC(=O)c1cc2ccc(C(F)(F)F)cc2n1C(=O)OCOC(=O)[C@@H](N)CCC(=O)O

>  <score_type>  (47) 
oracle

>  <origin>  (47) 
adg

>  <m_score__min__energy>  (47) 
-11.91

>  <m_primary>  (47) 
energy

$$$$
47:0
     RDKit          3D

 31 32  0  0  0  0  0  0  0  0999 V2000
   -3.8770   25.1110  -29.9810 N   0  0  0  0  0  0  0  0  0  0  0  0
   -5.1010   25.0100  -30.7090 C   0  0  0  0  0  0  0  0  0  0  0  0
   -5.6570   26.0600  -31.1300 O   0  0  0  0  0  0  0  0  0  0  0  0
   -5.6930   23.6960  -31.0320 C   0  0  0  0  0  0  0  0  0  0  0  0
   -7.0410   23.3980  -30.8510 C   0  0  0  0  0  0  0  0  0  0  0  0
   -7.1960   22.1160  -31.3230 C   0  0  0  0  0  0  0  0  0  0  0  0
   -8.3290   21.3100  -31.3610 C   0  0  0  0  0  0  0  0  0  0  0  0
   -8.1920   20.0040  -31.8600 C   0  0  0  0  0  0  0  0  0  0  0  0
   -6.9360   19.5290  -32.3180 C   0  0  0  0  0  0  0  0  0  0  0  0
   -6.7880   18.1060  -32.7900 C   0  0  0  0  0  0  0  0  0  0  0  0
   -7.9960   17.4490  -32.6410 F   0  0  0  0  0  0  0  0  0  0  0  0
   -6.4170   18.0690  -34.1240 F   0  0  0  0  0  0  0  0  0  0  0  0
   -5.8210   17.4440  -32.0540 F   0  0  0  0  0  0  0  0  0  0  0  0
   -5.8020   20.3720  -32.2380 C   0  0  0  0  0  0  0  0  0  0  0  0
   -5.9710   21.6770  -31.7580 C   0  0  0  0  0  0  0  0  0  0  0  0
   -5.0350   22.6370  -31.5820 N   0  0  0  0  0  0  0  0  0  0  0  0
   -3.6240   22.5100  -31.8190 C   0  0  0  0  0  0  0  0  0  0  0  0
   -3.2140   21.8390  -32.8060 O   0  0  0  0  0  0  0  0  0  0  0  0
   -2.7160   23.1340  -30.9510 O   0  0  0  0  0  0  0  0  0  0  0  0
   -2.0190   22.4970  -29.9170 C   0  0  0  0  0  0  0  0  0  0  0  0
   -1.7360   21.2690  -29.9890 O   0  0  0  0  0  0  0  0  0  0  0  0
   -1.6440   23.2560  -28.8020 O   0  0  0  0  0  0  0  0  0  0  0  0
   -0.9240   24.4570  -28.8530 C   0  0  0  0  0  0  0  0  0  0  0  0
    0.2910   24.5090  -28.5280 O   0  0  0  0  0  0  0  0  0  0  0  0
   -1.5670   25.6140  -29.2720 O   0  0  0  0  0  0  0  0  0  0  0  0
   -3.3040   24.2650  -29.7690 H   0  0  0  0  0  0  0  0  0  0  0  0
   -3.4950   26.0490  -29.7280 H   0  0  0  0  0  0  0  0  0  0  0  0
   -7.8166   24.0494  -30.4219 H   0  0  0  0  0  0  0  0  0  0  0  0
   -9.3025   21.6838  -31.0110 H   0  0  0  0  0  0  0  0  0  0  0  0
   -9.0693   19.3415  -31.8961 H   0  0  0  0  0  0  0  0  0  0  0  0
   -4.8098   20.0104  -32.5460 H   0  0  0  0  0  0  0  0  0  0  0  0
  1  2  1  0
  2  3  2  0
  2  4  1  0
  4  5  2  0
  5  6  1  0
  6  7  2  0
  7  8  1  0
  8  9  2  0
  9 10  1  0
 10 11  1  0
 10 12  1  0
 10 13  1  0
  9 14  1  0
 14 15  2  0
 15 16  1  0
 16 17  1  0
 17 18  2  0
 17 19  1  0
 19 20  1  0
 20 21  2  0
 20 22  1  0
 22 23  1  0
 23 24  2  0
 23 25  1  0
 16  4  1  0
 15  6  1  0
  1 26  1  0
  1 27  1  0
  5 28  1  0
  7 29  1  0
  8 30  1  0
 14 31  1  0
M  CHG  1  25  -1
M  END
>  <UniqueID>  (48) 
47

>  <SMILES>  (48) 
NC(=O)c1cc2ccc(C(F)(F)F)cc2n1C(=O)OC(=O)OC(=O)[O-]

>  <Energy>  (48) 
73.80782445521652

>  <Genealogy>  (48) 
NC(=O)c1cc2ccc(C(F)(F)F)cc2n1C(=O)OC(=O)OC(=O)[O-] (protonated)
NC(=O)c1cc2ccc(C(F)(F)F)cc2n1C(=O)OC(=O)OC(=O)[O-] (3D coordinates assigned)
NC(=O)c1cc2ccc(C(F)(F)F)cc2n1C(=O)OC(=O)OC(=O)[O-] (optimized conformer: 73.80782445521652 kcal/mol)

>  <smiles>  (48) 
NC(=O)c1cc2ccc(C(F)(F)F)cc2n1C(=O)OC(=O)OC(=O)O

>  <score_type>  (48) 
oracle

>  <origin>  (48) 
adg

>  <m_score__min__energy>  (48) 
-8.7699999999999996

>  <m_primary>  (48) 
energy

$$$$
48:0
     RDKit          3D

 26 27  0  0  0  0  0  0  0  0999 V2000
   -1.7370   25.5770  -28.9470 N   0  0  0  0  0  0  0  0  0  0  0  0
   -1.0340   24.3480  -29.1090 C   0  0  0  0  0  0  0  0  0  0  0  0
    0.1040   24.2170  -28.5860 O   0  0  0  0  0  0  0  0  0  0  0  0
   -1.6060   23.2420  -29.9060 C   0  0  0  0  0  0  0  0  0  0  0  0
   -0.8350   22.3000  -30.5850 C   0  0  0  0  0  0  0  0  0  0  0  0
   -1.7370   21.4820  -31.2270 C   0  0  0  0  0  0  0  0  0  0  0  0
   -1.5240   20.3600  -32.0200 C   0  0  0  0  0  0  0  0  0  0  0  0
   -2.6490   19.6820  -32.5200 C   0  0  0  0  0  0  0  0  0  0  0  0
   -3.9610   20.1390  -32.2280 C   0  0  0  0  0  0  0  0  0  0  0  0
   -5.1590   19.3670  -32.7180 C   0  0  0  0  0  0  0  0  0  0  0  0
   -4.8160   18.6680  -33.8590 F   0  0  0  0  0  0  0  0  0  0  0  0
   -6.2060   20.2250  -33.0110 F   0  0  0  0  0  0  0  0  0  0  0  0
   -5.5920   18.4730  -31.7540 F   0  0  0  0  0  0  0  0  0  0  0  0
   -4.1350   21.2690  -31.3950 C   0  0  0  0  0  0  0  0  0  0  0  0
   -2.9960   21.9340  -30.9290 C   0  0  0  0  0  0  0  0  0  0  0  0
   -2.9320   23.0150  -30.1230 N   0  0  0  0  0  0  0  0  0  0  0  0
   -4.0470   23.7110  -29.5430 C   0  0  0  0  0  0  0  0  0  0  0  0
   -4.5420   23.3010  -28.4600 O   0  0  0  0  0  0  0  0  0  0  0  0
   -4.6160   24.8980  -30.1970 C   0  0  0  0  0  0  0  0  0  0  0  0
   -3.8810   25.6730  -30.8640 O   0  0  0  0  0  0  0  0  0  0  0  0
   -5.9700   25.1810  -30.0680 O   0  0  0  0  0  0  0  0  0  0  0  0
   -2.7160   25.6860  -29.2930 H   0  0  0  0  0  0  0  0  0  0  0  0
    0.2623   22.2259  -30.6038 H   0  0  0  0  0  0  0  0  0  0  0  0
   -0.5055   20.0134  -32.2492 H   0  0  0  0  0  0  0  0  0  0  0  0
   -2.5114   18.7871  -33.1447 H   0  0  0  0  0  0  0  0  0  0  0  0
   -5.1419   21.6164  -31.1203 H   0  0  0  0  0  0  0  0  0  0  0  0
  1  2  1  0
  2  3  2  0
  2  4  1  0
  4  5  2  0
  5  6  1  0
  6  7  2  0
  7  8  1  0
  8  9  2  0
  9 10  1  0
 10 11  1  0
 10 12  1  0
 10 13  1  0
  9 14  1  0
 14 15  2  0
 15 16  1  0
 16 17  1  0
 17 18  2  0
 17 19  1  0
 19 20  2  0
 19 21  1  0
 16  4  1  0
 15  6  1  0
  1 22  1  0
  5 23  1  0
  7 24  1  0
  8 25  1  0
 14 26  1  0
M  CHG  2   1  -1  21  -1
M  END
>  <UniqueID>  (49) 
48

>  <SMILES>  (49) 
[NH-]C(=O)c1cc2ccc(C(F)(F)F)cc2n1C(=O)C(=O)[O-]

>  <Energy>  (49) 
66.69402906132497

>  <Genealogy>  (49) 
[NH-]C(=O)c1cc2ccc(C(F)(F)F)cc2n1C(=O)C(=O)[O-] (protonated)
[NH-]C(=O)c1cc2ccc(C(F)(F)F)cc2n1C(=O)C(=O)[O-] (3D coordinates assigned)
[NH-]C(=O)c1cc2ccc(C(F)(F)F)cc2n1C(=O)C(=O)[O-] (optimized conformer: 66.69402906132497 kcal/mol)

>  <smiles>  (49) 
NC(=O)c1cc2ccc(C(F)(F)F)cc2n1C(=O)C(=O)O

>  <score_type>  (49) 
oracle

>  <origin>  (49) 
adg

>  <m_score__min__energy>  (49) 
-9.6099999999999994

>  <m_primary>  (49) 
energy

$$$$
49:0
     RDKit          3D

 39 40  0  0  0  0  0  0  0  0999 V2000
   -4.1830   22.9840  -28.0910 C   0  0  0  0  0  0  0  0  0  0  0  0
   -3.2400   22.6050  -28.9610 C   0  0  0  0  0  0  0  0  0  0  0  0
   -2.3030   21.4960  -28.5960 C   0  0  0  0  0  0  0  0  0  0  0  0
   -3.1400   23.1620  -30.2450 O   0  0  0  0  0  0  0  0  0  0  0  0
   -3.8470   22.7310  -31.3780 C   0  0  0  0  0  0  0  0  0  0  0  0
   -3.2370   22.2300  -32.3600 O   0  0  0  0  0  0  0  0  0  0  0  0
   -5.2820   22.8120  -31.3880 N   0  0  0  0  0  0  0  0  0  0  0  0
   -6.0510   23.8240  -30.8990 C   0  0  0  0  0  0  0  0  0  0  0  0
   -5.5570   25.1280  -30.4100 C   0  0  0  0  0  0  0  0  0  0  0  0
   -4.2100   25.5430  -30.6440 N   0  0  0  0  0  0  0  0  0  0  0  0
   -6.3520   25.9110  -29.8260 O   0  0  0  0  0  0  0  0  0  0  0  0
   -7.4020   23.4920  -30.9580 C   0  0  0  0  0  0  0  0  0  0  0  0
   -7.4400   22.2350  -31.5170 C   0  0  0  0  0  0  0  0  0  0  0  0
   -8.5300   21.4110  -31.7870 C   0  0  0  0  0  0  0  0  0  0  0  0
   -8.2770   20.1390  -32.3260 C   0  0  0  0  0  0  0  0  0  0  0  0
   -6.9490   19.7170  -32.5840 C   0  0  0  0  0  0  0  0  0  0  0  0
   -6.6880   18.3340  -33.1130 C   0  0  0  0  0  0  0  0  0  0  0  0
   -5.6690   18.3880  -34.2040 C   0  0  0  0  0  0  0  0  0  0  0  0
   -6.0360   18.5930  -35.3940 O   0  0  0  0  0  0  0  0  0  0  0  0
   -4.3230   18.1610  -33.9010 O   0  0  0  0  0  0  0  0  0  0  0  0
   -3.5920   17.0670  -34.4400 C   0  0  0  0  0  0  0  0  0  0  0  0
   -5.8680   20.5740  -32.2840 C   0  0  0  0  0  0  0  0  0  0  0  0
   -6.1490   21.8450  -31.7660 C   0  0  0  0  0  0  0  0  0  0  0  0
   -4.8758   23.7980  -28.3508 H   0  0  0  0  0  0  0  0  0  0  0  0
   -4.2656   22.4817  -27.1159 H   0  0  0  0  0  0  0  0  0  0  0  0
   -2.2367   21.4175  -27.5008 H   0  0  0  0  0  0  0  0  0  0  0  0
   -2.6780   20.5481  -29.0095 H   0  0  0  0  0  0  0  0  0  0  0  0
   -1.3058   21.7074  -29.0095 H   0  0  0  0  0  0  0  0  0  0  0  0
   -3.8660   26.4470  -30.2530 H   0  0  0  0  0  0  0  0  0  0  0  0
   -3.5780   24.9970  -31.2690 H   0  0  0  0  0  0  0  0  0  0  0  0
   -8.2553   24.1030  -30.6286 H   0  0  0  0  0  0  0  0  0  0  0  0
   -9.5578   21.7463  -31.5842 H   0  0  0  0  0  0  0  0  0  0  0  0
   -9.1167   19.4646  -32.5498 H   0  0  0  0  0  0  0  0  0  0  0  0
   -6.3153   17.6965  -32.2977 H   0  0  0  0  0  0  0  0  0  0  0  0
   -7.6242   17.9181  -33.5137 H   0  0  0  0  0  0  0  0  0  0  0  0
   -3.1851   16.4580  -33.6193 H   0  0  0  0  0  0  0  0  0  0  0  0
   -4.2595   16.4493  -35.0588 H   0  0  0  0  0  0  0  0  0  0  0  0
   -2.7659   17.4473  -35.0588 H   0  0  0  0  0  0  0  0  0  0  0  0
   -4.8300   20.2515  -32.4529 H   0  0  0  0  0  0  0  0  0  0  0  0
  1  2  2  0
  2  3  1  0
  2  4  1  0
  4  5  1  0
  5  6  2  0
  5  7  1  0
  7  8  1  0
  8  9  1  0
  9 10  1  0
  9 11  2  0
  8 12  2  0
 12 13  1  0
 13 14  2  0
 14 15  1  0
 15 16  2  0
 16 17  1  0
 17 18  1  0
 18 19  2  0
 18 20  1  0
 20 21  1  0
 16 22  1  0
 22 23  2  0
 23  7  1  0
 23 13  1  0
  1 24  1  0
  1 25  1  0
  3 26  1  0
  3 27  1  0
  3 28  1  0
 10 29  1  0
 10 30  1  0
 12 31  1  0
 14 32  1  0
 15 33  1  0
 17 34  1  0
 17 35  1  0
 21 36  1  0
 21 37  1  0
 21 38  1  0
 22 39  1  0
M  END
>  <UniqueID>  (50) 
49

>  <SMILES>  (50) 
C=C(C)OC(=O)n1c(C(N)=O)cc2ccc(CC(=O)OC)cc21

>  <Energy>  (50) 
76.04842445769694

>  <Genealogy>  (50) 
C=C(C)OC(=O)n1c(C(N)=O)cc2ccc(CC(=O)OC)cc21 (3D coordinates assigned)
C=C(C)OC(=O)n1c(C(N)=O)cc2ccc(CC(=O)OC)cc21 (optimized conformer: 76.04842445769694 kcal/mol)

>  <smiles>  (50) 
C=C(C)OC(=O)n1c(C(N)=O)cc2ccc(CC(=O)OC)cc21

>  <score_type>  (50) 
oracle

>  <origin>  (50) 
adg

>  <m_score__min__energy>  (50) 
-8.4600000000000009

>  <m_primary>  (50) 
energy

$$$$
50:0
     RDKit          3D

 42 44  0  0  0  0  0  0  0  0999 V2000
   -6.8950   15.0140  -34.2850 C   0  0  0  0  0  0  0  0  0  0  0  0
   -5.8940   16.0770  -34.1190 N   0  0  0  0  0  0  0  0  0  0  0  0
   -4.5220   15.8360  -34.5870 C   0  0  0  0  0  0  0  0  0  0  0  0
   -6.2550   17.3460  -33.5130 C   0  0  0  0  0  0  0  0  0  0  0  0
   -7.5780   17.5750  -33.0410 C   0  0  0  0  0  0  0  0  0  0  0  0
   -7.9390   18.8000  -32.4600 C   0  0  0  0  0  0  0  0  0  0  0  0
   -6.9660   19.7840  -32.3500 C   0  0  0  0  0  0  0  0  0  0  0  0
   -7.0630   21.0560  -31.8440 C   0  0  0  0  0  0  0  0  0  0  0  0
   -5.7990   21.6080  -32.0000 C   0  0  0  0  0  0  0  0  0  0  0  0
   -5.4810   22.9850  -31.5910 C   0  0  0  0  0  0  0  0  0  0  0  0
   -4.8060   23.2400  -30.3600 N   0  0  0  0  0  0  0  0  0  0  0  0
   -5.7420   23.9400  -32.3690 O   0  0  0  0  0  0  0  0  0  0  0  0
   -4.9340   20.7100  -32.5580 N   0  0  0  0  0  0  0  0  0  0  0  0
   -3.5050   20.8610  -32.7360 C   0  0  0  0  0  0  0  0  0  0  0  0
   -3.0390   21.1540  -33.8690 O   0  0  0  0  0  0  0  0  0  0  0  0
   -2.6090   20.6140  -31.6450 N   0  0  0  0  0  0  0  0  0  0  0  0
   -2.4980   21.3800  -30.4400 C   0  0  0  0  0  0  0  0  0  0  0  0
   -1.7710   22.5370  -30.2420 C   0  0  0  0  0  0  0  0  0  0  0  0
   -2.0420   22.8510  -28.9250 C   0  0  0  0  0  0  0  0  0  0  0  0
   -1.5730   24.0730  -28.2010 C   0  0  0  0  0  0  0  0  0  0  0  0
   -1.9720   25.2960  -28.9590 C   0  0  0  0  0  0  0  0  0  0  0  0
   -1.2250   26.3120  -28.9630 O   0  0  0  0  0  0  0  0  0  0  0  0
   -3.1320   25.2920  -29.7240 O   0  0  0  0  0  0  0  0  0  0  0  0
   -2.8870   21.9430  -28.3990 N   0  0  0  0  0  0  0  0  0  0  0  0
   -3.1370   21.0750  -29.3350 O   0  0  0  0  0  0  0  0  0  0  0  0
   -5.6780   19.5950  -32.7800 C   0  0  0  0  0  0  0  0  0  0  0  0
   -5.2950   18.3860  -33.3810 C   0  0  0  0  0  0  0  0  0  0  0  0
   -7.2251   14.6635  -33.2960 H   0  0  0  0  0  0  0  0  0  0  0  0
   -7.7585   15.4071  -34.8416 H   0  0  0  0  0  0  0  0  0  0  0  0
   -6.4507   14.1757  -34.8416 H   0  0  0  0  0  0  0  0  0  0  0  0
   -3.8544   15.7187  -33.7207 H   0  0  0  0  0  0  0  0  0  0  0  0
   -4.4977   14.9198  -35.1953 H   0  0  0  0  0  0  0  0  0  0  0  0
   -4.1869   16.6890  -35.1953 H   0  0  0  0  0  0  0  0  0  0  0  0
   -8.3304   16.7779  -33.1333 H   0  0  0  0  0  0  0  0  0  0  0  0
   -8.9641   18.9757  -32.1018 H   0  0  0  0  0  0  0  0  0  0  0  0
   -7.9520   21.5354  -31.4082 H   0  0  0  0  0  0  0  0  0  0  0  0
   -4.5110   22.4540  -29.7390 H   0  0  0  0  0  0  0  0  0  0  0  0
   -4.5750   24.2200  -30.0790 H   0  0  0  0  0  0  0  0  0  0  0  0
   -1.1328   23.0761  -30.9576 H   0  0  0  0  0  0  0  0  0  0  0  0
   -2.0267   24.1003  -27.1993 H   0  0  0  0  0  0  0  0  0  0  0  0
   -0.4770   24.0433  -28.1116 H   0  0  0  0  0  0  0  0  0  0  0  0
   -4.2665   18.2452  -33.7448 H   0  0  0  0  0  0  0  0  0  0  0  0
  1  2  1  0
  2  3  1  0
  2  4  1  0
  4  5  2  0
  5  6  1  0
  6  7  2  0
  7  8  1  0
  8  9  2  0
  9 10  1  0
 10 11  1  0
 10 12  2  0
  9 13  1  0
 13 14  1  0
 14 15  2  0
 14 16  1  0
 16 17  1  0
 17 18  2  0
 18 19  1  0
 19 20  1  0
 20 21  1  0
 21 22  2  0
 21 23  1  0
 19 24  2  0
 24 25  1  0
 13 26  1  0
 26 27  2  0
 27  4  1  0
 26  7  1  0
 25 17  1  0
  1 28  1  0
  1 29  1  0
  1 30  1  0
  3 31  1  0
  3 32  1  0
  3 33  1  0
  5 34  1  0
  6 35  1  0
  8 36  1  0
 11 37  1  0
 11 38  1  0
 18 39  1  0
 20 40  1  0
 20 41  1  0
 27 42  1  0
M  CHG  2  16  -1  23  -1
M  END
>  <UniqueID>  (51) 
50

>  <SMILES>  (51) 
CN(C)c1ccc2cc(C(N)=O)n(C(=O)[N-]c3cc(CC(=O)[O-])no3)c2c1

>  <Energy>  (51) 
119.01394334549812

>  <Genealogy>  (51) 
CN(C)c1ccc2cc(C(N)=O)n(C(=O)[N-]c3cc(CC(=O)[O-])no3)c2c1 (protonated)
CN(C)c1ccc2cc(C(N)=O)n(C(=O)[N-]c3cc(CC(=O)[O-])no3)c2c1 (3D coordinates assigned)
CN(C)c1ccc2cc(C(N)=O)n(C(=O)[N-]c3cc(CC(=O)[O-])no3)c2c1 (optimized conformer: 119.01394334549812 kcal/mol)

>  <smiles>  (51) 
CN(C)c1ccc2cc(C(N)=O)n(C(=O)Nc3cc(CC(=O)O)no3)c2c1

>  <score_type>  (51) 
oracle

>  <origin>  (51) 
adg

>  <m_score__min__energy>  (51) 
-11.460000000000001

>  <m_primary>  (51) 
energy

$$$$
51:0
     RDKit          3D

 39 40  0  0  0  0  0  0  0  0999 V2000
   -3.3370   18.9830  -33.8890 C   0  0  0  0  0  0  0  0  0  0  0  0
   -1.8670   18.7350  -34.2100 C   0  0  0  0  0  0  0  0  0  0  0  0
   -1.2570   19.9070  -34.7470 O   0  0  0  0  0  0  0  0  0  0  0  0
   -0.7040   20.9170  -33.9510 C   0  0  0  0  0  0  0  0  0  0  0  0
   -0.1110   21.8990  -34.4750 O   0  0  0  0  0  0  0  0  0  0  0  0
   -0.7320   20.7850  -32.4640 C   0  0  0  0  0  0  0  0  0  0  0  0
   -1.4490   21.9160  -31.8870 N   0  0  0  0  0  0  0  0  0  0  0  0
   -2.8440   22.1550  -32.1040 C   0  0  0  0  0  0  0  0  0  0  0  0
   -3.3540   21.9410  -33.2360 O   0  0  0  0  0  0  0  0  0  0  0  0
   -3.6760   22.6770  -31.0090 C   0  0  0  0  0  0  0  0  0  0  0  0
   -3.1420   22.9630  -29.9050 O   0  0  0  0  0  0  0  0  0  0  0  0
   -5.0870   22.8760  -31.1900 N   0  0  0  0  0  0  0  0  0  0  0  0
   -5.8030   24.0160  -30.9600 C   0  0  0  0  0  0  0  0  0  0  0  0
   -5.2520   25.3220  -30.5390 C   0  0  0  0  0  0  0  0  0  0  0  0
   -3.8990   25.6740  -30.8320 N   0  0  0  0  0  0  0  0  0  0  0  0
   -5.9950   26.1520  -29.9400 O   0  0  0  0  0  0  0  0  0  0  0  0
   -7.1560   23.8010  -31.2150 C   0  0  0  0  0  0  0  0  0  0  0  0
   -7.2470   22.4840  -31.6120 C   0  0  0  0  0  0  0  0  0  0  0  0
   -8.3610   21.7290  -31.9680 C   0  0  0  0  0  0  0  0  0  0  0  0
   -8.1640   20.3750  -32.2970 C   0  0  0  0  0  0  0  0  0  0  0  0
   -6.8680   19.8050  -32.2710 C   0  0  0  0  0  0  0  0  0  0  0  0
   -6.6910   18.3370  -32.5550 C   0  0  0  0  0  0  0  0  0  0  0  0
   -7.8860   17.6620  -32.3620 F   0  0  0  0  0  0  0  0  0  0  0  0
   -6.2780   18.1300  -33.8600 F   0  0  0  0  0  0  0  0  0  0  0  0
   -5.7420   17.8200  -31.6960 F   0  0  0  0  0  0  0  0  0  0  0  0
   -5.7650   20.6000  -31.8800 C   0  0  0  0  0  0  0  0  0  0  0  0
   -5.9870   21.9480  -31.5810 C   0  0  0  0  0  0  0  0  0  0  0  0
   -3.4752   19.0063  -32.7980 H   0  0  0  0  0  0  0  0  0  0  0  0
   -3.6487   19.9464  -34.3187 H   0  0  0  0  0  0  0  0  0  0  0  0
   -3.9475   18.1752  -34.3187 H   0  0  0  0  0  0  0  0  0  0  0  0
   -1.3412   18.4458  -33.2881 H   0  0  0  0  0  0  0  0  0  0  0  0
   -1.8021   17.9315  -34.9584 H   0  0  0  0  0  0  0  0  0  0  0  0
   -1.2412   19.8496  -32.1888 H   0  0  0  0  0  0  0  0  0  0  0  0
    0.2982   20.7699  -32.0787 H   0  0  0  0  0  0  0  0  0  0  0  0
   -3.1050   25.1010  -30.4550 H   0  0  0  0  0  0  0  0  0  0  0  0
   -7.9766   24.5274  -31.1198 H   0  0  0  0  0  0  0  0  0  0  0  0
   -9.3652   22.1773  -31.9914 H   0  0  0  0  0  0  0  0  0  0  0  0
   -9.0264   19.7524  -32.5775 H   0  0  0  0  0  0  0  0  0  0  0  0
   -4.7558   20.1677  -31.8127 H   0  0  0  0  0  0  0  0  0  0  0  0
  1  2  1  0
  2  3  1  0
  3  4  1  0
  4  5  2  0
  4  6  1  0
  6  7  1  0
  7  8  1  0
  8  9  2  0
  8 10  1  0
 10 11  2  0
 10 12  1  0
 12 13  1  0
 13 14  1  0
 14 15  1  0
 14 16  2  0
 13 17  2  0
 17 18  1  0
 18 19  2  0
 19 20  1  0
 20 21  2  0
 21 22  1  0
 22 23  1  0
 22 24  1  0
 22 25  1  0
 21 26  1  0
 26 27  2  0
 27 12  1  0
 27 18  1  0
  1 28  1  0
  1 29  1  0
  1 30  1  0
  2 31  1  0
  2 32  1  0
  6 33  1  0
  6 34  1  0
 15 35  1  0
 17 36  1  0
 19 37  1  0
 20 38  1  0
 26 39  1  0
M  CHG  2   7  -1  15  -1
M  END
>  <UniqueID>  (52) 
51

>  <SMILES>  (52) 
CCOC(=O)C[N-]C(=O)C(=O)n1c(C([NH-])=O)cc2ccc(C(F)(F)F)cc21

>  <Energy>  (52) 
71.49975642987695

>  <Genealogy>  (52) 
CCOC(=O)C[N-]C(=O)C(=O)n1c(C([NH-])=O)cc2ccc(C(F)(F)F)cc21 (protonated)
CCOC(=O)C[N-]C(=O)C(=O)n1c(C([NH-])=O)cc2ccc(C(F)(F)F)cc21 (3D coordinates assigned)
CCOC(=O)C[N-]C(=O)C(=O)n1c(C([NH-])=O)cc2ccc(C(F)(F)F)cc21 (optimized conformer: 71.49975642987695 kcal/mol)

>  <smiles>  (52) 
CCOC(=O)CNC(=O)C(=O)n1c(C(N)=O)cc2ccc(C(F)(F)F)cc21

>  <score_type>  (52) 
oracle

>  <origin>  (52) 
adg

>  <m_score__min__energy>  (52) 
-10.779999999999999

>  <m_primary>  (52) 
energy

$$$$
52:0
     RDKit          3D

 46 48  0  0  0  0  0  0  0  0999 V2000
   -0.8990   26.2350  -28.1910 C   0  0  0  0  0  0  0  0  0  0  0  0
   -1.5810   25.3480  -29.0520 O   0  0  0  0  0  0  0  0  0  0  0  0
   -1.6450   24.0540  -28.4820 C   0  0  0  0  0  0  0  0  0  0  0  0
   -1.5690   22.9910  -29.5790 C   0  0  0  0  0  0  0  0  0  0  0  0
   -2.8670   22.4770  -29.8730 O   0  0  0  0  0  0  0  0  0  0  0  0
   -3.4240   22.4770  -31.1570 C   0  0  0  0  0  0  0  0  0  0  0  0
   -2.6830   22.3730  -32.1720 O   0  0  0  0  0  0  0  0  0  0  0  0
   -4.8490   22.5750  -31.3170 N   0  0  0  0  0  0  0  0  0  0  0  0
   -5.6620   23.5810  -30.8860 C   0  0  0  0  0  0  0  0  0  0  0  0
   -5.2080   24.8590  -30.2940 C   0  0  0  0  0  0  0  0  0  0  0  0
   -3.8150   25.1530  -30.1710 N   0  0  0  0  0  0  0  0  0  0  0  0
   -6.0500   25.6900  -29.8620 O   0  0  0  0  0  0  0  0  0  0  0  0
   -6.9930   23.2860  -31.1690 C   0  0  0  0  0  0  0  0  0  0  0  0
   -6.9690   22.0590  -31.7910 C   0  0  0  0  0  0  0  0  0  0  0  0
   -8.0160   21.2860  -32.2730 C   0  0  0  0  0  0  0  0  0  0  0  0
   -7.7100   20.0420  -32.8460 C   0  0  0  0  0  0  0  0  0  0  0  0
   -6.3640   19.5720  -32.9310 C   0  0  0  0  0  0  0  0  0  0  0  0
   -6.0550   18.2700  -33.5210 N   0  0  0  0  0  0  0  0  0  0  0  0
   -6.9150   17.1090  -33.2060 C   0  0  0  0  0  0  0  0  0  0  0  0
   -6.5180   15.8280  -33.9460 C   0  0  0  0  0  0  0  0  0  0  0  0
   -5.1180   15.7170  -34.0520 O   0  0  0  0  0  0  0  0  0  0  0  0
   -4.6600   16.7170  -34.9300 C   0  0  0  0  0  0  0  0  0  0  0  0
   -4.8110   18.1050  -34.3030 C   0  0  0  0  0  0  0  0  0  0  0  0
   -5.3310   20.4060  -32.4140 C   0  0  0  0  0  0  0  0  0  0  0  0
   -5.6680   21.6490  -31.8670 C   0  0  0  0  0  0  0  0  0  0  0  0
   -1.1074   25.9640  -27.1455 H   0  0  0  0  0  0  0  0  0  0  0  0
    0.1829   26.1686  -28.3783 H   0  0  0  0  0  0  0  0  0  0  0  0
   -1.2411   27.2635  -28.3783 H   0  0  0  0  0  0  0  0  0  0  0  0
   -0.8026   23.9206  -27.7874 H   0  0  0  0  0  0  0  0  0  0  0  0
   -2.5970   23.9457  -27.9417 H   0  0  0  0  0  0  0  0  0  0  0  0
   -1.1439   23.4404  -30.4886 H   0  0  0  0  0  0  0  0  0  0  0  0
   -0.9324   22.1653  -29.2283 H   0  0  0  0  0  0  0  0  0  0  0  0
   -3.5040   26.0440  -29.7240 H   0  0  0  0  0  0  0  0  0  0  0  0
   -3.0890   24.5120  -30.5620 H   0  0  0  0  0  0  0  0  0  0  0  0
   -7.8756   23.9025  -30.9434 H   0  0  0  0  0  0  0  0  0  0  0  0
   -9.0560   21.6383  -32.2078 H   0  0  0  0  0  0  0  0  0  0  0  0
   -8.5245   19.4153  -33.2382 H   0  0  0  0  0  0  0  0  0  0  0  0
   -6.8566   16.9172  -32.1244 H   0  0  0  0  0  0  0  0  0  0  0  0
   -7.9333   17.3660  -33.5331 H   0  0  0  0  0  0  0  0  0  0  0  0
   -6.9065   14.9593  -33.3943 H   0  0  0  0  0  0  0  0  0  0  0  0
   -6.9434   15.8639  -34.9598 H   0  0  0  0  0  0  0  0  0  0  0  0
   -3.5988   16.5381  -35.1575 H   0  0  0  0  0  0  0  0  0  0  0  0
   -5.2617   16.6795  -35.8501 H   0  0  0  0  0  0  0  0  0  0  0  0
   -3.9547   18.2797  -33.6350 H   0  0  0  0  0  0  0  0  0  0  0  0
   -4.8517   18.8294  -35.1298 H   0  0  0  0  0  0  0  0  0  0  0  0
   -4.2818   20.0769  -32.4445 H   0  0  0  0  0  0  0  0  0  0  0  0
  1  2  1  0
  2  3  1  0
  3  4  1  0
  4  5  1  0
  5  6  1  0
  6  7  2  0
  6  8  1  0
  8  9  1  0
  9 10  1  0
 10 11  1  0
 10 12  2  0
  9 13  2  0
 13 14  1  0
 14 15  2  0
 15 16  1  0
 16 17  2  0
 17 18  1  0
 18 19  1  0
 19 20  1  0
 20 21  1  0
 21 22  1  0
 22 23  1  0
 17 24  1  0
 24 25  2  0
 25  8  1  0
 25 14  1  0
 23 18  1  0
  1 26  1  0
  1 27  1  0
  1 28  1  0
  3 29  1  0
  3 30  1  0
  4 31  1  0
  4 32  1  0
 11 33  1  0
 11 34  1  0
 13 35  1  0
 15 36  1  0
 16 37  1  0
 19 38  1  0
 19 39  1  0
 20 40  1  0
 20 41  1  0
 22 42  1  0
 22 43  1  0
 23 44  1  0
 23 45  1  0
 24 46  1  0
M  END
>  <UniqueID>  (53) 
52

>  <SMILES>  (53) 
COCCOC(=O)n1c(C(N)=O)cc2ccc(N3CCOCC3)cc21

>  <Energy>  (53) 
92.20030939437129

>  <Genealogy>  (53) 
COCCOC(=O)n1c(C(N)=O)cc2ccc(N3CCOCC3)cc21 (3D coordinates assigned)
COCCOC(=O)n1c(C(N)=O)cc2ccc(N3CCOCC3)cc21 (nonaromatic ring conformer: 92.20030939437129 kcal/mol)

>  <smiles>  (53) 
COCCOC(=O)n1c(C(N)=O)cc2ccc(N3CCOCC3)cc21

>  <score_type>  (53) 
oracle

>  <origin>  (53) 
adg

>  <m_score__min__energy>  (53) 
-9.4199999999999999

>  <m_primary>  (53) 
energy

$$$$
53:0
     RDKit          3D

 44 45  0  0  0  0  0  0  0  0999 V2000
   -3.4560   23.4580  -27.4960 C   0  0  0  0  0  0  0  0  0  0  0  0
   -1.9880   23.8750  -27.3080 C   0  0  0  0  0  0  0  0  0  0  0  0
   -1.1940   22.7020  -26.6990 C   0  0  0  0  0  0  0  0  0  0  0  0
   -1.9180   25.0780  -26.3430 C   0  0  0  0  0  0  0  0  0  0  0  0
   -1.4050   24.2280  -28.6630 C   0  0  0  0  0  0  0  0  0  0  0  0
   -1.5190   25.3960  -29.1280 O   0  0  0  0  0  0  0  0  0  0  0  0
   -0.7910   23.2290  -29.4260 O   0  0  0  0  0  0  0  0  0  0  0  0
   -1.5270   22.2730  -30.1790 C   0  0  0  0  0  0  0  0  0  0  0  0
   -2.8590   22.7410  -30.3430 O   0  0  0  0  0  0  0  0  0  0  0  0
   -3.5950   22.5360  -31.5140 C   0  0  0  0  0  0  0  0  0  0  0  0
   -3.0070   22.2270  -32.5860 O   0  0  0  0  0  0  0  0  0  0  0  0
   -5.0250   22.6810  -31.4910 N   0  0  0  0  0  0  0  0  0  0  0  0
   -5.7370   23.7420  -31.0190 C   0  0  0  0  0  0  0  0  0  0  0  0
   -5.1740   25.0380  -30.5870 C   0  0  0  0  0  0  0  0  0  0  0  0
   -3.8490   25.1330  -30.0640 N   0  0  0  0  0  0  0  0  0  0  0  0
   -5.8560   26.0880  -30.7350 O   0  0  0  0  0  0  0  0  0  0  0  0
   -7.1010   23.4680  -31.0360 C   0  0  0  0  0  0  0  0  0  0  0  0
   -7.2090   22.1980  -31.5520 C   0  0  0  0  0  0  0  0  0  0  0  0
   -8.3380   21.4140  -31.7660 C   0  0  0  0  0  0  0  0  0  0  0  0
   -8.1550   20.1160  -32.2670 C   0  0  0  0  0  0  0  0  0  0  0  0
   -6.8540   19.6250  -32.5540 C   0  0  0  0  0  0  0  0  0  0  0  0
   -6.6650   18.2070  -33.0310 C   0  0  0  0  0  0  0  0  0  0  0  0
   -6.4830   18.2100  -34.4020 F   0  0  0  0  0  0  0  0  0  0  0  0
   -5.5590   17.6310  -32.4300 F   0  0  0  0  0  0  0  0  0  0  0  0
   -7.7730   17.4380  -32.7250 F   0  0  0  0  0  0  0  0  0  0  0  0
   -5.7290   20.4430  -32.2970 C   0  0  0  0  0  0  0  0  0  0  0  0
   -5.9430   21.7420  -31.8180 C   0  0  0  0  0  0  0  0  0  0  0  0
   -3.9280   23.3239  -26.5115 H   0  0  0  0  0  0  0  0  0  0  0  0
   -3.9905   24.2398  -28.0555 H   0  0  0  0  0  0  0  0  0  0  0  0
   -3.4997   22.5119  -28.0555 H   0  0  0  0  0  0  0  0  0  0  0  0
   -1.2348   22.7623  -25.6014 H   0  0  0  0  0  0  0  0  0  0  0  0
   -1.6341   21.7500  -27.0306 H   0  0  0  0  0  0  0  0  0  0  0  0
   -0.1466   22.7569  -27.0306 H   0  0  0  0  0  0  0  0  0  0  0  0
   -1.9390   24.7165  -25.3043 H   0  0  0  0  0  0  0  0  0  0  0  0
   -0.9859   25.6351  -26.5186 H   0  0  0  0  0  0  0  0  0  0  0  0
   -2.7792   25.7395  -26.5186 H   0  0  0  0  0  0  0  0  0  0  0  0
   -1.0585   22.1402  -31.1653 H   0  0  0  0  0  0  0  0  0  0  0  0
   -1.5339   21.3083  -29.6504 H   0  0  0  0  0  0  0  0  0  0  0  0
   -3.2020   24.3140  -30.0820 H   0  0  0  0  0  0  0  0  0  0  0  0
   -3.4850   26.0500  -29.7230 H   0  0  0  0  0  0  0  0  0  0  0  0
   -7.9183   24.1266  -30.7070 H   0  0  0  0  0  0  0  0  0  0  0  0
   -9.3448   21.8002  -31.5489 H   0  0  0  0  0  0  0  0  0  0  0  0
   -9.0296   19.4715  -32.4394 H   0  0  0  0  0  0  0  0  0  0  0  0
   -4.7094   20.0678  -32.4693 H   0  0  0  0  0  0  0  0  0  0  0  0
  1  2  1  0
  2  3  1  0
  2  4  1  0
  2  5  1  0
  5  6  2  0
  5  7  1  0
  7  8  1  0
  8  9  1  0
  9 10  1  0
 10 11  2  0
 10 12  1  0
 12 13  1  0
 13 14  1  0
 14 15  1  0
 14 16  2  0
 13 17  2  0
 17 18  1  0
 18 19  2  0
 19 20  1  0
 20 21  2  0
 21 22  1  0
 22 23  1  0
 22 24  1  0
 22 25  1  0
 21 26  1  0
 26 27  2  0
 27 12  1  0
 27 18  1  0
  1 28  1  0
  1 29  1  0
  1 30  1  0
  3 31  1  0
  3 32  1  0
  3 33  1  0
  4 34  1  0
  4 35  1  0
  4 36  1  0
  8 37  1  0
  8 38  1  0
 15 39  1  0
 15 40  1  0
 17 41  1  0
 19 42  1  0
 20 43  1  0
 26 44  1  0
M  END
>  <UniqueID>  (54) 
53

>  <SMILES>  (54) 
CC(C)(C)C(=O)OCOC(=O)n1c(C(N)=O)cc2ccc(C(F)(F)F)cc21

>  <Energy>  (54) 
75.69557521183442

>  <Genealogy>  (54) 
CC(C)(C)C(=O)OCOC(=O)n1c(C(N)=O)cc2ccc(C(F)(F)F)cc21 (3D coordinates assigned)
CC(C)(C)C(=O)OCOC(=O)n1c(C(N)=O)cc2ccc(C(F)(F)F)cc21 (optimized conformer: 75.69557521183442 kcal/mol)

>  <smiles>  (54) 
CC(C)(C)C(=O)OCOC(=O)n1c(C(N)=O)cc2ccc(C(F)(F)F)cc21

>  <score_type>  (54) 
oracle

>  <origin>  (54) 
adg

>  <m_score__min__energy>  (54) 
-8.3300000000000001

>  <m_primary>  (54) 
energy

$$$$
54:0
     RDKit          3D

 95102  0  0  0  0  0  0  0  0999 V2000
  -11.6940   21.1330  -26.0310 C   0  0  0  0  0  0  0  0  0  0  0  0
  -10.3470   21.4420  -25.5380 N   0  0  0  0  0  0  0  0  0  0  0  0
   -9.2950   20.4750  -25.7290 C   0  0  0  0  0  0  0  0  0  0  0  0
   -9.5560   19.3010  -26.1080 O   0  0  0  0  0  0  0  0  0  0  0  0
   -7.9670   20.8330  -25.5200 O   0  0  0  0  0  0  0  0  0  0  0  0
  -10.1420   22.6230  -24.7350 C   0  0  0  0  0  0  0  0  0  0  0  0
   -9.8710   22.5070  -23.5080 O   0  0  0  0  0  0  0  0  0  0  0  0
  -10.2240   23.9380  -25.3130 N   0  0  0  0  0  0  0  0  0  0  0  0
  -10.2660   25.1370  -24.6680 C   0  0  0  0  0  0  0  0  0  0  0  0
  -10.1150   25.3410  -23.2130 C   0  0  0  0  0  0  0  0  0  0  0  0
   -8.9110   24.9420  -22.5590 N   0  0  0  0  0  0  0  0  0  0  0  0
  -11.0480   25.8460  -22.5340 O   0  0  0  0  0  0  0  0  0  0  0  0
  -10.4100   26.1790  -25.5850 C   0  0  0  0  0  0  0  0  0  0  0  0
  -10.4450   25.5720  -26.8210 C   0  0  0  0  0  0  0  0  0  0  0  0
  -10.5860   26.1260  -28.0890 C   0  0  0  0  0  0  0  0  0  0  0  0
  -10.6060   25.2540  -29.1930 C   0  0  0  0  0  0  0  0  0  0  0  0
  -10.4900   23.8490  -29.0120 C   0  0  0  0  0  0  0  0  0  0  0  0
  -10.5060   22.9270  -30.1790 C   0  0  0  0  0  0  0  0  0  0  0  0
  -10.3490   21.5400  -29.9950 C   0  0  0  0  0  0  0  0  0  0  0  0
  -10.2880   20.6790  -31.0910 C   0  0  0  0  0  0  0  0  0  0  0  0
  -10.4020   21.1820  -32.3960 C   0  0  0  0  0  0  0  0  0  0  0  0
  -10.3030   20.2690  -33.5520 C   0  0  0  0  0  0  0  0  0  0  0  0
  -11.3120   20.0880  -34.2890 O   0  0  0  0  0  0  0  0  0  0  0  0
   -9.0780   19.5730  -33.8420 N   0  0  0  0  0  0  0  0  0  0  0  0
   -9.1330   18.2080  -34.3770 C   0  0  0  0  0  0  0  0  0  0  0  0
   -7.7210   17.6430  -34.5650 C   0  0  0  0  0  0  0  0  0  0  0  0
   -6.9140   17.9600  -33.3700 N   0  0  0  0  0  0  0  0  0  0  0  0
   -5.6530   17.1800  -33.2480 C   0  0  0  0  0  0  0  0  0  0  0  0
   -5.2930   16.8110  -31.7910 C   0  0  0  0  0  0  0  0  0  0  0  0
   -4.0230   15.9580  -31.7830 C   0  0  0  0  0  0  0  0  0  0  0  0
   -2.9250   16.6090  -32.5180 N   0  0  0  0  0  0  0  0  0  0  0  0
   -1.5800   16.1150  -32.3240 C   0  0  0  0  0  0  0  0  0  0  0  0
   -0.4610   16.8340  -32.8320 C   0  0  0  0  0  0  0  0  0  0  0  0
    0.8510   16.3970  -32.5820 C   0  0  0  0  0  0  0  0  0  0  0  0
    1.0270   15.2470  -31.8210 C   0  0  0  0  0  0  0  0  0  0  0  0
   -0.0440   14.5370  -31.3340 C   0  0  0  0  0  0  0  0  0  0  0  0
   -1.3570   14.9390  -31.5670 C   0  0  0  0  0  0  0  0  0  0  0  0
    0.4800   13.4160  -30.5630 C   0  0  0  0  0  0  0  0  0  0  0  0
   -0.2210   12.5440  -29.9870 O   0  0  0  0  0  0  0  0  0  0  0  0
    1.9140   13.4480  -30.5580 N   0  0  0  0  0  0  0  0  0  0  0  0
    2.8590   12.4100  -30.1240 C   0  0  2  0  0  0  0  0  0  0  0  0
    2.4350   11.8080  -28.7700 C   0  0  0  0  0  0  0  0  0  0  0  0
    2.6970   12.7530  -27.5930 C   0  0  0  0  0  0  0  0  0  0  0  0
    4.1190   13.2330  -27.5960 C   0  0  0  0  0  0  0  0  0  0  0  0
    4.6610   13.5980  -26.5210 O   0  0  0  0  0  0  0  0  0  0  0  0
    4.8460   13.3350  -28.8230 N   0  0  0  0  0  0  0  0  0  0  0  0
    4.2690   12.9410  -30.0700 C   0  0  0  0  0  0  0  0  0  0  0  0
    4.9320   13.0730  -31.1310 O   0  0  0  0  0  0  0  0  0  0  0  0
    2.2410   14.5810  -31.3680 C   0  0  0  0  0  0  0  0  0  0  0  0
    3.4180   14.9330  -31.6490 O   0  0  0  0  0  0  0  0  0  0  0  0
   -3.1550   17.8940  -33.2050 C   0  0  0  0  0  0  0  0  0  0  0  0
   -4.4860   17.8980  -33.9820 C   0  0  0  0  0  0  0  0  0  0  0  0
   -6.6870   19.4170  -33.1980 C   0  0  0  0  0  0  0  0  0  0  0  0
   -7.7950   20.2870  -33.8230 C   0  0  0  0  0  0  0  0  0  0  0  0
  -10.6060   22.5560  -32.5860 C   0  0  0  0  0  0  0  0  0  0  0  0
  -10.6450   23.4230  -31.4890 C   0  0  0  0  0  0  0  0  0  0  0  0
  -10.3460   23.3300  -27.7030 C   0  0  0  0  0  0  0  0  0  0  0  0
  -10.3230   24.2220  -26.6280 C   0  0  0  0  0  0  0  0  0  0  0  0
  -12.3702   20.9779  -25.1774 H   0  0  0  0  0  0  0  0  0  0  0  0
  -12.0616   21.9701  -26.6426 H   0  0  0  0  0  0  0  0  0  0  0  0
  -11.6600   20.2193  -26.6426 H   0  0  0  0  0  0  0  0  0  0  0  0
   -8.0910   24.5950  -23.1060 H   0  0  0  0  0  0  0  0  0  0  0  0
  -10.4805   27.2549  -25.3673 H   0  0  0  0  0  0  0  0  0  0  0  0
  -10.6791   27.2136  -28.2247 H   0  0  0  0  0  0  0  0  0  0  0  0
  -10.7126   25.6644  -30.2080 H   0  0  0  0  0  0  0  0  0  0  0  0
  -10.2737   21.1310  -28.9766 H   0  0  0  0  0  0  0  0  0  0  0  0
  -10.1497   19.5995  -30.9312 H   0  0  0  0  0  0  0  0  0  0  0  0
   -9.6879   17.5674  -33.6758 H   0  0  0  0  0  0  0  0  0  0  0  0
   -9.6379   18.2310  -35.3540 H   0  0  0  0  0  0  0  0  0  0  0  0
   -7.7745   16.5520  -34.6952 H   0  0  0  0  0  0  0  0  0  0  0  0
   -7.2571   18.0904  -35.4564 H   0  0  0  0  0  0  0  0  0  0  0  0
   -5.8285   16.2165  -33.7488 H   0  0  0  0  0  0  0  0  0  0  0  0
   -5.1218   17.7299  -31.2111 H   0  0  0  0  0  0  0  0  0  0  0  0
   -6.1203   16.2433  -31.3401 H   0  0  0  0  0  0  0  0  0  0  0  0
   -3.7084   15.7968  -30.7414 H   0  0  0  0  0  0  0  0  0  0  0  0
   -4.2485   15.0024  -32.2790 H   0  0  0  0  0  0  0  0  0  0  0  0
   -0.6257   17.7437  -33.4281 H   0  0  0  0  0  0  0  0  0  0  0  0
    1.7155   16.9501  -32.9779 H   0  0  0  0  0  0  0  0  0  0  0  0
   -2.2020   14.3561  -31.1718 H   0  0  0  0  0  0  0  0  0  0  0  0
    2.8385   11.6032  -30.8714 H   0  0  0  0  0  0  0  0  0  0  0  0
    1.3590   11.5824  -28.8070 H   0  0  0  0  0  0  0  0  0  0  0  0
    3.0362   10.9013  -28.6074 H   0  0  0  0  0  0  0  0  0  0  0  0
    2.0244   13.6199  -27.6709 H   0  0  0  0  0  0  0  0  0  0  0  0
    2.5133   12.2062  -26.6564 H   0  0  0  0  0  0  0  0  0  0  0  0
   -3.1778   18.6991  -32.4558 H   0  0  0  0  0  0  0  0  0  0  0  0
   -2.3382   18.0472  -33.9257 H   0  0  0  0  0  0  0  0  0  0  0  0
   -4.7799   18.9433  -34.1578 H   0  0  0  0  0  0  0  0  0  0  0  0
   -4.3096   17.3429  -34.9151 H   0  0  0  0  0  0  0  0  0  0  0  0
   -6.6363   19.6373  -32.1215 H   0  0  0  0  0  0  0  0  0  0  0  0
   -5.7491   19.6631  -33.7174 H   0  0  0  0  0  0  0  0  0  0  0  0
   -7.9050   21.2083  -33.2322 H   0  0  0  0  0  0  0  0  0  0  0  0
   -7.5112   20.5245  -34.8589 H   0  0  0  0  0  0  0  0  0  0  0  0
  -10.7361   22.9543  -33.6031 H   0  0  0  0  0  0  0  0  0  0  0  0
  -10.7855   24.5018  -31.6514 H   0  0  0  0  0  0  0  0  0  0  0  0
  -10.2541   22.2467  -27.5356 H   0  0  0  0  0  0  0  0  0  0  0  0
  1  2  1  0
  2  3  1  0
  3  4  2  0
  3  5  1  0
  2  6  1  0
  6  7  2  0
  6  8  1  0
  8  9  1  0
  9 10  1  0
 10 11  1  0
 10 12  2  0
  9 13  2  0
 13 14  1  0
 14 15  2  0
 15 16  1  0
 16 17  2  0
 17 18  1  0
 18 19  2  0
 19 20  1  0
 20 21  2  0
 21 22  1  0
 22 23  2  0
 22 24  1  0
 24 25  1  0
 25 26  1  0
 26 27  1  0
 27 28  1  0
 28 29  1  0
 29 30  1  0
 30 31  1  0
 31 32  1  0
 32 33  2  0
 33 34  1  0
 34 35  2  0
 35 36  1  0
 36 37  2  0
 36 38  1  0
 38 39  2  0
 38 40  1  0
 40 41  1  0
 41 42  1  0
 42 43  1  0
 43 44  1  0
 44 45  2  0
 44 46  1  0
 46 47  1  0
 47 48  2  0
 40 49  1  0
 49 50  2  0
 31 51  1  0
 51 52  1  0
 27 53  1  0
 53 54  1  0
 21 55  1  0
 55 56  2  0
 17 57  1  0
 57 58  2  0
 58  8  1  0
 58 14  1  0
 56 18  1  0
 54 24  1  0
 52 28  1  0
 37 32  1  0
 47 41  1  0
 49 35  1  0
  1 59  1  0
  1 60  1  0
  1 61  1  0
 11 62  1  0
 13 63  1  0
 15 64  1  0
 16 65  1  0
 19 66  1  0
 20 67  1  0
 25 68  1  0
 25 69  1  0
 26 70  1  0
 26 71  1  0
 28 72  1  0
 29 73  1  0
 29 74  1  0
 30 75  1  0
 30 76  1  0
 33 77  1  0
 34 78  1  0
 37 79  1  0
 41 80  1  6
 42 81  1  0
 42 82  1  0
 43 83  1  0
 43 84  1  0
 51 85  1  0
 51 86  1  0
 52 87  1  0
 52 88  1  0
 53 89  1  0
 53 90  1  0
 54 91  1  0
 54 92  1  0
 55 93  1  0
 56 94  1  0
 57 95  1  0
M  CHG  3   5  -1  11  -1  46  -1
M  END
>  <UniqueID>  (55) 
54

>  <SMILES>  (55) 
CN(C(=O)[O-])C(=O)n1c(C([NH-])=O)cc2ccc(-c3ccc(C(=O)N4CCN(C5CCN(c6ccc7c(c6)C(=O)N([C@@H]6CCC(=O)[N-]C6=O)C7=O)CC5)CC4)cc3)cc21

>  <Energy>  (55) 
201.87071099001545

>  <Genealogy>  (55) 
CN(C(=O)[O-])C(=O)n1c(C([NH-])=O)cc2ccc(-c3ccc(C(=O)N4CCN(C5CCN(c6ccc7c(c6)C(=O)N(C6CCC(=O)[N-]C6=O)C7=O)CC5)CC4)cc3)cc21 (protonated)
CN(C(=O)[O-])C(=O)n1c(C([NH-])=O)cc2ccc(-c3ccc(C(=O)N4CCN(C5CCN(c6ccc7c(c6)C(=O)N([C@@H]6CCC(=O)[N-]C6=O)C7=O)CC5)CC4)cc3)cc21 (chirality)
CN(C(=O)[O-])C(=O)n1c(C([NH-])=O)cc2ccc(-c3ccc(C(=O)N4CCN(C5CCN(c6ccc7c(c6)C(=O)N([C@@H]6CCC(=O)[N-]C6=O)C7=O)CC5)CC4)cc3)cc21 (3D coordinates assigned)
CN(C(=O)[O-])C(=O)n1c(C([NH-])=O)cc2ccc(-c3ccc(C(=O)N4CCN(C5CCN(c6ccc7c(c6)C(=O)N([C@@H]6CCC(=O)[N-]C6=O)C7=O)CC5)CC4)cc3)cc21 (nonaromatic ring conformer: 201.87071099001545 kcal/mol)

>  <smiles>  (55) 
CN(C(=O)O)C(=O)n1c(C(N)=O)cc2ccc(-c3ccc(C(=O)N4CCN(C5CCN(c6ccc7c(c6)C(=O)N(C6CCC(=O)NC6=O)C7=O)CC5)CC4)cc3)cc21

>  <score_type>  (55) 
oracle

>  <origin>  (55) 
adg

>  <m_score__min__energy>  (55) 
2786.7600000000002

>  <m_primary>  (55) 
energy

$$$$
55:0
     RDKit          3D

 41 42  0  0  0  0  0  0  0  0999 V2000
   -8.2490   18.6270  -32.1260 C   0  0  0  0  0  0  0  0  0  0  0  0
   -8.0640   20.1020  -31.9320 C   0  0  0  0  0  0  0  0  0  0  0  0
   -9.1540   20.9900  -32.1210 C   0  0  0  0  0  0  0  0  0  0  0  0
   -8.9970   22.3720  -31.9140 C   0  0  0  0  0  0  0  0  0  0  0  0
   -7.7480   22.8310  -31.5020 C   0  0  0  0  0  0  0  0  0  0  0  0
   -7.3110   24.1130  -31.2430 C   0  0  0  0  0  0  0  0  0  0  0  0
   -5.9710   23.9800  -30.8730 C   0  0  0  0  0  0  0  0  0  0  0  0
   -5.0890   25.0990  -30.4660 C   0  0  0  0  0  0  0  0  0  0  0  0
   -3.7270   24.8680  -30.0980 N   0  0  0  0  0  0  0  0  0  0  0  0
   -5.5330   26.2770  -30.4510 O   0  0  0  0  0  0  0  0  0  0  0  0
   -5.6070   22.6670  -30.8920 N   0  0  0  0  0  0  0  0  0  0  0  0
   -4.3090   22.1130  -30.6350 C   0  0  0  0  0  0  0  0  0  0  0  0
   -3.8980   22.0380  -29.4440 O   0  0  0  0  0  0  0  0  0  0  0  0
   -3.4760   21.6580  -31.7190 N   0  0  0  0  0  0  0  0  0  0  0  0
   -3.8670   21.9470  -33.1020 C   0  0  0  0  0  0  0  0  0  0  0  0
   -2.2590   20.8870  -31.4360 C   0  0  0  0  0  0  0  0  0  0  0  0
   -1.1350   21.8190  -31.1170 C   0  0  0  0  0  0  0  0  0  0  0  0
    0.0470   21.5060  -31.4220 O   0  0  0  0  0  0  0  0  0  0  0  0
   -1.4090   23.0120  -30.4380 O   0  0  0  0  0  0  0  0  0  0  0  0
   -1.1020   23.2160  -29.0610 C   0  0  0  0  0  0  0  0  0  0  0  0
   -0.7420   24.6460  -28.8140 C   0  0  0  0  0  0  0  0  0  0  0  0
    0.3060   24.9370  -28.1790 O   0  0  0  0  0  0  0  0  0  0  0  0
   -1.5560   25.6600  -29.3000 O   0  0  0  0  0  0  0  0  0  0  0  0
   -6.6970   21.9810  -31.2880 C   0  0  0  0  0  0  0  0  0  0  0  0
   -6.8180   20.6040  -31.5020 C   0  0  0  0  0  0  0  0  0  0  0  0
   -8.3109   18.1331  -31.1451 H   0  0  0  0  0  0  0  0  0  0  0  0
   -9.1771   18.4446  -32.6876 H   0  0  0  0  0  0  0  0  0  0  0  0
   -7.3947   18.2211  -32.6876 H   0  0  0  0  0  0  0  0  0  0  0  0
  -10.1317   20.5936  -32.4325 H   0  0  0  0  0  0  0  0  0  0  0  0
   -9.8337   23.0683  -32.0723 H   0  0  0  0  0  0  0  0  0  0  0  0
   -7.8942   25.0431  -31.3130 H   0  0  0  0  0  0  0  0  0  0  0  0
   -3.3310   23.9060  -30.0350 H   0  0  0  0  0  0  0  0  0  0  0  0
   -3.1120   25.6730  -29.8460 H   0  0  0  0  0  0  0  0  0  0  0  0
   -4.7516   22.6008  -33.1039 H   0  0  0  0  0  0  0  0  0  0  0  0
   -3.0375   22.4508  -33.6199 H   0  0  0  0  0  0  0  0  0  0  0  0
   -4.1052   21.0062  -33.6199 H   0  0  0  0  0  0  0  0  0  0  0  0
   -2.4382   20.2229  -30.5776 H   0  0  0  0  0  0  0  0  0  0  0  0
   -1.9948   20.2863  -32.3188 H   0  0  0  0  0  0  0  0  0  0  0  0
   -1.9787   22.9523  -28.4512 H   0  0  0  0  0  0  0  0  0  0  0  0
   -0.2469   22.5803  -28.7879 H   0  0  0  0  0  0  0  0  0  0  0  0
   -5.9638   19.9303  -31.3392 H   0  0  0  0  0  0  0  0  0  0  0  0
  1  2  1  0
  2  3  2  0
  3  4  1  0
  4  5  2  0
  5  6  1  0
  6  7  2  0
  7  8  1  0
  8  9  1  0
  8 10  2  0
  7 11  1  0
 11 12  1  0
 12 13  2  0
 12 14  1  0
 14 15  1  0
 14 16  1  0
 16 17  1  0
 17 18  2  0
 17 19  1  0
 19 20  1  0
 20 21  1  0
 21 22  2  0
 21 23  1  0
 11 24  1  0
 24 25  2  0
 25  2  1  0
 24  5  1  0
  1 26  1  0
  1 27  1  0
  1 28  1  0
  3 29  1  0
  4 30  1  0
  6 31  1  0
  9 32  1  0
  9 33  1  0
 15 34  1  0
 15 35  1  0
 15 36  1  0
 16 37  1  0
 16 38  1  0
 20 39  1  0
 20 40  1  0
 25 41  1  0
M  CHG  1  23  -1
M  END
>  <UniqueID>  (56) 
55

>  <SMILES>  (56) 
Cc1ccc2cc(C(N)=O)n(C(=O)N(C)CC(=O)OCC(=O)[O-])c2c1

>  <Energy>  (56) 
72.88115914457094

>  <Genealogy>  (56) 
Cc1ccc2cc(C(N)=O)n(C(=O)N(C)CC(=O)OCC(=O)[O-])c2c1 (protonated)
Cc1ccc2cc(C(N)=O)n(C(=O)N(C)CC(=O)OCC(=O)[O-])c2c1 (3D coordinates assigned)
Cc1ccc2cc(C(N)=O)n(C(=O)N(C)CC(=O)OCC(=O)[O-])c2c1 (optimized conformer: 72.88115914457094 kcal/mol)

>  <smiles>  (56) 
Cc1ccc2cc(C(N)=O)n(C(=O)N(C)CC(=O)OCC(=O)O)c2c1

>  <score_type>  (56) 
oracle

>  <origin>  (56) 
adg

>  <m_score__min__energy>  (56) 
-10.51

>  <m_primary>  (56) 
energy

$$$$
56:0
     RDKit          3D

 36 38  0  0  0  0  0  0  0  0999 V2000
   -1.7800   20.7050  -33.8220 C   0  0  0  0  0  0  0  0  0  0  0  0
   -3.1580   20.2290  -33.4770 C   0  0  0  0  0  0  0  0  0  0  0  0
   -3.4700   18.8480  -33.5420 C   0  0  0  0  0  0  0  0  0  0  0  0
   -4.7680   18.3920  -33.2470 C   0  0  0  0  0  0  0  0  0  0  0  0
   -5.7310   19.3400  -32.9130 C   0  0  0  0  0  0  0  0  0  0  0  0
   -7.0540   19.1790  -32.5660 C   0  0  0  0  0  0  0  0  0  0  0  0
   -7.5350   20.4670  -32.3290 C   0  0  0  0  0  0  0  0  0  0  0  0
   -8.9370   20.7900  -31.9740 C   0  0  0  0  0  0  0  0  0  0  0  0
   -9.2870   22.0720  -31.4510 N   0  0  0  0  0  0  0  0  0  0  0  0
   -9.8390   19.9220  -32.1200 O   0  0  0  0  0  0  0  0  0  0  0  0
   -6.5480   21.3830  -32.5320 N   0  0  0  0  0  0  0  0  0  0  0  0
   -6.6220   22.8050  -32.3480 C   0  0  0  0  0  0  0  0  0  0  0  0
   -7.3970   23.4790  -33.0790 O   0  0  0  0  0  0  0  0  0  0  0  0
   -5.8210   23.4630  -31.3460 N   0  0  0  0  0  0  0  0  0  0  0  0
   -6.3280   24.6730  -30.6810 C   0  0  0  0  0  0  0  0  0  0  0  0
   -5.2100   25.6400  -30.4310 C   0  0  0  0  0  0  0  0  0  0  0  0
   -5.4630   26.8590  -30.2440 O   0  0  0  0  0  0  0  0  0  0  0  0
   -3.8610   25.1790  -30.3490 N   0  0  0  0  0  0  0  0  0  0  0  0
   -3.5410   23.8020  -30.5430 C   0  0  0  0  0  0  0  0  0  0  0  0
   -2.3440   23.4220  -30.4510 O   0  0  0  0  0  0  0  0  0  0  0  0
   -4.6260   22.7990  -30.8040 C   0  0  0  0  0  0  0  0  0  0  0  0
   -5.4500   20.6800  -32.8790 C   0  0  0  0  0  0  0  0  0  0  0  0
   -4.1660   21.1620  -33.1480 C   0  0  0  0  0  0  0  0  0  0  0  0
   -1.2170   20.8995  -32.8972 H   0  0  0  0  0  0  0  0  0  0  0  0
   -1.2624   19.9336  -34.4110 H   0  0  0  0  0  0  0  0  0  0  0  0
   -1.8488   21.6314  -34.4110 H   0  0  0  0  0  0  0  0  0  0  0  0
   -2.6902   18.1260  -33.8257 H   0  0  0  0  0  0  0  0  0  0  0  0
   -5.0140   17.3203  -33.2793 H   0  0  0  0  0  0  0  0  0  0  0  0
   -7.6132   18.2347  -32.4915 H   0  0  0  0  0  0  0  0  0  0  0  0
   -8.5870   22.8420  -31.3750 H   0  0  0  0  0  0  0  0  0  0  0  0
  -10.2730   22.2710  -31.1730 H   0  0  0  0  0  0  0  0  0  0  0  0
   -7.0829   25.1501  -31.3232 H   0  0  0  0  0  0  0  0  0  0  0  0
   -6.7761   24.3891  -29.7173 H   0  0  0  0  0  0  0  0  0  0  0  0
   -4.2647   22.0552  -31.5294 H   0  0  0  0  0  0  0  0  0  0  0  0
   -4.8911   22.3067  -29.8567 H   0  0  0  0  0  0  0  0  0  0  0  0
   -3.9464   22.2390  -33.1046 H   0  0  0  0  0  0  0  0  0  0  0  0
  1  2  1  0
  2  3  2  0
  3  4  1  0
  4  5  2  0
  5  6  1  0
  6  7  2  0
  7  8  1  0
  8  9  1  0
  8 10  2  0
  7 11  1  0
 11 12  1  0
 12 13  2  0
 12 14  1  0
 14 15  1  0
 15 16  1  0
 16 17  2  0
 16 18  1  0
 18 19  1  0
 19 20  2  0
 19 21  1  0
 11 22  1  0
 22 23  2  0
 23  2  1  0
 22  5  1  0
 21 14  1  0
  1 24  1  0
  1 25  1  0
  1 26  1  0
  3 27  1  0
  4 28  1  0
  6 29  1  0
  9 30  1  0
  9 31  1  0
 15 32  1  0
 15 33  1  0
 21 34  1  0
 21 35  1  0
 23 36  1  0
M  CHG  1  18  -1
M  END
>  <UniqueID>  (57) 
56

>  <SMILES>  (57) 
Cc1ccc2cc(C(N)=O)n(C(=O)N3CC(=O)[N-]C(=O)C3)c2c1

>  <Energy>  (57) 
76.42602772025346

>  <Genealogy>  (57) 
Cc1ccc2cc(C(N)=O)n(C(=O)N3CC(=O)[N-]C(=O)C3)c2c1 (protonated)
Cc1ccc2cc(C(N)=O)n(C(=O)N3CC(=O)[N-]C(=O)C3)c2c1 (3D coordinates assigned)
Cc1ccc2cc(C(N)=O)n(C(=O)N3CC(=O)[N-]C(=O)C3)c2c1 (nonaromatic ring conformer: 76.42602772025346 kcal/mol)

>  <smiles>  (57) 
Cc1ccc2cc(C(N)=O)n(C(=O)N3CC(=O)NC(=O)C3)c2c1

>  <score_type>  (57) 
oracle

>  <origin>  (57) 
adg

>  <m_score__min__energy>  (57) 
-9.4900000000000002

>  <m_primary>  (57) 
energy

$$$$
57:0
     RDKit          3D

 30 31  0  0  0  0  0  0  0  0999 V2000
   -5.7220   18.0180  -34.8680 N   0  0  0  0  0  0  0  0  0  0  0  0
   -6.2800   18.1110  -33.8590 C   0  0  0  0  0  0  0  0  0  0  0  0
   -6.9880   18.2290  -32.5800 C   0  0  0  0  0  0  0  0  0  0  0  0
   -7.1060   19.6760  -32.1910 C   0  0  0  0  0  0  0  0  0  0  0  0
   -8.3330   20.3620  -32.3720 C   0  0  0  0  0  0  0  0  0  0  0  0
   -8.4510   21.7190  -32.0270 C   0  0  0  0  0  0  0  0  0  0  0  0
   -7.3270   22.3640  -31.5220 C   0  0  0  0  0  0  0  0  0  0  0  0
   -7.1700   23.6610  -31.0890 C   0  0  0  0  0  0  0  0  0  0  0  0
   -5.8410   23.7580  -30.6840 C   0  0  0  0  0  0  0  0  0  0  0  0
   -5.2220   25.0170  -30.2230 C   0  0  0  0  0  0  0  0  0  0  0  0
   -4.0440   25.5270  -30.8440 N   0  0  0  0  0  0  0  0  0  0  0  0
   -5.7680   25.6800  -29.3000 O   0  0  0  0  0  0  0  0  0  0  0  0
   -5.2000   22.5650  -30.8520 N   0  0  0  0  0  0  0  0  0  0  0  0
   -3.8600   22.2290  -30.4640 C   0  0  0  0  0  0  0  0  0  0  0  0
   -3.5430   21.0200  -30.2940 O   0  0  0  0  0  0  0  0  0  0  0  0
   -2.9250   23.2520  -30.2570 O   0  0  0  0  0  0  0  0  0  0  0  0
   -2.1060   23.3790  -29.1260 C   0  0  0  0  0  0  0  0  0  0  0  0
   -2.1610   22.5440  -28.1830 O   0  0  0  0  0  0  0  0  0  0  0  0
   -1.1710   24.5040  -29.0410 C   0  0  0  0  0  0  0  0  0  0  0  0
   -1.5600   25.6710  -29.3050 O   0  0  0  0  0  0  0  0  0  0  0  0
    0.1510   24.2870  -28.6700 O   0  0  0  0  0  0  0  0  0  0  0  0
   -6.1240   21.7230  -31.3680 C   0  0  0  0  0  0  0  0  0  0  0  0
   -5.9830   20.3660  -31.6850 C   0  0  0  0  0  0  0  0  0  0  0  0
   -7.9939   17.7949  -32.6787 H   0  0  0  0  0  0  0  0  0  0  0  0
   -6.4246   17.6906  -31.8037 H   0  0  0  0  0  0  0  0  0  0  0  0
   -9.2005   19.8274  -32.7862 H   0  0  0  0  0  0  0  0  0  0  0  0
   -9.4034   22.2549  -32.1525 H   0  0  0  0  0  0  0  0  0  0  0  0
   -7.9328   24.4533  -31.0674 H   0  0  0  0  0  0  0  0  0  0  0  0
   -3.0960   25.2720  -30.4880 H   0  0  0  0  0  0  0  0  0  0  0  0
   -5.0215   19.8508  -31.5433 H   0  0  0  0  0  0  0  0  0  0  0  0
  1  2  3  0
  2  3  1  0
  3  4  1  0
  4  5  2  0
  5  6  1  0
  6  7  2  0
  7  8  1  0
  8  9  2  0
  9 10  1  0
 10 11  1  0
 10 12  2  0
  9 13  1  0
 13 14  1  0
 14 15  2  0
 14 16  1  0
 16 17  1  0
 17 18  2  0
 17 19  1  0
 19 20  2  0
 19 21  1  0
 13 22  1  0
 22 23  2  0
 23  4  1  0
 22  7  1  0
  3 24  1  0
  3 25  1  0
  5 26  1  0
  6 27  1  0
  8 28  1  0
 11 29  1  0
 23 30  1  0
M  CHG  2  11  -1  21  -1
M  END
>  <UniqueID>  (58) 
57

>  <SMILES>  (58) 
N#CCc1ccc2cc(C([NH-])=O)n(C(=O)OC(=O)C(=O)[O-])c2c1

>  <Energy>  (58) 
67.45998948010065

>  <Genealogy>  (58) 
N#CCc1ccc2cc(C([NH-])=O)n(C(=O)OC(=O)C(=O)[O-])c2c1 (protonated)
N#CCc1ccc2cc(C([NH-])=O)n(C(=O)OC(=O)C(=O)[O-])c2c1 (3D coordinates assigned)
N#CCc1ccc2cc(C([NH-])=O)n(C(=O)OC(=O)C(=O)[O-])c2c1 (optimized conformer: 67.45998948010065 kcal/mol)

>  <smiles>  (58) 
N#CCc1ccc2cc(C(N)=O)n(C(=O)OC(=O)C(=O)O)c2c1

>  <score_type>  (58) 
oracle

>  <origin>  (58) 
adg

>  <m_score__min__energy>  (58) 
-12.41

>  <m_primary>  (58) 
energy

$$$$
58:0
     RDKit          3D

 47 48  0  0  0  0  0  0  0  0999 V2000
   -4.1180   16.4520  -34.6060 C   0  0  0  0  0  0  0  0  0  0  0  0
   -5.3850   16.9860  -34.9680 O   0  0  0  0  0  0  0  0  0  0  0  0
   -6.0580   17.9220  -34.1790 C   0  0  0  0  0  0  0  0  0  0  0  0
   -6.1690   19.1210  -34.5570 O   0  0  0  0  0  0  0  0  0  0  0  0
   -6.6220   17.5050  -32.8550 C   0  0  0  0  0  0  0  0  0  0  0  0
   -7.9960   18.1360  -32.6010 C   0  0  0  0  0  0  0  0  0  0  0  0
   -7.8780   19.5770  -32.1770 C   0  0  0  0  0  0  0  0  0  0  0  0
   -8.9740   20.4600  -32.3440 C   0  0  0  0  0  0  0  0  0  0  0  0
   -8.8570   21.8190  -32.0080 C   0  0  0  0  0  0  0  0  0  0  0  0
   -7.6360   22.2640  -31.5090 C   0  0  0  0  0  0  0  0  0  0  0  0
   -7.2400   23.5290  -31.1370 C   0  0  0  0  0  0  0  0  0  0  0  0
   -5.9120   23.3970  -30.7350 C   0  0  0  0  0  0  0  0  0  0  0  0
   -5.1060   24.5020  -30.1680 C   0  0  0  0  0  0  0  0  0  0  0  0
   -5.2880   24.9190  -28.8140 N   0  0  0  0  0  0  0  0  0  0  0  0
   -4.2270   25.0680  -30.8710 O   0  0  0  0  0  0  0  0  0  0  0  0
   -5.5050   22.1010  -30.8530 N   0  0  0  0  0  0  0  0  0  0  0  0
   -4.2010   21.5600  -30.5900 C   0  0  0  0  0  0  0  0  0  0  0  0
   -3.5370   21.9810  -29.6050 O   0  0  0  0  0  0  0  0  0  0  0  0
   -3.6790   20.5780  -31.4450 O   0  0  0  0  0  0  0  0  0  0  0  0
   -3.1260   20.7920  -32.7530 C   0  0  0  0  0  0  0  0  0  0  0  0
   -3.8640   21.9370  -33.4740 C   0  0  0  0  0  0  0  0  0  0  0  0
   -3.1860   19.4970  -33.5840 C   0  0  0  0  0  0  0  0  0  0  0  0
   -1.6550   21.1910  -32.5610 C   0  0  0  0  0  0  0  0  0  0  0  0
   -6.5710   21.4210  -31.3280 C   0  0  0  0  0  0  0  0  0  0  0  0
   -6.6540   20.0670  -31.6710 C   0  0  0  0  0  0  0  0  0  0  0  0
   -4.0346   16.4168  -33.5097 H   0  0  0  0  0  0  0  0  0  0  0  0
   -4.0184   15.4354  -35.0141 H   0  0  0  0  0  0  0  0  0  0  0  0
   -3.3208   17.0906  -35.0141 H   0  0  0  0  0  0  0  0  0  0  0  0
   -6.7241   16.4099  -32.8398 H   0  0  0  0  0  0  0  0  0  0  0  0
   -5.9359   17.8474  -32.0663 H   0  0  0  0  0  0  0  0  0  0  0  0
   -8.5886   18.0841  -33.5263 H   0  0  0  0  0  0  0  0  0  0  0  0
   -8.4843   17.5784  -31.7882 H   0  0  0  0  0  0  0  0  0  0  0  0
   -9.9259   20.0773  -32.7407 H   0  0  0  0  0  0  0  0  0  0  0  0
   -9.7036   22.5098  -32.1352 H   0  0  0  0  0  0  0  0  0  0  0  0
   -7.8435   24.4485  -31.1535 H   0  0  0  0  0  0  0  0  0  0  0  0
   -4.6850   25.6700  -28.4120 H   0  0  0  0  0  0  0  0  0  0  0  0
   -6.0460   24.5170  -28.2190 H   0  0  0  0  0  0  0  0  0  0  0  0
   -4.3024   22.6172  -32.7289 H   0  0  0  0  0  0  0  0  0  0  0  0
   -3.1532   22.4921  -34.1038 H   0  0  0  0  0  0  0  0  0  0  0  0
   -4.6631   21.5189  -34.1038 H   0  0  0  0  0  0  0  0  0  0  0  0
   -3.2262   18.6296  -32.9088 H   0  0  0  0  0  0  0  0  0  0  0  0
   -4.0845   19.5097  -34.2184 H   0  0  0  0  0  0  0  0  0  0  0  0
   -2.2902   19.4266  -34.2184 H   0  0  0  0  0  0  0  0  0  0  0  0
   -1.4290   21.2523  -31.4862 H   0  0  0  0  0  0  0  0  0  0  0  0
   -1.0062   20.4364  -33.0297 H   0  0  0  0  0  0  0  0  0  0  0  0
   -1.4765   22.1700  -33.0297 H   0  0  0  0  0  0  0  0  0  0  0  0
   -5.7872   19.4007  -31.5495 H   0  0  0  0  0  0  0  0  0  0  0  0
  1  2  1  0
  2  3  1  0
  3  4  2  0
  3  5  1  0
  5  6  1  0
  6  7  1  0
  7  8  2  0
  8  9  1  0
  9 10  2  0
 10 11  1  0
 11 12  2  0
 12 13  1  0
 13 14  1  0
 13 15  2  0
 12 16  1  0
 16 17  1  0
 17 18  2  0
 17 19  1  0
 19 20  1  0
 20 21  1  0
 20 22  1  0
 20 23  1  0
 16 24  1  0
 24 25  2  0
 25  7  1  0
 24 10  1  0
  1 26  1  0
  1 27  1  0
  1 28  1  0
  5 29  1  0
  5 30  1  0
  6 31  1  0
  6 32  1  0
  8 33  1  0
  9 34  1  0
 11 35  1  0
 14 36  1  0
 14 37  1  0
 21 38  1  0
 21 39  1  0
 21 40  1  0
 22 41  1  0
 22 42  1  0
 22 43  1  0
 23 44  1  0
 23 45  1  0
 23 46  1  0
 25 47  1  0
M  END
>  <UniqueID>  (59) 
58

>  <SMILES>  (59) 
COC(=O)CCc1ccc2cc(C(N)=O)n(C(=O)OC(C)(C)C)c2c1

>  <Energy>  (59) 
72.93725493854082

>  <Genealogy>  (59) 
COC(=O)CCc1ccc2cc(C(N)=O)n(C(=O)OC(C)(C)C)c2c1 (3D coordinates assigned)
COC(=O)CCc1ccc2cc(C(N)=O)n(C(=O)OC(C)(C)C)c2c1 (optimized conformer: 72.93725493854082 kcal/mol)

>  <smiles>  (59) 
COC(=O)CCc1ccc2cc(C(N)=O)n(C(=O)OC(C)(C)C)c2c1

>  <score_type>  (59) 
oracle

>  <origin>  (59) 
adg

>  <m_score__min__energy>  (59) 
-8.75

>  <m_primary>  (59) 
energy

$$$$
59:0
     RDKit          3D

 51 53  0  0  0  0  0  0  0  0999 V2000
   -0.6490   19.7040  -29.0840 C   0  0  0  0  0  0  0  0  0  0  0  0
   -1.4630   20.7630  -29.8530 C   0  0  0  0  0  0  0  0  0  0  0  0
   -2.8700   20.8760  -29.2420 C   0  0  0  0  0  0  0  0  0  0  0  0
   -0.7410   22.1230  -29.7370 C   0  0  0  0  0  0  0  0  0  0  0  0
   -1.5940   20.3470  -31.3040 C   0  0  0  0  0  0  0  0  0  0  0  0
   -1.5700   19.1260  -31.6260 O   0  0  0  0  0  0  0  0  0  0  0  0
   -1.6690   21.3300  -32.2990 O   0  0  0  0  0  0  0  0  0  0  0  0
   -2.5480   21.2380  -33.4160 C   0  0  0  0  0  0  0  0  0  0  0  0
   -3.7730   21.9140  -33.1340 O   0  0  0  0  0  0  0  0  0  0  0  0
   -3.9630   22.6820  -31.9800 C   0  0  0  0  0  0  0  0  0  0  0  0
   -2.9730   23.1780  -31.3750 O   0  0  0  0  0  0  0  0  0  0  0  0
   -5.2930   22.9440  -31.5070 N   0  0  0  0  0  0  0  0  0  0  0  0
   -5.7350   24.0340  -30.8190 C   0  0  0  0  0  0  0  0  0  0  0  0
   -4.9710   25.2740  -30.5830 C   0  0  0  0  0  0  0  0  0  0  0  0
   -3.6150   25.2250  -30.1490 N   0  0  0  0  0  0  0  0  0  0  0  0
   -5.5040   26.3910  -30.8180 O   0  0  0  0  0  0  0  0  0  0  0  0
   -7.0630   23.8670  -30.4340 C   0  0  0  0  0  0  0  0  0  0  0  0
   -7.4300   22.6320  -30.9190 C   0  0  0  0  0  0  0  0  0  0  0  0
   -8.6440   21.9580  -30.8260 C   0  0  0  0  0  0  0  0  0  0  0  0
   -8.7340   20.6820  -31.4050 C   0  0  0  0  0  0  0  0  0  0  0  0
   -7.6120   20.0980  -32.0440 C   0  0  0  0  0  0  0  0  0  0  0  0
   -7.7320   18.7480  -32.6920 C   0  0  0  0  0  0  0  0  0  0  0  0
   -6.4570   18.3770  -33.2990 N   0  0  0  0  0  0  0  0  0  0  0  0
   -5.4320   17.7580  -32.6810 C   0  0  0  0  0  0  0  0  0  0  0  0
   -4.4460   17.5080  -33.6160 C   0  0  0  0  0  0  0  0  0  0  0  0
   -4.9500   17.9990  -34.8070 C   0  0  0  0  0  0  0  0  0  0  0  0
   -6.1720   18.5140  -34.5820 N   0  0  0  0  0  0  0  0  0  0  0  0
   -6.4000   20.8170  -32.1300 C   0  0  0  0  0  0  0  0  0  0  0  0
   -6.3440   22.0940  -31.5620 C   0  0  0  0  0  0  0  0  0  0  0  0
   -0.7707   19.8623  -28.0023 H   0  0  0  0  0  0  0  0  0  0  0  0
   -1.0098   18.6996  -29.3504 H   0  0  0  0  0  0  0  0  0  0  0  0
    0.4144   19.7943  -29.3504 H   0  0  0  0  0  0  0  0  0  0  0  0
   -2.7948   20.8700  -28.1446 H   0  0  0  0  0  0  0  0  0  0  0  0
   -3.3388   21.8147  -29.5722 H   0  0  0  0  0  0  0  0  0  0  0  0
   -3.4826   20.0242  -29.5722 H   0  0  0  0  0  0  0  0  0  0  0  0
   -0.6061   22.3771  -28.6753 H   0  0  0  0  0  0  0  0  0  0  0  0
    0.2420   22.0592  -30.2265 H   0  0  0  0  0  0  0  0  0  0  0  0
   -1.3446   22.9015  -30.2265 H   0  0  0  0  0  0  0  0  0  0  0  0
   -2.0712   21.7000  -34.2930 H   0  0  0  0  0  0  0  0  0  0  0  0
   -2.7607   20.1782  -33.6200 H   0  0  0  0  0  0  0  0  0  0  0  0
   -2.8310   25.2900  -30.8350 H   0  0  0  0  0  0  0  0  0  0  0  0
   -7.6860   24.5718  -29.8638 H   0  0  0  0  0  0  0  0  0  0  0  0
   -9.5063   22.4108  -30.3148 H   0  0  0  0  0  0  0  0  0  0  0  0
   -9.6847   20.1303  -31.3622 H   0  0  0  0  0  0  0  0  0  0  0  0
   -8.0061   18.0011  -31.9324 H   0  0  0  0  0  0  0  0  0  0  0  0
   -8.5081   18.7860  -33.4706 H   0  0  0  0  0  0  0  0  0  0  0  0
   -5.3878   17.4962  -31.6135 H   0  0  0  0  0  0  0  0  0  0  0  0
   -3.4723   17.0240  -33.4496 H   0  0  0  0  0  0  0  0  0  0  0  0
   -4.4356   17.9726  -35.7790 H   0  0  0  0  0  0  0  0  0  0  0  0
   -6.8050   18.9390  -35.2970 H   0  0  0  0  0  0  0  0  0  0  0  0
   -5.5218   20.3838  -32.6311 H   0  0  0  0  0  0  0  0  0  0  0  0
  1  2  1  0
  2  3  1  0
  2  4  1  0
  2  5  1  0
  5  6  2  0
  5  7  1  0
  7  8  1  0
  8  9  1  0
  9 10  1  0
 10 11  2  0
 10 12  1  0
 12 13  1  0
 13 14  1  0
 14 15  1  0
 14 16  2  0
 13 17  2  0
 17 18  1  0
 18 19  2  0
 19 20  1  0
 20 21  2  0
 21 22  1  0
 22 23  1  0
 23 24  1  0
 24 25  2  0
 25 26  1  0
 26 27  2  0
 21 28  1  0
 28 29  2  0
 29 12  1  0
 29 18  1  0
 27 23  1  0
  1 30  1  0
  1 31  1  0
  1 32  1  0
  3 33  1  0
  3 34  1  0
  3 35  1  0
  4 36  1  0
  4 37  1  0
  4 38  1  0
  8 39  1  0
  8 40  1  0
 15 41  1  0
 17 42  1  0
 19 43  1  0
 20 44  1  0
 22 45  1  0
 22 46  1  0
 24 47  1  0
 25 48  1  0
 26 49  1  0
 27 50  1  0
 28 51  1  0
M  CHG  2  15  -1  27   1
M  END
>  <UniqueID>  (60) 
59

>  <SMILES>  (60) 
CC(C)(C)C(=O)OCOC(=O)n1c(C([NH-])=O)cc2ccc(Cn3ccc[nH+]3)cc21

>  <Energy>  (60) 
111.66526771792387

>  <Genealogy>  (60) 
CC(C)(C)C(=O)OCOC(=O)n1c(C([NH-])=O)cc2ccc(Cn3ccc[nH+]3)cc21 (protonated)
CC(C)(C)C(=O)OCOC(=O)n1c(C([NH-])=O)cc2ccc(Cn3ccc[nH+]3)cc21 (3D coordinates assigned)
CC(C)(C)C(=O)OCOC(=O)n1c(C([NH-])=O)cc2ccc(Cn3ccc[nH+]3)cc21 (optimized conformer: 111.66526771792387 kcal/mol)

>  <smiles>  (60) 
CC(C)(C)C(=O)OCOC(=O)n1c(C(N)=O)cc2ccc(Cn3cccn3)cc21

>  <score_type>  (60) 
oracle

>  <origin>  (60) 
adg

>  <m_score__min__energy>  (60) 
-11.640000000000001

>  <m_primary>  (60) 
energy

$$$$
61:0
     RDKit          3D

 51 53  0  0  0  0  0  0  0  0999 V2000
   -1.8870   17.3710  -33.1100 C   0  0  0  0  0  0  0  0  0  0  0  0
   -3.2940   17.4060  -32.9070 O   0  0  0  0  0  0  0  0  0  0  0  0
   -4.1130   18.3990  -33.4570 C   0  0  0  0  0  0  0  0  0  0  0  0
   -3.6200   19.2540  -34.2370 O   0  0  0  0  0  0  0  0  0  0  0  0
   -5.5130   18.4420  -33.1190 N   0  0  0  0  0  0  0  0  0  0  0  0
   -6.4190   17.4280  -33.2390 C   0  0  0  0  0  0  0  0  0  0  0  0
   -6.2100   16.1580  -33.9610 C   0  0  0  0  0  0  0  0  0  0  0  0
   -4.9260   15.8120  -34.4820 N   0  0  0  0  0  0  0  0  0  0  0  0
   -7.1990   15.4140  -34.2080 O   0  0  0  0  0  0  0  0  0  0  0  0
   -7.6400   17.7850  -32.6750 C   0  0  0  0  0  0  0  0  0  0  0  0
   -7.4670   19.0710  -32.2180 C   0  0  0  0  0  0  0  0  0  0  0  0
   -8.3720   19.9220  -31.5860 C   0  0  0  0  0  0  0  0  0  0  0  0
   -7.9310   21.2090  -31.2360 C   0  0  0  0  0  0  0  0  0  0  0  0
   -6.6050   21.6140  -31.5160 C   0  0  0  0  0  0  0  0  0  0  0  0
   -6.1860   22.9440  -31.2050 N   0  0  0  0  0  0  0  0  0  0  0  0
   -5.8060   24.1650  -31.9420 C   0  0  0  0  0  0  0  0  0  0  0  0
   -5.6630   25.0360  -30.7340 C   0  0  0  0  0  0  0  0  0  0  0  0
   -4.2810   25.4390  -30.4830 N   0  0  0  0  0  0  0  0  0  0  0  0
   -3.3030   24.5440  -29.9540 C   0  0  0  0  0  0  0  0  0  0  0  0
   -2.9250   24.6600  -28.7560 O   0  0  0  0  0  0  0  0  0  0  0  0
   -2.7790   23.5470  -30.7890 O   0  0  0  0  0  0  0  0  0  0  0  0
   -2.4690   22.1990  -30.4110 C   0  0  0  0  0  0  0  0  0  0  0  0
   -1.0420   22.2020  -29.8420 C   0  0  0  0  0  0  0  0  0  0  0  0
   -3.4390   21.7030  -29.3210 C   0  0  0  0  0  0  0  0  0  0  0  0
   -2.5120   21.2660  -31.6370 C   0  0  0  0  0  0  0  0  0  0  0  0
   -6.0320   23.7850  -30.0030 C   0  0  0  0  0  0  0  0  0  0  0  0
   -5.7080   20.7210  -32.1380 C   0  0  0  0  0  0  0  0  0  0  0  0
   -6.1770   19.4480  -32.4970 C   0  0  0  0  0  0  0  0  0  0  0  0
   -1.3762   17.3583  -32.1359 H   0  0  0  0  0  0  0  0  0  0  0  0
   -1.6205   16.4659  -33.6756 H   0  0  0  0  0  0  0  0  0  0  0  0
   -1.5759   18.2617  -33.6756 H   0  0  0  0  0  0  0  0  0  0  0  0
   -4.8070   14.9470  -35.0570 H   0  0  0  0  0  0  0  0  0  0  0  0
   -4.1230   16.4710  -34.4200 H   0  0  0  0  0  0  0  0  0  0  0  0
   -8.5496   17.1700  -32.6087 H   0  0  0  0  0  0  0  0  0  0  0  0
   -9.3997   19.5959  -31.3680 H   0  0  0  0  0  0  0  0  0  0  0  0
   -8.6219   21.9069  -30.7405 H   0  0  0  0  0  0  0  0  0  0  0  0
   -4.8636   24.0504  -32.4977 H   0  0  0  0  0  0  0  0  0  0  0  0
   -6.4904   24.5090  -32.7315 H   0  0  0  0  0  0  0  0  0  0  0  0
   -6.1732   26.0026  -30.6099 H   0  0  0  0  0  0  0  0  0  0  0  0
   -1.0855   22.2019  -28.7429 H   0  0  0  0  0  0  0  0  0  0  0  0
   -0.5075   21.3050  -30.1879 H   0  0  0  0  0  0  0  0  0  0  0  0
   -0.5112   23.1013  -30.1879 H   0  0  0  0  0  0  0  0  0  0  0  0
   -3.0167   21.9189  -28.3285 H   0  0  0  0  0  0  0  0  0  0  0  0
   -4.4052   22.2177  -29.4282 H   0  0  0  0  0  0  0  0  0  0  0  0
   -3.5874   20.6183  -29.4282 H   0  0  0  0  0  0  0  0  0  0  0  0
   -2.5602   20.2199  -31.3002 H   0  0  0  0  0  0  0  0  0  0  0  0
   -3.4004   21.4974  -32.2429 H   0  0  0  0  0  0  0  0  0  0  0  0
   -1.6060   21.4147  -32.2429 H   0  0  0  0  0  0  0  0  0  0  0  0
   -5.2321   23.4308  -29.3361 H   0  0  0  0  0  0  0  0  0  0  0  0
   -6.8890   23.8396  -29.3155 H   0  0  0  0  0  0  0  0  0  0  0  0
   -4.6668   21.0150  -32.3368 H   0  0  0  0  0  0  0  0  0  0  0  0
  1  2  1  0
  2  3  1  0
  3  4  2  0
  3  5  1  0
  5  6  1  0
  6  7  1  0
  7  8  1  0
  7  9  2  0
  6 10  2  0
 10 11  1  0
 11 12  2  0
 12 13  1  0
 13 14  2  0
 14 15  1  0
 15 16  1  0
 16 17  1  0
 17 18  1  0
 18 19  1  0
 19 20  2  0
 19 21  1  0
 21 22  1  0
 22 23  1  0
 22 24  1  0
 22 25  1  0
 17 26  1  0
 14 27  1  0
 27 28  2  0
 28  5  1  0
 28 11  1  0
 26 15  1  0
  1 29  1  0
  1 30  1  0
  1 31  1  0
  8 32  1  0
  8 33  1  0
 10 34  1  0
 12 35  1  0
 13 36  1  0
 16 37  1  0
 16 38  1  0
 17 39  1  0
 23 40  1  0
 23 41  1  0
 23 42  1  0
 24 43  1  0
 24 44  1  0
 24 45  1  0
 25 46  1  0
 25 47  1  0
 25 48  1  0
 26 49  1  0
 26 50  1  0
 27 51  1  0
M  CHG  1  18  -1
M  END
>  <UniqueID>  (61) 
60

>  <SMILES>  (61) 
COC(=O)n1c(C(N)=O)cc2ccc(N3CC([N-]C(=O)OC(C)(C)C)C3)cc21

>  <Energy>  (61) 
127.76022140553198

>  <Genealogy>  (61) 
COC(=O)n1c(C(N)=O)cc2ccc(N3CC([N-]C(=O)OC(C)(C)C)C3)cc21 (protonated)
COC(=O)n1c(C(N)=O)cc2ccc(N3CC([N-]C(=O)OC(C)(C)C)C3)cc21 (3D coordinates assigned)
COC(=O)n1c(C(N)=O)cc2ccc(N3CC([N-]C(=O)OC(C)(C)C)C3)cc21 (nonaromatic ring conformer: 127.76022140553198 kcal/mol)

>  <smiles>  (61) 
COC(=O)n1c(C(N)=O)cc2ccc(N3CC(NC(=O)OC(C)(C)C)C3)cc21

>  <score_type>  (61) 
oracle

>  <origin>  (61) 
adg

>  <m_score__min__energy>  (61) 
-9.7599999999999998

>  <m_primary>  (61) 
energy

$$$$
62:0
     RDKit          3D

 50 52  0  0  0  0  0  0  0  0999 V2000
   -2.2440   16.0020  -33.1440 C   0  0  0  0  0  0  0  0  0  0  0  0
   -3.4100   16.9050  -33.0830 N   0  0  1  0  0  0  0  0  0  0  0  0
   -3.6200   17.5070  -34.4250 C   0  0  0  0  0  0  0  0  0  0  0  0
   -4.9110   17.0580  -35.1450 C   0  0  0  0  0  0  0  0  0  0  0  0
   -6.1840   17.7380  -34.6150 C   0  0  0  0  0  0  0  0  0  0  0  0
   -6.1150   18.0690  -33.1800 N   0  0  0  0  0  0  0  0  0  0  0  0
   -6.3880   19.4240  -32.7540 C   0  0  0  0  0  0  0  0  0  0  0  0
   -7.7090   19.9420  -32.8160 C   0  0  0  0  0  0  0  0  0  0  0  0
   -7.9890   21.2470  -32.3810 C   0  0  0  0  0  0  0  0  0  0  0  0
   -6.9380   22.0090  -31.8840 C   0  0  0  0  0  0  0  0  0  0  0  0
   -6.9340   23.2950  -31.4000 C   0  0  0  0  0  0  0  0  0  0  0  0
   -5.6150   23.5500  -31.0350 C   0  0  0  0  0  0  0  0  0  0  0  0
   -5.1920   24.7990  -30.3640 C   0  0  0  0  0  0  0  0  0  0  0  0
   -4.0550   25.5140  -30.8470 N   0  0  0  0  0  0  0  0  0  0  0  0
   -5.8510   25.2700  -29.3970 O   0  0  0  0  0  0  0  0  0  0  0  0
   -4.8280   22.4680  -31.2960 N   0  0  0  0  0  0  0  0  0  0  0  0
   -3.4010   22.3570  -31.1370 C   0  0  0  0  0  0  0  0  0  0  0  0
   -2.6760   23.3870  -31.2270 O   0  0  0  0  0  0  0  0  0  0  0  0
   -2.8270   21.1050  -30.8850 O   0  0  0  0  0  0  0  0  0  0  0  0
   -2.1520   20.3250  -31.8340 C   0  0  0  0  0  0  0  0  0  0  0  0
   -2.6690   19.2730  -32.2990 O   0  0  0  0  0  0  0  0  0  0  0  0
   -0.7990   20.7620  -32.3080 C   0  0  0  0  0  0  0  0  0  0  0  0
   -0.7420   20.8330  -33.8060 C   0  0  0  0  0  0  0  0  0  0  0  0
   -1.3360   19.9630  -34.4950 O   0  0  0  0  0  0  0  0  0  0  0  0
   -0.0870   21.8810  -34.4460 O   0  0  0  0  0  0  0  0  0  0  0  0
   -5.6560   21.5300  -31.8120 C   0  0  0  0  0  0  0  0  0  0  0  0
   -5.3450   20.2420  -32.2610 C   0  0  0  0  0  0  0  0  0  0  0  0
   -5.7950   17.0380  -32.1780 C   0  0  0  0  0  0  0  0  0  0  0  0
   -4.5900   16.1510  -32.5850 C   0  0  0  0  0  0  0  0  0  0  0  0
   -1.9205   15.7514  -32.1229 H   0  0  0  0  0  0  0  0  0  0  0  0
   -2.5212   15.0807  -33.6773 H   0  0  0  0  0  0  0  0  0  0  0  0
   -1.4214   16.5009  -33.6773 H   0  0  0  0  0  0  0  0  0  0  0  0
   -3.1510   17.6570  -32.4020 H   0  0  0  0  0  0  0  0  0  0  0  0
   -3.6571   18.6000  -34.3071 H   0  0  0  0  0  0  0  0  0  0  0  0
   -2.7828   17.1645  -35.0510 H   0  0  0  0  0  0  0  0  0  0  0  0
   -4.8115   17.2934  -36.2149 H   0  0  0  0  0  0  0  0  0  0  0  0
   -5.0228   15.9793  -34.9606 H   0  0  0  0  0  0  0  0  0  0  0  0
   -6.3441   18.6679  -35.1803 H   0  0  0  0  0  0  0  0  0  0  0  0
   -7.0119   17.0255  -34.7452 H   0  0  0  0  0  0  0  0  0  0  0  0
   -8.5217   19.3136  -33.2092 H   0  0  0  0  0  0  0  0  0  0  0  0
   -9.0095   21.6544  -32.4319 H   0  0  0  0  0  0  0  0  0  0  0  0
   -7.7919   23.9786  -31.3182 H   0  0  0  0  0  0  0  0  0  0  0  0
   -3.0880   25.2460  -30.5560 H   0  0  0  0  0  0  0  0  0  0  0  0
   -0.5783   21.7568  -31.8936 H   0  0  0  0  0  0  0  0  0  0  0  0
   -0.0572   20.0247  -31.9672 H   0  0  0  0  0  0  0  0  0  0  0  0
   -4.3093   19.8727  -32.2312 H   0  0  0  0  0  0  0  0  0  0  0  0
   -5.5581   17.5358  -31.2261 H   0  0  0  0  0  0  0  0  0  0  0  0
   -6.6727   16.3807  -32.0903 H   0  0  0  0  0  0  0  0  0  0  0  0
   -4.2793   15.5687  -31.7050 H   0  0  0  0  0  0  0  0  0  0  0  0
   -4.9330   15.5206  -33.4187 H   0  0  0  0  0  0  0  0  0  0  0  0
  1  2  1  0
  2  3  1  0
  3  4  1  0
  4  5  1  0
  5  6  1  0
  6  7  1  0
  7  8  2  0
  8  9  1  0
  9 10  2  0
 10 11  1  0
 11 12  2  0
 12 13  1  0
 13 14  1  0
 13 15  2  0
 12 16  1  0
 16 17  1  0
 17 18  2  0
 17 19  1  0
 19 20  1  0
 20 21  2  0
 20 22  1  0
 22 23  1  0
 23 24  2  0
 23 25  1  0
 16 26  1  0
 26 27  2  0
  6 28  1  0
 28 29  1  0
 29  2  1  0
 27  7  1  0
 26 10  1  0
  1 30  1  0
  1 31  1  0
  1 32  1  0
  2 33  1  1
  3 34  1  0
  3 35  1  0
  4 36  1  0
  4 37  1  0
  5 38  1  0
  5 39  1  0
  8 40  1  0
  9 41  1  0
 11 42  1  0
 14 43  1  0
 22 44  1  0
 22 45  1  0
 27 46  1  0
 28 47  1  0
 28 48  1  0
 29 49  1  0
 29 50  1  0
M  CHG  3   2   1  14  -1  25  -1
M  END
>  <UniqueID>  (62) 
61

>  <SMILES>  (62) 
C[N@H+]1CCCN(c2ccc3cc(C([NH-])=O)n(C(=O)OC(=O)CC(=O)[O-])c3c2)CC1

>  <Energy>  (62) 
102.95567186356065

>  <Genealogy>  (62) 
C[NH+]1CCCN(c2ccc3cc(C([NH-])=O)n(C(=O)OC(=O)CC(=O)[O-])c3c2)CC1 (protonated)
C[N@H+]1CCCN(c2ccc3cc(C([NH-])=O)n(C(=O)OC(=O)CC(=O)[O-])c3c2)CC1 (chirality)
C[N@H+]1CCCN(c2ccc3cc(C([NH-])=O)n(C(=O)OC(=O)CC(=O)[O-])c3c2)CC1 (3D coordinates assigned)
C[N@H+]1CCCN(c2ccc3cc(C([NH-])=O)n(C(=O)OC(=O)CC(=O)[O-])c3c2)CC1 (nonaromatic ring conformer: 102.95567186356065 kcal/mol)

>  <smiles>  (62) 
CN1CCCN(c2ccc3cc(C(N)=O)n(C(=O)OC(=O)CC(=O)O)c3c2)CC1

>  <score_type>  (62) 
oracle

>  <origin>  (62) 
adg

>  <m_score__min__energy>  (62) 
-9.7799999999999994

>  <m_primary>  (62) 
energy

$$$$
63:0
     RDKit          3D

 45 46  0  0  0  0  0  0  0  0999 V2000
    0.1447   23.5605  -29.2259 H   0  0  0  0  0  0  0  0  0  0  0  0
   -0.8910   23.7330  -28.8980 C   0  0  0  0  0  0  0  0  0  0  0  0
   -1.4370   25.1000  -28.9550 C   0  0  0  0  0  0  0  0  0  0  0  0
   -0.7430   26.0940  -28.6140 O   0  0  0  0  0  0  0  0  0  0  0  0
   -2.7400   25.2950  -29.3950 O   0  0  0  0  0  0  0  0  0  0  0  0
   -1.6120   22.6940  -28.4610 C   0  0  0  0  0  0  0  0  0  0  0  0
   -2.6539   22.8601  -28.1496 H   0  0  0  0  0  0  0  0  0  0  0  0
   -1.0520   21.3370  -28.3850 C   0  0  0  0  0  0  0  0  0  0  0  0
   -1.5530   20.5120  -27.5740 O   0  0  0  0  0  0  0  0  0  0  0  0
    0.0260   20.9650  -29.1970 O   0  0  0  0  0  0  0  0  0  0  0  0
   -0.1180   20.6720  -30.5840 C   0  0  0  0  0  0  0  0  0  0  0  0
   -0.2597   19.5891  -30.7154 H   0  0  0  0  0  0  0  0  0  0  0  0
    0.7871   20.9958  -31.1187 H   0  0  0  0  0  0  0  0  0  0  0  0
   -1.2460   21.3630  -31.1100 O   0  0  0  0  0  0  0  0  0  0  0  0
   -2.2700   20.7150  -31.8090 C   0  0  0  0  0  0  0  0  0  0  0  0
   -2.0820   19.5550  -32.2730 O   0  0  0  0  0  0  0  0  0  0  0  0
   -3.5520   21.3530  -31.9510 N   0  0  0  0  0  0  0  0  0  0  0  0
   -4.3550   21.6460  -30.7940 C   0  0  0  0  0  0  0  0  0  0  0  0
   -3.8690   21.5140  -29.6380 O   0  0  0  0  0  0  0  0  0  0  0  0
   -5.7140   22.0860  -30.9440 N   0  0  0  0  0  0  0  0  0  0  0  0
   -6.1980   23.3540  -30.8260 C   0  0  0  0  0  0  0  0  0  0  0  0
   -5.4340   24.5310  -30.3650 C   0  0  0  0  0  0  0  0  0  0  0  0
   -4.8850   25.2820  -31.2140 O   0  0  0  0  0  0  0  0  0  0  0  0
   -5.3480   24.8670  -28.9780 N   0  0  0  0  0  0  0  0  0  0  0  0
   -4.7510   25.6670  -28.6710 H   0  0  0  0  0  0  0  0  0  0  0  0
   -5.9480   24.3950  -28.2670 H   0  0  0  0  0  0  0  0  0  0  0  0
   -7.5420   23.3990  -31.1910 C   0  0  0  0  0  0  0  0  0  0  0  0
   -8.2010   24.2797  -31.2013 H   0  0  0  0  0  0  0  0  0  0  0  0
   -7.8700   22.1070  -31.5360 C   0  0  0  0  0  0  0  0  0  0  0  0
   -9.0700   21.5810  -32.0050 C   0  0  0  0  0  0  0  0  0  0  0  0
   -9.9638   22.2136  -32.1095 H   0  0  0  0  0  0  0  0  0  0  0  0
   -9.1050   20.2170  -32.3410 C   0  0  0  0  0  0  0  0  0  0  0  0
  -10.0406   19.7703  -32.7085 H   0  0  0  0  0  0  0  0  0  0  0  0
   -7.9470   19.4120  -32.2110 C   0  0  0  0  0  0  0  0  0  0  0  0
   -7.9780   17.9590  -32.5820 C   0  0  0  0  0  0  0  0  0  0  0  0
   -7.9910   17.3473  -31.6678 H   0  0  0  0  0  0  0  0  0  0  0  0
   -8.8808   17.7512  -33.1751 H   0  0  0  0  0  0  0  0  0  0  0  0
   -7.0849   17.7129  -33.1751 H   0  0  0  0  0  0  0  0  0  0  0  0
   -6.7470   19.9800  -31.7310 C   0  0  0  0  0  0  0  0  0  0  0  0
   -5.8352   19.3726  -31.6331 H   0  0  0  0  0  0  0  0  0  0  0  0
   -6.7470   21.3350  -31.3830 C   0  0  0  0  0  0  0  0  0  0  0  0
   -3.9530   21.8710  -33.2600 C   0  0  0  0  0  0  0  0  0  0  0  0
   -4.6212   22.7341  -33.1238 H   0  0  0  0  0  0  0  0  0  0  0  0
   -3.0594   22.1839  -33.8200 H   0  0  0  0  0  0  0  0  0  0  0  0
   -4.4798   21.0843  -33.8200 H   0  0  0  0  0  0  0  0  0  0  0  0
  1  2  1  0
  2  3  1  0
  3  4  2  0
  3  5  1  0
  2  6  2  0
  6  7  1  0
  6  8  1  0
  8  9  2  0
  8 10  1  0
 10 11  1  0
 11 12  1  0
 11 13  1  0
 11 14  1  0
 14 15  1  0
 15 16  2  0
 15 17  1  0
 17 18  1  0
 18 19  2  0
 18 20  1  0
 20 21  1  0
 21 22  1  0
 22 23  2  0
 22 24  1  0
 24 25  1  0
 24 26  1  0
 21 27  2  0
 27 28  1  0
 27 29  1  0
 29 30  2  0
 30 31  1  0
 30 32  1  0
 32 33  1  0
 32 34  2  0
 34 35  1  0
 35 36  1  0
 35 37  1  0
 35 38  1  0
 34 39  1  0
 39 40  1  0
 39 41  2  0
 17 42  1  0
 42 43  1  0
 42 44  1  0
 42 45  1  0
 41 20  1  0
 41 29  1  0
M  CHG  1   5  -1
M  END
>  <UniqueID>  (63) 
62

>  <SMILES>  (63) 
Cc1ccc2cc(C(N)=O)n(C(=O)N(C)C(=O)OCOC(=O)/C=C/C(=O)[O-])c2c1

>  <Energy>  (63) 
78.0105917228301

>  <Genealogy>  (63) 
Cc1ccc2cc(C(N)=O)n(C(=O)N(C)C(=O)OCOC(=O)/C=C/C(=O)[O-])c2c1 (protonated)
Cc1ccc2cc(C(N)=O)n(C(=O)N(C)C(=O)OCOC(=O)/C=C/C(=O)[O-])c2c1 (cis-trans isomerization)
Cc1ccc2cc(C(N)=O)n(C(=O)N(C)C(=O)OCOC(=O)/C=C/C(=O)[O-])c2c1 (3D coordinates assigned)
Cc1ccc2cc(C(N)=O)n(C(=O)N(C)C(=O)OCOC(=O)/C=C/C(=O)[O-])c2c1 (optimized conformer: 78.0105917228301 kcal/mol)

>  <smiles>  (63) 
Cc1ccc2cc(C(N)=O)n(C(=O)N(C)C(=O)OCOC(=O)/C=C/C(=O)O)c2c1

>  <score_type>  (63) 
oracle

>  <origin>  (63) 
adg

>  <m_score__min__energy>  (63) 
-10.77

>  <m_primary>  (63) 
energy

$$$$
64:0
     RDKit          3D

 32 33  0  0  0  0  0  0  0  0999 V2000
   -6.6070   16.3570  -33.9540 C   0  0  0  0  0  0  0  0  0  0  0  0
   -6.8680   17.4040  -33.4170 C   0  0  0  0  0  0  0  0  0  0  0  0
   -7.1800   18.6540  -32.7760 C   0  0  0  0  0  0  0  0  0  0  0  0
   -8.4610   18.8570  -32.2130 C   0  0  0  0  0  0  0  0  0  0  0  0
   -8.7720   20.0690  -31.5720 C   0  0  0  0  0  0  0  0  0  0  0  0
   -7.7880   21.0520  -31.5200 C   0  0  0  0  0  0  0  0  0  0  0  0
   -7.8120   22.2970  -30.9350 C   0  0  0  0  0  0  0  0  0  0  0  0
   -6.5540   22.8420  -31.1800 C   0  0  0  0  0  0  0  0  0  0  0  0
   -6.1680   24.2080  -30.7740 C   0  0  0  0  0  0  0  0  0  0  0  0
   -6.2960   24.6420  -29.4190 N   0  0  0  0  0  0  0  0  0  0  0  0
   -5.6660   24.9880  -31.6260 O   0  0  0  0  0  0  0  0  0  0  0  0
   -5.7750   21.9650  -31.8750 N   0  0  0  0  0  0  0  0  0  0  0  0
   -4.3900   22.1120  -32.2210 C   0  0  0  0  0  0  0  0  0  0  0  0
   -3.8720   21.3460  -33.0800 O   0  0  0  0  0  0  0  0  0  0  0  0
   -3.6200   23.1060  -31.6060 O   0  0  0  0  0  0  0  0  0  0  0  0
   -2.9730   22.9330  -30.3470 C   0  0  0  0  0  0  0  0  0  0  0  0
   -3.0560   24.2120  -29.5110 C   0  0  0  0  0  0  0  0  0  0  0  0
   -3.4870   25.2880  -30.3000 O   0  0  0  0  0  0  0  0  0  0  0  0
   -6.5480   20.8750  -32.0800 C   0  0  0  0  0  0  0  0  0  0  0  0
   -6.2030   19.6690  -32.7060 C   0  0  0  0  0  0  0  0  0  0  0  0
   -6.3688   15.4015  -34.4441 H   0  0  0  0  0  0  0  0  0  0  0  0
   -9.2186   18.0621  -32.2769 H   0  0  0  0  0  0  0  0  0  0  0  0
   -9.7632   20.2354  -31.1250 H   0  0  0  0  0  0  0  0  0  0  0  0
   -8.6465   22.7625  -30.3902 H   0  0  0  0  0  0  0  0  0  0  0  0
   -6.0580   25.6240  -29.1590 H   0  0  0  0  0  0  0  0  0  0  0  0
   -6.5430   23.9700  -28.6580 H   0  0  0  0  0  0  0  0  0  0  0  0
   -3.4617   22.1130  -29.8004 H   0  0  0  0  0  0  0  0  0  0  0  0
   -1.9134   22.6975  -30.5254 H   0  0  0  0  0  0  0  0  0  0  0  0
   -3.7680   24.0598  -28.6865 H   0  0  0  0  0  0  0  0  0  0  0  0
   -2.0569   24.4414  -29.1121 H   0  0  0  0  0  0  0  0  0  0  0  0
   -3.5480   24.9500  -31.2310 H   0  0  0  0  0  0  0  0  0  0  0  0
   -5.1994   19.5186  -33.1304 H   0  0  0  0  0  0  0  0  0  0  0  0
  1  2  3  0
  2  3  1  0
  3  4  2  0
  4  5  1  0
  5  6  2  0
  6  7  1  0
  7  8  2  0
  8  9  1  0
  9 10  1  0
  9 11  2  0
  8 12  1  0
 12 13  1  0
 13 14  2  0
 13 15  1  0
 15 16  1  0
 16 17  1  0
 17 18  1  0
 12 19  1  0
 19 20  2  0
 20  3  1  0
 19  6  1  0
  1 21  1  0
  4 22  1  0
  5 23  1  0
  7 24  1  0
 10 25  1  0
 10 26  1  0
 16 27  1  0
 16 28  1  0
 17 29  1  0
 17 30  1  0
 18 31  1  0
 20 32  1  0
M  END
>  <UniqueID>  (64) 
63

>  <SMILES>  (64) 
C#Cc1ccc2cc(C(N)=O)n(C(=O)OCCO)c2c1

>  <Energy>  (64) 
66.22350382483391

>  <Genealogy>  (64) 
C#Cc1ccc2cc(C(N)=O)n(C(=O)OCCO)c2c1 (3D coordinates assigned)
C#Cc1ccc2cc(C(N)=O)n(C(=O)OCCO)c2c1 (optimized conformer: 66.22350382483391 kcal/mol)

>  <smiles>  (64) 
C#Cc1ccc2cc(C(N)=O)n(C(=O)OCCO)c2c1

>  <score_type>  (64) 
oracle

>  <origin>  (64) 
adg

>  <m_score__min__energy>  (64) 
-8.5299999999999994

>  <m_primary>  (64) 
energy

$$$$
65:0
     RDKit          3D

 40 41  0  0  0  0  0  0  0  0999 V2000
   -0.9800   26.1850  -28.1730 C   0  0  0  0  0  0  0  0  0  0  0  0
   -1.5910   25.0850  -28.9090 N   0  0  0  0  0  0  0  0  0  0  0  0
   -2.3950   24.0950  -28.2550 C   0  0  0  0  0  0  0  0  0  0  0  0
   -2.5740   24.1420  -27.0090 O   0  0  0  0  0  0  0  0  0  0  0  0
   -3.0570   23.0190  -29.0590 C   0  0  0  0  0  0  0  0  0  0  0  0
   -2.7000   23.1490  -30.4660 N   0  0  0  0  0  0  0  0  0  0  0  0
   -3.5330   22.6970  -31.5390 C   0  0  0  0  0  0  0  0  0  0  0  0
   -3.0170   22.2160  -32.5830 O   0  0  0  0  0  0  0  0  0  0  0  0
   -4.9590   22.8290  -31.4410 N   0  0  0  0  0  0  0  0  0  0  0  0
   -5.6720   23.9140  -31.0290 C   0  0  0  0  0  0  0  0  0  0  0  0
   -5.1120   25.1390  -30.4210 C   0  0  0  0  0  0  0  0  0  0  0  0
   -3.8650   25.6700  -30.8630 N   0  0  0  0  0  0  0  0  0  0  0  0
   -5.7160   25.6940  -29.4660 O   0  0  0  0  0  0  0  0  0  0  0  0
   -7.0380   23.6880  -31.1800 C   0  0  0  0  0  0  0  0  0  0  0  0
   -7.1410   22.4140  -31.6910 C   0  0  0  0  0  0  0  0  0  0  0  0
   -8.2670   21.6800  -32.0430 C   0  0  0  0  0  0  0  0  0  0  0  0
   -8.0790   20.3950  -32.5760 C   0  0  0  0  0  0  0  0  0  0  0  0
   -6.7730   19.8590  -32.7580 C   0  0  0  0  0  0  0  0  0  0  0  0
   -6.5880   18.5320  -33.3200 N   0  0  0  0  0  0  0  0  0  0  0  0
   -5.7550   18.3350  -34.5120 C   0  0  0  0  0  0  0  0  0  0  0  0
   -7.2320   17.3640  -32.7040 C   0  0  0  0  0  0  0  0  0  0  0  0
   -5.6530   20.6470  -32.3840 C   0  0  0  0  0  0  0  0  0  0  0  0
   -5.8750   21.9170  -31.8380 C   0  0  0  0  0  0  0  0  0  0  0  0
   -1.0806   26.0039  -27.0927 H   0  0  0  0  0  0  0  0  0  0  0  0
    0.0860   26.2544  -28.4355 H   0  0  0  0  0  0  0  0  0  0  0  0
   -1.4843   27.1267  -28.4355 H   0  0  0  0  0  0  0  0  0  0  0  0
   -1.4510   25.0300  -29.9430 H   0  0  0  0  0  0  0  0  0  0  0  0
   -2.7286   22.0360  -28.6903 H   0  0  0  0  0  0  0  0  0  0  0  0
   -4.1480   23.1140  -28.9557 H   0  0  0  0  0  0  0  0  0  0  0  0
   -2.9620   25.2940  -30.4970 H   0  0  0  0  0  0  0  0  0  0  0  0
   -7.8593   24.3799  -30.9418 H   0  0  0  0  0  0  0  0  0  0  0  0
   -9.2771   22.0941  -31.9079 H   0  0  0  0  0  0  0  0  0  0  0  0
   -8.9552   19.7925  -32.8576 H   0  0  0  0  0  0  0  0  0  0  0  0
   -4.7271   18.0919  -34.2049 H   0  0  0  0  0  0  0  0  0  0  0  0
   -6.1635   17.5087  -35.1123 H   0  0  0  0  0  0  0  0  0  0  0  0
   -5.7501   19.2567  -35.1123 H   0  0  0  0  0  0  0  0  0  0  0  0
   -7.1828   17.4533  -31.6087 H   0  0  0  0  0  0  0  0  0  0  0  0
   -8.2842   17.3158  -33.0210 H   0  0  0  0  0  0  0  0  0  0  0  0
   -6.7112   16.4484  -33.0210 H   0  0  0  0  0  0  0  0  0  0  0  0
   -4.6298   20.2669  -32.5206 H   0  0  0  0  0  0  0  0  0  0  0  0
  1  2  1  0
  2  3  1  0
  3  4  2  0
  3  5  1  0
  5  6  1  0
  6  7  1  0
  7  8  2  0
  7  9  1  0
  9 10  1  0
 10 11  1  0
 11 12  1  0
 11 13  2  0
 10 14  2  0
 14 15  1  0
 15 16  2  0
 16 17  1  0
 17 18  2  0
 18 19  1  0
 19 20  1  0
 19 21  1  0
 18 22  1  0
 22 23  2  0
 23  9  1  0
 23 15  1  0
  1 24  1  0
  1 25  1  0
  1 26  1  0
  2 27  1  0
  5 28  1  0
  5 29  1  0
 12 30  1  0
 14 31  1  0
 16 32  1  0
 17 33  1  0
 20 34  1  0
 20 35  1  0
 20 36  1  0
 21 37  1  0
 21 38  1  0
 21 39  1  0
 22 40  1  0
M  CHG  2   6  -1  12  -1
M  END
>  <UniqueID>  (65) 
64

>  <SMILES>  (65) 
CNC(=O)C[N-]C(=O)n1c(C([NH-])=O)cc2ccc(N(C)C)cc21

>  <Energy>  (65) 
73.9607247666468

>  <Genealogy>  (65) 
CNC(=O)C[N-]C(=O)n1c(C([NH-])=O)cc2ccc(N(C)C)cc21 (protonated)
CNC(=O)C[N-]C(=O)n1c(C([NH-])=O)cc2ccc(N(C)C)cc21 (3D coordinates assigned)
CNC(=O)C[N-]C(=O)n1c(C([NH-])=O)cc2ccc(N(C)C)cc21 (optimized conformer: 73.9607247666468 kcal/mol)

>  <smiles>  (65) 
CNC(=O)CNC(=O)n1c(C(N)=O)cc2ccc(N(C)C)cc21

>  <score_type>  (65) 
oracle

>  <origin>  (65) 
adg

>  <m_score__min__energy>  (65) 
-10.81

>  <m_primary>  (65) 
energy

$$$$
66:0
     RDKit          3D

 31 32  0  0  0  0  0  0  0  0999 V2000
   -6.5010   17.0840  -32.6280 C   0  0  0  0  0  0  0  0  0  0  0  0
   -6.6460   18.2620  -32.4200 C   0  0  0  0  0  0  0  0  0  0  0  0
   -6.8190   19.6690  -32.1710 C   0  0  0  0  0  0  0  0  0  0  0  0
   -8.0460   20.2950  -32.4870 C   0  0  0  0  0  0  0  0  0  0  0  0
   -8.2310   21.6650  -32.2350 C   0  0  0  0  0  0  0  0  0  0  0  0
   -7.1710   22.3750  -31.6780 C   0  0  0  0  0  0  0  0  0  0  0  0
   -7.0890   23.6980  -31.3100 C   0  0  0  0  0  0  0  0  0  0  0  0
   -5.8040   23.8610  -30.7990 C   0  0  0  0  0  0  0  0  0  0  0  0
   -5.2650   25.1660  -30.3600 C   0  0  0  0  0  0  0  0  0  0  0  0
   -4.0130   25.6440  -30.8460 N   0  0  0  0  0  0  0  0  0  0  0  0
   -5.9410   25.8900  -29.5820 O   0  0  0  0  0  0  0  0  0  0  0  0
   -5.1190   22.6830  -30.8410 N   0  0  0  0  0  0  0  0  0  0  0  0
   -3.8020   22.4090  -30.3390 C   0  0  0  0  0  0  0  0  0  0  0  0
   -3.5550   21.3000  -29.7910 O   0  0  0  0  0  0  0  0  0  0  0  0
   -2.7800   23.3490  -30.5210 O   0  0  0  0  0  0  0  0  0  0  0  0
   -1.5550   23.2640  -29.8830 N   0  0  0  0  0  0  0  0  0  0  0  0
   -0.7430   22.0780  -30.1260 C   0  0  0  0  0  0  0  0  0  0  0  0
   -0.9560   24.4140  -29.2600 C   0  0  0  0  0  0  0  0  0  0  0  0
    0.1380   24.3110  -28.6460 O   0  0  0  0  0  0  0  0  0  0  0  0
   -1.5950   25.6480  -29.3010 O   0  0  0  0  0  0  0  0  0  0  0  0
   -5.9690   21.7830  -31.3850 C   0  0  0  0  0  0  0  0  0  0  0  0
   -5.7640   20.4160  -31.6070 C   0  0  0  0  0  0  0  0  0  0  0  0
   -6.3686   16.0086  -32.8179 H   0  0  0  0  0  0  0  0  0  0  0  0
   -8.8612   19.7062  -32.9329 H   0  0  0  0  0  0  0  0  0  0  0  0
   -9.1841   22.1611  -32.4706 H   0  0  0  0  0  0  0  0  0  0  0  0
   -7.8726   24.4647  -31.4003 H   0  0  0  0  0  0  0  0  0  0  0  0
   -3.1130   25.2970  -30.4450 H   0  0  0  0  0  0  0  0  0  0  0  0
   -0.4411   21.6370  -29.1645 H   0  0  0  0  0  0  0  0  0  0  0  0
   -1.3287   21.3436  -30.6984 H   0  0  0  0  0  0  0  0  0  0  0  0
    0.1535   22.3584  -30.6984 H   0  0  0  0  0  0  0  0  0  0  0  0
   -4.8074   19.9382  -31.3489 H   0  0  0  0  0  0  0  0  0  0  0  0
  1  2  3  0
  2  3  1  0
  3  4  2  0
  4  5  1  0
  5  6  2  0
  6  7  1  0
  7  8  2  0
  8  9  1  0
  9 10  1  0
  9 11  2  0
  8 12  1  0
 12 13  1  0
 13 14  2  0
 13 15  1  0
 15 16  1  0
 16 17  1  0
 16 18  1  0
 18 19  2  0
 18 20  1  0
 12 21  1  0
 21 22  2  0
 22  3  1  0
 21  6  1  0
  1 23  1  0
  4 24  1  0
  5 25  1  0
  7 26  1  0
 10 27  1  0
 17 28  1  0
 17 29  1  0
 17 30  1  0
 22 31  1  0
M  CHG  2  10  -1  20  -1
M  END
>  <UniqueID>  (66) 
65

>  <SMILES>  (66) 
C#Cc1ccc2cc(C([NH-])=O)n(C(=O)ON(C)C(=O)[O-])c2c1

>  <Energy>  (66) 
71.97979503480182

>  <Genealogy>  (66) 
C#Cc1ccc2cc(C([NH-])=O)n(C(=O)ON(C)C(=O)[O-])c2c1 (protonated)
C#Cc1ccc2cc(C([NH-])=O)n(C(=O)ON(C)C(=O)[O-])c2c1 (3D coordinates assigned)
C#Cc1ccc2cc(C([NH-])=O)n(C(=O)ON(C)C(=O)[O-])c2c1 (optimized conformer: 71.97979503480182 kcal/mol)

>  <smiles>  (66) 
C#Cc1ccc2cc(C(N)=O)n(C(=O)ON(C)C(=O)O)c2c1

>  <score_type>  (66) 
oracle

>  <origin>  (66) 
adg

>  <m_score__min__energy>  (66) 
-12.289999999999999

>  <m_primary>  (66) 
energy

$$$$
67:0
     RDKit          3D

 42 43  0  0  0  0  0  0  0  0999 V2000
   -6.8790   17.3780  -33.0910 C   0  0  0  0  0  0  0  0  0  0  0  0
   -6.9830   18.5220  -32.7260 C   0  0  0  0  0  0  0  0  0  0  0  0
   -7.1070   19.8880  -32.2920 C   0  0  0  0  0  0  0  0  0  0  0  0
   -8.3870   20.4730  -32.1590 C   0  0  0  0  0  0  0  0  0  0  0  0
   -8.5190   21.8110  -31.7500 C   0  0  0  0  0  0  0  0  0  0  0  0
   -7.3570   22.5260  -31.4750 C   0  0  0  0  0  0  0  0  0  0  0  0
   -7.1950   23.8390  -31.0910 C   0  0  0  0  0  0  0  0  0  0  0  0
   -5.8190   24.0220  -30.9750 C   0  0  0  0  0  0  0  0  0  0  0  0
   -5.2040   25.2790  -30.5000 C   0  0  0  0  0  0  0  0  0  0  0  0
   -3.8660   25.6200  -30.8550 N   0  0  0  0  0  0  0  0  0  0  0  0
   -5.8520   26.0390  -29.7320 O   0  0  0  0  0  0  0  0  0  0  0  0
   -5.1550   22.8720  -31.2800 N   0  0  0  0  0  0  0  0  0  0  0  0
   -3.7360   22.6760  -31.3760 C   0  0  0  0  0  0  0  0  0  0  0  0
   -3.2230   22.3260  -32.4750 O   0  0  0  0  0  0  0  0  0  0  0  0
   -2.9270   22.9000  -30.2580 O   0  0  0  0  0  0  0  0  0  0  0  0
   -1.5220   22.6720  -30.2640 C   0  0  0  0  0  0  0  0  0  0  0  0
   -0.8940   23.5460  -29.3320 O   0  0  0  0  0  0  0  0  0  0  0  0
   -1.5990   24.4960  -28.5870 C   0  0  0  0  0  0  0  0  0  0  0  0
   -1.6120   25.7040  -28.9560 O   0  0  0  0  0  0  0  0  0  0  0  0
   -2.2730   24.0850  -27.2920 C   0  0  0  0  0  0  0  0  0  0  0  0
   -3.7660   23.8380  -27.5700 C   0  0  0  0  0  0  0  0  0  0  0  0
   -2.1250   25.2060  -26.2430 C   0  0  0  0  0  0  0  0  0  0  0  0
   -1.6320   22.7960  -26.7350 C   0  0  0  0  0  0  0  0  0  0  0  0
   -6.1110   21.9650  -31.5820 C   0  0  0  0  0  0  0  0  0  0  0  0
   -5.9490   20.6400  -32.0070 C   0  0  0  0  0  0  0  0  0  0  0  0
   -6.7841   16.3340  -33.4241 H   0  0  0  0  0  0  0  0  0  0  0  0
   -9.2855   19.8771  -32.3771 H   0  0  0  0  0  0  0  0  0  0  0  0
   -9.5097   22.2786  -31.6503 H   0  0  0  0  0  0  0  0  0  0  0  0
   -7.9843   24.5844  -30.9137 H   0  0  0  0  0  0  0  0  0  0  0  0
   -3.0560   25.0890  -30.4650 H   0  0  0  0  0  0  0  0  0  0  0  0
   -1.3190   21.6284  -29.9818 H   0  0  0  0  0  0  0  0  0  0  0  0
   -1.1243   22.8642  -31.2714 H   0  0  0  0  0  0  0  0  0  0  0  0
   -4.3067   23.7486  -26.6162 H   0  0  0  0  0  0  0  0  0  0  0  0
   -4.1760   24.6805  -28.1463 H   0  0  0  0  0  0  0  0  0  0  0  0
   -3.8828   22.9083  -28.1463 H   0  0  0  0  0  0  0  0  0  0  0  0
   -2.1821   24.7732  -25.2333 H   0  0  0  0  0  0  0  0  0  0  0  0
   -1.1532   25.7046  -26.3738 H   0  0  0  0  0  0  0  0  0  0  0  0
   -2.9341   25.9397  -26.3738 H   0  0  0  0  0  0  0  0  0  0  0  0
   -1.6464   22.8249  -25.6355 H   0  0  0  0  0  0  0  0  0  0  0  0
   -2.2006   21.9223  -27.0863 H   0  0  0  0  0  0  0  0  0  0  0  0
   -0.5922   22.7222  -27.0863 H   0  0  0  0  0  0  0  0  0  0  0  0
   -4.9471   20.1990  -32.1152 H   0  0  0  0  0  0  0  0  0  0  0  0
  1  2  3  0
  2  3  1  0
  3  4  2  0
  4  5  1  0
  5  6  2  0
  6  7  1  0
  7  8  2  0
  8  9  1  0
  9 10  1  0
  9 11  2  0
  8 12  1  0
 12 13  1  0
 13 14  2  0
 13 15  1  0
 15 16  1  0
 16 17  1  0
 17 18  1  0
 18 19  2  0
 18 20  1  0
 20 21  1  0
 20 22  1  0
 20 23  1  0
 12 24  1  0
 24 25  2  0
 25  3  1  0
 24  6  1  0
  1 26  1  0
  4 27  1  0
  5 28  1  0
  7 29  1  0
 10 30  1  0
 16 31  1  0
 16 32  1  0
 21 33  1  0
 21 34  1  0
 21 35  1  0
 22 36  1  0
 22 37  1  0
 22 38  1  0
 23 39  1  0
 23 40  1  0
 23 41  1  0
 25 42  1  0
M  CHG  1  10  -1
M  END
>  <UniqueID>  (67) 
66

>  <SMILES>  (67) 
C#Cc1ccc2cc(C([NH-])=O)n(C(=O)OCOC(=O)C(C)(C)C)c2c1

>  <Energy>  (67) 
71.37746276438028

>  <Genealogy>  (67) 
C#Cc1ccc2cc(C([NH-])=O)n(C(=O)OCOC(=O)C(C)(C)C)c2c1 (protonated)
C#Cc1ccc2cc(C([NH-])=O)n(C(=O)OCOC(=O)C(C)(C)C)c2c1 (3D coordinates assigned)
C#Cc1ccc2cc(C([NH-])=O)n(C(=O)OCOC(=O)C(C)(C)C)c2c1 (optimized conformer: 71.37746276438028 kcal/mol)

>  <smiles>  (67) 
C#Cc1ccc2cc(C(N)=O)n(C(=O)OCOC(=O)C(C)(C)C)c2c1

>  <score_type>  (67) 
oracle

>  <origin>  (67) 
adg

>  <m_score__min__energy>  (67) 
-11.210000000000001

>  <m_primary>  (67) 
energy

$$$$
68:0
     RDKit          3D

 43 44  0  0  0  0  0  0  0  0999 V2000
   -2.5080   20.9390  -29.8030 C   0  0  0  0  0  0  0  0  0  0  0  0
   -3.4470   22.0610  -29.7470 N   0  0  0  0  0  0  0  0  0  0  0  0
   -3.6860   22.7140  -28.4890 C   0  0  0  0  0  0  0  0  0  0  0  0
   -4.2210   22.0750  -27.5420 O   0  0  0  0  0  0  0  0  0  0  0  0
   -3.3360   24.0620  -28.3360 O   0  0  0  0  0  0  0  0  0  0  0  0
   -3.1080   24.6990  -27.1090 C   0  0  0  0  0  0  0  0  0  0  0  0
   -4.0550   24.9520  -26.3150 O   0  0  0  0  0  0  0  0  0  0  0  0
   -1.7220   25.1340  -26.7650 C   0  0  0  0  0  0  0  0  0  0  0  0
   -0.9680   25.4470  -28.0170 C   0  0  0  0  0  0  0  0  0  0  0  0
   -1.5350   26.0580  -28.9600 O   0  0  0  0  0  0  0  0  0  0  0  0
    0.3450   25.0200  -28.1630 O   0  0  0  0  0  0  0  0  0  0  0  0
   -3.9730   22.6120  -30.9720 C   0  0  0  0  0  0  0  0  0  0  0  0
   -3.1870   22.9390  -31.9030 O   0  0  0  0  0  0  0  0  0  0  0  0
   -5.3840   22.8360  -31.1330 N   0  0  0  0  0  0  0  0  0  0  0  0
   -6.0960   23.9510  -30.8050 C   0  0  0  0  0  0  0  0  0  0  0  0
   -5.5320   25.2270  -30.3180 C   0  0  0  0  0  0  0  0  0  0  0  0
   -4.1740   25.5760  -30.5730 N   0  0  0  0  0  0  0  0  0  0  0  0
   -6.2690   26.0380  -29.6960 O   0  0  0  0  0  0  0  0  0  0  0  0
   -7.4530   23.7510  -31.0550 C   0  0  0  0  0  0  0  0  0  0  0  0
   -7.5510   22.4710  -31.5510 C   0  0  0  0  0  0  0  0  0  0  0  0
   -8.6680   21.7510  -31.9660 C   0  0  0  0  0  0  0  0  0  0  0  0
   -8.4700   20.4370  -32.4250 C   0  0  0  0  0  0  0  0  0  0  0  0
   -7.1740   19.8740  -32.4500 C   0  0  0  0  0  0  0  0  0  0  0  0
   -6.9830   18.5280  -32.9230 C   0  0  0  0  0  0  0  0  0  0  0  0
   -6.8220   17.4020  -33.3210 C   0  0  0  0  0  0  0  0  0  0  0  0
   -6.6260   16.0280  -33.8040 C   0  0  0  0  0  0  0  0  0  0  0  0
   -5.3550   15.4840  -33.3330 N   0  0  0  0  0  0  0  0  0  0  0  0
   -6.0650   20.6250  -32.0120 C   0  0  0  0  0  0  0  0  0  0  0  0
   -6.2880   21.9380  -31.5820 C   0  0  0  0  0  0  0  0  0  0  0  0
   -2.2474   20.6276  -28.7807 H   0  0  0  0  0  0  0  0  0  0  0  0
   -2.9743   20.0968  -30.3352 H   0  0  0  0  0  0  0  0  0  0  0  0
   -1.5968   21.2497  -30.3352 H   0  0  0  0  0  0  0  0  0  0  0  0
   -1.7671   26.0318  -26.1310 H   0  0  0  0  0  0  0  0  0  0  0  0
   -1.2098   24.3252  -26.2233 H   0  0  0  0  0  0  0  0  0  0  0  0
   -3.4890   25.6710  -29.7910 H   0  0  0  0  0  0  0  0  0  0  0  0
   -8.2727   24.4658  -30.8904 H   0  0  0  0  0  0  0  0  0  0  0  0
   -9.6735   22.1961  -31.9357 H   0  0  0  0  0  0  0  0  0  0  0  0
   -9.3301   19.8428  -32.7672 H   0  0  0  0  0  0  0  0  0  0  0  0
   -7.4469   15.3961  -33.4341 H   0  0  0  0  0  0  0  0  0  0  0  0
   -6.6155   16.0413  -34.9039 H   0  0  0  0  0  0  0  0  0  0  0  0
   -5.2370   15.7260  -32.3210 H   0  0  0  0  0  0  0  0  0  0  0  0
   -5.3840   14.4410  -33.4090 H   0  0  0  0  0  0  0  0  0  0  0  0
   -5.0538   20.1920  -32.0082 H   0  0  0  0  0  0  0  0  0  0  0  0
  1  2  1  0
  2  3  1  0
  3  4  2  0
  3  5  1  0
  5  6  1  0
  6  7  2  0
  6  8  1  0
  8  9  1  0
  9 10  2  0
  9 11  1  0
  2 12  1  0
 12 13  2  0
 12 14  1  0
 14 15  1  0
 15 16  1  0
 16 17  1  0
 16 18  2  0
 15 19  2  0
 19 20  1  0
 20 21  2  0
 21 22  1  0
 22 23  2  0
 23 24  1  0
 24 25  3  0
 25 26  1  0
 26 27  1  0
 23 28  1  0
 28 29  2  0
 29 14  1  0
 29 20  1  0
  1 30  1  0
  1 31  1  0
  1 32  1  0
  8 33  1  0
  8 34  1  0
 17 35  1  0
 19 36  1  0
 21 37  1  0
 22 38  1  0
 26 39  1  0
 26 40  1  0
 27 41  1  0
 27 42  1  0
 28 43  1  0
M  CHG  2  11  -1  17  -1
M  END
>  <UniqueID>  (68) 
67

>  <SMILES>  (68) 
CN(C(=O)OC(=O)CC(=O)[O-])C(=O)n1c(C([NH-])=O)cc2ccc(C#CCN)cc21

>  <Energy>  (68) 
75.61483914587251

>  <Genealogy>  (68) 
CN(C(=O)OC(=O)CC(=O)[O-])C(=O)n1c(C([NH-])=O)cc2ccc(C#CCN)cc21 (protonated)
CN(C(=O)OC(=O)CC(=O)[O-])C(=O)n1c(C([NH-])=O)cc2ccc(C#CCN)cc21 (3D coordinates assigned)
CN(C(=O)OC(=O)CC(=O)[O-])C(=O)n1c(C([NH-])=O)cc2ccc(C#CCN)cc21 (optimized conformer: 75.61483914587251 kcal/mol)

>  <smiles>  (68) 
CN(C(=O)OC(=O)CC(=O)O)C(=O)n1c(C(N)=O)cc2ccc(C#CCN)cc21

>  <score_type>  (68) 
oracle

>  <origin>  (68) 
adg

>  <m_score__min__energy>  (68) 
-12.890000000000001

>  <m_primary>  (68) 
energy

$$$$
69:0
     RDKit          3D

 53 54  0  0  0  0  0  0  0  0999 V2000
   -0.1070   21.2330  -28.8560 C   0  0  0  0  0  0  0  0  0  0  0  0
   -0.7660   21.7660  -30.0500 N   0  0  0  0  0  0  0  0  0  0  0  0
   -0.6550   21.0770  -31.3080 C   0  0  0  0  0  0  0  0  0  0  0  0
    0.3770   21.2320  -32.0150 O   0  0  0  0  0  0  0  0  0  0  0  0
   -1.6950   20.2330  -31.7340 O   0  0  0  0  0  0  0  0  0  0  0  0
   -1.8550   19.6760  -33.0450 C   0  0  0  0  0  0  0  0  0  0  0  0
   -0.9910   18.4110  -33.2000 C   0  0  0  0  0  0  0  0  0  0  0  0
   -3.3350   19.2920  -33.1950 C   0  0  0  0  0  0  0  0  0  0  0  0
   -1.5030   20.7130  -34.1290 C   0  0  0  0  0  0  0  0  0  0  0  0
   -1.7280   22.8220  -29.9000 C   0  0  0  0  0  0  0  0  0  0  0  0
   -1.3230   24.0060  -29.7330 O   0  0  0  0  0  0  0  0  0  0  0  0
   -3.1430   22.5510  -29.9680 N   0  0  0  0  0  0  0  0  0  0  0  0
   -3.8450   22.0930  -28.7640 C   0  0  0  0  0  0  0  0  0  0  0  0
   -3.8270   22.6060  -31.2330 C   0  0  0  0  0  0  0  0  0  0  0  0
   -3.1940   22.3860  -32.3010 O   0  0  0  0  0  0  0  0  0  0  0  0
   -5.2330   22.8860  -31.2930 N   0  0  0  0  0  0  0  0  0  0  0  0
   -5.8760   24.0530  -31.0030 C   0  0  0  0  0  0  0  0  0  0  0  0
   -5.2440   25.3000  -30.5180 C   0  0  0  0  0  0  0  0  0  0  0  0
   -3.8950   25.6190  -30.8420 N   0  0  0  0  0  0  0  0  0  0  0  0
   -5.9050   26.0960  -29.7990 O   0  0  0  0  0  0  0  0  0  0  0  0
   -7.2520   23.9020  -31.1800 C   0  0  0  0  0  0  0  0  0  0  0  0
   -7.4280   22.5990  -31.5910 C   0  0  0  0  0  0  0  0  0  0  0  0
   -8.5890   21.9120  -31.9330 C   0  0  0  0  0  0  0  0  0  0  0  0
   -8.4650   20.5770  -32.3570 C   0  0  0  0  0  0  0  0  0  0  0  0
   -7.1940   19.9530  -32.4140 C   0  0  0  0  0  0  0  0  0  0  0  0
   -7.0670   18.5410  -32.9160 C   0  0  0  0  0  0  0  0  0  0  0  0
   -6.1430   17.7560  -32.0340 C   0  0  0  0  0  0  0  0  0  0  0  0
   -6.4820   17.4550  -30.8980 O   0  0  0  0  0  0  0  0  0  0  0  0
   -6.0380   20.6810  -32.0570 C   0  0  0  0  0  0  0  0  0  0  0  0
   -6.1940   22.0080  -31.6430 C   0  0  0  0  0  0  0  0  0  0  0  0
   -0.5995   21.6313  -27.9567 H   0  0  0  0  0  0  0  0  0  0  0  0
   -0.1780   20.1353  -28.8572 H   0  0  0  0  0  0  0  0  0  0  0  0
    0.9516   21.5319  -28.8572 H   0  0  0  0  0  0  0  0  0  0  0  0
   -0.7264   18.0235  -32.2051 H   0  0  0  0  0  0  0  0  0  0  0  0
   -1.5564   17.6463  -33.7528 H   0  0  0  0  0  0  0  0  0  0  0  0
   -0.0730   18.6594  -33.7528 H   0  0  0  0  0  0  0  0  0  0  0  0
   -3.7862   19.1749  -32.1987 H   0  0  0  0  0  0  0  0  0  0  0  0
   -3.8648   20.0824  -33.7469 H   0  0  0  0  0  0  0  0  0  0  0  0
   -3.4137   18.3437  -33.7469 H   0  0  0  0  0  0  0  0  0  0  0  0
   -1.1847   21.6506  -33.6499 H   0  0  0  0  0  0  0  0  0  0  0  0
   -0.6860   20.3256  -34.7555 H   0  0  0  0  0  0  0  0  0  0  0  0
   -2.3870   20.9030  -34.7555 H   0  0  0  0  0  0  0  0  0  0  0  0
   -3.3076   22.4436  -27.8705 H   0  0  0  0  0  0  0  0  0  0  0  0
   -4.8676   22.4982  -28.7593 H   0  0  0  0  0  0  0  0  0  0  0  0
   -3.8861   20.9938  -28.7593 H   0  0  0  0  0  0  0  0  0  0  0  0
   -3.1000   25.1000  -30.4080 H   0  0  0  0  0  0  0  0  0  0  0  0
   -8.0313   24.6626  -31.0243 H   0  0  0  0  0  0  0  0  0  0  0  0
   -9.5738   22.3985  -31.8735 H   0  0  0  0  0  0  0  0  0  0  0  0
   -9.3630   20.0118  -32.6471 H   0  0  0  0  0  0  0  0  0  0  0  0
   -8.0590   18.0656  -32.9167 H   0  0  0  0  0  0  0  0  0  0  0  0
   -6.6572   18.5597  -33.9367 H   0  0  0  0  0  0  0  0  0  0  0  0
   -5.1558   17.4494  -32.4102 H   0  0  0  0  0  0  0  0  0  0  0  0
   -5.0417   20.2171  -32.1032 H   0  0  0  0  0  0  0  0  0  0  0  0
  1  2  1  0
  2  3  1  0
  3  4  2  0
  3  5  1  0
  5  6  1  0
  6  7  1  0
  6  8  1  0
  6  9  1  0
  2 10  1  0
 10 11  2  0
 10 12  1  0
 12 13  1  0
 12 14  1  0
 14 15  2  0
 14 16  1  0
 16 17  1  0
 17 18  1  0
 18 19  1  0
 18 20  2  0
 17 21  2  0
 21 22  1  0
 22 23  2  0
 23 24  1  0
 24 25  2  0
 25 26  1  0
 26 27  1  0
 27 28  2  0
 25 29  1  0
 29 30  2  0
 30 16  1  0
 30 22  1  0
  1 31  1  0
  1 32  1  0
  1 33  1  0
  7 34  1  0
  7 35  1  0
  7 36  1  0
  8 37  1  0
  8 38  1  0
  8 39  1  0
  9 40  1  0
  9 41  1  0
  9 42  1  0
 13 43  1  0
 13 44  1  0
 13 45  1  0
 19 46  1  0
 21 47  1  0
 23 48  1  0
 24 49  1  0
 26 50  1  0
 26 51  1  0
 27 52  1  0
 29 53  1  0
M  CHG  1  19  -1
M  END
>  <UniqueID>  (69) 
68

>  <SMILES>  (69) 
CN(C(=O)OC(C)(C)C)C(=O)N(C)C(=O)n1c(C([NH-])=O)cc2ccc(CC=O)cc21

>  <Energy>  (69) 
90.21007855161513

>  <Genealogy>  (69) 
CN(C(=O)OC(C)(C)C)C(=O)N(C)C(=O)n1c(C([NH-])=O)cc2ccc(CC=O)cc21 (protonated)
CN(C(=O)OC(C)(C)C)C(=O)N(C)C(=O)n1c(C([NH-])=O)cc2ccc(CC=O)cc21 (3D coordinates assigned)
CN(C(=O)OC(C)(C)C)C(=O)N(C)C(=O)n1c(C([NH-])=O)cc2ccc(CC=O)cc21 (optimized conformer: 90.21007855161513 kcal/mol)

>  <smiles>  (69) 
CN(C(=O)OC(C)(C)C)C(=O)N(C)C(=O)n1c(C(N)=O)cc2ccc(CC=O)cc21

>  <score_type>  (69) 
oracle

>  <origin>  (69) 
adg

>  <m_score__min__energy>  (69) 
-11.31

>  <m_primary>  (69) 
energy

$$$$
70:0
     RDKit          3D

 42 43  0  0  0  0  0  0  0  0999 V2000
   -0.3330   19.4150  -31.8900 C   0  0  0  0  0  0  0  0  0  0  0  0
   -1.2180   20.2140  -32.8650 C   0  0  0  0  0  0  0  0  0  0  0  0
   -2.4200   19.3420  -33.2680 C   0  0  0  0  0  0  0  0  0  0  0  0
   -0.4090   20.5970  -34.1280 C   0  0  0  0  0  0  0  0  0  0  0  0
   -0.6410   21.9330  -34.4940 O   0  0  0  0  0  0  0  0  0  0  0  0
   -1.7410   21.4130  -32.1990 N   0  0  0  0  0  0  0  0  0  0  0  0
   -3.0330   22.0050  -32.3910 C   0  0  0  0  0  0  0  0  0  0  0  0
   -3.6030   21.9570  -33.5130 O   0  0  0  0  0  0  0  0  0  0  0  0
   -3.7000   22.6710  -31.2630 C   0  0  0  0  0  0  0  0  0  0  0  0
   -3.0150   23.0940  -30.2950 O   0  0  0  0  0  0  0  0  0  0  0  0
   -5.1250   22.8530  -31.2590 N   0  0  0  0  0  0  0  0  0  0  0  0
   -5.8210   23.9890  -30.9740 C   0  0  0  0  0  0  0  0  0  0  0  0
   -5.2440   25.2620  -30.4930 C   0  0  0  0  0  0  0  0  0  0  0  0
   -3.9180   25.6500  -30.8470 N   0  0  0  0  0  0  0  0  0  0  0  0
   -5.9200   26.0070  -29.7350 O   0  0  0  0  0  0  0  0  0  0  0  0
   -7.1880   23.7750  -31.1440 C   0  0  0  0  0  0  0  0  0  0  0  0
   -7.3070   22.4630  -31.5440 C   0  0  0  0  0  0  0  0  0  0  0  0
   -8.4410   21.7180  -31.8550 C   0  0  0  0  0  0  0  0  0  0  0  0
   -8.2630   20.3830  -32.2570 C   0  0  0  0  0  0  0  0  0  0  0  0
   -6.9610   19.8270  -32.3570 C   0  0  0  0  0  0  0  0  0  0  0  0
   -6.7810   18.3900  -32.7570 C   0  0  0  0  0  0  0  0  0  0  0  0
   -6.1000   18.3090  -34.0860 C   0  0  0  0  0  0  0  0  0  0  0  0
   -6.1090   19.3000  -34.8630 O   0  0  0  0  0  0  0  0  0  0  0  0
   -5.4120   17.1580  -34.4450 O   0  0  0  0  0  0  0  0  0  0  0  0
   -5.8360   20.6130  -32.0280 C   0  0  0  0  0  0  0  0  0  0  0  0
   -6.0470   21.9310  -31.6110 C   0  0  0  0  0  0  0  0  0  0  0  0
   -0.6096   19.6647  -30.8551 H   0  0  0  0  0  0  0  0  0  0  0  0
   -0.4805   18.3382  -32.0593 H   0  0  0  0  0  0  0  0  0  0  0  0
    0.7232   19.6715  -32.0593 H   0  0  0  0  0  0  0  0  0  0  0  0
   -2.9263   18.9747  -32.3631 H   0  0  0  0  0  0  0  0  0  0  0  0
   -3.1239   19.9409  -33.8645 H   0  0  0  0  0  0  0  0  0  0  0  0
   -2.0691   18.4870  -33.8645 H   0  0  0  0  0  0  0  0  0  0  0  0
    0.6631   20.4624  -33.9218 H   0  0  0  0  0  0  0  0  0  0  0  0
   -0.7290   19.9482  -34.9567 H   0  0  0  0  0  0  0  0  0  0  0  0
   -1.5790   22.1400  -34.2480 H   0  0  0  0  0  0  0  0  0  0  0  0
   -3.0930   25.2780  -30.3270 H   0  0  0  0  0  0  0  0  0  0  0  0
   -8.0001   24.5010  -30.9909 H   0  0  0  0  0  0  0  0  0  0  0  0
   -9.4458   22.1606  -31.7882 H   0  0  0  0  0  0  0  0  0  0  0  0
   -9.1402   19.7639  -32.4961 H   0  0  0  0  0  0  0  0  0  0  0  0
   -6.1680   17.8760  -32.0020 H   0  0  0  0  0  0  0  0  0  0  0  0
   -7.7678   17.9092  -32.8277 H   0  0  0  0  0  0  0  0  0  0  0  0
   -4.8191   20.1994  -32.0978 H   0  0  0  0  0  0  0  0  0  0  0  0
  1  2  1  0
  2  3  1  0
  2  4  1  0
  4  5  1  0
  2  6  1  0
  6  7  1  0
  7  8  2  0
  7  9  1  0
  9 10  2  0
  9 11  1  0
 11 12  1  0
 12 13  1  0
 13 14  1  0
 13 15  2  0
 12 16  2  0
 16 17  1  0
 17 18  2  0
 18 19  1  0
 19 20  2  0
 20 21  1  0
 21 22  1  0
 22 23  2  0
 22 24  1  0
 20 25  1  0
 25 26  2  0
 26 11  1  0
 26 17  1  0
  1 27  1  0
  1 28  1  0
  1 29  1  0
  3 30  1  0
  3 31  1  0
  3 32  1  0
  4 33  1  0
  4 34  1  0
  5 35  1  0
 14 36  1  0
 16 37  1  0
 18 38  1  0
 19 39  1  0
 21 40  1  0
 21 41  1  0
 25 42  1  0
M  CHG  3   6  -1  14  -1  24  -1
M  END
>  <UniqueID>  (70) 
69

>  <SMILES>  (70) 
CC(C)(CO)[N-]C(=O)C(=O)n1c(C([NH-])=O)cc2ccc(CC(=O)[O-])cc21

>  <Energy>  (70) 
74.48633982785005

>  <Genealogy>  (70) 
CC(C)(CO)[N-]C(=O)C(=O)n1c(C([NH-])=O)cc2ccc(CC(=O)[O-])cc21 (protonated)
CC(C)(CO)[N-]C(=O)C(=O)n1c(C([NH-])=O)cc2ccc(CC(=O)[O-])cc21 (3D coordinates assigned)
CC(C)(CO)[N-]C(=O)C(=O)n1c(C([NH-])=O)cc2ccc(CC(=O)[O-])cc21 (optimized conformer: 74.48633982785005 kcal/mol)

>  <smiles>  (70) 
CC(C)(CO)NC(=O)C(=O)n1c(C(N)=O)cc2ccc(CC(=O)O)cc21

>  <score_type>  (70) 
oracle

>  <origin>  (70) 
adg

>  <m_score__min__energy>  (70) 
-11.789999999999999

>  <m_primary>  (70) 
energy

$$$$
71:0
     RDKit          3D

 46 48  0  0  0  0  0  0  0  0999 V2000
   -3.8290   22.6650  -28.7810 C   0  0  0  0  0  0  0  0  0  0  0  0
   -3.0460   22.8340  -30.0090 N   0  0  0  0  0  0  0  0  0  0  0  0
   -1.5930   23.0270  -29.9150 C   0  0  0  0  0  0  0  0  0  0  0  0
   -1.2820   24.3620  -29.3150 C   0  0  0  0  0  0  0  0  0  0  0  0
   -2.1290   25.2910  -29.3620 O   0  0  0  0  0  0  0  0  0  0  0  0
   -0.0660   24.5720  -28.6780 O   0  0  0  0  0  0  0  0  0  0  0  0
   -3.6990   22.6650  -31.2860 C   0  0  0  0  0  0  0  0  0  0  0  0
   -3.0130   22.4680  -32.3240 O   0  0  0  0  0  0  0  0  0  0  0  0
   -5.1280   22.7360  -31.3990 N   0  0  0  0  0  0  0  0  0  0  0  0
   -5.9470   23.7680  -31.0500 C   0  0  0  0  0  0  0  0  0  0  0  0
   -5.4980   25.0410  -30.4300 C   0  0  0  0  0  0  0  0  0  0  0  0
   -4.1660   25.5290  -30.6130 N   0  0  0  0  0  0  0  0  0  0  0  0
   -6.2990   25.7180  -29.7330 O   0  0  0  0  0  0  0  0  0  0  0  0
   -7.2750   23.4410  -31.3340 C   0  0  0  0  0  0  0  0  0  0  0  0
   -7.2360   22.1690  -31.8610 C   0  0  0  0  0  0  0  0  0  0  0  0
   -8.2640   21.3560  -32.3250 C   0  0  0  0  0  0  0  0  0  0  0  0
   -7.9280   20.0880  -32.8280 C   0  0  0  0  0  0  0  0  0  0  0  0
   -6.5770   19.6500  -32.8580 C   0  0  0  0  0  0  0  0  0  0  0  0
   -6.2400   18.3420  -33.3720 N   0  0  0  0  0  0  0  0  0  0  0  0
   -5.3180   18.1950  -34.5040 C   0  0  0  0  0  0  0  0  0  0  0  0
   -4.5720   16.8560  -34.4070 C   0  0  0  0  0  0  0  0  0  0  0  0
   -5.4610   15.6860  -34.2430 N   0  0  0  0  0  0  0  0  0  0  0  0
   -6.8420   16.0030  -33.8460 C   0  0  0  0  0  0  0  0  0  0  0  0
   -6.8940   17.1450  -32.8280 C   0  0  0  0  0  0  0  0  0  0  0  0
   -5.5620   20.5090  -32.3720 C   0  0  0  0  0  0  0  0  0  0  0  0
   -5.9300   21.7640  -31.8800 C   0  0  0  0  0  0  0  0  0  0  0  0
   -3.1757   22.8060  -27.9073 H   0  0  0  0  0  0  0  0  0  0  0  0
   -4.6388   23.4090  -28.7572 H   0  0  0  0  0  0  0  0  0  0  0  0
   -4.2599   21.6532  -28.7572 H   0  0  0  0  0  0  0  0  0  0  0  0
   -1.1625   22.2364  -29.2829 H   0  0  0  0  0  0  0  0  0  0  0  0
   -1.1607   22.9804  -30.9254 H   0  0  0  0  0  0  0  0  0  0  0  0
   -3.8720   26.4190  -30.1550 H   0  0  0  0  0  0  0  0  0  0  0  0
   -3.4760   25.0400  -31.2240 H   0  0  0  0  0  0  0  0  0  0  0  0
   -8.1645   24.0673  -31.1711 H   0  0  0  0  0  0  0  0  0  0  0  0
   -9.3099   21.6957  -32.2990 H   0  0  0  0  0  0  0  0  0  0  0  0
   -8.7217   19.4255  -33.2036 H   0  0  0  0  0  0  0  0  0  0  0  0
   -5.8883   18.2264  -35.4441 H   0  0  0  0  0  0  0  0  0  0  0  0
   -4.5870   19.0167  -34.4819 H   0  0  0  0  0  0  0  0  0  0  0  0
   -3.9852   16.7189  -35.3272 H   0  0  0  0  0  0  0  0  0  0  0  0
   -3.9408   16.9063  -33.5075 H   0  0  0  0  0  0  0  0  0  0  0  0
   -5.4980   15.1620  -35.1470 H   0  0  0  0  0  0  0  0  0  0  0  0
   -7.4107   16.2974  -34.7404 H   0  0  0  0  0  0  0  0  0  0  0  0
   -7.2766   15.1077  -33.3774 H   0  0  0  0  0  0  0  0  0  0  0  0
   -7.9440   17.3782  -32.5974 H   0  0  0  0  0  0  0  0  0  0  0  0
   -6.3678   16.8338  -31.9135 H   0  0  0  0  0  0  0  0  0  0  0  0
   -4.5076   20.1956  -32.3815 H   0  0  0  0  0  0  0  0  0  0  0  0
  1  2  1  0
  2  3  1  0
  3  4  1  0
  4  5  2  0
  4  6  1  0
  2  7  1  0
  7  8  2  0
  7  9  1  0
  9 10  1  0
 10 11  1  0
 11 12  1  0
 11 13  2  0
 10 14  2  0
 14 15  1  0
 15 16  2  0
 16 17  1  0
 17 18  2  0
 18 19  1  0
 19 20  1  0
 20 21  1  0
 21 22  1  0
 22 23  1  0
 23 24  1  0
 18 25  1  0
 25 26  2  0
 26  9  1  0
 26 15  1  0
 24 19  1  0
  1 27  1  0
  1 28  1  0
  1 29  1  0
  3 30  1  0
  3 31  1  0
 12 32  1  0
 12 33  1  0
 14 34  1  0
 16 35  1  0
 17 36  1  0
 20 37  1  0
 20 38  1  0
 21 39  1  0
 21 40  1  0
 22 41  1  0
 23 42  1  0
 23 43  1  0
 24 44  1  0
 24 45  1  0
 25 46  1  0
M  CHG  1   6  -1
M  END
>  <UniqueID>  (71) 
70

>  <SMILES>  (71) 
CN(CC(=O)[O-])C(=O)n1c(C(N)=O)cc2ccc(N3CCNCC3)cc21

>  <Energy>  (71) 
91.42325372346649

>  <Genealogy>  (71) 
CN(CC(=O)[O-])C(=O)n1c(C(N)=O)cc2ccc(N3CCNCC3)cc21 (protonated)
CN(CC(=O)[O-])C(=O)n1c(C(N)=O)cc2ccc(N3CCNCC3)cc21 (3D coordinates assigned)
CN(CC(=O)[O-])C(=O)n1c(C(N)=O)cc2ccc(N3CCNCC3)cc21 (nonaromatic ring conformer: 91.42325372346649 kcal/mol)

>  <smiles>  (71) 
CN(CC(=O)O)C(=O)n1c(C(N)=O)cc2ccc(N3CCNCC3)cc21

>  <score_type>  (71) 
oracle

>  <origin>  (71) 
adg

>  <m_score__min__energy>  (71) 
-11.25

>  <m_primary>  (71) 
energy

$$$$
72:0
     RDKit          3D

 27 28  0  0  0  0  0  0  0  0999 V2000
   -5.6110   19.1160  -34.1020 C   0  0  0  0  0  0  0  0  0  0  0  0
   -5.9070   20.2530  -33.1230 C   0  0  1  0  0  0  0  0  0  0  0  0
   -7.1220   19.7280  -31.9220 Cl  0  0  0  0  0  0  0  0  0  0  0  0
   -4.6450   20.7200  -32.4330 C   0  0  0  0  0  0  0  0  0  0  0  0
   -3.4850   19.9040  -32.4520 C   0  0  0  0  0  0  0  0  0  0  0  0
   -2.3040   20.3200  -31.8150 C   0  0  0  0  0  0  0  0  0  0  0  0
   -2.3140   21.5450  -31.1570 C   0  0  0  0  0  0  0  0  0  0  0  0
   -1.3060   22.1960  -30.4840 C   0  0  0  0  0  0  0  0  0  0  0  0
   -1.8700   23.3870  -30.0340 C   0  0  0  0  0  0  0  0  0  0  0  0
   -1.1480   24.3560  -29.1830 C   0  0  0  0  0  0  0  0  0  0  0  0
   -1.6540   25.6720  -28.9750 N   0  0  0  0  0  0  0  0  0  0  0  0
   -0.0940   24.0000  -28.5900 O   0  0  0  0  0  0  0  0  0  0  0  0
   -3.1750   23.4750  -30.4220 N   0  0  0  0  0  0  0  0  0  0  0  0
   -4.0790   24.5760  -30.2330 C   0  0  0  0  0  0  0  0  0  0  0  0
   -3.8720   25.6740  -30.8120 O   0  0  0  0  0  0  0  0  0  0  0  0
   -5.2040   24.4310  -29.4310 O   0  0  0  0  0  0  0  0  0  0  0  0
   -3.4310   22.3380  -31.1070 C   0  0  0  0  0  0  0  0  0  0  0  0
   -4.6150   21.9590  -31.7490 C   0  0  0  0  0  0  0  0  0  0  0  0
   -5.3728   18.2009  -33.5400 H   0  0  0  0  0  0  0  0  0  0  0  0
   -6.4928   18.9384  -34.7351 H   0  0  0  0  0  0  0  0  0  0  0  0
   -4.7545   19.3909  -34.7351 H   0  0  0  0  0  0  0  0  0  0  0  0
   -6.3130   21.1023  -33.6921 H   0  0  0  0  0  0  0  0  0  0  0  0
   -3.5104   18.9346  -32.9713 H   0  0  0  0  0  0  0  0  0  0  0  0
   -1.3987   19.6955  -31.8361 H   0  0  0  0  0  0  0  0  0  0  0  0
   -0.2731   21.8491  -30.3333 H   0  0  0  0  0  0  0  0  0  0  0  0
   -2.6810   25.8580  -28.9770 H   0  0  0  0  0  0  0  0  0  0  0  0
   -5.5021   22.6089  -31.7228 H   0  0  0  0  0  0  0  0  0  0  0  0
  1  2  1  0
  2  3  1  0
  2  4  1  0
  4  5  2  0
  5  6  1  0
  6  7  2  0
  7  8  1  0
  8  9  2  0
  9 10  1  0
 10 11  1  0
 10 12  2  0
  9 13  1  0
 13 14  1  0
 14 15  2  0
 14 16  1  0
 13 17  1  0
 17 18  2  0
 18  4  1  0
 17  7  1  0
  1 19  1  0
  1 20  1  0
  1 21  1  0
  2 22  1  6
  5 23  1  0
  6 24  1  0
  8 25  1  0
 11 26  1  0
 18 27  1  0
M  CHG  2  11  -1  16  -1
M  END
>  <UniqueID>  (72) 
71

>  <SMILES>  (72) 
C[C@@H](Cl)c1ccc2cc(C([NH-])=O)n(C(=O)[O-])c2c1

>  <Energy>  (72) 
65.14745606294824

>  <Genealogy>  (72) 
CC(Cl)c1ccc2cc(C([NH-])=O)n(C(=O)[O-])c2c1 (protonated)
C[C@@H](Cl)c1ccc2cc(C([NH-])=O)n(C(=O)[O-])c2c1 (chirality)
C[C@@H](Cl)c1ccc2cc(C([NH-])=O)n(C(=O)[O-])c2c1 (3D coordinates assigned)
C[C@@H](Cl)c1ccc2cc(C([NH-])=O)n(C(=O)[O-])c2c1 (optimized conformer: 65.14745606294824 kcal/mol)

>  <smiles>  (72) 
CC(Cl)c1ccc2cc(C(N)=O)n(C(=O)O)c2c1

>  <score_type>  (72) 
oracle

>  <origin>  (72) 
adg

>  <m_score__min__energy>  (72) 
-10.470000000000001

>  <m_primary>  (72) 
energy

$$$$
73:0
     RDKit          3D

 40 41  0  0  0  0  0  0  0  0999 V2000
   -4.3600   16.0250  -32.8670 C   0  0  0  0  0  0  0  0  0  0  0  0
   -5.2970   17.0330  -32.5120 O   0  0  0  0  0  0  0  0  0  0  0  0
   -6.0970   17.6840  -33.4560 C   0  0  0  0  0  0  0  0  0  0  0  0
   -7.2450   17.2460  -33.7380 O   0  0  0  0  0  0  0  0  0  0  0  0
   -5.5920   18.9290  -34.1170 C   0  0  0  0  0  0  0  0  0  0  0  0
   -5.6830   20.0790  -33.2020 N   0  0  0  0  0  0  0  0  0  0  0  0
   -6.9870   20.7370  -33.0280 C   0  0  0  0  0  0  0  0  0  0  0  0
   -7.8520   19.9800  -32.0150 C   0  0  0  0  0  0  0  0  0  0  0  0
   -8.9190   19.3460  -32.6670 O   0  0  0  0  0  0  0  0  0  0  0  0
   -4.5140   20.5520  -32.4840 C   0  0  0  0  0  0  0  0  0  0  0  0
   -3.3050   19.8060  -32.5040 C   0  0  0  0  0  0  0  0  0  0  0  0
   -2.1570   20.2700  -31.8410 C   0  0  0  0  0  0  0  0  0  0  0  0
   -2.2430   21.4760  -31.1550 C   0  0  0  0  0  0  0  0  0  0  0  0
   -1.2740   22.1690  -30.4660 C   0  0  0  0  0  0  0  0  0  0  0  0
   -1.9070   23.3180  -30.0020 C   0  0  0  0  0  0  0  0  0  0  0  0
   -1.2370   24.3280  -29.1590 C   0  0  0  0  0  0  0  0  0  0  0  0
   -1.9560   25.4380  -28.6220 N   0  0  0  0  0  0  0  0  0  0  0  0
   -0.0210   24.1790  -28.8630 O   0  0  0  0  0  0  0  0  0  0  0  0
   -3.2110   23.3440  -30.3970 N   0  0  0  0  0  0  0  0  0  0  0  0
   -4.1560   24.4130  -30.2180 C   0  0  0  0  0  0  0  0  0  0  0  0
   -5.2290   24.2150  -29.5900 O   0  0  0  0  0  0  0  0  0  0  0  0
   -3.8950   25.6780  -30.7310 O   0  0  0  0  0  0  0  0  0  0  0  0
   -3.4010   22.2060  -31.1030 C   0  0  0  0  0  0  0  0  0  0  0  0
   -4.5530   21.7780  -31.7730 C   0  0  0  0  0  0  0  0  0  0  0  0
   -3.9419   15.5752  -31.9544 H   0  0  0  0  0  0  0  0  0  0  0  0
   -4.8643   15.2483  -33.4607 H   0  0  0  0  0  0  0  0  0  0  0  0
   -3.5486   16.4713  -33.4607 H   0  0  0  0  0  0  0  0  0  0  0  0
   -4.5416   18.7821  -34.4086 H   0  0  0  0  0  0  0  0  0  0  0  0
   -6.2099   19.1335  -35.0038 H   0  0  0  0  0  0  0  0  0  0  0  0
   -6.8267   21.7640  -32.6680 H   0  0  0  0  0  0  0  0  0  0  0  0
   -7.5077   20.7457  -33.9969 H   0  0  0  0  0  0  0  0  0  0  0  0
   -7.2368   19.2238  -31.5053 H   0  0  0  0  0  0  0  0  0  0  0  0
   -8.2535   20.6945  -31.2813 H   0  0  0  0  0  0  0  0  0  0  0  0
   -8.5510   18.9610  -33.5040 H   0  0  0  0  0  0  0  0  0  0  0  0
   -3.2675   18.8502  -33.0472 H   0  0  0  0  0  0  0  0  0  0  0  0
   -1.2185   19.6966  -31.8639 H   0  0  0  0  0  0  0  0  0  0  0  0
   -0.2243   21.8772  -30.3146 H   0  0  0  0  0  0  0  0  0  0  0  0
   -2.9960   25.4970  -28.7000 H   0  0  0  0  0  0  0  0  0  0  0  0
   -1.4550   26.1680  -28.0680 H   0  0  0  0  0  0  0  0  0  0  0  0
   -5.4720   22.3820  -31.7483 H   0  0  0  0  0  0  0  0  0  0  0  0
  1  2  1  0
  2  3  1  0
  3  4  2  0
  3  5  1  0
  5  6  1  0
  6  7  1  0
  7  8  1  0
  8  9  1  0
  6 10  1  0
 10 11  2  0
 11 12  1  0
 12 13  2  0
 13 14  1  0
 14 15  2  0
 15 16  1  0
 16 17  1  0
 16 18  2  0
 15 19  1  0
 19 20  1  0
 20 21  2  0
 20 22  1  0
 19 23  1  0
 23 24  2  0
 24 10  1  0
 23 13  1  0
  1 25  1  0
  1 26  1  0
  1 27  1  0
  5 28  1  0
  5 29  1  0
  7 30  1  0
  7 31  1  0
  8 32  1  0
  8 33  1  0
  9 34  1  0
 11 35  1  0
 12 36  1  0
 14 37  1  0
 17 38  1  0
 17 39  1  0
 24 40  1  0
M  CHG  1  22  -1
M  END
>  <UniqueID>  (73) 
72

>  <SMILES>  (73) 
COC(=O)CN(CCO)c1ccc2cc(C(N)=O)n(C(=O)[O-])c2c1

>  <Energy>  (73) 
77.08041804047693

>  <Genealogy>  (73) 
COC(=O)CN(CCO)c1ccc2cc(C(N)=O)n(C(=O)[O-])c2c1 (protonated)
COC(=O)CN(CCO)c1ccc2cc(C(N)=O)n(C(=O)[O-])c2c1 (3D coordinates assigned)
COC(=O)CN(CCO)c1ccc2cc(C(N)=O)n(C(=O)[O-])c2c1 (optimized conformer: 77.08041804047693 kcal/mol)

>  <smiles>  (73) 
COC(=O)CN(CCO)c1ccc2cc(C(N)=O)n(C(=O)O)c2c1

>  <score_type>  (73) 
oracle

>  <origin>  (73) 
adg

>  <m_score__min__energy>  (73) 
-7.7599999999999998

>  <m_primary>  (73) 
energy

$$$$
74:0
     RDKit          3D

 35 36  0  0  0  0  0  0  0  0999 V2000
   -3.9280   25.6720  -30.8510 N   0  0  0  0  0  0  0  0  0  0  0  0
   -5.2390   25.2440  -30.4910 C   0  0  0  0  0  0  0  0  0  0  0  0
   -5.9420   25.9700  -29.7410 O   0  0  0  0  0  0  0  0  0  0  0  0
   -5.7420   23.9370  -30.9640 C   0  0  0  0  0  0  0  0  0  0  0  0
   -7.0960   23.6170  -31.0400 C   0  0  0  0  0  0  0  0  0  0  0  0
   -7.1420   22.3590  -31.5980 C   0  0  0  0  0  0  0  0  0  0  0  0
   -8.2350   21.5450  -31.8780 C   0  0  0  0  0  0  0  0  0  0  0  0
   -7.9860   20.2730  -32.4200 C   0  0  0  0  0  0  0  0  0  0  0  0
   -6.6590   19.8400  -32.6800 C   0  0  0  0  0  0  0  0  0  0  0  0
   -6.4040   18.4490  -33.2010 C   0  0  0  0  0  0  0  0  0  0  0  0
   -5.3590   17.8550  -32.5140 F   0  0  0  0  0  0  0  0  0  0  0  0
   -6.0730   18.4840  -34.5450 F   0  0  0  0  0  0  0  0  0  0  0  0
   -7.5440   17.6850  -33.0360 F   0  0  0  0  0  0  0  0  0  0  0  0
   -5.5760   20.6900  -32.3580 C   0  0  0  0  0  0  0  0  0  0  0  0
   -5.8540   21.9600  -31.8380 C   0  0  0  0  0  0  0  0  0  0  0  0
   -4.9820   22.9160  -31.4520 N   0  0  0  0  0  0  0  0  0  0  0  0
   -3.5490   22.8220  -31.4740 C   0  0  0  0  0  0  0  0  0  0  0  0
   -2.9720   22.2450  -32.4360 O   0  0  0  0  0  0  0  0  0  0  0  0
   -2.8010   23.3530  -30.4160 O   0  0  0  0  0  0  0  0  0  0  0  0
   -1.7370   22.6530  -29.7750 C   0  0  0  0  0  0  0  0  0  0  0  0
   -1.3620   23.3100  -28.4400 C   0  0  0  0  0  0  0  0  0  0  0  0
   -2.0670   24.6570  -28.2300 C   0  0  0  0  0  0  0  0  0  0  0  0
   -1.4900   25.6550  -29.0280 O   0  0  0  0  0  0  0  0  0  0  0  0
   -3.0840   25.2650  -30.3890 H   0  0  0  0  0  0  0  0  0  0  0  0
   -7.9470   24.2373  -30.7220 H   0  0  0  0  0  0  0  0  0  0  0  0
   -9.2619   21.8866  -31.6812 H   0  0  0  0  0  0  0  0  0  0  0  0
   -8.8296   19.6042  -32.6458 H   0  0  0  0  0  0  0  0  0  0  0  0
   -4.5379   20.3608  -32.5126 H   0  0  0  0  0  0  0  0  0  0  0  0
   -2.0519   21.6158  -29.5880 H   0  0  0  0  0  0  0  0  0  0  0  0
   -0.8569   22.6796  -30.4344 H   0  0  0  0  0  0  0  0  0  0  0  0
   -1.6451   22.6321  -27.6213 H   0  0  0  0  0  0  0  0  0  0  0  0
   -0.2783   23.4981  -28.4525 H   0  0  0  0  0  0  0  0  0  0  0  0
   -3.1292   24.5526  -28.4963 H   0  0  0  0  0  0  0  0  0  0  0  0
   -1.9615   24.9473  -27.1743 H   0  0  0  0  0  0  0  0  0  0  0  0
   -2.0080   25.6760  -29.8740 H   0  0  0  0  0  0  0  0  0  0  0  0
  1  2  1  0
  2  3  2  0
  2  4  1  0
  4  5  2  0
  5  6  1  0
  6  7  2  0
  7  8  1  0
  8  9  2  0
  9 10  1  0
 10 11  1  0
 10 12  1  0
 10 13  1  0
  9 14  1  0
 14 15  2  0
 15 16  1  0
 16 17  1  0
 17 18  2  0
 17 19  1  0
 19 20  1  0
 20 21  1  0
 21 22  1  0
 22 23  1  0
 16  4  1  0
 15  6  1  0
  1 24  1  0
  5 25  1  0
  7 26  1  0
  8 27  1  0
 14 28  1  0
 20 29  1  0
 20 30  1  0
 21 31  1  0
 21 32  1  0
 22 33  1  0
 22 34  1  0
 23 35  1  0
M  CHG  1   1  -1
M  END
>  <UniqueID>  (74) 
73

>  <SMILES>  (74) 
[NH-]C(=O)c1cc2ccc(C(F)(F)F)cc2n1C(=O)OCCCO

>  <Energy>  (74) 
69.16660756001009

>  <Genealogy>  (74) 
[NH-]C(=O)c1cc2ccc(C(F)(F)F)cc2n1C(=O)OCCCO (protonated)
[NH-]C(=O)c1cc2ccc(C(F)(F)F)cc2n1C(=O)OCCCO (3D coordinates assigned)
[NH-]C(=O)c1cc2ccc(C(F)(F)F)cc2n1C(=O)OCCCO (optimized conformer: 69.16660756001009 kcal/mol)

>  <smiles>  (74) 
NC(=O)c1cc2ccc(C(F)(F)F)cc2n1C(=O)OCCCO

>  <score_type>  (74) 
oracle

>  <origin>  (74) 
adg

>  <m_score__min__energy>  (74) 
-10.17

>  <m_primary>  (74) 
energy

$$$$
75:0
     RDKit          3D

 51 53  0  0  0  0  0  0  0  0999 V2000
   -4.5860   13.4150  -31.3130 C   0  0  0  0  0  0  0  0  0  0  0  0
   -3.3960   14.0020  -32.0660 C   0  0  0  0  0  0  0  0  0  0  0  0
   -3.8330   14.9390  -33.0490 O   0  0  0  0  0  0  0  0  0  0  0  0
   -3.4560   16.2880  -33.0550 C   0  0  0  0  0  0  0  0  0  0  0  0
   -2.2340   16.6070  -33.0380 O   0  0  0  0  0  0  0  0  0  0  0  0
   -4.4750   17.3080  -33.1000 N   0  0  1  0  0  0  0  0  0  0  0  0
   -5.1410   17.3010  -34.4170 C   0  0  0  0  0  0  0  0  0  0  0  0
   -6.1030   18.4880  -34.5260 C   0  0  0  0  0  0  0  0  0  0  0  0
   -7.1310   18.5200  -33.3660 C   0  0  2  0  0  0  0  0  0  0  0  0
   -7.2490   19.9010  -32.7410 C   0  0  0  0  0  0  0  0  0  0  0  0
   -8.5180   20.4930  -32.4970 C   0  0  0  0  0  0  0  0  0  0  0  0
   -8.6190   21.7750  -31.9320 C   0  0  0  0  0  0  0  0  0  0  0  0
   -7.4410   22.4400  -31.6060 C   0  0  0  0  0  0  0  0  0  0  0  0
   -7.2480   23.6870  -31.0550 C   0  0  0  0  0  0  0  0  0  0  0  0
   -5.8660   23.8320  -30.9380 C   0  0  0  0  0  0  0  0  0  0  0  0
   -5.2140   25.0210  -30.3480 C   0  0  0  0  0  0  0  0  0  0  0  0
   -3.8340   25.2930  -30.5690 N   0  0  0  0  0  0  0  0  0  0  0  0
   -5.8860   25.8040  -29.6260 O   0  0  0  0  0  0  0  0  0  0  0  0
   -5.2340   22.7140  -31.3980 N   0  0  0  0  0  0  0  0  0  0  0  0
   -3.8210   22.4640  -31.4530 C   0  0  0  0  0  0  0  0  0  0  0  0
   -3.1180   22.6090  -30.4150 O   0  0  0  0  0  0  0  0  0  0  0  0
   -3.1800   21.9870  -32.7210 C   0  0  0  0  0  0  0  0  0  0  0  0
   -3.2130   20.4950  -32.7830 C   0  0  0  0  0  0  0  0  0  0  0  0
   -3.1280   19.9040  -33.8910 O   0  0  0  0  0  0  0  0  0  0  0  0
   -3.3230   19.7540  -31.6140 O   0  0  0  0  0  0  0  0  0  0  0  0
   -6.2100   21.8760  -31.8080 C   0  0  0  0  0  0  0  0  0  0  0  0
   -6.0760   20.6150  -32.3950 C   0  0  0  0  0  0  0  0  0  0  0  0
   -6.8990   17.4190  -32.3040 C   0  0  0  0  0  0  0  0  0  0  0  0
   -5.4150   17.1620  -31.9540 C   0  0  0  0  0  0  0  0  0  0  0  0
   -4.4129   13.5004  -30.2301 H   0  0  0  0  0  0  0  0  0  0  0  0
   -5.4988   13.9662  -31.5830 H   0  0  0  0  0  0  0  0  0  0  0  0
   -4.7042   12.3552  -31.5830 H   0  0  0  0  0  0  0  0  0  0  0  0
   -2.7324   14.5113  -31.3517 H   0  0  0  0  0  0  0  0  0  0  0  0
   -2.8592   13.1851  -32.5705 H   0  0  0  0  0  0  0  0  0  0  0  0
   -3.9840   18.2290  -33.0040 H   0  0  0  0  0  0  0  0  0  0  0  0
   -5.7046   16.3638  -34.5348 H   0  0  0  0  0  0  0  0  0  0  0  0
   -4.3792   17.3810  -35.2064 H   0  0  0  0  0  0  0  0  0  0  0  0
   -6.6472   18.4160  -35.4792 H   0  0  0  0  0  0  0  0  0  0  0  0
   -5.5066   19.4108  -34.4729 H   0  0  0  0  0  0  0  0  0  0  0  0
   -8.1022   18.2875  -33.8272 H   0  0  0  0  0  0  0  0  0  0  0  0
   -9.4333   19.9397  -32.7541 H   0  0  0  0  0  0  0  0  0  0  0  0
   -9.5999   22.2393  -31.7526 H   0  0  0  0  0  0  0  0  0  0  0  0
   -8.0208   24.4152  -30.7677 H   0  0  0  0  0  0  0  0  0  0  0  0
   -3.5320   26.0520  -31.2190 H   0  0  0  0  0  0  0  0  0  0  0  0
   -3.7263   22.3991  -33.5822 H   0  0  0  0  0  0  0  0  0  0  0  0
   -2.1336   22.3253  -32.7449 H   0  0  0  0  0  0  0  0  0  0  0  0
   -5.0808   20.1862  -32.5842 H   0  0  0  0  0  0  0  0  0  0  0  0
   -7.3291   16.4805  -32.6837 H   0  0  0  0  0  0  0  0  0  0  0  0
   -7.3797   17.7723  -31.3798 H   0  0  0  0  0  0  0  0  0  0  0  0
   -5.3264   16.1367  -31.5656 H   0  0  0  0  0  0  0  0  0  0  0  0
   -5.1306   17.9276  -31.2172 H   0  0  0  0  0  0  0  0  0  0  0  0
  1  2  1  0
  2  3  1  0
  3  4  1  0
  4  5  2  0
  4  6  1  0
  6  7  1  0
  7  8  1  0
  8  9  1  0
  9 10  1  0
 10 11  2  0
 11 12  1  0
 12 13  2  0
 13 14  1  0
 14 15  2  0
 15 16  1  0
 16 17  1  0
 16 18  2  0
 15 19  1  0
 19 20  1  0
 20 21  2  0
 20 22  1  0
 22 23  1  0
 23 24  2  0
 23 25  1  0
 19 26  1  0
 26 27  2  0
  9 28  1  0
 28 29  1  0
 29  6  1  0
 27 10  1  0
 26 13  1  0
  1 30  1  0
  1 31  1  0
  1 32  1  0
  2 33  1  0
  2 34  1  0
  6 35  1  1
  7 36  1  0
  7 37  1  0
  8 38  1  0
  8 39  1  0
  9 40  1  6
 11 41  1  0
 12 42  1  0
 14 43  1  0
 17 44  1  0
 22 45  1  0
 22 46  1  0
 27 47  1  0
 28 48  1  0
 28 49  1  0
 29 50  1  0
 29 51  1  0
M  CHG  3   6   1  17  -1  25  -1
M  END
>  <UniqueID>  (75) 
74

>  <SMILES>  (75) 
CCOC(=O)[NH+]1CCC(c2ccc3cc(C([NH-])=O)n(C(=O)CC(=O)[O-])c3c2)CC1

>  <Energy>  (75) 
98.25096906210008

>  <Genealogy>  (75) 
CCOC(=O)[NH+]1CCC(c2ccc3cc(C([NH-])=O)n(C(=O)CC(=O)[O-])c3c2)CC1 (protonated)
CCOC(=O)[NH+]1CCC(c2ccc3cc(C([NH-])=O)n(C(=O)CC(=O)[O-])c3c2)CC1 (3D coordinates assigned)
CCOC(=O)[NH+]1CCC(c2ccc3cc(C([NH-])=O)n(C(=O)CC(=O)[O-])c3c2)CC1 (nonaromatic ring conformer: 98.25096906210008 kcal/mol)

>  <smiles>  (75) 
CCOC(=O)N1CCC(c2ccc3cc(C(N)=O)n(C(=O)CC(=O)O)c3c2)CC1

>  <score_type>  (75) 
oracle

>  <origin>  (75) 
adg

>  <m_score__min__energy>  (75) 
-10.630000000000001

>  <m_primary>  (75) 
energy

$$$$
76:0
     RDKit          3D

 35 37  0  0  0  0  0  0  0  0999 V2000
   -7.2620   14.8600  -34.5590 C   0  0  0  0  0  0  0  0  0  0  0  0
   -6.8840   16.2290  -34.4880 O   0  0  0  0  0  0  0  0  0  0  0  0
   -5.5490   16.6440  -34.5090 C   0  0  0  0  0  0  0  0  0  0  0  0
   -4.6600   15.9090  -35.0210 O   0  0  0  0  0  0  0  0  0  0  0  0
   -5.1910   17.9120  -33.9440 N   0  0  0  0  0  0  0  0  0  0  0  0
   -4.0790   18.1850  -33.2340 C   0  0  0  0  0  0  0  0  0  0  0  0
   -4.1090   19.5250  -32.8730 C   0  0  0  0  0  0  0  0  0  0  0  0
   -3.0960   20.2750  -32.0860 C   0  0  0  0  0  0  0  0  0  0  0  0
   -1.7880   19.7460  -31.9080 C   0  0  0  0  0  0  0  0  0  0  0  0
   -0.8260   20.4400  -31.1570 C   0  0  0  0  0  0  0  0  0  0  0  0
   -1.1880   21.6620  -30.6020 C   0  0  0  0  0  0  0  0  0  0  0  0
   -0.4610   22.5240  -29.8130 C   0  0  0  0  0  0  0  0  0  0  0  0
   -1.3210   23.5850  -29.5380 C   0  0  0  0  0  0  0  0  0  0  0  0
   -0.9100   24.7870  -28.7840 C   0  0  0  0  0  0  0  0  0  0  0  0
   -1.6110   26.0190  -28.9300 N   0  0  0  0  0  0  0  0  0  0  0  0
    0.1050   24.7390  -28.0370 O   0  0  0  0  0  0  0  0  0  0  0  0
   -2.5350   23.3820  -30.1240 N   0  0  0  0  0  0  0  0  0  0  0  0
   -3.7140   24.1920  -30.0000 C   0  0  0  0  0  0  0  0  0  0  0  0
   -4.6450   23.8460  -29.2270 O   0  0  0  0  0  0  0  0  0  0  0  0
   -3.8280   25.3800  -30.7120 O   0  0  0  0  0  0  0  0  0  0  0  0
   -2.4350   22.2000  -30.7740 C   0  0  0  0  0  0  0  0  0  0  0  0
   -3.4210   21.5220  -31.5020 C   0  0  0  0  0  0  0  0  0  0  0  0
   -5.2940   20.0120  -33.4100 C   0  0  0  0  0  0  0  0  0  0  0  0
   -5.9220   19.0100  -34.0500 N   0  0  0  0  0  0  0  0  0  0  0  0
   -7.3732   14.4571  -33.5415 H   0  0  0  0  0  0  0  0  0  0  0  0
   -8.2183   14.7710  -35.0952 H   0  0  0  0  0  0  0  0  0  0  0  0
   -6.4868   14.2929  -35.0952 H   0  0  0  0  0  0  0  0  0  0  0  0
   -3.2831   17.4683  -32.9832 H   0  0  0  0  0  0  0  0  0  0  0  0
   -1.5265   18.7801  -32.3648 H   0  0  0  0  0  0  0  0  0  0  0  0
    0.1840   20.0290  -31.0121 H   0  0  0  0  0  0  0  0  0  0  0  0
    0.5777   22.4014  -29.4722 H   0  0  0  0  0  0  0  0  0  0  0  0
   -2.6540   26.0410  -28.9710 H   0  0  0  0  0  0  0  0  0  0  0  0
   -4.4276   21.9504  -31.6173 H   0  0  0  0  0  0  0  0  0  0  0  0
   -5.6584   21.0465  -33.3256 H   0  0  0  0  0  0  0  0  0  0  0  0
   -6.8370   19.0790  -34.5480 H   0  0  0  0  0  0  0  0  0  0  0  0
  1  2  1  0
  2  3  1  0
  3  4  2  0
  3  5  1  0
  5  6  1  0
  6  7  2  0
  7  8  1  0
  8  9  2  0
  9 10  1  0
 10 11  2  0
 11 12  1  0
 12 13  2  0
 13 14  1  0
 14 15  1  0
 14 16  2  0
 13 17  1  0
 17 18  1  0
 18 19  2  0
 18 20  1  0
 17 21  1  0
 21 22  2  0
  7 23  1  0
 23 24  2  0
 24  5  1  0
 22  8  1  0
 21 11  1  0
  1 25  1  0
  1 26  1  0
  1 27  1  0
  6 28  1  0
  9 29  1  0
 10 30  1  0
 12 31  1  0
 15 32  1  0
 22 33  1  0
 23 34  1  0
 24 35  1  0
M  CHG  3  15  -1  20  -1  24   1
M  END
>  <UniqueID>  (76) 
75

>  <SMILES>  (76) 
COC(=O)n1cc(-c2ccc3cc(C([NH-])=O)n(C(=O)[O-])c3c2)c[nH+]1

>  <Energy>  (76) 
107.73063084626477

>  <Genealogy>  (76) 
COC(=O)n1cc(-c2ccc3cc(C([NH-])=O)n(C(=O)[O-])c3c2)c[nH+]1 (protonated)
COC(=O)n1cc(-c2ccc3cc(C([NH-])=O)n(C(=O)[O-])c3c2)c[nH+]1 (3D coordinates assigned)
COC(=O)n1cc(-c2ccc3cc(C([NH-])=O)n(C(=O)[O-])c3c2)c[nH+]1 (optimized conformer: 107.73063084626477 kcal/mol)

>  <smiles>  (76) 
COC(=O)n1cc(-c2ccc3cc(C(N)=O)n(C(=O)O)c3c2)cn1

>  <score_type>  (76) 
oracle

>  <origin>  (76) 
adg

>  <m_score__min__energy>  (76) 
-11.16

>  <m_primary>  (76) 
energy

$$$$
77:0
     RDKit          3D

 37 39  0  0  0  0  0  0  0  0999 V2000
   -4.0050   25.6590  -30.8310 N   0  0  0  0  0  0  0  0  0  0  0  0
   -5.2600   25.0530  -30.5350 C   0  0  0  0  0  0  0  0  0  0  0  0
   -6.0320   25.6060  -29.7070 O   0  0  0  0  0  0  0  0  0  0  0  0
   -5.6430   23.7600  -31.1410 C   0  0  0  0  0  0  0  0  0  0  0  0
   -6.9580   23.4220  -31.4530 C   0  0  0  0  0  0  0  0  0  0  0  0
   -6.9030   22.1230  -31.9030 C   0  0  0  0  0  0  0  0  0  0  0  0
   -7.9200   21.2890  -32.3530 C   0  0  0  0  0  0  0  0  0  0  0  0
   -7.5730   19.9970  -32.7840 C   0  0  0  0  0  0  0  0  0  0  0  0
   -6.2210   19.5640  -32.7670 C   0  0  0  0  0  0  0  0  0  0  0  0
   -5.8640   18.2010  -33.2350 C   0  0  0  0  0  0  0  0  0  0  0  0
   -6.8550   17.2270  -33.4410 C   0  0  0  0  0  0  0  0  0  0  0  0
   -6.5050   15.9520  -33.8830 C   0  0  0  0  0  0  0  0  0  0  0  0
   -5.1620   15.6530  -34.1190 C   0  0  0  0  0  0  0  0  0  0  0  0
   -4.2070   16.6010  -33.9190 N   0  0  0  0  0  0  0  0  0  0  0  0
   -4.5250   17.8520  -33.4870 C   0  0  0  0  0  0  0  0  0  0  0  0
   -5.2160   20.4460  -32.3020 C   0  0  0  0  0  0  0  0  0  0  0  0
   -5.5940   21.7190  -31.8610 C   0  0  0  0  0  0  0  0  0  0  0  0
   -4.8060   22.7150  -31.3980 N   0  0  0  0  0  0  0  0  0  0  0  0
   -3.3730   22.6840  -31.2930 C   0  0  0  0  0  0  0  0  0  0  0  0
   -2.6830   22.2090  -32.2360 O   0  0  0  0  0  0  0  0  0  0  0  0
   -2.7540   23.1530  -30.1320 O   0  0  0  0  0  0  0  0  0  0  0  0
   -1.3430   23.1470  -29.9560 C   0  0  0  0  0  0  0  0  0  0  0  0
   -0.9310   24.3900  -29.2440 C   0  0  0  0  0  0  0  0  0  0  0  0
   -1.6450   25.4260  -29.3160 O   0  0  0  0  0  0  0  0  0  0  0  0
    0.2670   24.4290  -28.5440 O   0  0  0  0  0  0  0  0  0  0  0  0
   -3.1140   25.2520  -30.4700 H   0  0  0  0  0  0  0  0  0  0  0  0
   -7.8504   24.0583  -31.3595 H   0  0  0  0  0  0  0  0  0  0  0  0
   -8.9656   21.6302  -32.3712 H   0  0  0  0  0  0  0  0  0  0  0  0
   -8.3582   19.3132  -33.1387 H   0  0  0  0  0  0  0  0  0  0  0  0
   -7.9109   17.4712  -33.2529 H   0  0  0  0  0  0  0  0  0  0  0  0
   -7.2802   15.1884  -34.0444 H   0  0  0  0  0  0  0  0  0  0  0  0
   -4.8756   14.6496  -34.4671 H   0  0  0  0  0  0  0  0  0  0  0  0
   -3.2070   16.3640  -34.1050 H   0  0  0  0  0  0  0  0  0  0  0  0
   -3.7289   18.5955  -33.3338 H   0  0  0  0  0  0  0  0  0  0  0  0
   -4.1604   20.1371  -32.2877 H   0  0  0  0  0  0  0  0  0  0  0  0
   -1.0504   22.2688  -29.3617 H   0  0  0  0  0  0  0  0  0  0  0  0
   -0.8490   23.1033  -30.9379 H   0  0  0  0  0  0  0  0  0  0  0  0
  1  2  1  0
  2  3  2  0
  2  4  1  0
  4  5  2  0
  5  6  1  0
  6  7  2  0
  7  8  1  0
  8  9  2  0
  9 10  1  0
 10 11  2  0
 11 12  1  0
 12 13  2  0
 13 14  1  0
 14 15  2  0
  9 16  1  0
 16 17  2  0
 17 18  1  0
 18 19  1  0
 19 20  2  0
 19 21  1  0
 21 22  1  0
 22 23  1  0
 23 24  2  0
 23 25  1  0
 18  4  1  0
 17  6  1  0
 15 10  1  0
  1 26  1  0
  5 27  1  0
  7 28  1  0
  8 29  1  0
 11 30  1  0
 12 31  1  0
 13 32  1  0
 14 33  1  0
 15 34  1  0
 16 35  1  0
 22 36  1  0
 22 37  1  0
M  CHG  3   1  -1  14   1  25  -1
M  END
>  <UniqueID>  (77) 
76

>  <SMILES>  (77) 
[NH-]C(=O)c1cc2ccc(-c3ccc[nH+]c3)cc2n1C(=O)OCC(=O)[O-]

>  <Energy>  (77) 
80.86138661634513

>  <Genealogy>  (77) 
[NH-]C(=O)c1cc2ccc(-c3ccc[nH+]c3)cc2n1C(=O)OCC(=O)[O-] (protonated)
[NH-]C(=O)c1cc2ccc(-c3ccc[nH+]c3)cc2n1C(=O)OCC(=O)[O-] (3D coordinates assigned)
[NH-]C(=O)c1cc2ccc(-c3ccc[nH+]c3)cc2n1C(=O)OCC(=O)[O-] (optimized conformer: 80.86138661634513 kcal/mol)

>  <smiles>  (77) 
NC(=O)c1cc2ccc(-c3cccnc3)cc2n1C(=O)OCC(=O)O

>  <score_type>  (77) 
oracle

>  <origin>  (77) 
adg

>  <m_score__min__energy>  (77) 
-12.529999999999999

>  <m_primary>  (77) 
energy

$$$$
78:0
     RDKit          3D

 46 47  0  0  0  0  0  0  0  0999 V2000
   -1.2120   25.7390  -27.8770 C   0  0  0  0  0  0  0  0  0  0  0  0
   -2.3530   25.6260  -26.8560 C   0  0  0  0  0  0  0  0  0  0  0  0
   -1.8380   25.9630  -25.4460 C   0  0  0  0  0  0  0  0  0  0  0  0
   -3.0780   24.2500  -26.9440 C   0  0  1  0  0  0  0  0  0  0  0  0
   -4.0870   24.1980  -28.0140 N   0  0  0  0  0  0  0  0  0  0  0  0
   -2.0820   23.1270  -27.0970 C   0  0  0  0  0  0  0  0  0  0  0  0
   -1.0990   23.0600  -26.3100 O   0  0  0  0  0  0  0  0  0  0  0  0
   -2.2220   22.2020  -28.1370 O   0  0  0  0  0  0  0  0  0  0  0  0
   -1.8830   22.4960  -29.4890 C   0  0  0  0  0  0  0  0  0  0  0  0
   -2.9770   23.1490  -30.1270 O   0  0  0  0  0  0  0  0  0  0  0  0
   -3.7420   22.5350  -31.1230 C   0  0  0  0  0  0  0  0  0  0  0  0
   -3.1880   21.8240  -32.0050 O   0  0  0  0  0  0  0  0  0  0  0  0
   -5.1620   22.7450  -31.1610 N   0  0  0  0  0  0  0  0  0  0  0  0
   -5.8390   23.8970  -30.8940 C   0  0  0  0  0  0  0  0  0  0  0  0
   -5.2610   25.1250  -30.3130 C   0  0  0  0  0  0  0  0  0  0  0  0
   -4.0410   25.6640  -30.8140 N   0  0  0  0  0  0  0  0  0  0  0  0
   -5.8230   25.6740  -29.3280 O   0  0  0  0  0  0  0  0  0  0  0  0
   -7.1970   23.7400  -31.1600 C   0  0  0  0  0  0  0  0  0  0  0  0
   -7.3350   22.4410  -31.5950 C   0  0  0  0  0  0  0  0  0  0  0  0
   -8.4720   21.7480  -31.9970 C   0  0  0  0  0  0  0  0  0  0  0  0
   -8.3170   20.4180  -32.4220 C   0  0  0  0  0  0  0  0  0  0  0  0
   -7.0330   19.8140  -32.4630 C   0  0  0  0  0  0  0  0  0  0  0  0
   -6.8870   18.3740  -32.8860 C   0  0  0  0  0  0  0  0  0  0  0  0
   -5.9050   17.7430  -32.1420 F   0  0  0  0  0  0  0  0  0  0  0  0
   -8.0890   17.7190  -32.6940 F   0  0  0  0  0  0  0  0  0  0  0  0
   -6.5360   18.2900  -34.2230 F   0  0  0  0  0  0  0  0  0  0  0  0
   -5.9060   20.5450  -32.0240 C   0  0  0  0  0  0  0  0  0  0  0  0
   -6.0930   21.8630  -31.5890 C   0  0  0  0  0  0  0  0  0  0  0  0
   -0.2532   25.8340  -27.3463 H   0  0  0  0  0  0  0  0  0  0  0  0
   -1.1941   24.8382  -28.5081 H   0  0  0  0  0  0  0  0  0  0  0  0
   -1.3712   26.6258  -28.5081 H   0  0  0  0  0  0  0  0  0  0  0  0
   -3.1248   26.3703  -27.1017 H   0  0  0  0  0  0  0  0  0  0  0  0
   -2.5106   25.5229  -24.6951 H   0  0  0  0  0  0  0  0  0  0  0  0
   -0.8258   25.5520  -25.3174 H   0  0  0  0  0  0  0  0  0  0  0  0
   -1.8094   27.0551  -25.3174 H   0  0  0  0  0  0  0  0  0  0  0  0
   -3.6189   24.1225  -25.9947 H   0  0  0  0  0  0  0  0  0  0  0  0
   -5.0360   24.4540  -27.6590 H   0  0  0  0  0  0  0  0  0  0  0  0
   -4.1200   23.2430  -28.4370 H   0  0  0  0  0  0  0  0  0  0  0  0
   -3.8250   24.8700  -28.7720 H   0  0  0  0  0  0  0  0  0  0  0  0
   -1.0016   23.1538  -29.5103 H   0  0  0  0  0  0  0  0  0  0  0  0
   -1.6576   21.5594  -30.0201 H   0  0  0  0  0  0  0  0  0  0  0  0
   -3.1200   25.2830  -30.5030 H   0  0  0  0  0  0  0  0  0  0  0  0
   -7.9904   24.4934  -31.0467 H   0  0  0  0  0  0  0  0  0  0  0  0
   -9.4623   22.2267  -31.9826 H   0  0  0  0  0  0  0  0  0  0  0  0
   -9.2007   19.8380  -32.7265 H   0  0  0  0  0  0  0  0  0  0  0  0
   -4.9049   20.0892  -32.0240 H   0  0  0  0  0  0  0  0  0  0  0  0
  1  2  1  0
  2  3  1  0
  2  4  1  0
  4  5  1  0
  4  6  1  0
  6  7  2  0
  6  8  1  0
  8  9  1  0
  9 10  1  0
 10 11  1  0
 11 12  2  0
 11 13  1  0
 13 14  1  0
 14 15  1  0
 15 16  1  0
 15 17  2  0
 14 18  2  0
 18 19  1  0
 19 20  2  0
 20 21  1  0
 21 22  2  0
 22 23  1  0
 23 24  1  0
 23 25  1  0
 23 26  1  0
 22 27  1  0
 27 28  2  0
 28 13  1  0
 28 19  1  0
  1 29  1  0
  1 30  1  0
  1 31  1  0
  2 32  1  0
  3 33  1  0
  3 34  1  0
  3 35  1  0
  4 36  1  1
  5 37  1  0
  5 38  1  0
  5 39  1  0
  9 40  1  0
  9 41  1  0
 16 42  1  0
 18 43  1  0
 20 44  1  0
 21 45  1  0
 27 46  1  0
M  CHG  2   5   1  16  -1
M  END
>  <UniqueID>  (78) 
77

>  <SMILES>  (78) 
CC(C)[C@@H]([NH3+])C(=O)OCOC(=O)n1c(C([NH-])=O)cc2ccc(C(F)(F)F)cc21

>  <Energy>  (78) 
78.64519982410147

>  <Genealogy>  (78) 
CC(C)[C@@H]([NH3+])C(=O)OCOC(=O)n1c(C([NH-])=O)cc2ccc(C(F)(F)F)cc21 (protonated)
CC(C)[C@@H]([NH3+])C(=O)OCOC(=O)n1c(C([NH-])=O)cc2ccc(C(F)(F)F)cc21 (3D coordinates assigned)
CC(C)[C@@H]([NH3+])C(=O)OCOC(=O)n1c(C([NH-])=O)cc2ccc(C(F)(F)F)cc21 (optimized conformer: 78.64519982410147 kcal/mol)

>  <smiles>  (78) 
CC(C)[C@@H](N)C(=O)OCOC(=O)n1c(C(N)=O)cc2ccc(C(F)(F)F)cc21

>  <score_type>  (78) 
oracle

>  <origin>  (78) 
adg

>  <m_score__min__energy>  (78) 
-9.0099999999999998

>  <m_primary>  (78) 
energy

$$$$
79:0
     RDKit          3D

 46 47  0  0  0  0  0  0  0  0999 V2000
   -7.3370   17.8300  -33.0150 C   0  0  0  0  0  0  0  0  0  0  0  0
   -7.4810   19.1960  -32.4120 C   0  0  0  0  0  0  0  0  0  0  0  0
   -8.7700   19.7240  -32.1490 C   0  0  0  0  0  0  0  0  0  0  0  0
   -8.9190   21.0220  -31.6320 C   0  0  0  0  0  0  0  0  0  0  0  0
   -7.7670   21.7680  -31.3990 C   0  0  0  0  0  0  0  0  0  0  0  0
   -7.6220   23.0540  -30.9300 C   0  0  0  0  0  0  0  0  0  0  0  0
   -6.2480   23.2900  -30.9150 C   0  0  0  0  0  0  0  0  0  0  0  0
   -5.6210   24.5320  -30.4090 C   0  0  0  0  0  0  0  0  0  0  0  0
   -5.4730   24.7600  -29.0060 N   0  0  0  0  0  0  0  0  0  0  0  0
   -5.1920   25.3970  -31.2180 O   0  0  0  0  0  0  0  0  0  0  0  0
   -5.5730   22.1930  -31.3610 N   0  0  0  0  0  0  0  0  0  0  0  0
   -4.1540   22.0390  -31.5390 C   0  0  0  0  0  0  0  0  0  0  0  0
   -3.6360   22.3660  -32.6400 O   0  0  0  0  0  0  0  0  0  0  0  0
   -3.3210   21.5650  -30.4580 N   0  0  0  0  0  0  0  0  0  0  0  0
   -2.2310   20.6260  -30.7450 C   0  0  0  0  0  0  0  0  0  0  0  0
   -3.5340   21.9870  -29.0910 C   0  0  0  0  0  0  0  0  0  0  0  0
   -4.6920   22.3010  -28.7070 O   0  0  0  0  0  0  0  0  0  0  0  0
   -2.4480   21.9610  -28.0970 C   0  0  0  0  0  0  0  0  0  0  0  0
   -2.2500   20.8950  -27.4590 O   0  0  0  0  0  0  0  0  0  0  0  0
   -1.6020   23.0910  -27.8210 N   0  0  0  0  0  0  0  0  0  0  0  0
   -1.9410   24.4770  -27.4560 C   0  0  0  0  0  0  0  0  0  0  0  0
   -3.3370   24.5470  -26.8090 C   0  0  0  0  0  0  0  0  0  0  0  0
   -0.8730   25.0610  -26.5150 C   0  0  0  0  0  0  0  0  0  0  0  0
   -1.9670   25.3070  -28.7220 C   0  0  0  0  0  0  0  0  0  0  0  0
   -1.0060   26.0680  -29.0170 O   0  0  0  0  0  0  0  0  0  0  0  0
   -3.0490   25.2210  -29.5920 O   0  0  0  0  0  0  0  0  0  0  0  0
   -6.5150   21.2700  -31.6500 C   0  0  0  0  0  0  0  0  0  0  0  0
   -6.3350   19.9870  -32.1750 C   0  0  0  0  0  0  0  0  0  0  0  0
   -7.2581   17.0815  -32.2128 H   0  0  0  0  0  0  0  0  0  0  0  0
   -8.2169   17.6092  -33.6372 H   0  0  0  0  0  0  0  0  0  0  0  0
   -6.4305   17.7976  -33.6372 H   0  0  0  0  0  0  0  0  0  0  0  0
   -9.6614   19.1122  -32.3514 H   0  0  0  0  0  0  0  0  0  0  0  0
   -9.9154   21.4360  -31.4179 H   0  0  0  0  0  0  0  0  0  0  0  0
   -8.4209   23.7483  -30.6305 H   0  0  0  0  0  0  0  0  0  0  0  0
   -5.0020   25.6270  -28.6650 H   0  0  0  0  0  0  0  0  0  0  0  0
   -5.8650   24.0970  -28.3020 H   0  0  0  0  0  0  0  0  0  0  0  0
   -1.8049   20.2589  -29.7997 H   0  0  0  0  0  0  0  0  0  0  0  0
   -2.6216   19.7771  -31.3253 H   0  0  0  0  0  0  0  0  0  0  0  0
   -1.4492   21.1380  -31.3253 H   0  0  0  0  0  0  0  0  0  0  0  0
   -3.2342   24.5418  -25.7138 H   0  0  0  0  0  0  0  0  0  0  0  0
   -3.8419   25.4716  -27.1256 H   0  0  0  0  0  0  0  0  0  0  0  0
   -3.9319   23.6776  -27.1256 H   0  0  0  0  0  0  0  0  0  0  0  0
   -1.1750   24.8959  -25.4702 H   0  0  0  0  0  0  0  0  0  0  0  0
    0.0907   24.5643  -26.7010 H   0  0  0  0  0  0  0  0  0  0  0  0
   -0.7711   26.1404  -26.7010 H   0  0  0  0  0  0  0  0  0  0  0  0
   -5.3282   19.6038  -32.3975 H   0  0  0  0  0  0  0  0  0  0  0  0
  1  2  1  0
  2  3  2  0
  3  4  1  0
  4  5  2  0
  5  6  1  0
  6  7  2  0
  7  8  1  0
  8  9  1  0
  8 10  2  0
  7 11  1  0
 11 12  1  0
 12 13  2  0
 12 14  1  0
 14 15  1  0
 14 16  1  0
 16 17  2  0
 16 18  1  0
 18 19  2  0
 18 20  1  0
 20 21  1  0
 21 22  1  0
 21 23  1  0
 21 24  1  0
 24 25  2  0
 24 26  1  0
 11 27  1  0
 27 28  2  0
 28  2  1  0
 27  5  1  0
  1 29  1  0
  1 30  1  0
  1 31  1  0
  3 32  1  0
  4 33  1  0
  6 34  1  0
  9 35  1  0
  9 36  1  0
 15 37  1  0
 15 38  1  0
 15 39  1  0
 22 40  1  0
 22 41  1  0
 22 42  1  0
 23 43  1  0
 23 44  1  0
 23 45  1  0
 28 46  1  0
M  CHG  2  20  -1  26  -1
M  END
>  <UniqueID>  (79) 
78

>  <SMILES>  (79) 
Cc1ccc2cc(C(N)=O)n(C(=O)N(C)C(=O)C(=O)[N-]C(C)(C)C(=O)[O-])c2c1

>  <Energy>  (79) 
93.17327130690829

>  <Genealogy>  (79) 
Cc1ccc2cc(C(N)=O)n(C(=O)N(C)C(=O)C(=O)[N-]C(C)(C)C(=O)[O-])c2c1 (protonated)
Cc1ccc2cc(C(N)=O)n(C(=O)N(C)C(=O)C(=O)[N-]C(C)(C)C(=O)[O-])c2c1 (3D coordinates assigned)
Cc1ccc2cc(C(N)=O)n(C(=O)N(C)C(=O)C(=O)[N-]C(C)(C)C(=O)[O-])c2c1 (optimized conformer: 93.17327130690829 kcal/mol)

>  <smiles>  (79) 
Cc1ccc2cc(C(N)=O)n(C(=O)N(C)C(=O)C(=O)NC(C)(C)C(=O)O)c2c1

>  <score_type>  (79) 
oracle

>  <origin>  (79) 
adg

>  <m_score__min__energy>  (79) 
-12.57

>  <m_primary>  (79) 
energy

$$$$
80:0
     RDKit          3D

 43 44  0  0  0  0  0  0  0  0999 V2000
   -4.2350   22.6590  -27.9230 C   0  0  0  0  0  0  0  0  0  0  0  0
   -3.5830   23.9630  -27.4620 C   0  0  0  0  0  0  0  0  0  0  0  0
   -2.0520   23.8890  -27.4830 C   0  0  0  0  0  0  0  0  0  0  0  0
   -1.4880   24.4650  -28.7450 C   0  0  0  0  0  0  0  0  0  0  0  0
   -1.5260   25.7120  -28.9360 O   0  0  0  0  0  0  0  0  0  0  0  0
   -0.8940   23.6150  -29.6830 O   0  0  0  0  0  0  0  0  0  0  0  0
   -1.6330   22.6730  -30.4540 C   0  0  0  0  0  0  0  0  0  0  0  0
   -3.0000   23.0680  -30.5120 O   0  0  0  0  0  0  0  0  0  0  0  0
   -3.8390   22.7240  -31.5770 C   0  0  0  0  0  0  0  0  0  0  0  0
   -3.3640   22.1730  -32.6080 O   0  0  0  0  0  0  0  0  0  0  0  0
   -5.2510   22.9710  -31.4830 N   0  0  0  0  0  0  0  0  0  0  0  0
   -5.8740   24.0310  -30.8930 C   0  0  0  0  0  0  0  0  0  0  0  0
   -5.2080   25.2420  -30.3710 C   0  0  0  0  0  0  0  0  0  0  0  0
   -3.9070   25.5940  -30.8360 N   0  0  0  0  0  0  0  0  0  0  0  0
   -5.7610   25.9500  -29.4890 O   0  0  0  0  0  0  0  0  0  0  0  0
   -7.2560   23.8640  -30.9200 C   0  0  0  0  0  0  0  0  0  0  0  0
   -7.4660   22.6620  -31.5570 C   0  0  0  0  0  0  0  0  0  0  0  0
   -8.6540   21.9970  -31.8420 C   0  0  0  0  0  0  0  0  0  0  0  0
   -8.5720   20.7490  -32.4820 C   0  0  0  0  0  0  0  0  0  0  0  0
   -7.3140   20.1910  -32.8260 C   0  0  0  0  0  0  0  0  0  0  0  0
   -7.2420   18.8910  -33.4440 N   0  0  0  0  0  0  0  0  0  0  0  0
   -6.3600   18.0130  -32.6730 C   0  0  0  0  0  0  0  0  0  0  0  0
   -6.1280   20.8940  -32.5090 C   0  0  0  0  0  0  0  0  0  0  0  0
   -6.2410   22.1430  -31.8870 C   0  0  0  0  0  0  0  0  0  0  0  0
   -4.5312   22.0666  -27.0447 H   0  0  0  0  0  0  0  0  0  0  0  0
   -5.1248   22.8878  -28.5280 H   0  0  0  0  0  0  0  0  0  0  0  0
   -3.5181   22.0845  -28.5280 H   0  0  0  0  0  0  0  0  0  0  0  0
   -3.9068   24.7753  -28.1294 H   0  0  0  0  0  0  0  0  0  0  0  0
   -3.8961   24.1462  -26.4236 H   0  0  0  0  0  0  0  0  0  0  0  0
   -1.6559   24.4526  -26.6255 H   0  0  0  0  0  0  0  0  0  0  0  0
   -1.7586   22.8303  -27.4276 H   0  0  0  0  0  0  0  0  0  0  0  0
   -1.2209   22.6309  -31.4730 H   0  0  0  0  0  0  0  0  0  0  0  0
   -1.5599   21.6807  -29.9849 H   0  0  0  0  0  0  0  0  0  0  0  0
   -3.0520   25.2320  -30.3600 H   0  0  0  0  0  0  0  0  0  0  0  0
   -8.0182   24.5475  -30.5177 H   0  0  0  0  0  0  0  0  0  0  0  0
   -9.6272   22.4345  -31.5747 H   0  0  0  0  0  0  0  0  0  0  0  0
   -9.4941   20.1981  -32.7191 H   0  0  0  0  0  0  0  0  0  0  0  0
   -8.1960   18.4640  -33.4950 H   0  0  0  0  0  0  0  0  0  0  0  0
   -6.8740   18.9770  -34.4210 H   0  0  0  0  0  0  0  0  0  0  0  0
   -6.5262   18.1784  -31.5983 H   0  0  0  0  0  0  0  0  0  0  0  0
   -6.5792   16.9639  -32.9207 H   0  0  0  0  0  0  0  0  0  0  0  0
   -5.3119   18.2370  -32.9207 H   0  0  0  0  0  0  0  0  0  0  0  0
   -5.1411   20.4696  -32.7455 H   0  0  0  0  0  0  0  0  0  0  0  0
  1  2  1  0
  2  3  1  0
  3  4  1  0
  4  5  2  0
  4  6  1  0
  6  7  1  0
  7  8  1  0
  8  9  1  0
  9 10  2  0
  9 11  1  0
 11 12  1  0
 12 13  1  0
 13 14  1  0
 13 15  2  0
 12 16  2  0
 16 17  1  0
 17 18  2  0
 18 19  1  0
 19 20  2  0
 20 21  1  0
 21 22  1  0
 20 23  1  0
 23 24  2  0
 24 11  1  0
 24 17  1  0
  1 25  1  0
  1 26  1  0
  1 27  1  0
  2 28  1  0
  2 29  1  0
  3 30  1  0
  3 31  1  0
  7 32  1  0
  7 33  1  0
 14 34  1  0
 16 35  1  0
 18 36  1  0
 19 37  1  0
 21 38  1  0
 21 39  1  0
 22 40  1  0
 22 41  1  0
 22 42  1  0
 23 43  1  0
M  CHG  2  14  -1  21   1
M  END
>  <UniqueID>  (80) 
79

>  <SMILES>  (80) 
CCCC(=O)OCOC(=O)n1c(C([NH-])=O)cc2ccc([NH2+]C)cc21

>  <Energy>  (80) 
72.1796072424167

>  <Genealogy>  (80) 
CCCC(=O)OCOC(=O)n1c(C([NH-])=O)cc2ccc([NH2+]C)cc21 (protonated)
CCCC(=O)OCOC(=O)n1c(C([NH-])=O)cc2ccc([NH2+]C)cc21 (3D coordinates assigned)
CCCC(=O)OCOC(=O)n1c(C([NH-])=O)cc2ccc([NH2+]C)cc21 (optimized conformer: 72.1796072424167 kcal/mol)

>  <smiles>  (80) 
CCCC(=O)OCOC(=O)n1c(C(N)=O)cc2ccc(NC)cc21

>  <score_type>  (80) 
oracle

>  <origin>  (80) 
adg

>  <m_score__min__energy>  (80) 
-9.75

>  <m_primary>  (80) 
energy

$$$$
81:0
     RDKit          3D

 43 44  0  0  0  0  0  0  0  0999 V2000
   -2.1600   25.6140  -26.4450 C   0  0  0  0  0  0  0  0  0  0  0  0
   -2.9200   24.6880  -27.2920 N   0  0  0  0  0  0  0  0  0  0  0  0
   -4.2290   24.1920  -26.8500 C   0  0  0  0  0  0  0  0  0  0  0  0
   -2.3610   24.2770  -28.5590 C   0  0  0  0  0  0  0  0  0  0  0  0
   -1.3620   24.8870  -29.0320 O   0  0  0  0  0  0  0  0  0  0  0  0
   -2.9090   23.1070  -29.3220 C   0  0  0  0  0  0  0  0  0  0  0  0
   -2.7930   23.3370  -30.7220 O   0  0  0  0  0  0  0  0  0  0  0  0
   -3.6980   22.8130  -31.6500 C   0  0  0  0  0  0  0  0  0  0  0  0
   -3.2740   22.1960  -32.6650 O   0  0  0  0  0  0  0  0  0  0  0  0
   -5.1120   22.9440  -31.4260 N   0  0  0  0  0  0  0  0  0  0  0  0
   -5.7670   23.9670  -30.8060 C   0  0  0  0  0  0  0  0  0  0  0  0
   -5.1810   25.2640  -30.4050 C   0  0  0  0  0  0  0  0  0  0  0  0
   -3.8850   25.6550  -30.8490 N   0  0  0  0  0  0  0  0  0  0  0  0
   -5.8600   26.0670  -29.7080 O   0  0  0  0  0  0  0  0  0  0  0  0
   -7.1230   23.6710  -30.6710 C   0  0  0  0  0  0  0  0  0  0  0  0
   -7.2820   22.4290  -31.2410 C   0  0  0  0  0  0  0  0  0  0  0  0
   -8.4250   21.6520  -31.3760 C   0  0  0  0  0  0  0  0  0  0  0  0
   -8.2990   20.3940  -31.9880 C   0  0  0  0  0  0  0  0  0  0  0  0
   -7.0370   19.9210  -32.4430 C   0  0  0  0  0  0  0  0  0  0  0  0
   -6.9160   18.6160  -33.0690 N   0  0  0  0  0  0  0  0  0  0  0  0
   -6.0910   18.4340  -34.2700 C   0  0  0  0  0  0  0  0  0  0  0  0
   -7.6100   17.4510  -32.5040 C   0  0  0  0  0  0  0  0  0  0  0  0
   -5.8970   20.7500  -32.2760 C   0  0  0  0  0  0  0  0  0  0  0  0
   -6.0570   22.0110  -31.6870 C   0  0  0  0  0  0  0  0  0  0  0  0
   -2.3499   25.3826  -25.3865 H   0  0  0  0  0  0  0  0  0  0  0  0
   -1.0859   25.5070  -26.6567 H   0  0  0  0  0  0  0  0  0  0  0  0
   -2.4744   26.6466  -26.6567 H   0  0  0  0  0  0  0  0  0  0  0  0
   -4.2640   24.1788  -25.7506 H   0  0  0  0  0  0  0  0  0  0  0  0
   -5.0202   24.8527  -27.2341 H   0  0  0  0  0  0  0  0  0  0  0  0
   -4.3837   23.1729  -27.2341 H   0  0  0  0  0  0  0  0  0  0  0  0
   -2.3445   22.2017  -29.0542 H   0  0  0  0  0  0  0  0  0  0  0  0
   -3.9707   22.9762  -29.0659 H   0  0  0  0  0  0  0  0  0  0  0  0
   -3.0240   25.2930  -30.3820 H   0  0  0  0  0  0  0  0  0  0  0  0
   -7.8998   24.2970  -30.2076 H   0  0  0  0  0  0  0  0  0  0  0  0
   -9.3999   22.0110  -31.0145 H   0  0  0  0  0  0  0  0  0  0  0  0
   -9.1913   19.7640  -32.1176 H   0  0  0  0  0  0  0  0  0  0  0  0
   -5.0567   18.2058  -33.9732 H   0  0  0  0  0  0  0  0  0  0  0  0
   -6.4926   17.6029  -34.8682 H   0  0  0  0  0  0  0  0  0  0  0  0
   -6.1057   19.3570  -34.8682 H   0  0  0  0  0  0  0  0  0  0  0  0
   -7.5791   17.5029  -31.4057 H   0  0  0  0  0  0  0  0  0  0  0  0
   -8.6569   17.4485  -32.8416 H   0  0  0  0  0  0  0  0  0  0  0  0
   -7.1137   16.5292  -32.8416 H   0  0  0  0  0  0  0  0  0  0  0  0
   -4.9042   20.4079  -32.6037 H   0  0  0  0  0  0  0  0  0  0  0  0
  1  2  1  0
  2  3  1  0
  2  4  1  0
  4  5  2  0
  4  6  1  0
  6  7  1  0
  7  8  1  0
  8  9  2  0
  8 10  1  0
 10 11  1  0
 11 12  1  0
 12 13  1  0
 12 14  2  0
 11 15  2  0
 15 16  1  0
 16 17  2  0
 17 18  1  0
 18 19  2  0
 19 20  1  0
 20 21  1  0
 20 22  1  0
 19 23  1  0
 23 24  2  0
 24 10  1  0
 24 16  1  0
  1 25  1  0
  1 26  1  0
  1 27  1  0
  3 28  1  0
  3 29  1  0
  3 30  1  0
  6 31  1  0
  6 32  1  0
 13 33  1  0
 15 34  1  0
 17 35  1  0
 18 36  1  0
 21 37  1  0
 21 38  1  0
 21 39  1  0
 22 40  1  0
 22 41  1  0
 22 42  1  0
 23 43  1  0
M  CHG  1  13  -1
M  END
>  <UniqueID>  (81) 
80

>  <SMILES>  (81) 
CN(C)C(=O)COC(=O)n1c(C([NH-])=O)cc2ccc(N(C)C)cc21

>  <Energy>  (81) 
78.33886898988519

>  <Genealogy>  (81) 
CN(C)C(=O)COC(=O)n1c(C([NH-])=O)cc2ccc(N(C)C)cc21 (protonated)
CN(C)C(=O)COC(=O)n1c(C([NH-])=O)cc2ccc(N(C)C)cc21 (3D coordinates assigned)
CN(C)C(=O)COC(=O)n1c(C([NH-])=O)cc2ccc(N(C)C)cc21 (optimized conformer: 78.33886898988519 kcal/mol)

>  <smiles>  (81) 
CN(C)C(=O)COC(=O)n1c(C(N)=O)cc2ccc(N(C)C)cc21

>  <score_type>  (81) 
oracle

>  <origin>  (81) 
adg

>  <m_score__min__energy>  (81) 
-10.34

>  <m_primary>  (81) 
energy

$$$$
82:0
     RDKit          3D

 42 43  0  0  0  0  0  0  0  0999 V2000
   -9.1610   22.1110  -31.9710 C   0  0  0  0  0  0  0  0  0  0  0  0
   -8.1150   22.9200  -32.1290 C   0  0  0  0  0  0  0  0  0  0  0  0
   -7.0140   23.0030  -31.1490 C   0  0  0  0  0  0  0  0  0  0  0  0
   -7.2780   23.3520  -29.9680 O   0  0  0  0  0  0  0  0  0  0  0  0
   -5.6570   22.6940  -31.5070 N   0  0  0  0  0  0  0  0  0  0  0  0
   -4.5240   23.3020  -31.0580 C   0  0  0  0  0  0  0  0  0  0  0  0
   -4.4870   24.4970  -30.1840 C   0  0  0  0  0  0  0  0  0  0  0  0
   -5.1350   24.4970  -28.9100 N   0  0  0  0  0  0  0  0  0  0  0  0
   -3.8670   25.5290  -30.5520 O   0  0  0  0  0  0  0  0  0  0  0  0
   -3.3960   22.6730  -31.5880 C   0  0  0  0  0  0  0  0  0  0  0  0
   -3.8820   21.6480  -32.3700 C   0  0  0  0  0  0  0  0  0  0  0  0
   -3.2050   20.6960  -33.1250 C   0  0  0  0  0  0  0  0  0  0  0  0
   -3.9690   19.7440  -33.8210 C   0  0  0  0  0  0  0  0  0  0  0  0
   -5.3850   19.7510  -33.7500 C   0  0  0  0  0  0  0  0  0  0  0  0
   -6.1280   18.7580  -34.4840 N   0  0  0  0  0  0  0  0  0  0  0  0
   -6.1510   17.3320  -34.1510 C   0  0  0  0  0  0  0  0  0  0  0  0
   -7.2360   17.0390  -33.1050 C   0  0  0  0  0  0  0  0  0  0  0  0
   -7.2800   18.1150  -32.0920 N   0  0  0  0  0  0  0  0  0  0  0  0
   -6.4370   17.7660  -30.9380 C   0  0  0  0  0  0  0  0  0  0  0  0
   -8.6610   18.3480  -31.6320 C   0  0  0  0  0  0  0  0  0  0  0  0
   -6.0330   20.7310  -32.9570 C   0  0  0  0  0  0  0  0  0  0  0  0
   -5.2480   21.6780  -32.2970 C   0  0  0  0  0  0  0  0  0  0  0  0
   -9.9563   22.0856  -32.7305 H   0  0  0  0  0  0  0  0  0  0  0  0
   -9.2296   21.4682  -31.0810 H   0  0  0  0  0  0  0  0  0  0  0  0
   -8.0695   23.5530  -33.0275 H   0  0  0  0  0  0  0  0  0  0  0  0
   -5.7160   23.6910  -28.5910 H   0  0  0  0  0  0  0  0  0  0  0  0
   -5.0700   25.3360  -28.2910 H   0  0  0  0  0  0  0  0  0  0  0  0
   -2.3424   22.9393  -31.4174 H   0  0  0  0  0  0  0  0  0  0  0  0
   -2.1062   20.6886  -33.1756 H   0  0  0  0  0  0  0  0  0  0  0  0
   -3.4609   18.9819  -34.4301 H   0  0  0  0  0  0  0  0  0  0  0  0
   -6.6740   19.0610  -35.3210 H   0  0  0  0  0  0  0  0  0  0  0  0
   -6.3604   16.7514  -35.0615 H   0  0  0  0  0  0  0  0  0  0  0  0
   -5.1725   17.0488  -33.7359 H   0  0  0  0  0  0  0  0  0  0  0  0
   -8.2133   16.9724  -33.6055 H   0  0  0  0  0  0  0  0  0  0  0  0
   -7.0015   16.0877  -32.6049 H   0  0  0  0  0  0  0  0  0  0  0  0
   -6.9786   17.9902  -30.0072 H   0  0  0  0  0  0  0  0  0  0  0  0
   -6.1946   16.6936  -30.9720 H   0  0  0  0  0  0  0  0  0  0  0  0
   -5.5075   18.3533  -30.9720 H   0  0  0  0  0  0  0  0  0  0  0  0
   -8.6854   18.3521  -30.5323 H   0  0  0  0  0  0  0  0  0  0  0  0
   -9.0146   19.3185  -32.0102 H   0  0  0  0  0  0  0  0  0  0  0  0
   -9.3135   17.5472  -32.0102 H   0  0  0  0  0  0  0  0  0  0  0  0
   -7.1290   20.7450  -32.8638 H   0  0  0  0  0  0  0  0  0  0  0  0
  1  2  2  0
  2  3  1  0
  3  4  2  0
  3  5  1  0
  5  6  1  0
  6  7  1  0
  7  8  1  0
  7  9  2  0
  6 10  2  0
 10 11  1  0
 11 12  2  0
 12 13  1  0
 13 14  2  0
 14 15  1  0
 15 16  1  0
 16 17  1  0
 17 18  1  0
 18 19  1  0
 18 20  1  0
 14 21  1  0
 21 22  2  0
 22  5  1  0
 22 11  1  0
  1 23  1  0
  1 24  1  0
  2 25  1  0
  8 26  1  0
  8 27  1  0
 10 28  1  0
 12 29  1  0
 13 30  1  0
 15 31  1  0
 16 32  1  0
 16 33  1  0
 17 34  1  0
 17 35  1  0
 19 36  1  0
 19 37  1  0
 19 38  1  0
 20 39  1  0
 20 40  1  0
 20 41  1  0
 21 42  1  0
M  END
>  <UniqueID>  (82) 
81

>  <SMILES>  (82) 
C=CC(=O)n1c(C(N)=O)cc2ccc(NCCN(C)C)cc21

>  <Energy>  (82) 
76.92190226279797

>  <Genealogy>  (82) 
C=CC(=O)n1c(C(N)=O)cc2ccc(NCCN(C)C)cc21 (3D coordinates assigned)
C=CC(=O)n1c(C(N)=O)cc2ccc(NCCN(C)C)cc21 (optimized conformer: 76.92190226279797 kcal/mol)

>  <smiles>  (82) 
C=CC(=O)n1c(C(N)=O)cc2ccc(NCCN(C)C)cc21

>  <score_type>  (82) 
oracle

>  <origin>  (82) 
adg

>  <m_score__min__energy>  (82) 
-8.4100000000000001

>  <m_primary>  (82) 
energy

$$$$
83:0
     RDKit          3D

 44 45  0  0  0  0  0  0  0  0999 V2000
   -3.5960   24.9030  -26.6530 C   0  0  0  0  0  0  0  0  0  0  0  0
   -2.2730   25.3980  -26.4830 O   0  0  0  0  0  0  0  0  0  0  0  0
   -1.3600   25.4800  -27.5390 C   0  0  0  0  0  0  0  0  0  0  0  0
   -1.6370   26.1340  -28.5810 O   0  0  0  0  0  0  0  0  0  0  0  0
   -0.0570   24.7580  -27.4460 C   0  0  0  0  0  0  0  0  0  0  0  0
    0.2470   24.1760  -28.7070 O   0  0  0  0  0  0  0  0  0  0  0  0
   -0.0990   22.8620  -29.0360 C   0  0  0  0  0  0  0  0  0  0  0  0
   -0.5210   22.5780  -30.1890 O   0  0  0  0  0  0  0  0  0  0  0  0
   -0.0230   21.8310  -28.0460 N   0  0  0  0  0  0  0  0  0  0  0  0
   -1.0830   21.4680  -27.2360 O   0  0  0  0  0  0  0  0  0  0  0  0
   -2.1420   20.6680  -27.6800 C   0  0  0  0  0  0  0  0  0  0  0  0
   -2.1960   19.4470  -27.3710 O   0  0  0  0  0  0  0  0  0  0  0  0
   -3.1760   21.2430  -28.5430 C   0  0  0  0  0  0  0  0  0  0  0  0
   -3.7620   22.3020  -28.1920 O   0  0  0  0  0  0  0  0  0  0  0  0
   -3.4930   20.6050  -29.7490 O   0  0  0  0  0  0  0  0  0  0  0  0
   -3.7320   21.2570  -30.9650 C   0  0  0  0  0  0  0  0  0  0  0  0
   -2.9360   21.1180  -31.9330 O   0  0  0  0  0  0  0  0  0  0  0  0
   -4.8840   22.1090  -31.0990 N   0  0  0  0  0  0  0  0  0  0  0  0
   -4.9570   23.4440  -30.8330 C   0  0  0  0  0  0  0  0  0  0  0  0
   -3.8200   24.3260  -30.5020 C   0  0  0  0  0  0  0  0  0  0  0  0
   -2.6050   23.8000  -29.9680 N   0  0  0  0  0  0  0  0  0  0  0  0
   -3.9020   25.5600  -30.7470 O   0  0  0  0  0  0  0  0  0  0  0  0
   -6.2660   23.9020  -30.9520 C   0  0  0  0  0  0  0  0  0  0  0  0
   -7.0030   22.8000  -31.3150 C   0  0  0  0  0  0  0  0  0  0  0  0
   -8.3670   22.6820  -31.5640 C   0  0  0  0  0  0  0  0  0  0  0  0
   -8.8700   21.4130  -31.8910 C   0  0  0  0  0  0  0  0  0  0  0  0
   -8.0140   20.2830  -31.9360 C   0  0  0  0  0  0  0  0  0  0  0  0
   -8.5610   18.9310  -32.3230 C   0  0  0  0  0  0  0  0  0  0  0  0
   -8.8320   18.1720  -31.1980 F   0  0  0  0  0  0  0  0  0  0  0  0
   -7.6490   18.2400  -33.1010 F   0  0  0  0  0  0  0  0  0  0  0  0
   -9.7290   19.1030  -33.0420 F   0  0  0  0  0  0  0  0  0  0  0  0
   -6.6290   20.4470  -31.6970 C   0  0  0  0  0  0  0  0  0  0  0  0
   -6.1500   21.7280  -31.3940 C   0  0  0  0  0  0  0  0  0  0  0  0
   -4.0530   24.7320  -25.6671 H   0  0  0  0  0  0  0  0  0  0  0  0
   -4.1937   25.6383  -27.2116 H   0  0  0  0  0  0  0  0  0  0  0  0
   -3.5642   23.9559  -27.2116 H   0  0  0  0  0  0  0  0  0  0  0  0
    0.7369   25.4664  -27.1670 H   0  0  0  0  0  0  0  0  0  0  0  0
   -0.1257   23.9693  -26.6823 H   0  0  0  0  0  0  0  0  0  0  0  0
   -1.8370   24.4460  -29.6830 H   0  0  0  0  0  0  0  0  0  0  0  0
   -2.4420   22.7700  -29.9090 H   0  0  0  0  0  0  0  0  0  0  0  0
   -6.6323   24.9265  -30.7902 H   0  0  0  0  0  0  0  0  0  0  0  0
   -9.0311   23.5570  -31.5063 H   0  0  0  0  0  0  0  0  0  0  0  0
   -9.9403   21.2936  -32.1149 H   0  0  0  0  0  0  0  0  0  0  0  0
   -5.9439   19.5879  -31.7480 H   0  0  0  0  0  0  0  0  0  0  0  0
  1  2  1  0
  2  3  1  0
  3  4  2  0
  3  5  1  0
  5  6  1  0
  6  7  1  0
  7  8  2  0
  7  9  1  0
  9 10  1  0
 10 11  1  0
 11 12  2  0
 11 13  1  0
 13 14  2  0
 13 15  1  0
 15 16  1  0
 16 17  2  0
 16 18  1  0
 18 19  1  0
 19 20  1  0
 20 21  1  0
 20 22  2  0
 19 23  2  0
 23 24  1  0
 24 25  2  0
 25 26  1  0
 26 27  2  0
 27 28  1  0
 28 29  1  0
 28 30  1  0
 28 31  1  0
 27 32  1  0
 32 33  2  0
 33 18  1  0
 33 24  1  0
  1 34  1  0
  1 35  1  0
  1 36  1  0
  5 37  1  0
  5 38  1  0
 21 39  1  0
 21 40  1  0
 23 41  1  0
 25 42  1  0
 26 43  1  0
 32 44  1  0
M  CHG  1   9  -1
M  END
>  <UniqueID>  (83) 
82

>  <SMILES>  (83) 
COC(=O)COC(=O)[N-]OC(=O)C(=O)OC(=O)n1c(C(N)=O)cc2ccc(C(F)(F)F)cc21

>  <Energy>  (83) 
81.53334663871762

>  <Genealogy>  (83) 
COC(=O)COC(=O)[N-]OC(=O)C(=O)OC(=O)n1c(C(N)=O)cc2ccc(C(F)(F)F)cc21 (protonated)
COC(=O)COC(=O)[N-]OC(=O)C(=O)OC(=O)n1c(C(N)=O)cc2ccc(C(F)(F)F)cc21 (3D coordinates assigned)
COC(=O)COC(=O)[N-]OC(=O)C(=O)OC(=O)n1c(C(N)=O)cc2ccc(C(F)(F)F)cc21 (optimized conformer: 81.53334663871762 kcal/mol)

>  <smiles>  (83) 
COC(=O)COC(=O)NOC(=O)C(=O)OC(=O)n1c(C(N)=O)cc2ccc(C(F)(F)F)cc21

>  <score_type>  (83) 
oracle

>  <origin>  (83) 
adg

>  <m_score__min__energy>  (83) 
-10.01

>  <m_primary>  (83) 
energy

$$$$
84:0
     RDKit          3D

 35 36  0  0  0  0  0  0  0  0999 V2000
   -3.9340   25.6710  -30.8450 N   0  0  0  0  0  0  0  0  0  0  0  0
   -5.2980   25.3600  -30.5710 C   0  0  0  0  0  0  0  0  0  0  0  0
   -5.9870   26.1590  -29.8830 O   0  0  0  0  0  0  0  0  0  0  0  0
   -5.8960   24.0890  -31.0330 C   0  0  0  0  0  0  0  0  0  0  0  0
   -7.2570   23.9300  -31.2820 C   0  0  0  0  0  0  0  0  0  0  0  0
   -7.4170   22.6000  -31.5990 C   0  0  0  0  0  0  0  0  0  0  0  0
   -8.5630   21.8970  -31.9540 C   0  0  0  0  0  0  0  0  0  0  0  0
   -8.4310   20.5330  -32.2650 C   0  0  0  0  0  0  0  0  0  0  0  0
   -7.1620   19.8970  -32.2140 C   0  0  0  0  0  0  0  0  0  0  0  0
   -6.9980   18.5090  -32.5600 N   0  0  0  0  0  0  0  0  0  0  0  0
   -6.3720   17.5090  -31.6930 C   0  0  0  0  0  0  0  0  0  0  0  0
   -5.2610   16.7650  -32.4380 C   0  0  0  0  0  0  0  0  0  0  0  0
   -5.5000   16.8090  -34.2090 S   0  0  0  0  0  0  0  0  0  0  0  0
   -5.3450   18.2230  -34.6910 O   0  0  0  0  0  0  0  0  0  0  0  0
   -6.8760   16.3170  -34.5580 O   0  0  0  0  0  0  0  0  0  0  0  0
   -4.3510   15.8420  -34.9610 O   0  0  0  0  0  0  0  0  0  0  0  0
   -6.0200   20.6530  -31.8670 C   0  0  0  0  0  0  0  0  0  0  0  0
   -6.1850   22.0050  -31.5420 C   0  0  0  0  0  0  0  0  0  0  0  0
   -5.2380   22.9060  -31.1990 N   0  0  0  0  0  0  0  0  0  0  0  0
   -3.8250   22.6620  -31.1190 C   0  0  0  0  0  0  0  0  0  0  0  0
   -3.2100   22.2180  -32.1260 O   0  0  0  0  0  0  0  0  0  0  0  0
   -3.1510   22.9000  -29.9130 O   0  0  0  0  0  0  0  0  0  0  0  0
   -1.9000   23.5180  -29.8000 C   0  0  0  0  0  0  0  0  0  0  0  0
   -0.8370   22.9090  -30.0960 O   0  0  0  0  0  0  0  0  0  0  0  0
   -1.8290   24.8290  -29.3510 O   0  0  0  0  0  0  0  0  0  0  0  0
   -3.2030   24.9260  -30.8460 H   0  0  0  0  0  0  0  0  0  0  0  0
   -8.0382   24.7030  -31.2353 H   0  0  0  0  0  0  0  0  0  0  0  0
   -9.5437   22.3938  -31.9903 H   0  0  0  0  0  0  0  0  0  0  0  0
   -9.3199   19.9516  -32.5510 H   0  0  0  0  0  0  0  0  0  0  0  0
   -7.1770   18.2270  -33.5500 H   0  0  0  0  0  0  0  0  0  0  0  0
   -5.9430   18.0116  -30.8136 H   0  0  0  0  0  0  0  0  0  0  0  0
   -7.1371   16.7822  -31.3824 H   0  0  0  0  0  0  0  0  0  0  0  0
   -4.2957   17.2345  -32.1977 H   0  0  0  0  0  0  0  0  0  0  0  0
   -5.2812   15.7129  -32.1175 H   0  0  0  0  0  0  0  0  0  0  0  0
   -5.0226   20.1894  -31.8525 H   0  0  0  0  0  0  0  0  0  0  0  0
  1  2  1  0
  2  3  2  0
  2  4  1  0
  4  5  2  0
  5  6  1  0
  6  7  2  0
  7  8  1  0
  8  9  2  0
  9 10  1  0
 10 11  1  0
 11 12  1  0
 12 13  1  0
 13 14  2  0
 13 15  2  0
 13 16  1  0
  9 17  1  0
 17 18  2  0
 18 19  1  0
 19 20  1  0
 20 21  2  0
 20 22  1  0
 22 23  1  0
 23 24  2  0
 23 25  1  0
 19  4  1  0
 18  6  1  0
  1 26  1  0
  5 27  1  0
  7 28  1  0
  8 29  1  0
 10 30  1  0
 11 31  1  0
 11 32  1  0
 12 33  1  0
 12 34  1  0
 17 35  1  0
M  CHG  3   1  -1  16  -1  25  -1
M  END
>  <UniqueID>  (84) 
83

>  <SMILES>  (84) 
[NH-]C(=O)c1cc2ccc(NCCS(=O)(=O)[O-])cc2n1C(=O)OC(=O)[O-]

>  <Energy>  (84) 
71.73363577615241

>  <Genealogy>  (84) 
[NH-]C(=O)c1cc2ccc(NCCS(=O)(=O)[O-])cc2n1C(=O)OC(=O)[O-] (protonated)
[NH-]C(=O)c1cc2ccc(NCCS(=O)(=O)[O-])cc2n1C(=O)OC(=O)[O-] (3D coordinates assigned)
[NH-]C(=O)c1cc2ccc(NCCS(=O)(=O)[O-])cc2n1C(=O)OC(=O)[O-] (optimized conformer: 71.73363577615241 kcal/mol)

>  <smiles>  (84) 
NC(=O)c1cc2ccc(NCCS(=O)(=O)O)cc2n1C(=O)OC(=O)O

>  <score_type>  (84) 
oracle

>  <origin>  (84) 
adg

>  <m_score__min__energy>  (84) 
-10.76

>  <m_primary>  (84) 
energy

$$$$
85:0
     RDKit          3D

 41 43  0  0  0  0  0  0  0  0999 V2000
   -2.7930   24.5810  -27.3630 C   0  0  0  0  0  0  0  0  0  0  0  0
   -1.3850   24.8190  -27.9050 C   0  0  0  0  0  0  0  0  0  0  0  0
   -0.9140   26.2370  -27.5680 C   0  0  0  0  0  0  0  0  0  0  0  0
   -1.3960   24.6270  -29.3200 O   0  0  0  0  0  0  0  0  0  0  0  0
   -1.6580   23.3970  -29.9330 C   0  0  0  0  0  0  0  0  0  0  0  0
   -0.7110   22.6880  -30.3710 O   0  0  0  0  0  0  0  0  0  0  0  0
   -2.9880   22.9740  -30.0430 O   0  0  0  0  0  0  0  0  0  0  0  0
   -3.6490   22.6940  -31.2470 C   0  0  0  0  0  0  0  0  0  0  0  0
   -3.0120   22.2830  -32.2550 O   0  0  0  0  0  0  0  0  0  0  0  0
   -5.0670   22.9050  -31.3380 N   0  0  0  0  0  0  0  0  0  0  0  0
   -5.7800   23.9980  -30.9410 C   0  0  0  0  0  0  0  0  0  0  0  0
   -5.2160   25.2810  -30.4700 C   0  0  0  0  0  0  0  0  0  0  0  0
   -3.8920   25.6740  -30.8210 N   0  0  0  0  0  0  0  0  0  0  0  0
   -5.9320   26.0630  -29.7890 O   0  0  0  0  0  0  0  0  0  0  0  0
   -7.1440   23.7800  -31.1180 C   0  0  0  0  0  0  0  0  0  0  0  0
   -7.2460   22.5140  -31.6470 C   0  0  0  0  0  0  0  0  0  0  0  0
   -8.3730   21.7840  -32.0080 C   0  0  0  0  0  0  0  0  0  0  0  0
   -8.1850   20.4830  -32.5030 C   0  0  0  0  0  0  0  0  0  0  0  0
   -6.8820   19.9280  -32.6230 C   0  0  0  0  0  0  0  0  0  0  0  0
   -6.6960   18.5480  -33.1370 C   0  0  0  0  0  0  0  0  0  0  0  0
   -5.9330   18.1570  -34.2250 C   0  0  0  0  0  0  0  0  0  0  0  0
   -6.0720   16.7880  -34.3130 C   0  0  0  0  0  0  0  0  0  0  0  0
   -6.8570   16.3590  -33.3530 O   0  0  0  0  0  0  0  0  0  0  0  0
   -7.2490   17.3830  -32.6310 C   0  0  0  0  0  0  0  0  0  0  0  0
   -5.7630   20.7070  -32.2410 C   0  0  0  0  0  0  0  0  0  0  0  0
   -5.9800   22.0080  -31.7700 C   0  0  0  0  0  0  0  0  0  0  0  0
   -2.7681   24.5852  -26.2633 H   0  0  0  0  0  0  0  0  0  0  0  0
   -3.4621   25.3788  -27.7177 H   0  0  0  0  0  0  0  0  0  0  0  0
   -3.1628   23.6076  -27.7177 H   0  0  0  0  0  0  0  0  0  0  0  0
   -0.6880   24.1070  -27.4389 H   0  0  0  0  0  0  0  0  0  0  0  0
   -0.8732   26.3599  -26.4757 H   0  0  0  0  0  0  0  0  0  0  0  0
    0.0871   26.4016  -27.9932 H   0  0  0  0  0  0  0  0  0  0  0  0
   -1.6176   26.9678  -27.9932 H   0  0  0  0  0  0  0  0  0  0  0  0
   -3.0640   25.1390  -30.4780 H   0  0  0  0  0  0  0  0  0  0  0  0
   -7.9657   24.4730  -30.8844 H   0  0  0  0  0  0  0  0  0  0  0  0
   -9.3813   22.2124  -31.9089 H   0  0  0  0  0  0  0  0  0  0  0  0
   -9.0586   19.8852  -32.8020 H   0  0  0  0  0  0  0  0  0  0  0  0
   -5.3378   18.8061  -34.8841 H   0  0  0  0  0  0  0  0  0  0  0  0
   -5.5964   16.1513  -35.0735 H   0  0  0  0  0  0  0  0  0  0  0  0
   -7.9150   17.3248  -31.7575 H   0  0  0  0  0  0  0  0  0  0  0  0
   -4.7441   20.2987  -32.3127 H   0  0  0  0  0  0  0  0  0  0  0  0
  1  2  1  0
  2  3  1  0
  2  4  1  0
  4  5  1  0
  5  6  2  0
  5  7  1  0
  7  8  1  0
  8  9  2  0
  8 10  1  0
 10 11  1  0
 11 12  1  0
 12 13  1  0
 12 14  2  0
 11 15  2  0
 15 16  1  0
 16 17  2  0
 17 18  1  0
 18 19  2  0
 19 20  1  0
 20 21  1  0
 21 22  2  0
 22 23  1  0
 23 24  1  0
 19 25  1  0
 25 26  2  0
 26 10  1  0
 26 16  1  0
 24 20  2  0
  1 27  1  0
  1 28  1  0
  1 29  1  0
  2 30  1  0
  3 31  1  0
  3 32  1  0
  3 33  1  0
 13 34  1  0
 15 35  1  0
 17 36  1  0
 18 37  1  0
 21 38  1  0
 22 39  1  0
 24 40  1  0
 25 41  1  0
M  CHG  1  13  -1
M  END
>  <UniqueID>  (85) 
84

>  <SMILES>  (85) 
CC(C)OC(=O)OC(=O)n1c(C([NH-])=O)cc2ccc(-c3ccoc3)cc21

>  <Energy>  (85) 
106.24495090892971

>  <Genealogy>  (85) 
CC(C)OC(=O)OC(=O)n1c(C([NH-])=O)cc2ccc(-c3ccoc3)cc21 (protonated)
CC(C)OC(=O)OC(=O)n1c(C([NH-])=O)cc2ccc(-c3ccoc3)cc21 (3D coordinates assigned)
CC(C)OC(=O)OC(=O)n1c(C([NH-])=O)cc2ccc(-c3ccoc3)cc21 (optimized conformer: 106.24495090892971 kcal/mol)

>  <smiles>  (85) 
CC(C)OC(=O)OC(=O)n1c(C(N)=O)cc2ccc(-c3ccoc3)cc21

>  <score_type>  (85) 
oracle

>  <origin>  (85) 
adg

>  <m_score__min__energy>  (85) 
-10.699999999999999

>  <m_primary>  (85) 
energy

$$$$
86:0
     RDKit          3D

 30 31  0  0  0  0  0  0  0  0999 V2000
   -2.9210   21.9250  -32.4370 C   0  0  0  0  0  0  0  0  0  0  0  0
   -3.6300   22.6370  -31.3290 C   0  0  0  0  0  0  0  0  0  0  0  0
   -2.9560   23.1500  -30.3960 O   0  0  0  0  0  0  0  0  0  0  0  0
   -5.0540   22.8110  -31.3590 N   0  0  0  0  0  0  0  0  0  0  0  0
   -5.7830   23.8700  -30.9030 C   0  0  0  0  0  0  0  0  0  0  0  0
   -5.2360   25.1520  -30.4140 C   0  0  0  0  0  0  0  0  0  0  0  0
   -3.9560   25.6110  -30.8370 N   0  0  0  0  0  0  0  0  0  0  0  0
   -5.9260   25.8700  -29.6410 O   0  0  0  0  0  0  0  0  0  0  0  0
   -7.1470   23.6150  -31.0360 C   0  0  0  0  0  0  0  0  0  0  0  0
   -7.2310   22.3620  -31.6020 C   0  0  0  0  0  0  0  0  0  0  0  0
   -8.3480   21.6080  -31.9520 C   0  0  0  0  0  0  0  0  0  0  0  0
   -8.1340   20.3320  -32.5040 C   0  0  0  0  0  0  0  0  0  0  0  0
   -6.8200   19.8430  -32.6880 C   0  0  0  0  0  0  0  0  0  0  0  0
   -6.6130   18.5320  -33.2460 C   0  0  0  0  0  0  0  0  0  0  0  0
   -6.4400   17.4350  -33.7140 C   0  0  0  0  0  0  0  0  0  0  0  0
   -6.2300   16.1010  -34.2840 C   0  0  0  0  0  0  0  0  0  0  0  0
   -7.2560   15.2390  -33.8740 O   0  0  0  0  0  0  0  0  0  0  0  0
   -5.7100   20.6320  -32.3230 C   0  0  0  0  0  0  0  0  0  0  0  0
   -5.9540   21.9020  -31.7880 C   0  0  0  0  0  0  0  0  0  0  0  0
   -2.2051   21.2061  -32.0119 H   0  0  0  0  0  0  0  0  0  0  0  0
   -3.6547   21.3889  -33.0570 H   0  0  0  0  0  0  0  0  0  0  0  0
   -2.3818   22.6564  -33.0570 H   0  0  0  0  0  0  0  0  0  0  0  0
   -3.0860   25.3040  -30.3470 H   0  0  0  0  0  0  0  0  0  0  0  0
   -7.9796   24.2744  -30.7497 H   0  0  0  0  0  0  0  0  0  0  0  0
   -9.3656   21.9978  -31.8016 H   0  0  0  0  0  0  0  0  0  0  0  0
   -8.9941   19.7108  -32.7943 H   0  0  0  0  0  0  0  0  0  0  0  0
   -6.2286   16.1698  -35.3818 H   0  0  0  0  0  0  0  0  0  0  0  0
   -5.2647   15.7062  -33.9344 H   0  0  0  0  0  0  0  0  0  0  0  0
   -7.1370   14.3930  -34.3820 H   0  0  0  0  0  0  0  0  0  0  0  0
   -4.6830   20.2605  -32.4548 H   0  0  0  0  0  0  0  0  0  0  0  0
  1  2  1  0
  2  3  2  0
  2  4  1  0
  4  5  1  0
  5  6  1  0
  6  7  1  0
  6  8  2  0
  5  9  2  0
  9 10  1  0
 10 11  2  0
 11 12  1  0
 12 13  2  0
 13 14  1  0
 14 15  3  0
 15 16  1  0
 16 17  1  0
 13 18  1  0
 18 19  2  0
 19  4  1  0
 19 10  1  0
  1 20  1  0
  1 21  1  0
  1 22  1  0
  7 23  1  0
  9 24  1  0
 11 25  1  0
 12 26  1  0
 16 27  1  0
 16 28  1  0
 17 29  1  0
 18 30  1  0
M  CHG  1   7  -1
M  END
>  <UniqueID>  (86) 
85

>  <SMILES>  (86) 
CC(=O)n1c(C([NH-])=O)cc2ccc(C#CCO)cc21

>  <Energy>  (86) 
64.66690044361226

>  <Genealogy>  (86) 
CC(=O)n1c(C([NH-])=O)cc2ccc(C#CCO)cc21 (protonated)
CC(=O)n1c(C([NH-])=O)cc2ccc(C#CCO)cc21 (3D coordinates assigned)
CC(=O)n1c(C([NH-])=O)cc2ccc(C#CCO)cc21 (optimized conformer: 64.66690044361226 kcal/mol)

>  <smiles>  (86) 
CC(=O)n1c(C(N)=O)cc2ccc(C#CCO)cc21

>  <score_type>  (86) 
oracle

>  <origin>  (86) 
adg

>  <m_score__min__energy>  (86) 
-9.8399999999999999

>  <m_primary>  (86) 
energy

$$$$
87:0
     RDKit          3D

 42 44  0  0  0  0  0  0  0  0999 V2000
   -4.0070   16.6260  -34.7410 C   0  0  0  0  0  0  0  0  0  0  0  0
   -5.0650   15.6890  -34.5780 O   0  0  0  0  0  0  0  0  0  0  0  0
   -6.3350   16.0620  -34.1290 C   0  0  0  0  0  0  0  0  0  0  0  0
   -7.3210   15.2870  -34.2560 O   0  0  0  0  0  0  0  0  0  0  0  0
   -6.5170   17.3460  -33.5160 C   0  0  0  0  0  0  0  0  0  0  0  0
   -6.6700   18.4240  -33.0000 C   0  0  0  0  0  0  0  0  0  0  0  0
   -6.8540   19.7120  -32.3840 C   0  0  0  0  0  0  0  0  0  0  0  0
   -8.1340   20.0980  -31.9250 C   0  0  0  0  0  0  0  0  0  0  0  0
   -8.3230   21.3470  -31.3100 C   0  0  0  0  0  0  0  0  0  0  0  0
   -7.2180   22.1830  -31.1790 C   0  0  0  0  0  0  0  0  0  0  0  0
   -7.1130   23.4270  -30.6010 C   0  0  0  0  0  0  0  0  0  0  0  0
   -5.7750   23.7880  -30.7400 C   0  0  0  0  0  0  0  0  0  0  0  0
   -5.2420   25.1010  -30.3230 C   0  0  0  0  0  0  0  0  0  0  0  0
   -4.0250   25.6050  -30.8660 N   0  0  0  0  0  0  0  0  0  0  0  0
   -5.8970   25.8120  -29.5150 O   0  0  0  0  0  0  0  0  0  0  0  0
   -5.0750   22.8030  -31.3720 N   0  0  0  0  0  0  0  0  0  0  0  0
   -3.6600   22.7470  -31.6100 C   0  0  0  0  0  0  0  0  0  0  0  0
   -3.2050   22.0340  -32.5460 O   0  0  0  0  0  0  0  0  0  0  0  0
   -2.7890   23.4650  -30.7850 O   0  0  0  0  0  0  0  0  0  0  0  0
   -2.5840   23.1400  -29.4150 C   0  0  0  0  0  0  0  0  0  0  0  0
   -1.6490   24.1370  -28.8100 C   0  0  0  0  0  0  0  0  0  0  0  0
   -1.8510   25.4330  -28.8000 O   0  0  0  0  0  0  0  0  0  0  0  0
   -0.8020   25.9560  -28.2080 C   0  0  0  0  0  0  0  0  0  0  0  0
   -0.6510   27.1900  -28.0180 O   0  0  0  0  0  0  0  0  0  0  0  0
    0.0760   25.0500  -27.8400 O   0  0  0  0  0  0  0  0  0  0  0  0
   -0.4260   23.8950  -28.2100 C   0  0  0  0  0  0  0  0  0  0  0  0
    0.2280   22.5720  -27.9800 C   0  0  0  0  0  0  0  0  0  0  0  0
   -5.9740   21.8280  -31.6370 C   0  0  0  0  0  0  0  0  0  0  0  0
   -5.7540   20.5810  -32.2360 C   0  0  0  0  0  0  0  0  0  0  0  0
   -3.6454   16.9463  -33.7528 H   0  0  0  0  0  0  0  0  0  0  0  0
   -3.1833   16.1557  -35.2981 H   0  0  0  0  0  0  0  0  0  0  0  0
   -4.3743   17.5005  -35.2981 H   0  0  0  0  0  0  0  0  0  0  0  0
   -8.9879   19.4159  -32.0502 H   0  0  0  0  0  0  0  0  0  0  0  0
   -9.3135   21.6546  -30.9434 H   0  0  0  0  0  0  0  0  0  0  0  0
   -7.9157   24.0125  -30.1290 H   0  0  0  0  0  0  0  0  0  0  0  0
   -3.1020   25.2950  -30.4890 H   0  0  0  0  0  0  0  0  0  0  0  0
   -3.5460   23.1667  -28.8822 H   0  0  0  0  0  0  0  0  0  0  0  0
   -2.1529   22.1312  -29.3341 H   0  0  0  0  0  0  0  0  0  0  0  0
    0.3178   22.3904  -26.8988 H   0  0  0  0  0  0  0  0  0  0  0  0
   -0.3812   21.7776  -28.4359 H   0  0  0  0  0  0  0  0  0  0  0  0
    1.2291   22.5736  -28.4359 H   0  0  0  0  0  0  0  0  0  0  0  0
   -4.7514   20.2882  -32.5811 H   0  0  0  0  0  0  0  0  0  0  0  0
  1  2  1  0
  2  3  1  0
  3  4  2  0
  3  5  1  0
  5  6  3  0
  6  7  1  0
  7  8  2  0
  8  9  1  0
  9 10  2  0
 10 11  1  0
 11 12  2  0
 12 13  1  0
 13 14  1  0
 13 15  2  0
 12 16  1  0
 16 17  1  0
 17 18  2  0
 17 19  1  0
 19 20  1  0
 20 21  1  0
 21 22  1  0
 22 23  1  0
 23 24  2  0
 23 25  1  0
 25 26  1  0
 26 27  1  0
 16 28  1  0
 28 29  2  0
 29  7  1  0
 28 10  1  0
 26 21  2  0
  1 30  1  0
  1 31  1  0
  1 32  1  0
  8 33  1  0
  9 34  1  0
 11 35  1  0
 14 36  1  0
 20 37  1  0
 20 38  1  0
 27 39  1  0
 27 40  1  0
 27 41  1  0
 29 42  1  0
M  CHG  1  14  -1
M  END
>  <UniqueID>  (87) 
86

>  <SMILES>  (87) 
COC(=O)C#Cc1ccc2cc(C([NH-])=O)n(C(=O)OCc3oc(=O)oc3C)c2c1

>  <Energy>  (87) 
105.61438865018192

>  <Genealogy>  (87) 
COC(=O)C#Cc1ccc2cc(C([NH-])=O)n(C(=O)OCc3oc(=O)oc3C)c2c1 (protonated)
COC(=O)C#Cc1ccc2cc(C([NH-])=O)n(C(=O)OCc3oc(=O)oc3C)c2c1 (3D coordinates assigned)
COC(=O)C#Cc1ccc2cc(C([NH-])=O)n(C(=O)OCc3oc(=O)oc3C)c2c1 (optimized conformer: 105.61438865018192 kcal/mol)

>  <smiles>  (87) 
COC(=O)C#Cc1ccc2cc(C(N)=O)n(C(=O)OCc3oc(=O)oc3C)c2c1

>  <score_type>  (87) 
oracle

>  <origin>  (87) 
adg

>  <m_score__min__energy>  (87) 
-11.35

>  <m_primary>  (87) 
energy

$$$$
88:0
     RDKit          3D

 46 47  0  0  0  0  0  0  0  0999 V2000
   -5.1590   25.6580  -30.5090 C   0  0  0  0  0  0  0  0  0  0  0  0
   -3.9320   24.9400  -30.5290 O   0  0  0  0  0  0  0  0  0  0  0  0
   -3.8490   23.5770  -30.2260 C   0  0  0  0  0  0  0  0  0  0  0  0
   -4.8510   22.9690  -29.7580 O   0  0  0  0  0  0  0  0  0  0  0  0
   -2.6270   22.8610  -30.4750 N   0  0  0  0  0  0  0  0  0  0  0  0
   -1.4430   22.9750  -29.8080 C   0  0  0  0  0  0  0  0  0  0  0  0
   -1.1290   23.9970  -28.7850 C   0  0  0  0  0  0  0  0  0  0  0  0
   -1.5430   25.3550  -28.9560 N   0  0  0  0  0  0  0  0  0  0  0  0
   -0.5140   23.6720  -27.7330 O   0  0  0  0  0  0  0  0  0  0  0  0
   -0.5270   22.0350  -30.2770 C   0  0  0  0  0  0  0  0  0  0  0  0
   -1.1920   21.3330  -31.2550 C   0  0  0  0  0  0  0  0  0  0  0  0
   -0.7710   20.2500  -32.0220 C   0  0  0  0  0  0  0  0  0  0  0  0
   -1.6980   19.6620  -32.8960 C   0  0  0  0  0  0  0  0  0  0  0  0
   -3.0230   20.1610  -32.9850 C   0  0  0  0  0  0  0  0  0  0  0  0
   -4.0030   19.5120  -33.8110 N   0  0  0  0  0  0  0  0  0  0  0  0
   -4.7310   18.3270  -33.3570 C   0  0  0  0  0  0  0  0  0  0  0  0
   -6.2470   18.5600  -33.4290 C   0  0  0  0  0  0  0  0  0  0  0  0
   -6.5980   19.9420  -33.0880 N   0  0  0  0  0  0  0  0  0  0  0  0
   -7.8140   20.3300  -32.4130 C   0  0  0  0  0  0  0  0  0  0  0  0
   -9.0840   19.2800  -32.3460 S   0  0  0  0  0  0  0  0  0  0  0  0
   -7.9400   21.6520  -31.8290 N   0  0  0  0  0  0  0  0  0  0  0  0
   -8.9650   21.9190  -30.8110 C   0  0  0  0  0  0  0  0  0  0  0  0
   -7.0540   22.7410  -32.2580 C   0  0  0  0  0  0  0  0  0  0  0  0
   -3.4010   21.2860  -32.2230 C   0  0  0  0  0  0  0  0  0  0  0  0
   -2.4560   21.8520  -31.3600 C   0  0  0  0  0  0  0  0  0  0  0  0
   -5.4628   25.8358  -29.4669 H   0  0  0  0  0  0  0  0  0  0  0  0
   -5.0281   26.6220  -31.0223 H   0  0  0  0  0  0  0  0  0  0  0  0
   -5.9353   25.0717  -31.0223 H   0  0  0  0  0  0  0  0  0  0  0  0
   -1.3250   26.0650  -28.2230 H   0  0  0  0  0  0  0  0  0  0  0  0
   -2.0200   25.6720  -29.8290 H   0  0  0  0  0  0  0  0  0  0  0  0
    0.5085   21.8861  -29.9370 H   0  0  0  0  0  0  0  0  0  0  0  0
    0.2573   19.8669  -31.9452 H   0  0  0  0  0  0  0  0  0  0  0  0
   -1.3947   18.8067  -33.5176 H   0  0  0  0  0  0  0  0  0  0  0  0
   -4.4490   20.0740  -34.5730 H   0  0  0  0  0  0  0  0  0  0  0  0
   -4.4662   17.4731  -33.9979 H   0  0  0  0  0  0  0  0  0  0  0  0
   -4.4543   18.1209  -32.3125 H   0  0  0  0  0  0  0  0  0  0  0  0
   -6.5928   18.3458  -34.4510 H   0  0  0  0  0  0  0  0  0  0  0  0
   -6.7323   17.8926  -32.7017 H   0  0  0  0  0  0  0  0  0  0  0  0
   -5.8900   20.6700  -33.3250 H   0  0  0  0  0  0  0  0  0  0  0  0
   -8.5254   21.8045  -29.8092 H   0  0  0  0  0  0  0  0  0  0  0  0
   -9.3421   22.9454  -30.9308 H   0  0  0  0  0  0  0  0  0  0  0  0
   -9.7949   21.2071  -30.9308 H   0  0  0  0  0  0  0  0  0  0  0  0
   -6.6414   23.2481  -31.3733 H   0  0  0  0  0  0  0  0  0  0  0  0
   -6.2316   22.3286  -32.8611 H   0  0  0  0  0  0  0  0  0  0  0  0
   -7.6250   23.4623  -32.8611 H   0  0  0  0  0  0  0  0  0  0  0  0
   -4.4135   21.7080  -32.3050 H   0  0  0  0  0  0  0  0  0  0  0  0
  1  2  1  0
  2  3  1  0
  3  4  2  0
  3  5  1  0
  5  6  1  0
  6  7  1  0
  7  8  1  0
  7  9  2  0
  6 10  2  0
 10 11  1  0
 11 12  2  0
 12 13  1  0
 13 14  2  0
 14 15  1  0
 15 16  1  0
 16 17  1  0
 17 18  1  0
 18 19  1  0
 19 20  2  0
 19 21  1  0
 21 22  1  0
 21 23  1  0
 14 24  1  0
 24 25  2  0
 25  5  1  0
 25 11  1  0
  1 26  1  0
  1 27  1  0
  1 28  1  0
  8 29  1  0
  8 30  1  0
 10 31  1  0
 12 32  1  0
 13 33  1  0
 15 34  1  0
 16 35  1  0
 16 36  1  0
 17 37  1  0
 17 38  1  0
 18 39  1  0
 22 40  1  0
 22 41  1  0
 22 42  1  0
 23 43  1  0
 23 44  1  0
 23 45  1  0
 24 46  1  0
M  END
>  <UniqueID>  (88) 
87

>  <SMILES>  (88) 
COC(=O)n1c(C(N)=O)cc2ccc(NCCNC(=S)N(C)C)cc21

>  <Energy>  (88) 
76.70844410696365

>  <Genealogy>  (88) 
COC(=O)n1c(C(N)=O)cc2ccc(NCCNC(=S)N(C)C)cc21 (3D coordinates assigned)
COC(=O)n1c(C(N)=O)cc2ccc(NCCNC(=S)N(C)C)cc21 (optimized conformer: 76.70844410696365 kcal/mol)

>  <smiles>  (88) 
COC(=O)n1c(C(N)=O)cc2ccc(NCCNC(=S)N(C)C)cc21

>  <score_type>  (88) 
oracle

>  <origin>  (88) 
adg

>  <m_score__min__energy>  (88) 
-8.0899999999999999

>  <m_primary>  (88) 
energy

$$$$
89:0
     RDKit          3D

 44 45  0  0  0  0  0  0  0  0999 V2000
   -3.8570   17.3450  -35.3070 C   0  0  0  0  0  0  0  0  0  0  0  0
   -3.6230   17.7200  -33.9010 N   0  0  0  0  0  0  0  0  0  0  0  0
   -3.4390   16.4990  -33.0920 C   0  0  0  0  0  0  0  0  0  0  0  0
   -2.4480   18.6220  -33.8120 C   0  0  0  0  0  0  0  0  0  0  0  0
   -2.5910   19.7210  -32.7430 C   0  0  0  0  0  0  0  0  0  0  0  0
   -3.6550   20.7150  -33.0960 C   0  0  0  0  0  0  0  0  0  0  0  0
   -4.6080   20.3690  -33.8450 O   0  0  0  0  0  0  0  0  0  0  0  0
   -3.5540   22.0210  -32.6030 O   0  0  0  0  0  0  0  0  0  0  0  0
   -4.0400   22.4560  -31.3630 C   0  0  0  0  0  0  0  0  0  0  0  0
   -3.3000   22.4560  -30.3430 O   0  0  0  0  0  0  0  0  0  0  0  0
   -5.4030   22.8930  -31.2560 N   0  0  0  0  0  0  0  0  0  0  0  0
   -5.8630   24.1130  -30.8580 C   0  0  0  0  0  0  0  0  0  0  0  0
   -5.0410   25.3080  -30.5810 C   0  0  0  0  0  0  0  0  0  0  0  0
   -3.6220   25.2180  -30.4920 N   0  0  0  0  0  0  0  0  0  0  0  0
   -5.5940   26.4340  -30.4670 O   0  0  0  0  0  0  0  0  0  0  0  0
   -7.2570   24.1180  -30.8200 C   0  0  0  0  0  0  0  0  0  0  0  0
   -7.6380   22.8580  -31.2180 C   0  0  0  0  0  0  0  0  0  0  0  0
   -8.9100   22.3090  -31.3530 C   0  0  0  0  0  0  0  0  0  0  0  0
   -9.0080   20.9640  -31.7480 C   0  0  0  0  0  0  0  0  0  0  0  0
   -7.8410   20.1950  -31.9830 C   0  0  0  0  0  0  0  0  0  0  0  0
   -7.9600   18.7610  -32.4220 C   0  0  0  0  0  0  0  0  0  0  0  0
   -6.6250   18.2450  -32.8570 C   0  0  0  0  0  0  0  0  0  0  0  0
   -6.2900   18.2930  -34.0680 O   0  0  0  0  0  0  0  0  0  0  0  0
   -5.7660   17.6720  -31.9280 O   0  0  0  0  0  0  0  0  0  0  0  0
   -6.5670   20.7890  -31.8490 C   0  0  0  0  0  0  0  0  0  0  0  0
   -6.5010   22.1370  -31.4720 C   0  0  0  0  0  0  0  0  0  0  0  0
   -4.4390   16.4124  -35.3458 H   0  0  0  0  0  0  0  0  0  0  0  0
   -4.4153   18.1468  -35.8123 H   0  0  0  0  0  0  0  0  0  0  0  0
   -2.8914   17.1959  -35.8123 H   0  0  0  0  0  0  0  0  0  0  0  0
   -4.4800   18.2180  -33.5630 H   0  0  0  0  0  0  0  0  0  0  0  0
   -3.4780   16.7577  -32.0236 H   0  0  0  0  0  0  0  0  0  0  0  0
   -4.2391   15.7809  -33.3248 H   0  0  0  0  0  0  0  0  0  0  0  0
   -2.4628   16.0486  -33.3248 H   0  0  0  0  0  0  0  0  0  0  0  0
   -1.5624   18.0159  -33.5706 H   0  0  0  0  0  0  0  0  0  0  0  0
   -2.3574   19.1289  -34.7841 H   0  0  0  0  0  0  0  0  0  0  0  0
   -2.8495   19.2505  -31.7829 H   0  0  0  0  0  0  0  0  0  0  0  0
   -1.6332   20.2582  -32.6789 H   0  0  0  0  0  0  0  0  0  0  0  0
   -3.0930   24.5060  -31.0440 H   0  0  0  0  0  0  0  0  0  0  0  0
   -7.9129   24.9530  -30.5326 H   0  0  0  0  0  0  0  0  0  0  0  0
   -9.8105   22.9094  -31.1566 H   0  0  0  0  0  0  0  0  0  0  0  0
   -9.9990   20.5041  -31.8759 H   0  0  0  0  0  0  0  0  0  0  0  0
   -8.3295   18.1530  -31.5831 H   0  0  0  0  0  0  0  0  0  0  0  0
   -8.6626   18.6996  -33.2661 H   0  0  0  0  0  0  0  0  0  0  0  0
   -5.6510   20.2092  -32.0355 H   0  0  0  0  0  0  0  0  0  0  0  0
  1  2  1  0
  2  3  1  0
  2  4  1  0
  4  5  1  0
  5  6  1  0
  6  7  2  0
  6  8  1  0
  8  9  1  0
  9 10  2  0
  9 11  1  0
 11 12  1  0
 12 13  1  0
 13 14  1  0
 13 15  2  0
 12 16  2  0
 16 17  1  0
 17 18  2  0
 18 19  1  0
 19 20  2  0
 20 21  1  0
 21 22  1  0
 22 23  2  0
 22 24  1  0
 20 25  1  0
 25 26  2  0
 26 11  1  0
 26 17  1  0
  1 27  1  0
  1 28  1  0
  1 29  1  0
  2 30  1  0
  3 31  1  0
  3 32  1  0
  3 33  1  0
  4 34  1  0
  4 35  1  0
  5 36  1  0
  5 37  1  0
 14 38  1  0
 16 39  1  0
 18 40  1  0
 19 41  1  0
 21 42  1  0
 21 43  1  0
 25 44  1  0
M  CHG  3   2   1  14  -1  24  -1
M  END
>  <UniqueID>  (89) 
88

>  <SMILES>  (89) 
C[NH+](C)CCC(=O)OC(=O)n1c(C([NH-])=O)cc2ccc(CC(=O)[O-])cc21

>  <Energy>  (89) 
79.29897446902544

>  <Genealogy>  (89) 
C[NH+](C)CCC(=O)OC(=O)n1c(C([NH-])=O)cc2ccc(CC(=O)[O-])cc21 (protonated)
C[NH+](C)CCC(=O)OC(=O)n1c(C([NH-])=O)cc2ccc(CC(=O)[O-])cc21 (3D coordinates assigned)
C[NH+](C)CCC(=O)OC(=O)n1c(C([NH-])=O)cc2ccc(CC(=O)[O-])cc21 (optimized conformer: 79.29897446902544 kcal/mol)

>  <smiles>  (89) 
CN(C)CCC(=O)OC(=O)n1c(C(N)=O)cc2ccc(CC(=O)O)cc21

>  <score_type>  (89) 
oracle

>  <origin>  (89) 
adg

>  <m_score__min__energy>  (89) 
-9.2100000000000009

>  <m_primary>  (89) 
energy

$$$$
90:0
     RDKit          3D

 46 47  0  0  0  0  0  0  0  0999 V2000
   -1.3750   22.9600  -28.9110 C   0  0  0  0  0  0  0  0  0  0  0  0
   -2.7500   22.5290  -29.4560 C   0  0  0  0  0  0  0  0  0  0  0  0
   -3.8640   22.8680  -28.4470 C   0  0  0  0  0  0  0  0  0  0  0  0
   -2.7370   21.0110  -29.6910 C   0  0  0  0  0  0  0  0  0  0  0  0
   -3.0110   23.1510  -30.7230 O   0  0  0  0  0  0  0  0  0  0  0  0
   -3.9610   22.7380  -31.6710 C   0  0  0  0  0  0  0  0  0  0  0  0
   -3.6070   22.1800  -32.7430 O   0  0  0  0  0  0  0  0  0  0  0  0
   -5.3550   22.9810  -31.4230 N   0  0  0  0  0  0  0  0  0  0  0  0
   -5.9290   24.1210  -30.9450 C   0  0  0  0  0  0  0  0  0  0  0  0
   -5.2110   25.3020  -30.4210 C   0  0  0  0  0  0  0  0  0  0  0  0
   -3.8830   25.5980  -30.8430 N   0  0  0  0  0  0  0  0  0  0  0  0
   -5.7600   26.0310  -29.5530 O   0  0  0  0  0  0  0  0  0  0  0  0
   -7.3170   24.0030  -30.9380 C   0  0  0  0  0  0  0  0  0  0  0  0
   -7.5780   22.7430  -31.4260 C   0  0  0  0  0  0  0  0  0  0  0  0
   -8.7920   22.1020  -31.6460 C   0  0  0  0  0  0  0  0  0  0  0  0
   -8.7640   20.8070  -32.1900 C   0  0  0  0  0  0  0  0  0  0  0  0
   -7.5360   20.1770  -32.5110 C   0  0  0  0  0  0  0  0  0  0  0  0
   -7.5590   18.8540  -33.0800 N   0  0  0  0  0  0  0  0  0  0  0  0
   -6.3970   17.9680  -33.1720 C   0  0  0  0  0  0  0  0  0  0  0  0
   -5.3610   18.5370  -34.1510 C   0  0  0  0  0  0  0  0  0  0  0  0
   -4.0010   18.7470  -33.4770 C   0  0  0  0  0  0  0  0  0  0  0  0
   -3.2620   19.7370  -34.1390 O   0  0  0  0  0  0  0  0  0  0  0  0
   -6.3210   20.8680  -32.2770 C   0  0  0  0  0  0  0  0  0  0  0  0
   -6.3780   22.1480  -31.7120 C   0  0  0  0  0  0  0  0  0  0  0  0
   -1.3978   22.9528  -27.8113 H   0  0  0  0  0  0  0  0  0  0  0  0
   -0.6041   22.2604  -29.2663 H   0  0  0  0  0  0  0  0  0  0  0  0
   -1.1413   23.9745  -29.2663 H   0  0  0  0  0  0  0  0  0  0  0  0
   -3.4794   22.7510  -27.4231 H   0  0  0  0  0  0  0  0  0  0  0  0
   -4.1925   23.9068  -28.5988 H   0  0  0  0  0  0  0  0  0  0  0  0
   -4.7154   22.1883  -28.5988 H   0  0  0  0  0  0  0  0  0  0  0  0
   -2.7325   20.4900  -28.7222 H   0  0  0  0  0  0  0  0  0  0  0  0
   -3.6327   20.7203  -30.2595 H   0  0  0  0  0  0  0  0  0  0  0  0
   -1.8365   20.7357  -30.2595 H   0  0  0  0  0  0  0  0  0  0  0  0
   -3.0580   25.2760  -30.2890 H   0  0  0  0  0  0  0  0  0  0  0  0
   -8.0488   24.7567  -30.6118 H   0  0  0  0  0  0  0  0  0  0  0  0
   -9.7451   22.5937  -31.4016 H   0  0  0  0  0  0  0  0  0  0  0  0
   -9.7095   20.2742  -32.3694 H   0  0  0  0  0  0  0  0  0  0  0  0
   -8.4570   18.5020  -33.4830 H   0  0  0  0  0  0  0  0  0  0  0  0
   -5.9382   17.8688  -32.1772 H   0  0  0  0  0  0  0  0  0  0  0  0
   -6.7283   16.9848  -33.5376 H   0  0  0  0  0  0  0  0  0  0  0  0
   -5.2391   17.8350  -34.9891 H   0  0  0  0  0  0  0  0  0  0  0  0
   -5.7232   19.5136  -34.5048 H   0  0  0  0  0  0  0  0  0  0  0  0
   -4.1602   19.0542  -32.4328 H   0  0  0  0  0  0  0  0  0  0  0  0
   -3.4389   17.8024  -33.5182 H   0  0  0  0  0  0  0  0  0  0  0  0
   -3.4230   20.5870  -33.6520 H   0  0  0  0  0  0  0  0  0  0  0  0
   -5.3548   20.4091  -32.5335 H   0  0  0  0  0  0  0  0  0  0  0  0
  1  2  1  0
  2  3  1  0
  2  4  1  0
  2  5  1  0
  5  6  1  0
  6  7  2  0
  6  8  1  0
  8  9  1  0
  9 10  1  0
 10 11  1  0
 10 12  2  0
  9 13  2  0
 13 14  1  0
 14 15  2  0
 15 16  1  0
 16 17  2  0
 17 18  1  0
 18 19  1  0
 19 20  1  0
 20 21  1  0
 21 22  1  0
 17 23  1  0
 23 24  2  0
 24  8  1  0
 24 14  1  0
  1 25  1  0
  1 26  1  0
  1 27  1  0
  3 28  1  0
  3 29  1  0
  3 30  1  0
  4 31  1  0
  4 32  1  0
  4 33  1  0
 11 34  1  0
 13 35  1  0
 15 36  1  0
 16 37  1  0
 18 38  1  0
 19 39  1  0
 19 40  1  0
 20 41  1  0
 20 42  1  0
 21 43  1  0
 21 44  1  0
 22 45  1  0
 23 46  1  0
M  CHG  1  11  -1
M  END
>  <UniqueID>  (90) 
89

>  <SMILES>  (90) 
CC(C)(C)OC(=O)n1c(C([NH-])=O)cc2ccc(NCCCO)cc21

>  <Energy>  (90) 
74.85298926437275

>  <Genealogy>  (90) 
CC(C)(C)OC(=O)n1c(C([NH-])=O)cc2ccc(NCCCO)cc21 (protonated)
CC(C)(C)OC(=O)n1c(C([NH-])=O)cc2ccc(NCCCO)cc21 (3D coordinates assigned)
CC(C)(C)OC(=O)n1c(C([NH-])=O)cc2ccc(NCCCO)cc21 (optimized conformer: 74.85298926437275 kcal/mol)

>  <smiles>  (90) 
CC(C)(C)OC(=O)n1c(C(N)=O)cc2ccc(NCCCO)cc21

>  <score_type>  (90) 
oracle

>  <origin>  (90) 
adg

>  <m_score__min__energy>  (90) 
-10.289999999999999

>  <m_primary>  (90) 
energy

$$$$
91:0
     RDKit          3D

 33 34  0  0  0  0  0  0  0  0999 V2000
   -7.6000   17.5020  -32.7340 C   0  0  0  0  0  0  0  0  0  0  0  0
   -7.7510   18.9560  -32.3990 C   0  0  0  0  0  0  0  0  0  0  0  0
   -9.0360   19.5510  -32.3830 C   0  0  0  0  0  0  0  0  0  0  0  0
   -9.1960   20.9000  -32.0240 C   0  0  0  0  0  0  0  0  0  0  0  0
   -8.0570   21.6230  -31.6820 C   0  0  0  0  0  0  0  0  0  0  0  0
   -7.9310   22.9300  -31.2700 C   0  0  0  0  0  0  0  0  0  0  0  0
   -6.5690   23.1170  -31.0450 C   0  0  0  0  0  0  0  0  0  0  0  0
   -5.9650   24.4150  -30.6740 C   0  0  0  0  0  0  0  0  0  0  0  0
   -5.7830   24.7690  -29.3010 N   0  0  0  0  0  0  0  0  0  0  0  0
   -5.6330   25.2360  -31.5690 O   0  0  0  0  0  0  0  0  0  0  0  0
   -5.8790   21.9690  -31.3060 N   0  0  0  0  0  0  0  0  0  0  0  0
   -4.4740   21.7380  -31.1220 C   0  0  0  0  0  0  0  0  0  0  0  0
   -4.0690   20.6260  -30.6840 O   0  0  0  0  0  0  0  0  0  0  0  0
   -3.5590   22.7530  -31.4170 O   0  0  0  0  0  0  0  0  0  0  0  0
   -2.4320   23.0380  -30.5950 C   0  0  0  0  0  0  0  0  0  0  0  0
   -2.7770   24.1530  -29.6130 C   0  0  0  0  0  0  0  0  0  0  0  0
   -3.4270   25.2060  -30.2730 O   0  0  0  0  0  0  0  0  0  0  0  0
   -6.8060   21.0640  -31.6960 C   0  0  0  0  0  0  0  0  0  0  0  0
   -6.6200   19.7180  -32.0320 C   0  0  0  0  0  0  0  0  0  0  0  0
   -7.5392   16.9161  -31.8050 H   0  0  0  0  0  0  0  0  0  0  0  0
   -8.4684   17.1689  -33.3213 H   0  0  0  0  0  0  0  0  0  0  0  0
   -6.6817   17.3545  -33.3213 H   0  0  0  0  0  0  0  0  0  0  0  0
   -9.9174   18.9513  -32.6542 H   0  0  0  0  0  0  0  0  0  0  0  0
  -10.1905   21.3700  -32.0136 H   0  0  0  0  0  0  0  0  0  0  0  0
   -8.7352   23.6701  -31.1449 H   0  0  0  0  0  0  0  0  0  0  0  0
   -5.3880   25.7020  -29.0500 H   0  0  0  0  0  0  0  0  0  0  0  0
   -5.9990   24.0950  -28.5350 H   0  0  0  0  0  0  0  0  0  0  0  0
   -2.1497   22.1336  -30.0361 H   0  0  0  0  0  0  0  0  0  0  0  0
   -1.5924   23.3594  -31.2288 H   0  0  0  0  0  0  0  0  0  0  0  0
   -3.4383   23.7537  -28.8299 H   0  0  0  0  0  0  0  0  0  0  0  0
   -1.8466   24.5338  -29.1664 H   0  0  0  0  0  0  0  0  0  0  0  0
   -3.5400   24.9250  -31.2180 H   0  0  0  0  0  0  0  0  0  0  0  0
   -5.6178   19.2650  -32.0107 H   0  0  0  0  0  0  0  0  0  0  0  0
  1  2  1  0
  2  3  2  0
  3  4  1  0
  4  5  2  0
  5  6  1  0
  6  7  2  0
  7  8  1  0
  8  9  1  0
  8 10  2  0
  7 11  1  0
 11 12  1  0
 12 13  2  0
 12 14  1  0
 14 15  1  0
 15 16  1  0
 16 17  1  0
 11 18  1  0
 18 19  2  0
 19  2  1  0
 18  5  1  0
  1 20  1  0
  1 21  1  0
  1 22  1  0
  3 23  1  0
  4 24  1  0
  6 25  1  0
  9 26  1  0
  9 27  1  0
 15 28  1  0
 15 29  1  0
 16 30  1  0
 16 31  1  0
 17 32  1  0
 19 33  1  0
M  END
>  <UniqueID>  (91) 
90

>  <SMILES>  (91) 
Cc1ccc2cc(C(N)=O)n(C(=O)OCCO)c2c1

>  <Energy>  (91) 
66.21554872551022

>  <Genealogy>  (91) 
Cc1ccc2cc(C(N)=O)n(C(=O)OCCO)c2c1 (3D coordinates assigned)
Cc1ccc2cc(C(N)=O)n(C(=O)OCCO)c2c1 (optimized conformer: 66.21554872551022 kcal/mol)

>  <smiles>  (91) 
Cc1ccc2cc(C(N)=O)n(C(=O)OCCO)c2c1

>  <score_type>  (91) 
oracle

>  <origin>  (91) 
adg

>  <m_score__min__energy>  (91) 
-8.3200000000000003

>  <m_primary>  (91) 
energy

$$$$
92:0
     RDKit          3D

 34 35  0  0  0  0  0  0  0  0999 V2000
   -6.8620   17.1200  -33.6790 C   0  0  0  0  0  0  0  0  0  0  0  0
   -7.0340   18.1720  -33.1160 C   0  0  0  0  0  0  0  0  0  0  0  0
   -7.2380   19.4280  -32.4440 C   0  0  0  0  0  0  0  0  0  0  0  0
   -8.4900   19.7150  -31.8520 C   0  0  0  0  0  0  0  0  0  0  0  0
   -8.6970   20.9320  -31.1810 C   0  0  0  0  0  0  0  0  0  0  0  0
   -7.6400   21.8380  -31.1320 C   0  0  0  0  0  0  0  0  0  0  0  0
   -7.5600   23.0690  -30.5230 C   0  0  0  0  0  0  0  0  0  0  0  0
   -6.2700   23.5240  -30.7830 C   0  0  0  0  0  0  0  0  0  0  0  0
   -5.7770   24.8500  -30.3600 C   0  0  0  0  0  0  0  0  0  0  0  0
   -5.7700   25.2330  -28.9840 N   0  0  0  0  0  0  0  0  0  0  0  0
   -5.3010   25.6370  -31.2220 O   0  0  0  0  0  0  0  0  0  0  0  0
   -5.5720   22.6070  -31.5110 N   0  0  0  0  0  0  0  0  0  0  0  0
   -4.1850   22.6570  -31.8830 C   0  0  0  0  0  0  0  0  0  0  0  0
   -3.7820   22.0290  -32.9000 O   0  0  0  0  0  0  0  0  0  0  0  0
   -3.2880   23.4100  -31.1220 O   0  0  0  0  0  0  0  0  0  0  0  0
   -2.8520   23.0160  -29.8260 C   0  0  0  0  0  0  0  0  0  0  0  0
   -2.9740   24.1760  -28.8980 C   0  0  0  0  0  0  0  0  0  0  0  0
   -3.8170   24.1450  -27.9610 O   0  0  0  0  0  0  0  0  0  0  0  0
   -2.1730   25.3040  -29.1030 O   0  0  0  0  0  0  0  0  0  0  0  0
   -1.2220   25.7520  -28.1450 C   0  0  0  0  0  0  0  0  0  0  0  0
   -6.4270   21.5800  -31.7200 C   0  0  0  0  0  0  0  0  0  0  0  0
   -6.1870   20.3640  -32.3740 C   0  0  0  0  0  0  0  0  0  0  0  0
   -6.7051   16.1601  -34.1927 H   0  0  0  0  0  0  0  0  0  0  0  0
   -9.3067   18.9810  -31.9173 H   0  0  0  0  0  0  0  0  0  0  0  0
   -9.6636   21.1622  -30.7091 H   0  0  0  0  0  0  0  0  0  0  0  0
   -8.3471   23.5839  -29.9525 H   0  0  0  0  0  0  0  0  0  0  0  0
   -5.4540   26.1890  -28.7080 H   0  0  0  0  0  0  0  0  0  0  0  0
   -5.9970   24.5450  -28.2320 H   0  0  0  0  0  0  0  0  0  0  0  0
   -3.4769   22.1865  -29.4633 H   0  0  0  0  0  0  0  0  0  0  0  0
   -1.8037   22.6859  -29.8716 H   0  0  0  0  0  0  0  0  0  0  0  0
   -1.6088   25.5698  -27.1315 H   0  0  0  0  0  0  0  0  0  0  0  0
   -0.2781   25.2038  -28.2813 H   0  0  0  0  0  0  0  0  0  0  0  0
   -1.0436   26.8288  -28.2813 H   0  0  0  0  0  0  0  0  0  0  0  0
   -5.2055   20.1463  -32.8203 H   0  0  0  0  0  0  0  0  0  0  0  0
  1  2  3  0
  2  3  1  0
  3  4  2  0
  4  5  1  0
  5  6  2  0
  6  7  1  0
  7  8  2  0
  8  9  1  0
  9 10  1  0
  9 11  2  0
  8 12  1  0
 12 13  1  0
 13 14  2  0
 13 15  1  0
 15 16  1  0
 16 17  1  0
 17 18  2  0
 17 19  1  0
 19 20  1  0
 12 21  1  0
 21 22  2  0
 22  3  1  0
 21  6  1  0
  1 23  1  0
  4 24  1  0
  5 25  1  0
  7 26  1  0
 10 27  1  0
 10 28  1  0
 16 29  1  0
 16 30  1  0
 20 31  1  0
 20 32  1  0
 20 33  1  0
 22 34  1  0
M  END
>  <UniqueID>  (92) 
91

>  <SMILES>  (92) 
C#Cc1ccc2cc(C(N)=O)n(C(=O)OCC(=O)OC)c2c1

>  <Energy>  (92) 
66.202082574859

>  <Genealogy>  (92) 
C#Cc1ccc2cc(C(N)=O)n(C(=O)OCC(=O)OC)c2c1 (3D coordinates assigned)
C#Cc1ccc2cc(C(N)=O)n(C(=O)OCC(=O)OC)c2c1 (optimized conformer: 66.202082574859 kcal/mol)

>  <smiles>  (92) 
C#Cc1ccc2cc(C(N)=O)n(C(=O)OCC(=O)OC)c2c1

>  <score_type>  (92) 
oracle

>  <origin>  (92) 
adg

>  <m_score__min__energy>  (92) 
-9.1099999999999994

>  <m_primary>  (92) 
energy

$$$$
93:0
     RDKit          3D

 35 38  0  0  0  0  0  0  0  0999 V2000
   -3.7300   25.2690  -30.3610 N   0  0  0  0  0  0  0  0  0  0  0  0
   -5.1510   25.2560  -30.4510 C   0  0  0  0  0  0  0  0  0  0  0  0
   -5.7990   26.2690  -30.0760 O   0  0  0  0  0  0  0  0  0  0  0  0
   -5.8790   24.0590  -30.9260 C   0  0  0  0  0  0  0  0  0  0  0  0
   -7.2450   24.0550  -31.1950 C   0  0  0  0  0  0  0  0  0  0  0  0
   -7.5450   22.7600  -31.5460 C   0  0  0  0  0  0  0  0  0  0  0  0
   -8.7620   22.1960  -31.9170 C   0  0  0  0  0  0  0  0  0  0  0  0
   -8.7820   20.8320  -32.2510 C   0  0  0  0  0  0  0  0  0  0  0  0
   -7.5900   20.0690  -32.2300 C   0  0  0  0  0  0  0  0  0  0  0  0
   -7.6310   18.6020  -32.5550 C   0  0  0  0  0  0  0  0  0  0  0  0
   -6.4700   18.2400  -33.3620 N   0  0  0  0  0  0  0  0  0  0  0  0
   -6.0500   18.8200  -34.5160 C   0  0  0  0  0  0  0  0  0  0  0  0
   -4.9890   18.1830  -35.0850 N   0  0  0  0  0  0  0  0  0  0  0  0
   -4.7660   17.1630  -34.2340 C   0  0  0  0  0  0  0  0  0  0  0  0
   -3.8230   16.1470  -34.3010 C   0  0  0  0  0  0  0  0  0  0  0  0
   -2.9880   16.0880  -35.2410 O   0  0  0  0  0  0  0  0  0  0  0  0
   -3.8310   15.2040  -33.3140 N   0  0  0  0  0  0  0  0  0  0  0  0
   -4.7420   15.2530  -32.2880 C   0  0  0  0  0  0  0  0  0  0  0  0
   -5.6700   16.2570  -32.2330 N   0  0  0  0  0  0  0  0  0  0  0  0
   -5.6520   17.1920  -33.2130 C   0  0  0  0  0  0  0  0  0  0  0  0
   -6.3740   20.6730  -31.8400 C   0  0  0  0  0  0  0  0  0  0  0  0
   -6.3860   22.0290  -31.4890 C   0  0  0  0  0  0  0  0  0  0  0  0
   -5.3510   22.8140  -31.1060 N   0  0  0  0  0  0  0  0  0  0  0  0
   -3.9670   22.4370  -30.9970 C   0  0  0  0  0  0  0  0  0  0  0  0
   -3.0700   23.0770  -31.6050 O   0  0  0  0  0  0  0  0  0  0  0  0
   -3.1360   25.2420  -31.2200 H   0  0  0  0  0  0  0  0  0  0  0  0
   -7.9377   24.9076  -31.1386 H   0  0  0  0  0  0  0  0  0  0  0  0
   -9.6806   22.8003  -31.9477 H   0  0  0  0  0  0  0  0  0  0  0  0
   -9.7317   20.3528  -32.5312 H   0  0  0  0  0  0  0  0  0  0  0  0
   -7.6216   18.0210  -31.6210 H   0  0  0  0  0  0  0  0  0  0  0  0
   -8.5484   18.3816  -33.1205 H   0  0  0  0  0  0  0  0  0  0  0  0
   -6.5201   19.7156  -34.9484 H   0  0  0  0  0  0  0  0  0  0  0  0
   -4.7257   14.4803  -31.5053 H   0  0  0  0  0  0  0  0  0  0  0  0
   -5.4401   20.0924  -31.8126 H   0  0  0  0  0  0  0  0  0  0  0  0
   -3.6883   21.5756  -30.3723 H   0  0  0  0  0  0  0  0  0  0  0  0
  1  2  1  0
  2  3  2  0
  2  4  1  0
  4  5  2  0
  5  6  1  0
  6  7  2  0
  7  8  1  0
  8  9  2  0
  9 10  1  0
 10 11  1  0
 11 12  1  0
 12 13  2  0
 13 14  1  0
 14 15  1  0
 15 16  2  0
 15 17  1  0
 17 18  1  0
 18 19  2  0
 19 20  1  0
  9 21  1  0
 21 22  2  0
 22 23  1  0
 23 24  1  0
 24 25  2  0
 23  4  1  0
 22  6  1  0
 20 11  1  0
 20 14  2  0
  1 26  1  0
  5 27  1  0
  7 28  1  0
  8 29  1  0
 10 30  1  0
 10 31  1  0
 12 32  1  0
 18 33  1  0
 21 34  1  0
 24 35  1  0
M  CHG  2   1  -1  17  -1
M  END
>  <UniqueID>  (93) 
92

>  <SMILES>  (93) 
[NH-]C(=O)c1cc2ccc(Cn3cnc4c(=O)[n-]cnc43)cc2n1C=O

>  <Energy>  (93) 
117.51741780130864

>  <Genealogy>  (93) 
[NH-]C(=O)c1cc2ccc(Cn3cnc4c(=O)[n-]cnc43)cc2n1C=O (protonated)
[NH-]C(=O)c1cc2ccc(Cn3cnc4c(=O)[n-]cnc43)cc2n1C=O (3D coordinates assigned)
[NH-]C(=O)c1cc2ccc(Cn3cnc4c(=O)[n-]cnc43)cc2n1C=O (optimized conformer: 117.51741780130864 kcal/mol)

>  <smiles>  (93) 
NC(=O)c1cc2ccc(Cn3cnc4c(=O)[nH]cnc43)cc2n1C=O

>  <score_type>  (93) 
oracle

>  <origin>  (93) 
adg

>  <m_score__min__energy>  (93) 
-10.949999999999999

>  <m_primary>  (93) 
energy

$$$$
94:0
     RDKit          3D

 41 42  0  0  0  0  0  0  0  0999 V2000
   -2.1590   25.3050  -27.1330 C   0  0  0  0  0  0  0  0  0  0  0  0
   -1.0290   25.0800  -28.1510 C   0  0  0  0  0  0  0  0  0  0  0  0
    0.3210   25.3890  -27.4750 C   0  0  0  0  0  0  0  0  0  0  0  0
   -1.2290   25.9650  -29.2290 O   0  0  0  0  0  0  0  0  0  0  0  0
   -1.0380   23.6110  -28.6500 C   0  0  0  0  0  0  0  0  0  0  0  0
   -2.0010   23.4130  -29.7340 N   0  0  0  0  0  0  0  0  0  0  0  0
   -2.2810   22.1230  -30.2980 C   0  0  0  0  0  0  0  0  0  0  0  0
   -1.8340   21.0800  -29.7470 O   0  0  0  0  0  0  0  0  0  0  0  0
   -3.0960   21.9990  -31.5200 C   0  0  0  0  0  0  0  0  0  0  0  0
   -2.5410   21.7490  -32.6240 O   0  0  0  0  0  0  0  0  0  0  0  0
   -4.5240   22.1460  -31.4620 N   0  0  0  0  0  0  0  0  0  0  0  0
   -5.2360   23.1780  -30.9300 C   0  0  0  0  0  0  0  0  0  0  0  0
   -4.6760   24.3230  -30.1790 C   0  0  0  0  0  0  0  0  0  0  0  0
   -3.8540   25.2930  -30.8240 N   0  0  0  0  0  0  0  0  0  0  0  0
   -4.9020   24.4310  -28.9450 O   0  0  0  0  0  0  0  0  0  0  0  0
   -6.6000   22.9880  -31.1430 C   0  0  0  0  0  0  0  0  0  0  0  0
   -6.7010   21.7980  -31.8290 C   0  0  0  0  0  0  0  0  0  0  0  0
   -7.8220   21.1390  -32.3240 C   0  0  0  0  0  0  0  0  0  0  0  0
   -7.6240   19.9410  -33.0310 C   0  0  0  0  0  0  0  0  0  0  0  0
   -6.3170   19.4190  -33.2250 C   0  0  0  0  0  0  0  0  0  0  0  0
   -6.1120   18.1660  -34.0360 C   0  0  0  0  0  0  0  0  0  0  0  0
   -6.0760   18.4610  -35.3880 F   0  0  0  0  0  0  0  0  0  0  0  0
   -4.9190   17.5520  -33.6950 F   0  0  0  0  0  0  0  0  0  0  0  0
   -7.1540   17.2900  -33.7930 F   0  0  0  0  0  0  0  0  0  0  0  0
   -5.2030   20.1350  -32.7300 C   0  0  0  0  0  0  0  0  0  0  0  0
   -5.4330   21.3130  -32.0110 C   0  0  0  0  0  0  0  0  0  0  0  0
   -1.7550   25.2246  -26.1130 H   0  0  0  0  0  0  0  0  0  0  0  0
   -2.5898   26.3066  -27.2788 H   0  0  0  0  0  0  0  0  0  0  0  0
   -2.9406   24.5449  -27.2788 H   0  0  0  0  0  0  0  0  0  0  0  0
    0.1987   25.3610  -26.3822 H   0  0  0  0  0  0  0  0  0  0  0  0
    1.0643   24.6378  -27.7802 H   0  0  0  0  0  0  0  0  0  0  0  0
    0.6635   26.3888  -27.7802 H   0  0  0  0  0  0  0  0  0  0  0  0
   -2.0360   25.6670  -29.7240 H   0  0  0  0  0  0  0  0  0  0  0  0
   -0.0329   23.3523  -29.0145 H   0  0  0  0  0  0  0  0  0  0  0  0
   -1.3310   22.9652  -27.8091 H   0  0  0  0  0  0  0  0  0  0  0  0
   -2.4930   24.2540  -30.1100 H   0  0  0  0  0  0  0  0  0  0  0  0
   -2.8260   25.3310  -30.6450 H   0  0  0  0  0  0  0  0  0  0  0  0
   -7.4219   23.6485  -30.8296 H   0  0  0  0  0  0  0  0  0  0  0  0
   -8.8327   21.5437  -32.1666 H   0  0  0  0  0  0  0  0  0  0  0  0
   -8.4911   19.4010  -33.4390 H   0  0  0  0  0  0  0  0  0  0  0  0
   -4.1789   19.7742  -32.9061 H   0  0  0  0  0  0  0  0  0  0  0  0
  1  2  1  0
  2  3  1  0
  2  4  1  0
  2  5  1  0
  5  6  1  0
  6  7  1  0
  7  8  2  0
  7  9  1  0
  9 10  2  0
  9 11  1  0
 11 12  1  0
 12 13  1  0
 13 14  1  0
 13 15  2  0
 12 16  2  0
 16 17  1  0
 17 18  2  0
 18 19  1  0
 19 20  2  0
 20 21  1  0
 21 22  1  0
 21 23  1  0
 21 24  1  0
 20 25  1  0
 25 26  2  0
 26 11  1  0
 26 17  1  0
  1 27  1  0
  1 28  1  0
  1 29  1  0
  3 30  1  0
  3 31  1  0
  3 32  1  0
  4 33  1  0
  5 34  1  0
  5 35  1  0
  6 36  1  0
 14 37  1  0
 16 38  1  0
 18 39  1  0
 19 40  1  0
 25 41  1  0
M  CHG  1  14  -1
M  END
>  <UniqueID>  (94) 
93

>  <SMILES>  (94) 
CC(C)(O)CNC(=O)C(=O)n1c(C([NH-])=O)cc2ccc(C(F)(F)F)cc21

>  <Energy>  (94) 
75.13413857094416

>  <Genealogy>  (94) 
CC(C)(O)CNC(=O)C(=O)n1c(C([NH-])=O)cc2ccc(C(F)(F)F)cc21 (protonated)
CC(C)(O)CNC(=O)C(=O)n1c(C([NH-])=O)cc2ccc(C(F)(F)F)cc21 (3D coordinates assigned)
CC(C)(O)CNC(=O)C(=O)n1c(C([NH-])=O)cc2ccc(C(F)(F)F)cc21 (optimized conformer: 75.13413857094416 kcal/mol)

>  <smiles>  (94) 
CC(C)(O)CNC(=O)C(=O)n1c(C(N)=O)cc2ccc(C(F)(F)F)cc21

>  <score_type>  (94) 
oracle

>  <origin>  (94) 
adg

>  <m_score__min__energy>  (94) 
-11.15

>  <m_primary>  (94) 
energy

$$$$
95:0
     RDKit          3D

 46 47  0  0  0  0  0  0  0  0999 V2000
   -4.1290   17.2720  -33.1030 C   0  0  0  0  0  0  0  0  0  0  0  0
   -5.4350   17.9090  -33.3020 N   0  0  0  0  0  0  0  0  0  0  0  0
   -5.7520   18.5510  -34.5830 C   0  0  0  0  0  0  0  0  0  0  0  0
   -6.4000   17.8860  -32.2270 C   0  0  0  0  0  0  0  0  0  0  0  0
   -6.1150   17.2880  -31.1520 O   0  0  0  0  0  0  0  0  0  0  0  0
   -7.7540   18.5390  -32.3820 C   0  0  0  0  0  0  0  0  0  0  0  0
   -7.7220   20.0130  -32.0630 C   0  0  0  0  0  0  0  0  0  0  0  0
   -8.9320   20.7480  -31.9830 C   0  0  0  0  0  0  0  0  0  0  0  0
   -8.9180   22.1110  -31.6410 C   0  0  0  0  0  0  0  0  0  0  0  0
   -7.6870   22.7080  -31.3850 C   0  0  0  0  0  0  0  0  0  0  0  0
   -7.3910   23.9950  -31.0010 C   0  0  0  0  0  0  0  0  0  0  0  0
   -6.0050   24.0310  -30.8650 C   0  0  0  0  0  0  0  0  0  0  0  0
   -5.2520   25.2600  -30.5430 C   0  0  0  0  0  0  0  0  0  0  0  0
   -3.8590   25.3600  -30.8270 N   0  0  0  0  0  0  0  0  0  0  0  0
   -5.8570   26.2530  -30.0570 O   0  0  0  0  0  0  0  0  0  0  0  0
   -5.4650   22.8110  -31.1460 N   0  0  0  0  0  0  0  0  0  0  0  0
   -4.0910   22.4110  -31.0190 C   0  0  0  0  0  0  0  0  0  0  0  0
   -3.2140   22.9220  -31.7690 O   0  0  0  0  0  0  0  0  0  0  0  0
   -3.7380   21.4280  -30.0850 O   0  0  0  0  0  0  0  0  0  0  0  0
   -2.7110   21.5970  -29.1070 C   0  0  0  0  0  0  0  0  0  0  0  0
   -3.2410   22.5370  -28.0120 C   0  0  0  0  0  0  0  0  0  0  0  0
   -3.6910   23.7490  -28.5570 O   0  0  0  0  0  0  0  0  0  0  0  0
   -1.4430   22.1600  -29.7750 C   0  0  0  0  0  0  0  0  0  0  0  0
   -1.4730   23.5620  -29.7940 O   0  0  0  0  0  0  0  0  0  0  0  0
   -6.5070   22.0120  -31.4650 C   0  0  0  0  0  0  0  0  0  0  0  0
   -6.4930   20.6490  -31.7850 C   0  0  0  0  0  0  0  0  0  0  0  0
   -3.9290   17.1744  -32.0258 H   0  0  0  0  0  0  0  0  0  0  0  0
   -4.1330   16.2747  -33.5670 H   0  0  0  0  0  0  0  0  0  0  0  0
   -3.3455   17.8891  -33.5670 H   0  0  0  0  0  0  0  0  0  0  0  0
   -6.2320   19.5231  -34.3971 H   0  0  0  0  0  0  0  0  0  0  0  0
   -4.8255   18.7032  -35.1561 H   0  0  0  0  0  0  0  0  0  0  0  0
   -6.4361   17.9079  -35.1561 H   0  0  0  0  0  0  0  0  0  0  0  0
   -8.0916   18.4097  -33.4209 H   0  0  0  0  0  0  0  0  0  0  0  0
   -8.4418   18.0572  -31.6715 H   0  0  0  0  0  0  0  0  0  0  0  0
   -9.8892   20.2473  -32.1903 H   0  0  0  0  0  0  0  0  0  0  0  0
   -9.8519   22.6887  -31.5775 H   0  0  0  0  0  0  0  0  0  0  0  0
   -8.0986   24.8209  -30.8362 H   0  0  0  0  0  0  0  0  0  0  0  0
   -3.1840   24.6520  -30.4640 H   0  0  0  0  0  0  0  0  0  0  0  0
   -2.4412   20.6331  -28.6509 H   0  0  0  0  0  0  0  0  0  0  0  0
   -4.0762   22.0459  -27.4911 H   0  0  0  0  0  0  0  0  0  0  0  0
   -2.4205   22.7535  -27.3121 H   0  0  0  0  0  0  0  0  0  0  0  0
   -3.6140   23.6630  -29.5440 H   0  0  0  0  0  0  0  0  0  0  0  0
   -0.5593   21.8254  -29.2118 H   0  0  0  0  0  0  0  0  0  0  0  0
   -1.3968   21.7934  -30.8111 H   0  0  0  0  0  0  0  0  0  0  0  0
   -2.3220   23.8300  -30.2320 H   0  0  0  0  0  0  0  0  0  0  0  0
   -5.5476   20.0877  -31.8189 H   0  0  0  0  0  0  0  0  0  0  0  0
  1  2  1  0
  2  3  1  0
  2  4  1  0
  4  5  2  0
  4  6  1  0
  6  7  1  0
  7  8  2  0
  8  9  1  0
  9 10  2  0
 10 11  1  0
 11 12  2  0
 12 13  1  0
 13 14  1  0
 13 15  2  0
 12 16  1  0
 16 17  1  0
 17 18  2  0
 17 19  1  0
 19 20  1  0
 20 21  1  0
 21 22  1  0
 20 23  1  0
 23 24  1  0
 16 25  1  0
 25 26  2  0
 26  7  1  0
 25 10  1  0
  1 27  1  0
  1 28  1  0
  1 29  1  0
  3 30  1  0
  3 31  1  0
  3 32  1  0
  6 33  1  0
  6 34  1  0
  8 35  1  0
  9 36  1  0
 11 37  1  0
 14 38  1  0
 20 39  1  0
 21 40  1  0
 21 41  1  0
 22 42  1  0
 23 43  1  0
 23 44  1  0
 24 45  1  0
 26 46  1  0
M  CHG  1  14  -1
M  END
>  <UniqueID>  (95) 
94

>  <SMILES>  (95) 
CN(C)C(=O)Cc1ccc2cc(C([NH-])=O)n(C(=O)OC(CO)CO)c2c1

>  <Energy>  (95) 
78.39439822357392

>  <Genealogy>  (95) 
CN(C)C(=O)Cc1ccc2cc(C([NH-])=O)n(C(=O)OC(CO)CO)c2c1 (protonated)
CN(C)C(=O)Cc1ccc2cc(C([NH-])=O)n(C(=O)OC(CO)CO)c2c1 (3D coordinates assigned)
CN(C)C(=O)Cc1ccc2cc(C([NH-])=O)n(C(=O)OC(CO)CO)c2c1 (optimized conformer: 78.39439822357392 kcal/mol)

>  <smiles>  (95) 
CN(C)C(=O)Cc1ccc2cc(C(N)=O)n(C(=O)OC(CO)CO)c2c1

>  <score_type>  (95) 
oracle

>  <origin>  (95) 
adg

>  <m_score__min__energy>  (95) 
-10.880000000000001

>  <m_primary>  (95) 
energy

$$$$
96:0
     RDKit          3D

 38 39  0  0  0  0  0  0  0  0999 V2000
   -7.7380   17.9980  -31.9950 C   0  0  0  0  0  0  0  0  0  0  0  0
   -8.0330   18.9470  -33.0710 N   0  0  0  0  0  0  0  0  0  0  0  0
   -7.9530   20.2990  -32.5760 C   0  0  0  0  0  0  0  0  0  0  0  0
   -9.1380   21.0390  -32.3250 C   0  0  0  0  0  0  0  0  0  0  0  0
   -9.0720   22.3450  -31.8090 C   0  0  0  0  0  0  0  0  0  0  0  0
   -7.8150   22.8840  -31.5580 C   0  0  0  0  0  0  0  0  0  0  0  0
   -7.4640   24.1100  -31.0380 C   0  0  0  0  0  0  0  0  0  0  0  0
   -6.0700   24.1080  -30.9940 C   0  0  0  0  0  0  0  0  0  0  0  0
   -5.2700   25.2770  -30.5760 C   0  0  0  0  0  0  0  0  0  0  0  0
   -3.8690   25.3390  -30.8340 N   0  0  0  0  0  0  0  0  0  0  0  0
   -5.8380   26.2580  -30.0260 O   0  0  0  0  0  0  0  0  0  0  0  0
   -5.5810   22.9240  -31.4590 N   0  0  0  0  0  0  0  0  0  0  0  0
   -4.2130   22.4930  -31.5170 C   0  0  0  0  0  0  0  0  0  0  0  0
   -3.5760   22.5720  -32.6040 O   0  0  0  0  0  0  0  0  0  0  0  0
   -3.5960   22.0110  -30.3550 O   0  0  0  0  0  0  0  0  0  0  0  0
   -3.3070   22.7770  -29.2170 C   0  0  0  0  0  0  0  0  0  0  0  0
   -4.1750   23.5430  -28.7150 O   0  0  0  0  0  0  0  0  0  0  0  0
   -1.9350   22.7330  -28.6050 C   0  0  0  0  0  0  0  0  0  0  0  0
   -0.9100   23.5950  -29.3580 C   0  0  0  0  0  0  0  0  0  0  0  0
   -0.7470   24.9480  -28.7310 C   0  0  0  0  0  0  0  0  0  0  0  0
   -1.5880   25.8580  -28.9550 O   0  0  0  0  0  0  0  0  0  0  0  0
    0.3440   25.2080  -27.9110 O   0  0  0  0  0  0  0  0  0  0  0  0
   -6.6600   22.1880  -31.8020 C   0  0  0  0  0  0  0  0  0  0  0  0
   -6.6960   20.8770  -32.2900 C   0  0  0  0  0  0  0  0  0  0  0  0
   -7.8903   18.4880  -31.0220 H   0  0  0  0  0  0  0  0  0  0  0  0
   -8.4087   17.1301  -32.0775 H   0  0  0  0  0  0  0  0  0  0  0  0
   -6.6934   17.6633  -32.0775 H   0  0  0  0  0  0  0  0  0  0  0  0
   -8.9910   18.7560  -33.4460 H   0  0  0  0  0  0  0  0  0  0  0  0
   -7.3470   18.8090  -33.8500 H   0  0  0  0  0  0  0  0  0  0  0  0
  -10.1178   20.5860  -32.5364 H   0  0  0  0  0  0  0  0  0  0  0  0
   -9.9866   22.9228  -31.6099 H   0  0  0  0  0  0  0  0  0  0  0  0
   -8.1398   24.9192  -30.7240 H   0  0  0  0  0  0  0  0  0  0  0  0
   -3.1780   25.0030  -30.1280 H   0  0  0  0  0  0  0  0  0  0  0  0
   -2.0025   23.0951  -27.5685 H   0  0  0  0  0  0  0  0  0  0  0  0
   -1.5869   21.6908  -28.6560 H   0  0  0  0  0  0  0  0  0  0  0  0
    0.0620   23.0800  -29.3497 H   0  0  0  0  0  0  0  0  0  0  0  0
   -1.2750   23.7379  -30.3858 H   0  0  0  0  0  0  0  0  0  0  0  0
   -5.7669   20.3095  -32.4473 H   0  0  0  0  0  0  0  0  0  0  0  0
  1  2  1  0
  2  3  1  0
  3  4  2  0
  4  5  1  0
  5  6  2  0
  6  7  1  0
  7  8  2  0
  8  9  1  0
  9 10  1  0
  9 11  2  0
  8 12  1  0
 12 13  1  0
 13 14  2  0
 13 15  1  0
 15 16  1  0
 16 17  2  0
 16 18  1  0
 18 19  1  0
 19 20  1  0
 20 21  2  0
 20 22  1  0
 12 23  1  0
 23 24  2  0
 24  3  1  0
 23  6  1  0
  1 25  1  0
  1 26  1  0
  1 27  1  0
  2 28  1  0
  2 29  1  0
  4 30  1  0
  5 31  1  0
  7 32  1  0
 10 33  1  0
 18 34  1  0
 18 35  1  0
 19 36  1  0
 19 37  1  0
 24 38  1  0
M  CHG  3   2   1  10  -1  22  -1
M  END
>  <UniqueID>  (96) 
95

>  <SMILES>  (96) 
C[NH2+]c1ccc2cc(C([NH-])=O)n(C(=O)OC(=O)CCC(=O)[O-])c2c1

>  <Energy>  (96) 
74.50040924781848

>  <Genealogy>  (96) 
C[NH2+]c1ccc2cc(C([NH-])=O)n(C(=O)OC(=O)CCC(=O)[O-])c2c1 (protonated)
C[NH2+]c1ccc2cc(C([NH-])=O)n(C(=O)OC(=O)CCC(=O)[O-])c2c1 (3D coordinates assigned)
C[NH2+]c1ccc2cc(C([NH-])=O)n(C(=O)OC(=O)CCC(=O)[O-])c2c1 (optimized conformer: 74.50040924781848 kcal/mol)

>  <smiles>  (96) 
CNc1ccc2cc(C(N)=O)n(C(=O)OC(=O)CCC(=O)O)c2c1

>  <score_type>  (96) 
oracle

>  <origin>  (96) 
adg

>  <m_score__min__energy>  (96) 
-12.02

>  <m_primary>  (96) 
energy

$$$$
