0:0
     RDKit          3D

 43 45  0  0  0  0  0  0  0  0999 V2000
   -2.6090   21.9330  -31.9240 C   0  0  0  0  0  0  0  0  0  0  0  0
   -3.4750   22.6410  -30.9300 C   0  0  0  0  0  0  0  0  0  0  0  0
   -2.9440   23.1850  -29.9270 O   0  0  0  0  0  0  0  0  0  0  0  0
   -4.8880   22.7750  -31.1500 N   0  0  0  0  0  0  0  0  0  0  0  0
   -5.6800   23.8560  -30.9010 C   0  0  0  0  0  0  0  0  0  0  0  0
   -5.2140   25.1950  -30.4880 C   0  0  0  0  0  0  0  0  0  0  0  0
   -3.9160   25.6630  -30.8480 N   0  0  0  0  0  0  0  0  0  0  0  0
   -5.9850   25.9540  -29.8420 O   0  0  0  0  0  0  0  0  0  0  0  0
   -7.0140   23.5530  -31.1700 C   0  0  0  0  0  0  0  0  0  0  0  0
   -7.0120   22.2460  -31.6030 C   0  0  0  0  0  0  0  0  0  0  0  0
   -8.0650   21.4320  -32.0030 C   0  0  0  0  0  0  0  0  0  0  0  0
   -7.7710   20.1130  -32.3860 C   0  0  0  0  0  0  0  0  0  0  0  0
   -6.4350   19.6280  -32.3590 C   0  0  0  0  0  0  0  0  0  0  0  0
   -6.1360   18.2290  -32.7590 C   0  0  0  0  0  0  0  0  0  0  0  0
   -7.1370   17.4020  -33.2930 C   0  0  0  0  0  0  0  0  0  0  0  0
   -6.8420   16.0890  -33.6650 C   0  0  0  0  0  0  0  0  0  0  0  0
   -5.5350   15.6070  -33.5140 C   0  0  0  0  0  0  0  0  0  0  0  0
   -5.1840   14.2190  -33.8730 C   0  0  0  0  0  0  0  0  0  0  0  0
   -5.6130   13.7510  -34.9620 O   0  0  0  0  0  0  0  0  0  0  0  0
   -4.3830   13.3900  -33.0100 N   0  0  0  0  0  0  0  0  0  0  0  0
   -3.5320   12.3580  -33.6070 C   0  0  0  0  0  0  0  0  0  0  0  0
   -4.5620   13.4480  -31.5540 C   0  0  0  0  0  0  0  0  0  0  0  0
   -4.5830   16.4150  -32.9730 N   0  0  0  0  0  0  0  0  0  0  0  0
   -4.8460   17.6960  -32.6030 C   0  0  0  0  0  0  0  0  0  0  0  0
   -5.3930   20.4910  -31.9460 C   0  0  0  0  0  0  0  0  0  0  0  0
   -5.7170   21.8010  -31.5820 C   0  0  0  0  0  0  0  0  0  0  0  0
   -1.8635   21.3235  -31.3923 H   0  0  0  0  0  0  0  0  0  0  0  0
   -3.2319   21.2822  -32.5552 H   0  0  0  0  0  0  0  0  0  0  0  0
   -2.0950   22.6729  -32.5552 H   0  0  0  0  0  0  0  0  0  0  0  0
   -3.0610   25.2890  -30.3790 H   0  0  0  0  0  0  0  0  0  0  0  0
   -7.8838   24.2173  -31.0597 H   0  0  0  0  0  0  0  0  0  0  0  0
   -9.0981   21.8095  -32.0192 H   0  0  0  0  0  0  0  0  0  0  0  0
   -8.5843   19.4473  -32.7107 H   0  0  0  0  0  0  0  0  0  0  0  0
   -8.1585   17.7903  -33.4189 H   0  0  0  0  0  0  0  0  0  0  0  0
   -7.6292   15.4382  -34.0733 H   0  0  0  0  0  0  0  0  0  0  0  0
   -3.0501   11.7736  -32.8094 H   0  0  0  0  0  0  0  0  0  0  0  0
   -4.1464   11.6913  -34.2300 H   0  0  0  0  0  0  0  0  0  0  0  0
   -2.7605   12.8341  -34.2300 H   0  0  0  0  0  0  0  0  0  0  0  0
   -3.6282   13.1454  -31.0574 H   0  0  0  0  0  0  0  0  0  0  0  0
   -4.8191   14.4754  -31.2568 H   0  0  0  0  0  0  0  0  0  0  0  0
   -5.3728   12.7666  -31.2568 H   0  0  0  0  0  0  0  0  0  0  0  0
   -4.0443   18.3186  -32.1791 H   0  0  0  0  0  0  0  0  0  0  0  0
   -4.3514   20.1391  -31.9121 H   0  0  0  0  0  0  0  0  0  0  0  0
  1  2  1  0
  2  3  2  0
  2  4  1  0
  4  5  1  0
  5  6  1  0
  6  7  1  0
  6  8  2  0
  5  9  2  0
  9 10  1  0
 10 11  2  0
 11 12  1  0
 12 13  2  0
 13 14  1  0
 14 15  2  0
 15 16  1  0
 16 17  2  0
 17 18  1  0
 18 19  2  0
 18 20  1  0
 20 21  1  0
 20 22  1  0
 17 23  1  0
 23 24  2  0
 13 25  1  0
 25 26  2  0
 26  4  1  0
 26 10  1  0
 24 14  1  0
  1 27  1  0
  1 28  1  0
  1 29  1  0
  7 30  1  0
  9 31  1  0
 11 32  1  0
 12 33  1  0
 15 34  1  0
 16 35  1  0
 21 36  1  0
 21 37  1  0
 21 38  1  0
 22 39  1  0
 22 40  1  0
 22 41  1  0
 24 42  1  0
 25 43  1  0
M  CHG  1   7  -1
M  END
>  <UniqueID>  (1) 
1

>  <SMILES>  (1) 
CC(=O)n1c(C([NH-])=O)cc2ccc(-c3ccc(C(=O)N(C)C)nc3)cc21

>  <Energy>  (1) 
93.00588831849058

>  <Genealogy>  (1) 
CC(=O)n1c(C([NH-])=O)cc2ccc(-c3ccc(C(=O)N(C)C)nc3)cc21 (protonated)
CC(=O)n1c(C([NH-])=O)cc2ccc(-c3ccc(C(=O)N(C)C)nc3)cc21 (3D coordinates assigned)
CC(=O)n1c(C([NH-])=O)cc2ccc(-c3ccc(C(=O)N(C)C)nc3)cc21 (optimized conformer: 93.00588831849058 kcal/mol)

>  <smiles>  (1) 
CC(=O)n1c(C(N)=O)cc2ccc(-c3ccc(C(=O)N(C)C)nc3)cc21

>  <score_type>  (1) 
oracle

>  <origin>  (1) 
adg

>  <m_score__min__energy>  (1) 
-10.890000000000001

>  <m_primary>  (1) 
energy

$$$$
1:0
     RDKit          3D

 30 32  0  0  0  0  0  0  0  0999 V2000
   -6.7780   15.0250  -34.2110 C   0  0  0  0  0  0  0  0  0  0  0  0
   -6.4830   16.4840  -34.1450 C   0  0  0  0  0  0  0  0  0  0  0  0
   -7.0550   17.3280  -33.2660 N   0  0  0  0  0  0  0  0  0  0  0  0
   -6.4930   18.5040  -33.6220 C   0  0  0  0  0  0  0  0  0  0  0  0
   -6.7850   19.7920  -32.9550 C   0  0  0  0  0  0  0  0  0  0  0  0
   -8.1220   20.1460  -32.6400 C   0  0  0  0  0  0  0  0  0  0  0  0
   -8.4090   21.3590  -31.9940 C   0  0  0  0  0  0  0  0  0  0  0  0
   -7.3460   22.2020  -31.6840 C   0  0  0  0  0  0  0  0  0  0  0  0
   -7.3420   23.4130  -31.0300 C   0  0  0  0  0  0  0  0  0  0  0  0
   -6.0060   23.7980  -30.9820 C   0  0  0  0  0  0  0  0  0  0  0  0
   -5.5520   25.0820  -30.4110 C   0  0  0  0  0  0  0  0  0  0  0  0
   -4.2070   25.5320  -30.5770 N   0  0  0  0  0  0  0  0  0  0  0  0
   -6.3810   25.8200  -29.8140 O   0  0  0  0  0  0  0  0  0  0  0  0
   -5.2110   22.8590  -31.5680 N   0  0  0  0  0  0  0  0  0  0  0  0
   -3.7740   22.8380  -31.6170 C   0  0  0  0  0  0  0  0  0  0  0  0
   -3.0990   23.3350  -30.6770 O   0  0  0  0  0  0  0  0  0  0  0  0
   -3.1120   22.2680  -32.6980 O   0  0  0  0  0  0  0  0  0  0  0  0
   -6.0490   21.8870  -31.9960 C   0  0  0  0  0  0  0  0  0  0  0  0
   -5.7310   20.6740  -32.6200 C   0  0  0  0  0  0  0  0  0  0  0  0
   -5.6390   18.3720  -34.6580 N   0  0  0  0  0  0  0  0  0  0  0  0
   -5.6630   17.1080  -34.9530 O   0  0  0  0  0  0  0  0  0  0  0  0
   -6.8597   14.6209  -33.1912 H   0  0  0  0  0  0  0  0  0  0  0  0
   -7.7264   14.8665  -34.7453 H   0  0  0  0  0  0  0  0  0  0  0  0
   -5.9657   14.5105  -34.7453 H   0  0  0  0  0  0  0  0  0  0  0  0
   -8.9426   19.4629  -32.9047 H   0  0  0  0  0  0  0  0  0  0  0  0
   -9.4432   21.6348  -31.7404 H   0  0  0  0  0  0  0  0  0  0  0  0
   -8.2093   23.9594  -30.6308 H   0  0  0  0  0  0  0  0  0  0  0  0
   -3.8940   26.4250  -30.1340 H   0  0  0  0  0  0  0  0  0  0  0  0
   -3.5450   25.0300  -31.2080 H   0  0  0  0  0  0  0  0  0  0  0  0
   -4.6861   20.4133  -32.8443 H   0  0  0  0  0  0  0  0  0  0  0  0
  1  2  1  0
  2  3  2  0
  3  4  1  0
  4  5  1  0
  5  6  2  0
  6  7  1  0
  7  8  2  0
  8  9  1  0
  9 10  2  0
 10 11  1  0
 11 12  1  0
 11 13  2  0
 10 14  1  0
 14 15  1  0
 15 16  2  0
 15 17  1  0
 14 18  1  0
 18 19  2  0
  4 20  2  0
 20 21  1  0
 21  2  1  0
 19  5  1  0
 18  8  1  0
  1 22  1  0
  1 23  1  0
  1 24  1  0
  6 25  1  0
  7 26  1  0
  9 27  1  0
 12 28  1  0
 12 29  1  0
 19 30  1  0
M  CHG  1  17  -1
M  END
>  <UniqueID>  (2) 
2

>  <SMILES>  (2) 
Cc1nc(-c2ccc3cc(C(N)=O)n(C(=O)[O-])c3c2)no1

>  <Energy>  (2) 
104.6695526457621

>  <Genealogy>  (2) 
Cc1nc(-c2ccc3cc(C(N)=O)n(C(=O)[O-])c3c2)no1 (protonated)
Cc1nc(-c2ccc3cc(C(N)=O)n(C(=O)[O-])c3c2)no1 (3D coordinates assigned)
Cc1nc(-c2ccc3cc(C(N)=O)n(C(=O)[O-])c3c2)no1 (optimized conformer: 104.6695526457621 kcal/mol)

>  <smiles>  (2) 
Cc1nc(-c2ccc3cc(C(N)=O)n(C(=O)O)c3c2)no1

>  <score_type>  (2) 
oracle

>  <origin>  (2) 
adg

>  <m_score__min__energy>  (2) 
-9.6400000000000006

>  <m_primary>  (2) 
energy

$$$$
2:0
     RDKit          3D

 48 50  0  0  0  0  0  0  0  0999 V2000
   -0.9410   20.6150  -34.2910 C   0  0  0  0  0  0  0  0  0  0  0  0
   -2.2490   20.3560  -33.5350 C   0  0  0  0  0  0  0  0  0  0  0  0
   -3.0500   21.5630  -32.9990 C   0  0  0  0  0  0  0  0  0  0  0  0
   -3.0800   21.5750  -31.5730 O   0  0  0  0  0  0  0  0  0  0  0  0
   -3.7120   22.5730  -30.8230 C   0  0  0  0  0  0  0  0  0  0  0  0
   -3.0650   23.2450  -29.9750 O   0  0  0  0  0  0  0  0  0  0  0  0
   -5.1150   22.8080  -30.9970 N   0  0  0  0  0  0  0  0  0  0  0  0
   -5.7860   23.9870  -30.8870 C   0  0  0  0  0  0  0  0  0  0  0  0
   -5.2100   25.2700  -30.4310 C   0  0  0  0  0  0  0  0  0  0  0  0
   -3.9030   25.6510  -30.8530 N   0  0  0  0  0  0  0  0  0  0  0  0
   -5.8700   26.0460  -29.6900 O   0  0  0  0  0  0  0  0  0  0  0  0
   -7.1280   23.8140  -31.2190 C   0  0  0  0  0  0  0  0  0  0  0  0
   -7.2540   22.4820  -31.5440 C   0  0  0  0  0  0  0  0  0  0  0  0
   -8.3600   21.7680  -31.9810 C   0  0  0  0  0  0  0  0  0  0  0  0
   -8.1900   20.4090  -32.3000 C   0  0  0  0  0  0  0  0  0  0  0  0
   -6.9140   19.7740  -32.1870 C   0  0  0  0  0  0  0  0  0  0  0  0
   -6.6800   18.2930  -32.5640 C   0  0  0  0  0  0  0  0  0  0  0  0
   -7.9890   17.5030  -32.3380 C   0  0  0  0  0  0  0  0  0  0  0  0
   -5.5670   17.7160  -31.6600 C   0  0  0  0  0  0  0  0  0  0  0  0
   -6.2470   18.1140  -34.0510 C   0  0  0  0  0  0  0  0  0  0  0  0
   -6.1280   19.3480  -34.7120 O   0  0  0  0  0  0  0  0  0  0  0  0
   -5.8180   20.5560  -31.7260 C   0  0  0  0  0  0  0  0  0  0  0  0
   -6.0270   21.8980  -31.4030 C   0  0  0  0  0  0  0  0  0  0  0  0
   -2.3170   19.0620  -32.7260 C   0  0  0  0  0  0  0  0  0  0  0  0
   -3.0740   19.1760  -34.0420 C   0  0  0  0  0  0  0  0  0  0  0  0
   -0.1263   20.7763  -33.5697 H   0  0  0  0  0  0  0  0  0  0  0  0
   -0.7045   19.7462  -34.9229 H   0  0  0  0  0  0  0  0  0  0  0  0
   -1.0534   21.5083  -34.9229 H   0  0  0  0  0  0  0  0  0  0  0  0
   -2.5796   22.4914  -33.3550 H   0  0  0  0  0  0  0  0  0  0  0  0
   -4.0837   21.4837  -33.3667 H   0  0  0  0  0  0  0  0  0  0  0  0
   -3.0550   25.2950  -30.3600 H   0  0  0  0  0  0  0  0  0  0  0  0
   -7.9186   24.5788  -31.2210 H   0  0  0  0  0  0  0  0  0  0  0  0
   -9.3434   22.2517  -32.0755 H   0  0  0  0  0  0  0  0  0  0  0  0
   -9.0555   19.8232  -32.6431 H   0  0  0  0  0  0  0  0  0  0  0  0
   -8.1697   17.3939  -31.2584 H   0  0  0  0  0  0  0  0  0  0  0  0
   -8.8285   18.0454  -32.7974 H   0  0  0  0  0  0  0  0  0  0  0  0
   -7.9004   16.5074  -32.7974 H   0  0  0  0  0  0  0  0  0  0  0  0
   -5.8415   17.8583  -30.6043 H   0  0  0  0  0  0  0  0  0  0  0  0
   -5.4471   16.6422  -31.8661 H   0  0  0  0  0  0  0  0  0  0  0  0
   -4.6203   18.2369  -31.8661 H   0  0  0  0  0  0  0  0  0  0  0  0
   -5.2750   17.5997  -34.0794 H   0  0  0  0  0  0  0  0  0  0  0  0
   -7.0213   17.5247  -34.5640 H   0  0  0  0  0  0  0  0  0  0  0  0
   -6.9260   19.4510  -35.2920 H   0  0  0  0  0  0  0  0  0  0  0  0
   -4.8182   20.1084  -31.6254 H   0  0  0  0  0  0  0  0  0  0  0  0
   -1.4332   18.4110  -32.6547 H   0  0  0  0  0  0  0  0  0  0  0  0
   -2.5899   18.8051  -31.6918 H   0  0  0  0  0  0  0  0  0  0  0  0
   -2.7370   18.6070  -34.9210 H   0  0  0  0  0  0  0  0  0  0  0  0
   -4.1202   19.0352  -34.3513 H   0  0  0  0  0  0  0  0  0  0  0  0
  1  2  1  0
  2  3  1  0
  3  4  1  0
  4  5  1  0
  5  6  2  0
  5  7  1  0
  7  8  1  0
  8  9  1  0
  9 10  1  0
  9 11  2  0
  8 12  2  0
 12 13  1  0
 13 14  2  0
 14 15  1  0
 15 16  2  0
 16 17  1  0
 17 18  1  0
 17 19  1  0
 17 20  1  0
 20 21  1  0
 16 22  1  0
 22 23  2  0
  2 24  1  0
 24 25  1  0
 25  2  1  0
 23  7  1  0
 23 13  1  0
  1 26  1  0
  1 27  1  0
  1 28  1  0
  3 29  1  0
  3 30  1  0
 10 31  1  0
 12 32  1  0
 14 33  1  0
 15 34  1  0
 18 35  1  0
 18 36  1  0
 18 37  1  0
 19 38  1  0
 19 39  1  0
 19 40  1  0
 20 41  1  0
 20 42  1  0
 21 43  1  0
 22 44  1  0
 24 45  1  0
 24 46  1  0
 25 47  1  0
 25 48  1  0
M  CHG  1  10  -1
M  END
>  <UniqueID>  (3) 
3

>  <SMILES>  (3) 
CC1(COC(=O)n2c(C([NH-])=O)cc3ccc(C(C)(C)CO)cc32)CC1

>  <Energy>  (3) 
355.35680301862556

>  <Genealogy>  (3) 
CC1(COC(=O)n2c(C([NH-])=O)cc3ccc(C(C)(C)CO)cc32)CC1 (protonated)
CC1(COC(=O)n2c(C([NH-])=O)cc3ccc(C(C)(C)CO)cc32)CC1 (3D coordinates assigned)
CC1(COC(=O)n2c(C([NH-])=O)cc3ccc(C(C)(C)CO)cc32)CC1 (nonaromatic ring conformer: 355.35680301862556 kcal/mol)

>  <smiles>  (3) 
CC1(COC(=O)n2c(C(N)=O)cc3ccc(C(C)(C)CO)cc32)CC1

>  <score_type>  (3) 
oracle

>  <origin>  (3) 
adg

>  <m_score__min__energy>  (3) 
-10.859999999999999

>  <m_primary>  (3) 
energy

$$$$
3:0
     RDKit          3D

 53 55  0  0  0  0  0  0  0  0999 V2000
    1.8050   19.3020  -28.6360 C   0  0  0  0  0  0  0  0  0  0  0  0
    0.4190   18.6670  -28.3850 C   0  0  0  0  0  0  0  0  0  0  0  0
    0.5560   17.1490  -28.1440 C   0  0  0  0  0  0  0  0  0  0  0  0
   -0.4710   18.8980  -29.6210 C   0  0  0  0  0  0  0  0  0  0  0  0
   -0.2360   19.2970  -27.2750 O   0  0  0  0  0  0  0  0  0  0  0  0
   -1.5660   19.7480  -27.2360 C   0  0  0  0  0  0  0  0  0  0  0  0
   -2.4830   18.9930  -26.8140 O   0  0  0  0  0  0  0  0  0  0  0  0
   -1.8760   21.0780  -27.6950 N   0  0  0  0  0  0  0  0  0  0  0  0
   -3.2960   21.5040  -27.6910 C   0  0  0  0  0  0  0  0  0  0  0  0
   -3.5640   22.8290  -28.4230 C   0  0  0  0  0  0  0  0  0  0  0  0
   -2.5410   23.0490  -29.4360 N   0  0  0  0  0  0  0  0  0  0  0  0
   -2.7310   22.5900  -30.7920 C   0  0  0  0  0  0  0  0  0  0  0  0
   -1.7330   22.3370  -31.5220 O   0  0  0  0  0  0  0  0  0  0  0  0
   -4.0480   22.3890  -31.3180 N   0  0  0  0  0  0  0  0  0  0  0  0
   -5.0980   23.2580  -31.2870 C   0  0  0  0  0  0  0  0  0  0  0  0
   -5.0870   24.5970  -30.6740 C   0  0  0  0  0  0  0  0  0  0  0  0
   -3.8560   25.2970  -30.5170 N   0  0  0  0  0  0  0  0  0  0  0  0
   -6.1450   25.1120  -30.2350 O   0  0  0  0  0  0  0  0  0  0  0  0
   -6.2020   22.6960  -31.9380 C   0  0  0  0  0  0  0  0  0  0  0  0
   -5.7840   21.4520  -32.3650 C   0  0  0  0  0  0  0  0  0  0  0  0
   -6.4700   20.4600  -33.0560 C   0  0  0  0  0  0  0  0  0  0  0  0
   -5.7880   19.2620  -33.3430 C   0  0  0  0  0  0  0  0  0  0  0  0
   -4.4350   19.0870  -32.9520 C   0  0  0  0  0  0  0  0  0  0  0  0
   -3.6930   17.8090  -33.2540 C   0  0  0  0  0  0  0  0  0  0  0  0
   -2.4050   17.8390  -32.7380 F   0  0  0  0  0  0  0  0  0  0  0  0
   -3.6060   17.6320  -34.6230 F   0  0  0  0  0  0  0  0  0  0  0  0
   -4.3740   16.7410  -32.7010 F   0  0  0  0  0  0  0  0  0  0  0  0
   -3.7600   20.1390  -32.2890 C   0  0  0  0  0  0  0  0  0  0  0  0
   -4.4730   21.3020  -31.9930 C   0  0  0  0  0  0  0  0  0  0  0  0
   -1.1970   23.1920  -28.8880 C   0  0  0  0  0  0  0  0  0  0  0  0
   -0.7640   21.8480  -28.2980 C   0  0  0  0  0  0  0  0  0  0  0  0
    2.2871   19.5229  -27.6722 H   0  0  0  0  0  0  0  0  0  0  0  0
    2.4314   18.6011  -29.2072 H   0  0  0  0  0  0  0  0  0  0  0  0
    1.6832   20.2341  -29.2072 H   0  0  0  0  0  0  0  0  0  0  0  0
    0.5740   16.9496  -27.0624 H   0  0  0  0  0  0  0  0  0  0  0  0
   -0.2987   16.6269  -28.5989 H   0  0  0  0  0  0  0  0  0  0  0  0
    1.4903   16.7884  -28.5989 H   0  0  0  0  0  0  0  0  0  0  0  0
   -1.4882   19.1620  -29.2962 H   0  0  0  0  0  0  0  0  0  0  0  0
   -0.0545   19.7178  -30.2247 H   0  0  0  0  0  0  0  0  0  0  0  0
   -0.5058   17.9791  -30.2247 H   0  0  0  0  0  0  0  0  0  0  0  0
   -3.8926   20.7168  -28.1751 H   0  0  0  0  0  0  0  0  0  0  0  0
   -3.5721   21.6656  -26.6386 H   0  0  0  0  0  0  0  0  0  0  0  0
   -4.5519   22.7866  -28.9049 H   0  0  0  0  0  0  0  0  0  0  0  0
   -3.5405   23.6557  -27.6977 H   0  0  0  0  0  0  0  0  0  0  0  0
   -3.5570   26.0180  -31.2170 H   0  0  0  0  0  0  0  0  0  0  0  0
   -7.1939   23.1501  -32.0795 H   0  0  0  0  0  0  0  0  0  0  0  0
   -7.5142   20.6064  -33.3692 H   0  0  0  0  0  0  0  0  0  0  0  0
   -6.3094   18.4532  -33.8759 H   0  0  0  0  0  0  0  0  0  0  0  0
   -2.6994   20.0428  -32.0136 H   0  0  0  0  0  0  0  0  0  0  0  0
   -0.5008   23.4875  -29.6867 H   0  0  0  0  0  0  0  0  0  0  0  0
   -1.1908   23.9651  -28.1055 H   0  0  0  0  0  0  0  0  0  0  0  0
   -0.3181   21.2433  -29.1014 H   0  0  0  0  0  0  0  0  0  0  0  0
   -0.0486   22.0659  -27.4913 H   0  0  0  0  0  0  0  0  0  0  0  0
  1  2  1  0
  2  3  1  0
  2  4  1  0
  2  5  1  0
  5  6  1  0
  6  7  2  0
  6  8  1  0
  8  9  1  0
  9 10  1  0
 10 11  1  0
 11 12  1  0
 12 13  2  0
 12 14  1  0
 14 15  1  0
 15 16  1  0
 16 17  1  0
 16 18  2  0
 15 19  2  0
 19 20  1  0
 20 21  2  0
 21 22  1  0
 22 23  2  0
 23 24  1  0
 24 25  1  0
 24 26  1  0
 24 27  1  0
 23 28  1  0
 28 29  2  0
 11 30  1  0
 30 31  1  0
 31  8  1  0
 29 14  1  0
 29 20  1  0
  1 32  1  0
  1 33  1  0
  1 34  1  0
  3 35  1  0
  3 36  1  0
  3 37  1  0
  4 38  1  0
  4 39  1  0
  4 40  1  0
  9 41  1  0
  9 42  1  0
 10 43  1  0
 10 44  1  0
 17 45  1  0
 19 46  1  0
 21 47  1  0
 22 48  1  0
 28 49  1  0
 30 50  1  0
 30 51  1  0
 31 52  1  0
 31 53  1  0
M  CHG  1  17  -1
M  END
>  <UniqueID>  (4) 
4

>  <SMILES>  (4) 
CC(C)(C)OC(=O)N1CCN(C(=O)n2c(C([NH-])=O)cc3ccc(C(F)(F)F)cc32)CC1

>  <Energy>  (4) 
93.44410114957589

>  <Genealogy>  (4) 
CC(C)(C)OC(=O)N1CCN(C(=O)n2c(C([NH-])=O)cc3ccc(C(F)(F)F)cc32)CC1 (protonated)
CC(C)(C)OC(=O)N1CCN(C(=O)n2c(C([NH-])=O)cc3ccc(C(F)(F)F)cc32)CC1 (3D coordinates assigned)
CC(C)(C)OC(=O)N1CCN(C(=O)n2c(C([NH-])=O)cc3ccc(C(F)(F)F)cc32)CC1 (nonaromatic ring conformer: 93.44410114957589 kcal/mol)

>  <smiles>  (4) 
CC(C)(C)OC(=O)N1CCN(C(=O)n2c(C(N)=O)cc3ccc(C(F)(F)F)cc32)CC1

>  <score_type>  (4) 
oracle

>  <origin>  (4) 
adg

>  <m_score__min__energy>  (4) 
-11.050000000000001

>  <m_primary>  (4) 
energy

$$$$
4:0
     RDKit          3D

 43 45  0  0  0  0  0  0  0  0999 V2000
   -1.9700   17.6050  -32.7310 C   0  0  0  0  0  0  0  0  0  0  0  0
   -2.0990   19.1210  -33.0120 C   0  0  0  0  0  0  0  0  0  0  0  0
   -3.5960   19.3990  -33.3020 C   0  0  0  0  0  0  0  0  0  0  0  0
   -1.2730   19.4330  -34.2700 C   0  0  0  0  0  0  0  0  0  0  0  0
   -0.8880   18.4900  -34.9510 O   0  0  0  0  0  0  0  0  0  0  0  0
   -1.0190   20.7970  -34.7210 N   0  0  2  0  0  0  0  0  0  0  0  0
   -0.1180   20.9240  -35.8840 C   0  0  0  0  0  0  0  0  0  0  0  0
    0.9000   21.7380  -35.0970 C   0  0  1  0  0  0  0  0  0  0  0  0
    0.9950   23.0820  -35.5080 O   0  0  0  0  0  0  0  0  0  0  0  0
   -0.0320   21.5300  -33.9120 C   0  0  0  0  0  0  0  0  0  0  0  0
   -1.6640   19.9900  -31.8100 C   0  0  0  0  0  0  0  0  0  0  0  0
   -0.5530   19.6470  -30.9790 C   0  0  0  0  0  0  0  0  0  0  0  0
   -0.1500   20.4800  -29.9230 C   0  0  0  0  0  0  0  0  0  0  0  0
   -0.8640   21.6500  -29.7020 C   0  0  0  0  0  0  0  0  0  0  0  0
   -0.6560   22.6520  -28.7820 C   0  0  0  0  0  0  0  0  0  0  0  0
   -1.6490   23.5960  -29.0350 C   0  0  0  0  0  0  0  0  0  0  0  0
   -1.8380   24.8150  -28.2220 C   0  0  0  0  0  0  0  0  0  0  0  0
   -1.4400   26.0930  -28.7120 N   0  0  0  0  0  0  0  0  0  0  0  0
   -2.4010   24.7350  -27.0970 O   0  0  0  0  0  0  0  0  0  0  0  0
   -2.4340   23.1950  -30.0730 N   0  0  0  0  0  0  0  0  0  0  0  0
   -3.4910   23.9310  -30.7080 C   0  0  0  0  0  0  0  0  0  0  0  0
   -4.3020   23.3470  -31.4720 O   0  0  0  0  0  0  0  0  0  0  0  0
   -3.6050   25.3010  -30.5140 O   0  0  0  0  0  0  0  0  0  0  0  0
   -1.9410   22.0010  -30.4680 C   0  0  0  0  0  0  0  0  0  0  0  0
   -2.3580   21.2010  -31.5360 C   0  0  0  0  0  0  0  0  0  0  0  0
   -1.9554   17.4334  -31.6446 H   0  0  0  0  0  0  0  0  0  0  0  0
   -2.8264   17.0757  -33.1743 H   0  0  0  0  0  0  0  0  0  0  0  0
   -1.0365   17.2280  -33.1743 H   0  0  0  0  0  0  0  0  0  0  0  0
   -4.1409   19.5002  -32.3518 H   0  0  0  0  0  0  0  0  0  0  0  0
   -3.6908   20.3301  -33.8800 H   0  0  0  0  0  0  0  0  0  0  0  0
   -4.0187   18.5640  -33.8800 H   0  0  0  0  0  0  0  0  0  0  0  0
   -1.8990   21.3440  -34.8700 H   0  0  0  0  0  0  0  0  0  0  0  0
    0.2737   19.9606  -36.2424 H   0  0  0  0  0  0  0  0  0  0  0  0
   -0.5161   21.3343  -36.8238 H   0  0  0  0  0  0  0  0  0  0  0  0
    1.9710   21.4884  -35.0705 H   0  0  0  0  0  0  0  0  0  0  0  0
    0.3570   23.6250  -34.9750 H   0  0  0  0  0  0  0  0  0  0  0  0
    0.4112   20.9242  -33.1079 H   0  0  0  0  0  0  0  0  0  0  0  0
   -0.3635   22.4074  -33.3374 H   0  0  0  0  0  0  0  0  0  0  0  0
   -0.0036   18.7134  -31.1702 H   0  0  0  0  0  0  0  0  0  0  0  0
    0.7078   20.2130  -29.2883 H   0  0  0  0  0  0  0  0  0  0  0  0
    0.1273   22.6979  -28.0111 H   0  0  0  0  0  0  0  0  0  0  0  0
   -1.2340   26.2380  -29.7250 H   0  0  0  0  0  0  0  0  0  0  0  0
   -3.2133   21.5047  -32.1575 H   0  0  0  0  0  0  0  0  0  0  0  0
  1  2  1  0
  2  3  1  0
  2  4  1  0
  4  5  2  0
  4  6  1  0
  6  7  1  0
  7  8  1  0
  8  9  1  0
  8 10  1  0
  2 11  1  0
 11 12  2  0
 12 13  1  0
 13 14  2  0
 14 15  1  0
 15 16  2  0
 16 17  1  0
 17 18  1  0
 17 19  2  0
 16 20  1  0
 20 21  1  0
 21 22  2  0
 21 23  1  0
 20 24  1  0
 24 25  2  0
 10  6  1  0
 25 11  1  0
 24 14  1  0
  1 26  1  0
  1 27  1  0
  1 28  1  0
  3 29  1  0
  3 30  1  0
  3 31  1  0
  6 32  1  6
  7 33  1  0
  7 34  1  0
  8 35  1  1
  9 36  1  0
 10 37  1  0
 10 38  1  0
 12 39  1  0
 13 40  1  0
 15 41  1  0
 18 42  1  0
 25 43  1  0
M  CHG  3   6   1  18  -1  23  -1
M  END
>  <UniqueID>  (5) 
5

>  <SMILES>  (5) 
CC(C)(C(=O)[NH+]1CC(O)C1)c1ccc2cc(C([NH-])=O)n(C(=O)[O-])c2c1

>  <Energy>  (5) 
166.8040483646415

>  <Genealogy>  (5) 
CC(C)(C(=O)[NH+]1CC(O)C1)c1ccc2cc(C([NH-])=O)n(C(=O)[O-])c2c1 (protonated)
CC(C)(C(=O)[NH+]1CC(O)C1)c1ccc2cc(C([NH-])=O)n(C(=O)[O-])c2c1 (3D coordinates assigned)
CC(C)(C(=O)[NH+]1CC(O)C1)c1ccc2cc(C([NH-])=O)n(C(=O)[O-])c2c1 (nonaromatic ring conformer: 166.8040483646415 kcal/mol)

>  <smiles>  (5) 
CC(C)(C(=O)N1CC(O)C1)c1ccc2cc(C(N)=O)n(C(=O)O)c2c1

>  <score_type>  (5) 
oracle

>  <origin>  (5) 
adg

>  <m_score__min__energy>  (5) 
-10.52

>  <m_primary>  (5) 
energy

$$$$
5:0
     RDKit          3D

 40 42  0  0  0  0  0  0  0  0999 V2000
   -4.2520   25.5300  -30.6110 N   0  0  0  0  0  0  0  0  0  0  0  0
   -5.6090   25.1730  -30.3410 C   0  0  0  0  0  0  0  0  0  0  0  0
   -6.3230   25.9510  -29.6570 O   0  0  0  0  0  0  0  0  0  0  0  0
   -6.1550   23.8840  -30.8190 C   0  0  0  0  0  0  0  0  0  0  0  0
   -7.5060   23.6810  -31.0910 C   0  0  0  0  0  0  0  0  0  0  0  0
   -7.5920   22.3980  -31.5750 C   0  0  0  0  0  0  0  0  0  0  0  0
   -8.7090   21.6730  -31.9810 C   0  0  0  0  0  0  0  0  0  0  0  0
   -8.5160   20.3490  -32.4040 C   0  0  0  0  0  0  0  0  0  0  0  0
   -7.2210   19.7780  -32.4150 C   0  0  0  0  0  0  0  0  0  0  0  0
   -7.0360   18.3440  -32.8170 C   0  0  0  0  0  0  0  0  0  0  0  0
   -6.4290   18.2870  -34.0580 F   0  0  0  0  0  0  0  0  0  0  0  0
   -6.1120   20.5380  -31.9810 C   0  0  0  0  0  0  0  0  0  0  0  0
   -6.3280   21.8650  -31.5840 C   0  0  0  0  0  0  0  0  0  0  0  0
   -5.4280   22.7680  -31.1230 N   0  0  0  0  0  0  0  0  0  0  0  0
   -4.0200   22.5540  -30.9110 C   0  0  0  0  0  0  0  0  0  0  0  0
   -3.1740   23.2450  -31.5410 O   0  0  0  0  0  0  0  0  0  0  0  0
   -3.5900   21.5560  -30.0290 O   0  0  0  0  0  0  0  0  0  0  0  0
   -2.3370   21.5800  -29.3460 C   0  0  0  0  0  0  0  0  0  0  0  0
   -2.4410   22.2970  -27.9940 C   0  0  0  0  0  0  0  0  0  0  0  0
   -1.7240   23.6600  -27.9850 C   0  0  0  0  0  0  0  0  0  0  0  0
   -2.6730   24.8360  -28.0750 C   0  0  0  0  0  0  0  0  0  0  0  0
   -2.1780   25.2320  -29.3310 O   0  0  0  0  0  0  0  0  0  0  0  0
   -1.2630   24.1630  -29.3360 C   0  0  0  0  0  0  0  0  0  0  0  0
   -3.8610   26.4240  -30.2360 H   0  0  0  0  0  0  0  0  0  0  0  0
   -3.6440   24.9320  -31.2110 H   0  0  0  0  0  0  0  0  0  0  0  0
   -8.3295   24.3963  -30.9485 H   0  0  0  0  0  0  0  0  0  0  0  0
   -9.7121   22.1242  -31.9705 H   0  0  0  0  0  0  0  0  0  0  0  0
   -9.3788   19.7496  -32.7299 H   0  0  0  0  0  0  0  0  0  0  0  0
   -6.4031   17.8343  -32.0757 H   0  0  0  0  0  0  0  0  0  0  0  0
   -8.0165   17.8478  -32.8657 H   0  0  0  0  0  0  0  0  0  0  0  0
   -5.1036   20.0992  -31.9552 H   0  0  0  0  0  0  0  0  0  0  0  0
   -2.0038   20.5455  -29.1761 H   0  0  0  0  0  0  0  0  0  0  0  0
   -1.6167   22.1288  -29.9705 H   0  0  0  0  0  0  0  0  0  0  0  0
   -3.5042   22.4576  -27.7621 H   0  0  0  0  0  0  0  0  0  0  0  0
   -1.9514   21.6601  -27.2426 H   0  0  0  0  0  0  0  0  0  0  0  0
   -1.0364   23.4644  -27.1490 H   0  0  0  0  0  0  0  0  0  0  0  0
   -3.7329   24.5423  -28.0953 H   0  0  0  0  0  0  0  0  0  0  0  0
   -2.6876   25.5696  -27.2555 H   0  0  0  0  0  0  0  0  0  0  0  0
   -1.4337   23.4449  -30.1516 H   0  0  0  0  0  0  0  0  0  0  0  0
   -0.1949   24.3799  -29.4849 H   0  0  0  0  0  0  0  0  0  0  0  0
  1  2  1  0
  2  3  2  0
  2  4  1  0
  4  5  2  0
  5  6  1  0
  6  7  2  0
  7  8  1  0
  8  9  2  0
  9 10  1  0
 10 11  1  0
  9 12  1  0
 12 13  2  0
 13 14  1  0
 14 15  1  0
 15 16  2  0
 15 17  1  0
 17 18  1  0
 18 19  1  0
 19 20  1  0
 20 21  1  0
 21 22  1  0
 22 23  1  0
 14  4  1  0
 23 20  1  0
 13  6  1  0
  1 24  1  0
  1 25  1  0
  5 26  1  0
  7 27  1  0
  8 28  1  0
 10 29  1  0
 10 30  1  0
 12 31  1  0
 18 32  1  0
 18 33  1  0
 19 34  1  0
 19 35  1  0
 20 36  1  0
 21 37  1  0
 21 38  1  0
 23 39  1  0
 23 40  1  0
M  END
>  <UniqueID>  (6) 
6

>  <SMILES>  (6) 
NC(=O)c1cc2ccc(CF)cc2n1C(=O)OCCC1COC1

>  <Energy>  (6) 
139.18276440703212

>  <Genealogy>  (6) 
NC(=O)c1cc2ccc(CF)cc2n1C(=O)OCCC1COC1 (3D coordinates assigned)
NC(=O)c1cc2ccc(CF)cc2n1C(=O)OCCC1COC1 (nonaromatic ring conformer: 139.18276440703212 kcal/mol)

>  <smiles>  (6) 
NC(=O)c1cc2ccc(CF)cc2n1C(=O)OCCC1COC1

>  <score_type>  (6) 
oracle

>  <origin>  (6) 
adg

>  <m_score__min__energy>  (6) 
-8.2599999999999998

>  <m_primary>  (6) 
energy

$$$$
6:0
     RDKit          3D

 49 50  0  0  0  0  0  0  0  0999 V2000
   -0.1956   26.9010  -24.9777 H   0  0  0  0  0  0  0  0  0  0  0  0
   -1.2050   26.4690  -24.9110 C   0  0  0  0  0  0  0  0  0  0  0  0
   -1.7552   26.5012  -23.9591 H   0  0  0  0  0  0  0  0  0  0  0  0
   -1.7600   25.9080  -25.9810 C   0  0  0  0  0  0  0  0  0  0  0  0
   -1.2039   25.8794  -26.9297 H   0  0  0  0  0  0  0  0  0  0  0  0
   -3.1160   25.3220  -25.9110 C   0  0  0  0  0  0  0  0  0  0  0  0
   -3.7320   25.5652  -25.0327 H   0  0  0  0  0  0  0  0  0  0  0  0
   -3.6490   24.5160  -26.8400 C   0  0  0  0  0  0  0  0  0  0  0  0
   -4.6408   24.0857  -26.6371 H   0  0  0  0  0  0  0  0  0  0  0  0
   -2.9930   24.1650  -28.1220 C   0  0  0  0  0  0  0  0  0  0  0  0
   -2.6839   24.9830  -28.7893 H   0  0  0  0  0  0  0  0  0  0  0  0
   -2.7550   22.8990  -28.5140 C   0  0  0  0  0  0  0  0  0  0  0  0
   -3.1210   21.7160  -27.6530 C   0  0  0  0  0  0  0  0  0  0  0  0
   -3.0350   21.9940  -26.5922 H   0  0  0  0  0  0  0  0  0  0  0  0
   -4.1555   21.4111  -27.8694 H   0  0  0  0  0  0  0  0  0  0  0  0
   -2.4395   20.8801  -27.8694 H   0  0  0  0  0  0  0  0  0  0  0  0
   -2.0750   22.6640  -29.8410 C   0  0  0  0  0  0  0  0  0  0  0  0
   -1.0531   23.0692  -29.8010 H   0  0  0  0  0  0  0  0  0  0  0  0
   -2.0464   21.5825  -30.0396 H   0  0  0  0  0  0  0  0  0  0  0  0
   -2.7940   23.3070  -30.8910 O   0  0  0  0  0  0  0  0  0  0  0  0
   -3.6230   22.6210  -31.7850 C   0  0  0  0  0  0  0  0  0  0  0  0
   -3.1280   22.0000  -32.7650 O   0  0  0  0  0  0  0  0  0  0  0  0
   -5.0450   22.6210  -31.5810 N   0  0  0  0  0  0  0  0  0  0  0  0
   -5.8020   23.5950  -31.0000 C   0  0  0  0  0  0  0  0  0  0  0  0
   -5.2770   24.8070  -30.3320 C   0  0  0  0  0  0  0  0  0  0  0  0
   -4.3620   25.4830  -30.8750 O   0  0  0  0  0  0  0  0  0  0  0  0
   -5.7730   25.2100  -29.0550 N   0  0  0  0  0  0  0  0  0  0  0  0
   -5.3680   26.0430  -28.5750 H   0  0  0  0  0  0  0  0  0  0  0  0
   -6.5700   24.7130  -28.6000 H   0  0  0  0  0  0  0  0  0  0  0  0
   -7.1510   23.2440  -31.0290 C   0  0  0  0  0  0  0  0  0  0  0  0
   -8.0001   23.8255  -30.6406 H   0  0  0  0  0  0  0  0  0  0  0  0
   -7.1940   22.0150  -31.6470 C   0  0  0  0  0  0  0  0  0  0  0  0
   -8.2820   21.2040  -31.9440 C   0  0  0  0  0  0  0  0  0  0  0  0
   -9.3035   21.5026  -31.6660 H   0  0  0  0  0  0  0  0  0  0  0  0
   -8.0390   19.9910  -32.6100 C   0  0  0  0  0  0  0  0  0  0  0  0
   -8.8830   19.3289  -32.8532 H   0  0  0  0  0  0  0  0  0  0  0  0
   -6.7190   19.6050  -32.9750 C   0  0  0  0  0  0  0  0  0  0  0  0
   -6.4790   18.3540  -33.6710 N   0  0  0  0  0  0  0  0  0  0  0  0
   -6.9870   17.0890  -33.1260 C   0  0  0  0  0  0  0  0  0  0  0  0
   -6.9704   17.1303  -32.0269 H   0  0  0  0  0  0  0  0  0  0  0  0
   -8.0191   16.9291  -33.4714 H   0  0  0  0  0  0  0  0  0  0  0  0
   -6.3522   16.2597  -33.4714 H   0  0  0  0  0  0  0  0  0  0  0  0
   -5.7220   18.3350  -34.9280 C   0  0  0  0  0  0  0  0  0  0  0  0
   -4.6448   18.3080  -34.7069 H   0  0  0  0  0  0  0  0  0  0  0  0
   -5.9994   17.4435  -35.5097 H   0  0  0  0  0  0  0  0  0  0  0  0
   -5.9544   19.2393  -35.5097 H   0  0  0  0  0  0  0  0  0  0  0  0
   -5.6410   20.4680  -32.6480 C   0  0  0  0  0  0  0  0  0  0  0  0
   -4.6094   20.2037  -32.9235 H   0  0  0  0  0  0  0  0  0  0  0  0
   -5.9130   21.6610  -31.9690 C   0  0  0  0  0  0  0  0  0  0  0  0
  1  2  1  0
  2  3  1  0
  2  4  2  0
  4  5  1  0
  4  6  1  0
  6  7  1  0
  6  8  2  0
  8  9  1  0
  8 10  1  0
 10 11  1  0
 10 12  2  0
 12 13  1  0
 13 14  1  0
 13 15  1  0
 13 16  1  0
 12 17  1  0
 17 18  1  0
 17 19  1  0
 17 20  1  0
 20 21  1  0
 21 22  2  0
 21 23  1  0
 23 24  1  0
 24 25  1  0
 25 26  2  0
 25 27  1  0
 27 28  1  0
 27 29  1  0
 24 30  2  0
 30 31  1  0
 30 32  1  0
 32 33  2  0
 33 34  1  0
 33 35  1  0
 35 36  1  0
 35 37  2  0
 37 38  1  0
 38 39  1  0
 39 40  1  0
 39 41  1  0
 39 42  1  0
 38 43  1  0
 43 44  1  0
 43 45  1  0
 43 46  1  0
 37 47  1  0
 47 48  1  0
 47 49  2  0
 49 23  1  0
 49 32  1  0
M  END
>  <UniqueID>  (7) 
7

>  <SMILES>  (7) 
C=C/C=C\C=C(/C)COC(=O)n1c(C(N)=O)cc2ccc(N(C)C)cc21

>  <Energy>  (7) 
83.55448246981256

>  <Genealogy>  (7) 
C=C/C=C\C=C(/C)COC(=O)n1c(C(N)=O)cc2ccc(N(C)C)cc21 (cis-trans isomerization)
C=C/C=C\C=C(/C)COC(=O)n1c(C(N)=O)cc2ccc(N(C)C)cc21 (3D coordinates assigned)
C=C/C=C\C=C(/C)COC(=O)n1c(C(N)=O)cc2ccc(N(C)C)cc21 (optimized conformer: 83.55448246981256 kcal/mol)

>  <smiles>  (7) 
C=C/C=C\C=C(/C)COC(=O)n1c(C(N)=O)cc2ccc(N(C)C)cc21

>  <score_type>  (7) 
oracle

>  <origin>  (7) 
adg

>  <m_score__min__energy>  (7) 
-9.7599999999999998

>  <m_primary>  (7) 
energy

$$$$
7:0
     RDKit          3D

 58 60  0  0  0  0  0  0  0  0999 V2000
   -2.8020   21.4130  -28.2970 C   0  0  0  0  0  0  0  0  0  0  0  0
   -2.4620   21.3510  -29.5840 C   0  0  0  0  0  0  0  0  0  0  0  0
   -2.7820   22.4390  -30.5330 C   0  0  0  0  0  0  0  0  0  0  0  0
   -1.9130   23.3260  -30.7430 O   0  0  0  0  0  0  0  0  0  0  0  0
   -4.0850   22.5350  -31.1600 N   0  0  0  0  0  0  0  0  0  0  0  0
   -5.0250   23.5090  -30.9690 C   0  0  0  0  0  0  0  0  0  0  0  0
   -4.8240   24.8100  -30.3060 C   0  0  0  0  0  0  0  0  0  0  0  0
   -3.5110   25.3020  -30.0610 N   0  0  0  0  0  0  0  0  0  0  0  0
   -5.8170   25.5560  -30.0830 O   0  0  0  0  0  0  0  0  0  0  0  0
   -6.2340   23.1610  -31.5630 C   0  0  0  0  0  0  0  0  0  0  0  0
   -6.0040   21.9520  -32.1690 C   0  0  0  0  0  0  0  0  0  0  0  0
   -6.8530   21.1790  -32.9500 C   0  0  0  0  0  0  0  0  0  0  0  0
   -6.3370   20.0010  -33.5150 C   0  0  0  0  0  0  0  0  0  0  0  0
   -4.9780   19.6300  -33.3320 C   0  0  0  0  0  0  0  0  0  0  0  0
   -4.4450   18.4310  -33.9550 N   0  0  0  0  0  0  0  0  0  0  0  0
   -3.1310   17.8920  -33.5840 C   0  0  0  0  0  0  0  0  0  0  0  0
   -2.9170   16.5260  -34.2250 C   0  0  0  0  0  0  0  0  0  0  0  0
   -3.7150   15.3900  -33.5530 C   0  0  0  0  0  0  0  0  0  0  0  0
   -5.0530   15.1260  -34.1800 N   0  0  1  0  0  0  0  0  0  0  0  0
   -5.7090   13.9500  -33.4950 C   0  0  0  0  0  0  0  0  0  0  0  0
   -4.8250   13.3010  -32.3730 C   0  0  0  0  0  0  0  0  0  0  0  0
   -5.3710   12.0160  -31.7440 C   0  0  0  0  0  0  0  0  0  0  0  0
   -6.2890   12.8410  -34.4290 C   0  0  0  0  0  0  0  0  0  0  0  0
   -7.6010   13.2030  -35.1360 C   0  0  0  0  0  0  0  0  0  0  0  0
   -5.8830   16.3690  -34.1230 C   0  0  0  0  0  0  0  0  0  0  0  0
   -5.2690   17.5970  -34.8420 C   0  0  0  0  0  0  0  0  0  0  0  0
   -4.1450   20.4670  -32.5460 C   0  0  0  0  0  0  0  0  0  0  0  0
   -4.7000   21.6020  -31.9330 C   0  0  0  0  0  0  0  0  0  0  0  0
   -2.5471   20.5841  -27.6202 H   0  0  0  0  0  0  0  0  0  0  0  0
   -3.3375   22.2931  -27.9114 H   0  0  0  0  0  0  0  0  0  0  0  0
   -1.9268   20.4631  -29.9518 H   0  0  0  0  0  0  0  0  0  0  0  0
   -2.7900   25.3190  -30.8160 H   0  0  0  0  0  0  0  0  0  0  0  0
   -7.1735   23.7330  -31.5496 H   0  0  0  0  0  0  0  0  0  0  0  0
   -7.8972   21.4798  -33.1209 H   0  0  0  0  0  0  0  0  0  0  0  0
   -6.9977   19.3536  -34.1103 H   0  0  0  0  0  0  0  0  0  0  0  0
   -2.3460   18.5812  -33.9288 H   0  0  0  0  0  0  0  0  0  0  0  0
   -3.0854   17.7841  -32.4903 H   0  0  0  0  0  0  0  0  0  0  0  0
   -3.2219   16.5866  -35.2801 H   0  0  0  0  0  0  0  0  0  0  0  0
   -1.8511   16.2810  -34.1077 H   0  0  0  0  0  0  0  0  0  0  0  0
   -3.1184   14.4677  -33.6111 H   0  0  0  0  0  0  0  0  0  0  0  0
   -3.9074   15.7074  -32.5175 H   0  0  0  0  0  0  0  0  0  0  0  0
   -4.9380   14.8870  -35.1890 H   0  0  0  0  0  0  0  0  0  0  0  0
   -6.5806   14.4308  -33.0268 H   0  0  0  0  0  0  0  0  0  0  0  0
   -3.8427   13.0698  -32.8107 H   0  0  0  0  0  0  0  0  0  0  0  0
   -4.7937   14.0388  -31.5578 H   0  0  0  0  0  0  0  0  0  0  0  0
   -5.3351   12.1004  -30.6478 H   0  0  0  0  0  0  0  0  0  0  0  0
   -6.4117   11.8635  -32.0662 H   0  0  0  0  0  0  0  0  0  0  0  0
   -4.7584   11.1610  -32.0662 H   0  0  0  0  0  0  0  0  0  0  0  0
   -5.5371   12.6182  -35.2003 H   0  0  0  0  0  0  0  0  0  0  0  0
   -6.5190   11.9840  -33.7789 H   0  0  0  0  0  0  0  0  0  0  0  0
   -8.3755   13.4167  -34.3847 H   0  0  0  0  0  0  0  0  0  0  0  0
   -7.4454   14.0918  -35.7652 H   0  0  0  0  0  0  0  0  0  0  0  0
   -7.9231   12.3602  -35.7652 H   0  0  0  0  0  0  0  0  0  0  0  0
   -6.8559   16.1519  -34.5881 H   0  0  0  0  0  0  0  0  0  0  0  0
   -5.9596   16.6404  -33.0598 H   0  0  0  0  0  0  0  0  0  0  0  0
   -4.6401   17.2394  -35.6706 H   0  0  0  0  0  0  0  0  0  0  0  0
   -6.1028   18.2201  -35.1977 H   0  0  0  0  0  0  0  0  0  0  0  0
   -3.0784   20.2301  -32.4184 H   0  0  0  0  0  0  0  0  0  0  0  0
  1  2  2  0
  2  3  1  0
  3  4  2  0
  3  5  1  0
  5  6  1  0
  6  7  1  0
  7  8  1  0
  7  9  2  0
  6 10  2  0
 10 11  1  0
 11 12  2  0
 12 13  1  0
 13 14  2  0
 14 15  1  0
 15 16  1  0
 16 17  1  0
 17 18  1  0
 18 19  1  0
 19 20  1  0
 20 21  1  0
 21 22  1  0
 20 23  1  0
 23 24  1  0
 19 25  1  0
 25 26  1  0
 14 27  1  0
 27 28  2  0
 28  5  1  0
 28 11  1  0
 26 15  1  0
  1 29  1  0
  1 30  1  0
  2 31  1  0
  8 32  1  0
 10 33  1  0
 12 34  1  0
 13 35  1  0
 16 36  1  0
 16 37  1  0
 17 38  1  0
 17 39  1  0
 18 40  1  0
 18 41  1  0
 19 42  1  6
 20 43  1  0
 21 44  1  0
 21 45  1  0
 22 46  1  0
 22 47  1  0
 22 48  1  0
 23 49  1  0
 23 50  1  0
 24 51  1  0
 24 52  1  0
 24 53  1  0
 25 54  1  0
 25 55  1  0
 26 56  1  0
 26 57  1  0
 27 58  1  0
M  CHG  2   8  -1  19   1
M  END
>  <UniqueID>  (8) 
8

>  <SMILES>  (8) 
C=CC(=O)n1c(C([NH-])=O)cc2ccc(N3CCC[N@@H+](C(CC)CC)CC3)cc21

>  <Energy>  (8) 
124.86308205749823

>  <Genealogy>  (8) 
C=CC(=O)n1c(C([NH-])=O)cc2ccc(N3CCC[NH+](C(CC)CC)CC3)cc21 (protonated)
C=CC(=O)n1c(C([NH-])=O)cc2ccc(N3CCC[N@@H+](C(CC)CC)CC3)cc21 (chirality)
C=CC(=O)n1c(C([NH-])=O)cc2ccc(N3CCC[N@@H+](C(CC)CC)CC3)cc21 (3D coordinates assigned)
C=CC(=O)n1c(C([NH-])=O)cc2ccc(N3CCC[N@@H+](C(CC)CC)CC3)cc21 (nonaromatic ring conformer: 124.86308205749823 kcal/mol)

>  <smiles>  (8) 
C=CC(=O)n1c(C(N)=O)cc2ccc(N3CCCN(C(CC)CC)CC3)cc21

>  <score_type>  (8) 
oracle

>  <origin>  (8) 
adg

>  <m_score__min__energy>  (8) 
-8.0999999999999996

>  <m_primary>  (8) 
energy

$$$$
8:0
     RDKit          3D

 31 32  0  0  0  0  0  0  0  0999 V2000
   -5.3660   15.9150  -33.9810 C   0  0  0  0  0  0  0  0  0  0  0  0
   -5.4610   17.1320  -34.7100 O   0  0  0  0  0  0  0  0  0  0  0  0
   -6.0750   18.2750  -34.1880 C   0  0  0  0  0  0  0  0  0  0  0  0
   -6.1400   19.3380  -34.8640 O   0  0  0  0  0  0  0  0  0  0  0  0
   -6.7020   18.2180  -32.8320 C   0  0  0  0  0  0  0  0  0  0  0  0
   -6.9520   19.6110  -32.3230 C   0  0  0  0  0  0  0  0  0  0  0  0
   -8.2790   20.0860  -32.1840 C   0  0  0  0  0  0  0  0  0  0  0  0
   -8.5260   21.4010  -31.7560 C   0  0  0  0  0  0  0  0  0  0  0  0
   -7.4310   22.2130  -31.4760 C   0  0  0  0  0  0  0  0  0  0  0  0
   -7.3870   23.5310  -31.0870 C   0  0  0  0  0  0  0  0  0  0  0  0
   -6.0330   23.8350  -30.9750 C   0  0  0  0  0  0  0  0  0  0  0  0
   -5.5330   25.1480  -30.5180 C   0  0  0  0  0  0  0  0  0  0  0  0
   -4.2020   25.5740  -30.8130 N   0  0  0  0  0  0  0  0  0  0  0  0
   -6.2730   25.8800  -29.8090 O   0  0  0  0  0  0  0  0  0  0  0  0
   -5.2670   22.7550  -31.2960 N   0  0  0  0  0  0  0  0  0  0  0  0
   -3.8350   22.7030  -31.4130 C   0  0  0  0  0  0  0  0  0  0  0  0
   -3.1060   23.2710  -30.5590 O   0  0  0  0  0  0  0  0  0  0  0  0
   -3.2390   22.0270  -32.4720 O   0  0  0  0  0  0  0  0  0  0  0  0
   -6.1390   21.7660  -31.5980 C   0  0  0  0  0  0  0  0  0  0  0  0
   -5.8650   20.4670  -32.0440 C   0  0  0  0  0  0  0  0  0  0  0  0
   -5.3829   16.1313  -32.9026 H   0  0  0  0  0  0  0  0  0  0  0  0
   -6.2162   15.2662  -34.2382 H   0  0  0  0  0  0  0  0  0  0  0  0
   -4.4254   15.4060  -34.2382 H   0  0  0  0  0  0  0  0  0  0  0  0
   -7.6571   17.6760  -32.8946 H   0  0  0  0  0  0  0  0  0  0  0  0
   -6.0226   17.6972  -32.1412 H   0  0  0  0  0  0  0  0  0  0  0  0
   -9.1235   19.4195  -32.4132 H   0  0  0  0  0  0  0  0  0  0  0  0
   -9.5537   21.7774  -31.6455 H   0  0  0  0  0  0  0  0  0  0  0  0
   -8.2393   24.2018  -30.9035 H   0  0  0  0  0  0  0  0  0  0  0  0
   -3.8770   26.5210  -30.5160 H   0  0  0  0  0  0  0  0  0  0  0  0
   -3.5110   24.9240  -31.2490 H   0  0  0  0  0  0  0  0  0  0  0  0
   -4.8284   20.1224  -32.1736 H   0  0  0  0  0  0  0  0  0  0  0  0
  1  2  1  0
  2  3  1  0
  3  4  2  0
  3  5  1  0
  5  6  1  0
  6  7  2  0
  7  8  1  0
  8  9  2  0
  9 10  1  0
 10 11  2  0
 11 12  1  0
 12 13  1  0
 12 14  2  0
 11 15  1  0
 15 16  1  0
 16 17  2  0
 16 18  1  0
 15 19  1  0
 19 20  2  0
 20  6  1  0
 19  9  1  0
  1 21  1  0
  1 22  1  0
  1 23  1  0
  5 24  1  0
  5 25  1  0
  7 26  1  0
  8 27  1  0
 10 28  1  0
 13 29  1  0
 13 30  1  0
 20 31  1  0
M  CHG  1  18  -1
M  END
>  <UniqueID>  (9) 
9

>  <SMILES>  (9) 
COC(=O)Cc1ccc2cc(C(N)=O)n(C(=O)[O-])c2c1

>  <Energy>  (9) 
67.2355403800749

>  <Genealogy>  (9) 
COC(=O)Cc1ccc2cc(C(N)=O)n(C(=O)[O-])c2c1 (protonated)
COC(=O)Cc1ccc2cc(C(N)=O)n(C(=O)[O-])c2c1 (3D coordinates assigned)
COC(=O)Cc1ccc2cc(C(N)=O)n(C(=O)[O-])c2c1 (optimized conformer: 67.2355403800749 kcal/mol)

>  <smiles>  (9) 
COC(=O)Cc1ccc2cc(C(N)=O)n(C(=O)O)c2c1

>  <score_type>  (9) 
oracle

>  <origin>  (9) 
adg

>  <m_score__min__energy>  (9) 
-8.3200000000000003

>  <m_primary>  (9) 
energy

$$$$
9:0
     RDKit          3D

 31 33  0  0  0  0  0  0  0  0999 V2000
   -1.8010   25.6870  -28.9220 N   0  0  0  0  0  0  0  0  0  0  0  0
   -0.9670   24.5360  -29.0200 C   0  0  0  0  0  0  0  0  0  0  0  0
    0.1610   24.5410  -28.4580 O   0  0  0  0  0  0  0  0  0  0  0  0
   -1.3810   23.3630  -29.8170 C   0  0  0  0  0  0  0  0  0  0  0  0
   -0.5300   22.3020  -30.1160 C   0  0  0  0  0  0  0  0  0  0  0  0
   -1.2550   21.4740  -30.9410 C   0  0  0  0  0  0  0  0  0  0  0  0
   -0.9000   20.2650  -31.5290 C   0  0  0  0  0  0  0  0  0  0  0  0
   -1.8620   19.6050  -32.3130 C   0  0  0  0  0  0  0  0  0  0  0  0
   -3.1580   20.1570  -32.4900 C   0  0  0  0  0  0  0  0  0  0  0  0
   -4.1710   19.4450  -33.3120 C   0  0  0  0  0  0  0  0  0  0  0  0
   -3.8540   18.2400  -33.9590 C   0  0  0  0  0  0  0  0  0  0  0  0
   -4.8160   17.5840  -34.7280 C   0  0  0  0  0  0  0  0  0  0  0  0
   -6.0910   18.1350  -34.8480 C   0  0  0  0  0  0  0  0  0  0  0  0
   -6.3910   19.3030  -34.2190 N   0  0  0  0  0  0  0  0  0  0  0  0
   -5.4700   19.9630  -33.4630 C   0  0  0  0  0  0  0  0  0  0  0  0
   -3.4790   21.3900  -31.8730 C   0  0  0  0  0  0  0  0  0  0  0  0
   -2.4950   22.0330  -31.1140 C   0  0  0  0  0  0  0  0  0  0  0  0
   -2.5900   23.1930  -30.4260 N   0  0  0  0  0  0  0  0  0  0  0  0
   -3.7620   24.0130  -30.2920 C   0  0  0  0  0  0  0  0  0  0  0  0
   -4.7730   23.5810  -29.6780 O   0  0  0  0  0  0  0  0  0  0  0  0
   -3.7810   25.3010  -30.8140 O   0  0  0  0  0  0  0  0  0  0  0  0
   -2.7750   25.6780  -29.3010 H   0  0  0  0  0  0  0  0  0  0  0  0
    0.5029   22.1569  -29.7665 H   0  0  0  0  0  0  0  0  0  0  0  0
    0.1034   19.8380  -31.3850 H   0  0  0  0  0  0  0  0  0  0  0  0
   -1.6077   18.6495  -32.7951 H   0  0  0  0  0  0  0  0  0  0  0  0
   -2.8455   17.8122  -33.8595 H   0  0  0  0  0  0  0  0  0  0  0  0
   -4.5703   16.6395  -35.2355 H   0  0  0  0  0  0  0  0  0  0  0  0
   -6.8554   17.6244  -35.4522 H   0  0  0  0  0  0  0  0  0  0  0  0
   -7.3500   19.7060  -34.3210 H   0  0  0  0  0  0  0  0  0  0  0  0
   -5.7436   20.9064  -32.9678 H   0  0  0  0  0  0  0  0  0  0  0  0
   -4.4795   21.8326  -31.9877 H   0  0  0  0  0  0  0  0  0  0  0  0
  1  2  1  0
  2  3  2  0
  2  4  1  0
  4  5  2  0
  5  6  1  0
  6  7  2  0
  7  8  1  0
  8  9  2  0
  9 10  1  0
 10 11  2  0
 11 12  1  0
 12 13  2  0
 13 14  1  0
 14 15  2  0
  9 16  1  0
 16 17  2  0
 17 18  1  0
 18 19  1  0
 19 20  2  0
 19 21  1  0
 18  4  1  0
 17  6  1  0
 15 10  1  0
  1 22  1  0
  5 23  1  0
  7 24  1  0
  8 25  1  0
 11 26  1  0
 12 27  1  0
 13 28  1  0
 14 29  1  0
 15 30  1  0
 16 31  1  0
M  CHG  3   1  -1  14   1  21  -1
M  END
>  <UniqueID>  (10) 
10

>  <SMILES>  (10) 
[NH-]C(=O)c1cc2ccc(-c3ccc[nH+]c3)cc2n1C(=O)[O-]

>  <Energy>  (10) 
79.02106662374368

>  <Genealogy>  (10) 
[NH-]C(=O)c1cc2ccc(-c3ccc[nH+]c3)cc2n1C(=O)[O-] (protonated)
[NH-]C(=O)c1cc2ccc(-c3ccc[nH+]c3)cc2n1C(=O)[O-] (3D coordinates assigned)
[NH-]C(=O)c1cc2ccc(-c3ccc[nH+]c3)cc2n1C(=O)[O-] (optimized conformer: 79.02106662374368 kcal/mol)

>  <smiles>  (10) 
NC(=O)c1cc2ccc(-c3cccnc3)cc2n1C(=O)O

>  <score_type>  (10) 
oracle

>  <origin>  (10) 
adg

>  <m_score__min__energy>  (10) 
-10.82

>  <m_primary>  (10) 
energy

$$$$
10:0
     RDKit          3D

 53 55  0  0  0  0  0  0  0  0999 V2000
   -3.3940   20.4790  -33.8400 N   0  0  0  0  0  0  0  0  0  0  0  0
   -3.5090   19.0280  -33.7100 C   0  0  0  0  0  0  0  0  0  0  0  0
   -4.9130   18.5490  -34.1060 C   0  0  0  0  0  0  0  0  0  0  0  0
   -5.7160   17.9350  -32.9420 C   0  0  0  0  0  0  0  0  0  0  0  0
   -7.1970   18.3480  -32.9030 C   0  0  0  0  0  0  0  0  0  0  0  0
   -7.3720   19.7910  -32.5060 C   0  0  0  0  0  0  0  0  0  0  0  0
   -8.6720   20.3480  -32.4040 C   0  0  0  0  0  0  0  0  0  0  0  0
   -8.8530   21.6740  -31.9720 C   0  0  0  0  0  0  0  0  0  0  0  0
   -7.7200   22.4130  -31.6470 C   0  0  0  0  0  0  0  0  0  0  0  0
   -7.6010   23.6930  -31.1460 C   0  0  0  0  0  0  0  0  0  0  0  0
   -6.2320   23.8920  -30.9560 C   0  0  0  0  0  0  0  0  0  0  0  0
   -5.6170   25.1320  -30.4240 C   0  0  0  0  0  0  0  0  0  0  0  0
   -6.1470   25.7850  -29.2680 N   0  0  0  0  0  0  0  0  0  0  0  0
   -4.6090   25.6280  -30.9950 O   0  0  0  0  0  0  0  0  0  0  0  0
   -5.5420   22.7830  -31.3380 N   0  0  0  0  0  0  0  0  0  0  0  0
   -4.1320   22.5470  -31.2350 C   0  0  0  0  0  0  0  0  0  0  0  0
   -3.4340   22.5470  -32.2850 O   0  0  0  0  0  0  0  0  0  0  0  0
   -3.5290   22.2600  -29.9550 N   0  0  0  0  0  0  0  0  0  0  0  0
   -4.0760   22.8710  -28.7310 C   0  0  0  0  0  0  0  0  0  0  0  0
   -3.3860   24.2080  -28.3880 C   0  0  0  0  0  0  0  0  0  0  0  0
   -1.8420   24.1630  -28.3930 C   0  0  0  0  0  0  0  0  0  0  0  0
   -1.2600   23.7500  -29.6830 N   0  0  0  0  0  0  0  0  0  0  0  0
   -1.0070   22.3060  -29.8430 C   0  0  0  0  0  0  0  0  0  0  0  0
   -2.2920   21.4560  -29.9150 C   0  0  0  0  0  0  0  0  0  0  0  0
   -6.4590   21.8900  -31.7530 C   0  0  0  0  0  0  0  0  0  0  0  0
   -6.2460   20.5770  -32.1750 C   0  0  0  0  0  0  0  0  0  0  0  0
   -4.2640   20.9030  -33.4430 H   0  0  0  0  0  0  0  0  0  0  0  0
   -2.6040   20.8000  -33.2360 H   0  0  0  0  0  0  0  0  0  0  0  0
   -2.7672   18.5483  -34.3655 H   0  0  0  0  0  0  0  0  0  0  0  0
   -3.3292   18.7552  -32.6596 H   0  0  0  0  0  0  0  0  0  0  0  0
   -5.4747   19.4098  -34.4979 H   0  0  0  0  0  0  0  0  0  0  0  0
   -4.7794   17.7547  -34.8552 H   0  0  0  0  0  0  0  0  0  0  0  0
   -5.6667   16.8397  -33.0304 H   0  0  0  0  0  0  0  0  0  0  0  0
   -5.2609   18.3118  -32.0141 H   0  0  0  0  0  0  0  0  0  0  0  0
   -7.6332   18.1994  -33.9018 H   0  0  0  0  0  0  0  0  0  0  0  0
   -7.7029   17.7255  -32.1503 H   0  0  0  0  0  0  0  0  0  0  0  0
   -9.5481   19.7365  -32.6655 H   0  0  0  0  0  0  0  0  0  0  0  0
   -9.8586   22.1130  -31.8936 H   0  0  0  0  0  0  0  0  0  0  0  0
   -8.4129   24.4060  -30.9398 H   0  0  0  0  0  0  0  0  0  0  0  0
   -5.7120   26.6700  -28.9250 H   0  0  0  0  0  0  0  0  0  0  0  0
   -6.9420   25.3850  -28.7260 H   0  0  0  0  0  0  0  0  0  0  0  0
   -5.1508   23.0542  -28.8765 H   0  0  0  0  0  0  0  0  0  0  0  0
   -3.8975   22.1755  -27.8977 H   0  0  0  0  0  0  0  0  0  0  0  0
   -3.7084   24.9579  -29.1253 H   0  0  0  0  0  0  0  0  0  0  0  0
   -3.6842   24.4538  -27.3581 H   0  0  0  0  0  0  0  0  0  0  0  0
   -1.4656   25.1674  -28.1491 H   0  0  0  0  0  0  0  0  0  0  0  0
   -1.5425   23.4077  -27.6515 H   0  0  0  0  0  0  0  0  0  0  0  0
   -0.3520   24.2540  -29.8130 H   0  0  0  0  0  0  0  0  0  0  0  0
   -0.4375   22.1540  -30.7717 H   0  0  0  0  0  0  0  0  0  0  0  0
   -0.4526   21.9760  -28.9521 H   0  0  0  0  0  0  0  0  0  0  0  0
   -2.2495   20.8372  -30.8235 H   0  0  0  0  0  0  0  0  0  0  0  0
   -2.3302   20.8495  -28.9981 H   0  0  0  0  0  0  0  0  0  0  0  0
   -5.2286   20.1652  -32.2479 H   0  0  0  0  0  0  0  0  0  0  0  0
  1  2  1  0
  2  3  1  0
  3  4  1  0
  4  5  1  0
  5  6  1  0
  6  7  2  0
  7  8  1  0
  8  9  2  0
  9 10  1  0
 10 11  2  0
 11 12  1  0
 12 13  1  0
 12 14  2  0
 11 15  1  0
 15 16  1  0
 16 17  2  0
 16 18  1  0
 18 19  1  0
 19 20  1  0
 20 21  1  0
 21 22  1  0
 22 23  1  0
 23 24  1  0
 15 25  1  0
 25 26  2  0
 26  6  1  0
 25  9  1  0
 24 18  1  0
  1 27  1  0
  1 28  1  0
  2 29  1  0
  2 30  1  0
  3 31  1  0
  3 32  1  0
  4 33  1  0
  4 34  1  0
  5 35  1  0
  5 36  1  0
  7 37  1  0
  8 38  1  0
 10 39  1  0
 13 40  1  0
 13 41  1  0
 19 42  1  0
 19 43  1  0
 20 44  1  0
 20 45  1  0
 21 46  1  0
 21 47  1  0
 22 48  1  0
 23 49  1  0
 23 50  1  0
 24 51  1  0
 24 52  1  0
 26 53  1  0
M  END
>  <UniqueID>  (11) 
11

>  <SMILES>  (11) 
NCCCCc1ccc2cc(C(N)=O)n(C(=O)N3CCCNCC3)c2c1

>  <Energy>  (11) 
94.1958538802318

>  <Genealogy>  (11) 
NCCCCc1ccc2cc(C(N)=O)n(C(=O)N3CCCNCC3)c2c1 (3D coordinates assigned)
NCCCCc1ccc2cc(C(N)=O)n(C(=O)N3CCCNCC3)c2c1 (nonaromatic ring conformer: 94.1958538802318 kcal/mol)

>  <smiles>  (11) 
NCCCCc1ccc2cc(C(N)=O)n(C(=O)N3CCCNCC3)c2c1

>  <score_type>  (11) 
oracle

>  <origin>  (11) 
adg

>  <m_score__min__energy>  (11) 
-7.2400000000000002

>  <m_primary>  (11) 
energy

$$$$
11:0
     RDKit          3D

 43 45  0  0  0  0  0  0  0  0999 V2000
   -2.2090   25.2940  -28.5290 N   0  0  0  0  0  0  0  0  0  0  0  0
   -1.3830   24.3030  -29.1420 C   0  0  0  0  0  0  0  0  0  0  0  0
   -0.1430   24.3180  -28.9210 O   0  0  0  0  0  0  0  0  0  0  0  0
   -1.9730   23.2470  -29.9950 C   0  0  0  0  0  0  0  0  0  0  0  0
   -1.3140   22.0670  -30.3360 C   0  0  0  0  0  0  0  0  0  0  0  0
   -2.1580   21.4160  -31.2040 C   0  0  0  0  0  0  0  0  0  0  0  0
   -2.0100   20.1860  -31.8410 C   0  0  0  0  0  0  0  0  0  0  0  0
   -3.0590   19.7390  -32.6610 C   0  0  0  0  0  0  0  0  0  0  0  0
   -4.2260   20.5250  -32.8320 C   0  0  0  0  0  0  0  0  0  0  0  0
   -5.3640   20.0110  -33.6720 C   0  0  0  0  0  0  0  0  0  0  0  0
   -5.9060   18.6970  -33.0980 C   0  0  0  0  0  0  0  0  0  0  0  0
   -6.9940   18.9580  -32.0490 C   0  0  0  0  0  0  0  0  0  0  0  0
   -7.6710   20.2440  -32.3090 N   0  0  0  0  0  0  0  0  0  0  0  0
   -7.4060   21.2110  -31.2410 C   0  0  0  0  0  0  0  0  0  0  0  0
   -8.5590   22.1980  -31.2590 C   0  0  0  0  0  0  0  0  0  0  0  0
   -9.7170   21.4450  -31.8880 C   0  0  0  0  0  0  0  0  0  0  0  0
   -9.1340   20.1190  -32.3650 C   0  0  0  0  0  0  0  0  0  0  0  0
   -4.3450   21.7620  -32.1610 C   0  0  0  0  0  0  0  0  0  0  0  0
   -3.2770   22.1920  -31.3640 C   0  0  0  0  0  0  0  0  0  0  0  0
   -3.1780   23.3210  -30.6270 N   0  0  0  0  0  0  0  0  0  0  0  0
   -4.1800   24.3440  -30.4940 C   0  0  0  0  0  0  0  0  0  0  0  0
   -5.3520   24.0450  -30.1430 O   0  0  0  0  0  0  0  0  0  0  0  0
   -3.8710   25.6700  -30.7630 O   0  0  0  0  0  0  0  0  0  0  0  0
   -3.2320   25.3480  -28.7320 H   0  0  0  0  0  0  0  0  0  0  0  0
   -1.7880   26.0100  -27.8980 H   0  0  0  0  0  0  0  0  0  0  0  0
   -0.3279   21.7286  -29.9850 H   0  0  0  0  0  0  0  0  0  0  0  0
   -1.0997   19.5834  -31.7059 H   0  0  0  0  0  0  0  0  0  0  0  0
   -2.9741   18.7702  -33.1751 H   0  0  0  0  0  0  0  0  0  0  0  0
   -6.1701   20.7594  -33.6860 H   0  0  0  0  0  0  0  0  0  0  0  0
   -4.9975   19.8282  -34.6929 H   0  0  0  0  0  0  0  0  0  0  0  0
   -6.3321   18.0969  -33.9155 H   0  0  0  0  0  0  0  0  0  0  0  0
   -5.0770   18.1596  -32.6143 H   0  0  0  0  0  0  0  0  0  0  0  0
   -7.7347   18.1457  -32.0871 H   0  0  0  0  0  0  0  0  0  0  0  0
   -6.5246   18.9998  -31.0551 H   0  0  0  0  0  0  0  0  0  0  0  0
   -7.3584   20.6996  -30.2683 H   0  0  0  0  0  0  0  0  0  0  0  0
   -6.4433   21.7204  -31.3948 H   0  0  0  0  0  0  0  0  0  0  0  0
   -8.8135   22.5127  -30.2362 H   0  0  0  0  0  0  0  0  0  0  0  0
   -8.3098   23.1115  -31.8189 H   0  0  0  0  0  0  0  0  0  0  0  0
  -10.5100   21.2708  -31.1458 H   0  0  0  0  0  0  0  0  0  0  0  0
  -10.1692   22.0116  -32.7153 H   0  0  0  0  0  0  0  0  0  0  0  0
   -9.4681   19.3022  -31.7084 H   0  0  0  0  0  0  0  0  0  0  0  0
   -9.4681   19.8903  -33.3878 H   0  0  0  0  0  0  0  0  0  0  0  0
   -5.2543   22.3727  -32.2620 H   0  0  0  0  0  0  0  0  0  0  0  0
  1  2  1  0
  2  3  2  0
  2  4  1  0
  4  5  2  0
  5  6  1  0
  6  7  2  0
  7  8  1  0
  8  9  2  0
  9 10  1  0
 10 11  1  0
 11 12  1  0
 12 13  1  0
 13 14  1  0
 14 15  1  0
 15 16  1  0
 16 17  1  0
  9 18  1  0
 18 19  2  0
 19 20  1  0
 20 21  1  0
 21 22  2  0
 21 23  1  0
 20  4  1  0
 19  6  1  0
 17 13  1  0
  1 24  1  0
  1 25  1  0
  5 26  1  0
  7 27  1  0
  8 28  1  0
 10 29  1  0
 10 30  1  0
 11 31  1  0
 11 32  1  0
 12 33  1  0
 12 34  1  0
 14 35  1  0
 14 36  1  0
 15 37  1  0
 15 38  1  0
 16 39  1  0
 16 40  1  0
 17 41  1  0
 17 42  1  0
 18 43  1  0
M  CHG  1  23  -1
M  END
>  <UniqueID>  (12) 
12

>  <SMILES>  (12) 
NC(=O)c1cc2ccc(CCCN3CCCC3)cc2n1C(=O)[O-]

>  <Energy>  (12) 
80.68576022877564

>  <Genealogy>  (12) 
NC(=O)c1cc2ccc(CCCN3CCCC3)cc2n1C(=O)[O-] (protonated)
NC(=O)c1cc2ccc(CCCN3CCCC3)cc2n1C(=O)[O-] (3D coordinates assigned)
NC(=O)c1cc2ccc(CCCN3CCCC3)cc2n1C(=O)[O-] (nonaromatic ring conformer: 80.68576022877564 kcal/mol)

>  <smiles>  (12) 
NC(=O)c1cc2ccc(CCCN3CCCC3)cc2n1C(=O)O

>  <score_type>  (12) 
oracle

>  <origin>  (12) 
adg

>  <m_score__min__energy>  (12) 
-9.6999999999999993

>  <m_primary>  (12) 
energy

$$$$
12:0
     RDKit          3D

 33 34  0  0  0  0  0  0  0  0999 V2000
   -7.5860   22.3390  -30.0900 C   0  0  0  0  0  0  0  0  0  0  0  0
   -7.8530   21.8660  -31.7860 S   0  0  0  0  0  0  0  0  0  0  0  0
   -9.3340   21.8140  -32.0390 O   0  0  0  0  0  0  0  0  0  0  0  0
   -7.2370   22.8920  -32.6960 O   0  0  0  0  0  0  0  0  0  0  0  0
   -7.1580   20.2460  -32.1070 C   0  0  0  0  0  0  0  0  0  0  0  0
   -5.9320   20.2900  -33.0300 C   0  0  0  0  0  0  0  0  0  0  0  0
   -4.6790   20.7100  -32.3070 C   0  0  0  0  0  0  0  0  0  0  0  0
   -3.5570   19.8450  -32.2580 C   0  0  0  0  0  0  0  0  0  0  0  0
   -2.3810   20.2330  -31.5950 C   0  0  0  0  0  0  0  0  0  0  0  0
   -2.3540   21.4900  -30.9980 C   0  0  0  0  0  0  0  0  0  0  0  0
   -1.3560   22.1050  -30.2780 C   0  0  0  0  0  0  0  0  0  0  0  0
   -1.8740   23.3470  -29.9150 C   0  0  0  0  0  0  0  0  0  0  0  0
   -1.0890   24.3730  -29.1970 C   0  0  0  0  0  0  0  0  0  0  0  0
   -1.6180   25.6770  -28.9720 N   0  0  0  0  0  0  0  0  0  0  0  0
    0.0840   24.1100  -28.8200 O   0  0  0  0  0  0  0  0  0  0  0  0
   -3.1470   23.4900  -30.3840 N   0  0  0  0  0  0  0  0  0  0  0  0
   -4.0520   24.5830  -30.1600 C   0  0  0  0  0  0  0  0  0  0  0  0
   -3.8950   25.6740  -30.7690 O   0  0  0  0  0  0  0  0  0  0  0  0
   -5.0930   24.4550  -29.2500 O   0  0  0  0  0  0  0  0  0  0  0  0
   -3.4240   22.3460  -31.0470 C   0  0  0  0  0  0  0  0  0  0  0  0
   -4.6160   21.9760  -31.6810 C   0  0  0  0  0  0  0  0  0  0  0  0
   -8.0165   21.5763  -29.4245 H   0  0  0  0  0  0  0  0  0  0  0  0
   -6.5061   22.4249  -29.8990 H   0  0  0  0  0  0  0  0  0  0  0  0
   -8.0704   23.3079  -29.8990 H   0  0  0  0  0  0  0  0  0  0  0  0
   -6.8589   19.7970  -31.1484 H   0  0  0  0  0  0  0  0  0  0  0  0
   -7.9312   19.6518  -32.6160 H   0  0  0  0  0  0  0  0  0  0  0  0
   -5.7746   19.2877  -33.4551 H   0  0  0  0  0  0  0  0  0  0  0  0
   -6.1309   21.0357  -33.8138 H   0  0  0  0  0  0  0  0  0  0  0  0
   -3.6078   18.8596  -32.7443 H   0  0  0  0  0  0  0  0  0  0  0  0
   -1.5088   19.5644  -31.5491 H   0  0  0  0  0  0  0  0  0  0  0  0
   -0.3606   21.7021  -30.0395 H   0  0  0  0  0  0  0  0  0  0  0  0
   -2.6480   25.8480  -28.9760 H   0  0  0  0  0  0  0  0  0  0  0  0
   -5.4824   22.6537  -31.6918 H   0  0  0  0  0  0  0  0  0  0  0  0
  1  2  1  0
  2  3  2  0
  2  4  2  0
  2  5  1  0
  5  6  1  0
  6  7  1  0
  7  8  2  0
  8  9  1  0
  9 10  2  0
 10 11  1  0
 11 12  2  0
 12 13  1  0
 13 14  1  0
 13 15  2  0
 12 16  1  0
 16 17  1  0
 17 18  2  0
 17 19  1  0
 16 20  1  0
 20 21  2  0
 21  7  1  0
 20 10  1  0
  1 22  1  0
  1 23  1  0
  1 24  1  0
  5 25  1  0
  5 26  1  0
  6 27  1  0
  6 28  1  0
  8 29  1  0
  9 30  1  0
 11 31  1  0
 14 32  1  0
 21 33  1  0
M  CHG  2  14  -1  19  -1
M  END
>  <UniqueID>  (13) 
13

>  <SMILES>  (13) 
CS(=O)(=O)CCc1ccc2cc(C([NH-])=O)n(C(=O)[O-])c2c1

>  <Energy>  (13) 
63.54931549395528

>  <Genealogy>  (13) 
CS(=O)(=O)CCc1ccc2cc(C([NH-])=O)n(C(=O)[O-])c2c1 (protonated)
CS(=O)(=O)CCc1ccc2cc(C([NH-])=O)n(C(=O)[O-])c2c1 (3D coordinates assigned)
CS(=O)(=O)CCc1ccc2cc(C([NH-])=O)n(C(=O)[O-])c2c1 (optimized conformer: 63.54931549395528 kcal/mol)

>  <smiles>  (13) 
CS(=O)(=O)CCc1ccc2cc(C(N)=O)n(C(=O)O)c2c1

>  <score_type>  (13) 
oracle

>  <origin>  (13) 
adg

>  <m_score__min__energy>  (13) 
-11.43

>  <m_primary>  (13) 
energy

$$$$
13:0
     RDKit          3D

 43 44  0  0  0  0  0  0  0  0999 V2000
    2.4750   20.2640  -33.8540 N   0  0  0  0  0  0  0  0  0  0  0  0
    1.8300   19.5260  -32.8150 C   0  0  0  0  0  0  0  0  0  0  0  0
    2.2110   18.3520  -32.5670 O   0  0  0  0  0  0  0  0  0  0  0  0
    0.7020   20.1160  -32.0610 C   0  0  0  0  0  0  0  0  0  0  0  0
    0.5030   19.9320  -30.6950 C   0  0  0  0  0  0  0  0  0  0  0  0
   -0.5820   20.7160  -30.3760 C   0  0  0  0  0  0  0  0  0  0  0  0
   -1.2160   20.9080  -29.1530 C   0  0  0  0  0  0  0  0  0  0  0  0
   -2.3310   21.7590  -29.1150 C   0  0  0  0  0  0  0  0  0  0  0  0
   -2.8090   22.3830  -30.2970 C   0  0  0  0  0  0  0  0  0  0  0  0
   -3.9910   23.3230  -30.2380 C   0  0  0  0  0  0  0  0  0  0  0  0
   -4.7630   23.0560  -29.1180 F   0  0  0  0  0  0  0  0  0  0  0  0
   -4.7960   23.1560  -31.3530 F   0  0  0  0  0  0  0  0  0  0  0  0
   -3.5040   24.7390  -30.1860 C   0  0  0  0  0  0  0  0  0  0  0  0
   -4.0920   25.6370  -30.8440 O   0  0  0  0  0  0  0  0  0  0  0  0
   -2.4380   25.0800  -29.3620 O   0  0  0  0  0  0  0  0  0  0  0  0
   -2.1240   22.1760  -31.5180 C   0  0  0  0  0  0  0  0  0  0  0  0
   -1.0020   21.3380  -31.5220 C   0  0  0  0  0  0  0  0  0  0  0  0
   -0.2220   20.9800  -32.5680 N   0  0  0  0  0  0  0  0  0  0  0  0
   -0.4100   21.3510  -33.9450 C   0  0  0  0  0  0  0  0  0  0  0  0
   -1.3960   20.9030  -34.5920 O   0  0  0  0  0  0  0  0  0  0  0  0
    0.5370   22.2070  -34.5870 N   0  0  0  0  0  0  0  0  0  0  0  0
    0.2560   22.9270  -35.8210 C   0  0  0  0  0  0  0  0  0  0  0  0
    1.3980   23.8910  -36.1440 C   0  0  0  0  0  0  0  0  0  0  0  0
    2.4800   23.2020  -36.8400 N   0  0  0  0  0  0  0  0  0  0  0  0
    3.0390   21.9560  -36.4120 C   0  0  0  0  0  0  0  0  0  0  0  0
    3.6830   21.8890  -35.3290 O   0  0  0  0  0  0  0  0  0  0  0  0
    2.8700   20.8260  -37.2200 O   0  0  0  0  0  0  0  0  0  0  0  0
    2.4170   19.5780  -36.7700 C   0  0  0  0  0  0  0  0  0  0  0  0
    3.2110   18.7400  -36.2620 O   0  0  0  0  0  0  0  0  0  0  0  0
    0.9560   19.2690  -36.8260 C   0  0  0  0  0  0  0  0  0  0  0  0
    0.5300   18.8390  -35.5840 F   0  0  0  0  0  0  0  0  0  0  0  0
    0.7140   18.2760  -37.7590 F   0  0  0  0  0  0  0  0  0  0  0  0
    0.2490   20.4020  -37.1830 F   0  0  0  0  0  0  0  0  0  0  0  0
    2.2240   21.2570  -34.0500 H   0  0  0  0  0  0  0  0  0  0  0  0
    3.2440   19.8250  -34.4090 H   0  0  0  0  0  0  0  0  0  0  0  0
    1.0886   19.2953  -30.0155 H   0  0  0  0  0  0  0  0  0  0  0  0
   -0.8541   20.4076  -28.2427 H   0  0  0  0  0  0  0  0  0  0  0  0
   -2.8407   21.9448  -28.1581 H   0  0  0  0  0  0  0  0  0  0  0  0
   -2.4654   22.6627  -32.4435 H   0  0  0  0  0  0  0  0  0  0  0  0
    0.1454   22.2063  -36.6446 H   0  0  0  0  0  0  0  0  0  0  0  0
   -0.6735   23.5019  -35.6964 H   0  0  0  0  0  0  0  0  0  0  0  0
    1.0161   24.7003  -36.7837 H   0  0  0  0  0  0  0  0  0  0  0  0
    1.7905   24.2993  -35.2010 H   0  0  0  0  0  0  0  0  0  0  0  0
  1  2  1  0
  2  3  2  0
  2  4  1  0
  4  5  2  0
  5  6  1  0
  6  7  2  0
  7  8  1  0
  8  9  2  0
  9 10  1  0
 10 11  1  0
 10 12  1  0
 10 13  1  0
 13 14  2  0
 13 15  1  0
  9 16  1  0
 16 17  2  0
 17 18  1  0
 18 19  1  0
 19 20  2  0
 19 21  1  0
 21 22  1  0
 22 23  1  0
 23 24  1  0
 24 25  1  0
 25 26  2  0
 25 27  1  0
 27 28  1  0
 28 29  2  0
 28 30  1  0
 30 31  1  0
 30 32  1  0
 30 33  1  0
 18  4  1  0
 17  6  1  0
  1 34  1  0
  1 35  1  0
  5 36  1  0
  7 37  1  0
  8 38  1  0
 16 39  1  0
 22 40  1  0
 22 41  1  0
 23 42  1  0
 23 43  1  0
M  CHG  3  15  -1  21  -1  24  -1
M  END
>  <UniqueID>  (14) 
14

>  <SMILES>  (14) 
NC(=O)c1cc2ccc(C(F)(F)C(=O)[O-])cc2n1C(=O)[N-]CC[N-]C(=O)OC(=O)C(F)(F)F

>  <Energy>  (14) 
75.38124307017053

>  <Genealogy>  (14) 
NC(=O)c1cc2ccc(C(F)(F)C(=O)[O-])cc2n1C(=O)[N-]CC[N-]C(=O)OC(=O)C(F)(F)F (protonated)
NC(=O)c1cc2ccc(C(F)(F)C(=O)[O-])cc2n1C(=O)[N-]CC[N-]C(=O)OC(=O)C(F)(F)F (3D coordinates assigned)
NC(=O)c1cc2ccc(C(F)(F)C(=O)[O-])cc2n1C(=O)[N-]CC[N-]C(=O)OC(=O)C(F)(F)F (optimized conformer: 75.38124307017053 kcal/mol)

>  <smiles>  (14) 
NC(=O)c1cc2ccc(C(F)(F)C(=O)O)cc2n1C(=O)NCCNC(=O)OC(=O)C(F)(F)F

>  <score_type>  (14) 
oracle

>  <origin>  (14) 
adg

>  <m_score__min__energy>  (14) 
-10.33

>  <m_primary>  (14) 
energy

$$$$
14:0
     RDKit          3D

 46 48  0  0  0  0  0  0  0  0999 V2000
   -0.6860   19.5370  -33.7010 C   0  0  0  0  0  0  0  0  0  0  0  0
   -1.8080   20.4310  -33.2940 C   0  0  0  0  0  0  0  0  0  0  0  0
   -1.9940   20.9910  -32.0480 C   0  0  0  0  0  0  0  0  0  0  0  0
   -3.1320   21.7560  -32.2110 C   0  0  0  0  0  0  0  0  0  0  0  0
   -3.7620   22.6010  -31.1850 C   0  0  0  0  0  0  0  0  0  0  0  0
   -3.0520   23.1240  -30.2840 O   0  0  0  0  0  0  0  0  0  0  0  0
   -5.1780   22.8520  -31.2080 N   0  0  0  0  0  0  0  0  0  0  0  0
   -5.8260   24.0150  -30.9160 C   0  0  0  0  0  0  0  0  0  0  0  0
   -5.1950   25.2470  -30.3970 C   0  0  0  0  0  0  0  0  0  0  0  0
   -3.8900   25.6170  -30.8410 N   0  0  0  0  0  0  0  0  0  0  0  0
   -5.8030   25.9900  -29.5830 O   0  0  0  0  0  0  0  0  0  0  0  0
   -7.1990   23.8730  -31.1170 C   0  0  0  0  0  0  0  0  0  0  0  0
   -7.3730   22.5770  -31.5470 C   0  0  0  0  0  0  0  0  0  0  0  0
   -8.5360   21.8940  -31.9000 C   0  0  0  0  0  0  0  0  0  0  0  0
   -8.4130   20.5570  -32.3210 C   0  0  0  0  0  0  0  0  0  0  0  0
   -7.1410   19.9460  -32.3930 C   0  0  0  0  0  0  0  0  0  0  0  0
   -7.0100   18.5720  -32.7950 C   0  0  0  0  0  0  0  0  0  0  0  0
   -6.8550   17.4200  -33.1090 C   0  0  0  0  0  0  0  0  0  0  0  0
   -6.6070   16.0300  -33.5090 C   0  0  0  0  0  0  0  0  0  0  0  0
   -5.1050   15.7890  -33.7060 C   0  0  0  0  0  0  0  0  0  0  0  0
   -4.3820   17.0720  -33.8720 N   0  0  0  0  0  0  0  0  0  0  0  0
   -4.2900   17.4480  -35.2930 C   0  0  0  0  0  0  0  0  0  0  0  0
   -3.0320   16.9860  -33.2930 C   0  0  0  0  0  0  0  0  0  0  0  0
   -5.9840   20.6690  -32.0420 C   0  0  0  0  0  0  0  0  0  0  0  0
   -6.1370   21.9850  -31.5990 C   0  0  0  0  0  0  0  0  0  0  0  0
   -3.5810   21.6400  -33.4770 N   0  0  0  0  0  0  0  0  0  0  0  0
   -2.7620   20.8420  -34.0960 O   0  0  0  0  0  0  0  0  0  0  0  0
   -0.1887   19.1408  -32.8034 H   0  0  0  0  0  0  0  0  0  0  0  0
   -1.0805   18.7029  -34.2999 H   0  0  0  0  0  0  0  0  0  0  0  0
    0.0389   20.1078  -34.2999 H   0  0  0  0  0  0  0  0  0  0  0  0
   -1.3833   20.8600  -31.1425 H   0  0  0  0  0  0  0  0  0  0  0  0
   -3.0380   25.2780  -30.3410 H   0  0  0  0  0  0  0  0  0  0  0  0
   -7.9775   24.6350  -30.9643 H   0  0  0  0  0  0  0  0  0  0  0  0
   -9.5191   22.3850  -31.8509 H   0  0  0  0  0  0  0  0  0  0  0  0
   -9.3114   19.9847  -32.5954 H   0  0  0  0  0  0  0  0  0  0  0  0
   -6.9825   15.3551  -32.7257 H   0  0  0  0  0  0  0  0  0  0  0  0
   -7.1269   15.8342  -34.4584 H   0  0  0  0  0  0  0  0  0  0  0  0
   -4.7063   15.2618  -32.8268 H   0  0  0  0  0  0  0  0  0  0  0  0
   -4.9616   15.1842  -34.6136 H   0  0  0  0  0  0  0  0  0  0  0  0
   -4.0293   18.5136  -35.3742 H   0  0  0  0  0  0  0  0  0  0  0  0
   -3.5136   16.8422  -35.7831 H   0  0  0  0  0  0  0  0  0  0  0  0
   -5.2584   17.2691  -35.7831 H   0  0  0  0  0  0  0  0  0  0  0  0
   -3.1029   16.9905  -32.1953 H   0  0  0  0  0  0  0  0  0  0  0  0
   -2.5491   16.0553  -33.6254 H   0  0  0  0  0  0  0  0  0  0  0  0
   -2.4349   17.8479  -33.6254 H   0  0  0  0  0  0  0  0  0  0  0  0
   -4.9871   20.2097  -32.1148 H   0  0  0  0  0  0  0  0  0  0  0  0
  1  2  1  0
  2  3  2  0
  3  4  1  0
  4  5  1  0
  5  6  2  0
  5  7  1  0
  7  8  1  0
  8  9  1  0
  9 10  1  0
  9 11  2  0
  8 12  2  0
 12 13  1  0
 13 14  2  0
 14 15  1  0
 15 16  2  0
 16 17  1  0
 17 18  3  0
 18 19  1  0
 19 20  1  0
 20 21  1  0
 21 22  1  0
 21 23  1  0
 16 24  1  0
 24 25  2  0
  4 26  2  0
 26 27  1  0
 27  2  1  0
 25  7  1  0
 25 13  1  0
  1 28  1  0
  1 29  1  0
  1 30  1  0
  3 31  1  0
 10 32  1  0
 12 33  1  0
 14 34  1  0
 15 35  1  0
 19 36  1  0
 19 37  1  0
 20 38  1  0
 20 39  1  0
 22 40  1  0
 22 41  1  0
 22 42  1  0
 23 43  1  0
 23 44  1  0
 23 45  1  0
 24 46  1  0
M  CHG  1  10  -1
M  END
>  <UniqueID>  (15) 
15

>  <SMILES>  (15) 
Cc1cc(C(=O)n2c(C([NH-])=O)cc3ccc(C#CCCN(C)C)cc32)no1

>  <Energy>  (15) 
109.1738950005578

>  <Genealogy>  (15) 
Cc1cc(C(=O)n2c(C([NH-])=O)cc3ccc(C#CCCN(C)C)cc32)no1 (protonated)
Cc1cc(C(=O)n2c(C([NH-])=O)cc3ccc(C#CCCN(C)C)cc32)no1 (3D coordinates assigned)
Cc1cc(C(=O)n2c(C([NH-])=O)cc3ccc(C#CCCN(C)C)cc32)no1 (optimized conformer: 109.1738950005578 kcal/mol)

>  <smiles>  (15) 
Cc1cc(C(=O)n2c(C(N)=O)cc3ccc(C#CCCN(C)C)cc32)no1

>  <score_type>  (15) 
oracle

>  <origin>  (15) 
adg

>  <m_score__min__energy>  (15) 
-10.98

>  <m_primary>  (15) 
energy

$$$$
15:0
     RDKit          3D

 30 31  0  0  0  0  0  0  0  0999 V2000
   -1.1920   22.6630  -30.4680 N   0  0  0  0  0  0  0  0  0  0  0  0
   -1.5430   21.7170  -31.4800 C   0  0  0  0  0  0  0  0  0  0  0  0
   -0.6230   21.1440  -32.1220 O   0  0  0  0  0  0  0  0  0  0  0  0
   -2.9610   21.3950  -31.7640 C   0  0  0  0  0  0  0  0  0  0  0  0
   -3.4030   20.6960  -32.8860 C   0  0  0  0  0  0  0  0  0  0  0  0
   -4.7770   20.6660  -32.7810 C   0  0  0  0  0  0  0  0  0  0  0  0
   -5.7270   20.0820  -33.6130 C   0  0  0  0  0  0  0  0  0  0  0  0
   -7.0780   20.1770  -33.2380 C   0  0  0  0  0  0  0  0  0  0  0  0
   -7.4510   20.8430  -32.0430 C   0  0  0  0  0  0  0  0  0  0  0  0
   -8.8940   20.9270  -31.6340 C   0  0  0  0  0  0  0  0  0  0  0  0
   -9.3190   22.2410  -31.6930 F   0  0  0  0  0  0  0  0  0  0  0  0
   -9.6660   20.1580  -32.4850 F   0  0  0  0  0  0  0  0  0  0  0  0
   -6.4570   21.4210  -31.2220 C   0  0  0  0  0  0  0  0  0  0  0  0
   -5.1230   21.3280  -31.6320 C   0  0  0  0  0  0  0  0  0  0  0  0
   -4.0210   21.7870  -31.0020 N   0  0  0  0  0  0  0  0  0  0  0  0
   -3.9830   22.4860  -29.7480 C   0  0  0  0  0  0  0  0  0  0  0  0
   -3.2950   22.0250  -28.7970 O   0  0  0  0  0  0  0  0  0  0  0  0
   -4.7110   23.7830  -29.5740 C   0  0  0  0  0  0  0  0  0  0  0  0
   -3.8310   24.9210  -29.9770 C   0  0  0  0  0  0  0  0  0  0  0  0
   -4.1680   25.6760  -30.9280 O   0  0  0  0  0  0  0  0  0  0  0  0
   -2.6140   25.1210  -29.3360 O   0  0  0  0  0  0  0  0  0  0  0  0
   -1.9180   23.2120  -29.9580 H   0  0  0  0  0  0  0  0  0  0  0  0
   -0.1870   22.8520  -30.2550 H   0  0  0  0  0  0  0  0  0  0  0  0
   -2.7860   20.2606  -33.6858 H   0  0  0  0  0  0  0  0  0  0  0  0
   -5.4298   19.5621  -34.5357 H   0  0  0  0  0  0  0  0  0  0  0  0
   -7.8536   19.7304  -33.8776 H   0  0  0  0  0  0  0  0  0  0  0  0
   -8.9988   20.5527  -30.6050 H   0  0  0  0  0  0  0  0  0  0  0  0
   -6.7252   21.9308  -30.2849 H   0  0  0  0  0  0  0  0  0  0  0  0
   -5.6142   23.7809  -30.2019 H   0  0  0  0  0  0  0  0  0  0  0  0
   -4.9918   23.9005  -28.5169 H   0  0  0  0  0  0  0  0  0  0  0  0
  1  2  1  0
  2  3  2  0
  2  4  1  0
  4  5  2  0
  5  6  1  0
  6  7  2  0
  7  8  1  0
  8  9  2  0
  9 10  1  0
 10 11  1  0
 10 12  1  0
  9 13  1  0
 13 14  2  0
 14 15  1  0
 15 16  1  0
 16 17  2  0
 16 18  1  0
 18 19  1  0
 19 20  2  0
 19 21  1  0
 15  4  1  0
 14  6  1  0
  1 22  1  0
  1 23  1  0
  5 24  1  0
  7 25  1  0
  8 26  1  0
 10 27  1  0
 13 28  1  0
 18 29  1  0
 18 30  1  0
M  CHG  1  21  -1
M  END
>  <UniqueID>  (16) 
16

>  <SMILES>  (16) 
NC(=O)c1cc2ccc(C(F)F)cc2n1C(=O)CC(=O)[O-]

>  <Energy>  (16) 
67.4046527015687

>  <Genealogy>  (16) 
NC(=O)c1cc2ccc(C(F)F)cc2n1C(=O)CC(=O)[O-] (protonated)
NC(=O)c1cc2ccc(C(F)F)cc2n1C(=O)CC(=O)[O-] (3D coordinates assigned)
NC(=O)c1cc2ccc(C(F)F)cc2n1C(=O)CC(=O)[O-] (optimized conformer: 67.4046527015687 kcal/mol)

>  <smiles>  (16) 
NC(=O)c1cc2ccc(C(F)F)cc2n1C(=O)CC(=O)O

>  <score_type>  (16) 
oracle

>  <origin>  (16) 
adg

>  <m_score__min__energy>  (16) 
-10.17

>  <m_primary>  (16) 
energy

$$$$
16:0
     RDKit          3D

 48 50  0  0  0  0  0  0  0  0999 V2000
   -5.1290   15.5750  -34.4620 C   0  0  0  0  0  0  0  0  0  0  0  0
   -5.5730   16.5250  -33.4490 N   0  0  0  0  0  0  0  0  0  0  0  0
   -5.7160   16.3020  -32.1300 C   0  0  0  0  0  0  0  0  0  0  0  0
   -6.0990   17.4080  -31.4590 N   0  0  0  0  0  0  0  0  0  0  0  0
   -6.1930   18.3740  -32.4030 C   0  0  0  0  0  0  0  0  0  0  0  0
   -6.5850   19.7750  -32.0910 C   0  0  0  0  0  0  0  0  0  0  0  0
   -7.9080   20.2500  -32.3020 C   0  0  0  0  0  0  0  0  0  0  0  0
   -8.2530   21.5810  -32.0090 C   0  0  0  0  0  0  0  0  0  0  0  0
   -7.2630   22.4190  -31.5110 C   0  0  0  0  0  0  0  0  0  0  0  0
   -7.3190   23.7480  -31.1580 C   0  0  0  0  0  0  0  0  0  0  0  0
   -6.0320   24.0710  -30.7310 C   0  0  0  0  0  0  0  0  0  0  0  0
   -5.6640   25.3820  -30.1590 C   0  0  0  0  0  0  0  0  0  0  0  0
   -4.3960   25.9580  -30.4630 N   0  0  0  0  0  0  0  0  0  0  0  0
   -6.4700   26.0140  -29.4250 O   0  0  0  0  0  0  0  0  0  0  0  0
   -5.2120   22.9870  -30.8310 N   0  0  0  0  0  0  0  0  0  0  0  0
   -3.7990   22.9220  -30.5800 C   0  0  0  0  0  0  0  0  0  0  0  0
   -3.0450   23.8300  -31.0230 O   0  0  0  0  0  0  0  0  0  0  0  0
   -3.2180   21.8280  -29.7220 C   0  0  0  0  0  0  0  0  0  0  0  0
   -1.8880   22.1800  -29.2070 N   0  0  0  0  0  0  0  0  0  0  0  0
   -1.8430   22.1690  -27.7380 C   0  0  0  0  0  0  0  0  0  0  0  0
   -2.0210   23.5860  -27.1900 C   0  0  0  0  0  0  0  0  0  0  0  0
   -1.1070   24.7970  -28.1400 S   0  0  0  0  0  0  0  0  0  0  0  0
   -0.6590   26.1830  -27.1140 C   0  0  0  0  0  0  0  0  0  0  0  0
   -1.9740   25.2840  -29.2640 O   0  0  0  0  0  0  0  0  0  0  0  0
    0.1370   24.1770  -28.7120 O   0  0  0  0  0  0  0  0  0  0  0  0
   -5.9830   21.9820  -31.2980 C   0  0  0  0  0  0  0  0  0  0  0  0
   -5.6090   20.6650  -31.5810 C   0  0  0  0  0  0  0  0  0  0  0  0
   -5.8630   17.8210  -33.6310 C   0  0  0  0  0  0  0  0  0  0  0  0
   -5.8200   18.4420  -34.8370 F   0  0  0  0  0  0  0  0  0  0  0  0
   -4.7123   14.6833  -33.9709 H   0  0  0  0  0  0  0  0  0  0  0  0
   -5.9835   15.2822  -35.0897 H   0  0  0  0  0  0  0  0  0  0  0  0
   -4.3562   16.0428  -35.0897 H   0  0  0  0  0  0  0  0  0  0  0  0
   -5.5403   15.3270  -31.6521 H   0  0  0  0  0  0  0  0  0  0  0  0
   -8.6725   19.5666  -32.7001 H   0  0  0  0  0  0  0  0  0  0  0  0
   -9.2773   21.9484  -32.1694 H   0  0  0  0  0  0  0  0  0  0  0  0
   -8.1935   24.4138  -31.2032 H   0  0  0  0  0  0  0  0  0  0  0  0
   -3.5350   25.6630  -29.9510 H   0  0  0  0  0  0  0  0  0  0  0  0
   -3.8919   21.6480  -28.8715 H   0  0  0  0  0  0  0  0  0  0  0  0
   -3.1137   20.9272  -30.3446 H   0  0  0  0  0  0  0  0  0  0  0  0
   -1.6260   23.1350  -29.5490 H   0  0  0  0  0  0  0  0  0  0  0  0
   -2.6507   21.5279  -27.3551 H   0  0  0  0  0  0  0  0  0  0  0  0
   -0.8667   21.7801  -27.4132 H   0  0  0  0  0  0  0  0  0  0  0  0
   -3.0895   23.8457  -27.2192 H   0  0  0  0  0  0  0  0  0  0  0  0
   -1.6337   23.6015  -26.1606 H   0  0  0  0  0  0  0  0  0  0  0  0
   -0.7505   25.9000  -26.0550 H   0  0  0  0  0  0  0  0  0  0  0  0
    0.3796   26.4761  -27.3268 H   0  0  0  0  0  0  0  0  0  0  0  0
   -1.3296   27.0286  -27.3268 H   0  0  0  0  0  0  0  0  0  0  0  0
   -4.5763   20.3267  -31.4107 H   0  0  0  0  0  0  0  0  0  0  0  0
  1  2  1  0
  2  3  1  0
  3  4  2  0
  4  5  1  0
  5  6  1  0
  6  7  2  0
  7  8  1  0
  8  9  2  0
  9 10  1  0
 10 11  2  0
 11 12  1  0
 12 13  1  0
 12 14  2  0
 11 15  1  0
 15 16  1  0
 16 17  2  0
 16 18  1  0
 18 19  1  0
 19 20  1  0
 20 21  1  0
 21 22  1  0
 22 23  1  0
 22 24  2  0
 22 25  2  0
 15 26  1  0
 26 27  2  0
  5 28  2  0
 28 29  1  0
 28  2  1  0
 27  6  1  0
 26  9  1  0
  1 30  1  0
  1 31  1  0
  1 32  1  0
  3 33  1  0
  7 34  1  0
  8 35  1  0
 10 36  1  0
 13 37  1  0
 18 38  1  0
 18 39  1  0
 19 40  1  0
 20 41  1  0
 20 42  1  0
 21 43  1  0
 21 44  1  0
 23 45  1  0
 23 46  1  0
 23 47  1  0
 27 48  1  0
M  CHG  1  13  -1
M  END
>  <UniqueID>  (17) 
17

>  <SMILES>  (17) 
Cn1cnc(-c2ccc3cc(C([NH-])=O)n(C(=O)CNCCS(C)(=O)=O)c3c2)c1F

>  <Energy>  (17) 
111.31881860256958

>  <Genealogy>  (17) 
Cn1cnc(-c2ccc3cc(C([NH-])=O)n(C(=O)CNCCS(C)(=O)=O)c3c2)c1F (protonated)
Cn1cnc(-c2ccc3cc(C([NH-])=O)n(C(=O)CNCCS(C)(=O)=O)c3c2)c1F (3D coordinates assigned)
Cn1cnc(-c2ccc3cc(C([NH-])=O)n(C(=O)CNCCS(C)(=O)=O)c3c2)c1F (optimized conformer: 111.31881860256958 kcal/mol)

>  <smiles>  (17) 
Cn1cnc(-c2ccc3cc(C(N)=O)n(C(=O)CNCCS(C)(=O)=O)c3c2)c1F

>  <score_type>  (17) 
oracle

>  <origin>  (17) 
adg

>  <m_score__min__energy>  (17) 
-11.640000000000001

>  <m_primary>  (17) 
energy

$$$$
17:0
     RDKit          3D

 56 58  0  0  0  0  0  0  0  0999 V2000
   -8.7050   23.0960  -31.9900 C   0  0  0  0  0  0  0  0  0  0  0  0
   -7.9670   22.1010  -31.2010 N   0  0  0  0  0  0  0  0  0  0  0  0
   -7.4310   22.4930  -29.8840 C   0  0  0  0  0  0  0  0  0  0  0  0
   -7.1950   24.0060  -29.7880 C   0  0  0  0  0  0  0  0  0  0  0  0
   -5.7470   24.3500  -29.9710 C   0  0  0  0  0  0  0  0  0  0  0  0
   -5.2000   25.1670  -30.9440 C   0  0  0  0  0  0  0  0  0  0  0  0
   -3.8770   25.2940  -30.7200 N   0  0  0  0  0  0  0  0  0  0  0  0
   -3.5820   24.5800  -29.6440 N   0  0  0  0  0  0  0  0  0  0  0  0
   -2.2580   24.5240  -29.0440 C   0  0  0  0  0  0  0  0  0  0  0  0
   -4.6950   24.0070  -29.1490 C   0  0  0  0  0  0  0  0  0  0  0  0
   -7.7470   20.7750  -31.7440 C   0  0  0  0  0  0  0  0  0  0  0  0
   -8.8130   19.8360  -31.8120 C   0  0  0  0  0  0  0  0  0  0  0  0
   -8.6140   18.5520  -32.3430 C   0  0  0  0  0  0  0  0  0  0  0  0
   -7.3480   18.2300  -32.8160 C   0  0  0  0  0  0  0  0  0  0  0  0
   -6.8820   17.0590  -33.3690 C   0  0  0  0  0  0  0  0  0  0  0  0
   -5.5470   17.3050  -33.6760 C   0  0  0  0  0  0  0  0  0  0  0  0
   -4.6780   16.3300  -34.3630 C   0  0  0  0  0  0  0  0  0  0  0  0
   -3.8510   16.7190  -35.4610 N   0  0  0  0  0  0  0  0  0  0  0  0
   -4.7080   15.1200  -34.0120 O   0  0  0  0  0  0  0  0  0  0  0  0
   -5.1950   18.5700  -33.3120 N   0  0  0  0  0  0  0  0  0  0  0  0
   -3.9000   19.1850  -33.4060 C   0  0  0  0  0  0  0  0  0  0  0  0
   -3.2840   19.1820  -34.5070 O   0  0  0  0  0  0  0  0  0  0  0  0
   -3.3400   19.7870  -32.2690 O   0  0  0  0  0  0  0  0  0  0  0  0
   -2.9360   21.1570  -32.1370 C   0  0  0  0  0  0  0  0  0  0  0  0
   -1.4720   21.3350  -32.5780 C   0  0  0  0  0  0  0  0  0  0  0  0
   -3.8680   22.0750  -32.9500 C   0  0  0  0  0  0  0  0  0  0  0  0
   -3.0530   21.5180  -30.6490 C   0  0  0  0  0  0  0  0  0  0  0  0
   -6.3110   19.1230  -32.7850 C   0  0  0  0  0  0  0  0  0  0  0  0
   -6.4690   20.3960  -32.2260 C   0  0  0  0  0  0  0  0  0  0  0  0
   -9.2211   23.7919  -31.3122 H   0  0  0  0  0  0  0  0  0  0  0  0
   -8.0019   23.6557  -32.6243 H   0  0  0  0  0  0  0  0  0  0  0  0
   -9.4447   22.5856  -32.6243 H   0  0  0  0  0  0  0  0  0  0  0  0
   -8.1486   22.1952  -29.1053 H   0  0  0  0  0  0  0  0  0  0  0  0
   -6.4633   21.9883  -29.7465 H   0  0  0  0  0  0  0  0  0  0  0  0
   -7.7833   24.5096  -30.5692 H   0  0  0  0  0  0  0  0  0  0  0  0
   -7.5049   24.3404  -28.7869 H   0  0  0  0  0  0  0  0  0  0  0  0
   -5.7557   25.6376  -31.7684 H   0  0  0  0  0  0  0  0  0  0  0  0
   -2.3517   24.5280  -27.9480 H   0  0  0  0  0  0  0  0  0  0  0  0
   -1.7485   23.6035  -29.3651 H   0  0  0  0  0  0  0  0  0  0  0  0
   -1.6726   25.3982  -29.3651 H   0  0  0  0  0  0  0  0  0  0  0  0
   -4.7544   23.3773  -28.2490 H   0  0  0  0  0  0  0  0  0  0  0  0
   -9.8093   20.1205  -31.4426 H   0  0  0  0  0  0  0  0  0  0  0  0
   -9.4361   17.8223  -32.3834 H   0  0  0  0  0  0  0  0  0  0  0  0
   -7.4443   16.1280  -33.5332 H   0  0  0  0  0  0  0  0  0  0  0  0
   -3.2110   16.0250  -35.9070 H   0  0  0  0  0  0  0  0  0  0  0  0
   -3.9350   17.6670  -35.8890 H   0  0  0  0  0  0  0  0  0  0  0  0
   -0.8283   21.4133  -31.6894 H   0  0  0  0  0  0  0  0  0  0  0  0
   -1.1623   20.4679  -33.1799 H   0  0  0  0  0  0  0  0  0  0  0  0
   -1.3791   22.2510  -33.1799 H   0  0  0  0  0  0  0  0  0  0  0  0
   -4.4799   22.6777  -32.2627 H   0  0  0  0  0  0  0  0  0  0  0  0
   -3.2646   22.7413  -33.5840 H   0  0  0  0  0  0  0  0  0  0  0  0
   -4.5251   21.4616  -33.5840 H   0  0  0  0  0  0  0  0  0  0  0  0
   -2.7711   20.6482  -30.0374 H   0  0  0  0  0  0  0  0  0  0  0  0
   -2.3815   22.3591  -30.4218 H   0  0  0  0  0  0  0  0  0  0  0  0
   -4.0902   21.8053  -30.4218 H   0  0  0  0  0  0  0  0  0  0  0  0
   -5.6176   21.0895  -32.1618 H   0  0  0  0  0  0  0  0  0  0  0  0
  1  2  1  0
  2  3  1  0
  3  4  1  0
  4  5  1  0
  5  6  1  0
  6  7  2  0
  7  8  1  0
  8  9  1  0
  8 10  1  0
  2 11  1  0
 11 12  2  0
 12 13  1  0
 13 14  2  0
 14 15  1  0
 15 16  2  0
 16 17  1  0
 17 18  1  0
 17 19  2  0
 16 20  1  0
 20 21  1  0
 21 22  2  0
 21 23  1  0
 23 24  1  0
 24 25  1  0
 24 26  1  0
 24 27  1  0
 20 28  1  0
 28 29  2  0
 10  5  2  0
 29 11  1  0
 28 14  1  0
  1 30  1  0
  1 31  1  0
  1 32  1  0
  3 33  1  0
  3 34  1  0
  4 35  1  0
  4 36  1  0
  6 37  1  0
  9 38  1  0
  9 39  1  0
  9 40  1  0
 10 41  1  0
 12 42  1  0
 13 43  1  0
 15 44  1  0
 18 45  1  0
 18 46  1  0
 25 47  1  0
 25 48  1  0
 25 49  1  0
 26 50  1  0
 26 51  1  0
 26 52  1  0
 27 53  1  0
 27 54  1  0
 27 55  1  0
 29 56  1  0
M  END
>  <UniqueID>  (18) 
18

>  <SMILES>  (18) 
CN(CCc1cnn(C)c1)c1ccc2cc(C(N)=O)n(C(=O)OC(C)(C)C)c2c1

>  <Energy>  (18) 
117.62251508298668

>  <Genealogy>  (18) 
CN(CCc1cnn(C)c1)c1ccc2cc(C(N)=O)n(C(=O)OC(C)(C)C)c2c1 (3D coordinates assigned)
CN(CCc1cnn(C)c1)c1ccc2cc(C(N)=O)n(C(=O)OC(C)(C)C)c2c1 (optimized conformer: 117.62251508298668 kcal/mol)

>  <smiles>  (18) 
CN(CCc1cnn(C)c1)c1ccc2cc(C(N)=O)n(C(=O)OC(C)(C)C)c2c1

>  <score_type>  (18) 
oracle

>  <origin>  (18) 
adg

>  <m_score__min__energy>  (18) 
-9.4399999999999995

>  <m_primary>  (18) 
energy

$$$$
18:0
     RDKit          3D

 43 47  0  0  0  0  0  0  0  0999 V2000
   -5.4270   26.6620  -30.4130 N   0  0  0  0  0  0  0  0  0  0  0  0
   -6.3320   25.6710  -29.9250 C   0  0  0  0  0  0  0  0  0  0  0  0
   -7.1480   25.9760  -29.0140 O   0  0  0  0  0  0  0  0  0  0  0  0
   -6.2850   24.2810  -30.4210 C   0  0  0  0  0  0  0  0  0  0  0  0
   -7.4170   23.5670  -30.8040 C   0  0  0  0  0  0  0  0  0  0  0  0
   -6.9590   22.3140  -31.1350 C   0  0  0  0  0  0  0  0  0  0  0  0
   -7.6580   21.2020  -31.5920 C   0  0  0  0  0  0  0  0  0  0  0  0
   -6.9270   20.0410  -31.8910 C   0  0  0  0  0  0  0  0  0  0  0  0
   -5.5140   20.0150  -31.7530 C   0  0  0  0  0  0  0  0  0  0  0  0
   -4.7210   18.7470  -32.0400 C   0  0  1  0  0  0  0  0  0  0  0  0
   -5.7010   17.5050  -32.0910 C   0  0  0  0  0  0  0  0  0  0  0  0
   -5.7270   16.8440  -33.4490 C   0  0  0  0  0  0  0  0  0  0  0  0
   -6.3110   17.5490  -34.4170 C   0  0  0  0  0  0  0  0  0  0  0  0
   -5.3490   17.8280  -35.5130 C   0  0  0  0  0  0  0  0  0  0  0  0
   -4.0670   17.1240  -35.0600 C   0  0  1  0  0  0  0  0  0  0  0  0
   -3.1120   17.7700  -34.0150 C   0  0  2  0  0  0  0  0  0  0  0  0
   -3.2040   16.4750  -33.2100 C   0  0  0  0  0  0  0  0  0  0  0  0
   -4.4850   16.1490  -33.9800 C   0  0  1  0  0  0  0  0  0  0  0  0
   -3.7320   18.9330  -33.2290 C   0  0  0  0  0  0  0  0  0  0  0  0
   -3.3600   20.0620  -33.5170 O   0  0  0  0  0  0  0  0  0  0  0  0
   -4.8440   21.1650  -31.2740 C   0  0  0  0  0  0  0  0  0  0  0  0
   -5.6000   22.3010  -30.9620 C   0  0  0  0  0  0  0  0  0  0  0  0
   -5.1680   23.5060  -30.5230 N   0  0  0  0  0  0  0  0  0  0  0  0
   -3.8030   23.9120  -30.3280 C   0  0  0  0  0  0  0  0  0  0  0  0
   -3.4670   25.1150  -30.4900 O   0  0  0  0  0  0  0  0  0  0  0  0
   -2.8370   22.9830  -29.9610 O   0  0  0  0  0  0  0  0  0  0  0  0
   -5.5010   27.6480  -30.0800 H   0  0  0  0  0  0  0  0  0  0  0  0
   -4.6330   26.4030  -31.0390 H   0  0  0  0  0  0  0  0  0  0  0  0
   -8.4555   23.9282  -30.8351 H   0  0  0  0  0  0  0  0  0  0  0  0
   -8.7507   21.2311  -31.7155 H   0  0  0  0  0  0  0  0  0  0  0  0
   -7.4556   19.1403  -32.2365 H   0  0  0  0  0  0  0  0  0  0  0  0
   -4.0329   18.5188  -31.2127 H   0  0  0  0  0  0  0  0  0  0  0  0
   -5.3730   16.7660  -31.3452 H   0  0  0  0  0  0  0  0  0  0  0  0
   -6.7161   17.8713  -31.8781 H   0  0  0  0  0  0  0  0  0  0  0  0
   -7.3604   17.8787  -34.4058 H   0  0  0  0  0  0  0  0  0  0  0  0
   -5.7088   17.4124  -36.4658 H   0  0  0  0  0  0  0  0  0  0  0  0
   -5.2045   18.9041  -35.6891 H   0  0  0  0  0  0  0  0  0  0  0  0
   -3.6166   16.9159  -36.0417 H   0  0  0  0  0  0  0  0  0  0  0  0
   -2.1602   18.2159  -34.3396 H   0  0  0  0  0  0  0  0  0  0  0  0
   -2.3764   15.7709  -33.3814 H   0  0  0  0  0  0  0  0  0  0  0  0
   -3.1810   16.4800  -32.1103 H   0  0  0  0  0  0  0  0  0  0  0  0
   -4.7253   15.0816  -34.0933 H   0  0  0  0  0  0  0  0  0  0  0  0
   -3.7511   21.1666  -31.1492 H   0  0  0  0  0  0  0  0  0  0  0  0
  1  2  1  0
  2  3  2  0
  2  4  1  0
  4  5  2  0
  5  6  1  0
  6  7  2  0
  7  8  1  0
  8  9  2  0
  9 10  1  0
 10 11  1  0
 11 12  1  0
 12 13  2  0
 13 14  1  0
 14 15  1  0
 15 16  1  0
 16 17  1  0
 17 18  1  0
 16 19  1  0
 19 20  2  0
  9 21  1  0
 21 22  2  0
 22 23  1  0
 23 24  1  0
 24 25  2  0
 24 26  1  0
 23  4  1  0
 22  6  1  0
 19 10  1  0
 18 12  1  0
 18 15  1  0
  1 27  1  0
  1 28  1  0
  5 29  1  0
  7 30  1  0
  8 31  1  0
 10 32  1  1
 11 33  1  0
 11 34  1  0
 13 35  1  0
 14 36  1  0
 14 37  1  0
 15 38  1  6
 16 39  1  6
 17 40  1  0
 17 41  1  0
 18 42  1  6
 21 43  1  0
M  CHG  1  26  -1
M  END
>  <UniqueID>  (19) 
19

>  <SMILES>  (19) 
NC(=O)c1cc2ccc([C@H]3CC4=CC[C@H]5C(CC45)C3=O)cc2n1C(=O)[O-]

>  <Energy>  (19) 
203.786069942177

>  <Genealogy>  (19) 
NC(=O)c1cc2ccc(C3CC4=CCC5C(CC45)C3=O)cc2n1C(=O)[O-] (protonated)
NC(=O)c1cc2ccc([C@H]3CC4=CC[C@H]5C(CC45)C3=O)cc2n1C(=O)[O-] (chirality)
NC(=O)c1cc2ccc([C@H]3CC4=CC[C@H]5C(CC45)C3=O)cc2n1C(=O)[O-] (3D coordinates assigned)
NC(=O)c1cc2ccc([C@H]3CC4=CC[C@H]5C(CC45)C3=O)cc2n1C(=O)[O-] (nonaromatic ring conformer: 203.786069942177 kcal/mol)

>  <smiles>  (19) 
NC(=O)c1cc2ccc(C3CC4=CCC5C(CC45)C3=O)cc2n1C(=O)O

>  <score_type>  (19) 
oracle

>  <origin>  (19) 
adg

>  <m_score__min__energy>  (19) 
-10.07

>  <m_primary>  (19) 
energy

$$$$
19:0
     RDKit          3D

 40 42  0  0  0  0  0  0  0  0999 V2000
   -2.5630   20.6780  -29.5240 C   0  0  0  0  0  0  0  0  0  0  0  0
   -2.9640   22.0290  -29.9250 N   0  0  0  0  0  0  0  0  0  0  0  0
   -3.6430   22.2510  -31.1780 C   0  0  0  0  0  0  0  0  0  0  0  0
   -2.9900   22.3120  -32.2540 O   0  0  0  0  0  0  0  0  0  0  0  0
   -5.0720   22.3890  -31.2250 N   0  0  0  0  0  0  0  0  0  0  0  0
   -5.8220   23.4360  -30.7850 C   0  0  0  0  0  0  0  0  0  0  0  0
   -5.2810   24.7000  -30.2340 C   0  0  0  0  0  0  0  0  0  0  0  0
   -5.7600   25.2270  -28.9970 N   0  0  0  0  0  0  0  0  0  0  0  0
   -4.3860   25.3280  -30.8610 O   0  0  0  0  0  0  0  0  0  0  0  0
   -7.1770   23.1880  -31.0090 C   0  0  0  0  0  0  0  0  0  0  0  0
   -7.2250   21.9520  -31.6170 C   0  0  0  0  0  0  0  0  0  0  0  0
   -8.3140   21.2250  -32.0890 C   0  0  0  0  0  0  0  0  0  0  0  0
   -8.0630   19.9820  -32.6950 C   0  0  0  0  0  0  0  0  0  0  0  0
   -6.7380   19.4780  -32.7990 C   0  0  0  0  0  0  0  0  0  0  0  0
   -6.4680   18.1710  -33.4980 C   0  0  0  0  0  0  0  0  0  0  0  0
   -5.4370   17.5150  -32.8520 F   0  0  0  0  0  0  0  0  0  0  0  0
   -7.5970   17.3700  -33.4770 F   0  0  0  0  0  0  0  0  0  0  0  0
   -6.1110   18.3830  -34.8190 F   0  0  0  0  0  0  0  0  0  0  0  0
   -5.6590   20.2590  -32.3270 C   0  0  0  0  0  0  0  0  0  0  0  0
   -5.9410   21.4950  -31.7380 C   0  0  0  0  0  0  0  0  0  0  0  0
   -2.7560   23.1170  -29.0080 C   0  0  0  0  0  0  0  0  0  0  0  0
   -3.4020   23.1240  -27.7610 C   0  0  0  0  0  0  0  0  0  0  0  0
   -3.1960   24.1790  -26.8670 C   0  0  0  0  0  0  0  0  0  0  0  0
   -2.3390   25.2290  -27.2060 C   0  0  0  0  0  0  0  0  0  0  0  0
   -1.6830   25.2240  -28.4400 C   0  0  0  0  0  0  0  0  0  0  0  0
   -0.8460   26.2390  -28.7660 F   0  0  0  0  0  0  0  0  0  0  0  0
   -1.8890   24.1720  -29.3390 C   0  0  0  0  0  0  0  0  0  0  0  0
   -2.5434   20.6120  -28.4262 H   0  0  0  0  0  0  0  0  0  0  0  0
   -3.2833   19.9483  -29.9224 H   0  0  0  0  0  0  0  0  0  0  0  0
   -1.5612   20.4594  -29.9224 H   0  0  0  0  0  0  0  0  0  0  0  0
   -6.4420   24.7010  -28.4070 H   0  0  0  0  0  0  0  0  0  0  0  0
   -5.3840   26.1320  -28.6340 H   0  0  0  0  0  0  0  0  0  0  0  0
   -8.0257   23.8399  -30.7546 H   0  0  0  0  0  0  0  0  0  0  0  0
   -9.3392   21.6113  -31.9908 H   0  0  0  0  0  0  0  0  0  0  0  0
   -8.9017   19.3923  -33.0935 H   0  0  0  0  0  0  0  0  0  0  0  0
   -4.6224   19.9030  -32.4208 H   0  0  0  0  0  0  0  0  0  0  0  0
   -4.0726   22.2963  -27.4866 H   0  0  0  0  0  0  0  0  0  0  0  0
   -3.7099   24.1823  -25.8944 H   0  0  0  0  0  0  0  0  0  0  0  0
   -2.1807   26.0592  -26.5020 H   0  0  0  0  0  0  0  0  0  0  0  0
   -1.3701   24.1708  -30.3089 H   0  0  0  0  0  0  0  0  0  0  0  0
  1  2  1  0
  2  3  1  0
  3  4  2  0
  3  5  1  0
  5  6  1  0
  6  7  1  0
  7  8  1  0
  7  9  2  0
  6 10  2  0
 10 11  1  0
 11 12  2  0
 12 13  1  0
 13 14  2  0
 14 15  1  0
 15 16  1  0
 15 17  1  0
 15 18  1  0
 14 19  1  0
 19 20  2  0
  2 21  1  0
 21 22  2  0
 22 23  1  0
 23 24  2  0
 24 25  1  0
 25 26  1  0
 25 27  2  0
 20  5  1  0
 27 21  1  0
 20 11  1  0
  1 28  1  0
  1 29  1  0
  1 30  1  0
  8 31  1  0
  8 32  1  0
 10 33  1  0
 12 34  1  0
 13 35  1  0
 19 36  1  0
 22 37  1  0
 23 38  1  0
 24 39  1  0
 27 40  1  0
M  END
>  <UniqueID>  (20) 
20

>  <SMILES>  (20) 
CN(C(=O)n1c(C(N)=O)cc2ccc(C(F)(F)F)cc21)c1cccc(F)c1

>  <Energy>  (20) 
88.1777889756631

>  <Genealogy>  (20) 
CN(C(=O)n1c(C(N)=O)cc2ccc(C(F)(F)F)cc21)c1cccc(F)c1 (3D coordinates assigned)
CN(C(=O)n1c(C(N)=O)cc2ccc(C(F)(F)F)cc21)c1cccc(F)c1 (optimized conformer: 88.1777889756631 kcal/mol)

>  <smiles>  (20) 
CN(C(=O)n1c(C(N)=O)cc2ccc(C(F)(F)F)cc21)c1cccc(F)c1

>  <score_type>  (20) 
oracle

>  <origin>  (20) 
adg

>  <m_score__min__energy>  (20) 
-9.0800000000000001

>  <m_primary>  (20) 
energy

$$$$
20:0
     RDKit          3D

 49 50  0  0  0  0  0  0  0  0999 V2000
   -1.8610   20.0940  -33.4970 C   0  0  0  0  0  0  0  0  0  0  0  0
   -2.7720   19.0080  -33.1000 N   0  0  0  0  0  0  0  0  0  0  0  0
   -2.1300   17.7090  -33.3770 C   0  0  0  0  0  0  0  0  0  0  0  0
   -4.0570   19.1270  -33.8240 C   0  0  0  0  0  0  0  0  0  0  0  0
   -4.9920   17.9640  -33.4560 C   0  0  0  0  0  0  0  0  0  0  0  0
   -6.4610   18.2310  -33.8380 C   0  0  0  0  0  0  0  0  0  0  0  0
   -7.4110   18.3930  -32.6360 C   0  0  0  0  0  0  0  0  0  0  0  0
   -7.4770   19.8170  -32.1480 C   0  0  0  0  0  0  0  0  0  0  0  0
   -8.7290   20.4720  -32.0350 C   0  0  0  0  0  0  0  0  0  0  0  0
   -8.7990   21.8170  -31.6290 C   0  0  0  0  0  0  0  0  0  0  0  0
   -7.6060   22.4780  -31.3520 C   0  0  0  0  0  0  0  0  0  0  0  0
   -7.3760   23.7860  -30.9850 C   0  0  0  0  0  0  0  0  0  0  0  0
   -5.9900   23.9050  -30.8880 C   0  0  0  0  0  0  0  0  0  0  0  0
   -5.2960   25.1510  -30.5030 C   0  0  0  0  0  0  0  0  0  0  0  0
   -3.8850   25.2880  -30.6640 N   0  0  0  0  0  0  0  0  0  0  0  0
   -5.9550   26.1070  -30.0090 O   0  0  0  0  0  0  0  0  0  0  0  0
   -5.3930   22.7160  -31.1740 N   0  0  0  0  0  0  0  0  0  0  0  0
   -3.9890   22.4400  -31.2800 C   0  0  0  0  0  0  0  0  0  0  0  0
   -3.4600   22.3840  -32.4230 O   0  0  0  0  0  0  0  0  0  0  0  0
   -3.1900   22.2260  -30.1020 N   0  0  0  0  0  0  0  0  0  0  0  0
   -1.8010   21.7810  -30.2430 C   0  0  0  0  0  0  0  0  0  0  0  0
   -3.7490   22.5100  -28.7770 C   0  0  0  0  0  0  0  0  0  0  0  0
   -6.3900   21.8560  -31.4570 C   0  0  0  0  0  0  0  0  0  0  0  0
   -6.2880   20.5220  -31.8580 C   0  0  0  0  0  0  0  0  0  0  0  0
   -1.4543   20.5788  -32.5972 H   0  0  0  0  0  0  0  0  0  0  0  0
   -1.0359   19.6801  -34.0952 H   0  0  0  0  0  0  0  0  0  0  0  0
   -2.4121   20.8346  -34.0952 H   0  0  0  0  0  0  0  0  0  0  0  0
   -1.8842   17.2116  -32.4272 H   0  0  0  0  0  0  0  0  0  0  0  0
   -2.8187   17.0755  -33.9552 H   0  0  0  0  0  0  0  0  0  0  0  0
   -1.2084   17.8714  -33.9552 H   0  0  0  0  0  0  0  0  0  0  0  0
   -4.5384   20.0782  -33.5530 H   0  0  0  0  0  0  0  0  0  0  0  0
   -3.8600   19.0964  -34.9058 H   0  0  0  0  0  0  0  0  0  0  0  0
   -4.6514   17.0600  -33.9820 H   0  0  0  0  0  0  0  0  0  0  0  0
   -4.9522   17.8417  -32.3635 H   0  0  0  0  0  0  0  0  0  0  0  0
   -6.4992   19.1548  -34.4339 H   0  0  0  0  0  0  0  0  0  0  0  0
   -6.8065   17.3475  -34.3948 H   0  0  0  0  0  0  0  0  0  0  0  0
   -8.4201   18.0750  -32.9371 H   0  0  0  0  0  0  0  0  0  0  0  0
   -7.0232   17.7730  -31.8143 H   0  0  0  0  0  0  0  0  0  0  0  0
   -9.6540   19.9237  -32.2668 H   0  0  0  0  0  0  0  0  0  0  0  0
   -9.7670   22.3306  -31.5334 H   0  0  0  0  0  0  0  0  0  0  0  0
   -8.1265   24.5701  -30.8064 H   0  0  0  0  0  0  0  0  0  0  0  0
   -3.4850   26.0350  -31.2730 H   0  0  0  0  0  0  0  0  0  0  0  0
   -1.3584   21.6392  -29.2460 H   0  0  0  0  0  0  0  0  0  0  0  0
   -1.7750   20.8296  -30.7944 H   0  0  0  0  0  0  0  0  0  0  0  0
   -1.2269   22.5402  -30.7944 H   0  0  0  0  0  0  0  0  0  0  0  0
   -3.0531   22.1564  -28.0020 H   0  0  0  0  0  0  0  0  0  0  0  0
   -3.8999   23.5941  -28.6674 H   0  0  0  0  0  0  0  0  0  0  0  0
   -4.7135   21.9926  -28.6674 H   0  0  0  0  0  0  0  0  0  0  0  0
   -5.3066   20.0329  -31.9457 H   0  0  0  0  0  0  0  0  0  0  0  0
  1  2  1  0
  2  3  1  0
  2  4  1  0
  4  5  1  0
  5  6  1  0
  6  7  1  0
  7  8  1  0
  8  9  2  0
  9 10  1  0
 10 11  2  0
 11 12  1  0
 12 13  2  0
 13 14  1  0
 14 15  1  0
 14 16  2  0
 13 17  1  0
 17 18  1  0
 18 19  2  0
 18 20  1  0
 20 21  1  0
 20 22  1  0
 17 23  1  0
 23 24  2  0
 24  8  1  0
 23 11  1  0
  1 25  1  0
  1 26  1  0
  1 27  1  0
  3 28  1  0
  3 29  1  0
  3 30  1  0
  4 31  1  0
  4 32  1  0
  5 33  1  0
  5 34  1  0
  6 35  1  0
  6 36  1  0
  7 37  1  0
  7 38  1  0
  9 39  1  0
 10 40  1  0
 12 41  1  0
 15 42  1  0
 21 43  1  0
 21 44  1  0
 21 45  1  0
 22 46  1  0
 22 47  1  0
 22 48  1  0
 24 49  1  0
M  CHG  1  15  -1
M  END
>  <UniqueID>  (21) 
21

>  <SMILES>  (21) 
CN(C)CCCCc1ccc2cc(C([NH-])=O)n(C(=O)N(C)C)c2c1

>  <Energy>  (21) 
78.73059029087472

>  <Genealogy>  (21) 
CN(C)CCCCc1ccc2cc(C([NH-])=O)n(C(=O)N(C)C)c2c1 (protonated)
CN(C)CCCCc1ccc2cc(C([NH-])=O)n(C(=O)N(C)C)c2c1 (3D coordinates assigned)
CN(C)CCCCc1ccc2cc(C([NH-])=O)n(C(=O)N(C)C)c2c1 (optimized conformer: 78.73059029087472 kcal/mol)

>  <smiles>  (21) 
CN(C)CCCCc1ccc2cc(C(N)=O)n(C(=O)N(C)C)c2c1

>  <score_type>  (21) 
oracle

>  <origin>  (21) 
adg

>  <m_score__min__energy>  (21) 
-10.77

>  <m_primary>  (21) 
energy

$$$$
21:0
     RDKit          3D

 37 39  0  0  0  0  0  0  0  0999 V2000
   -4.2410   23.5790  -27.9180 C   0  0  0  0  0  0  0  0  0  0  0  0
   -3.5620   22.3150  -28.3350 C   0  0  0  0  0  0  0  0  0  0  0  0
   -2.9630   21.4720  -27.4700 N   0  0  0  0  0  0  0  0  0  0  0  0
   -2.4650   20.4690  -28.1760 N   0  0  0  0  0  0  0  0  0  0  0  0
   -1.6830   19.3830  -27.6020 C   0  0  0  0  0  0  0  0  0  0  0  0
   -2.7070   20.6560  -29.4860 C   0  0  0  0  0  0  0  0  0  0  0  0
   -3.4200   21.8300  -29.6290 C   0  0  0  0  0  0  0  0  0  0  0  0
   -3.8860   22.4290  -30.8940 C   0  0  0  0  0  0  0  0  0  0  0  0
   -3.0760   22.6130  -31.8420 O   0  0  0  0  0  0  0  0  0  0  0  0
   -5.2610   22.8030  -31.0600 N   0  0  0  0  0  0  0  0  0  0  0  0
   -5.8210   24.0290  -30.8650 C   0  0  0  0  0  0  0  0  0  0  0  0
   -5.0900   25.2750  -30.5500 C   0  0  0  0  0  0  0  0  0  0  0  0
   -3.6670   25.2940  -30.4770 N   0  0  0  0  0  0  0  0  0  0  0  0
   -5.7310   26.3460  -30.3690 O   0  0  0  0  0  0  0  0  0  0  0  0
   -7.2010   23.9690  -31.0540 C   0  0  0  0  0  0  0  0  0  0  0  0
   -7.4700   22.6560  -31.3720 C   0  0  0  0  0  0  0  0  0  0  0  0
   -8.6810   22.0260  -31.6370 C   0  0  0  0  0  0  0  0  0  0  0  0
   -8.6620   20.6470  -31.9030 C   0  0  0  0  0  0  0  0  0  0  0  0
   -7.4400   19.9240  -31.9090 C   0  0  0  0  0  0  0  0  0  0  0  0
   -7.4390   18.4350  -32.1390 C   0  0  0  0  0  0  0  0  0  0  0  0
   -8.7150   17.9180  -31.9920 F   0  0  0  0  0  0  0  0  0  0  0  0
   -6.6100   17.8000  -31.2310 F   0  0  0  0  0  0  0  0  0  0  0  0
   -6.9900   18.1720  -33.4190 F   0  0  0  0  0  0  0  0  0  0  0  0
   -6.2330   20.5970  -31.6070 C   0  0  0  0  0  0  0  0  0  0  0  0
   -6.2820   21.9740  -31.3650 C   0  0  0  0  0  0  0  0  0  0  0  0
   -4.2707   23.6342  -26.8198 H   0  0  0  0  0  0  0  0  0  0  0  0
   -3.6849   24.4417  -28.3136 H   0  0  0  0  0  0  0  0  0  0  0  0
   -5.2673   23.5916  -28.3136 H   0  0  0  0  0  0  0  0  0  0  0  0
   -1.7250   19.4413  -26.5043 H   0  0  0  0  0  0  0  0  0  0  0  0
   -2.0955   18.4188  -27.9340 H   0  0  0  0  0  0  0  0  0  0  0  0
   -0.6378   19.4685  -27.9340 H   0  0  0  0  0  0  0  0  0  0  0  0
   -2.3916   19.9892  -30.3020 H   0  0  0  0  0  0  0  0  0  0  0  0
   -3.0880   24.6950  -31.1060 H   0  0  0  0  0  0  0  0  0  0  0  0
   -7.9222   24.7951  -30.9675 H   0  0  0  0  0  0  0  0  0  0  0  0
   -9.6251   22.5905  -31.6383 H   0  0  0  0  0  0  0  0  0  0  0  0
   -9.6056   20.1206  -32.1092 H   0  0  0  0  0  0  0  0  0  0  0  0
   -5.2791   20.0509  -31.5635 H   0  0  0  0  0  0  0  0  0  0  0  0
  1  2  1  0
  2  3  2  0
  3  4  1  0
  4  5  1  0
  4  6  1  0
  6  7  2  0
  7  8  1  0
  8  9  2  0
  8 10  1  0
 10 11  1  0
 11 12  1  0
 12 13  1  0
 12 14  2  0
 11 15  2  0
 15 16  1  0
 16 17  2  0
 17 18  1  0
 18 19  2  0
 19 20  1  0
 20 21  1  0
 20 22  1  0
 20 23  1  0
 19 24  1  0
 24 25  2  0
  7  2  1  0
 25 10  1  0
 25 16  1  0
  1 26  1  0
  1 27  1  0
  1 28  1  0
  5 29  1  0
  5 30  1  0
  5 31  1  0
  6 32  1  0
 13 33  1  0
 15 34  1  0
 17 35  1  0
 18 36  1  0
 24 37  1  0
M  CHG  1  13  -1
M  END
>  <UniqueID>  (22) 
22

>  <SMILES>  (22) 
Cc1nn(C)cc1C(=O)n1c(C([NH-])=O)cc2ccc(C(F)(F)F)cc21

>  <Energy>  (22) 
107.1959832111232

>  <Genealogy>  (22) 
Cc1nn(C)cc1C(=O)n1c(C([NH-])=O)cc2ccc(C(F)(F)F)cc21 (protonated)
Cc1nn(C)cc1C(=O)n1c(C([NH-])=O)cc2ccc(C(F)(F)F)cc21 (3D coordinates assigned)
Cc1nn(C)cc1C(=O)n1c(C([NH-])=O)cc2ccc(C(F)(F)F)cc21 (optimized conformer: 107.1959832111232 kcal/mol)

>  <smiles>  (22) 
Cc1nn(C)cc1C(=O)n1c(C(N)=O)cc2ccc(C(F)(F)F)cc21

>  <score_type>  (22) 
oracle

>  <origin>  (22) 
adg

>  <m_score__min__energy>  (22) 
-10.630000000000001

>  <m_primary>  (22) 
energy

$$$$
22:0
     RDKit          3D

 37 38  0  0  0  0  0  0  0  0999 V2000
   -3.9320   22.2820  -28.3990 C   0  0  0  0  0  0  0  0  0  0  0  0
   -3.1670   22.4340  -29.6410 N   0  0  0  0  0  0  0  0  0  0  0  0
   -1.7140   22.6380  -29.5460 C   0  0  0  0  0  0  0  0  0  0  0  0
   -1.3790   24.0950  -29.2200 C   0  0  0  0  0  0  0  0  0  0  0  0
   -2.3680   24.9580  -29.7130 O   0  0  0  0  0  0  0  0  0  0  0  0
   -3.8390   22.5530  -30.9120 C   0  0  0  0  0  0  0  0  0  0  0  0
   -3.1660   22.5700  -31.9780 O   0  0  0  0  0  0  0  0  0  0  0  0
   -5.2710   22.6570  -30.9880 N   0  0  0  0  0  0  0  0  0  0  0  0
   -6.0290   23.7670  -30.7660 C   0  0  0  0  0  0  0  0  0  0  0  0
   -5.5390   25.0510  -30.2270 C   0  0  0  0  0  0  0  0  0  0  0  0
   -6.1330   25.6490  -29.0740 N   0  0  0  0  0  0  0  0  0  0  0  0
   -4.6070   25.6560  -30.8230 O   0  0  0  0  0  0  0  0  0  0  0  0
   -7.3600   23.5270  -31.1010 C   0  0  0  0  0  0  0  0  0  0  0  0
   -7.3950   22.2220  -31.5350 C   0  0  0  0  0  0  0  0  0  0  0  0
   -8.4610   21.4660  -32.0150 C   0  0  0  0  0  0  0  0  0  0  0  0
   -8.1990   20.1520  -32.4390 C   0  0  0  0  0  0  0  0  0  0  0  0
   -6.8850   19.6250  -32.3860 C   0  0  0  0  0  0  0  0  0  0  0  0
   -6.6230   18.2230  -32.8570 C   0  0  0  0  0  0  0  0  0  0  0  0
   -7.6860   17.4090  -32.5120 F   0  0  0  0  0  0  0  0  0  0  0  0
   -6.4690   18.2160  -34.2320 F   0  0  0  0  0  0  0  0  0  0  0  0
   -5.8270   20.4250  -31.8990 C   0  0  0  0  0  0  0  0  0  0  0  0
   -6.1200   21.7210  -31.4640 C   0  0  0  0  0  0  0  0  0  0  0  0
   -3.2618   22.4152  -27.5369 H   0  0  0  0  0  0  0  0  0  0  0  0
   -4.7290   23.0393  -28.3643 H   0  0  0  0  0  0  0  0  0  0  0  0
   -4.3789   21.2775  -28.3643 H   0  0  0  0  0  0  0  0  0  0  0  0
   -1.3122   21.9913  -28.7520 H   0  0  0  0  0  0  0  0  0  0  0  0
   -1.2631   22.3862  -30.5172 H   0  0  0  0  0  0  0  0  0  0  0  0
   -1.3094   24.2131  -28.1286 H   0  0  0  0  0  0  0  0  0  0  0  0
   -0.4207   24.3503  -29.6959 H   0  0  0  0  0  0  0  0  0  0  0  0
   -2.7740   24.5140  -30.5010 H   0  0  0  0  0  0  0  0  0  0  0  0
   -5.7360   26.5300  -28.6790 H   0  0  0  0  0  0  0  0  0  0  0  0
   -7.0200   25.2790  -28.6690 H   0  0  0  0  0  0  0  0  0  0  0  0
   -8.2028   24.2307  -31.0330 H   0  0  0  0  0  0  0  0  0  0  0  0
   -9.4773   21.8844  -32.0610 H   0  0  0  0  0  0  0  0  0  0  0  0
   -9.0220   19.5268  -32.8156 H   0  0  0  0  0  0  0  0  0  0  0  0
   -5.7046   17.8481  -32.3816 H   0  0  0  0  0  0  0  0  0  0  0  0
   -4.7981   20.0376  -31.8630 H   0  0  0  0  0  0  0  0  0  0  0  0
  1  2  1  0
  2  3  1  0
  3  4  1  0
  4  5  1  0
  2  6  1  0
  6  7  2  0
  6  8  1  0
  8  9  1  0
  9 10  1  0
 10 11  1  0
 10 12  2  0
  9 13  2  0
 13 14  1  0
 14 15  2  0
 15 16  1  0
 16 17  2  0
 17 18  1  0
 18 19  1  0
 18 20  1  0
 17 21  1  0
 21 22  2  0
 22  8  1  0
 22 14  1  0
  1 23  1  0
  1 24  1  0
  1 25  1  0
  3 26  1  0
  3 27  1  0
  4 28  1  0
  4 29  1  0
  5 30  1  0
 11 31  1  0
 11 32  1  0
 13 33  1  0
 15 34  1  0
 16 35  1  0
 18 36  1  0
 21 37  1  0
M  END
>  <UniqueID>  (23) 
23

>  <SMILES>  (23) 
CN(CCO)C(=O)n1c(C(N)=O)cc2ccc(C(F)F)cc21

>  <Energy>  (23) 
73.39977556697067

>  <Genealogy>  (23) 
CN(CCO)C(=O)n1c(C(N)=O)cc2ccc(C(F)F)cc21 (3D coordinates assigned)
CN(CCO)C(=O)n1c(C(N)=O)cc2ccc(C(F)F)cc21 (optimized conformer: 73.39977556697067 kcal/mol)

>  <smiles>  (23) 
CN(CCO)C(=O)n1c(C(N)=O)cc2ccc(C(F)F)cc21

>  <score_type>  (23) 
oracle

>  <origin>  (23) 
adg

>  <m_score__min__energy>  (23) 
-8.2400000000000002

>  <m_primary>  (23) 
energy

$$$$
23:0
     RDKit          3D

 50 52  0  0  0  0  0  0  0  0999 V2000
   -3.2470   25.2990  -30.7920 H   0  0  0  0  0  0  0  0  0  0  0  0
   -4.2130   25.6820  -30.8960 N   0  0  0  0  0  0  0  0  0  0  0  0
   -5.3200   25.0640  -30.2450 C   0  0  0  0  0  0  0  0  0  0  0  0
   -5.8500   25.6320  -29.2540 O   0  0  0  0  0  0  0  0  0  0  0  0
   -5.8080   23.7490  -30.7130 C   0  0  0  0  0  0  0  0  0  0  0  0
   -7.0880   23.5420  -31.2250 C   0  0  0  0  0  0  0  0  0  0  0  0
   -7.9032   24.2769  -31.2985 H   0  0  0  0  0  0  0  0  0  0  0  0
   -7.1160   22.2240  -31.6190 C   0  0  0  0  0  0  0  0  0  0  0  0
   -8.1490   21.4790  -32.1810 C   0  0  0  0  0  0  0  0  0  0  0  0
   -9.1237   21.9381  -32.4028 H   0  0  0  0  0  0  0  0  0  0  0  0
   -7.9080   20.1230  -32.4560 C   0  0  0  0  0  0  0  0  0  0  0  0
   -8.7045   19.5074  -32.8994 H   0  0  0  0  0  0  0  0  0  0  0  0
   -6.6490   19.5400  -32.1680 C   0  0  0  0  0  0  0  0  0  0  0  0
   -6.4210   18.0750  -32.4210 C   0  0  0  0  0  0  0  0  0  0  0  0
   -5.6173   17.7147  -31.7621 H   0  0  0  0  0  0  0  0  0  0  0  0
   -7.3536   17.5292  -32.2152 H   0  0  0  0  0  0  0  0  0  0  0  0
   -6.0200   17.8380  -33.8820 C   0  0  0  0  0  0  0  0  0  0  0  0
   -6.3948   16.8547  -34.2023 H   0  0  0  0  0  0  0  0  0  0  0  0
   -6.4566   18.6379  -34.4980 H   0  0  0  0  0  0  0  0  0  0  0  0
   -4.5260   17.8710  -34.0460 C   0  0  0  0  0  0  0  0  0  0  0  0
   -3.9844   16.9316  -34.2308 H   0  0  0  0  0  0  0  0  0  0  0  0
   -3.8390   19.0200  -33.9720 C   0  0  0  0  0  0  0  0  0  0  0  0
   -4.3855   19.9594  -33.8019 H   0  0  0  0  0  0  0  0  0  0  0  0
   -2.3420   19.0610  -34.1150 C   0  0  0  0  0  0  0  0  0  0  0  0
   -1.8783   18.5811  -33.2406 H   0  0  0  0  0  0  0  0  0  0  0  0
   -2.0496   18.5252  -35.0301 H   0  0  0  0  0  0  0  0  0  0  0  0
   -1.8860   20.4650  -34.2040 N   0  0  0  0  0  0  0  0  0  0  0  0
   -0.4540   20.5580  -34.5500 C   0  0  0  0  0  0  0  0  0  0  0  0
   -0.2539   19.9076  -35.4143 H   0  0  0  0  0  0  0  0  0  0  0  0
   -0.2270   21.6087  -34.7837 H   0  0  0  0  0  0  0  0  0  0  0  0
    0.4530   20.1210  -33.3740 C   0  0  0  0  0  0  0  0  0  0  0  0
    0.8385   19.1128  -33.5861 H   0  0  0  0  0  0  0  0  0  0  0  0
    1.2600   20.8639  -33.2910 H   0  0  0  0  0  0  0  0  0  0  0  0
   -0.2210   20.0920  -32.1280 O   0  0  0  0  0  0  0  0  0  0  0  0
   -1.0110   21.2500  -31.9760 C   0  0  0  0  0  0  0  0  0  0  0  0
   -1.4064   21.2860  -30.9501 H   0  0  0  0  0  0  0  0  0  0  0  0
   -0.3870   22.1339  -32.1741 H   0  0  0  0  0  0  0  0  0  0  0  0
   -2.1880   21.2380  -32.9730 C   0  0  0  0  0  0  0  0  0  0  0  0
   -3.0625   20.7881  -32.4802 H   0  0  0  0  0  0  0  0  0  0  0  0
   -2.3815   22.2787  -33.2723 H   0  0  0  0  0  0  0  0  0  0  0  0
   -5.6280   20.3240  -31.5870 C   0  0  0  0  0  0  0  0  0  0  0  0
   -4.6526   19.8826  -31.3343 H   0  0  0  0  0  0  0  0  0  0  0  0
   -5.8890   21.6770  -31.3410 C   0  0  0  0  0  0  0  0  0  0  0  0
   -5.0750   22.6010  -30.7820 N   0  0  0  0  0  0  0  0  0  0  0  0
   -3.7360   22.3810  -30.3100 C   0  0  0  0  0  0  0  0  0  0  0  0
   -3.4550   21.3160  -29.6980 O   0  0  0  0  0  0  0  0  0  0  0  0
   -2.7260   23.3680  -30.5530 N   0  0  0  0  0  0  0  0  0  0  0  0
   -1.9320   24.0050  -29.5460 C   0  0  0  0  0  0  0  0  0  0  0  0
   -2.0220   25.2440  -29.3350 O   0  0  0  0  0  0  0  0  0  0  0  0
   -1.0510   23.2450  -28.7900 O   0  0  0  0  0  0  0  0  0  0  0  0
  1  2  1  0
  2  3  1  0
  3  4  2  0
  3  5  1  0
  5  6  2  0
  6  7  1  0
  6  8  1  0
  8  9  2  0
  9 10  1  0
  9 11  1  0
 11 12  1  0
 11 13  2  0
 13 14  1  0
 14 15  1  0
 14 16  1  0
 14 17  1  0
 17 18  1  0
 17 19  1  0
 17 20  1  0
 20 21  1  0
 20 22  2  0
 22 23  1  0
 22 24  1  0
 24 25  1  0
 24 26  1  0
 24 27  1  0
 27 28  1  0
 28 29  1  0
 28 30  1  0
 28 31  1  0
 31 32  1  0
 31 33  1  0
 31 34  1  0
 34 35  1  0
 35 36  1  0
 35 37  1  0
 35 38  1  0
 38 39  1  0
 38 40  1  0
 13 41  1  0
 41 42  1  0
 41 43  2  0
 43 44  1  0
 44 45  1  0
 45 46  2  0
 45 47  1  0
 47 48  1  0
 48 49  2  0
 48 50  1  0
 44  5  1  0
 43  8  1  0
 38 27  1  0
M  CHG  3   2  -1  47  -1  50  -1
M  END
>  <UniqueID>  (24) 
24

>  <SMILES>  (24) 
[NH-]C(=O)c1cc2ccc(CC/C=C/CN3CCOCC3)cc2n1C(=O)[N-]C(=O)[O-]

>  <Energy>  (24) 
95.83910696130526

>  <Genealogy>  (24) 
[NH-]C(=O)c1cc2ccc(CCC=CCN3CCOCC3)cc2n1C(=O)[N-]C(=O)[O-] (protonated)
[NH-]C(=O)c1cc2ccc(CC/C=C/CN3CCOCC3)cc2n1C(=O)[N-]C(=O)[O-] (cis-trans isomerization)
[NH-]C(=O)c1cc2ccc(CC/C=C/CN3CCOCC3)cc2n1C(=O)[N-]C(=O)[O-] (3D coordinates assigned)
[NH-]C(=O)c1cc2ccc(CC/C=C/CN3CCOCC3)cc2n1C(=O)[N-]C(=O)[O-] (nonaromatic ring conformer: 95.83910696130526 kcal/mol)

>  <smiles>  (24) 
NC(=O)c1cc2ccc(CCC=CCN3CCOCC3)cc2n1C(=O)NC(=O)O

>  <score_type>  (24) 
oracle

>  <origin>  (24) 
adg

>  <m_score__min__energy>  (24) 
-12.99

>  <m_primary>  (24) 
energy

$$$$
24:0
     RDKit          3D

 47 49  0  0  0  0  0  0  0  0999 V2000
   -7.1640   14.8730  -34.2580 C   0  0  0  0  0  0  0  0  0  0  0  0
   -6.5460   16.2170  -34.0770 C   0  0  0  0  0  0  0  0  0  0  0  0
   -5.3290   16.5470  -34.5550 N   0  0  0  0  0  0  0  0  0  0  0  0
   -5.1830   17.8320  -34.1770 C   0  0  0  0  0  0  0  0  0  0  0  0
   -6.3150   18.2300  -33.4920 C   0  0  0  0  0  0  0  0  0  0  0  0
   -6.5960   19.5550  -32.8940 C   0  0  0  0  0  0  0  0  0  0  0  0
   -7.9200   20.0640  -32.8310 C   0  0  0  0  0  0  0  0  0  0  0  0
   -8.1760   21.3320  -32.2830 C   0  0  0  0  0  0  0  0  0  0  0  0
   -7.0990   22.0630  -31.7950 C   0  0  0  0  0  0  0  0  0  0  0  0
   -7.0660   23.3230  -31.2430 C   0  0  0  0  0  0  0  0  0  0  0  0
   -5.7270   23.5550  -30.9420 C   0  0  0  0  0  0  0  0  0  0  0  0
   -5.2480   24.7780  -30.2670 C   0  0  0  0  0  0  0  0  0  0  0  0
   -5.7870   25.1900  -29.0110 N   0  0  0  0  0  0  0  0  0  0  0  0
   -4.3890   25.5020  -30.8370 O   0  0  0  0  0  0  0  0  0  0  0  0
   -4.9590   22.4890  -31.3040 N   0  0  0  0  0  0  0  0  0  0  0  0
   -3.5290   22.3810  -31.2420 C   0  0  0  0  0  0  0  0  0  0  0  0
   -2.8180   23.4220  -31.1930 O   0  0  0  0  0  0  0  0  0  0  0  0
   -2.9280   21.1200  -31.2360 O   0  0  0  0  0  0  0  0  0  0  0  0
   -1.7070   20.8410  -31.9090 C   0  0  0  0  0  0  0  0  0  0  0  0
   -1.8760   21.1450  -33.3580 C   0  0  0  0  0  0  0  0  0  0  0  0
   -2.9280   20.7880  -33.9550 O   0  0  0  0  0  0  0  0  0  0  0  0
   -0.8860   21.8770  -34.0220 O   0  0  0  0  0  0  0  0  0  0  0  0
   -0.0290   21.3220  -35.0180 C   0  0  0  0  0  0  0  0  0  0  0  0
    1.0060   20.4320  -34.3350 C   0  0  0  0  0  0  0  0  0  0  0  0
    0.6590   22.4430  -35.8030 C   0  0  0  0  0  0  0  0  0  0  0  0
   -5.8160   21.5810  -31.8240 C   0  0  0  0  0  0  0  0  0  0  0  0
   -5.5280   20.3310  -32.3880 C   0  0  0  0  0  0  0  0  0  0  0  0
   -7.1370   17.2100  -33.4510 O   0  0  0  0  0  0  0  0  0  0  0  0
   -7.3687   14.4279  -33.2731 H   0  0  0  0  0  0  0  0  0  0  0  0
   -8.1058   14.9748  -34.8172 H   0  0  0  0  0  0  0  0  0  0  0  0
   -6.4737   14.2243  -34.8172 H   0  0  0  0  0  0  0  0  0  0  0  0
   -4.3047   18.4622  -34.3808 H   0  0  0  0  0  0  0  0  0  0  0  0
   -8.7543   19.4589  -33.2154 H   0  0  0  0  0  0  0  0  0  0  0  0
   -9.1988   21.7346  -32.2413 H   0  0  0  0  0  0  0  0  0  0  0  0
   -7.9156   24.0014  -31.0755 H   0  0  0  0  0  0  0  0  0  0  0  0
   -5.4070   26.0350  -28.5300 H   0  0  0  0  0  0  0  0  0  0  0  0
   -6.6160   24.7110  -28.5960 H   0  0  0  0  0  0  0  0  0  0  0  0
   -0.9038   21.4659  -31.4915 H   0  0  0  0  0  0  0  0  0  0  0  0
   -1.4422   19.7814  -31.7782 H   0  0  0  0  0  0  0  0  0  0  0  0
   -0.6177   20.7205  -35.7262 H   0  0  0  0  0  0  0  0  0  0  0  0
    0.9028   20.5208  -33.2435 H   0  0  0  0  0  0  0  0  0  0  0  0
    0.8450   19.3859  -34.6347 H   0  0  0  0  0  0  0  0  0  0  0  0
    2.0161   20.7479  -34.6347 H   0  0  0  0  0  0  0  0  0  0  0  0
    1.1017   23.1643  -35.1004 H   0  0  0  0  0  0  0  0  0  0  0  0
    1.4502   22.0151  -36.4362 H   0  0  0  0  0  0  0  0  0  0  0  0
   -0.0808   22.9547  -36.4362 H   0  0  0  0  0  0  0  0  0  0  0  0
   -4.4931   19.9614  -32.4360 H   0  0  0  0  0  0  0  0  0  0  0  0
  1  2  1  0
  2  3  2  0
  3  4  1  0
  4  5  2  0
  5  6  1  0
  6  7  2  0
  7  8  1  0
  8  9  2  0
  9 10  1  0
 10 11  2  0
 11 12  1  0
 12 13  1  0
 12 14  2  0
 11 15  1  0
 15 16  1  0
 16 17  2  0
 16 18  1  0
 18 19  1  0
 19 20  1  0
 20 21  2  0
 20 22  1  0
 22 23  1  0
 23 24  1  0
 23 25  1  0
 15 26  1  0
 26 27  2  0
  5 28  1  0
 28  2  1  0
 27  6  1  0
 26  9  1  0
  1 29  1  0
  1 30  1  0
  1 31  1  0
  4 32  1  0
  7 33  1  0
  8 34  1  0
 10 35  1  0
 13 36  1  0
 13 37  1  0
 19 38  1  0
 19 39  1  0
 23 40  1  0
 24 41  1  0
 24 42  1  0
 24 43  1  0
 25 44  1  0
 25 45  1  0
 25 46  1  0
 27 47  1  0
M  END
>  <UniqueID>  (25) 
25

>  <SMILES>  (25) 
Cc1ncc(-c2ccc3cc(C(N)=O)n(C(=O)OCC(=O)OC(C)C)c3c2)o1

>  <Energy>  (25) 
105.63106517182504

>  <Genealogy>  (25) 
Cc1ncc(-c2ccc3cc(C(N)=O)n(C(=O)OCC(=O)OC(C)C)c3c2)o1 (3D coordinates assigned)
Cc1ncc(-c2ccc3cc(C(N)=O)n(C(=O)OCC(=O)OC(C)C)c3c2)o1 (optimized conformer: 105.63106517182504 kcal/mol)

>  <smiles>  (25) 
Cc1ncc(-c2ccc3cc(C(N)=O)n(C(=O)OCC(=O)OC(C)C)c3c2)o1

>  <score_type>  (25) 
oracle

>  <origin>  (25) 
adg

>  <m_score__min__energy>  (25) 
-9.8699999999999992

>  <m_primary>  (25) 
energy

$$$$
25:0
     RDKit          3D

 37 39  0  0  0  0  0  0  0  0999 V2000
   -6.1330   25.7280  -29.0450 N   0  0  0  0  0  0  0  0  0  0  0  0
   -5.5620   25.0920  -30.1880 C   0  0  0  0  0  0  0  0  0  0  0  0
   -4.6450   25.6700  -30.8300 O   0  0  0  0  0  0  0  0  0  0  0  0
   -6.0820   23.8030  -30.6680 C   0  0  0  0  0  0  0  0  0  0  0  0
   -7.4160   23.5970  -30.9990 C   0  0  0  0  0  0  0  0  0  0  0  0
   -7.4780   22.3030  -31.4600 C   0  0  0  0  0  0  0  0  0  0  0  0
   -8.5690   21.5660  -31.9080 C   0  0  0  0  0  0  0  0  0  0  0  0
   -8.3470   20.2410  -32.3170 C   0  0  0  0  0  0  0  0  0  0  0  0
   -7.0440   19.6810  -32.2850 C   0  0  0  0  0  0  0  0  0  0  0  0
   -6.8290   18.2380  -32.6680 C   0  0  0  0  0  0  0  0  0  0  0  0
   -6.5020   18.1690  -34.0100 F   0  0  0  0  0  0  0  0  0  0  0  0
   -5.8030   17.6820  -31.9250 F   0  0  0  0  0  0  0  0  0  0  0  0
   -7.9770   17.4970  -32.4440 F   0  0  0  0  0  0  0  0  0  0  0  0
   -5.9640   20.4570  -31.8020 C   0  0  0  0  0  0  0  0  0  0  0  0
   -6.2110   21.7780  -31.4130 C   0  0  0  0  0  0  0  0  0  0  0  0
   -5.3370   22.6930  -30.9300 N   0  0  0  0  0  0  0  0  0  0  0  0
   -3.9020   22.5690  -30.8650 C   0  0  0  0  0  0  0  0  0  0  0  0
   -3.1870   23.0300  -31.7950 O   0  0  0  0  0  0  0  0  0  0  0  0
   -3.2830   21.9340  -29.7430 N   0  0  0  0  0  0  0  0  0  0  0  0
   -2.2060   22.5270  -28.9610 C   0  0  0  0  0  0  0  0  0  0  0  0
   -2.5530   23.9780  -28.6050 C   0  0  0  0  0  0  0  0  0  0  0  0
   -2.5070   24.9440  -29.6170 O   0  0  0  0  0  0  0  0  0  0  0  0
   -3.6780   24.1890  -27.6070 C   0  0  0  0  0  0  0  0  0  0  0  0
   -2.2350   24.4890  -27.2090 C   0  0  0  0  0  0  0  0  0  0  0  0
   -5.7480   26.6350  -28.6990 H   0  0  0  0  0  0  0  0  0  0  0  0
   -6.9610   25.3120  -28.5630 H   0  0  0  0  0  0  0  0  0  0  0  0
   -8.2446   24.3151  -30.9111 H   0  0  0  0  0  0  0  0  0  0  0  0
   -9.5758   22.0078  -31.9410 H   0  0  0  0  0  0  0  0  0  0  0  0
   -9.1929   19.6306  -32.6661 H   0  0  0  0  0  0  0  0  0  0  0  0
   -4.9522   20.0309  -31.7338 H   0  0  0  0  0  0  0  0  0  0  0  0
   -2.0664   21.9484  -28.0359 H   0  0  0  0  0  0  0  0  0  0  0  0
   -1.2795   22.5125  -29.5537 H   0  0  0  0  0  0  0  0  0  0  0  0
   -2.8730   24.4990  -30.4250 H   0  0  0  0  0  0  0  0  0  0  0  0
   -4.3924   25.0133  -27.7492 H   0  0  0  0  0  0  0  0  0  0  0  0
   -4.4839   23.5617  -27.1983 H   0  0  0  0  0  0  0  0  0  0  0  0
   -1.9086   25.5295  -27.0646 H   0  0  0  0  0  0  0  0  0  0  0  0
   -1.5686   24.1679  -26.3949 H   0  0  0  0  0  0  0  0  0  0  0  0
  1  2  1  0
  2  3  2  0
  2  4  1  0
  4  5  2  0
  5  6  1  0
  6  7  2  0
  7  8  1  0
  8  9  2  0
  9 10  1  0
 10 11  1  0
 10 12  1  0
 10 13  1  0
  9 14  1  0
 14 15  2  0
 15 16  1  0
 16 17  1  0
 17 18  2  0
 17 19  1  0
 19 20  1  0
 20 21  1  0
 21 22  1  0
 21 23  1  0
 23 24  1  0
 16  4  1  0
 24 21  1  0
 15  6  1  0
  1 25  1  0
  1 26  1  0
  5 27  1  0
  7 28  1  0
  8 29  1  0
 14 30  1  0
 20 31  1  0
 20 32  1  0
 22 33  1  0
 23 34  1  0
 23 35  1  0
 24 36  1  0
 24 37  1  0
M  CHG  1  19  -1
M  END
>  <UniqueID>  (26) 
26

>  <SMILES>  (26) 
NC(=O)c1cc2ccc(C(F)(F)F)cc2n1C(=O)[N-]CC1(O)CC1

>  <Energy>  (26) 
346.13982472369014

>  <Genealogy>  (26) 
NC(=O)c1cc2ccc(C(F)(F)F)cc2n1C(=O)[N-]CC1(O)CC1 (protonated)
NC(=O)c1cc2ccc(C(F)(F)F)cc2n1C(=O)[N-]CC1(O)CC1 (3D coordinates assigned)
NC(=O)c1cc2ccc(C(F)(F)F)cc2n1C(=O)[N-]CC1(O)CC1 (nonaromatic ring conformer: 346.13982472369014 kcal/mol)

>  <smiles>  (26) 
NC(=O)c1cc2ccc(C(F)(F)F)cc2n1C(=O)NCC1(O)CC1

>  <score_type>  (26) 
oracle

>  <origin>  (26) 
adg

>  <m_score__min__energy>  (26) 
-9.6999999999999993

>  <m_primary>  (26) 
energy

$$$$
26:0
     RDKit          3D

 44 47  0  0  0  0  0  0  0  0999 V2000
   -3.7740   15.7510  -34.9580 C   0  0  0  0  0  0  0  0  0  0  0  0
   -4.8460   16.5220  -34.3350 N   0  0  0  0  0  0  0  0  0  0  0  0
   -4.7580   17.8150  -33.9650 C   0  0  0  0  0  0  0  0  0  0  0  0
   -5.9560   18.2310  -33.4010 C   0  0  0  0  0  0  0  0  0  0  0  0
   -6.2630   19.5810  -32.8660 C   0  0  0  0  0  0  0  0  0  0  0  0
   -7.5970   20.0710  -32.8640 C   0  0  0  0  0  0  0  0  0  0  0  0
   -7.8970   21.3460  -32.3550 C   0  0  0  0  0  0  0  0  0  0  0  0
   -6.8510   22.1100  -31.8490 C   0  0  0  0  0  0  0  0  0  0  0  0
   -6.8550   23.3780  -31.3140 C   0  0  0  0  0  0  0  0  0  0  0  0
   -5.5270   23.6430  -30.9820 C   0  0  0  0  0  0  0  0  0  0  0  0
   -5.0730   24.8890  -30.3300 C   0  0  0  0  0  0  0  0  0  0  0  0
   -3.9330   25.5800  -30.8330 N   0  0  0  0  0  0  0  0  0  0  0  0
   -5.6930   25.3610  -29.3410 O   0  0  0  0  0  0  0  0  0  0  0  0
   -4.7370   22.5790  -31.2970 N   0  0  0  0  0  0  0  0  0  0  0  0
   -3.3090   22.4760  -31.1680 C   0  0  0  0  0  0  0  0  0  0  0  0
   -2.7070   23.2560  -30.3820 O   0  0  0  0  0  0  0  0  0  0  0  0
   -2.5390   21.4810  -31.9520 C   0  0  0  0  0  0  0  0  0  0  0  0
   -1.8180   20.4650  -31.2990 C   0  0  0  0  0  0  0  0  0  0  0  0
   -1.0830   19.5310  -32.0370 C   0  0  0  0  0  0  0  0  0  0  0  0
   -1.0650   19.5990  -33.4320 C   0  0  0  0  0  0  0  0  0  0  0  0
   -1.7850   20.5970  -34.0920 C   0  0  0  0  0  0  0  0  0  0  0  0
   -2.5210   21.5320  -33.3580 C   0  0  0  0  0  0  0  0  0  0  0  0
   -5.5610   21.6520  -31.8310 C   0  0  0  0  0  0  0  0  0  0  0  0
   -5.2280   20.3950  -32.3470 C   0  0  0  0  0  0  0  0  0  0  0  0
   -6.8080   17.1370  -33.4310 C   0  0  0  0  0  0  0  0  0  0  0  0
   -6.0940   16.1070  -34.0130 C   0  0  0  0  0  0  0  0  0  0  0  0
   -6.6170   14.7880  -34.2380 N   0  0  0  0  0  0  0  0  0  0  0  0
   -7.6040   14.6010  -34.9770 O   0  0  0  0  0  0  0  0  0  0  0  0
   -6.0240   13.7040  -33.6320 O   0  0  0  0  0  0  0  0  0  0  0  0
   -3.1455   15.2990  -34.1765 H   0  0  0  0  0  0  0  0  0  0  0  0
   -4.2088   14.9574  -35.5834 H   0  0  0  0  0  0  0  0  0  0  0  0
   -3.1600   16.4157  -35.5834 H   0  0  0  0  0  0  0  0  0  0  0  0
   -3.8672   18.4479  -34.0915 H   0  0  0  0  0  0  0  0  0  0  0  0
   -8.4059   19.4435  -33.2665 H   0  0  0  0  0  0  0  0  0  0  0  0
   -8.9284   21.7283  -32.3568 H   0  0  0  0  0  0  0  0  0  0  0  0
   -7.7217   24.0414  -31.1774 H   0  0  0  0  0  0  0  0  0  0  0  0
   -2.9670   25.2960  -30.5570 H   0  0  0  0  0  0  0  0  0  0  0  0
   -1.8322   20.4044  -30.2008 H   0  0  0  0  0  0  0  0  0  0  0  0
   -0.5186   18.7422  -31.5181 H   0  0  0  0  0  0  0  0  0  0  0  0
   -0.4836   18.8663  -34.0108 H   0  0  0  0  0  0  0  0  0  0  0  0
   -1.7731   20.6476  -35.1908 H   0  0  0  0  0  0  0  0  0  0  0  0
   -3.0901   22.3131  -33.8834 H   0  0  0  0  0  0  0  0  0  0  0  0
   -4.1845   20.0469  -32.3493 H   0  0  0  0  0  0  0  0  0  0  0  0
   -7.8445   17.0972  -33.0648 H   0  0  0  0  0  0  0  0  0  0  0  0
  1  2  1  0
  2  3  1  0
  3  4  2  0
  4  5  1  0
  5  6  2  0
  6  7  1  0
  7  8  2  0
  8  9  1  0
  9 10  2  0
 10 11  1  0
 11 12  1  0
 11 13  2  0
 10 14  1  0
 14 15  1  0
 15 16  2  0
 15 17  1  0
 17 18  2  0
 18 19  1  0
 19 20  2  0
 20 21  1  0
 21 22  2  0
 14 23  1  0
 23 24  2  0
  4 25  1  0
 25 26  2  0
 26 27  1  0
 27 28  2  0
 27 29  1  0
 26  2  1  0
 24  5  1  0
 23  8  1  0
 22 17  1  0
  1 30  1  0
  1 31  1  0
  1 32  1  0
  3 33  1  0
  6 34  1  0
  7 35  1  0
  9 36  1  0
 12 37  1  0
 18 38  1  0
 19 39  1  0
 20 40  1  0
 21 41  1  0
 22 42  1  0
 24 43  1  0
 25 44  1  0
M  CHG  3  12  -1  27   1  29  -1
M  END
>  <UniqueID>  (27) 
27

>  <SMILES>  (27) 
Cn1cc(-c2ccc3cc(C([NH-])=O)n(C(=O)c4ccccc4)c3c2)cc1[N+](=O)[O-]

>  <Energy>  (27) 
118.42935963910037

>  <Genealogy>  (27) 
Cn1cc(-c2ccc3cc(C([NH-])=O)n(C(=O)c4ccccc4)c3c2)cc1[N+](=O)[O-] (protonated)
Cn1cc(-c2ccc3cc(C([NH-])=O)n(C(=O)c4ccccc4)c3c2)cc1[N+](=O)[O-] (3D coordinates assigned)
Cn1cc(-c2ccc3cc(C([NH-])=O)n(C(=O)c4ccccc4)c3c2)cc1[N+](=O)[O-] (optimized conformer: 118.42935963910037 kcal/mol)

>  <smiles>  (27) 
Cn1cc(-c2ccc3cc(C(N)=O)n(C(=O)c4ccccc4)c3c2)cc1[N+](=O)[O-]

>  <score_type>  (27) 
oracle

>  <origin>  (27) 
adg

>  <m_score__min__energy>  (27) 
-11.67

>  <m_primary>  (27) 
energy

$$$$
27:0
     RDKit          3D

 34 36  0  0  0  0  0  0  0  0999 V2000
   -7.6520   23.3390  -31.7250 C   0  0  0  0  0  0  0  0  0  0  0  0
   -7.2300   22.3990  -32.7060 O   0  0  0  0  0  0  0  0  0  0  0  0
   -7.2960   21.0180  -32.5040 C   0  0  0  0  0  0  0  0  0  0  0  0
   -8.3650   20.4750  -32.1100 O   0  0  0  0  0  0  0  0  0  0  0  0
   -6.0730   20.1850  -32.7120 C   0  0  0  0  0  0  0  0  0  0  0  0
   -4.7790   20.6500  -32.1020 C   0  0  0  0  0  0  0  0  0  0  0  0
   -3.6760   19.7650  -32.0190 C   0  0  0  0  0  0  0  0  0  0  0  0
   -2.4790   20.1720  -31.4060 C   0  0  0  0  0  0  0  0  0  0  0  0
   -2.4180   21.4590  -30.8820 C   0  0  0  0  0  0  0  0  0  0  0  0
   -1.4000   22.0940  -30.2100 C   0  0  0  0  0  0  0  0  0  0  0  0
   -1.8940   23.3590  -29.8980 C   0  0  0  0  0  0  0  0  0  0  0  0
   -1.0840   24.4060  -29.2410 C   0  0  0  0  0  0  0  0  0  0  0  0
   -1.6320   25.6930  -28.9650 N   0  0  0  0  0  0  0  0  0  0  0  0
    0.1230   24.1790  -28.9640 O   0  0  0  0  0  0  0  0  0  0  0  0
   -3.1730   23.4990  -30.3510 N   0  0  0  0  0  0  0  0  0  0  0  0
   -4.0620   24.6110  -30.1590 C   0  0  0  0  0  0  0  0  0  0  0  0
   -3.8990   25.6750  -30.8110 O   0  0  0  0  0  0  0  0  0  0  0  0
   -5.0940   24.5310  -29.2320 O   0  0  0  0  0  0  0  0  0  0  0  0
   -3.4780   22.3280  -30.9550 C   0  0  0  0  0  0  0  0  0  0  0  0
   -4.6890   21.9430  -31.5430 C   0  0  0  0  0  0  0  0  0  0  0  0
   -5.9720   19.4810  -34.0600 C   0  0  0  0  0  0  0  0  0  0  0  0
   -6.2870   18.6780  -32.8070 C   0  0  0  0  0  0  0  0  0  0  0  0
   -7.4679   22.9289  -30.7211 H   0  0  0  0  0  0  0  0  0  0  0  0
   -7.0878   24.2753  -31.8477 H   0  0  0  0  0  0  0  0  0  0  0  0
   -8.7266   23.5396  -31.8477 H   0  0  0  0  0  0  0  0  0  0  0  0
   -3.7573   18.7511  -32.4378 H   0  0  0  0  0  0  0  0  0  0  0  0
   -1.6159   19.4931  -31.3424 H   0  0  0  0  0  0  0  0  0  0  0  0
   -0.4059   21.6890  -29.9696 H   0  0  0  0  0  0  0  0  0  0  0  0
   -2.6610   25.8590  -29.0100 H   0  0  0  0  0  0  0  0  0  0  0  0
   -5.5476   22.6301  -31.5686 H   0  0  0  0  0  0  0  0  0  0  0  0
   -6.7496   19.6384  -34.8220 H   0  0  0  0  0  0  0  0  0  0  0  0
   -5.2092   19.4210  -34.8502 H   0  0  0  0  0  0  0  0  0  0  0  0
   -7.2922   18.2552  -32.6631 H   0  0  0  0  0  0  0  0  0  0  0  0
   -5.8463   17.7976  -32.3164 H   0  0  0  0  0  0  0  0  0  0  0  0
  1  2  1  0
  2  3  1  0
  3  4  2  0
  3  5  1  0
  5  6  1  0
  6  7  2  0
  7  8  1  0
  8  9  2  0
  9 10  1  0
 10 11  2  0
 11 12  1  0
 12 13  1  0
 12 14  2  0
 11 15  1  0
 15 16  1  0
 16 17  2  0
 16 18  1  0
 15 19  1  0
 19 20  2  0
  5 21  1  0
 21 22  1  0
 22  5  1  0
 20  6  1  0
 19  9  1  0
  1 23  1  0
  1 24  1  0
  1 25  1  0
  7 26  1  0
  8 27  1  0
 10 28  1  0
 13 29  1  0
 20 30  1  0
 21 31  1  0
 21 32  1  0
 22 33  1  0
 22 34  1  0
M  CHG  2  13  -1  18  -1
M  END
>  <UniqueID>  (28) 
28

>  <SMILES>  (28) 
COC(=O)C1(c2ccc3cc(C([NH-])=O)n(C(=O)[O-])c3c2)CC1

>  <Energy>  (28) 
338.0363692300499

>  <Genealogy>  (28) 
COC(=O)C1(c2ccc3cc(C([NH-])=O)n(C(=O)[O-])c3c2)CC1 (protonated)
COC(=O)C1(c2ccc3cc(C([NH-])=O)n(C(=O)[O-])c3c2)CC1 (3D coordinates assigned)
COC(=O)C1(c2ccc3cc(C([NH-])=O)n(C(=O)[O-])c3c2)CC1 (nonaromatic ring conformer: 338.0363692300499 kcal/mol)

>  <smiles>  (28) 
COC(=O)C1(c2ccc3cc(C(N)=O)n(C(=O)O)c3c2)CC1

>  <score_type>  (28) 
oracle

>  <origin>  (28) 
adg

>  <m_score__min__energy>  (28) 
-11.119999999999999

>  <m_primary>  (28) 
energy

$$$$
28:0
     RDKit          3D

 44 45  0  0  0  0  0  0  0  0999 V2000
   -5.6930   18.3810  -34.6390 C   0  0  0  0  0  0  0  0  0  0  0  0
   -5.7560   17.3340  -33.6060 N   0  0  0  0  0  0  0  0  0  0  0  0
   -6.4840   16.1660  -34.1340 C   0  0  0  0  0  0  0  0  0  0  0  0
   -6.4070   17.8590  -32.3840 C   0  0  0  0  0  0  0  0  0  0  0  0
   -7.7290   18.5670  -32.7130 C   0  0  0  0  0  0  0  0  0  0  0  0
   -7.7030   20.0100  -32.2810 C   0  0  0  0  0  0  0  0  0  0  0  0
   -8.9150   20.7180  -32.0960 C   0  0  0  0  0  0  0  0  0  0  0  0
   -8.9040   22.0590  -31.6740 C   0  0  0  0  0  0  0  0  0  0  0  0
   -7.6700   22.6560  -31.4320 C   0  0  0  0  0  0  0  0  0  0  0  0
   -7.3700   23.9400  -31.0400 C   0  0  0  0  0  0  0  0  0  0  0  0
   -5.9800   23.9870  -30.9590 C   0  0  0  0  0  0  0  0  0  0  0  0
   -5.2280   25.1720  -30.4970 C   0  0  0  0  0  0  0  0  0  0  0  0
   -3.8810   25.3690  -30.9240 N   0  0  0  0  0  0  0  0  0  0  0  0
   -5.7710   26.0330  -29.7560 O   0  0  0  0  0  0  0  0  0  0  0  0
   -5.4410   22.7790  -31.2910 N   0  0  0  0  0  0  0  0  0  0  0  0
   -4.0520   22.4280  -31.3820 C   0  0  0  0  0  0  0  0  0  0  0  0
   -3.5140   22.2720  -32.5110 O   0  0  0  0  0  0  0  0  0  0  0  0
   -3.2860   22.2380  -30.1890 N   0  0  0  0  0  0  0  0  0  0  0  0
   -1.9860   22.8620  -29.9770 C   0  0  0  0  0  0  0  0  0  0  0  0
   -1.9730   23.6180  -28.6500 C   0  0  0  0  0  0  0  0  0  0  0  0
   -1.0520   24.7970  -28.7040 C   0  0  0  0  0  0  0  0  0  0  0  0
    0.1880   24.6410  -28.5500 O   0  0  0  0  0  0  0  0  0  0  0  0
   -1.5580   26.0650  -28.9620 O   0  0  0  0  0  0  0  0  0  0  0  0
   -6.4890   21.9750  -31.5770 C   0  0  0  0  0  0  0  0  0  0  0  0
   -6.4700   20.6450  -32.0140 C   0  0  0  0  0  0  0  0  0  0  0  0
   -5.6336   19.3682  -34.1574 H   0  0  0  0  0  0  0  0  0  0  0  0
   -4.8026   18.2246  -35.2657 H   0  0  0  0  0  0  0  0  0  0  0  0
   -6.5957   18.3325  -35.2657 H   0  0  0  0  0  0  0  0  0  0  0  0
   -6.8616   15.5602  -33.2970 H   0  0  0  0  0  0  0  0  0  0  0  0
   -7.3290   16.5082  -34.7495 H   0  0  0  0  0  0  0  0  0  0  0  0
   -5.8046   15.5580  -34.7495 H   0  0  0  0  0  0  0  0  0  0  0  0
   -6.6099   17.0225  -31.6991 H   0  0  0  0  0  0  0  0  0  0  0  0
   -5.7298   18.5899  -31.9180 H   0  0  0  0  0  0  0  0  0  0  0  0
   -7.8985   18.5217  -33.7989 H   0  0  0  0  0  0  0  0  0  0  0  0
   -8.5386   18.0578  -32.1696 H   0  0  0  0  0  0  0  0  0  0  0  0
   -9.8745   20.2140  -32.2843 H   0  0  0  0  0  0  0  0  0  0  0  0
   -9.8412   22.6189  -31.5393 H   0  0  0  0  0  0  0  0  0  0  0  0
   -8.0777   24.7566  -30.8341 H   0  0  0  0  0  0  0  0  0  0  0  0
   -3.0890   25.3060  -30.2460 H   0  0  0  0  0  0  0  0  0  0  0  0
   -1.2083   22.0842  -29.9595 H   0  0  0  0  0  0  0  0  0  0  0  0
   -1.7907   23.5707  -30.7953 H   0  0  0  0  0  0  0  0  0  0  0  0
   -2.9915   23.9690  -28.4277 H   0  0  0  0  0  0  0  0  0  0  0  0
   -1.6164   22.9349  -27.8650 H   0  0  0  0  0  0  0  0  0  0  0  0
   -5.5190   20.1083  -32.1460 H   0  0  0  0  0  0  0  0  0  0  0  0
  1  2  1  0
  2  3  1  0
  2  4  1  0
  4  5  1  0
  5  6  1  0
  6  7  2  0
  7  8  1  0
  8  9  2  0
  9 10  1  0
 10 11  2  0
 11 12  1  0
 12 13  1  0
 12 14  2  0
 11 15  1  0
 15 16  1  0
 16 17  2  0
 16 18  1  0
 18 19  1  0
 19 20  1  0
 20 21  1  0
 21 22  2  0
 21 23  1  0
 15 24  1  0
 24 25  2  0
 25  6  1  0
 24  9  1  0
  1 26  1  0
  1 27  1  0
  1 28  1  0
  3 29  1  0
  3 30  1  0
  3 31  1  0
  4 32  1  0
  4 33  1  0
  5 34  1  0
  5 35  1  0
  7 36  1  0
  8 37  1  0
 10 38  1  0
 13 39  1  0
 19 40  1  0
 19 41  1  0
 20 42  1  0
 20 43  1  0
 25 44  1  0
M  CHG  3  13  -1  18  -1  23  -1
M  END
>  <UniqueID>  (29) 
29

>  <SMILES>  (29) 
CN(C)CCc1ccc2cc(C([NH-])=O)n(C(=O)[N-]CCC(=O)[O-])c2c1

>  <Energy>  (29) 
74.29018046676505

>  <Genealogy>  (29) 
CN(C)CCc1ccc2cc(C([NH-])=O)n(C(=O)[N-]CCC(=O)[O-])c2c1 (protonated)
CN(C)CCc1ccc2cc(C([NH-])=O)n(C(=O)[N-]CCC(=O)[O-])c2c1 (3D coordinates assigned)
CN(C)CCc1ccc2cc(C([NH-])=O)n(C(=O)[N-]CCC(=O)[O-])c2c1 (optimized conformer: 74.29018046676505 kcal/mol)

>  <smiles>  (29) 
CN(C)CCc1ccc2cc(C(N)=O)n(C(=O)NCCC(=O)O)c2c1

>  <score_type>  (29) 
oracle

>  <origin>  (29) 
adg

>  <m_score__min__energy>  (29) 
-13.34

>  <m_primary>  (29) 
energy

$$$$
29:0
     RDKit          3D

 34 35  0  0  0  0  0  0  0  0999 V2000
   -5.0510   17.2540  -34.5120 C   0  0  0  0  0  0  0  0  0  0  0  0
   -6.1270   18.3070  -34.2300 C   0  0  0  0  0  0  0  0  0  0  0  0
   -6.5980   18.3780  -32.7570 C   0  0  1  0  0  0  0  0  0  0  0  0
   -5.7270   17.5410  -31.7940 C   0  0  0  0  0  0  0  0  0  0  0  0
   -6.4860   17.0880  -30.7050 O   0  0  0  0  0  0  0  0  0  0  0  0
   -6.7860   19.8150  -32.2900 C   0  0  0  0  0  0  0  0  0  0  0  0
   -8.0910   20.3750  -32.2860 C   0  0  0  0  0  0  0  0  0  0  0  0
   -8.3050   21.7040  -31.8850 C   0  0  0  0  0  0  0  0  0  0  0  0
   -7.2000   22.4580  -31.5070 C   0  0  0  0  0  0  0  0  0  0  0  0
   -7.1220   23.7620  -31.0710 C   0  0  0  0  0  0  0  0  0  0  0  0
   -5.7670   23.9940  -30.8450 C   0  0  0  0  0  0  0  0  0  0  0  0
   -5.2160   25.3080  -30.4560 C   0  0  0  0  0  0  0  0  0  0  0  0
   -3.8950   25.6700  -30.8530 N   0  0  0  0  0  0  0  0  0  0  0  0
   -5.8880   26.1020  -29.7470 O   0  0  0  0  0  0  0  0  0  0  0  0
   -5.0390   22.8760  -31.1230 N   0  0  0  0  0  0  0  0  0  0  0  0
   -3.6270   22.6750  -30.9600 C   0  0  0  0  0  0  0  0  0  0  0  0
   -3.0300   23.1740  -29.9690 O   0  0  0  0  0  0  0  0  0  0  0  0
   -2.6780   21.7840  -32.2070 S   0  0  0  0  0  0  0  0  0  0  0  0
   -5.9300   21.9470  -31.5300 C   0  0  0  0  0  0  0  0  0  0  0  0
   -5.6860   20.6240  -31.9100 C   0  0  0  0  0  0  0  0  0  0  0  0
   -4.6570   16.8684  -33.5601 H   0  0  0  0  0  0  0  0  0  0  0  0
   -5.4898   16.4268  -35.0892 H   0  0  0  0  0  0  0  0  0  0  0  0
   -4.2335   17.7106  -35.0892 H   0  0  0  0  0  0  0  0  0  0  0  0
   -5.7228   19.2917  -34.5075 H   0  0  0  0  0  0  0  0  0  0  0  0
   -7.0071   18.0156  -34.8220 H   0  0  0  0  0  0  0  0  0  0  0  0
   -7.5900   17.9036  -32.7285 H   0  0  0  0  0  0  0  0  0  0  0  0
   -5.3203   16.6744  -32.3359 H   0  0  0  0  0  0  0  0  0  0  0  0
   -4.9099   18.1733  -31.4166 H   0  0  0  0  0  0  0  0  0  0  0  0
   -5.8930   16.5020  -30.1660 H   0  0  0  0  0  0  0  0  0  0  0  0
   -8.9463   19.7593  -32.6014 H   0  0  0  0  0  0  0  0  0  0  0  0
   -9.3168   22.1353  -31.8705 H   0  0  0  0  0  0  0  0  0  0  0  0
   -7.9525   24.4696  -30.9310 H   0  0  0  0  0  0  0  0  0  0  0  0
   -3.0620   25.2970  -30.3460 H   0  0  0  0  0  0  0  0  0  0  0  0
   -4.6630   20.2198  -31.9140 H   0  0  0  0  0  0  0  0  0  0  0  0
  1  2  1  0
  2  3  1  0
  3  4  1  0
  4  5  1  0
  3  6  1  0
  6  7  2  0
  7  8  1  0
  8  9  2  0
  9 10  1  0
 10 11  2  0
 11 12  1  0
 12 13  1  0
 12 14  2  0
 11 15  1  0
 15 16  1  0
 16 17  2  0
 16 18  1  0
 15 19  1  0
 19 20  2  0
 20  6  1  0
 19  9  1  0
  1 21  1  0
  1 22  1  0
  1 23  1  0
  2 24  1  0
  2 25  1  0
  3 26  1  6
  4 27  1  0
  4 28  1  0
  5 29  1  0
  7 30  1  0
  8 31  1  0
 10 32  1  0
 13 33  1  0
 20 34  1  0
M  CHG  2  13  -1  18  -1
M  END
>  <UniqueID>  (30) 
30

>  <SMILES>  (30) 
CC[C@@H](CO)c1ccc2cc(C([NH-])=O)n(C(=O)[S-])c2c1

>  <Energy>  (30) 
72.40189565421895

>  <Genealogy>  (30) 
CCC(CO)c1ccc2cc(C([NH-])=O)n(C(=O)[S-])c2c1 (protonated)
CC[C@@H](CO)c1ccc2cc(C([NH-])=O)n(C(=O)[S-])c2c1 (chirality)
CC[C@@H](CO)c1ccc2cc(C([NH-])=O)n(C(=O)[S-])c2c1 (3D coordinates assigned)
CC[C@@H](CO)c1ccc2cc(C([NH-])=O)n(C(=O)[S-])c2c1 (optimized conformer: 72.40189565421895 kcal/mol)

>  <smiles>  (30) 
CCC(CO)c1ccc2cc(C(N)=O)n(C(=O)S)c2c1

>  <score_type>  (30) 
oracle

>  <origin>  (30) 
adg

>  <m_score__min__energy>  (30) 
-10.449999999999999

>  <m_primary>  (30) 
energy

$$$$
30:0
     RDKit          3D

 43 45  0  0  0  0  0  0  0  0999 V2000
   -2.2640   18.3480  -33.0740 C   0  0  0  0  0  0  0  0  0  0  0  0
   -2.3880   19.2100  -34.1840 O   0  0  0  0  0  0  0  0  0  0  0  0
   -1.9020   20.5000  -33.8640 C   0  0  0  0  0  0  0  0  0  0  0  0
   -2.3210   20.8870  -32.4490 C   0  0  0  0  0  0  0  0  0  0  0  0
   -2.8940   22.1900  -32.4670 O   0  0  0  0  0  0  0  0  0  0  0  0
   -3.5600   22.7410  -31.3690 C   0  0  0  0  0  0  0  0  0  0  0  0
   -2.9150   23.0960  -30.3460 O   0  0  0  0  0  0  0  0  0  0  0  0
   -4.9910   22.8690  -31.3980 N   0  0  0  0  0  0  0  0  0  0  0  0
   -5.7490   23.9170  -30.9650 C   0  0  0  0  0  0  0  0  0  0  0  0
   -5.2430   25.2300  -30.5140 C   0  0  0  0  0  0  0  0  0  0  0  0
   -3.9350   25.6730  -30.8670 N   0  0  0  0  0  0  0  0  0  0  0  0
   -5.9950   25.9920  -29.8490 O   0  0  0  0  0  0  0  0  0  0  0  0
   -7.1060   23.6190  -31.0830 C   0  0  0  0  0  0  0  0  0  0  0  0
   -7.1550   22.3500  -31.6160 C   0  0  0  0  0  0  0  0  0  0  0  0
   -8.2510   21.5560  -31.9350 C   0  0  0  0  0  0  0  0  0  0  0  0
   -8.0090   20.2710  -32.4490 C   0  0  0  0  0  0  0  0  0  0  0  0
   -6.6810   19.7990  -32.6260 C   0  0  0  0  0  0  0  0  0  0  0  0
   -6.4080   18.4440  -33.1590 C   0  0  0  0  0  0  0  0  0  0  0  0
   -7.2300   17.3300  -33.0800 C   0  0  0  0  0  0  0  0  0  0  0  0
   -6.5550   16.3130  -33.7200 C   0  0  0  0  0  0  0  0  0  0  0  0
   -5.3640   16.8650  -34.1450 C   0  0  0  0  0  0  0  0  0  0  0  0
   -4.2980   16.1590  -34.9210 C   0  0  0  0  0  0  0  0  0  0  0  0
   -3.5270   17.0870  -35.6320 O   0  0  0  0  0  0  0  0  0  0  0  0
   -5.3050   18.1310  -33.8040 O   0  0  0  0  0  0  0  0  0  0  0  0
   -5.5960   20.6380  -32.2850 C   0  0  0  0  0  0  0  0  0  0  0  0
   -5.8670   21.9200  -31.7960 C   0  0  0  0  0  0  0  0  0  0  0  0
   -2.3480   18.9316  -32.1454 H   0  0  0  0  0  0  0  0  0  0  0  0
   -3.0627   17.5923  -33.1056 H   0  0  0  0  0  0  0  0  0  0  0  0
   -1.2847   17.8480  -33.1056 H   0  0  0  0  0  0  0  0  0  0  0  0
   -0.8040   20.5011  -33.9305 H   0  0  0  0  0  0  0  0  0  0  0  0
   -2.3229   21.2275  -34.5737 H   0  0  0  0  0  0  0  0  0  0  0  0
   -3.0619   20.1651  -32.0749 H   0  0  0  0  0  0  0  0  0  0  0  0
   -1.4405   20.8811  -31.7897 H   0  0  0  0  0  0  0  0  0  0  0  0
   -3.0900   25.2660  -30.4090 H   0  0  0  0  0  0  0  0  0  0  0  0
   -7.9563   24.2607  -30.8088 H   0  0  0  0  0  0  0  0  0  0  0  0
   -9.2776   21.9232  -31.7892 H   0  0  0  0  0  0  0  0  0  0  0  0
   -8.8569   19.6236  -32.7172 H   0  0  0  0  0  0  0  0  0  0  0  0
   -8.2196   17.2702  -32.6034 H   0  0  0  0  0  0  0  0  0  0  0  0
   -6.8951   15.2766  -33.8624 H   0  0  0  0  0  0  0  0  0  0  0  0
   -3.6503   15.6032  -34.2271 H   0  0  0  0  0  0  0  0  0  0  0  0
   -4.7696   15.4633  -35.6306 H   0  0  0  0  0  0  0  0  0  0  0  0
   -3.6570   17.9640  -35.1860 H   0  0  0  0  0  0  0  0  0  0  0  0
   -4.5592   20.2897  -32.4019 H   0  0  0  0  0  0  0  0  0  0  0  0
  1  2  1  0
  2  3  1  0
  3  4  1  0
  4  5  1  0
  5  6  1  0
  6  7  2  0
  6  8  1  0
  8  9  1  0
  9 10  1  0
 10 11  1  0
 10 12  2  0
  9 13  2  0
 13 14  1  0
 14 15  2  0
 15 16  1  0
 16 17  2  0
 17 18  1  0
 18 19  2  0
 19 20  1  0
 20 21  2  0
 21 22  1  0
 22 23  1  0
 21 24  1  0
 17 25  1  0
 25 26  2  0
 26  8  1  0
 26 14  1  0
 24 18  1  0
  1 27  1  0
  1 28  1  0
  1 29  1  0
  3 30  1  0
  3 31  1  0
  4 32  1  0
  4 33  1  0
 11 34  1  0
 13 35  1  0
 15 36  1  0
 16 37  1  0
 19 38  1  0
 20 39  1  0
 22 40  1  0
 22 41  1  0
 23 42  1  0
 25 43  1  0
M  CHG  1  11  -1
M  END
>  <UniqueID>  (31) 
31

>  <SMILES>  (31) 
COCCOC(=O)n1c(C([NH-])=O)cc2ccc(-c3ccc(CO)o3)cc21

>  <Energy>  (31) 
107.65651976158638

>  <Genealogy>  (31) 
COCCOC(=O)n1c(C([NH-])=O)cc2ccc(-c3ccc(CO)o3)cc21 (protonated)
COCCOC(=O)n1c(C([NH-])=O)cc2ccc(-c3ccc(CO)o3)cc21 (3D coordinates assigned)
COCCOC(=O)n1c(C([NH-])=O)cc2ccc(-c3ccc(CO)o3)cc21 (optimized conformer: 107.65651976158638 kcal/mol)

>  <smiles>  (31) 
COCCOC(=O)n1c(C(N)=O)cc2ccc(-c3ccc(CO)o3)cc21

>  <score_type>  (31) 
oracle

>  <origin>  (31) 
adg

>  <m_score__min__energy>  (31) 
-10.01

>  <m_primary>  (31) 
energy

$$$$
31:0
     RDKit          3D

 36 38  0  0  0  0  0  0  0  0999 V2000
   -5.5560   25.9160  -30.3520 N   0  0  0  0  0  0  0  0  0  0  0  0
   -6.7530   25.1190  -30.1240 C   0  0  0  0  0  0  0  0  0  0  0  0
   -7.5770   25.6890  -29.3890 O   0  0  0  0  0  0  0  0  0  0  0  0
   -6.8430   23.8210  -30.7440 C   0  0  0  0  0  0  0  0  0  0  0  0
   -8.0840   23.3000  -31.1500 C   0  0  0  0  0  0  0  0  0  0  0  0
   -7.8800   22.0690  -31.7000 C   0  0  0  0  0  0  0  0  0  0  0  0
   -8.7600   21.1740  -32.2340 C   0  0  0  0  0  0  0  0  0  0  0  0
   -8.3360   19.9700  -32.7420 C   0  0  0  0  0  0  0  0  0  0  0  0
   -6.9900   19.7000  -32.6930 C   0  0  0  0  0  0  0  0  0  0  0  0
   -6.4800   18.4250  -33.2230 C   0  0  0  0  0  0  0  0  0  0  0  0
   -6.0860   17.3470  -32.4680 C   0  0  0  0  0  0  0  0  0  0  0  0
   -5.6690   16.3410  -33.3430 C   0  0  0  0  0  0  0  0  0  0  0  0
   -5.8310   16.8590  -34.5620 N   0  0  0  0  0  0  0  0  0  0  0  0
   -6.3050   18.0830  -34.5230 N   0  0  0  0  0  0  0  0  0  0  0  0
   -6.1020   20.6260  -32.1430 C   0  0  0  0  0  0  0  0  0  0  0  0
   -6.5230   21.8370  -31.6310 C   0  0  0  0  0  0  0  0  0  0  0  0
   -5.8950   22.9090  -31.0470 N   0  0  0  0  0  0  0  0  0  0  0  0
   -4.5220   22.9420  -30.8520 C   0  0  0  0  0  0  0  0  0  0  0  0
   -3.7970   23.0360  -31.9210 O   0  0  0  0  0  0  0  0  0  0  0  0
   -3.7100   22.8880  -29.6330 C   0  0  0  0  0  0  0  0  0  0  0  0
   -2.7270   24.1000  -29.6600 C   0  0  0  0  0  0  0  0  0  0  0  0
   -3.4000   25.1670  -30.2520 O   0  0  0  0  0  0  0  0  0  0  0  0
   -5.0870   26.3410  -29.5470 H   0  0  0  0  0  0  0  0  0  0  0  0
   -5.1940   26.0410  -31.3420 H   0  0  0  0  0  0  0  0  0  0  0  0
   -9.0570   23.8016  -31.0420 H   0  0  0  0  0  0  0  0  0  0  0  0
   -9.8315   21.4214  -32.2584 H   0  0  0  0  0  0  0  0  0  0  0  0
   -9.0474   19.2494  -33.1717 H   0  0  0  0  0  0  0  0  0  0  0  0
   -6.0969   17.2867  -31.3697 H   0  0  0  0  0  0  0  0  0  0  0  0
   -5.2902   15.3413  -33.0839 H   0  0  0  0  0  0  0  0  0  0  0  0
   -6.5170   18.7010  -35.3470 H   0  0  0  0  0  0  0  0  0  0  0  0
   -5.0296   20.3824  -32.1166 H   0  0  0  0  0  0  0  0  0  0  0  0
   -4.3595   22.9528  -28.7476 H   0  0  0  0  0  0  0  0  0  0  0  0
   -3.1515   21.9415  -29.5851 H   0  0  0  0  0  0  0  0  0  0  0  0
   -2.4286   24.3654  -28.6351 H   0  0  0  0  0  0  0  0  0  0  0  0
   -1.8176   23.8510  -30.2265 H   0  0  0  0  0  0  0  0  0  0  0  0
   -3.4880   24.9230  -31.2270 H   0  0  0  0  0  0  0  0  0  0  0  0
  1  2  1  0
  2  3  2  0
  2  4  1  0
  4  5  2  0
  5  6  1  0
  6  7  2  0
  7  8  1  0
  8  9  2  0
  9 10  1  0
 10 11  2  0
 11 12  1  0
 12 13  2  0
 13 14  1  0
  9 15  1  0
 15 16  2  0
 16 17  1  0
 17 18  1  0
 18 19  2  0
 18 20  1  0
 20 21  1  0
 21 22  1  0
 17  4  1  0
 16  6  1  0
 14 10  1  0
  1 23  1  0
  1 24  1  0
  5 25  1  0
  7 26  1  0
  8 27  1  0
 11 28  1  0
 12 29  1  0
 14 30  1  0
 15 31  1  0
 20 32  1  0
 20 33  1  0
 21 34  1  0
 21 35  1  0
 22 36  1  0
M  END
>  <smiles>  (32) 
NC(=O)c1cc2ccc(-c3ccn[nH]3)cc2n1C(=O)CCO

>  <score_type>  (32) 
oracle

>  <origin>  (32) 
adg

>  <m_score__min__energy>  (32) 
-9.5399999999999991

>  <m_primary>  (32) 
energy

$$$$
32:0
     RDKit          3D

 40 42  0  0  0  0  0  0  0  0999 V2000
   -6.6270   17.4400  -32.7410 C   0  0  0  0  0  0  0  0  0  0  0  0
   -6.8780   18.6670  -33.4910 N   0  0  0  0  0  0  0  0  0  0  0  0
   -7.1270   19.9410  -32.8710 C   0  0  0  0  0  0  0  0  0  0  0  0
   -8.4490   20.4060  -32.6320 C   0  0  0  0  0  0  0  0  0  0  0  0
   -8.6730   21.6490  -32.0150 C   0  0  0  0  0  0  0  0  0  0  0  0
   -7.5640   22.4070  -31.6540 C   0  0  0  0  0  0  0  0  0  0  0  0
   -7.4970   23.6280  -31.0210 C   0  0  0  0  0  0  0  0  0  0  0  0
   -6.1360   23.9050  -30.8990 C   0  0  0  0  0  0  0  0  0  0  0  0
   -5.5980   25.1690  -30.3510 C   0  0  0  0  0  0  0  0  0  0  0  0
   -4.2400   25.5460  -30.5820 N   0  0  0  0  0  0  0  0  0  0  0  0
   -6.3290   25.9130  -29.6430 O   0  0  0  0  0  0  0  0  0  0  0  0
   -5.3940   22.8960  -31.4350 N   0  0  0  0  0  0  0  0  0  0  0  0
   -3.9620   22.7730  -31.4380 C   0  0  0  0  0  0  0  0  0  0  0  0
   -3.3710   22.3290  -32.4600 O   0  0  0  0  0  0  0  0  0  0  0  0
   -3.2320   23.1400  -30.3020 O   0  0  0  0  0  0  0  0  0  0  0  0
   -3.4050   22.5300  -29.0250 C   0  0  0  0  0  0  0  0  0  0  0  0
   -3.3400   23.5790  -27.9150 C   0  0  0  0  0  0  0  0  0  0  0  0
   -2.1450   24.4620  -28.0950 C   0  0  0  0  0  0  0  0  0  0  0  0
   -0.8730   24.2050  -27.6450 C   0  0  0  0  0  0  0  0  0  0  0  0
   -0.0600   25.1940  -28.0530 N   0  0  0  0  0  0  0  0  0  0  0  0
   -0.8690   26.0200  -28.7500 C   0  0  0  0  0  0  0  0  0  0  0  0
   -2.1520   25.6040  -28.8050 N   0  0  0  0  0  0  0  0  0  0  0  0
   -6.2830   21.9860  -31.8920 C   0  0  0  0  0  0  0  0  0  0  0  0
   -6.0300   20.7440  -32.4890 C   0  0  0  0  0  0  0  0  0  0  0  0
   -6.6707   17.6538  -31.6629 H   0  0  0  0  0  0  0  0  0  0  0  0
   -7.3905   16.6908  -32.9975 H   0  0  0  0  0  0  0  0  0  0  0  0
   -5.6306   17.0508  -32.9975 H   0  0  0  0  0  0  0  0  0  0  0  0
   -6.8690   18.6050  -34.5350 H   0  0  0  0  0  0  0  0  0  0  0  0
   -9.3063   19.7861  -32.9333 H   0  0  0  0  0  0  0  0  0  0  0  0
   -9.6939   22.0111  -31.8235 H   0  0  0  0  0  0  0  0  0  0  0  0
   -8.3379   24.2518  -30.6836 H   0  0  0  0  0  0  0  0  0  0  0  0
   -3.6170   24.9790  -31.1990 H   0  0  0  0  0  0  0  0  0  0  0  0
   -3.8600   26.4240  -30.1620 H   0  0  0  0  0  0  0  0  0  0  0  0
   -4.3841   22.0297  -28.9929 H   0  0  0  0  0  0  0  0  0  0  0  0
   -2.5988   21.7981  -28.8692 H   0  0  0  0  0  0  0  0  0  0  0  0
   -4.2517   24.1938  -27.9446 H   0  0  0  0  0  0  0  0  0  0  0  0
   -3.2591   23.0655  -26.9456 H   0  0  0  0  0  0  0  0  0  0  0  0
   -0.5695   23.3323  -27.0482 H   0  0  0  0  0  0  0  0  0  0  0  0
   -0.5157   26.9454  -29.2283 H   0  0  0  0  0  0  0  0  0  0  0  0
   -4.9982   20.4015  -32.6567 H   0  0  0  0  0  0  0  0  0  0  0  0
  1  2  1  0
  2  3  1  0
  3  4  2  0
  4  5  1  0
  5  6  2  0
  6  7  1  0
  7  8  2  0
  8  9  1  0
  9 10  1  0
  9 11  2  0
  8 12  1  0
 12 13  1  0
 13 14  2  0
 13 15  1  0
 15 16  1  0
 16 17  1  0
 17 18  1  0
 18 19  2  0
 19 20  1  0
 20 21  2  0
 21 22  1  0
 12 23  1  0
 23 24  2  0
 24  3  1  0
 23  6  1  0
 22 18  1  0
  1 25  1  0
  1 26  1  0
  1 27  1  0
  2 28  1  0
  4 29  1  0
  5 30  1  0
  7 31  1  0
 10 32  1  0
 10 33  1  0
 16 34  1  0
 16 35  1  0
 17 36  1  0
 17 37  1  0
 19 38  1  0
 21 39  1  0
 24 40  1  0
M  CHG  1  22  -1
M  END
>  <UniqueID>  (33) 
32

>  <SMILES>  (33) 
CNc1ccc2cc(C(N)=O)n(C(=O)OCCc3cnc[n-]3)c2c1

>  <Energy>  (33) 
102.3926659327566

>  <Genealogy>  (33) 
CNc1ccc2cc(C(N)=O)n(C(=O)OCCc3cnc[n-]3)c2c1 (protonated)
CNc1ccc2cc(C(N)=O)n(C(=O)OCCc3cnc[n-]3)c2c1 (3D coordinates assigned)
CNc1ccc2cc(C(N)=O)n(C(=O)OCCc3cnc[n-]3)c2c1 (optimized conformer: 102.3926659327566 kcal/mol)

>  <smiles>  (33) 
CNc1ccc2cc(C(N)=O)n(C(=O)OCCc3cnc[nH]3)c2c1

>  <score_type>  (33) 
oracle

>  <origin>  (33) 
adg

>  <m_score__min__energy>  (33) 
-10.199999999999999

>  <m_primary>  (33) 
energy

$$$$
33:0
     RDKit          3D

 48 51  0  0  0  0  0  0  0  0999 V2000
   -3.8630   25.4070  -30.8150 N   0  0  0  0  0  0  0  0  0  0  0  0
   -5.1480   24.9560  -30.3930 C   0  0  0  0  0  0  0  0  0  0  0  0
   -5.8670   25.7080  -29.6800 O   0  0  0  0  0  0  0  0  0  0  0  0
   -5.6620   23.6510  -30.8620 C   0  0  0  0  0  0  0  0  0  0  0  0
   -7.0070   23.3840  -31.0770 C   0  0  0  0  0  0  0  0  0  0  0  0
   -7.0540   22.0830  -31.5160 C   0  0  0  0  0  0  0  0  0  0  0  0
   -8.1480   21.3390  -31.9500 C   0  0  0  0  0  0  0  0  0  0  0  0
   -7.9130   20.0390  -32.4210 C   0  0  0  0  0  0  0  0  0  0  0  0
   -6.6030   19.5000  -32.4330 C   0  0  0  0  0  0  0  0  0  0  0  0
   -6.3820   18.0980  -32.8260 C   0  0  0  0  0  0  0  0  0  0  0  0
   -7.3150   17.3510  -33.4650 N   0  0  0  0  0  0  0  0  0  0  0  0
   -6.8190   16.1460  -33.8650 C   0  0  0  0  0  0  0  0  0  0  0  0
   -5.4880   15.9180  -33.5330 C   0  0  0  0  0  0  0  0  0  0  0  0
   -4.9120   17.2780  -32.7360 S   0  0  0  0  0  0  0  0  0  0  0  0
   -5.5140   20.2930  -32.0080 C   0  0  0  0  0  0  0  0  0  0  0  0
   -5.7700   21.5970  -31.5440 C   0  0  0  0  0  0  0  0  0  0  0  0
   -4.8940   22.5590  -31.1500 N   0  0  0  0  0  0  0  0  0  0  0  0
   -3.4650   22.6010  -31.3320 C   0  0  0  0  0  0  0  0  0  0  0  0
   -3.0160   22.5890  -32.5130 O   0  0  0  0  0  0  0  0  0  0  0  0
   -2.4670   22.6070  -30.1910 C   0  0  1  0  0  0  0  0  0  0  0  0
   -3.1170   23.1510  -29.0490 O   0  0  0  0  0  0  0  0  0  0  0  0
   -2.2260   23.4160  -27.9710 C   0  0  2  0  0  0  0  0  0  0  0  0
   -1.3930   24.7030  -28.1890 C   0  0  0  0  0  0  0  0  0  0  0  0
   -2.0940   25.6650  -28.9380 O   0  0  0  0  0  0  0  0  0  0  0  0
   -1.4120   22.1660  -27.5310 C   0  0  1  0  0  0  0  0  0  0  0  0
   -2.2520   21.3330  -26.7620 O   0  0  0  0  0  0  0  0  0  0  0  0
   -0.8470   21.3830  -28.7400 C   0  0  1  0  0  0  0  0  0  0  0  0
   -0.3790   20.1250  -28.3100 O   0  0  0  0  0  0  0  0  0  0  0  0
   -1.9120   21.2090  -29.8380 C   0  0  2  0  0  0  0  0  0  0  0  0
   -1.3070   20.6080  -30.9600 O   0  0  0  0  0  0  0  0  0  0  0  0
   -2.9980   25.0360  -30.3620 H   0  0  0  0  0  0  0  0  0  0  0  0
   -7.8550   24.0685  -30.9277 H   0  0  0  0  0  0  0  0  0  0  0  0
   -9.1648   21.7578  -31.9243 H   0  0  0  0  0  0  0  0  0  0  0  0
   -8.7548   19.4316  -32.7849 H   0  0  0  0  0  0  0  0  0  0  0  0
   -7.4266   15.4086  -34.4100 H   0  0  0  0  0  0  0  0  0  0  0  0
   -4.9135   15.0063  -33.7540 H   0  0  0  0  0  0  0  0  0  0  0  0
   -4.4872   19.8996  -32.0390 H   0  0  0  0  0  0  0  0  0  0  0  0
   -1.6028   23.2084  -30.5096 H   0  0  0  0  0  0  0  0  0  0  0  0
   -2.8478   23.6428  -27.0924 H   0  0  0  0  0  0  0  0  0  0  0  0
   -1.1397   25.1322  -27.2084 H   0  0  0  0  0  0  0  0  0  0  0  0
   -0.4873   24.4299  -28.7504 H   0  0  0  0  0  0  0  0  0  0  0  0
   -3.0390   25.3590  -28.9930 H   0  0  0  0  0  0  0  0  0  0  0  0
   -0.5493   22.5011  -26.9365 H   0  0  0  0  0  0  0  0  0  0  0  0
   -2.2070   20.4230  -27.1620 H   0  0  0  0  0  0  0  0  0  0  0  0
   -0.0131   21.9576  -29.1694 H   0  0  0  0  0  0  0  0  0  0  0  0
   -0.6510   20.0100  -27.3620 H   0  0  0  0  0  0  0  0  0  0  0  0
   -2.7389   20.5671  -29.5000 H   0  0  0  0  0  0  0  0  0  0  0  0
   -1.6780   21.0510  -31.7670 H   0  0  0  0  0  0  0  0  0  0  0  0
  1  2  1  0
  2  3  2  0
  2  4  1  0
  4  5  2  0
  5  6  1  0
  6  7  2  0
  7  8  1  0
  8  9  2  0
  9 10  1  0
 10 11  2  0
 11 12  1  0
 12 13  2  0
 13 14  1  0
  9 15  1  0
 15 16  2  0
 16 17  1  0
 17 18  1  0
 18 19  2  0
 18 20  1  0
 20 21  1  0
 21 22  1  0
 22 23  1  0
 23 24  1  0
 22 25  1  0
 25 26  1  0
 25 27  1  0
 27 28  1  0
 27 29  1  0
 29 30  1  0
 17  4  1  0
 29 20  1  0
 16  6  1  0
 14 10  1  0
  1 31  1  0
  5 32  1  0
  7 33  1  0
  8 34  1  0
 12 35  1  0
 13 36  1  0
 15 37  1  0
 20 38  1  6
 22 39  1  1
 23 40  1  0
 23 41  1  0
 24 42  1  0
 25 43  1  1
 26 44  1  0
 27 45  1  6
 28 46  1  0
 29 47  1  1
 30 48  1  0
M  CHG  1   1  -1
M  END
>  <UniqueID>  (34) 
33

>  <SMILES>  (34) 
[NH-]C(=O)c1cc2ccc(-c3nccs3)cc2n1C(=O)[C@H]1O[C@H](CO)[C@@H](O)[C@@H](O)[C@@H]1O

>  <Energy>  (34) 
138.04744476158805

>  <Genealogy>  (34) 
[NH-]C(=O)c1cc2ccc(-c3nccs3)cc2n1C(=O)[C@H]1O[C@H](CO)[C@@H](O)C(O)[C@@H]1O (protonated)
[NH-]C(=O)c1cc2ccc(-c3nccs3)cc2n1C(=O)[C@H]1O[C@H](CO)[C@@H](O)[C@@H](O)[C@@H]1O (chirality)
[NH-]C(=O)c1cc2ccc(-c3nccs3)cc2n1C(=O)[C@H]1O[C@H](CO)[C@@H](O)[C@@H](O)[C@@H]1O (3D coordinates assigned)
[NH-]C(=O)c1cc2ccc(-c3nccs3)cc2n1C(=O)[C@H]1O[C@H](CO)[C@@H](O)[C@@H](O)[C@@H]1O (nonaromatic ring conformer: 138.04744476158805 kcal/mol)

>  <smiles>  (34) 
NC(=O)c1cc2ccc(-c3nccs3)cc2n1C(=O)[C@H]1O[C@H](CO)[C@@H](O)C(O)[C@@H]1O

>  <score_type>  (34) 
oracle

>  <origin>  (34) 
adg

>  <m_score__min__energy>  (34) 
-10.119999999999999

>  <m_primary>  (34) 
energy

$$$$
34:0
     RDKit          3D

 38 40  0  0  0  0  0  0  0  0999 V2000
   -3.6950   25.2100  -30.4440 N   0  0  0  0  0  0  0  0  0  0  0  0
   -5.1060   25.2910  -30.6240 C   0  0  0  0  0  0  0  0  0  0  0  0
   -5.6700   26.4140  -30.5740 O   0  0  0  0  0  0  0  0  0  0  0  0
   -5.8890   24.0600  -30.8620 C   0  0  0  0  0  0  0  0  0  0  0  0
   -7.2320   23.9110  -30.5160 C   0  0  0  0  0  0  0  0  0  0  0  0
   -7.5570   22.6170  -30.8630 C   0  0  0  0  0  0  0  0  0  0  0  0
   -8.7620   21.9320  -30.7480 C   0  0  0  0  0  0  0  0  0  0  0  0
   -8.8120   20.6050  -31.2100 C   0  0  0  0  0  0  0  0  0  0  0  0
   -7.6700   19.9920  -31.7880 C   0  0  0  0  0  0  0  0  0  0  0  0
   -7.7250   18.5620  -32.2660 C   0  0  0  0  0  0  0  0  0  0  0  0
   -7.0350   17.7330  -31.4020 F   0  0  0  0  0  0  0  0  0  0  0  0
   -9.0420   18.1500  -32.3260 F   0  0  0  0  0  0  0  0  0  0  0  0
   -7.1590   18.4430  -33.5200 F   0  0  0  0  0  0  0  0  0  0  0  0
   -6.4550   20.7140  -31.8590 C   0  0  0  0  0  0  0  0  0  0  0  0
   -6.4360   22.0300  -31.3880 C   0  0  0  0  0  0  0  0  0  0  0  0
   -5.4070   22.9020  -31.3950 N   0  0  0  0  0  0  0  0  0  0  0  0
   -4.0820   22.6500  -31.8790 C   0  0  0  0  0  0  0  0  0  0  0  0
   -3.1010   22.7360  -31.0940 O   0  0  0  0  0  0  0  0  0  0  0  0
   -3.8640   22.2880  -33.3160 C   0  0  0  0  0  0  0  0  0  0  0  0
   -3.3470   20.9230  -33.4140 N   0  0  0  0  0  0  0  0  0  0  0  0
   -4.1280   19.8630  -33.5530 N   0  0  0  0  0  0  0  0  0  0  0  0
   -3.3420   18.7670  -33.5300 C   0  0  0  0  0  0  0  0  0  0  0  0
   -2.0240   19.1420  -33.3630 C   0  0  0  0  0  0  0  0  0  0  0  0
   -2.0650   20.5170  -33.2780 C   0  0  0  0  0  0  0  0  0  0  0  0
   -0.8760   21.4150  -33.1230 C   0  0  0  0  0  0  0  0  0  0  0  0
   -0.4800   21.9120  -34.3700 O   0  0  0  0  0  0  0  0  0  0  0  0
   -3.0700   24.9020  -31.2210 H   0  0  0  0  0  0  0  0  0  0  0  0
   -7.8916   24.6656  -30.0626 H   0  0  0  0  0  0  0  0  0  0  0  0
   -9.6484   22.4135  -30.3092 H   0  0  0  0  0  0  0  0  0  0  0  0
   -9.7484   20.0346  -31.1223 H   0  0  0  0  0  0  0  0  0  0  0  0
   -5.5478   20.2510  -32.2746 H   0  0  0  0  0  0  0  0  0  0  0  0
   -4.8189   22.3559  -33.8579 H   0  0  0  0  0  0  0  0  0  0  0  0
   -3.1349   22.9834  -33.7575 H   0  0  0  0  0  0  0  0  0  0  0  0
   -3.6976   17.7308  -33.6293 H   0  0  0  0  0  0  0  0  0  0  0  0
   -1.1397   18.4899  -33.3097 H   0  0  0  0  0  0  0  0  0  0  0  0
   -1.1388   22.2554  -32.4637 H   0  0  0  0  0  0  0  0  0  0  0  0
   -0.0464   20.8400  -32.6858 H   0  0  0  0  0  0  0  0  0  0  0  0
   -1.3010   21.9510  -34.9290 H   0  0  0  0  0  0  0  0  0  0  0  0
  1  2  1  0
  2  3  2  0
  2  4  1  0
  4  5  2  0
  5  6  1  0
  6  7  2  0
  7  8  1  0
  8  9  2  0
  9 10  1  0
 10 11  1  0
 10 12  1  0
 10 13  1  0
  9 14  1  0
 14 15  2  0
 15 16  1  0
 16 17  1  0
 17 18  2  0
 17 19  1  0
 19 20  1  0
 20 21  1  0
 21 22  2  0
 22 23  1  0
 23 24  2  0
 24 25  1  0
 25 26  1  0
 16  4  1  0
 24 20  1  0
 15  6  1  0
  1 27  1  0
  5 28  1  0
  7 29  1  0
  8 30  1  0
 14 31  1  0
 19 32  1  0
 19 33  1  0
 22 34  1  0
 23 35  1  0
 25 36  1  0
 25 37  1  0
 26 38  1  0
M  CHG  1   1  -1
M  END
>  <UniqueID>  (35) 
34

>  <SMILES>  (35) 
[NH-]C(=O)c1cc2ccc(C(F)(F)F)cc2n1C(=O)Cn1nccc1CO

>  <Energy>  (35) 
108.09619423349412

>  <Genealogy>  (35) 
[NH-]C(=O)c1cc2ccc(C(F)(F)F)cc2n1C(=O)Cn1nccc1CO (protonated)
[NH-]C(=O)c1cc2ccc(C(F)(F)F)cc2n1C(=O)Cn1nccc1CO (3D coordinates assigned)
[NH-]C(=O)c1cc2ccc(C(F)(F)F)cc2n1C(=O)Cn1nccc1CO (optimized conformer: 108.09619423349412 kcal/mol)

>  <smiles>  (35) 
NC(=O)c1cc2ccc(C(F)(F)F)cc2n1C(=O)Cn1nccc1CO

>  <score_type>  (35) 
oracle

>  <origin>  (35) 
adg

>  <m_score__min__energy>  (35) 
-10.529999999999999

>  <m_primary>  (35) 
energy

$$$$
35:0
     RDKit          3D

 29 30  0  0  0  0  0  0  0  0999 V2000
   -4.4980   25.6750  -30.8360 N   0  0  0  0  0  0  0  0  0  0  0  0
   -5.7480   25.0800  -30.4950 C   0  0  0  0  0  0  0  0  0  0  0  0
   -6.5590   25.7210  -29.7740 O   0  0  0  0  0  0  0  0  0  0  0  0
   -6.1160   23.7400  -31.0010 C   0  0  0  0  0  0  0  0  0  0  0  0
   -7.4070   23.3870  -31.3920 C   0  0  0  0  0  0  0  0  0  0  0  0
   -7.3090   22.0920  -31.8490 C   0  0  0  0  0  0  0  0  0  0  0  0
   -8.2880   21.2320  -32.3360 C   0  0  0  0  0  0  0  0  0  0  0  0
   -7.9020   19.9330  -32.7050 C   0  0  0  0  0  0  0  0  0  0  0  0
   -6.5480   19.5200  -32.5970 C   0  0  0  0  0  0  0  0  0  0  0  0
   -6.1480   18.1060  -32.9390 C   0  0  0  0  0  0  0  0  0  0  0  0
   -5.3770   17.5520  -31.9320 F   0  0  0  0  0  0  0  0  0  0  0  0
   -5.4190   18.1130  -34.1140 F   0  0  0  0  0  0  0  0  0  0  0  0
   -7.2710   17.3160  -33.1110 F   0  0  0  0  0  0  0  0  0  0  0  0
   -5.5860   20.4160  -32.0760 C   0  0  0  0  0  0  0  0  0  0  0  0
   -6.0000   21.7040  -31.7260 C   0  0  0  0  0  0  0  0  0  0  0  0
   -5.2590   22.7020  -31.2040 N   0  0  0  0  0  0  0  0  0  0  0  0
   -3.8700   22.6220  -30.8620 C   0  0  0  0  0  0  0  0  0  0  0  0
   -3.0580   22.0920  -31.6670 O   0  0  0  0  0  0  0  0  0  0  0  0
   -3.3980   23.0530  -29.5070 C   0  0  0  0  0  0  0  0  0  0  0  0
   -2.1660   23.8880  -29.6430 C   0  0  0  0  0  0  0  0  0  0  0  0
   -1.0940   23.3710  -30.0560 O   0  0  0  0  0  0  0  0  0  0  0  0
   -2.2130   25.2470  -29.3630 O   0  0  0  0  0  0  0  0  0  0  0  0
   -3.8660   26.0570  -30.0980 H   0  0  0  0  0  0  0  0  0  0  0  0
   -8.3118   24.0108  -31.3453 H   0  0  0  0  0  0  0  0  0  0  0  0
   -9.3339   21.5598  -32.4293 H   0  0  0  0  0  0  0  0  0  0  0  0
   -8.6573   19.2277  -33.0819 H   0  0  0  0  0  0  0  0  0  0  0  0
   -4.5380   20.1068  -31.9494 H   0  0  0  0  0  0  0  0  0  0  0  0
   -4.1864   23.6423  -29.0159 H   0  0  0  0  0  0  0  0  0  0  0  0
   -3.1693   22.1634  -28.9017 H   0  0  0  0  0  0  0  0  0  0  0  0
  1  2  1  0
  2  3  2  0
  2  4  1  0
  4  5  2  0
  5  6  1  0
  6  7  2  0
  7  8  1  0
  8  9  2  0
  9 10  1  0
 10 11  1  0
 10 12  1  0
 10 13  1  0
  9 14  1  0
 14 15  2  0
 15 16  1  0
 16 17  1  0
 17 18  2  0
 17 19  1  0
 19 20  1  0
 20 21  2  0
 20 22  1  0
 16  4  1  0
 15  6  1  0
  1 23  1  0
  5 24  1  0
  7 25  1  0
  8 26  1  0
 14 27  1  0
 19 28  1  0
 19 29  1  0
M  CHG  2   1  -1  22  -1
M  END
>  <UniqueID>  (36) 
35

>  <SMILES>  (36) 
[NH-]C(=O)c1cc2ccc(C(F)(F)F)cc2n1C(=O)CC(=O)[O-]

>  <Energy>  (36) 
67.9276932918143

>  <Genealogy>  (36) 
[NH-]C(=O)c1cc2ccc(C(F)(F)F)cc2n1C(=O)CC(=O)[O-] (protonated)
[NH-]C(=O)c1cc2ccc(C(F)(F)F)cc2n1C(=O)CC(=O)[O-] (3D coordinates assigned)
[NH-]C(=O)c1cc2ccc(C(F)(F)F)cc2n1C(=O)CC(=O)[O-] (optimized conformer: 67.9276932918143 kcal/mol)

>  <smiles>  (36) 
NC(=O)c1cc2ccc(C(F)(F)F)cc2n1C(=O)CC(=O)O

>  <score_type>  (36) 
oracle

>  <origin>  (36) 
adg

>  <m_score__min__energy>  (36) 
-10.949999999999999

>  <m_primary>  (36) 
energy

$$$$
36:0
     RDKit          3D

 35 36  0  0  0  0  0  0  0  0999 V2000
   -3.3760   24.0140  -27.9250 C   0  0  0  0  0  0  0  0  0  0  0  0
   -2.7250   23.6600  -29.1260 O   0  0  0  0  0  0  0  0  0  0  0  0
   -3.2060   22.4150  -29.5940 C   0  0  0  0  0  0  0  0  0  0  0  0
   -3.7940   22.5730  -30.9660 C   0  0  0  0  0  0  0  0  0  0  0  0
   -3.0530   22.4410  -31.9770 O   0  0  0  0  0  0  0  0  0  0  0  0
   -5.1950   22.8360  -31.1370 N   0  0  0  0  0  0  0  0  0  0  0  0
   -5.8640   23.9940  -30.8720 C   0  0  0  0  0  0  0  0  0  0  0  0
   -5.2580   25.2710  -30.4350 C   0  0  0  0  0  0  0  0  0  0  0  0
   -3.9420   25.6390  -30.8390 N   0  0  0  0  0  0  0  0  0  0  0  0
   -5.9220   26.0610  -29.7120 O   0  0  0  0  0  0  0  0  0  0  0  0
   -7.2270   23.8320  -31.1150 C   0  0  0  0  0  0  0  0  0  0  0  0
   -7.3730   22.5290  -31.5360 C   0  0  0  0  0  0  0  0  0  0  0  0
   -8.5190   21.8220  -31.8870 C   0  0  0  0  0  0  0  0  0  0  0  0
   -8.3760   20.4720  -32.2440 C   0  0  0  0  0  0  0  0  0  0  0  0
   -7.1000   19.8550  -32.2410 C   0  0  0  0  0  0  0  0  0  0  0  0
   -6.9680   18.3930  -32.5820 C   0  0  0  0  0  0  0  0  0  0  0  0
   -6.1190   18.1910  -33.8370 C   0  0  0  0  0  0  0  0  0  0  0  0
   -6.1070   19.3640  -34.6050 O   0  0  0  0  0  0  0  0  0  0  0  0
   -5.9600   20.6010  -31.8670 C   0  0  0  0  0  0  0  0  0  0  0  0
   -6.1300   21.9500  -31.5360 C   0  0  0  0  0  0  0  0  0  0  0  0
   -2.7698   23.6843  -27.0684 H   0  0  0  0  0  0  0  0  0  0  0  0
   -3.5038   25.1058  -27.8852 H   0  0  0  0  0  0  0  0  0  0  0  0
   -4.3619   23.5278  -27.8852 H   0  0  0  0  0  0  0  0  0  0  0  0
   -2.3748   21.6957  -29.6348 H   0  0  0  0  0  0  0  0  0  0  0  0
   -3.9842   22.0485  -28.9084 H   0  0  0  0  0  0  0  0  0  0  0  0
   -3.1040   25.2980  -30.3180 H   0  0  0  0  0  0  0  0  0  0  0  0
   -8.0190   24.5860  -30.9956 H   0  0  0  0  0  0  0  0  0  0  0  0
   -9.5067   22.3062  -31.8848 H   0  0  0  0  0  0  0  0  0  0  0  0
   -9.2630   19.8872  -32.5289 H   0  0  0  0  0  0  0  0  0  0  0  0
   -6.4924   17.8698  -31.7393 H   0  0  0  0  0  0  0  0  0  0  0  0
   -7.9729   17.9885  -32.7732 H   0  0  0  0  0  0  0  0  0  0  0  0
   -5.0896   17.9382  -33.5430 H   0  0  0  0  0  0  0  0  0  0  0  0
   -6.5491   17.3739  -34.4348 H   0  0  0  0  0  0  0  0  0  0  0  0
   -6.9710   19.3840  -35.0910 H   0  0  0  0  0  0  0  0  0  0  0  0
   -4.9647   20.1336  -31.8368 H   0  0  0  0  0  0  0  0  0  0  0  0
  1  2  1  0
  2  3  1  0
  3  4  1  0
  4  5  2  0
  4  6  1  0
  6  7  1  0
  7  8  1  0
  8  9  1  0
  8 10  2  0
  7 11  2  0
 11 12  1  0
 12 13  2  0
 13 14  1  0
 14 15  2  0
 15 16  1  0
 16 17  1  0
 17 18  1  0
 15 19  1  0
 19 20  2  0
 20  6  1  0
 20 12  1  0
  1 21  1  0
  1 22  1  0
  1 23  1  0
  3 24  1  0
  3 25  1  0
  9 26  1  0
 11 27  1  0
 13 28  1  0
 14 29  1  0
 16 30  1  0
 16 31  1  0
 17 32  1  0
 17 33  1  0
 18 34  1  0
 19 35  1  0
M  CHG  1   9  -1
M  END
>  <UniqueID>  (37) 
36

>  <SMILES>  (37) 
COCC(=O)n1c(C([NH-])=O)cc2ccc(CCO)cc21

>  <Energy>  (37) 
72.34686028722052

>  <Genealogy>  (37) 
COCC(=O)n1c(C([NH-])=O)cc2ccc(CCO)cc21 (protonated)
COCC(=O)n1c(C([NH-])=O)cc2ccc(CCO)cc21 (3D coordinates assigned)
COCC(=O)n1c(C([NH-])=O)cc2ccc(CCO)cc21 (optimized conformer: 72.34686028722052 kcal/mol)

>  <smiles>  (37) 
COCC(=O)n1c(C(N)=O)cc2ccc(CCO)cc21

>  <score_type>  (37) 
oracle

>  <origin>  (37) 
adg

>  <m_score__min__energy>  (37) 
-9.6400000000000006

>  <m_primary>  (37) 
energy

$$$$
37:0
     RDKit          3D

 37 38  0  0  0  0  0  0  0  0999 V2000
   -6.3770   17.4410  -31.7710 C   0  0  0  0  0  0  0  0  0  0  0  0
   -6.8490   18.3510  -32.9100 C   0  0  2  0  0  0  0  0  0  0  0  0
   -5.8900   18.3180  -34.0710 C   0  0  0  0  0  0  0  0  0  0  0  0
   -6.1050   18.9640  -35.0860 O   0  0  0  0  0  0  0  0  0  0  0  0
   -7.0820   19.7730  -32.4370 C   0  0  0  0  0  0  0  0  0  0  0  0
   -8.3960   20.2990  -32.3150 C   0  0  0  0  0  0  0  0  0  0  0  0
   -8.6070   21.6190  -31.8830 C   0  0  0  0  0  0  0  0  0  0  0  0
   -7.4910   22.3880  -31.5690 C   0  0  0  0  0  0  0  0  0  0  0  0
   -7.4080   23.6960  -31.1500 C   0  0  0  0  0  0  0  0  0  0  0  0
   -6.0480   23.9490  -30.9930 C   0  0  0  0  0  0  0  0  0  0  0  0
   -5.5120   25.2210  -30.4660 C   0  0  0  0  0  0  0  0  0  0  0  0
   -4.2230   25.6910  -30.8500 N   0  0  0  0  0  0  0  0  0  0  0  0
   -6.1840   25.8790  -29.6270 O   0  0  0  0  0  0  0  0  0  0  0  0
   -5.3170   22.8420  -31.3110 N   0  0  0  0  0  0  0  0  0  0  0  0
   -3.8880   22.7120  -31.3570 C   0  0  0  0  0  0  0  0  0  0  0  0
   -3.3410   22.1380  -32.3370 O   0  0  0  0  0  0  0  0  0  0  0  0
   -3.1140   23.2000  -30.2980 O   0  0  0  0  0  0  0  0  0  0  0  0
   -3.5710   23.2500  -28.9480 C   0  0  0  0  0  0  0  0  0  0  0  0
   -2.9830   24.4620  -28.2280 C   0  0  0  0  0  0  0  0  0  0  0  0
   -2.3360   25.2880  -29.1560 O   0  0  0  0  0  0  0  0  0  0  0  0
   -6.2170   21.8950  -31.6580 C   0  0  0  0  0  0  0  0  0  0  0  0
   -5.9740   20.5900  -32.1040 C   0  0  0  0  0  0  0  0  0  0  0  0
   -6.6190   17.9075  -30.8047 H   0  0  0  0  0  0  0  0  0  0  0  0
   -6.8839   16.4676  -31.8454 H   0  0  0  0  0  0  0  0  0  0  0  0
   -5.2893   17.2946  -31.8454 H   0  0  0  0  0  0  0  0  0  0  0  0
   -7.8157   17.9577  -33.2575 H   0  0  0  0  0  0  0  0  0  0  0  0
   -4.9810   17.7022  -34.0043 H   0  0  0  0  0  0  0  0  0  0  0  0
   -9.2597   19.6643  -32.5621 H   0  0  0  0  0  0  0  0  0  0  0  0
   -9.6229   22.0317  -31.7957 H   0  0  0  0  0  0  0  0  0  0  0  0
   -8.2401   24.3941  -30.9759 H   0  0  0  0  0  0  0  0  0  0  0  0
   -3.3900   25.0620  -30.8180 H   0  0  0  0  0  0  0  0  0  0  0  0
   -4.6686   23.3217  -28.9399 H   0  0  0  0  0  0  0  0  0  0  0  0
   -3.2465   22.3361  -28.4288 H   0  0  0  0  0  0  0  0  0  0  0  0
   -3.7909   25.0245  -27.7372 H   0  0  0  0  0  0  0  0  0  0  0  0
   -2.2597   24.1237  -27.4715 H   0  0  0  0  0  0  0  0  0  0  0  0
   -3.0520   25.6750  -29.7250 H   0  0  0  0  0  0  0  0  0  0  0  0
   -4.9463   20.2082  -32.1937 H   0  0  0  0  0  0  0  0  0  0  0  0
  1  2  1  0
  2  3  1  0
  3  4  2  0
  2  5  1  0
  5  6  2  0
  6  7  1  0
  7  8  2  0
  8  9  1  0
  9 10  2  0
 10 11  1  0
 11 12  1  0
 11 13  2  0
 10 14  1  0
 14 15  1  0
 15 16  2  0
 15 17  1  0
 17 18  1  0
 18 19  1  0
 19 20  1  0
 14 21  1  0
 21 22  2  0
 22  5  1  0
 21  8  1  0
  1 23  1  0
  1 24  1  0
  1 25  1  0
  2 26  1  6
  3 27  1  0
  6 28  1  0
  7 29  1  0
  9 30  1  0
 12 31  1  0
 18 32  1  0
 18 33  1  0
 19 34  1  0
 19 35  1  0
 20 36  1  0
 22 37  1  0
M  CHG  1  12  -1
M  END
>  <UniqueID>  (38) 
37

>  <SMILES>  (38) 
C[C@H](C=O)c1ccc2cc(C([NH-])=O)n(C(=O)OCCO)c2c1

>  <Energy>  (38) 
70.41784971385643

>  <Genealogy>  (38) 
CC(C=O)c1ccc2cc(C([NH-])=O)n(C(=O)OCCO)c2c1 (protonated)
C[C@H](C=O)c1ccc2cc(C([NH-])=O)n(C(=O)OCCO)c2c1 (chirality)
C[C@H](C=O)c1ccc2cc(C([NH-])=O)n(C(=O)OCCO)c2c1 (3D coordinates assigned)
C[C@H](C=O)c1ccc2cc(C([NH-])=O)n(C(=O)OCCO)c2c1 (optimized conformer: 70.41784971385643 kcal/mol)

>  <smiles>  (38) 
CC(C=O)c1ccc2cc(C(N)=O)n(C(=O)OCCO)c2c1

>  <score_type>  (38) 
oracle

>  <origin>  (38) 
adg

>  <m_score__min__energy>  (38) 
-10.529999999999999

>  <m_primary>  (38) 
energy

$$$$
38:0
     RDKit          3D

 49 51  0  0  0  0  0  0  0  0999 V2000
   -8.6460   21.9180  -30.1140 N   0  0  0  0  0  0  0  0  0  0  0  0
   -8.4790   21.0510  -31.2350 C   0  0  0  0  0  0  0  0  0  0  0  0
   -9.4610   20.3900  -31.6630 O   0  0  0  0  0  0  0  0  0  0  0  0
   -7.1530   20.8570  -31.8430 C   0  0  0  0  0  0  0  0  0  0  0  0
   -6.8450   19.7710  -32.6530 C   0  0  0  0  0  0  0  0  0  0  0  0
   -5.5400   19.9640  -33.0350 C   0  0  0  0  0  0  0  0  0  0  0  0
   -4.7230   19.1780  -33.8410 C   0  0  0  0  0  0  0  0  0  0  0  0
   -3.4090   19.6120  -34.0730 C   0  0  0  0  0  0  0  0  0  0  0  0
   -2.9290   20.8180  -33.4930 C   0  0  0  0  0  0  0  0  0  0  0  0
   -1.5800   21.2790  -33.7060 N   0  0  0  0  0  0  0  0  0  0  0  0
   -0.4720   21.0470  -32.7830 C   0  0  0  0  0  0  0  0  0  0  0  0
   -0.6270   21.8230  -31.6480 F   0  0  0  0  0  0  0  0  0  0  0  0
    0.7310   21.3450  -33.3990 F   0  0  0  0  0  0  0  0  0  0  0  0
   -3.7940   21.5870  -32.6820 C   0  0  0  0  0  0  0  0  0  0  0  0
   -5.1050   21.1380  -32.4760 C   0  0  0  0  0  0  0  0  0  0  0  0
   -6.0920   21.7100  -31.7420 N   0  0  0  0  0  0  0  0  0  0  0  0
   -6.0960   23.0330  -31.1660 C   0  0  0  0  0  0  0  0  0  0  0  0
   -6.4270   24.0280  -31.8660 O   0  0  0  0  0  0  0  0  0  0  0  0
   -5.8010   23.2110  -29.8100 O   0  0  0  0  0  0  0  0  0  0  0  0
   -5.3250   24.4390  -29.2620 C   0  0  2  0  0  0  0  0  0  0  0  0
   -6.3320   25.3820  -29.3540 F   0  0  0  0  0  0  0  0  0  0  0  0
   -4.1240   24.9130  -30.0280 C   0  0  0  0  0  0  0  0  0  0  0  0
   -4.2510   25.3140  -31.2170 O   0  0  0  0  0  0  0  0  0  0  0  0
   -2.8450   24.9450  -29.3900 N   0  0  0  0  0  0  0  0  0  0  0  0
   -1.9310   23.8120  -29.3510 C   0  0  0  0  0  0  0  0  0  0  0  0
   -2.6170   22.6270  -28.6590 C   0  0  2  0  0  0  0  0  0  0  0  0
   -1.5990   21.7180  -27.9650 C   0  0  0  0  0  0  0  0  0  0  0  0
   -1.4730   20.5230  -28.8770 C   0  0  0  0  0  0  0  0  0  0  0  0
   -2.8110   20.4590  -29.5840 C   0  0  0  0  0  0  0  0  0  0  0  0
   -3.3350   21.8230  -29.6570 N   0  0  0  0  0  0  0  0  0  0  0  0
   -7.8230   22.3940  -29.6800 H   0  0  0  0  0  0  0  0  0  0  0  0
   -9.5910   22.0550  -29.6900 H   0  0  0  0  0  0  0  0  0  0  0  0
   -7.5050   18.9355  -32.9292 H   0  0  0  0  0  0  0  0  0  0  0  0
   -5.0964   18.2429  -34.2839 H   0  0  0  0  0  0  0  0  0  0  0  0
   -2.7428   19.0124  -34.7108 H   0  0  0  0  0  0  0  0  0  0  0  0
   -1.3700   21.8190  -34.5760 H   0  0  0  0  0  0  0  0  0  0  0  0
   -0.4704   19.9863  -32.4918 H   0  0  0  0  0  0  0  0  0  0  0  0
   -3.4439   22.5221  -32.2204 H   0  0  0  0  0  0  0  0  0  0  0  0
   -5.0383   24.2892  -28.2106 H   0  0  0  0  0  0  0  0  0  0  0  0
   -1.6548   23.5279  -30.3772 H   0  0  0  0  0  0  0  0  0  0  0  0
   -1.0254   24.0898  -28.7918 H   0  0  0  0  0  0  0  0  0  0  0  0
   -3.3085   23.0360  -27.9077 H   0  0  0  0  0  0  0  0  0  0  0  0
   -0.6308   22.2292  -27.8586 H   0  0  0  0  0  0  0  0  0  0  0  0
   -1.9147   21.4367  -26.9495 H   0  0  0  0  0  0  0  0  0  0  0  0
   -0.6557   20.6666  -29.5991 H   0  0  0  0  0  0  0  0  0  0  0  0
   -1.2376   19.5972  -28.3317 H   0  0  0  0  0  0  0  0  0  0  0  0
   -2.6812   20.0517  -30.5975 H   0  0  0  0  0  0  0  0  0  0  0  0
   -3.5070   19.8051  -29.0381 H   0  0  0  0  0  0  0  0  0  0  0  0
   -4.3570   21.8070  -29.4220 H   0  0  0  0  0  0  0  0  0  0  0  0
  1  2  1  0
  2  3  2  0
  2  4  1  0
  4  5  2  0
  5  6  1  0
  6  7  2  0
  7  8  1  0
  8  9  2  0
  9 10  1  0
 10 11  1  0
 11 12  1  0
 11 13  1  0
  9 14  1  0
 14 15  2  0
 15 16  1  0
 16 17  1  0
 17 18  2  0
 17 19  1  0
 19 20  1  0
 20 21  1  0
 20 22  1  0
 22 23  2  0
 22 24  1  0
 24 25  1  0
 25 26  1  0
 26 27  1  0
 27 28  1  0
 28 29  1  0
 29 30  1  0
 16  4  1  0
 30 26  1  0
 15  6  1  0
  1 31  1  0
  1 32  1  0
  5 33  1  0
  7 34  1  0
  8 35  1  0
 10 36  1  0
 11 37  1  0
 14 38  1  0
 20 39  1  1
 25 40  1  0
 25 41  1  0
 26 42  1  1
 27 43  1  0
 27 44  1  0
 28 45  1  0
 28 46  1  0
 29 47  1  0
 29 48  1  0
 30 49  1  0
M  CHG  1  24  -1
M  END
>  <UniqueID>  (39) 
38

>  <SMILES>  (39) 
NC(=O)c1cc2ccc(NC(F)F)cc2n1C(=O)O[C@H](F)C(=O)[N-]C[C@@H]1CCCN1

>  <Energy>  (39) 
84.3539800101144

>  <Genealogy>  (39) 
NC(=O)c1cc2ccc(NC(F)F)cc2n1C(=O)OC(F)C(=O)[N-]C[C@@H]1CCCN1 (protonated)
NC(=O)c1cc2ccc(NC(F)F)cc2n1C(=O)O[C@H](F)C(=O)[N-]C[C@@H]1CCCN1 (chirality)
NC(=O)c1cc2ccc(NC(F)F)cc2n1C(=O)O[C@H](F)C(=O)[N-]C[C@@H]1CCCN1 (3D coordinates assigned)
NC(=O)c1cc2ccc(NC(F)F)cc2n1C(=O)O[C@H](F)C(=O)[N-]C[C@@H]1CCCN1 (nonaromatic ring conformer: 84.3539800101144 kcal/mol)

>  <smiles>  (39) 
NC(=O)c1cc2ccc(NC(F)F)cc2n1C(=O)OC(F)C(=O)NC[C@@H]1CCCN1

>  <score_type>  (39) 
oracle

>  <origin>  (39) 
adg

>  <m_score__min__energy>  (39) 
-10.52

>  <m_primary>  (39) 
energy

$$$$
39:0
     RDKit          3D

 40 42  0  0  0  0  0  0  0  0999 V2000
   -3.9750   25.5640  -30.8400 N   0  0  0  0  0  0  0  0  0  0  0  0
   -4.9990   24.8010  -30.2090 C   0  0  0  0  0  0  0  0  0  0  0  0
   -5.5100   25.2230  -29.1370 O   0  0  0  0  0  0  0  0  0  0  0  0
   -5.5060   23.5540  -30.8200 C   0  0  0  0  0  0  0  0  0  0  0  0
   -6.8510   23.3390  -31.1150 C   0  0  0  0  0  0  0  0  0  0  0  0
   -6.8960   22.1210  -31.7520 C   0  0  0  0  0  0  0  0  0  0  0  0
   -7.9840   21.4160  -32.2580 C   0  0  0  0  0  0  0  0  0  0  0  0
   -7.7410   20.1620  -32.8430 C   0  0  0  0  0  0  0  0  0  0  0  0
   -6.4260   19.6380  -32.9110 C   0  0  0  0  0  0  0  0  0  0  0  0
   -6.1760   18.2830  -33.5080 C   0  0  0  0  0  0  0  0  0  0  0  0
   -6.0490   18.3980  -34.8800 F   0  0  0  0  0  0  0  0  0  0  0  0
   -7.2310   17.4380  -33.2160 F   0  0  0  0  0  0  0  0  0  0  0  0
   -5.3480   20.3800  -32.3790 C   0  0  0  0  0  0  0  0  0  0  0  0
   -5.6150   21.6360  -31.8190 C   0  0  0  0  0  0  0  0  0  0  0  0
   -4.7490   22.5030  -31.2480 N   0  0  0  0  0  0  0  0  0  0  0  0
   -3.3370   22.3070  -31.0770 C   0  0  0  0  0  0  0  0  0  0  0  0
   -2.8000   21.2260  -31.4400 O   0  0  0  0  0  0  0  0  0  0  0  0
   -2.5370   23.3500  -30.5140 N   0  0  0  0  0  0  0  0  0  0  0  0
   -1.9160   23.2610  -29.2020 C   0  0  0  0  0  0  0  0  0  0  0  0
   -1.1910   24.5330  -28.9220 C   0  0  0  0  0  0  0  0  0  0  0  0
   -1.8100   25.6310  -28.9610 O   0  0  0  0  0  0  0  0  0  0  0  0
    0.1910   24.4910  -28.5560 N   0  0  0  0  0  0  0  0  0  0  0  0
    0.6550   24.4720  -27.1730 C   0  0  0  0  0  0  0  0  0  0  0  0
   -0.1040   25.4750  -26.3630 C   0  0  0  0  0  0  0  0  0  0  0  0
   -0.9280   25.1950  -25.2810 C   0  0  0  0  0  0  0  0  0  0  0  0
   -1.5370   26.2810  -24.7350 N   0  0  0  0  0  0  0  0  0  0  0  0
   -1.2100   27.4270  -25.3740 C   0  0  0  0  0  0  0  0  0  0  0  0
   -0.1530   27.1320  -26.6490 S   0  0  0  0  0  0  0  0  0  0  0  0
   -2.9690   25.3040  -30.7380 H   0  0  0  0  0  0  0  0  0  0  0  0
   -7.6976   24.0031  -30.8866 H   0  0  0  0  0  0  0  0  0  0  0  0
   -9.0025   21.8278  -32.2017 H   0  0  0  0  0  0  0  0  0  0  0  0
   -8.5803   19.5807  -33.2526 H   0  0  0  0  0  0  0  0  0  0  0  0
   -5.2495   17.8688  -33.0837 H   0  0  0  0  0  0  0  0  0  0  0  0
   -4.3232   19.9810  -32.4039 H   0  0  0  0  0  0  0  0  0  0  0  0
   -2.6905   23.1017  -28.4373 H   0  0  0  0  0  0  0  0  0  0  0  0
   -1.2098   22.4179  -29.1811 H   0  0  0  0  0  0  0  0  0  0  0  0
    0.4979   23.4688  -26.7501 H   0  0  0  0  0  0  0  0  0  0  0  0
    1.7253   24.7247  -27.1485 H   0  0  0  0  0  0  0  0  0  0  0  0
   -1.0763   24.1753  -24.8961 H   0  0  0  0  0  0  0  0  0  0  0  0
   -1.5862   28.4226  -25.0962 H   0  0  0  0  0  0  0  0  0  0  0  0
  1  2  1  0
  2  3  2  0
  2  4  1  0
  4  5  2  0
  5  6  1  0
  6  7  2  0
  7  8  1  0
  8  9  2  0
  9 10  1  0
 10 11  1  0
 10 12  1  0
  9 13  1  0
 13 14  2  0
 14 15  1  0
 15 16  1  0
 16 17  2  0
 16 18  1  0
 18 19  1  0
 19 20  1  0
 20 21  2  0
 20 22  1  0
 22 23  1  0
 23 24  1  0
 24 25  2  0
 25 26  1  0
 26 27  2  0
 27 28  1  0
 15  4  1  0
 28 24  1  0
 14  6  1  0
  1 29  1  0
  5 30  1  0
  7 31  1  0
  8 32  1  0
 10 33  1  0
 13 34  1  0
 19 35  1  0
 19 36  1  0
 23 37  1  0
 23 38  1  0
 25 39  1  0
 27 40  1  0
M  CHG  3   1  -1  18  -1  22  -1
M  END
>  <UniqueID>  (40) 
39

>  <SMILES>  (40) 
[NH-]C(=O)c1cc2ccc(C(F)F)cc2n1C(=O)[N-]CC(=O)[N-]Cc1cncs1

>  <Energy>  (40) 
103.39922689929685

>  <Genealogy>  (40) 
[NH-]C(=O)c1cc2ccc(C(F)F)cc2n1C(=O)[N-]CC(=O)[N-]Cc1cncs1 (protonated)
[NH-]C(=O)c1cc2ccc(C(F)F)cc2n1C(=O)[N-]CC(=O)[N-]Cc1cncs1 (3D coordinates assigned)
[NH-]C(=O)c1cc2ccc(C(F)F)cc2n1C(=O)[N-]CC(=O)[N-]Cc1cncs1 (optimized conformer: 103.39922689929685 kcal/mol)

>  <smiles>  (40) 
NC(=O)c1cc2ccc(C(F)F)cc2n1C(=O)NCC(=O)NCc1cncs1

>  <score_type>  (40) 
oracle

>  <origin>  (40) 
adg

>  <m_score__min__energy>  (40) 
-12.74

>  <m_primary>  (40) 
energy

$$$$
40:0
     RDKit          3D

 42 43  0  0  0  0  0  0  0  0999 V2000
   -1.0070   21.1940  -30.1320 C   0  0  0  0  0  0  0  0  0  0  0  0
   -1.5810   22.6080  -29.9680 C   0  0  2  0  0  0  0  0  0  0  0  0
   -1.2300   23.1990  -28.5950 C   0  0  0  0  0  0  0  0  0  0  0  0
   -0.7860   24.6270  -28.6970 C   0  0  0  0  0  0  0  0  0  0  0  0
    0.3220   24.9830  -28.2170 O   0  0  0  0  0  0  0  0  0  0  0  0
   -1.5850   25.5570  -29.3490 O   0  0  0  0  0  0  0  0  0  0  0  0
   -3.0030   22.5610  -30.0870 O   0  0  0  0  0  0  0  0  0  0  0  0
   -3.6810   22.5150  -31.3110 C   0  0  0  0  0  0  0  0  0  0  0  0
   -3.0480   22.3170  -32.3840 O   0  0  0  0  0  0  0  0  0  0  0  0
   -5.1080   22.6820  -31.3380 N   0  0  0  0  0  0  0  0  0  0  0  0
   -5.8300   23.7740  -30.9590 C   0  0  0  0  0  0  0  0  0  0  0  0
   -5.2820   24.9820  -30.3020 C   0  0  0  0  0  0  0  0  0  0  0  0
   -3.8710   25.1800  -30.1970 N   0  0  0  0  0  0  0  0  0  0  0  0
   -6.0590   25.8660  -29.8540 O   0  0  0  0  0  0  0  0  0  0  0  0
   -7.1880   23.5630  -31.1910 C   0  0  0  0  0  0  0  0  0  0  0  0
   -7.2740   22.2970  -31.7260 C   0  0  0  0  0  0  0  0  0  0  0  0
   -8.3860   21.5820  -32.1510 C   0  0  0  0  0  0  0  0  0  0  0  0
   -8.1820   20.3000  -32.6880 C   0  0  0  0  0  0  0  0  0  0  0  0
   -6.8720   19.7510  -32.8040 C   0  0  0  0  0  0  0  0  0  0  0  0
   -6.6680   18.4310  -33.3720 N   0  0  0  0  0  0  0  0  0  0  0  0
   -7.2340   17.2420  -32.7210 C   0  0  0  0  0  0  0  0  0  0  0  0
   -5.8910   18.2600  -34.6060 C   0  0  0  0  0  0  0  0  0  0  0  0
   -5.7690   20.5240  -32.3580 C   0  0  0  0  0  0  0  0  0  0  0  0
   -6.0070   21.7880  -31.8060 C   0  0  0  0  0  0  0  0  0  0  0  0
   -0.8282   20.7535  -29.1400 H   0  0  0  0  0  0  0  0  0  0  0  0
   -1.7229   20.5697  -30.6868 H   0  0  0  0  0  0  0  0  0  0  0  0
   -0.0585   21.2454  -30.6868 H   0  0  0  0  0  0  0  0  0  0  0  0
   -1.1426   23.2424  -30.7525 H   0  0  0  0  0  0  0  0  0  0  0  0
   -2.1186   23.1484  -27.9486 H   0  0  0  0  0  0  0  0  0  0  0  0
   -0.3992   22.6133  -28.1746 H   0  0  0  0  0  0  0  0  0  0  0  0
   -3.1960   24.4460  -30.5040 H   0  0  0  0  0  0  0  0  0  0  0  0
   -3.4960   26.0540  -29.7670 H   0  0  0  0  0  0  0  0  0  0  0  0
   -8.0152   24.2596  -30.9896 H   0  0  0  0  0  0  0  0  0  0  0  0
   -9.3972   22.0071  -32.0695 H   0  0  0  0  0  0  0  0  0  0  0  0
   -9.0475   19.7103  -33.0244 H   0  0  0  0  0  0  0  0  0  0  0  0
   -7.1777   17.3602  -31.6288 H   0  0  0  0  0  0  0  0  0  0  0  0
   -8.2850   17.1238  -33.0233 H   0  0  0  0  0  0  0  0  0  0  0  0
   -6.6631   16.3517  -33.0233 H   0  0  0  0  0  0  0  0  0  0  0  0
   -4.8457   18.0300  -34.3522 H   0  0  0  0  0  0  0  0  0  0  0  0
   -6.3156   17.4338  -35.1952 H   0  0  0  0  0  0  0  0  0  0  0  0
   -5.9295   19.1881  -35.1952 H   0  0  0  0  0  0  0  0  0  0  0  0
   -4.7433   20.1362  -32.4447 H   0  0  0  0  0  0  0  0  0  0  0  0
  1  2  1  0
  2  3  1  0
  3  4  1  0
  4  5  2  0
  4  6  1  0
  2  7  1  0
  7  8  1  0
  8  9  2  0
  8 10  1  0
 10 11  1  0
 11 12  1  0
 12 13  1  0
 12 14  2  0
 11 15  2  0
 15 16  1  0
 16 17  2  0
 17 18  1  0
 18 19  2  0
 19 20  1  0
 20 21  1  0
 20 22  1  0
 19 23  1  0
 23 24  2  0
 24 10  1  0
 24 16  1  0
  1 25  1  0
  1 26  1  0
  1 27  1  0
  2 28  1  6
  3 29  1  0
  3 30  1  0
 13 31  1  0
 13 32  1  0
 15 33  1  0
 17 34  1  0
 18 35  1  0
 21 36  1  0
 21 37  1  0
 21 38  1  0
 22 39  1  0
 22 40  1  0
 22 41  1  0
 23 42  1  0
M  CHG  1   6  -1
M  END
>  <UniqueID>  (41) 
40

>  <SMILES>  (41) 
C[C@H](CC(=O)[O-])OC(=O)n1c(C(N)=O)cc2ccc(N(C)C)cc21

>  <Energy>  (41) 
75.65447983398532

>  <Genealogy>  (41) 
CC(CC(=O)[O-])OC(=O)n1c(C(N)=O)cc2ccc(N(C)C)cc21 (protonated)
C[C@H](CC(=O)[O-])OC(=O)n1c(C(N)=O)cc2ccc(N(C)C)cc21 (chirality)
C[C@H](CC(=O)[O-])OC(=O)n1c(C(N)=O)cc2ccc(N(C)C)cc21 (3D coordinates assigned)
C[C@H](CC(=O)[O-])OC(=O)n1c(C(N)=O)cc2ccc(N(C)C)cc21 (optimized conformer: 75.65447983398532 kcal/mol)

>  <smiles>  (41) 
CC(CC(=O)O)OC(=O)n1c(C(N)=O)cc2ccc(N(C)C)cc21

>  <score_type>  (41) 
oracle

>  <origin>  (41) 
adg

>  <m_score__min__energy>  (41) 
-11

>  <m_primary>  (41) 
energy

$$$$
41:0
     RDKit          3D

 49 52  0  0  0  0  0  0  0  0999 V2000
   -3.8790   25.5750  -30.8180 N   0  0  0  0  0  0  0  0  0  0  0  0
   -5.1130   25.0270  -30.3600 C   0  0  0  0  0  0  0  0  0  0  0  0
   -5.7440   25.6140  -29.4430 O   0  0  0  0  0  0  0  0  0  0  0  0
   -5.6510   23.8030  -30.9920 C   0  0  0  0  0  0  0  0  0  0  0  0
   -7.0150   23.5400  -31.1070 C   0  0  0  0  0  0  0  0  0  0  0  0
   -7.1000   22.2860  -31.6640 C   0  0  0  0  0  0  0  0  0  0  0  0
   -8.2190   21.5340  -32.0030 C   0  0  0  0  0  0  0  0  0  0  0  0
   -8.0150   20.2740  -32.5890 C   0  0  0  0  0  0  0  0  0  0  0  0
   -6.7030   19.7880  -32.8340 C   0  0  0  0  0  0  0  0  0  0  0  0
   -6.4960   18.4590  -33.4620 C   0  0  0  0  0  0  0  0  0  0  0  0
   -6.9810   17.2410  -33.0180 C   0  0  0  0  0  0  0  0  0  0  0  0
   -6.5350   16.3020  -33.9240 C   0  0  0  0  0  0  0  0  0  0  0  0
   -5.8250   16.8890  -34.8580 O   0  0  0  0  0  0  0  0  0  0  0  0
   -5.7800   18.1790  -34.6150 C   0  0  0  0  0  0  0  0  0  0  0  0
   -5.5920   20.5880  -32.4730 C   0  0  0  0  0  0  0  0  0  0  0  0
   -5.8250   21.8320  -31.8730 C   0  0  0  0  0  0  0  0  0  0  0  0
   -4.9210   22.7530  -31.4700 N   0  0  0  0  0  0  0  0  0  0  0  0
   -3.4930   22.6380  -31.5640 C   0  0  0  0  0  0  0  0  0  0  0  0
   -2.9630   22.2100  -32.6250 O   0  0  0  0  0  0  0  0  0  0  0  0
   -2.6980   22.9790  -30.4630 O   0  0  0  0  0  0  0  0  0  0  0  0
   -2.4360   22.1040  -29.3670 C   0  0  0  0  0  0  0  0  0  0  0  0
   -2.6520   22.8200  -28.0240 C   0  0  0  0  0  0  0  0  0  0  0  0
   -3.0750   24.2400  -28.1870 N   0  0  0  0  0  0  0  0  0  0  0  0
   -1.9120   25.1410  -28.3450 C   0  0  0  0  0  0  0  0  0  0  0  0
   -1.0900   25.2530  -27.0380 C   0  0  0  0  0  0  0  0  0  0  0  0
   -1.7930   24.7870  -25.8990 O   0  0  0  0  0  0  0  0  0  0  0  0
   -3.1070   25.3010  -25.8990 C   0  0  0  0  0  0  0  0  0  0  0  0
   -3.9290   24.7030  -27.0610 C   0  0  0  0  0  0  0  0  0  0  0  0
   -2.9650   25.1920  -30.4870 H   0  0  0  0  0  0  0  0  0  0  0  0
   -7.8473   24.1968  -30.8141 H   0  0  0  0  0  0  0  0  0  0  0  0
   -9.2343   21.9146  -31.8177 H   0  0  0  0  0  0  0  0  0  0  0  0
   -8.8827   19.6554  -32.8618 H   0  0  0  0  0  0  0  0  0  0  0  0
   -7.5966   17.0592  -32.1247 H   0  0  0  0  0  0  0  0  0  0  0  0
   -6.7432   15.2232  -33.8715 H   0  0  0  0  0  0  0  0  0  0  0  0
   -5.2546   18.9229  -35.2320 H   0  0  0  0  0  0  0  0  0  0  0  0
   -4.5657   20.2393  -32.6601 H   0  0  0  0  0  0  0  0  0  0  0  0
   -3.1143   21.2401  -29.4268 H   0  0  0  0  0  0  0  0  0  0  0  0
   -1.3874   21.7766  -29.4240 H   0  0  0  0  0  0  0  0  0  0  0  0
   -3.4305   22.2839  -27.4613 H   0  0  0  0  0  0  0  0  0  0  0  0
   -1.6898   22.8205  -27.4909 H   0  0  0  0  0  0  0  0  0  0  0  0
   -3.6330   24.3290  -29.0680 H   0  0  0  0  0  0  0  0  0  0  0  0
   -1.2628   24.7482  -29.1414 H   0  0  0  0  0  0  0  0  0  0  0  0
   -2.2878   26.1430  -28.5996 H   0  0  0  0  0  0  0  0  0  0  0  0
   -0.1712   24.6587  -27.1500 H   0  0  0  0  0  0  0  0  0  0  0  0
   -0.8729   26.3192  -26.8767 H   0  0  0  0  0  0  0  0  0  0  0  0
   -3.5934   25.0479  -24.9454 H   0  0  0  0  0  0  0  0  0  0  0  0
   -3.0589   26.3926  -26.0260 H   0  0  0  0  0  0  0  0  0  0  0  0
   -4.5052   23.8467  -26.6807 H   0  0  0  0  0  0  0  0  0  0  0  0
   -4.5869   25.4960  -27.4462 H   0  0  0  0  0  0  0  0  0  0  0  0
  1  2  1  0
  2  3  2  0
  2  4  1  0
  4  5  2  0
  5  6  1  0
  6  7  2  0
  7  8  1  0
  8  9  2  0
  9 10  1  0
 10 11  1  0
 11 12  2  0
 12 13  1  0
 13 14  1  0
  9 15  1  0
 15 16  2  0
 16 17  1  0
 17 18  1  0
 18 19  2  0
 18 20  1  0
 20 21  1  0
 21 22  1  0
 22 23  1  0
 23 24  1  0
 24 25  1  0
 25 26  1  0
 26 27  1  0
 27 28  1  0
 17  4  1  0
 28 23  1  0
 16  6  1  0
 14 10  2  0
  1 29  1  0
  5 30  1  0
  7 31  1  0
  8 32  1  0
 11 33  1  0
 12 34  1  0
 14 35  1  0
 15 36  1  0
 21 37  1  0
 21 38  1  0
 22 39  1  0
 22 40  1  0
 23 41  1  0
 24 42  1  0
 24 43  1  0
 25 44  1  0
 25 45  1  0
 27 46  1  0
 27 47  1  0
 28 48  1  0
 28 49  1  0
M  CHG  2   1  -1  23   1
M  END
>  <UniqueID>  (42) 
41

>  <SMILES>  (42) 
[NH-]C(=O)c1cc2ccc(-c3ccoc3)cc2n1C(=O)OCC[NH+]1CCOCC1

>  <Energy>  (42) 
131.70607455740438

>  <Genealogy>  (42) 
[NH-]C(=O)c1cc2ccc(-c3ccoc3)cc2n1C(=O)OCC[NH+]1CCOCC1 (protonated)
[NH-]C(=O)c1cc2ccc(-c3ccoc3)cc2n1C(=O)OCC[NH+]1CCOCC1 (3D coordinates assigned)
[NH-]C(=O)c1cc2ccc(-c3ccoc3)cc2n1C(=O)OCC[NH+]1CCOCC1 (nonaromatic ring conformer: 131.70607455740438 kcal/mol)

>  <smiles>  (42) 
NC(=O)c1cc2ccc(-c3ccoc3)cc2n1C(=O)OCCN1CCOCC1

>  <score_type>  (42) 
oracle

>  <origin>  (42) 
adg

>  <m_score__min__energy>  (42) 
-9.5399999999999991

>  <m_primary>  (42) 
energy

$$$$
42:0
     RDKit          3D

 42 44  0  0  0  0  0  0  0  0999 V2000
   -1.0700   20.8120  -33.9120 C   0  0  0  0  0  0  0  0  0  0  0  0
   -2.4940   21.1270  -33.4730 C   0  0  0  0  0  0  0  0  0  0  0  0
   -3.3900   20.1070  -33.9070 O   0  0  0  0  0  0  0  0  0  0  0  0
   -3.5060   18.8600  -33.2840 C   0  0  0  0  0  0  0  0  0  0  0  0
   -2.5280   18.3660  -32.6590 O   0  0  0  0  0  0  0  0  0  0  0  0
   -4.7640   18.1000  -33.3790 C   0  0  0  0  0  0  0  0  0  0  0  0
   -4.8850   16.7870  -33.7910 C   0  0  0  0  0  0  0  0  0  0  0  0
   -6.1950   16.4880  -33.8620 N   0  0  0  0  0  0  0  0  0  0  0  0
   -6.7540   15.1890  -34.2120 C   0  0  0  0  0  0  0  0  0  0  0  0
   -6.9230   17.5300  -33.4960 N   0  0  0  0  0  0  0  0  0  0  0  0
   -6.0750   18.5350  -33.1940 C   0  0  0  0  0  0  0  0  0  0  0  0
   -6.5360   19.8480  -32.7010 C   0  0  0  0  0  0  0  0  0  0  0  0
   -7.9170   20.1560  -32.7210 C   0  0  0  0  0  0  0  0  0  0  0  0
   -8.3840   21.3890  -32.2330 C   0  0  0  0  0  0  0  0  0  0  0  0
   -7.4470   22.2880  -31.7310 C   0  0  0  0  0  0  0  0  0  0  0  0
   -7.6270   23.5340  -31.1750 C   0  0  0  0  0  0  0  0  0  0  0  0
   -6.3500   23.9700  -30.8330 C   0  0  0  0  0  0  0  0  0  0  0  0
   -6.0750   25.3060  -30.2660 C   0  0  0  0  0  0  0  0  0  0  0  0
   -6.5210   25.6600  -28.9560 N   0  0  0  0  0  0  0  0  0  0  0  0
   -5.3850   26.1280  -30.9270 O   0  0  0  0  0  0  0  0  0  0  0  0
   -5.4170   23.0290  -31.1490 N   0  0  0  0  0  0  0  0  0  0  0  0
   -4.0090   23.0580  -30.8600 C   0  0  0  0  0  0  0  0  0  0  0  0
   -3.3570   24.2960  -30.5860 N   0  0  0  0  0  0  0  0  0  0  0  0
   -3.3430   21.9880  -30.8350 O   0  0  0  0  0  0  0  0  0  0  0  0
   -6.1060   22.0040  -31.7020 C   0  0  0  0  0  0  0  0  0  0  0  0
   -5.6190   20.7720  -32.1530 C   0  0  0  0  0  0  0  0  0  0  0  0
   -0.4353   20.6716  -33.0246 H   0  0  0  0  0  0  0  0  0  0  0  0
   -1.0671   19.8915  -34.5142 H   0  0  0  0  0  0  0  0  0  0  0  0
   -0.6791   21.6454  -34.5142 H   0  0  0  0  0  0  0  0  0  0  0  0
   -2.5274   21.1946  -32.3756 H   0  0  0  0  0  0  0  0  0  0  0  0
   -2.8004   22.0830  -33.9226 H   0  0  0  0  0  0  0  0  0  0  0  0
   -4.0540   16.1040  -34.0212 H   0  0  0  0  0  0  0  0  0  0  0  0
   -6.9932   14.6332  -33.2934 H   0  0  0  0  0  0  0  0  0  0  0  0
   -7.6704   15.3315  -34.8035 H   0  0  0  0  0  0  0  0  0  0  0  0
   -6.0205   14.6215  -34.8035 H   0  0  0  0  0  0  0  0  0  0  0  0
   -8.6324   19.4232  -33.1225 H   0  0  0  0  0  0  0  0  0  0  0  0
   -9.4559   21.6356  -32.2474 H   0  0  0  0  0  0  0  0  0  0  0  0
   -8.5766   24.0705  -31.0316 H   0  0  0  0  0  0  0  0  0  0  0  0
   -6.9490   24.9490  -28.3230 H   0  0  0  0  0  0  0  0  0  0  0  0
   -6.3500   26.6210  -28.5870 H   0  0  0  0  0  0  0  0  0  0  0  0
   -3.4900   25.1210  -31.2110 H   0  0  0  0  0  0  0  0  0  0  0  0
   -4.5485   20.5292  -32.0825 H   0  0  0  0  0  0  0  0  0  0  0  0
  1  2  1  0
  2  3  1  0
  3  4  1  0
  4  5  2  0
  4  6  1  0
  6  7  2  0
  7  8  1  0
  8  9  1  0
  8 10  1  0
 10 11  2  0
 11 12  1  0
 12 13  2  0
 13 14  1  0
 14 15  2  0
 15 16  1  0
 16 17  2  0
 17 18  1  0
 18 19  1  0
 18 20  2  0
 17 21  1  0
 21 22  1  0
 22 23  1  0
 22 24  2  0
 21 25  1  0
 25 26  2  0
 11  6  1  0
 26 12  1  0
 25 15  1  0
  1 27  1  0
  1 28  1  0
  1 29  1  0
  2 30  1  0
  2 31  1  0
  7 32  1  0
  9 33  1  0
  9 34  1  0
  9 35  1  0
 13 36  1  0
 14 37  1  0
 16 38  1  0
 19 39  1  0
 19 40  1  0
 23 41  1  0
 26 42  1  0
M  CHG  1  23  -1
M  END
>  <UniqueID>  (43) 
42

>  <SMILES>  (43) 
CCOC(=O)c1cn(C)nc1-c1ccc2cc(C(N)=O)n(C([NH-])=O)c2c1

>  <Energy>  (43) 
112.97870657075286

>  <Genealogy>  (43) 
CCOC(=O)c1cn(C)nc1-c1ccc2cc(C(N)=O)n(C([NH-])=O)c2c1 (protonated)
CCOC(=O)c1cn(C)nc1-c1ccc2cc(C(N)=O)n(C([NH-])=O)c2c1 (3D coordinates assigned)
CCOC(=O)c1cn(C)nc1-c1ccc2cc(C(N)=O)n(C([NH-])=O)c2c1 (optimized conformer: 112.97870657075286 kcal/mol)

>  <smiles>  (43) 
CCOC(=O)c1cn(C)nc1-c1ccc2cc(C(N)=O)n(C(N)=O)c2c1

>  <score_type>  (43) 
oracle

>  <origin>  (43) 
adg

>  <m_score__min__energy>  (43) 
-9.3300000000000001

>  <m_primary>  (43) 
energy

$$$$
43:0
     RDKit          3D

 47 49  0  0  0  0  0  0  0  0999 V2000
   -3.1920   16.6520  -34.1650 C   0  0  0  0  0  0  0  0  0  0  0  0
   -4.6030   16.8270  -34.5430 N   0  0  0  0  0  0  0  0  0  0  0  0
   -5.4240   15.7170  -34.0010 C   0  0  0  0  0  0  0  0  0  0  0  0
   -6.9100   16.0870  -33.9370 C   0  0  0  0  0  0  0  0  0  0  0  0
   -7.1460   17.2770  -32.9900 C   0  0  0  0  0  0  0  0  0  0  0  0
   -5.9110   18.2030  -32.8850 C   0  0  2  0  0  0  0  0  0  0  0  0
   -6.3040   19.6130  -32.4870 C   0  0  0  0  0  0  0  0  0  0  0  0
   -7.6410   20.0540  -32.6700 C   0  0  0  0  0  0  0  0  0  0  0  0
   -8.0230   21.3590  -32.3230 C   0  0  0  0  0  0  0  0  0  0  0  0
   -7.0540   22.2030  -31.7900 C   0  0  0  0  0  0  0  0  0  0  0  0
   -7.1470   23.5170  -31.3910 C   0  0  0  0  0  0  0  0  0  0  0  0
   -5.8710   23.8610  -30.9510 C   0  0  0  0  0  0  0  0  0  0  0  0
   -5.5430   25.1700  -30.3490 C   0  0  0  0  0  0  0  0  0  0  0  0
   -4.2230   25.6970  -30.4740 N   0  0  0  0  0  0  0  0  0  0  0  0
   -6.4230   25.8470  -29.7550 O   0  0  0  0  0  0  0  0  0  0  0  0
   -5.0200   22.8030  -31.0820 N   0  0  0  0  0  0  0  0  0  0  0  0
   -3.6150   22.7600  -30.7930 C   0  0  0  0  0  0  0  0  0  0  0  0
   -2.7770   23.0450  -31.6920 O   0  0  0  0  0  0  0  0  0  0  0  0
   -3.1800   22.3730  -29.5200 O   0  0  0  0  0  0  0  0  0  0  0  0
   -3.4270   23.1320  -28.3380 C   0  0  0  0  0  0  0  0  0  0  0  0
   -2.3150   24.1560  -28.1020 C   0  0  0  0  0  0  0  0  0  0  0  0
   -2.0470   24.8700  -29.2790 O   0  0  0  0  0  0  0  0  0  0  0  0
   -5.7620   21.7960  -31.5930 C   0  0  0  0  0  0  0  0  0  0  0  0
   -5.3470   20.5080  -31.9470 C   0  0  0  0  0  0  0  0  0  0  0  0
   -5.0950   18.1860  -34.1950 C   0  0  0  0  0  0  0  0  0  0  0  0
   -3.1048   16.6412  -33.0685 H   0  0  0  0  0  0  0  0  0  0  0  0
   -2.8187   15.7007  -34.5719 H   0  0  0  0  0  0  0  0  0  0  0  0
   -2.5976   17.4833  -34.5719 H   0  0  0  0  0  0  0  0  0  0  0  0
   -5.3040   14.8361  -34.6488 H   0  0  0  0  0  0  0  0  0  0  0  0
   -5.0800   15.5051  -32.9779 H   0  0  0  0  0  0  0  0  0  0  0  0
   -7.2566   16.3566  -34.9456 H   0  0  0  0  0  0  0  0  0  0  0  0
   -7.4690   15.2204  -33.5541 H   0  0  0  0  0  0  0  0  0  0  0  0
   -7.9966   17.8643  -33.3663 H   0  0  0  0  0  0  0  0  0  0  0  0
   -7.3470   16.8721  -31.9872 H   0  0  0  0  0  0  0  0  0  0  0  0
   -5.2648   17.8118  -32.0853 H   0  0  0  0  0  0  0  0  0  0  0  0
   -8.3875   19.3635  -33.0894 H   0  0  0  0  0  0  0  0  0  0  0  0
   -9.0573   21.7041  -32.4681 H   0  0  0  0  0  0  0  0  0  0  0  0
   -8.0397   24.1593  -31.4146 H   0  0  0  0  0  0  0  0  0  0  0  0
   -3.4460   25.1140  -30.8580 H   0  0  0  0  0  0  0  0  0  0  0  0
   -4.3861   23.6603  -28.4435 H   0  0  0  0  0  0  0  0  0  0  0  0
   -3.4583   22.4444  -27.4800 H   0  0  0  0  0  0  0  0  0  0  0  0
   -2.6304   24.8584  -27.3164 H   0  0  0  0  0  0  0  0  0  0  0  0
   -1.4026   23.6254  -27.7922 H   0  0  0  0  0  0  0  0  0  0  0  0
   -2.5330   24.4070  -30.0110 H   0  0  0  0  0  0  0  0  0  0  0  0
   -4.3010   20.1967  -31.8093 H   0  0  0  0  0  0  0  0  0  0  0  0
   -5.7340   18.5498  -35.0131 H   0  0  0  0  0  0  0  0  0  0  0  0
   -4.2165   18.8318  -34.0494 H   0  0  0  0  0  0  0  0  0  0  0  0
  1  2  1  0
  2  3  1  0
  3  4  1  0
  4  5  1  0
  5  6  1  0
  6  7  1  0
  7  8  2  0
  8  9  1  0
  9 10  2  0
 10 11  1  0
 11 12  2  0
 12 13  1  0
 13 14  1  0
 13 15  2  0
 12 16  1  0
 16 17  1  0
 17 18  2  0
 17 19  1  0
 19 20  1  0
 20 21  1  0
 21 22  1  0
 16 23  1  0
 23 24  2  0
  6 25  1  0
 25  2  1  0
 24  7  1  0
 23 10  1  0
  1 26  1  0
  1 27  1  0
  1 28  1  0
  3 29  1  0
  3 30  1  0
  4 31  1  0
  4 32  1  0
  5 33  1  0
  5 34  1  0
  6 35  1  1
  8 36  1  0
  9 37  1  0
 11 38  1  0
 14 39  1  0
 20 40  1  0
 20 41  1  0
 21 42  1  0
 21 43  1  0
 22 44  1  0
 24 45  1  0
 25 46  1  0
 25 47  1  0
M  CHG  1  14  -1
M  END
>  <UniqueID>  (44) 
43

>  <SMILES>  (44) 
CN1CCC[C@H](c2ccc3cc(C([NH-])=O)n(C(=O)OCCO)c3c2)C1

>  <Energy>  (44) 
90.90349440127909

>  <Genealogy>  (44) 
CN1CCCC(c2ccc3cc(C([NH-])=O)n(C(=O)OCCO)c3c2)C1 (protonated)
CN1CCC[C@H](c2ccc3cc(C([NH-])=O)n(C(=O)OCCO)c3c2)C1 (chirality)
CN1CCC[C@H](c2ccc3cc(C([NH-])=O)n(C(=O)OCCO)c3c2)C1 (3D coordinates assigned)
CN1CCC[C@H](c2ccc3cc(C([NH-])=O)n(C(=O)OCCO)c3c2)C1 (nonaromatic ring conformer: 90.90349440127909 kcal/mol)

>  <smiles>  (44) 
CN1CCCC(c2ccc3cc(C(N)=O)n(C(=O)OCCO)c3c2)C1

>  <score_type>  (44) 
oracle

>  <origin>  (44) 
adg

>  <m_score__min__energy>  (44) 
-11.640000000000001

>  <m_primary>  (44) 
energy

$$$$
44:0
     RDKit          3D

 38 40  0  0  0  0  0  0  0  0999 V2000
    0.5580   24.2970  -26.8580 C   0  0  0  0  0  0  0  0  0  0  0  0
    0.3710   24.5480  -28.2460 O   0  0  0  0  0  0  0  0  0  0  0  0
   -0.8800   24.8440  -28.7960 C   0  0  0  0  0  0  0  0  0  0  0  0
   -1.2460   26.0410  -28.9480 O   0  0  0  0  0  0  0  0  0  0  0  0
   -1.7750   23.7560  -29.1990 C   0  0  0  0  0  0  0  0  0  0  0  0
   -2.0370   22.6110  -28.4720 C   0  0  0  0  0  0  0  0  0  0  0  0
   -2.9290   21.8830  -29.2310 C   0  0  0  0  0  0  0  0  0  0  0  0
   -3.1550   22.6340  -30.3690 C   0  0  0  0  0  0  0  0  0  0  0  0
   -4.0420   22.2690  -31.4840 C   0  0  0  0  0  0  0  0  0  0  0  0
   -3.5500   21.8230  -32.5550 O   0  0  0  0  0  0  0  0  0  0  0  0
   -5.4640   22.4320  -31.3670 N   0  0  0  0  0  0  0  0  0  0  0  0
   -6.1380   23.5440  -30.9580 C   0  0  0  0  0  0  0  0  0  0  0  0
   -5.5090   24.7810  -30.4410 C   0  0  0  0  0  0  0  0  0  0  0  0
   -5.8600   25.3040  -29.1590 N   0  0  0  0  0  0  0  0  0  0  0  0
   -4.6370   25.3800  -31.1270 O   0  0  0  0  0  0  0  0  0  0  0  0
   -7.5140   23.3300  -31.0270 C   0  0  0  0  0  0  0  0  0  0  0  0
   -7.6620   22.0460  -31.5040 C   0  0  0  0  0  0  0  0  0  0  0  0
   -8.8160   21.3200  -31.7810 C   0  0  0  0  0  0  0  0  0  0  0  0
   -8.6690   20.0190  -32.2920 C   0  0  0  0  0  0  0  0  0  0  0  0
   -7.3800   19.4760  -32.5260 C   0  0  0  0  0  0  0  0  0  0  0  0
   -7.2450   18.0900  -33.0870 C   0  0  0  0  0  0  0  0  0  0  0  0
   -6.3940   18.1070  -34.1770 F   0  0  0  0  0  0  0  0  0  0  0  0
   -6.7320   17.2450  -32.1200 F   0  0  0  0  0  0  0  0  0  0  0  0
   -6.2310   20.2460  -32.2370 C   0  0  0  0  0  0  0  0  0  0  0  0
   -6.4090   21.5280  -31.7060 C   0  0  0  0  0  0  0  0  0  0  0  0
   -2.4510   23.7420  -30.3230 O   0  0  0  0  0  0  0  0  0  0  0  0
    0.0018   25.0436  -26.2722 H   0  0  0  0  0  0  0  0  0  0  0  0
    0.1882   23.2901  -26.6144 H   0  0  0  0  0  0  0  0  0  0  0  0
    1.6286   24.3633  -26.6144 H   0  0  0  0  0  0  0  0  0  0  0  0
   -1.6206   22.3369  -27.4914 H   0  0  0  0  0  0  0  0  0  0  0  0
   -3.3696   20.9063  -28.9821 H   0  0  0  0  0  0  0  0  0  0  0  0
   -6.6240   24.8810  -28.5870 H   0  0  0  0  0  0  0  0  0  0  0  0
   -5.3820   26.1570  -28.7940 H   0  0  0  0  0  0  0  0  0  0  0  0
   -8.3126   24.0369  -30.7576 H   0  0  0  0  0  0  0  0  0  0  0  0
   -9.8127   21.7509  -31.6055 H   0  0  0  0  0  0  0  0  0  0  0  0
   -9.5623   19.4162  -32.5125 H   0  0  0  0  0  0  0  0  0  0  0  0
   -8.2361   17.7313  -33.4019 H   0  0  0  0  0  0  0  0  0  0  0  0
   -5.2229   19.8478  -32.4246 H   0  0  0  0  0  0  0  0  0  0  0  0
  1  2  1  0
  2  3  1  0
  3  4  2  0
  3  5  1  0
  5  6  2  0
  6  7  1  0
  7  8  2  0
  8  9  1  0
  9 10  2  0
  9 11  1  0
 11 12  1  0
 12 13  1  0
 13 14  1  0
 13 15  2  0
 12 16  2  0
 16 17  1  0
 17 18  2  0
 18 19  1  0
 19 20  2  0
 20 21  1  0
 21 22  1  0
 21 23  1  0
 20 24  1  0
 24 25  2  0
  8 26  1  0
 26  5  1  0
 25 11  1  0
 25 17  1  0
  1 27  1  0
  1 28  1  0
  1 29  1  0
  6 30  1  0
  7 31  1  0
 14 32  1  0
 14 33  1  0
 16 34  1  0
 18 35  1  0
 19 36  1  0
 21 37  1  0
 24 38  1  0
M  END
>  <UniqueID>  (45) 
44

>  <SMILES>  (45) 
COC(=O)c1ccc(C(=O)n2c(C(N)=O)cc3ccc(C(F)F)cc32)o1

>  <Energy>  (45) 
100.86792438535343

>  <Genealogy>  (45) 
COC(=O)c1ccc(C(=O)n2c(C(N)=O)cc3ccc(C(F)F)cc32)o1 (3D coordinates assigned)
COC(=O)c1ccc(C(=O)n2c(C(N)=O)cc3ccc(C(F)F)cc32)o1 (optimized conformer: 100.86792438535343 kcal/mol)

>  <smiles>  (45) 
COC(=O)c1ccc(C(=O)n2c(C(N)=O)cc3ccc(C(F)F)cc32)o1

>  <score_type>  (45) 
oracle

>  <origin>  (45) 
adg

>  <m_score__min__energy>  (45) 
-9.7200000000000006

>  <m_primary>  (45) 
energy

$$$$
45:0
     RDKit          3D

 38 39  0  0  0  0  0  0  0  0999 V2000
   -7.2370   23.4280  -30.5440 C   0  0  0  0  0  0  0  0  0  0  0  0
   -6.5840   23.2480  -31.8720 C   0  0  0  0  0  0  0  0  0  0  0  0
   -5.9120   24.1940  -32.3650 O   0  0  0  0  0  0  0  0  0  0  0  0
   -6.7740   22.0480  -32.5700 O   0  0  0  0  0  0  0  0  0  0  0  0
   -6.6500   20.7650  -32.0150 C   0  0  0  0  0  0  0  0  0  0  0  0
   -7.5260   20.3210  -31.2210 O   0  0  0  0  0  0  0  0  0  0  0  0
   -5.4700   19.8820  -32.3860 C   0  0  0  0  0  0  0  0  0  0  0  0
   -5.2690   19.8600  -33.9170 C   0  0  0  0  0  0  0  0  0  0  0  0
   -5.8160   18.4470  -31.9250 C   0  0  0  0  0  0  0  0  0  0  0  0
   -4.1900   20.4380  -31.7410 C   0  0  0  0  0  0  0  0  0  0  0  0
   -2.9630   19.7120  -31.7220 C   0  0  0  0  0  0  0  0  0  0  0  0
   -1.8050   20.2580  -31.1450 C   0  0  0  0  0  0  0  0  0  0  0  0
   -1.8800   21.5380  -30.6110 C   0  0  0  0  0  0  0  0  0  0  0  0
   -0.9190   22.2900  -29.9770 C   0  0  0  0  0  0  0  0  0  0  0  0
   -1.5440   23.4900  -29.6510 C   0  0  0  0  0  0  0  0  0  0  0  0
   -0.8390   24.6300  -29.0270 C   0  0  0  0  0  0  0  0  0  0  0  0
   -1.4380   25.9210  -28.9660 N   0  0  0  0  0  0  0  0  0  0  0  0
    0.3300   24.4720  -28.5850 O   0  0  0  0  0  0  0  0  0  0  0  0
   -2.8460   23.4770  -30.0590 N   0  0  0  0  0  0  0  0  0  0  0  0
   -3.8490   24.4820  -29.8400 C   0  0  0  0  0  0  0  0  0  0  0  0
   -3.8780   25.5180  -30.5550 O   0  0  0  0  0  0  0  0  0  0  0  0
   -4.7800   24.3330  -28.8200 O   0  0  0  0  0  0  0  0  0  0  0  0
   -3.0340   22.2750  -30.6480 C   0  0  0  0  0  0  0  0  0  0  0  0
   -4.2080   21.7510  -31.1980 C   0  0  0  0  0  0  0  0  0  0  0  0
   -6.5070   23.2268  -29.7462 H   0  0  0  0  0  0  0  0  0  0  0  0
   -7.6043   24.4609  -30.4530 H   0  0  0  0  0  0  0  0  0  0  0  0
   -8.0816   22.7292  -30.4530 H   0  0  0  0  0  0  0  0  0  0  0  0
   -4.1992   19.7429  -34.1447 H   0  0  0  0  0  0  0  0  0  0  0  0
   -5.8300   19.0179  -34.3484 H   0  0  0  0  0  0  0  0  0  0  0  0
   -5.6346   20.8035  -34.3484 H   0  0  0  0  0  0  0  0  0  0  0  0
   -5.8256   18.4073  -30.8258 H   0  0  0  0  0  0  0  0  0  0  0  0
   -6.8074   18.1670  -32.3107 H   0  0  0  0  0  0  0  0  0  0  0  0
   -5.0611   17.7460  -32.3107 H   0  0  0  0  0  0  0  0  0  0  0  0
   -2.9228   18.7068  -32.1670 H   0  0  0  0  0  0  0  0  0  0  0  0
   -0.8647   19.6879  -31.1167 H   0  0  0  0  0  0  0  0  0  0  0  0
    0.1230   22.0037  -29.7711 H   0  0  0  0  0  0  0  0  0  0  0  0
   -2.4760   26.0320  -28.9590 H   0  0  0  0  0  0  0  0  0  0  0  0
   -5.1325   22.3469  -31.2101 H   0  0  0  0  0  0  0  0  0  0  0  0
  1  2  1  0
  2  3  2  0
  2  4  1  0
  4  5  1  0
  5  6  2  0
  5  7  1  0
  7  8  1  0
  7  9  1  0
  7 10  1  0
 10 11  2  0
 11 12  1  0
 12 13  2  0
 13 14  1  0
 14 15  2  0
 15 16  1  0
 16 17  1  0
 16 18  2  0
 15 19  1  0
 19 20  1  0
 20 21  2  0
 20 22  1  0
 19 23  1  0
 23 24  2  0
 24 10  1  0
 23 13  1  0
  1 25  1  0
  1 26  1  0
  1 27  1  0
  8 28  1  0
  8 29  1  0
  8 30  1  0
  9 31  1  0
  9 32  1  0
  9 33  1  0
 11 34  1  0
 12 35  1  0
 14 36  1  0
 17 37  1  0
 24 38  1  0
M  CHG  2  17  -1  22  -1
M  END
>  <UniqueID>  (46) 
45

>  <SMILES>  (46) 
CC(=O)OC(=O)C(C)(C)c1ccc2cc(C([NH-])=O)n(C(=O)[O-])c2c1

>  <Energy>  (46) 
79.9740317728012

>  <Genealogy>  (46) 
CC(=O)OC(=O)C(C)(C)c1ccc2cc(C([NH-])=O)n(C(=O)[O-])c2c1 (protonated)
CC(=O)OC(=O)C(C)(C)c1ccc2cc(C([NH-])=O)n(C(=O)[O-])c2c1 (3D coordinates assigned)
CC(=O)OC(=O)C(C)(C)c1ccc2cc(C([NH-])=O)n(C(=O)[O-])c2c1 (optimized conformer: 79.9740317728012 kcal/mol)

>  <smiles>  (46) 
CC(=O)OC(=O)C(C)(C)c1ccc2cc(C(N)=O)n(C(=O)O)c2c1

>  <score_type>  (46) 
oracle

>  <origin>  (46) 
adg

>  <m_score__min__energy>  (46) 
-11.220000000000001

>  <m_primary>  (46) 
energy

$$$$
46:0
     RDKit          3D

 38 39  0  0  0  0  0  0  0  0999 V2000
   -4.1970   25.5780  -30.7210 N   0  0  0  0  0  0  0  0  0  0  0  0
   -5.4450   25.1040  -30.2180 C   0  0  0  0  0  0  0  0  0  0  0  0
   -6.0640   25.7920  -29.3630 O   0  0  0  0  0  0  0  0  0  0  0  0
   -6.0090   23.8080  -30.6480 C   0  0  0  0  0  0  0  0  0  0  0  0
   -7.3350   23.6400  -31.0410 C   0  0  0  0  0  0  0  0  0  0  0  0
   -7.4250   22.3340  -31.4720 C   0  0  0  0  0  0  0  0  0  0  0  0
   -8.5020   21.6380  -32.0110 C   0  0  0  0  0  0  0  0  0  0  0  0
   -8.2890   20.3110  -32.4240 C   0  0  0  0  0  0  0  0  0  0  0  0
   -7.0120   19.7100  -32.2880 C   0  0  0  0  0  0  0  0  0  0  0  0
   -6.7840   18.3040  -32.7770 C   0  0  0  0  0  0  0  0  0  0  0  0
   -6.0980   18.3020  -34.1410 C   0  0  0  0  0  0  0  0  0  0  0  0
   -5.9960   17.0040  -34.6060 F   0  0  0  0  0  0  0  0  0  0  0  0
   -4.8290   18.8450  -34.0390 F   0  0  0  0  0  0  0  0  0  0  0  0
   -5.9400   20.4530  -31.7480 C   0  0  0  0  0  0  0  0  0  0  0  0
   -6.1860   21.7670  -31.3410 C   0  0  0  0  0  0  0  0  0  0  0  0
   -5.3070   22.6550  -30.8320 N   0  0  0  0  0  0  0  0  0  0  0  0
   -3.8900   22.4640  -30.7400 C   0  0  0  0  0  0  0  0  0  0  0  0
   -3.1320   22.9770  -31.6050 O   0  0  0  0  0  0  0  0  0  0  0  0
   -3.3010   21.6990  -29.5950 C   0  0  0  0  0  0  0  0  0  0  0  0
   -3.6750   22.5370  -28.0150 S   0  0  0  0  0  0  0  0  0  0  0  0
   -2.0630   23.3820  -27.8140 C   0  0  0  0  0  0  0  0  0  0  0  0
   -1.5830   23.9520  -29.1440 C   0  0  0  0  0  0  0  0  0  0  0  0
   -0.2040   23.8740  -29.2110 F   0  0  0  0  0  0  0  0  0  0  0  0
   -1.9660   25.2750  -29.2680 F   0  0  0  0  0  0  0  0  0  0  0  0
   -3.5400   24.9410  -31.2210 H   0  0  0  0  0  0  0  0  0  0  0  0
   -3.8640   26.5370  -30.4740 H   0  0  0  0  0  0  0  0  0  0  0  0
   -8.1391   24.3901  -31.0132 H   0  0  0  0  0  0  0  0  0  0  0  0
   -9.4899   22.1112  -32.1111 H   0  0  0  0  0  0  0  0  0  0  0  0
   -9.1200   19.7343  -32.8562 H   0  0  0  0  0  0  0  0  0  0  0  0
   -6.1488   17.7707  -32.0544 H   0  0  0  0  0  0  0  0  0  0  0  0
   -7.7595   17.8053  -32.8753 H   0  0  0  0  0  0  0  0  0  0  0  0
   -6.6970   18.9053  -34.8390 H   0  0  0  0  0  0  0  0  0  0  0  0
   -4.9381   20.0096  -31.6502 H   0  0  0  0  0  0  0  0  0  0  0  0
   -3.7274   20.6852  -29.5781 H   0  0  0  0  0  0  0  0  0  0  0  0
   -2.2098   21.6461  -29.7230 H   0  0  0  0  0  0  0  0  0  0  0  0
   -2.1731   24.2016  -27.0887 H   0  0  0  0  0  0  0  0  0  0  0  0
   -1.3233   22.6512  -27.4552 H   0  0  0  0  0  0  0  0  0  0  0  0
   -2.0334   23.3673  -29.9596 H   0  0  0  0  0  0  0  0  0  0  0  0
  1  2  1  0
  2  3  2  0
  2  4  1  0
  4  5  2  0
  5  6  1  0
  6  7  2  0
  7  8  1  0
  8  9  2  0
  9 10  1  0
 10 11  1  0
 11 12  1  0
 11 13  1  0
  9 14  1  0
 14 15  2  0
 15 16  1  0
 16 17  1  0
 17 18  2  0
 17 19  1  0
 19 20  1  0
 20 21  1  0
 21 22  1  0
 22 23  1  0
 22 24  1  0
 16  4  1  0
 15  6  1  0
  1 25  1  0
  1 26  1  0
  5 27  1  0
  7 28  1  0
  8 29  1  0
 10 30  1  0
 10 31  1  0
 11 32  1  0
 14 33  1  0
 19 34  1  0
 19 35  1  0
 21 36  1  0
 21 37  1  0
 22 38  1  0
M  END
>  <UniqueID>  (47) 
46

>  <SMILES>  (47) 
NC(=O)c1cc2ccc(CC(F)F)cc2n1C(=O)CSCC(F)F

>  <Energy>  (47) 
71.17570140767847

>  <Genealogy>  (47) 
NC(=O)c1cc2ccc(CC(F)F)cc2n1C(=O)CSCC(F)F (3D coordinates assigned)
NC(=O)c1cc2ccc(CC(F)F)cc2n1C(=O)CSCC(F)F (optimized conformer: 71.17570140767847 kcal/mol)

>  <smiles>  (47) 
NC(=O)c1cc2ccc(CC(F)F)cc2n1C(=O)CSCC(F)F

>  <score_type>  (47) 
oracle

>  <origin>  (47) 
adg

>  <m_score__min__energy>  (47) 
-7.9000000000000004

>  <m_primary>  (47) 
energy

$$$$
47:0
     RDKit          3D

 53 55  0  0  0  0  0  0  0  0999 V2000
   -6.1120   15.7940  -33.8430 C   0  0  0  0  0  0  0  0  0  0  0  0
   -5.6680   17.0820  -34.3530 N   0  0  0  0  0  0  0  0  0  0  0  0
   -6.2010   18.3410  -33.9240 C   0  0  0  0  0  0  0  0  0  0  0  0
   -5.9230   19.3730  -34.5920 O   0  0  0  0  0  0  0  0  0  0  0  0
   -7.0600   18.4380  -32.6880 C   0  0  0  0  0  0  0  0  0  0  0  0
   -7.1820   19.8530  -32.1810 C   0  0  0  0  0  0  0  0  0  0  0  0
   -8.4620   20.4260  -31.9780 C   0  0  0  0  0  0  0  0  0  0  0  0
   -8.5890   21.7590  -31.5500 C   0  0  0  0  0  0  0  0  0  0  0  0
   -7.4240   22.4900  -31.3370 C   0  0  0  0  0  0  0  0  0  0  0  0
   -7.2590   23.8030  -30.9600 C   0  0  0  0  0  0  0  0  0  0  0  0
   -5.8820   24.0090  -30.9290 C   0  0  0  0  0  0  0  0  0  0  0  0
   -5.2580   25.2740  -30.4920 C   0  0  0  0  0  0  0  0  0  0  0  0
   -3.9510   25.6370  -30.9290 N   0  0  0  0  0  0  0  0  0  0  0  0
   -5.8680   26.0240  -29.6840 O   0  0  0  0  0  0  0  0  0  0  0  0
   -5.2200   22.8690  -31.2790 N   0  0  0  0  0  0  0  0  0  0  0  0
   -3.8080   22.6990  -31.4710 C   0  0  0  0  0  0  0  0  0  0  0  0
   -3.3820   22.0550  -32.4690 O   0  0  0  0  0  0  0  0  0  0  0  0
   -2.9100   23.2710  -30.5610 O   0  0  0  0  0  0  0  0  0  0  0  0
   -3.1190   23.2810  -29.1500 C   0  0  0  0  0  0  0  0  0  0  0  0
   -2.1930   24.2500  -28.4610 C   0  0  0  0  0  0  0  0  0  0  0  0
   -2.0150   25.3950  -28.9640 O   0  0  0  0  0  0  0  0  0  0  0  0
   -1.4930   23.8860  -27.2520 N   0  0  0  0  0  0  0  0  0  0  0  0
   -1.4400   22.4910  -26.7930 C   0  0  0  0  0  0  0  0  0  0  0  0
   -0.1910   22.2600  -25.9290 C   0  0  0  0  0  0  0  0  0  0  0  0
   -0.0800   23.2070  -24.7900 N   0  0  0  0  0  0  0  0  0  0  0  0
   -0.4890   22.5740  -23.5260 C   0  0  0  0  0  0  0  0  0  0  0  0
   -0.7920   24.4930  -24.9780 C   0  0  0  0  0  0  0  0  0  0  0  0
   -0.8350   24.9220  -26.4480 C   0  0  0  0  0  0  0  0  0  0  0  0
   -6.1780   21.9480  -31.5240 C   0  0  0  0  0  0  0  0  0  0  0  0
   -6.0220   20.6300  -31.9670 C   0  0  0  0  0  0  0  0  0  0  0  0
   -6.1054   15.8131  -32.7432 H   0  0  0  0  0  0  0  0  0  0  0  0
   -7.1323   15.5902  -34.2001 H   0  0  0  0  0  0  0  0  0  0  0  0
   -5.4340   15.0048  -34.2001 H   0  0  0  0  0  0  0  0  0  0  0  0
   -8.0653   18.0604  -32.9262 H   0  0  0  0  0  0  0  0  0  0  0  0
   -6.5806   17.8398  -31.8992 H   0  0  0  0  0  0  0  0  0  0  0  0
   -9.3641   19.8225  -32.1569 H   0  0  0  0  0  0  0  0  0  0  0  0
   -9.5790   22.2105  -31.3884 H   0  0  0  0  0  0  0  0  0  0  0  0
   -8.0477   24.5349  -30.7315 H   0  0  0  0  0  0  0  0  0  0  0  0
   -3.1020   25.2910  -30.4290 H   0  0  0  0  0  0  0  0  0  0  0  0
   -4.1594   23.5736  -28.9449 H   0  0  0  0  0  0  0  0  0  0  0  0
   -2.9123   22.2721  -28.7635 H   0  0  0  0  0  0  0  0  0  0  0  0
   -2.3385   22.2706  -26.1979 H   0  0  0  0  0  0  0  0  0  0  0  0
   -1.3959   21.8278  -27.6695 H   0  0  0  0  0  0  0  0  0  0  0  0
   -0.2278   21.2359  -25.5291 H   0  0  0  0  0  0  0  0  0  0  0  0
    0.6853   22.4224  -26.5738 H   0  0  0  0  0  0  0  0  0  0  0  0
   -0.1075   23.1645  -22.6800 H   0  0  0  0  0  0  0  0  0  0  0  0
   -1.5870   22.5296  -23.4766 H   0  0  0  0  0  0  0  0  0  0  0  0
   -0.0782   21.5548  -23.4766 H   0  0  0  0  0  0  0  0  0  0  0  0
   -1.8231   24.3839  -24.6107 H   0  0  0  0  0  0  0  0  0  0  0  0
   -0.2464   25.2659  -24.4168 H   0  0  0  0  0  0  0  0  0  0  0  0
   -1.3964   25.8638  -26.5367 H   0  0  0  0  0  0  0  0  0  0  0  0
    0.1926   25.0655  -26.8134 H   0  0  0  0  0  0  0  0  0  0  0  0
   -5.0211   20.2095  -32.1442 H   0  0  0  0  0  0  0  0  0  0  0  0
  1  2  1  0
  2  3  1  0
  3  4  2  0
  3  5  1  0
  5  6  1  0
  6  7  2  0
  7  8  1  0
  8  9  2  0
  9 10  1  0
 10 11  2  0
 11 12  1  0
 12 13  1  0
 12 14  2  0
 11 15  1  0
 15 16  1  0
 16 17  2  0
 16 18  1  0
 18 19  1  0
 19 20  1  0
 20 21  2  0
 20 22  1  0
 22 23  1  0
 23 24  1  0
 24 25  1  0
 25 26  1  0
 25 27  1  0
 27 28  1  0
 15 29  1  0
 29 30  2  0
 30  6  1  0
 29  9  1  0
 28 22  1  0
  1 31  1  0
  1 32  1  0
  1 33  1  0
  5 34  1  0
  5 35  1  0
  7 36  1  0
  8 37  1  0
 10 38  1  0
 13 39  1  0
 19 40  1  0
 19 41  1  0
 23 42  1  0
 23 43  1  0
 24 44  1  0
 24 45  1  0
 26 46  1  0
 26 47  1  0
 26 48  1  0
 27 49  1  0
 27 50  1  0
 28 51  1  0
 28 52  1  0
 30 53  1  0
M  CHG  2   2  -1  13  -1
M  END
>  <UniqueID>  (48) 
47

>  <SMILES>  (48) 
C[N-]C(=O)Cc1ccc2cc(C([NH-])=O)n(C(=O)OCC(=O)N3CCN(C)CC3)c2c1

>  <Energy>  (48) 
96.31936174583635

>  <Genealogy>  (48) 
C[N-]C(=O)Cc1ccc2cc(C([NH-])=O)n(C(=O)OCC(=O)N3CCN(C)CC3)c2c1 (protonated)
C[N-]C(=O)Cc1ccc2cc(C([NH-])=O)n(C(=O)OCC(=O)N3CCN(C)CC3)c2c1 (3D coordinates assigned)
C[N-]C(=O)Cc1ccc2cc(C([NH-])=O)n(C(=O)OCC(=O)N3CCN(C)CC3)c2c1 (nonaromatic ring conformer: 96.31936174583635 kcal/mol)

>  <smiles>  (48) 
CNC(=O)Cc1ccc2cc(C(N)=O)n(C(=O)OCC(=O)N3CCN(C)CC3)c2c1

>  <score_type>  (48) 
oracle

>  <origin>  (48) 
adg

>  <m_score__min__energy>  (48) 
-11.539999999999999

>  <m_primary>  (48) 
energy

$$$$
48:0
     RDKit          3D

 32 33  0  0  0  0  0  0  0  0999 V2000
   -4.2510   16.4720  -33.5550 C   0  0  0  0  0  0  0  0  0  0  0  0
   -4.4760   17.7530  -34.1320 O   0  0  0  0  0  0  0  0  0  0  0  0
   -5.7520   18.3120  -34.2450 C   0  0  0  0  0  0  0  0  0  0  0  0
   -6.1120   18.8870  -35.3090 O   0  0  0  0  0  0  0  0  0  0  0  0
   -6.6800   18.2700  -33.0740 C   0  0  0  0  0  0  0  0  0  0  0  0
   -6.9420   19.6650  -32.5780 C   0  0  0  0  0  0  0  0  0  0  0  0
   -8.2730   20.1070  -32.3770 C   0  0  0  0  0  0  0  0  0  0  0  0
   -8.5300   21.3920  -31.8700 C   0  0  0  0  0  0  0  0  0  0  0  0
   -7.4410   22.2080  -31.5740 C   0  0  0  0  0  0  0  0  0  0  0  0
   -7.4080   23.4740  -31.0380 C   0  0  0  0  0  0  0  0  0  0  0  0
   -6.0560   23.7930  -30.9380 C   0  0  0  0  0  0  0  0  0  0  0  0
   -5.5660   25.1030  -30.4630 C   0  0  0  0  0  0  0  0  0  0  0  0
   -4.2100   25.5040  -30.6700 N   0  0  0  0  0  0  0  0  0  0  0  0
   -6.3700   25.9040  -29.9170 O   0  0  0  0  0  0  0  0  0  0  0  0
   -5.2820   22.7630  -31.3800 N   0  0  0  0  0  0  0  0  0  0  0  0
   -3.8480   22.6650  -31.3210 C   0  0  0  0  0  0  0  0  0  0  0  0
   -3.2270   23.0390  -30.2910 O   0  0  0  0  0  0  0  0  0  0  0  0
   -3.1380   22.1570  -32.4050 O   0  0  0  0  0  0  0  0  0  0  0  0
   -3.7250   22.0130  -33.6070 F   0  0  0  0  0  0  0  0  0  0  0  0
   -6.1470   21.7980  -31.7700 C   0  0  0  0  0  0  0  0  0  0  0  0
   -5.8610   20.5150  -32.2550 C   0  0  0  0  0  0  0  0  0  0  0  0
   -4.2658   16.5561  -32.4583 H   0  0  0  0  0  0  0  0  0  0  0  0
   -5.0412   15.7794  -33.8803 H   0  0  0  0  0  0  0  0  0  0  0  0
   -3.2720   16.0902  -33.8803 H   0  0  0  0  0  0  0  0  0  0  0  0
   -7.6302   17.8066  -33.3781 H   0  0  0  0  0  0  0  0  0  0  0  0
   -6.2194   17.6798  -32.2681 H   0  0  0  0  0  0  0  0  0  0  0  0
   -9.1122   19.4386  -32.6199 H   0  0  0  0  0  0  0  0  0  0  0  0
   -9.5604   21.7429  -31.7117 H   0  0  0  0  0  0  0  0  0  0  0  0
   -8.2653   24.1002  -30.7501 H   0  0  0  0  0  0  0  0  0  0  0  0
   -3.8710   26.4160  -30.2950 H   0  0  0  0  0  0  0  0  0  0  0  0
   -3.5650   24.9350  -31.2610 H   0  0  0  0  0  0  0  0  0  0  0  0
   -4.8214   20.1783  -32.3810 H   0  0  0  0  0  0  0  0  0  0  0  0
  1  2  1  0
  2  3  1  0
  3  4  2  0
  3  5  1  0
  5  6  1  0
  6  7  2  0
  7  8  1  0
  8  9  2  0
  9 10  1  0
 10 11  2  0
 11 12  1  0
 12 13  1  0
 12 14  2  0
 11 15  1  0
 15 16  1  0
 16 17  2  0
 16 18  1  0
 18 19  1  0
 15 20  1  0
 20 21  2  0
 21  6  1  0
 20  9  1  0
  1 22  1  0
  1 23  1  0
  1 24  1  0
  5 25  1  0
  5 26  1  0
  7 27  1  0
  8 28  1  0
 10 29  1  0
 13 30  1  0
 13 31  1  0
 21 32  1  0
M  END
>  <UniqueID>  (49) 
48

>  <SMILES>  (49) 
COC(=O)Cc1ccc2cc(C(N)=O)n(C(=O)OF)c2c1

>  <Energy>  (49) 
67.37072375681858

>  <Genealogy>  (49) 
COC(=O)Cc1ccc2cc(C(N)=O)n(C(=O)OF)c2c1 (3D coordinates assigned)
COC(=O)Cc1ccc2cc(C(N)=O)n(C(=O)OF)c2c1 (optimized conformer: 67.37072375681858 kcal/mol)

>  <smiles>  (49) 
COC(=O)Cc1ccc2cc(C(N)=O)n(C(=O)OF)c2c1

>  <score_type>  (49) 
oracle

>  <origin>  (49) 
adg

>  <m_score__min__energy>  (49) 
-7.9800000000000004

>  <m_primary>  (49) 
energy

$$$$
49:0
     RDKit          3D

 46 48  0  0  0  0  0  0  0  0999 V2000
   -4.1810   25.5430  -30.5830 N   0  0  0  0  0  0  0  0  0  0  0  0
   -5.5150   25.0790  -30.3700 C   0  0  0  0  0  0  0  0  0  0  0  0
   -6.3480   25.8370  -29.8020 O   0  0  0  0  0  0  0  0  0  0  0  0
   -5.9540   23.7560  -30.8580 C   0  0  0  0  0  0  0  0  0  0  0  0
   -7.2770   23.4530  -31.1640 C   0  0  0  0  0  0  0  0  0  0  0  0
   -7.2530   22.1600  -31.6320 C   0  0  0  0  0  0  0  0  0  0  0  0
   -8.2950   21.3500  -32.0660 C   0  0  0  0  0  0  0  0  0  0  0  0
   -7.9910   20.0370  -32.4600 C   0  0  0  0  0  0  0  0  0  0  0  0
   -6.6560   19.5470  -32.4070 C   0  0  0  0  0  0  0  0  0  0  0  0
   -6.3560   18.1880  -32.8040 N   0  0  0  0  0  0  0  0  0  0  0  0
   -5.9450   17.1420  -31.8780 C   0  0  0  0  0  0  0  0  0  0  0  0
   -5.5780   15.9420  -32.7400 C   0  0  0  0  0  0  0  0  0  0  0  0
   -6.2100   16.2020  -34.1020 C   0  0  0  0  0  0  0  0  0  0  0  0
   -6.4340   17.7050  -34.1750 C   0  0  0  0  0  0  0  0  0  0  0  0
   -5.6270   20.4090  -31.9550 C   0  0  0  0  0  0  0  0  0  0  0  0
   -5.9560   21.7200  -31.5890 C   0  0  0  0  0  0  0  0  0  0  0  0
   -5.1440   22.6910  -31.1120 N   0  0  0  0  0  0  0  0  0  0  0  0
   -3.7430   22.5770  -30.8160 C   0  0  0  0  0  0  0  0  0  0  0  0
   -2.9250   23.4140  -31.2850 O   0  0  0  0  0  0  0  0  0  0  0  0
   -3.2920   21.5350  -30.0000 O   0  0  0  0  0  0  0  0  0  0  0  0
   -3.3130   21.6030  -28.5780 C   0  0  0  0  0  0  0  0  0  0  0  0
   -3.4940   23.0590  -28.1460 C   0  0  0  0  0  0  0  0  0  0  0  0
   -2.1940   23.6740  -27.6120 C   0  0  0  0  0  0  0  0  0  0  0  0
   -1.5080   24.5080  -28.6510 C   0  0  0  0  0  0  0  0  0  0  0  0
   -2.1740   25.3020  -29.3670 O   0  0  0  0  0  0  0  0  0  0  0  0
   -0.1390   24.3890  -28.8450 O   0  0  0  0  0  0  0  0  0  0  0  0
   -3.5170   25.0130  -31.1920 H   0  0  0  0  0  0  0  0  0  0  0  0
   -3.8740   26.4590  -30.1880 H   0  0  0  0  0  0  0  0  0  0  0  0
   -8.1543   24.1075  -31.0550 H   0  0  0  0  0  0  0  0  0  0  0  0
   -9.3281   21.7263  -32.1000 H   0  0  0  0  0  0  0  0  0  0  0  0
   -8.7966   19.3774  -32.8149 H   0  0  0  0  0  0  0  0  0  0  0  0
   -5.0753   17.4713  -31.2904 H   0  0  0  0  0  0  0  0  0  0  0  0
   -6.7455   16.8969  -31.1645 H   0  0  0  0  0  0  0  0  0  0  0  0
   -4.4853   15.8577  -32.8343 H   0  0  0  0  0  0  0  0  0  0  0  0
   -5.9381   15.0008  -32.2990 H   0  0  0  0  0  0  0  0  0  0  0  0
   -5.5342   15.8759  -34.9064 H   0  0  0  0  0  0  0  0  0  0  0  0
   -7.1512   15.6460  -34.2243 H   0  0  0  0  0  0  0  0  0  0  0  0
   -5.6559   18.1781  -34.7920 H   0  0  0  0  0  0  0  0  0  0  0  0
   -7.4044   17.9465  -34.6333 H   0  0  0  0  0  0  0  0  0  0  0  0
   -4.5875   20.0548  -31.8926 H   0  0  0  0  0  0  0  0  0  0  0  0
   -4.1477   20.9987  -28.1932 H   0  0  0  0  0  0  0  0  0  0  0  0
   -2.3662   21.2134  -28.1757 H   0  0  0  0  0  0  0  0  0  0  0  0
   -3.8329   23.6456  -29.0127 H   0  0  0  0  0  0  0  0  0  0  0  0
   -4.2345   23.0791  -27.3328 H   0  0  0  0  0  0  0  0  0  0  0  0
   -2.4295   24.3079  -26.7444 H   0  0  0  0  0  0  0  0  0  0  0  0
   -1.5176   22.8540  -27.3289 H   0  0  0  0  0  0  0  0  0  0  0  0
  1  2  1  0
  2  3  2  0
  2  4  1  0
  4  5  2  0
  5  6  1  0
  6  7  2  0
  7  8  1  0
  8  9  2  0
  9 10  1  0
 10 11  1  0
 11 12  1  0
 12 13  1  0
 13 14  1  0
  9 15  1  0
 15 16  2  0
 16 17  1  0
 17 18  1  0
 18 19  2  0
 18 20  1  0
 20 21  1  0
 21 22  1  0
 22 23  1  0
 23 24  1  0
 24 25  2  0
 24 26  1  0
 17  4  1  0
 16  6  1  0
 14 10  1  0
  1 27  1  0
  1 28  1  0
  5 29  1  0
  7 30  1  0
  8 31  1  0
 11 32  1  0
 11 33  1  0
 12 34  1  0
 12 35  1  0
 13 36  1  0
 13 37  1  0
 14 38  1  0
 14 39  1  0
 15 40  1  0
 21 41  1  0
 21 42  1  0
 22 43  1  0
 22 44  1  0
 23 45  1  0
 23 46  1  0
M  CHG  1  26  -1
M  END
>  <UniqueID>  (50) 
49

>  <SMILES>  (50) 
NC(=O)c1cc2ccc(N3CCCC3)cc2n1C(=O)OCCCC(=O)[O-]

>  <Energy>  (50) 
80.39435735834189

>  <Genealogy>  (50) 
NC(=O)c1cc2ccc(N3CCCC3)cc2n1C(=O)OCCCC(=O)[O-] (protonated)
NC(=O)c1cc2ccc(N3CCCC3)cc2n1C(=O)OCCCC(=O)[O-] (3D coordinates assigned)
NC(=O)c1cc2ccc(N3CCCC3)cc2n1C(=O)OCCCC(=O)[O-] (nonaromatic ring conformer: 80.39435735834189 kcal/mol)

>  <smiles>  (50) 
NC(=O)c1cc2ccc(N3CCCC3)cc2n1C(=O)OCCCC(=O)O

>  <score_type>  (50) 
oracle

>  <origin>  (50) 
adg

>  <m_score__min__energy>  (50) 
-11.24

>  <m_primary>  (50) 
energy

$$$$
50:0
     RDKit          3D

 36 37  0  0  0  0  0  0  0  0999 V2000
   -7.2450   17.4300  -32.2760 C   0  0  0  0  0  0  0  0  0  0  0  0
   -6.7190   18.5690  -33.0400 N   0  0  0  0  0  0  0  0  0  0  0  0
   -6.0010   18.3110  -34.2930 C   0  0  0  0  0  0  0  0  0  0  0  0
   -6.9050   19.9280  -32.5620 C   0  0  0  0  0  0  0  0  0  0  0  0
   -8.2100   20.4860  -32.4480 C   0  0  0  0  0  0  0  0  0  0  0  0
   -8.4010   21.7940  -31.9750 C   0  0  0  0  0  0  0  0  0  0  0  0
   -7.2770   22.5350  -31.6300 C   0  0  0  0  0  0  0  0  0  0  0  0
   -7.1800   23.8110  -31.1240 C   0  0  0  0  0  0  0  0  0  0  0  0
   -5.8160   24.0370  -30.9520 C   0  0  0  0  0  0  0  0  0  0  0  0
   -5.2530   25.3260  -30.4990 C   0  0  0  0  0  0  0  0  0  0  0  0
   -3.9140   25.6730  -30.8420 N   0  0  0  0  0  0  0  0  0  0  0  0
   -5.9290   26.1090  -29.7820 O   0  0  0  0  0  0  0  0  0  0  0  0
   -5.0990   22.9410  -31.3340 N   0  0  0  0  0  0  0  0  0  0  0  0
   -3.6800   22.7460  -31.2420 C   0  0  0  0  0  0  0  0  0  0  0  0
   -3.0230   22.4240  -32.2690 O   0  0  0  0  0  0  0  0  0  0  0  0
   -3.0360   22.9020  -30.0090 O   0  0  0  0  0  0  0  0  0  0  0  0
   -1.6740   23.3040  -29.8730 C   0  0  0  0  0  0  0  0  0  0  0  0
   -1.5300   24.3640  -28.7840 C   0  0  0  0  0  0  0  0  0  0  0  0
   -2.6110   24.2940  -27.9240 F   0  0  0  0  0  0  0  0  0  0  0  0
   -1.4790   25.6280  -29.3410 F   0  0  0  0  0  0  0  0  0  0  0  0
   -6.0100   22.0320  -31.7480 C   0  0  0  0  0  0  0  0  0  0  0  0
   -5.7880   20.7250  -32.1960 C   0  0  0  0  0  0  0  0  0  0  0  0
   -7.1501   17.6354  -31.1995 H   0  0  0  0  0  0  0  0  0  0  0  0
   -8.3048   17.2774  -32.5282 H   0  0  0  0  0  0  0  0  0  0  0  0
   -6.6740   16.5243  -32.5282 H   0  0  0  0  0  0  0  0  0  0  0  0
   -4.9879   17.9470  -34.0668 H   0  0  0  0  0  0  0  0  0  0  0  0
   -6.5421   17.5511  -34.8759 H   0  0  0  0  0  0  0  0  0  0  0  0
   -5.9346   19.2415  -34.8759 H   0  0  0  0  0  0  0  0  0  0  0  0
   -9.0833   19.8820  -32.7354 H   0  0  0  0  0  0  0  0  0  0  0  0
   -9.4108   22.2199  -31.8802 H   0  0  0  0  0  0  0  0  0  0  0  0
   -8.0042   24.5050  -30.9024 H   0  0  0  0  0  0  0  0  0  0  0  0
   -3.1100   25.0850  -30.5280 H   0  0  0  0  0  0  0  0  0  0  0  0
   -1.0639   22.4281  -29.6072 H   0  0  0  0  0  0  0  0  0  0  0  0
   -1.3342   23.7303  -30.8284 H   0  0  0  0  0  0  0  0  0  0  0  0
   -0.5964   24.1754  -28.2337 H   0  0  0  0  0  0  0  0  0  0  0  0
   -4.7666   20.3222  -32.2635 H   0  0  0  0  0  0  0  0  0  0  0  0
  1  2  1  0
  2  3  1  0
  2  4  1  0
  4  5  2  0
  5  6  1  0
  6  7  2  0
  7  8  1  0
  8  9  2  0
  9 10  1  0
 10 11  1  0
 10 12  2  0
  9 13  1  0
 13 14  1  0
 14 15  2  0
 14 16  1  0
 16 17  1  0
 17 18  1  0
 18 19  1  0
 18 20  1  0
 13 21  1  0
 21 22  2  0
 22  4  1  0
 21  7  1  0
  1 23  1  0
  1 24  1  0
  1 25  1  0
  3 26  1  0
  3 27  1  0
  3 28  1  0
  5 29  1  0
  6 30  1  0
  8 31  1  0
 11 32  1  0
 17 33  1  0
 17 34  1  0
 18 35  1  0
 22 36  1  0
M  CHG  1  11  -1
M  END
>  <UniqueID>  (51) 
50

>  <SMILES>  (51) 
CN(C)c1ccc2cc(C([NH-])=O)n(C(=O)OCC(F)F)c2c1

>  <Energy>  (51) 
72.8791192067068

>  <Genealogy>  (51) 
CN(C)c1ccc2cc(C([NH-])=O)n(C(=O)OCC(F)F)c2c1 (protonated)
CN(C)c1ccc2cc(C([NH-])=O)n(C(=O)OCC(F)F)c2c1 (3D coordinates assigned)
CN(C)c1ccc2cc(C([NH-])=O)n(C(=O)OCC(F)F)c2c1 (optimized conformer: 72.8791192067068 kcal/mol)

>  <smiles>  (51) 
CN(C)c1ccc2cc(C(N)=O)n(C(=O)OCC(F)F)c2c1

>  <score_type>  (51) 
oracle

>  <origin>  (51) 
adg

>  <m_score__min__energy>  (51) 
-9.1899999999999995

>  <m_primary>  (51) 
energy

$$$$
51:0
     RDKit          3D

 38 40  0  0  0  0  0  0  0  0999 V2000
   -4.1230   24.5530  -27.0140 C   0  0  0  0  0  0  0  0  0  0  0  0
   -2.8260   24.1280  -27.6170 C   0  0  0  0  0  0  0  0  0  0  0  0
   -1.7410   24.8660  -27.6520 O   0  0  0  0  0  0  0  0  0  0  0  0
   -0.8310   24.1410  -28.2600 C   0  0  0  0  0  0  0  0  0  0  0  0
    0.3450   24.5320  -28.4740 O   0  0  0  0  0  0  0  0  0  0  0  0
   -1.2840   22.9610  -28.6210 O   0  0  0  0  0  0  0  0  0  0  0  0
   -2.5370   22.9230  -28.2320 C   0  0  0  0  0  0  0  0  0  0  0  0
   -3.4510   21.7550  -28.4450 C   0  0  0  0  0  0  0  0  0  0  0  0
   -3.5880   21.4940  -29.8390 O   0  0  0  0  0  0  0  0  0  0  0  0
   -4.0360   22.4480  -30.7580 C   0  0  0  0  0  0  0  0  0  0  0  0
   -3.2110   23.1020  -31.4520 O   0  0  0  0  0  0  0  0  0  0  0  0
   -5.4450   22.6810  -30.9150 N   0  0  0  0  0  0  0  0  0  0  0  0
   -6.1130   23.8600  -30.7840 C   0  0  0  0  0  0  0  0  0  0  0  0
   -5.5400   25.1290  -30.2890 C   0  0  0  0  0  0  0  0  0  0  0  0
   -4.2360   25.5580  -30.6840 N   0  0  0  0  0  0  0  0  0  0  0  0
   -6.1920   25.8200  -29.4610 O   0  0  0  0  0  0  0  0  0  0  0  0
   -7.4500   23.7110  -31.1450 C   0  0  0  0  0  0  0  0  0  0  0  0
   -7.5840   22.3870  -31.4960 C   0  0  0  0  0  0  0  0  0  0  0  0
   -8.7010   21.6920  -31.9470 C   0  0  0  0  0  0  0  0  0  0  0  0
   -8.5440   20.3350  -32.2760 C   0  0  0  0  0  0  0  0  0  0  0  0
   -7.2750   19.7070  -32.1790 C   0  0  0  0  0  0  0  0  0  0  0  0
   -7.1250   18.2420  -32.5060 C   0  0  0  0  0  0  0  0  0  0  0  0
   -6.7550   18.0710  -33.8290 F   0  0  0  0  0  0  0  0  0  0  0  0
   -6.1550   17.6610  -31.7080 F   0  0  0  0  0  0  0  0  0  0  0  0
   -8.3300   17.6020  -32.2880 F   0  0  0  0  0  0  0  0  0  0  0  0
   -6.1690   20.4430  -31.6950 C   0  0  0  0  0  0  0  0  0  0  0  0
   -6.3600   21.7870  -31.3520 C   0  0  0  0  0  0  0  0  0  0  0  0
   -4.0434   24.5269  -25.9172 H   0  0  0  0  0  0  0  0  0  0  0  0
   -4.3612   25.5762  -27.3401 H   0  0  0  0  0  0  0  0  0  0  0  0
   -4.9205   23.8692  -27.3401 H   0  0  0  0  0  0  0  0  0  0  0  0
   -3.0315   20.8682  -27.9474 H   0  0  0  0  0  0  0  0  0  0  0  0
   -4.4393   21.9867  -28.0212 H   0  0  0  0  0  0  0  0  0  0  0  0
   -3.8670   26.4780  -30.3580 H   0  0  0  0  0  0  0  0  0  0  0  0
   -3.6020   24.9290  -31.2230 H   0  0  0  0  0  0  0  0  0  0  0  0
   -8.2312   24.4854  -31.1488 H   0  0  0  0  0  0  0  0  0  0  0  0
   -9.6774   22.1893  -32.0432 H   0  0  0  0  0  0  0  0  0  0  0  0
   -9.4145   19.7528  -32.6126 H   0  0  0  0  0  0  0  0  0  0  0  0
   -5.1812   19.9705  -31.5903 H   0  0  0  0  0  0  0  0  0  0  0  0
  1  2  1  0
  2  3  1  0
  3  4  1  0
  4  5  2  0
  4  6  1  0
  6  7  1  0
  7  8  1  0
  8  9  1  0
  9 10  1  0
 10 11  2  0
 10 12  1  0
 12 13  1  0
 13 14  1  0
 14 15  1  0
 14 16  2  0
 13 17  2  0
 17 18  1  0
 18 19  2  0
 19 20  1  0
 20 21  2  0
 21 22  1  0
 22 23  1  0
 22 24  1  0
 22 25  1  0
 21 26  1  0
 26 27  2  0
  7  2  2  0
 27 12  1  0
 27 18  1  0
  1 28  1  0
  1 29  1  0
  1 30  1  0
  8 31  1  0
  8 32  1  0
 15 33  1  0
 15 34  1  0
 17 35  1  0
 19 36  1  0
 20 37  1  0
 26 38  1  0
M  END
>  <UniqueID>  (52) 
51

>  <SMILES>  (52) 
Cc1oc(=O)oc1COC(=O)n1c(C(N)=O)cc2ccc(C(F)(F)F)cc21

>  <Energy>  (52) 
109.61097707996875

>  <Genealogy>  (52) 
Cc1oc(=O)oc1COC(=O)n1c(C(N)=O)cc2ccc(C(F)(F)F)cc21 (3D coordinates assigned)
Cc1oc(=O)oc1COC(=O)n1c(C(N)=O)cc2ccc(C(F)(F)F)cc21 (optimized conformer: 109.61097707996875 kcal/mol)

>  <smiles>  (52) 
Cc1oc(=O)oc1COC(=O)n1c(C(N)=O)cc2ccc(C(F)(F)F)cc21

>  <score_type>  (52) 
oracle

>  <origin>  (52) 
adg

>  <m_score__min__energy>  (52) 
-9.2599999999999998

>  <m_primary>  (52) 
energy

$$$$
52:0
     RDKit          3D

 72 75  0  0  0  0  0  0  0  0999 V2000
   -0.8450   23.8730  -29.2760 C   0  0  0  0  0  0  0  0  0  0  0  0
   -1.9930   24.6270  -28.7510 N   0  0  0  0  0  0  0  0  0  0  0  0
   -1.5910   25.5770  -27.7000 C   0  0  0  0  0  0  0  0  0  0  0  0
   -3.1690   23.7990  -28.3960 C   0  0  0  0  0  0  0  0  0  0  0  0
   -2.9210   22.2720  -28.2900 C   0  0  0  0  0  0  0  0  0  0  0  0
   -3.1900   21.5150  -29.6020 C   0  0  0  0  0  0  0  0  0  0  0  0
   -3.7470   22.4120  -30.6760 C   0  0  0  0  0  0  0  0  0  0  0  0
   -2.9550   23.0550  -31.4160 O   0  0  0  0  0  0  0  0  0  0  0  0
   -5.1670   22.5190  -30.8990 N   0  0  0  0  0  0  0  0  0  0  0  0
   -5.9200   23.6550  -30.8290 C   0  0  0  0  0  0  0  0  0  0  0  0
   -5.4540   24.9700  -30.3440 C   0  0  0  0  0  0  0  0  0  0  0  0
   -4.1950   25.5090  -30.7460 N   0  0  0  0  0  0  0  0  0  0  0  0
   -6.1640   25.6130  -29.5230 O   0  0  0  0  0  0  0  0  0  0  0  0
   -7.2150   23.4170  -31.2800 C   0  0  0  0  0  0  0  0  0  0  0  0
   -7.2390   22.0890  -31.6330 C   0  0  0  0  0  0  0  0  0  0  0  0
   -8.2680   21.3310  -32.1810 C   0  0  0  0  0  0  0  0  0  0  0  0
   -8.0020   19.9890  -32.5030 C   0  0  0  0  0  0  0  0  0  0  0  0
   -6.7140   19.4350  -32.2840 C   0  0  0  0  0  0  0  0  0  0  0  0
   -6.4370   18.0190  -32.6240 C   0  0  0  0  0  0  0  0  0  0  0  0
   -6.8540   17.4730  -33.8480 C   0  0  0  0  0  0  0  0  0  0  0  0
   -6.5480   16.1470  -34.1650 C   0  0  0  0  0  0  0  0  0  0  0  0
   -5.8390   15.3650  -33.2500 C   0  0  0  0  0  0  0  0  0  0  0  0
   -5.5260   14.0410  -33.5770 O   0  0  0  0  0  0  0  0  0  0  0  0
   -4.2030   13.5720  -33.8420 C   0  0  0  0  0  0  0  0  0  0  0  0
   -3.5450   14.3030  -35.0340 C   0  0  0  0  0  0  0  0  0  0  0  0
   -2.8320   15.5460  -34.6760 N   0  0  0  0  0  0  0  0  0  0  0  0
   -2.5720   15.7020  -33.2330 C   0  0  0  0  0  0  0  0  0  0  0  0
   -1.8110   17.0080  -32.9980 C   0  0  0  0  0  0  0  0  0  0  0  0
   -2.6000   18.1950  -33.4150 N   0  0  0  0  0  0  0  0  0  0  0  0
   -1.7160   19.2630  -33.9100 C   0  0  0  0  0  0  0  0  0  0  0  0
   -3.6850   17.8990  -34.3830 C   0  0  0  0  0  0  0  0  0  0  0  0
   -3.3140   16.7690  -35.3640 C   0  0  0  0  0  0  0  0  0  0  0  0
   -5.4620   15.9030  -32.0570 N   0  0  0  0  0  0  0  0  0  0  0  0
   -5.7330   17.1950  -31.7300 C   0  0  0  0  0  0  0  0  0  0  0  0
   -5.6900   20.2450  -31.7430 C   0  0  0  0  0  0  0  0  0  0  0  0
   -5.9900   21.5680  -31.3970 C   0  0  0  0  0  0  0  0  0  0  0  0
   -0.2492   23.4817  -28.4382 H   0  0  0  0  0  0  0  0  0  0  0  0
   -1.2065   23.0359  -29.8913 H   0  0  0  0  0  0  0  0  0  0  0  0
   -0.2204   24.5373  -29.8913 H   0  0  0  0  0  0  0  0  0  0  0  0
   -1.7793   25.1319  -26.7119 H   0  0  0  0  0  0  0  0  0  0  0  0
   -0.5196   25.8043  -27.8015 H   0  0  0  0  0  0  0  0  0  0  0  0
   -2.1738   26.5044  -27.8015 H   0  0  0  0  0  0  0  0  0  0  0  0
   -3.5435   24.1471  -27.4220 H   0  0  0  0  0  0  0  0  0  0  0  0
   -3.8809   23.9260  -29.2249 H   0  0  0  0  0  0  0  0  0  0  0  0
   -1.8719   22.1086  -28.0024 H   0  0  0  0  0  0  0  0  0  0  0  0
   -3.6244   21.8808  -27.5402 H   0  0  0  0  0  0  0  0  0  0  0  0
   -2.2450   21.0800  -29.9595 H   0  0  0  0  0  0  0  0  0  0  0  0
   -3.9377   20.7357  -29.3934 H   0  0  0  0  0  0  0  0  0  0  0  0
   -3.9220   26.4750  -30.4570 H   0  0  0  0  0  0  0  0  0  0  0  0
   -3.4870   24.9160  -31.2340 H   0  0  0  0  0  0  0  0  0  0  0  0
   -8.0432   24.1384  -31.3409 H   0  0  0  0  0  0  0  0  0  0  0  0
   -9.2615   21.7691  -32.3574 H   0  0  0  0  0  0  0  0  0  0  0  0
   -8.7996   19.3623  -32.9287 H   0  0  0  0  0  0  0  0  0  0  0  0
   -7.4228   18.0902  -34.5590 H   0  0  0  0  0  0  0  0  0  0  0  0
   -6.8634   15.7215  -35.1291 H   0  0  0  0  0  0  0  0  0  0  0  0
   -3.5857   13.7317  -32.9457 H   0  0  0  0  0  0  0  0  0  0  0  0
   -4.2715   12.5049  -34.1002 H   0  0  0  0  0  0  0  0  0  0  0  0
   -2.8239   13.6165  -35.5016 H   0  0  0  0  0  0  0  0  0  0  0  0
   -4.3624   14.5962  -35.7092 H   0  0  0  0  0  0  0  0  0  0  0  0
   -3.5270   15.7293  -32.6878 H   0  0  0  0  0  0  0  0  0  0  0  0
   -1.9717   14.8540  -32.8716 H   0  0  0  0  0  0  0  0  0  0  0  0
   -1.5779   17.0952  -31.9265 H   0  0  0  0  0  0  0  0  0  0  0  0
   -0.8935   16.9801  -33.6041 H   0  0  0  0  0  0  0  0  0  0  0  0
   -1.2735   19.7976  -33.0566 H   0  0  0  0  0  0  0  0  0  0  0  0
   -0.9151   18.8220  -34.5216 H   0  0  0  0  0  0  0  0  0  0  0  0
   -2.2989   19.9674  -34.5216 H   0  0  0  0  0  0  0  0  0  0  0  0
   -4.5835   17.5989  -33.8238 H   0  0  0  0  0  0  0  0  0  0  0  0
   -3.8600   18.8094  -34.9751 H   0  0  0  0  0  0  0  0  0  0  0  0
   -4.2044   16.5113  -35.9563 H   0  0  0  0  0  0  0  0  0  0  0  0
   -2.4944   17.1370  -35.9986 H   0  0  0  0  0  0  0  0  0  0  0  0
   -5.3996   17.5965  -30.7616 H   0  0  0  0  0  0  0  0  0  0  0  0
   -4.6764   19.8435  -31.5965 H   0  0  0  0  0  0  0  0  0  0  0  0
  1  2  1  0
  2  3  1  0
  2  4  1  0
  4  5  1  0
  5  6  1  0
  6  7  1  0
  7  8  2  0
  7  9  1  0
  9 10  1  0
 10 11  1  0
 11 12  1  0
 11 13  2  0
 10 14  2  0
 14 15  1  0
 15 16  2  0
 16 17  1  0
 17 18  2  0
 18 19  1  0
 19 20  2  0
 20 21  1  0
 21 22  2  0
 22 23  1  0
 23 24  1  0
 24 25  1  0
 25 26  1  0
 26 27  1  0
 27 28  1  0
 28 29  1  0
 29 30  1  0
 29 31  1  0
 31 32  1  0
 22 33  1  0
 33 34  2  0
 18 35  1  0
 35 36  2  0
 36  9  1  0
 36 15  1  0
 34 19  1  0
 32 26  1  0
  1 37  1  0
  1 38  1  0
  1 39  1  0
  3 40  1  0
  3 41  1  0
  3 42  1  0
  4 43  1  0
  4 44  1  0
  5 45  1  0
  5 46  1  0
  6 47  1  0
  6 48  1  0
 12 49  1  0
 12 50  1  0
 14 51  1  0
 16 52  1  0
 17 53  1  0
 20 54  1  0
 21 55  1  0
 24 56  1  0
 24 57  1  0
 25 58  1  0
 25 59  1  0
 27 60  1  0
 27 61  1  0
 28 62  1  0
 28 63  1  0
 30 64  1  0
 30 65  1  0
 30 66  1  0
 31 67  1  0
 31 68  1  0
 32 69  1  0
 32 70  1  0
 34 71  1  0
 35 72  1  0
M  END
>  <UniqueID>  (53) 
52

>  <SMILES>  (53) 
CN(C)CCCC(=O)n1c(C(N)=O)cc2ccc(-c3ccc(OCCN4CCN(C)CC4)nc3)cc21

>  <Energy>  (53) 
137.35293065790327

>  <Genealogy>  (53) 
CN(C)CCCC(=O)n1c(C(N)=O)cc2ccc(-c3ccc(OCCN4CCN(C)CC4)nc3)cc21 (3D coordinates assigned)
CN(C)CCCC(=O)n1c(C(N)=O)cc2ccc(-c3ccc(OCCN4CCN(C)CC4)nc3)cc21 (nonaromatic ring conformer: 137.35293065790327 kcal/mol)

>  <smiles>  (53) 
CN(C)CCCC(=O)n1c(C(N)=O)cc2ccc(-c3ccc(OCCN4CCN(C)CC4)nc3)cc21

>  <score_type>  (53) 
oracle

>  <origin>  (53) 
adg

>  <m_score__min__energy>  (53) 
-9.7100000000000009

>  <m_primary>  (53) 
energy

$$$$
53:0
     RDKit          3D

 37 39  0  0  0  0  0  0  0  0999 V2000
   -1.6170   25.3490  -29.0920 N   0  0  0  0  0  0  0  0  0  0  0  0
   -1.2650   23.9840  -28.8760 C   0  0  0  0  0  0  0  0  0  0  0  0
   -0.6210   23.6710  -27.8410 O   0  0  0  0  0  0  0  0  0  0  0  0
   -1.6790   22.9530  -29.8490 C   0  0  0  0  0  0  0  0  0  0  0  0
   -0.7880   22.2040  -30.6150 C   0  0  0  0  0  0  0  0  0  0  0  0
   -1.5750   21.4270  -31.4340 C   0  0  0  0  0  0  0  0  0  0  0  0
   -1.2180   20.4950  -32.4060 C   0  0  0  0  0  0  0  0  0  0  0  0
   -2.2490   19.8340  -33.0940 C   0  0  0  0  0  0  0  0  0  0  0  0
   -3.6110   20.1000  -32.7900 C   0  0  0  0  0  0  0  0  0  0  0  0
   -4.6730   19.4460  -33.5040 N   0  0  0  0  0  0  0  0  0  0  0  0
   -6.0090   19.2820  -33.0000 C   0  0  0  0  0  0  0  0  0  0  0  0
   -6.5230   17.9890  -32.8140 C   0  0  0  0  0  0  0  0  0  0  0  0
   -7.8290   17.8070  -32.3480 C   0  0  0  0  0  0  0  0  0  0  0  0
   -8.6380   18.9130  -32.0820 C   0  0  0  0  0  0  0  0  0  0  0  0
   -8.1460   20.2050  -32.2870 C   0  0  0  0  0  0  0  0  0  0  0  0
   -9.1700   21.5940  -31.9710 Cl  0  0  0  0  0  0  0  0  0  0  0  0
   -6.8390   20.3910  -32.7520 C   0  0  0  0  0  0  0  0  0  0  0  0
   -3.9310   21.0680  -31.8140 C   0  0  0  0  0  0  0  0  0  0  0  0
   -2.8840   21.7140  -31.1520 C   0  0  0  0  0  0  0  0  0  0  0  0
   -2.9640   22.6440  -30.1780 N   0  0  0  0  0  0  0  0  0  0  0  0
   -4.1720   23.1480  -29.5970 C   0  0  0  0  0  0  0  0  0  0  0  0
   -4.6080   22.6520  -28.5260 O   0  0  0  0  0  0  0  0  0  0  0  0
   -5.0150   24.5540  -30.3240 P   0  0  2  0  0  0  0  0  0  0  0  0
   -5.8610   24.1000  -31.4910 O   0  0  0  0  0  0  0  0  0  0  0  0
   -3.8680   25.6700  -30.8670 O   0  0  0  0  0  0  0  0  0  0  0  0
   -6.0070   25.2850  -29.1640 O   0  0  0  0  0  0  0  0  0  0  0  0
   -2.6010   25.6200  -29.3160 H   0  0  0  0  0  0  0  0  0  0  0  0
    0.3110   22.2286  -30.5738 H   0  0  0  0  0  0  0  0  0  0  0  0
   -0.1616   20.2833  -32.6278 H   0  0  0  0  0  0  0  0  0  0  0  0
   -1.9991   19.1025  -33.8766 H   0  0  0  0  0  0  0  0  0  0  0  0
   -4.4610   19.0670  -34.4560 H   0  0  0  0  0  0  0  0  0  0  0  0
   -5.8948   17.1138  -33.0361 H   0  0  0  0  0  0  0  0  0  0  0  0
   -8.2193   16.7907  -32.1908 H   0  0  0  0  0  0  0  0  0  0  0  0
   -9.6632   18.7676  -31.7109 H   0  0  0  0  0  0  0  0  0  0  0  0
   -6.4589   21.4087  -32.9244 H   0  0  0  0  0  0  0  0  0  0  0  0
   -4.9788   21.3079  -31.5804 H   0  0  0  0  0  0  0  0  0  0  0  0
   -6.0120   24.6530  -28.4010 H   0  0  0  0  0  0  0  0  0  0  0  0
  1  2  1  0
  2  3  2  0
  2  4  1  0
  4  5  2  0
  5  6  1  0
  6  7  2  0
  7  8  1  0
  8  9  2  0
  9 10  1  0
 10 11  1  0
 11 12  2  0
 12 13  1  0
 13 14  2  0
 14 15  1  0
 15 16  1  0
 15 17  2  0
  9 18  1  0
 18 19  2  0
 19 20  1  0
 20 21  1  0
 21 22  2  0
 21 23  1  0
 23 24  2  0
 23 25  1  6
 23 26  1  0
 20  4  1  0
 19  6  1  0
 17 11  1  0
  1 27  1  0
  5 28  1  0
  7 29  1  0
  8 30  1  0
 10 31  1  0
 12 32  1  0
 13 33  1  0
 14 34  1  0
 17 35  1  0
 18 36  1  0
 26 37  1  0
M  CHG  2   1  -1  25  -1
M  END
>  <UniqueID>  (54) 
53

>  <SMILES>  (54) 
[NH-]C(=O)c1cc2ccc(Nc3cccc(Cl)c3)cc2n1C(=O)[P@](=O)([O-])O

>  <Energy>  (54) 
81.66504893897012

>  <Genealogy>  (54) 
[NH-]C(=O)c1cc2ccc(Nc3cccc(Cl)c3)cc2n1C(=O)P(=O)([O-])O (protonated)
[NH-]C(=O)c1cc2ccc(Nc3cccc(Cl)c3)cc2n1C(=O)[P@](=O)([O-])O (chirality)
[NH-]C(=O)c1cc2ccc(Nc3cccc(Cl)c3)cc2n1C(=O)[P@](=O)([O-])O (3D coordinates assigned)
[NH-]C(=O)c1cc2ccc(Nc3cccc(Cl)c3)cc2n1C(=O)[P@](=O)([O-])O (optimized conformer: 81.66504893897012 kcal/mol)

>  <smiles>  (54) 
NC(=O)c1cc2ccc(Nc3cccc(Cl)c3)cc2n1C(=O)P(=O)(O)O

>  <score_type>  (54) 
oracle

>  <origin>  (54) 
adg

>  <m_score__min__energy>  (54) 
-13.94

>  <m_primary>  (54) 
energy

$$$$
54:0
     RDKit          3D

 52 54  0  0  0  0  0  0  0  0999 V2000
   -3.5650   24.5660  -27.0510 C   0  0  0  0  0  0  0  0  0  0  0  0
   -2.0620   24.2740  -27.1190 C   0  0  0  0  0  0  0  0  0  0  0  0
   -1.5230   24.1120  -28.5740 C   0  0  0  0  0  0  0  0  0  0  0  0
   -1.9810   25.2270  -29.3070 O   0  0  0  0  0  0  0  0  0  0  0  0
    0.0460   24.1250  -28.6230 C   0  0  0  0  0  0  0  0  0  0  0  0
    0.7870   23.7860  -27.3230 C   0  0  0  0  0  0  0  0  0  0  0  0
   -2.1060   22.8250  -29.2690 C   0  0  2  0  0  0  0  0  0  0  0  0
   -3.5300   22.9990  -29.5870 N   0  0  0  0  0  0  0  0  0  0  0  0
   -4.2440   22.1460  -30.4940 C   0  0  0  0  0  0  0  0  0  0  0  0
   -3.7140   21.0890  -30.9300 O   0  0  0  0  0  0  0  0  0  0  0  0
   -5.5680   22.5020  -30.9180 N   0  0  0  0  0  0  0  0  0  0  0  0
   -6.1650   23.7250  -30.8610 C   0  0  0  0  0  0  0  0  0  0  0  0
   -5.5170   24.9890  -30.4510 C   0  0  0  0  0  0  0  0  0  0  0  0
   -4.1730   25.2820  -30.8270 N   0  0  0  0  0  0  0  0  0  0  0  0
   -6.1700   25.8380  -29.7880 O   0  0  0  0  0  0  0  0  0  0  0  0
   -7.4820   23.6450  -31.3120 C   0  0  0  0  0  0  0  0  0  0  0  0
   -7.6720   22.3240  -31.6510 C   0  0  0  0  0  0  0  0  0  0  0  0
   -8.8020   21.6760  -32.1430 C   0  0  0  0  0  0  0  0  0  0  0  0
   -8.7190   20.2910  -32.3750 C   0  0  0  0  0  0  0  0  0  0  0  0
   -7.5210   19.5850  -32.1060 C   0  0  0  0  0  0  0  0  0  0  0  0
   -7.4570   18.1020  -32.3410 C   0  0  0  0  0  0  0  0  0  0  0  0
   -6.8550   17.8510  -33.5600 F   0  0  0  0  0  0  0  0  0  0  0  0
   -6.7210   17.5010  -31.3350 F   0  0  0  0  0  0  0  0  0  0  0  0
   -6.3980   20.2750  -31.5990 C   0  0  0  0  0  0  0  0  0  0  0  0
   -6.5020   21.6560  -31.4010 C   0  0  0  0  0  0  0  0  0  0  0  0
   -1.9130   21.5370  -28.5060 C   0  0  0  0  0  0  0  0  0  0  0  0
   -0.7490   20.7800  -28.4100 C   0  0  0  0  0  0  0  0  0  0  0  0
   -0.8810   19.6620  -27.5780 C   0  0  0  0  0  0  0  0  0  0  0  0
   -2.1380   19.5380  -27.0020 C   0  0  0  0  0  0  0  0  0  0  0  0
   -3.0840   20.8230  -27.5270 S   0  0  0  0  0  0  0  0  0  0  0  0
   -3.8794   24.6271  -25.9987 H   0  0  0  0  0  0  0  0  0  0  0  0
   -3.7759   25.5219  -27.5528 H   0  0  0  0  0  0  0  0  0  0  0  0
   -4.1185   23.7586  -27.5528 H   0  0  0  0  0  0  0  0  0  0  0  0
   -1.5241   25.1050  -26.6393 H   0  0  0  0  0  0  0  0  0  0  0  0
   -1.8957   23.3160  -26.6046 H   0  0  0  0  0  0  0  0  0  0  0  0
   -2.2790   24.9130  -30.2020 H   0  0  0  0  0  0  0  0  0  0  0  0
    0.3602   23.3953  -29.3838 H   0  0  0  0  0  0  0  0  0  0  0  0
    0.3160   25.1687  -28.8415 H   0  0  0  0  0  0  0  0  0  0  0  0
    0.1650   24.0706  -26.4615 H   0  0  0  0  0  0  0  0  0  0  0  0
    0.9900   22.7055  -27.2877 H   0  0  0  0  0  0  0  0  0  0  0  0
    1.7373   24.3389  -27.2877 H   0  0  0  0  0  0  0  0  0  0  0  0
   -1.5126   22.7211  -30.1894 H   0  0  0  0  0  0  0  0  0  0  0  0
   -4.0440   23.8200  -29.1950 H   0  0  0  0  0  0  0  0  0  0  0  0
   -3.4980   25.6800  -30.1380 H   0  0  0  0  0  0  0  0  0  0  0  0
   -8.2137   24.4633  -31.3821 H   0  0  0  0  0  0  0  0  0  0  0  0
   -9.7308   22.2299  -32.3440 H   0  0  0  0  0  0  0  0  0  0  0  0
   -9.5927   19.7513  -32.7690 H   0  0  0  0  0  0  0  0  0  0  0  0
   -8.4779   17.6925  -32.3428 H   0  0  0  0  0  0  0  0  0  0  0  0
   -5.4654   19.7403  -31.3658 H   0  0  0  0  0  0  0  0  0  0  0  0
    0.1828   21.0351  -28.9360 H   0  0  0  0  0  0  0  0  0  0  0  0
   -0.0642   18.9477  -27.3973 H   0  0  0  0  0  0  0  0  0  0  0  0
   -2.4590   18.7369  -26.3199 H   0  0  0  0  0  0  0  0  0  0  0  0
  1  2  1  0
  2  3  1  0
  3  4  1  0
  3  5  1  0
  5  6  1  0
  3  7  1  0
  7  8  1  0
  8  9  1  0
  9 10  2  0
  9 11  1  0
 11 12  1  0
 12 13  1  0
 13 14  1  0
 13 15  2  0
 12 16  2  0
 16 17  1  0
 17 18  2  0
 18 19  1  0
 19 20  2  0
 20 21  1  0
 21 22  1  0
 21 23  1  0
 20 24  1  0
 24 25  2  0
  7 26  1  0
 26 27  2  0
 27 28  1  0
 28 29  2  0
 29 30  1  0
 25 11  1  0
 30 26  1  0
 25 17  1  0
  1 31  1  0
  1 32  1  0
  1 33  1  0
  2 34  1  0
  2 35  1  0
  4 36  1  0
  5 37  1  0
  5 38  1  0
  6 39  1  0
  6 40  1  0
  6 41  1  0
  7 42  1  6
  8 43  1  0
 14 44  1  0
 16 45  1  0
 18 46  1  0
 19 47  1  0
 21 48  1  0
 24 49  1  0
 27 50  1  0
 28 51  1  0
 29 52  1  0
M  CHG  1  14  -1
M  END
>  <UniqueID>  (55) 
54

>  <SMILES>  (55) 
CCC(O)(CC)[C@H](NC(=O)n1c(C([NH-])=O)cc2ccc(C(F)F)cc21)c1cccs1

>  <Energy>  (55) 
118.40831518429239

>  <Genealogy>  (55) 
CCC(O)(CC)C(NC(=O)n1c(C([NH-])=O)cc2ccc(C(F)F)cc21)c1cccs1 (protonated)
CCC(O)(CC)[C@H](NC(=O)n1c(C([NH-])=O)cc2ccc(C(F)F)cc21)c1cccs1 (chirality)
CCC(O)(CC)[C@H](NC(=O)n1c(C([NH-])=O)cc2ccc(C(F)F)cc21)c1cccs1 (3D coordinates assigned)
CCC(O)(CC)[C@H](NC(=O)n1c(C([NH-])=O)cc2ccc(C(F)F)cc21)c1cccs1 (optimized conformer: 118.40831518429239 kcal/mol)

>  <smiles>  (55) 
CCC(O)(CC)C(NC(=O)n1c(C(N)=O)cc2ccc(C(F)F)cc21)c1cccs1

>  <score_type>  (55) 
oracle

>  <origin>  (55) 
adg

>  <m_score__min__energy>  (55) 
-11.619999999999999

>  <m_primary>  (55) 
energy

$$$$
55:0
     RDKit          3D

 38 39  0  0  0  0  0  0  0  0999 V2000
   -3.0840   25.2960  -30.5360 H   0  0  0  0  0  0  0  0  0  0  0  0
   -4.0210   25.6190  -30.8440 N   0  0  0  0  0  0  0  0  0  0  0  0
   -5.2110   25.0950  -30.2500 C   0  0  0  0  0  0  0  0  0  0  0  0
   -5.7730   25.7180  -29.3030 O   0  0  0  0  0  0  0  0  0  0  0  0
   -5.7740   23.8370  -30.7470 C   0  0  0  0  0  0  0  0  0  0  0  0
   -7.1140   23.6800  -31.0680 C   0  0  0  0  0  0  0  0  0  0  0  0
   -7.9085   24.4387  -31.0118 H   0  0  0  0  0  0  0  0  0  0  0  0
   -7.2350   22.3700  -31.4720 C   0  0  0  0  0  0  0  0  0  0  0  0
   -8.3430   21.6890  -31.9580 C   0  0  0  0  0  0  0  0  0  0  0  0
   -9.3334   22.1668  -31.9881 H   0  0  0  0  0  0  0  0  0  0  0  0
   -8.1610   20.3690  -32.4110 C   0  0  0  0  0  0  0  0  0  0  0  0
   -9.0228   19.8028  -32.7940 H   0  0  0  0  0  0  0  0  0  0  0  0
   -6.8800   19.7590  -32.3800 C   0  0  0  0  0  0  0  0  0  0  0  0
   -6.7050   18.3780  -32.9550 C   0  0  0  0  0  0  0  0  0  0  0  0
   -7.8750   17.6670  -32.7890 F   0  0  0  0  0  0  0  0  0  0  0  0
   -6.4010   18.4190  -34.2950 F   0  0  0  0  0  0  0  0  0  0  0  0
   -5.6850   17.7230  -32.2840 F   0  0  0  0  0  0  0  0  0  0  0  0
   -5.7710   20.4880  -31.8790 C   0  0  0  0  0  0  0  0  0  0  0  0
   -4.7647   20.0440  -31.8640 H   0  0  0  0  0  0  0  0  0  0  0  0
   -5.9900   21.7900  -31.4030 C   0  0  0  0  0  0  0  0  0  0  0  0
   -5.0780   22.6850  -30.9480 N   0  0  0  0  0  0  0  0  0  0  0  0
   -3.6580   22.5000  -30.8010 C   0  0  0  0  0  0  0  0  0  0  0  0
   -2.8530   23.3750  -31.2340 O   0  0  0  0  0  0  0  0  0  0  0  0
   -3.1520   21.3090  -30.1810 N   0  0  0  0  0  0  0  0  0  0  0  0
   -1.7970   20.8070  -30.3480 C   0  0  0  0  0  0  0  0  0  0  0  0
   -1.7794   20.0915  -31.1833 H   0  0  0  0  0  0  0  0  0  0  0  0
   -1.1319   21.6585  -30.5542 H   0  0  0  0  0  0  0  0  0  0  0  0
   -1.3080   20.1040  -29.0760 C   0  0  0  0  0  0  0  0  0  0  0  0
   -1.2490   19.0215  -29.2623 H   0  0  0  0  0  0  0  0  0  0  0  0
   -0.3170   20.5019  -28.8123 H   0  0  0  0  0  0  0  0  0  0  0  0
   -2.2510   20.3570  -27.9280 C   0  0  0  0  0  0  0  0  0  0  0  0
   -3.0607   19.6325  -27.7561 H   0  0  0  0  0  0  0  0  0  0  0  0
   -2.1640   21.4120  -27.1020 C   0  0  0  0  0  0  0  0  0  0  0  0
   -2.9664   21.5606  -26.3644 H   0  0  0  0  0  0  0  0  0  0  0  0
   -1.0520   22.3850  -27.1270 C   0  0  0  0  0  0  0  0  0  0  0  0
   -0.0938   22.1491  -26.6410 H   0  0  0  0  0  0  0  0  0  0  0  0
   -1.3020   24.0640  -28.0180 I   0  0  0  0  0  0  0  0  0  0  0  0
   -1.5730   25.8470  -28.9570 F   0  0  0  0  0  0  0  0  0  0  0  0
  1  2  1  0
  2  3  1  0
  3  4  2  0
  3  5  1  0
  5  6  2  0
  6  7  1  0
  6  8  1  0
  8  9  2  0
  9 10  1  0
  9 11  1  0
 11 12  1  0
 11 13  2  0
 13 14  1  0
 14 15  1  0
 14 16  1  0
 14 17  1  0
 13 18  1  0
 18 19  1  0
 18 20  2  0
 20 21  1  0
 21 22  1  0
 22 23  2  0
 22 24  1  0
 24 25  1  0
 25 26  1  0
 25 27  1  0
 25 28  1  0
 28 29  1  0
 28 30  1  0
 28 31  1  0
 31 32  1  0
 31 33  2  0
 33 34  1  0
 33 35  1  0
 35 36  1  0
 35 37  2  3
 37 38  1  0
 21  5  1  0
 20  8  1  0
M  CHG  2   2  -1  24  -1
M  END
>  <UniqueID>  (56) 
55

>  <SMILES>  (56) 
[NH-]C(=O)c1cc2ccc(C(F)(F)F)cc2n1C(=O)[N-]CC/C=C\C=I/F

>  <Energy>  (56) 
76.35112617055192

>  <Genealogy>  (56) 
[NH-]C(=O)c1cc2ccc(C(F)(F)F)cc2n1C(=O)[N-]CC/C=C\C=IF (protonated)
[NH-]C(=O)c1cc2ccc(C(F)(F)F)cc2n1C(=O)[N-]CC/C=C\C=I/F (cis-trans isomerization)
[NH-]C(=O)c1cc2ccc(C(F)(F)F)cc2n1C(=O)[N-]CC/C=C\C=I/F (3D coordinates assigned)
[NH-]C(=O)c1cc2ccc(C(F)(F)F)cc2n1C(=O)[N-]CC/C=C\C=I/F (optimized conformer: 76.35112617055192 kcal/mol)

>  <smiles>  (56) 
NC(=O)c1cc2ccc(C(F)(F)F)cc2n1C(=O)NCC/C=C\C=IF

>  <score_type>  (56) 
oracle

>  <origin>  (56) 
adg

>  <m_score__min__energy>  (56) 
-11.57

>  <m_primary>  (56) 
energy

$$$$
56:0
     RDKit          3D

 41 43  0  0  0  0  0  0  0  0999 V2000
   -3.8620   25.3100  -30.5990 N   0  0  0  0  0  0  0  0  0  0  0  0
   -5.2640   25.1480  -30.3990 C   0  0  0  0  0  0  0  0  0  0  0  0
   -5.9190   26.0690  -29.8420 O   0  0  0  0  0  0  0  0  0  0  0  0
   -5.9290   23.8980  -30.8150 C   0  0  0  0  0  0  0  0  0  0  0  0
   -7.3050   23.7700  -30.9960 C   0  0  0  0  0  0  0  0  0  0  0  0
   -7.4970   22.4750  -31.4270 C   0  0  0  0  0  0  0  0  0  0  0  0
   -8.6730   21.7940  -31.7260 C   0  0  0  0  0  0  0  0  0  0  0  0
   -8.5730   20.4430  -32.1030 C   0  0  0  0  0  0  0  0  0  0  0  0
   -7.3080   19.8040  -32.1890 C   0  0  0  0  0  0  0  0  0  0  0  0
   -7.2180   18.3380  -32.5320 C   0  0  0  0  0  0  0  0  0  0  0  0
   -6.8250   18.1670  -33.8480 F   0  0  0  0  0  0  0  0  0  0  0  0
   -6.2960   17.7030  -31.7190 F   0  0  0  0  0  0  0  0  0  0  0  0
   -8.4570   17.7530  -32.3530 F   0  0  0  0  0  0  0  0  0  0  0  0
   -6.1390   20.5270  -31.8540 C   0  0  0  0  0  0  0  0  0  0  0  0
   -6.2700   21.8710  -31.4940 C   0  0  0  0  0  0  0  0  0  0  0  0
   -5.2990   22.7300  -31.1200 N   0  0  0  0  0  0  0  0  0  0  0  0
   -3.9120   22.4070  -30.9540 C   0  0  0  0  0  0  0  0  0  0  0  0
   -3.0990   22.6290  -31.8910 O   0  0  0  0  0  0  0  0  0  0  0  0
   -3.4530   21.6800  -29.7270 C   0  0  0  0  0  0  0  0  0  0  0  0
   -2.6650   22.6250  -28.8180 C   0  0  0  0  0  0  0  0  0  0  0  0
   -3.7790   23.5110  -27.6700 S   0  0  0  0  0  0  0  0  0  0  0  0
   -2.5750   24.7700  -27.2270 C   0  0  0  0  0  0  0  0  0  0  0  0
   -1.6050   25.1750  -28.1540 C   0  0  0  0  0  0  0  0  0  0  0  0
   -0.6850   26.1730  -27.8170 C   0  0  0  0  0  0  0  0  0  0  0  0
   -0.7250   26.7600  -26.5480 C   0  0  0  0  0  0  0  0  0  0  0  0
   -1.6760   26.3430  -25.6130 C   0  0  0  0  0  0  0  0  0  0  0  0
   -2.5990   25.3470  -25.9500 C   0  0  0  0  0  0  0  0  0  0  0  0
   -3.4920   26.0350  -31.2540 H   0  0  0  0  0  0  0  0  0  0  0  0
   -8.0740   24.5388  -30.8302 H   0  0  0  0  0  0  0  0  0  0  0  0
   -9.6499   22.2965  -31.6693 H   0  0  0  0  0  0  0  0  0  0  0  0
   -9.4858   19.8744  -32.3341 H   0  0  0  0  0  0  0  0  0  0  0  0
   -5.1513   20.0432  -31.8763 H   0  0  0  0  0  0  0  0  0  0  0  0
   -4.3287   21.2976  -29.1821 H   0  0  0  0  0  0  0  0  0  0  0  0
   -2.8032   20.8444  -30.0264 H   0  0  0  0  0  0  0  0  0  0  0  0
   -1.9385   22.0403  -28.2347 H   0  0  0  0  0  0  0  0  0  0  0  0
   -2.1483   23.3655  -29.4462 H   0  0  0  0  0  0  0  0  0  0  0  0
   -1.5672   24.7069  -29.1487 H   0  0  0  0  0  0  0  0  0  0  0  0
    0.0695   26.4961  -28.5494 H   0  0  0  0  0  0  0  0  0  0  0  0
   -0.0069   27.5509  -26.2858 H   0  0  0  0  0  0  0  0  0  0  0  0
   -1.6990   26.7979  -24.6117 H   0  0  0  0  0  0  0  0  0  0  0  0
   -3.3444   25.0164  -25.2118 H   0  0  0  0  0  0  0  0  0  0  0  0
  1  2  1  0
  2  3  2  0
  2  4  1  0
  4  5  2  0
  5  6  1  0
  6  7  2  0
  7  8  1  0
  8  9  2  0
  9 10  1  0
 10 11  1  0
 10 12  1  0
 10 13  1  0
  9 14  1  0
 14 15  2  0
 15 16  1  0
 16 17  1  0
 17 18  2  0
 17 19  1  0
 19 20  1  0
 20 21  1  0
 21 22  1  0
 22 23  2  0
 23 24  1  0
 24 25  2  0
 25 26  1  0
 26 27  2  0
 16  4  1  0
 27 22  1  0
 15  6  1  0
  1 28  1  0
  5 29  1  0
  7 30  1  0
  8 31  1  0
 14 32  1  0
 19 33  1  0
 19 34  1  0
 20 35  1  0
 20 36  1  0
 23 37  1  0
 24 38  1  0
 25 39  1  0
 26 40  1  0
 27 41  1  0
M  CHG  1   1  -1
M  END
>  <UniqueID>  (57) 
56

>  <SMILES>  (57) 
[NH-]C(=O)c1cc2ccc(C(F)(F)F)cc2n1C(=O)CCSc1ccccc1

>  <Energy>  (57) 
76.02103764407417

>  <Genealogy>  (57) 
[NH-]C(=O)c1cc2ccc(C(F)(F)F)cc2n1C(=O)CCSc1ccccc1 (protonated)
[NH-]C(=O)c1cc2ccc(C(F)(F)F)cc2n1C(=O)CCSc1ccccc1 (3D coordinates assigned)
[NH-]C(=O)c1cc2ccc(C(F)(F)F)cc2n1C(=O)CCSc1ccccc1 (optimized conformer: 76.02103764407417 kcal/mol)

>  <smiles>  (57) 
NC(=O)c1cc2ccc(C(F)(F)F)cc2n1C(=O)CCSc1ccccc1

>  <score_type>  (57) 
oracle

>  <origin>  (57) 
adg

>  <m_score__min__energy>  (57) 
-11.52

>  <m_primary>  (57) 
energy

$$$$
57:0
     RDKit          3D

 43 45  0  0  0  0  0  0  0  0999 V2000
   -4.1060   25.6710  -30.8510 N   0  0  0  0  0  0  0  0  0  0  0  0
   -5.3600   25.1260  -30.4520 C   0  0  0  0  0  0  0  0  0  0  0  0
   -6.1350   25.8170  -29.7390 O   0  0  0  0  0  0  0  0  0  0  0  0
   -5.7900   23.7900  -30.9150 C   0  0  0  0  0  0  0  0  0  0  0  0
   -7.0880   23.5120  -31.3330 C   0  0  0  0  0  0  0  0  0  0  0  0
   -7.0540   22.2160  -31.7940 C   0  0  0  0  0  0  0  0  0  0  0  0
   -8.0680   21.4330  -32.3310 C   0  0  0  0  0  0  0  0  0  0  0  0
   -7.7540   20.1200  -32.7180 C   0  0  0  0  0  0  0  0  0  0  0  0
   -6.4410   19.6050  -32.5540 C   0  0  0  0  0  0  0  0  0  0  0  0
   -6.1270   18.2130  -32.9680 C   0  0  0  0  0  0  0  0  0  0  0  0
   -6.1830   17.6930  -34.2650 C   0  0  0  0  0  0  0  0  0  0  0  0
   -5.8380   16.3380  -34.3430 C   0  0  0  0  0  0  0  0  0  0  0  0
   -5.5100   15.7870  -33.1150 C   0  0  0  0  0  0  0  0  0  0  0  0
   -5.0350   14.1250  -32.8320 Cl  0  0  0  0  0  0  0  0  0  0  0  0
   -5.6490   16.9680  -31.9320 S   0  0  0  0  0  0  0  0  0  0  0  0
   -5.4410   20.4340  -31.9910 C   0  0  0  0  0  0  0  0  0  0  0  0
   -5.7760   21.7480  -31.6370 C   0  0  0  0  0  0  0  0  0  0  0  0
   -4.9860   22.7020  -31.0920 N   0  0  0  0  0  0  0  0  0  0  0  0
   -3.6010   22.5580  -30.7330 C   0  0  0  0  0  0  0  0  0  0  0  0
   -2.7340   23.3310  -31.2240 O   0  0  0  0  0  0  0  0  0  0  0  0
   -3.2250   21.5760  -29.8140 O   0  0  0  0  0  0  0  0  0  0  0  0
   -3.0440   21.8310  -28.4270 C   0  0  0  0  0  0  0  0  0  0  0  0
   -3.9930   22.9420  -27.9670 C   0  0  0  0  0  0  0  0  0  0  0  0
   -3.2810   24.2720  -27.6640 C   0  0  0  0  0  0  0  0  0  0  0  0
   -1.7780   24.1030  -27.3960 C   0  0  0  0  0  0  0  0  0  0  0  0
   -0.9770   24.7860  -28.4590 C   0  0  0  0  0  0  0  0  0  0  0  0
    0.2480   24.5260  -28.5970 O   0  0  0  0  0  0  0  0  0  0  0  0
   -1.5940   25.6750  -29.3300 O   0  0  0  0  0  0  0  0  0  0  0  0
   -3.2100   25.2910  -30.4720 H   0  0  0  0  0  0  0  0  0  0  0  0
   -7.9570   24.1856  -31.3015 H   0  0  0  0  0  0  0  0  0  0  0  0
   -9.0871   21.8298  -32.4496 H   0  0  0  0  0  0  0  0  0  0  0  0
   -8.5363   19.4815  -33.1543 H   0  0  0  0  0  0  0  0  0  0  0  0
   -6.4710   18.2920  -35.1415 H   0  0  0  0  0  0  0  0  0  0  0  0
   -5.8284   15.7687  -35.2842 H   0  0  0  0  0  0  0  0  0  0  0  0
   -4.4206   20.0541  -31.8344 H   0  0  0  0  0  0  0  0  0  0  0  0
   -3.2551   20.9136  -27.8580 H   0  0  0  0  0  0  0  0  0  0  0  0
   -2.0057   22.1496  -28.2523 H   0  0  0  0  0  0  0  0  0  0  0  0
   -4.7345   23.1170  -28.7605 H   0  0  0  0  0  0  0  0  0  0  0  0
   -4.4572   22.6029  -27.0292 H   0  0  0  0  0  0  0  0  0  0  0  0
   -3.4097   24.9425  -28.5265 H   0  0  0  0  0  0  0  0  0  0  0  0
   -3.7328   24.6854  -26.7502 H   0  0  0  0  0  0  0  0  0  0  0  0
   -1.5327   24.5436  -26.4184 H   0  0  0  0  0  0  0  0  0  0  0  0
   -1.5339   23.0304  -27.4001 H   0  0  0  0  0  0  0  0  0  0  0  0
  1  2  1  0
  2  3  2  0
  2  4  1  0
  4  5  2  0
  5  6  1  0
  6  7  2  0
  7  8  1  0
  8  9  2  0
  9 10  1  0
 10 11  2  0
 11 12  1  0
 12 13  2  0
 13 14  1  0
 13 15  1  0
  9 16  1  0
 16 17  2  0
 17 18  1  0
 18 19  1  0
 19 20  2  0
 19 21  1  0
 21 22  1  0
 22 23  1  0
 23 24  1  0
 24 25  1  0
 25 26  1  0
 26 27  2  0
 26 28  1  0
 18  4  1  0
 17  6  1  0
 15 10  1  0
  1 29  1  0
  5 30  1  0
  7 31  1  0
  8 32  1  0
 11 33  1  0
 12 34  1  0
 16 35  1  0
 22 36  1  0
 22 37  1  0
 23 38  1  0
 23 39  1  0
 24 40  1  0
 24 41  1  0
 25 42  1  0
 25 43  1  0
M  CHG  2   1  -1  28  -1
M  END
>  <UniqueID>  (58) 
57

>  <SMILES>  (58) 
[NH-]C(=O)c1cc2ccc(-c3ccc(Cl)s3)cc2n1C(=O)OCCCCC(=O)[O-]

>  <Energy>  (58) 
104.17587127674977

>  <Genealogy>  (58) 
[NH-]C(=O)c1cc2ccc(-c3ccc(Cl)s3)cc2n1C(=O)OCCCCC(=O)[O-] (protonated)
[NH-]C(=O)c1cc2ccc(-c3ccc(Cl)s3)cc2n1C(=O)OCCCCC(=O)[O-] (3D coordinates assigned)
[NH-]C(=O)c1cc2ccc(-c3ccc(Cl)s3)cc2n1C(=O)OCCCCC(=O)[O-] (optimized conformer: 104.17587127674977 kcal/mol)

>  <smiles>  (58) 
NC(=O)c1cc2ccc(-c3ccc(Cl)s3)cc2n1C(=O)OCCCCC(=O)O

>  <score_type>  (58) 
oracle

>  <origin>  (58) 
adg

>  <m_score__min__energy>  (58) 
-14.130000000000001

>  <m_primary>  (58) 
energy

$$$$
58:0
     RDKit          3D

 50 53  0  0  0  0  0  0  0  0999 V2000
   -1.6010   26.0420  -28.9010 N   0  0  0  0  0  0  0  0  0  0  0  0
   -0.8770   24.8180  -28.8330 C   0  0  0  0  0  0  0  0  0  0  0  0
    0.2120   24.7800  -28.1990 O   0  0  0  0  0  0  0  0  0  0  0  0
   -1.3520   23.6120  -29.5420 C   0  0  0  0  0  0  0  0  0  0  0  0
   -0.5350   22.5220  -29.8320 C   0  0  0  0  0  0  0  0  0  0  0  0
   -1.3170   21.6650  -30.5700 C   0  0  0  0  0  0  0  0  0  0  0  0
   -1.0130   20.4220  -31.1150 C   0  0  0  0  0  0  0  0  0  0  0  0
   -2.0260   19.7400  -31.8090 C   0  0  0  0  0  0  0  0  0  0  0  0
   -3.3230   20.3040  -31.9410 C   0  0  0  0  0  0  0  0  0  0  0  0
   -4.3900   19.5680  -32.6660 C   0  0  0  0  0  0  0  0  0  0  0  0
   -5.5230   20.2450  -33.1350 C   0  0  0  0  0  0  0  0  0  0  0  0
   -6.5220   19.5550  -33.8150 C   0  0  0  0  0  0  0  0  0  0  0  0
   -6.4080   18.1820  -34.0350 C   0  0  0  0  0  0  0  0  0  0  0  0
   -5.2850   17.4560  -33.5710 C   0  0  0  0  0  0  0  0  0  0  0  0
   -5.1630   16.0130  -33.8000 N   0  0  0  0  0  0  0  0  0  0  0  0
   -3.8100   15.4060  -33.7720 C   0  0  0  0  0  0  0  0  0  0  0  0
   -3.7420   13.9070  -34.0920 C   0  0  0  0  0  0  0  0  0  0  0  0
   -4.9540   13.1190  -33.6070 C   0  0  0  0  0  0  0  0  0  0  0  0
   -5.0260   12.9490  -32.0730 C   0  0  0  0  0  0  0  0  0  0  0  0
   -4.9530   14.1780  -31.4060 O   0  0  0  0  0  0  0  0  0  0  0  0
   -6.2090   13.7240  -34.2270 C   0  0  0  0  0  0  0  0  0  0  0  0
   -6.4040   15.2060  -33.8920 C   0  0  0  0  0  0  0  0  0  0  0  0
   -4.2760   18.1830  -32.8900 C   0  0  0  0  0  0  0  0  0  0  0  0
   -3.5900   21.5720  -31.3730 C   0  0  0  0  0  0  0  0  0  0  0  0
   -2.5560   22.2360  -30.7020 C   0  0  0  0  0  0  0  0  0  0  0  0
   -2.5950   23.4330  -30.0740 N   0  0  0  0  0  0  0  0  0  0  0  0
   -3.7470   24.2770  -29.9150 C   0  0  0  0  0  0  0  0  0  0  0  0
   -4.6350   23.9900  -29.0700 O   0  0  0  0  0  0  0  0  0  0  0  0
   -3.8780   25.4330  -30.6750 O   0  0  0  0  0  0  0  0  0  0  0  0
   -2.6430   26.0470  -28.9700 H   0  0  0  0  0  0  0  0  0  0  0  0
    0.5139   22.3773  -29.5338 H   0  0  0  0  0  0  0  0  0  0  0  0
   -0.0090   19.9860  -31.0058 H   0  0  0  0  0  0  0  0  0  0  0  0
   -1.8124   18.7576  -32.2555 H   0  0  0  0  0  0  0  0  0  0  0  0
   -5.6236   21.3271  -32.9650 H   0  0  0  0  0  0  0  0  0  0  0  0
   -7.4072   20.0955  -34.1814 H   0  0  0  0  0  0  0  0  0  0  0  0
   -7.2052   17.6542  -34.5789 H   0  0  0  0  0  0  0  0  0  0  0  0
   -3.1873   15.9363  -34.5075 H   0  0  0  0  0  0  0  0  0  0  0  0
   -3.4603   15.5052  -32.7338 H   0  0  0  0  0  0  0  0  0  0  0  0
   -3.6649   13.7883  -35.1829 H   0  0  0  0  0  0  0  0  0  0  0  0
   -2.8656   13.5055  -33.5621 H   0  0  0  0  0  0  0  0  0  0  0  0
   -4.8573   12.0796  -33.9539 H   0  0  0  0  0  0  0  0  0  0  0  0
   -5.9767   12.4600  -31.8139 H   0  0  0  0  0  0  0  0  0  0  0  0
   -4.1666   12.3392  -31.7576 H   0  0  0  0  0  0  0  0  0  0  0  0
   -5.4070   14.0460  -30.5340 H   0  0  0  0  0  0  0  0  0  0  0  0
   -6.1418   13.6203  -35.3200 H   0  0  0  0  0  0  0  0  0  0  0  0
   -7.0697   13.1821  -33.8080 H   0  0  0  0  0  0  0  0  0  0  0  0
   -7.0379   15.6488  -34.6743 H   0  0  0  0  0  0  0  0  0  0  0  0
   -6.8526   15.2301  -32.8879 H   0  0  0  0  0  0  0  0  0  0  0  0
   -3.3831   17.6522  -32.5282 H   0  0  0  0  0  0  0  0  0  0  0  0
   -4.5883   22.0263  -31.4567 H   0  0  0  0  0  0  0  0  0  0  0  0
  1  2  1  0
  2  3  2  0
  2  4  1  0
  4  5  2  0
  5  6  1  0
  6  7  2  0
  7  8  1  0
  8  9  2  0
  9 10  1  0
 10 11  2  0
 11 12  1  0
 12 13  2  0
 13 14  1  0
 14 15  1  0
 15 16  1  0
 16 17  1  0
 17 18  1  0
 18 19  1  0
 19 20  1  0
 18 21  1  0
 21 22  1  0
 14 23  2  0
  9 24  1  0
 24 25  2  0
 25 26  1  0
 26 27  1  0
 27 28  2  0
 27 29  1  0
 26  4  1  0
 25  6  1  0
 23 10  1  0
 22 15  1  0
  1 30  1  0
  5 31  1  0
  7 32  1  0
  8 33  1  0
 11 34  1  0
 12 35  1  0
 13 36  1  0
 16 37  1  0
 16 38  1  0
 17 39  1  0
 17 40  1  0
 18 41  1  0
 19 42  1  0
 19 43  1  0
 20 44  1  0
 21 45  1  0
 21 46  1  0
 22 47  1  0
 22 48  1  0
 23 49  1  0
 24 50  1  0
M  CHG  2   1  -1  29  -1
M  END
>  <UniqueID>  (59) 
58

>  <SMILES>  (59) 
[NH-]C(=O)c1cc2ccc(-c3cccc(N4CCC(CO)CC4)c3)cc2n1C(=O)[O-]

>  <Energy>  (59) 
106.47383502995402

>  <Genealogy>  (59) 
[NH-]C(=O)c1cc2ccc(-c3cccc(N4CCC(CO)CC4)c3)cc2n1C(=O)[O-] (protonated)
[NH-]C(=O)c1cc2ccc(-c3cccc(N4CCC(CO)CC4)c3)cc2n1C(=O)[O-] (3D coordinates assigned)
[NH-]C(=O)c1cc2ccc(-c3cccc(N4CCC(CO)CC4)c3)cc2n1C(=O)[O-] (nonaromatic ring conformer: 106.47383502995402 kcal/mol)

>  <smiles>  (59) 
NC(=O)c1cc2ccc(-c3cccc(N4CCC(CO)CC4)c3)cc2n1C(=O)O

>  <score_type>  (59) 
oracle

>  <origin>  (59) 
adg

>  <m_score__min__energy>  (59) 
-12.140000000000001

>  <m_primary>  (59) 
energy

$$$$
59:0
     RDKit          3D

 41 43  0  0  0  0  0  0  0  0999 V2000
   -7.5960   17.4280  -32.7290 C   0  0  0  0  0  0  0  0  0  0  0  0
   -6.2810   18.2090  -32.6140 C   0  0  1  0  0  0  0  0  0  0  0  0
   -5.4460   18.0720  -33.8940 C   0  0  0  0  0  0  0  0  0  0  0  0
   -6.0610   18.7400  -34.9380 F   0  0  0  0  0  0  0  0  0  0  0  0
   -6.5430   19.6660  -32.2790 C   0  0  0  0  0  0  0  0  0  0  0  0
   -7.8490   20.2000  -32.4260 C   0  0  0  0  0  0  0  0  0  0  0  0
   -8.1170   21.5420  -32.1100 C   0  0  0  0  0  0  0  0  0  0  0  0
   -7.0650   22.3290  -31.6570 C   0  0  0  0  0  0  0  0  0  0  0  0
   -7.0500   23.6480  -31.2620 C   0  0  0  0  0  0  0  0  0  0  0  0
   -5.7310   23.9110  -30.8990 C   0  0  0  0  0  0  0  0  0  0  0  0
   -5.2480   25.2490  -30.4970 C   0  0  0  0  0  0  0  0  0  0  0  0
   -3.9040   25.6500  -30.7490 N   0  0  0  0  0  0  0  0  0  0  0  0
   -6.0470   26.0660  -29.9640 O   0  0  0  0  0  0  0  0  0  0  0  0
   -4.9630   22.7960  -31.0540 N   0  0  0  0  0  0  0  0  0  0  0  0
   -3.5760   22.6280  -30.7230 C   0  0  0  0  0  0  0  0  0  0  0  0
   -2.6870   23.0200  -31.5260 O   0  0  0  0  0  0  0  0  0  0  0  0
   -3.2200   22.0460  -29.5000 O   0  0  0  0  0  0  0  0  0  0  0  0
   -3.0760   22.7880  -28.2930 C   0  0  0  0  0  0  0  0  0  0  0  0
   -1.6820   23.3240  -28.1790 C   0  0  0  0  0  0  0  0  0  0  0  0
   -0.6470   22.6120  -27.7980 O   0  0  0  0  0  0  0  0  0  0  0  0
    0.3900   23.4200  -27.8520 C   0  0  0  0  0  0  0  0  0  0  0  0
    1.5610   23.0720  -27.5500 O   0  0  0  0  0  0  0  0  0  0  0  0
    0.0710   24.6280  -28.2570 O   0  0  0  0  0  0  0  0  0  0  0  0
   -1.2210   24.5950  -28.4720 C   0  0  0  0  0  0  0  0  0  0  0  0
   -1.9630   25.6840  -28.9210 O   0  0  0  0  0  0  0  0  0  0  0  0
   -5.7930   21.8380  -31.5240 C   0  0  0  0  0  0  0  0  0  0  0  0
   -5.4980   20.5020  -31.8120 C   0  0  0  0  0  0  0  0  0  0  0  0
   -7.9772   17.2016  -31.7223 H   0  0  0  0  0  0  0  0  0  0  0  0
   -8.3356   18.0334  -33.2736 H   0  0  0  0  0  0  0  0  0  0  0  0
   -7.4183   16.4889  -33.2736 H   0  0  0  0  0  0  0  0  0  0  0  0
   -5.6982   17.7754  -31.7880 H   0  0  0  0  0  0  0  0  0  0  0  0
   -4.4479   18.5023  -33.7248 H   0  0  0  0  0  0  0  0  0  0  0  0
   -5.3561   17.0065  -34.1523 H   0  0  0  0  0  0  0  0  0  0  0  0
   -8.6616   19.5552  -32.7919 H   0  0  0  0  0  0  0  0  0  0  0  0
   -9.1296   21.9578  -32.2179 H   0  0  0  0  0  0  0  0  0  0  0  0
   -7.8997   24.3462  -31.2381 H   0  0  0  0  0  0  0  0  0  0  0  0
   -3.1120   24.9800  -30.6320 H   0  0  0  0  0  0  0  0  0  0  0  0
   -3.7886   23.6260  -28.2943 H   0  0  0  0  0  0  0  0  0  0  0  0
   -3.2771   22.1256  -27.4381 H   0  0  0  0  0  0  0  0  0  0  0  0
   -2.4370   25.6740  -29.8150 H   0  0  0  0  0  0  0  0  0  0  0  0
   -4.4792   20.1091  -31.6793 H   0  0  0  0  0  0  0  0  0  0  0  0
  1  2  1  0
  2  3  1  0
  3  4  1  0
  2  5  1  0
  5  6  2  0
  6  7  1  0
  7  8  2  0
  8  9  1  0
  9 10  2  0
 10 11  1  0
 11 12  1  0
 11 13  2  0
 10 14  1  0
 14 15  1  0
 15 16  2  0
 15 17  1  0
 17 18  1  0
 18 19  1  0
 19 20  1  0
 20 21  1  0
 21 22  2  0
 21 23  1  0
 23 24  1  0
 24 25  1  0
 14 26  1  0
 26 27  2  0
 27  5  1  0
 26  8  1  0
 24 19  2  0
  1 28  1  0
  1 29  1  0
  1 30  1  0
  2 31  1  1
  3 32  1  0
  3 33  1  0
  6 34  1  0
  7 35  1  0
  9 36  1  0
 12 37  1  0
 18 38  1  0
 18 39  1  0
 25 40  1  0
 27 41  1  0
M  CHG  1  12  -1
M  END
>  <UniqueID>  (60) 
59

>  <SMILES>  (60) 
C[C@@H](CF)c1ccc2cc(C([NH-])=O)n(C(=O)OCc3oc(=O)oc3O)c2c1

>  <Energy>  (60) 
110.71897050052587

>  <Genealogy>  (60) 
CC(CF)c1ccc2cc(C([NH-])=O)n(C(=O)OCc3oc(=O)oc3O)c2c1 (protonated)
C[C@@H](CF)c1ccc2cc(C([NH-])=O)n(C(=O)OCc3oc(=O)oc3O)c2c1 (chirality)
C[C@@H](CF)c1ccc2cc(C([NH-])=O)n(C(=O)OCc3oc(=O)oc3O)c2c1 (3D coordinates assigned)
C[C@@H](CF)c1ccc2cc(C([NH-])=O)n(C(=O)OCc3oc(=O)oc3O)c2c1 (optimized conformer: 110.71897050052587 kcal/mol)

>  <smiles>  (60) 
CC(CF)c1ccc2cc(C(N)=O)n(C(=O)OCc3oc(=O)oc3O)c2c1

>  <score_type>  (60) 
oracle

>  <origin>  (60) 
adg

>  <m_score__min__energy>  (60) 
-11.82

>  <m_primary>  (60) 
energy

$$$$
60:0
     RDKit          3D

 41 43  0  0  0  0  0  0  0  0999 V2000
   -6.3720   16.4760  -34.0930 C   0  0  0  0  0  0  0  0  0  0  0  0
   -5.4860   17.3550  -33.3120 N   0  0  0  0  0  0  0  0  0  0  0  0
   -4.9780   18.4380  -34.1790 C   0  0  0  0  0  0  0  0  0  0  0  0
   -5.7540   18.5410  -35.3180 F   0  0  0  0  0  0  0  0  0  0  0  0
   -6.2220   17.8890  -32.1430 C   0  0  0  0  0  0  0  0  0  0  0  0
   -7.5400   18.5530  -32.5630 C   0  0  0  0  0  0  0  0  0  0  0  0
   -7.5570   20.0030  -32.1600 C   0  0  0  0  0  0  0  0  0  0  0  0
   -8.7920   20.6810  -31.9950 C   0  0  0  0  0  0  0  0  0  0  0  0
   -8.8210   22.0240  -31.5790 C   0  0  0  0  0  0  0  0  0  0  0  0
   -7.6080   22.6560  -31.3290 C   0  0  0  0  0  0  0  0  0  0  0  0
   -7.3430   23.9390  -30.9010 C   0  0  0  0  0  0  0  0  0  0  0  0
   -5.9540   24.0180  -30.8100 C   0  0  0  0  0  0  0  0  0  0  0  0
   -5.2210   25.2480  -30.4440 C   0  0  0  0  0  0  0  0  0  0  0  0
   -3.8650   25.4170  -30.8540 N   0  0  0  0  0  0  0  0  0  0  0  0
   -5.7740   26.1470  -29.7580 O   0  0  0  0  0  0  0  0  0  0  0  0
   -5.3870   22.8300  -31.1590 N   0  0  0  0  0  0  0  0  0  0  0  0
   -3.9950   22.4830  -31.1670 C   0  0  0  0  0  0  0  0  0  0  0  0
   -3.4880   21.9700  -32.2000 O   0  0  0  0  0  0  0  0  0  0  0  0
   -3.1640   22.6770  -29.9690 C   0  0  0  0  0  0  0  0  0  0  0  0
   -2.0300   23.4110  -29.9620 N   0  0  0  0  0  0  0  0  0  0  0  0
   -1.4370   23.4170  -28.7380 C   0  0  0  0  0  0  0  0  0  0  0  0
   -2.0930   22.6800  -27.7600 C   0  0  0  0  0  0  0  0  0  0  0  0
   -3.4630   22.0000  -28.4580 S   0  0  0  0  0  0  0  0  0  0  0  0
   -6.4080   22.0110  -31.4800 C   0  0  0  0  0  0  0  0  0  0  0  0
   -6.3450   20.6750  -31.8860 C   0  0  0  0  0  0  0  0  0  0  0  0
   -6.9832   15.8696  -33.4084 H   0  0  0  0  0  0  0  0  0  0  0  0
   -7.0299   17.0884  -34.7271 H   0  0  0  0  0  0  0  0  0  0  0  0
   -5.7648   15.8132  -34.7271 H   0  0  0  0  0  0  0  0  0  0  0  0
   -5.0119   19.3900  -33.6289 H   0  0  0  0  0  0  0  0  0  0  0  0
   -3.9421   18.2091  -34.4698 H   0  0  0  0  0  0  0  0  0  0  0  0
   -6.4427   17.0624  -31.4517 H   0  0  0  0  0  0  0  0  0  0  0  0
   -5.5925   18.6489  -31.6569 H   0  0  0  0  0  0  0  0  0  0  0  0
   -7.6489   18.4804  -33.6552 H   0  0  0  0  0  0  0  0  0  0  0  0
   -8.3718   18.0367  -32.0614 H   0  0  0  0  0  0  0  0  0  0  0  0
   -9.7354   20.1515  -32.1942 H   0  0  0  0  0  0  0  0  0  0  0  0
   -9.7745   22.5584  -31.4551 H   0  0  0  0  0  0  0  0  0  0  0  0
   -8.0722   24.7319  -30.6785 H   0  0  0  0  0  0  0  0  0  0  0  0
   -3.0810   25.3000  -30.1750 H   0  0  0  0  0  0  0  0  0  0  0  0
   -0.5052   23.9658  -28.5369 H   0  0  0  0  0  0  0  0  0  0  0  0
   -1.7728   22.5622  -26.7142 H   0  0  0  0  0  0  0  0  0  0  0  0
   -5.3780   20.1609  -31.9893 H   0  0  0  0  0  0  0  0  0  0  0  0
  1  2  1  0
  2  3  1  0
  3  4  1  0
  2  5  1  0
  5  6  1  0
  6  7  1  0
  7  8  2  0
  8  9  1  0
  9 10  2  0
 10 11  1  0
 11 12  2  0
 12 13  1  0
 13 14  1  0
 13 15  2  0
 12 16  1  0
 16 17  1  0
 17 18  2  0
 17 19  1  0
 19 20  2  0
 20 21  1  0
 21 22  2  0
 22 23  1  0
 16 24  1  0
 24 25  2  0
 25  7  1  0
 24 10  1  0
 23 19  1  0
  1 26  1  0
  1 27  1  0
  1 28  1  0
  3 29  1  0
  3 30  1  0
  5 31  1  0
  5 32  1  0
  6 33  1  0
  6 34  1  0
  8 35  1  0
  9 36  1  0
 11 37  1  0
 14 38  1  0
 21 39  1  0
 22 40  1  0
 25 41  1  0
M  CHG  1  14  -1
M  END
>  <UniqueID>  (61) 
60

>  <SMILES>  (61) 
CN(CF)CCc1ccc2cc(C([NH-])=O)n(C(=O)c3nccs3)c2c1

>  <Energy>  (61) 
111.29625441650016

>  <Genealogy>  (61) 
CN(CF)CCc1ccc2cc(C([NH-])=O)n(C(=O)c3nccs3)c2c1 (protonated)
CN(CF)CCc1ccc2cc(C([NH-])=O)n(C(=O)c3nccs3)c2c1 (3D coordinates assigned)
CN(CF)CCc1ccc2cc(C([NH-])=O)n(C(=O)c3nccs3)c2c1 (optimized conformer: 111.29625441650016 kcal/mol)

>  <smiles>  (61) 
CN(CF)CCc1ccc2cc(C(N)=O)n(C(=O)c3nccs3)c2c1

>  <score_type>  (61) 
oracle

>  <origin>  (61) 
adg

>  <m_score__min__energy>  (61) 
-10.640000000000001

>  <m_primary>  (61) 
energy

$$$$
61:0
     RDKit          3D

 41 43  0  0  0  0  0  0  0  0999 V2000
   -3.3120   22.8750  -28.9280 C   0  0  0  0  0  0  0  0  0  0  0  0
   -2.9340   23.1280  -30.2760 O   0  0  0  0  0  0  0  0  0  0  0  0
   -3.7080   22.7170  -31.3660 C   0  0  0  0  0  0  0  0  0  0  0  0
   -3.1610   22.1850  -32.3700 O   0  0  0  0  0  0  0  0  0  0  0  0
   -5.1280   22.9260  -31.3500 N   0  0  0  0  0  0  0  0  0  0  0  0
   -5.8100   24.0150  -30.8910 C   0  0  0  0  0  0  0  0  0  0  0  0
   -5.2130   25.2940  -30.4530 C   0  0  0  0  0  0  0  0  0  0  0  0
   -3.8960   25.6640  -30.8510 N   0  0  0  0  0  0  0  0  0  0  0  0
   -5.8950   26.0940  -29.7580 O   0  0  0  0  0  0  0  0  0  0  0  0
   -7.1850   23.7970  -30.9640 C   0  0  0  0  0  0  0  0  0  0  0  0
   -7.3250   22.5360  -31.4940 C   0  0  0  0  0  0  0  0  0  0  0  0
   -8.4770   21.8070  -31.7760 C   0  0  0  0  0  0  0  0  0  0  0  0
   -8.3260   20.5110  -32.2950 C   0  0  0  0  0  0  0  0  0  0  0  0
   -7.0350   19.9610  -32.5110 C   0  0  0  0  0  0  0  0  0  0  0  0
   -6.8840   18.6250  -33.0340 N   0  0  0  0  0  0  0  0  0  0  0  0
   -7.2170   17.5060  -32.1440 C   0  0  0  0  0  0  0  0  0  0  0  0
   -6.1000   18.3720  -34.2590 C   0  0  2  0  0  0  0  0  0  0  0  0
   -5.8580   16.8820  -34.5460 C   0  0  0  0  0  0  0  0  0  0  0  0
   -4.3570   17.0940  -34.3720 C   0  0  2  0  0  0  0  0  0  0  0  0
   -3.8150   16.3790  -33.2860 O   0  0  0  0  0  0  0  0  0  0  0  0
   -4.5900   18.5700  -34.0690 C   0  0  0  0  0  0  0  0  0  0  0  0
   -5.8900   20.7370  -32.2160 C   0  0  0  0  0  0  0  0  0  0  0  0
   -6.0710   22.0320  -31.7190 C   0  0  0  0  0  0  0  0  0  0  0  0
   -2.5928   23.3564  -28.2490 H   0  0  0  0  0  0  0  0  0  0  0  0
   -4.3173   23.2829  -28.7464 H   0  0  0  0  0  0  0  0  0  0  0  0
   -3.3182   21.7901  -28.7464 H   0  0  0  0  0  0  0  0  0  0  0  0
   -3.0590   25.2860  -30.3530 H   0  0  0  0  0  0  0  0  0  0  0  0
   -7.9869   24.4867  -30.6620 H   0  0  0  0  0  0  0  0  0  0  0  0
   -9.4752   22.2333  -31.5977 H   0  0  0  0  0  0  0  0  0  0  0  0
   -9.2183   19.9150  -32.5370 H   0  0  0  0  0  0  0  0  0  0  0  0
   -7.1208   17.8291  -31.0969 H   0  0  0  0  0  0  0  0  0  0  0  0
   -8.2507   17.1814  -32.3341 H   0  0  0  0  0  0  0  0  0  0  0  0
   -6.5290   16.6690  -32.3341 H   0  0  0  0  0  0  0  0  0  0  0  0
   -6.6657   18.9924  -34.9698 H   0  0  0  0  0  0  0  0  0  0  0  0
   -6.3048   16.2033  -33.8046 H   0  0  0  0  0  0  0  0  0  0  0  0
   -6.2530   16.4197  -35.4627 H   0  0  0  0  0  0  0  0  0  0  0  0
   -3.6583   16.7951  -35.1673 H   0  0  0  0  0  0  0  0  0  0  0  0
   -4.4450   15.6520  -33.0370 H   0  0  0  0  0  0  0  0  0  0  0  0
   -4.3012   18.8703  -33.0509 H   0  0  0  0  0  0  0  0  0  0  0  0
   -4.0549   19.3456  -34.6365 H   0  0  0  0  0  0  0  0  0  0  0  0
   -4.8798   20.3313  -32.3738 H   0  0  0  0  0  0  0  0  0  0  0  0
  1  2  1  0
  2  3  1  0
  3  4  2  0
  3  5  1  0
  5  6  1  0
  6  7  1  0
  7  8  1  0
  7  9  2  0
  6 10  2  0
 10 11  1  0
 11 12  2  0
 12 13  1  0
 13 14  2  0
 14 15  1  0
 15 16  1  0
 15 17  1  0
 17 18  1  0
 18 19  1  0
 19 20  1  0
 19 21  1  0
 14 22  1  0
 22 23  2  0
 23  5  1  0
 23 11  1  0
 21 17  1  0
  1 24  1  0
  1 25  1  0
  1 26  1  0
  8 27  1  0
 10 28  1  0
 12 29  1  0
 13 30  1  0
 16 31  1  0
 16 32  1  0
 16 33  1  0
 17 34  1  6
 18 35  1  0
 18 36  1  0
 19 37  1  6
 20 38  1  0
 21 39  1  0
 21 40  1  0
 22 41  1  0
M  CHG  1   8  -1
M  END
>  <UniqueID>  (62) 
61

>  <SMILES>  (62) 
COC(=O)n1c(C([NH-])=O)cc2ccc(N(C)C3CC(O)C3)cc21

>  <Energy>  (62) 
146.14412856757485

>  <Genealogy>  (62) 
COC(=O)n1c(C([NH-])=O)cc2ccc(N(C)C3CC(O)C3)cc21 (protonated)
COC(=O)n1c(C([NH-])=O)cc2ccc(N(C)C3CC(O)C3)cc21 (3D coordinates assigned)
COC(=O)n1c(C([NH-])=O)cc2ccc(N(C)C3CC(O)C3)cc21 (nonaromatic ring conformer: 146.14412856757485 kcal/mol)

>  <smiles>  (62) 
COC(=O)n1c(C(N)=O)cc2ccc(N(C)C3CC(O)C3)cc21

>  <score_type>  (62) 
oracle

>  <origin>  (62) 
adg

>  <m_score__min__energy>  (62) 
-10.02

>  <m_primary>  (62) 
energy

$$$$
62:0
     RDKit          3D

 37 38  0  0  0  0  0  0  0  0999 V2000
   -4.2380   25.6910  -30.5360 N   0  0  0  0  0  0  0  0  0  0  0  0
   -5.5990   25.3190  -30.3280 C   0  0  0  0  0  0  0  0  0  0  0  0
   -6.3740   26.1190  -29.7410 O   0  0  0  0  0  0  0  0  0  0  0  0
   -6.0910   24.0200  -30.8250 C   0  0  0  0  0  0  0  0  0  0  0  0
   -7.4080   23.7900  -31.2210 C   0  0  0  0  0  0  0  0  0  0  0  0
   -7.4650   22.4510  -31.5380 C   0  0  0  0  0  0  0  0  0  0  0  0
   -8.5260   21.6840  -32.0090 C   0  0  0  0  0  0  0  0  0  0  0  0
   -8.2890   20.3260  -32.2810 C   0  0  0  0  0  0  0  0  0  0  0  0
   -7.0060   19.7560  -32.0660 C   0  0  0  0  0  0  0  0  0  0  0  0
   -6.7500   18.3120  -32.4170 C   0  0  0  0  0  0  0  0  0  0  0  0
   -5.8230   17.7560  -31.5520 F   0  0  0  0  0  0  0  0  0  0  0  0
   -6.2620   18.2380  -33.7080 F   0  0  0  0  0  0  0  0  0  0  0  0
   -7.9180   17.5750  -32.3310 F   0  0  0  0  0  0  0  0  0  0  0  0
   -5.9480   20.5750  -31.6080 C   0  0  0  0  0  0  0  0  0  0  0  0
   -6.2190   21.9200  -31.3360 C   0  0  0  0  0  0  0  0  0  0  0  0
   -5.3640   22.8710  -30.9040 N   0  0  0  0  0  0  0  0  0  0  0  0
   -3.9620   22.6870  -30.6550 C   0  0  0  0  0  0  0  0  0  0  0  0
   -3.1620   22.6390  -31.6280 O   0  0  0  0  0  0  0  0  0  0  0  0
   -3.4320   22.7130  -29.2450 C   0  0  2  0  0  0  0  0  0  0  0  0
   -3.9880   23.8810  -28.5580 N   0  0  0  0  0  0  0  0  0  0  0  0
   -1.8810   22.7180  -29.2350 C   0  0  0  0  0  0  0  0  0  0  0  0
   -1.2710   23.5240  -28.0770 C   0  0  0  0  0  0  0  0  0  0  0  0
   -0.7970   24.8720  -28.5240 C   0  0  0  0  0  0  0  0  0  0  0  0
    0.3430   25.2870  -28.1880 O   0  0  0  0  0  0  0  0  0  0  0  0
   -1.6030   25.6590  -29.3380 O   0  0  0  0  0  0  0  0  0  0  0  0
   -3.5510   25.6740  -29.7500 H   0  0  0  0  0  0  0  0  0  0  0  0
   -8.2273   24.5224  -31.2698 H   0  0  0  0  0  0  0  0  0  0  0  0
   -9.5207   22.1275  -32.1638 H   0  0  0  0  0  0  0  0  0  0  0  0
   -9.1061   19.6974  -32.6647 H   0  0  0  0  0  0  0  0  0  0  0  0
   -4.9370   20.1645  -31.4691 H   0  0  0  0  0  0  0  0  0  0  0  0
   -3.7438   21.8036  -28.7105 H   0  0  0  0  0  0  0  0  0  0  0  0
   -4.9680   24.0530  -28.8830 H   0  0  0  0  0  0  0  0  0  0  0  0
   -3.4170   24.7240  -28.7920 H   0  0  0  0  0  0  0  0  0  0  0  0
   -1.5313   21.6781  -29.1558 H   0  0  0  0  0  0  0  0  0  0  0  0
   -1.5560   23.2014  -30.1681 H   0  0  0  0  0  0  0  0  0  0  0  0
   -2.0336   23.6563  -27.2953 H   0  0  0  0  0  0  0  0  0  0  0  0
   -0.4031   22.9671  -27.6940 H   0  0  0  0  0  0  0  0  0  0  0  0
  1  2  1  0
  2  3  2  0
  2  4  1  0
  4  5  2  0
  5  6  1  0
  6  7  2  0
  7  8  1  0
  8  9  2  0
  9 10  1  0
 10 11  1  0
 10 12  1  0
 10 13  1  0
  9 14  1  0
 14 15  2  0
 15 16  1  0
 16 17  1  0
 17 18  2  0
 17 19  1  0
 19 20  1  0
 19 21  1  0
 21 22  1  0
 22 23  1  0
 23 24  2  0
 23 25  1  0
 16  4  1  0
 15  6  1  0
  1 26  1  0
  5 27  1  0
  7 28  1  0
  8 29  1  0
 14 30  1  0
 19 31  1  1
 20 32  1  0
 20 33  1  0
 21 34  1  0
 21 35  1  0
 22 36  1  0
 22 37  1  0
M  CHG  2   1  -1  25  -1
M  END
>  <UniqueID>  (63) 
62

>  <SMILES>  (63) 
[NH-]C(=O)c1cc2ccc(C(F)(F)F)cc2n1C(=O)[C@H](N)CCC(=O)[O-]

>  <Energy>  (63) 
73.642480687306

>  <Genealogy>  (63) 
[NH-]C(=O)c1cc2ccc(C(F)(F)F)cc2n1C(=O)[C@H](N)CCC(=O)[O-] (protonated)
[NH-]C(=O)c1cc2ccc(C(F)(F)F)cc2n1C(=O)[C@H](N)CCC(=O)[O-] (3D coordinates assigned)
[NH-]C(=O)c1cc2ccc(C(F)(F)F)cc2n1C(=O)[C@H](N)CCC(=O)[O-] (optimized conformer: 73.642480687306 kcal/mol)

>  <smiles>  (63) 
NC(=O)c1cc2ccc(C(F)(F)F)cc2n1C(=O)[C@H](N)CCC(=O)O

>  <score_type>  (63) 
oracle

>  <origin>  (63) 
adg

>  <m_score__min__energy>  (63) 
-11.859999999999999

>  <m_primary>  (63) 
energy

$$$$
63:0
     RDKit          3D

 46 48  0  0  0  0  0  0  0  0999 V2000
   -0.9010   26.4210  -26.8000 C   0  0  0  0  0  0  0  0  0  0  0  0
   -1.5340   25.4610  -27.7680 C   0  0  0  0  0  0  0  0  0  0  0  0
   -1.5810   25.7700  -28.9510 O   0  0  0  0  0  0  0  0  0  0  0  0
   -2.0790   24.1890  -27.3240 N   0  0  2  0  0  0  0  0  0  0  0  0
   -1.1450   23.0730  -27.6490 C   0  0  0  0  0  0  0  0  0  0  0  0
   -1.5750   22.2820  -28.8930 C   0  0  0  0  0  0  0  0  0  0  0  0
   -2.9680   21.6550  -28.6940 C   0  0  2  0  0  0  0  0  0  0  0  0
   -3.5510   21.4200  -29.9780 O   0  0  0  0  0  0  0  0  0  0  0  0
   -3.9250   22.4430  -30.8570 C   0  0  0  0  0  0  0  0  0  0  0  0
   -3.0470   23.0910  -31.4910 O   0  0  0  0  0  0  0  0  0  0  0  0
   -5.3130   22.7780  -31.0110 N   0  0  0  0  0  0  0  0  0  0  0  0
   -5.8850   24.0120  -30.9210 C   0  0  0  0  0  0  0  0  0  0  0  0
   -5.2170   25.2450  -30.4600 C   0  0  0  0  0  0  0  0  0  0  0  0
   -3.8770   25.5400  -30.8460 N   0  0  0  0  0  0  0  0  0  0  0  0
   -5.8180   26.0240  -29.6710 O   0  0  0  0  0  0  0  0  0  0  0  0
   -7.2370   23.9490  -31.2500 C   0  0  0  0  0  0  0  0  0  0  0  0
   -7.4820   22.6260  -31.5380 C   0  0  0  0  0  0  0  0  0  0  0  0
   -8.6560   22.0030  -31.9480 C   0  0  0  0  0  0  0  0  0  0  0  0
   -8.6110   20.6250  -32.2160 C   0  0  0  0  0  0  0  0  0  0  0  0
   -7.4050   19.8930  -32.0610 C   0  0  0  0  0  0  0  0  0  0  0  0
   -7.3560   18.4290  -32.4130 C   0  0  0  0  0  0  0  0  0  0  0  0
   -6.8690   18.2510  -33.6970 F   0  0  0  0  0  0  0  0  0  0  0  0
   -8.6190   17.8670  -32.3480 F   0  0  0  0  0  0  0  0  0  0  0  0
   -6.5250   17.7740  -31.5220 F   0  0  0  0  0  0  0  0  0  0  0  0
   -6.2270   20.5700  -31.6660 C   0  0  0  0  0  0  0  0  0  0  0  0
   -6.3050   21.9400  -31.3860 C   0  0  0  0  0  0  0  0  0  0  0  0
   -3.8910   22.5480  -27.8290 C   0  0  0  0  0  0  0  0  0  0  0  0
   -3.4500   24.0170  -27.8690 C   0  0  0  0  0  0  0  0  0  0  0  0
   -1.1142   26.0976  -25.7705 H   0  0  0  0  0  0  0  0  0  0  0  0
    0.1871   26.4396  -26.9606 H   0  0  0  0  0  0  0  0  0  0  0  0
   -1.3126   27.4284  -26.9606 H   0  0  0  0  0  0  0  0  0  0  0  0
   -2.1700   24.2130  -26.2810 H   0  0  0  0  0  0  0  0  0  0  0  0
   -0.1441   23.4928  -27.8278 H   0  0  0  0  0  0  0  0  0  0  0  0
   -1.1490   22.3781  -26.7963 H   0  0  0  0  0  0  0  0  0  0  0  0
   -1.6063   22.9609  -29.7580 H   0  0  0  0  0  0  0  0  0  0  0  0
   -0.8481   21.4742  -29.0634 H   0  0  0  0  0  0  0  0  0  0  0  0
   -2.8525   20.7055  -28.1508 H   0  0  0  0  0  0  0  0  0  0  0  0
   -3.0710   25.0400  -30.4110 H   0  0  0  0  0  0  0  0  0  0  0  0
   -7.9565   24.7807  -31.2744 H   0  0  0  0  0  0  0  0  0  0  0  0
   -9.5909   22.5719  -32.0589 H   0  0  0  0  0  0  0  0  0  0  0  0
   -9.5218   20.1067  -32.5502 H   0  0  0  0  0  0  0  0  0  0  0  0
   -5.2712   20.0322  -31.5807 H   0  0  0  0  0  0  0  0  0  0  0  0
   -4.9202   22.4732  -28.2100 H   0  0  0  0  0  0  0  0  0  0  0  0
   -3.8327   22.1983  -26.7877 H   0  0  0  0  0  0  0  0  0  0  0  0
   -3.4666   24.3669  -28.9117 H   0  0  0  0  0  0  0  0  0  0  0  0
   -4.1441   24.6026  -27.2483 H   0  0  0  0  0  0  0  0  0  0  0  0
  1  2  1  0
  2  3  2  0
  2  4  1  0
  4  5  1  0
  5  6  1  0
  6  7  1  0
  7  8  1  0
  8  9  1  0
  9 10  2  0
  9 11  1  0
 11 12  1  0
 12 13  1  0
 13 14  1  0
 13 15  2  0
 12 16  2  0
 16 17  1  0
 17 18  2  0
 18 19  1  0
 19 20  2  0
 20 21  1  0
 21 22  1  0
 21 23  1  0
 21 24  1  0
 20 25  1  0
 25 26  2  0
  7 27  1  0
 27 28  1  0
 28  4  1  0
 26 11  1  0
 26 17  1  0
  1 29  1  0
  1 30  1  0
  1 31  1  0
  4 32  1  1
  5 33  1  0
  5 34  1  0
  6 35  1  0
  6 36  1  0
  7 37  1  1
 14 38  1  0
 16 39  1  0
 18 40  1  0
 19 41  1  0
 25 42  1  0
 27 43  1  0
 27 44  1  0
 28 45  1  0
 28 46  1  0
M  CHG  2   4   1  14  -1
M  END
>  <UniqueID>  (64) 
63

>  <SMILES>  (64) 
CC(=O)[NH+]1CCC(OC(=O)n2c(C([NH-])=O)cc3ccc(C(F)(F)F)cc32)CC1

>  <Energy>  (64) 
91.71489821399992

>  <Genealogy>  (64) 
CC(=O)[NH+]1CCC(OC(=O)n2c(C([NH-])=O)cc3ccc(C(F)(F)F)cc32)CC1 (protonated)
CC(=O)[NH+]1CCC(OC(=O)n2c(C([NH-])=O)cc3ccc(C(F)(F)F)cc32)CC1 (3D coordinates assigned)
CC(=O)[NH+]1CCC(OC(=O)n2c(C([NH-])=O)cc3ccc(C(F)(F)F)cc32)CC1 (nonaromatic ring conformer: 91.71489821399992 kcal/mol)

>  <smiles>  (64) 
CC(=O)N1CCC(OC(=O)n2c(C(N)=O)cc3ccc(C(F)(F)F)cc32)CC1

>  <score_type>  (64) 
oracle

>  <origin>  (64) 
adg

>  <m_score__min__energy>  (64) 
-10.050000000000001

>  <m_primary>  (64) 
energy

$$$$
64:0
     RDKit          3D

 38 39  0  0  0  0  0  0  0  0999 V2000
   -4.1920   24.5320  -27.0930 C   0  0  0  0  0  0  0  0  0  0  0  0
   -2.5810   24.3020  -27.9120 S   0  0  0  0  0  0  0  0  0  0  0  0
   -2.3870   22.5300  -27.4820 C   0  0  0  0  0  0  0  0  0  0  0  0
   -1.5110   21.7980  -28.5060 C   0  0  0  0  0  0  0  0  0  0  0  0
   -2.3270   21.0080  -29.5320 C   0  0  0  0  0  0  0  0  0  0  0  0
   -3.6140   21.5930  -29.6870 O   0  0  0  0  0  0  0  0  0  0  0  0
   -3.8870   22.6080  -30.6080 C   0  0  0  0  0  0  0  0  0  0  0  0
   -2.9430   23.2420  -31.1530 O   0  0  0  0  0  0  0  0  0  0  0  0
   -5.2500   22.8990  -30.9560 N   0  0  0  0  0  0  0  0  0  0  0  0
   -5.9060   24.0850  -30.8140 C   0  0  0  0  0  0  0  0  0  0  0  0
   -5.2940   25.3760  -30.4370 C   0  0  0  0  0  0  0  0  0  0  0  0
   -3.9610   25.6740  -30.8430 N   0  0  0  0  0  0  0  0  0  0  0  0
   -5.9230   26.2040  -29.7260 O   0  0  0  0  0  0  0  0  0  0  0  0
   -7.2520   23.9430  -31.1420 C   0  0  0  0  0  0  0  0  0  0  0  0
   -7.4030   22.6230  -31.4960 C   0  0  0  0  0  0  0  0  0  0  0  0
   -8.5410   21.9330  -31.9030 C   0  0  0  0  0  0  0  0  0  0  0  0
   -8.4150   20.5610  -32.1770 C   0  0  0  0  0  0  0  0  0  0  0  0
   -7.1710   19.8990  -32.0140 C   0  0  0  0  0  0  0  0  0  0  0  0
   -7.0420   18.4330  -32.3440 C   0  0  0  0  0  0  0  0  0  0  0  0
   -6.2000   17.8020  -31.4440 F   0  0  0  0  0  0  0  0  0  0  0  0
   -8.2760   17.8090  -32.2910 F   0  0  0  0  0  0  0  0  0  0  0  0
   -6.5220   18.2980  -33.6180 F   0  0  0  0  0  0  0  0  0  0  0  0
   -6.0330   20.6420  -31.6200 C   0  0  0  0  0  0  0  0  0  0  0  0
   -6.1830   22.0120  -31.3740 C   0  0  0  0  0  0  0  0  0  0  0  0
   -4.0547   24.5124  -26.0018 H   0  0  0  0  0  0  0  0  0  0  0  0
   -4.6201   25.5004  -27.3914 H   0  0  0  0  0  0  0  0  0  0  0  0
   -4.8740   23.7221  -27.3914 H   0  0  0  0  0  0  0  0  0  0  0  0
   -1.9188   22.4518  -26.4897 H   0  0  0  0  0  0  0  0  0  0  0  0
   -3.3829   22.0629  -27.4819 H   0  0  0  0  0  0  0  0  0  0  0  0
   -0.9004   22.5408  -29.0402 H   0  0  0  0  0  0  0  0  0  0  0  0
   -0.8895   21.0778  -27.9536 H   0  0  0  0  0  0  0  0  0  0  0  0
   -1.8035   21.0186  -30.4994 H   0  0  0  0  0  0  0  0  0  0  0  0
   -2.4421   19.9721  -29.1804 H   0  0  0  0  0  0  0  0  0  0  0  0
   -3.1420   25.2580  -30.3450 H   0  0  0  0  0  0  0  0  0  0  0  0
   -8.0291   24.7213  -31.1221 H   0  0  0  0  0  0  0  0  0  0  0  0
   -9.5086   22.4458  -32.0069 H   0  0  0  0  0  0  0  0  0  0  0  0
   -9.2916   19.9931  -32.5221 H   0  0  0  0  0  0  0  0  0  0  0  0
   -5.0532   20.1544  -31.5096 H   0  0  0  0  0  0  0  0  0  0  0  0
  1  2  1  0
  2  3  1  0
  3  4  1  0
  4  5  1  0
  5  6  1  0
  6  7  1  0
  7  8  2  0
  7  9  1  0
  9 10  1  0
 10 11  1  0
 11 12  1  0
 11 13  2  0
 10 14  2  0
 14 15  1  0
 15 16  2  0
 16 17  1  0
 17 18  2  0
 18 19  1  0
 19 20  1  0
 19 21  1  0
 19 22  1  0
 18 23  1  0
 23 24  2  0
 24  9  1  0
 24 15  1  0
  1 25  1  0
  1 26  1  0
  1 27  1  0
  3 28  1  0
  3 29  1  0
  4 30  1  0
  4 31  1  0
  5 32  1  0
  5 33  1  0
 12 34  1  0
 14 35  1  0
 16 36  1  0
 17 37  1  0
 23 38  1  0
M  CHG  1  12  -1
M  END
>  <UniqueID>  (65) 
64

>  <SMILES>  (65) 
CSCCCOC(=O)n1c(C([NH-])=O)cc2ccc(C(F)(F)F)cc21

>  <Energy>  (65) 
68.37306793848077

>  <Genealogy>  (65) 
CSCCCOC(=O)n1c(C([NH-])=O)cc2ccc(C(F)(F)F)cc21 (protonated)
CSCCCOC(=O)n1c(C([NH-])=O)cc2ccc(C(F)(F)F)cc21 (3D coordinates assigned)
CSCCCOC(=O)n1c(C([NH-])=O)cc2ccc(C(F)(F)F)cc21 (optimized conformer: 68.37306793848077 kcal/mol)

>  <smiles>  (65) 
CSCCCOC(=O)n1c(C(N)=O)cc2ccc(C(F)(F)F)cc21

>  <score_type>  (65) 
oracle

>  <origin>  (65) 
adg

>  <m_score__min__energy>  (65) 
-9.4299999999999997

>  <m_primary>  (65) 
energy

$$$$
65:0
     RDKit          3D

 44 45  0  0  0  0  0  0  0  0999 V2000
   -3.6610   24.4560  -27.7540 C   0  0  0  0  0  0  0  0  0  0  0  0
   -2.7350   24.7170  -28.8020 O   0  0  0  0  0  0  0  0  0  0  0  0
   -1.6960   23.8360  -29.1240 C   0  0  0  0  0  0  0  0  0  0  0  0
   -0.5300   24.2680  -29.3390 O   0  0  0  0  0  0  0  0  0  0  0  0
   -1.9610   22.3680  -29.1800 C   0  0  0  0  0  0  0  0  0  0  0  0
   -3.2770   22.1420  -29.6710 O   0  0  0  0  0  0  0  0  0  0  0  0
   -3.7110   22.5930  -30.9210 C   0  0  0  0  0  0  0  0  0  0  0  0
   -2.8700   22.9320  -31.7960 O   0  0  0  0  0  0  0  0  0  0  0  0
   -5.1190   22.6790  -31.2000 N   0  0  0  0  0  0  0  0  0  0  0  0
   -5.9470   23.7330  -30.9420 C   0  0  0  0  0  0  0  0  0  0  0  0
   -5.5270   25.0690  -30.4740 C   0  0  0  0  0  0  0  0  0  0  0  0
   -4.1770   25.5150  -30.6190 N   0  0  0  0  0  0  0  0  0  0  0  0
   -6.3870   25.8540  -29.9920 O   0  0  0  0  0  0  0  0  0  0  0  0
   -7.2680   23.4040  -31.2250 C   0  0  0  0  0  0  0  0  0  0  0  0
   -7.2290   22.1080  -31.6850 C   0  0  0  0  0  0  0  0  0  0  0  0
   -8.2660   21.2760  -32.1000 C   0  0  0  0  0  0  0  0  0  0  0  0
   -7.9430   19.9670  -32.4910 C   0  0  0  0  0  0  0  0  0  0  0  0
   -6.6030   19.5180  -32.4500 C   0  0  0  0  0  0  0  0  0  0  0  0
   -6.2880   18.1680  -32.8370 C   0  0  0  0  0  0  0  0  0  0  0  0
   -6.0220   17.0370  -33.1580 C   0  0  0  0  0  0  0  0  0  0  0  0
   -5.7020   15.6500  -33.5500 C   0  0  0  0  0  0  0  0  0  0  0  0
   -6.9240   15.0070  -34.2240 C   0  0  0  0  0  0  0  0  0  0  0  0
   -4.5200   15.6710  -34.5270 C   0  0  0  0  0  0  0  0  0  0  0  0
   -5.3280   14.9090  -32.4140 O   0  0  0  0  0  0  0  0  0  0  0  0
   -5.5760   20.3820  -32.0240 C   0  0  0  0  0  0  0  0  0  0  0  0
   -5.9220   21.6900  -31.6580 C   0  0  0  0  0  0  0  0  0  0  0  0
   -3.1643   24.5960  -26.7825 H   0  0  0  0  0  0  0  0  0  0  0  0
   -4.5110   25.1496  -27.8346 H   0  0  0  0  0  0  0  0  0  0  0  0
   -4.0237   23.4206  -27.8346 H   0  0  0  0  0  0  0  0  0  0  0  0
   -1.2322   21.8892  -29.8505 H   0  0  0  0  0  0  0  0  0  0  0  0
   -1.8675   21.9398  -28.1711 H   0  0  0  0  0  0  0  0  0  0  0  0
   -3.4810   24.9570  -31.1630 H   0  0  0  0  0  0  0  0  0  0  0  0
   -3.8870   26.4420  -30.2360 H   0  0  0  0  0  0  0  0  0  0  0  0
   -8.1551   24.0436  -31.1064 H   0  0  0  0  0  0  0  0  0  0  0  0
   -9.3061   21.6336  -32.1207 H   0  0  0  0  0  0  0  0  0  0  0  0
   -8.7374   19.2864  -32.8314 H   0  0  0  0  0  0  0  0  0  0  0  0
   -7.6182   14.6417  -33.4528 H   0  0  0  0  0  0  0  0  0  0  0  0
   -7.4325   15.7543  -34.8508 H   0  0  0  0  0  0  0  0  0  0  0  0
   -6.5961   14.1647  -34.8508 H   0  0  0  0  0  0  0  0  0  0  0  0
   -3.5768   15.6878  -33.9612 H   0  0  0  0  0  0  0  0  0  0  0  0
   -4.5517   14.7721  -35.1603 H   0  0  0  0  0  0  0  0  0  0  0  0
   -4.5836   16.5682  -35.1603 H   0  0  0  0  0  0  0  0  0  0  0  0
   -5.4410   13.9440  -32.6250 H   0  0  0  0  0  0  0  0  0  0  0  0
   -4.5314   20.0400  -31.9797 H   0  0  0  0  0  0  0  0  0  0  0  0
  1  2  1  0
  2  3  1  0
  3  4  2  0
  3  5  1  0
  5  6  1  0
  6  7  1  0
  7  8  2  0
  7  9  1  0
  9 10  1  0
 10 11  1  0
 11 12  1  0
 11 13  2  0
 10 14  2  0
 14 15  1  0
 15 16  2  0
 16 17  1  0
 17 18  2  0
 18 19  1  0
 19 20  3  0
 20 21  1  0
 21 22  1  0
 21 23  1  0
 21 24  1  0
 18 25  1  0
 25 26  2  0
 26  9  1  0
 26 15  1  0
  1 27  1  0
  1 28  1  0
  1 29  1  0
  5 30  1  0
  5 31  1  0
 12 32  1  0
 12 33  1  0
 14 34  1  0
 16 35  1  0
 17 36  1  0
 22 37  1  0
 22 38  1  0
 22 39  1  0
 23 40  1  0
 23 41  1  0
 23 42  1  0
 24 43  1  0
 25 44  1  0
M  END
>  <UniqueID>  (66) 
65

>  <SMILES>  (66) 
COC(=O)COC(=O)n1c(C(N)=O)cc2ccc(C#CC(C)(C)O)cc21

>  <Energy>  (66) 
70.29971854451586

>  <Genealogy>  (66) 
COC(=O)COC(=O)n1c(C(N)=O)cc2ccc(C#CC(C)(C)O)cc21 (3D coordinates assigned)
COC(=O)COC(=O)n1c(C(N)=O)cc2ccc(C#CC(C)(C)O)cc21 (optimized conformer: 70.29971854451586 kcal/mol)

>  <smiles>  (66) 
COC(=O)COC(=O)n1c(C(N)=O)cc2ccc(C#CC(C)(C)O)cc21

>  <score_type>  (66) 
oracle

>  <origin>  (66) 
adg

>  <m_score__min__energy>  (66) 
-9.5999999999999996

>  <m_primary>  (66) 
energy

$$$$
66:0
     RDKit          3D

 39 40  0  0  0  0  0  0  0  0999 V2000
   -2.5570   24.3390  -27.5180 C   0  0  0  0  0  0  0  0  0  0  0  0
   -1.8710   24.9090  -28.6880 N   0  0  0  0  0  0  0  0  0  0  0  0
   -0.9180   25.9420  -28.2420 C   0  0  0  0  0  0  0  0  0  0  0  0
   -1.1750   23.8400  -29.4340 C   0  0  0  0  0  0  0  0  0  0  0  0
   -1.8800   22.5320  -29.2570 C   0  0  0  0  0  0  0  0  0  0  0  0
   -1.2540   21.5490  -28.7740 O   0  0  0  0  0  0  0  0  0  0  0  0
   -3.2360   22.4370  -29.5970 O   0  0  0  0  0  0  0  0  0  0  0  0
   -3.7380   22.3970  -30.9050 C   0  0  0  0  0  0  0  0  0  0  0  0
   -2.9770   22.1530  -31.8790 O   0  0  0  0  0  0  0  0  0  0  0  0
   -5.1390   22.6240  -31.1310 N   0  0  0  0  0  0  0  0  0  0  0  0
   -5.8500   23.7510  -30.8430 C   0  0  0  0  0  0  0  0  0  0  0  0
   -5.2760   25.0360  -30.3870 C   0  0  0  0  0  0  0  0  0  0  0  0
   -3.8790   25.1530  -30.1110 N   0  0  0  0  0  0  0  0  0  0  0  0
   -6.0230   26.0340  -30.2060 O   0  0  0  0  0  0  0  0  0  0  0  0
   -7.2020   23.5610  -31.1250 C   0  0  0  0  0  0  0  0  0  0  0  0
   -7.2980   22.2740  -31.6010 C   0  0  0  0  0  0  0  0  0  0  0  0
   -8.4150   21.5580  -32.0200 C   0  0  0  0  0  0  0  0  0  0  0  0
   -8.2280   20.2290  -32.4360 C   0  0  0  0  0  0  0  0  0  0  0  0
   -6.9380   19.6420  -32.4180 C   0  0  0  0  0  0  0  0  0  0  0  0
   -6.7440   18.2180  -32.8540 C   0  0  0  0  0  0  0  0  0  0  0  0
   -6.0810   17.5140  -31.8640 F   0  0  0  0  0  0  0  0  0  0  0  0
   -7.9740   17.6290  -33.0860 F   0  0  0  0  0  0  0  0  0  0  0  0
   -5.8280   20.4010  -31.9860 C   0  0  0  0  0  0  0  0  0  0  0  0
   -6.0400   21.7290  -31.5940 C   0  0  0  0  0  0  0  0  0  0  0  0
   -2.0936   24.7240  -26.5977 H   0  0  0  0  0  0  0  0  0  0  0  0
   -3.6191   24.6242  -27.5408 H   0  0  0  0  0  0  0  0  0  0  0  0
   -2.4712   23.2426  -27.5408 H   0  0  0  0  0  0  0  0  0  0  0  0
   -0.8937   25.9683  -27.1426 H   0  0  0  0  0  0  0  0  0  0  0  0
    0.0855   25.7051  -28.6254 H   0  0  0  0  0  0  0  0  0  0  0  0
   -1.2348   26.9232  -28.6254 H   0  0  0  0  0  0  0  0  0  0  0  0
   -1.1552   24.0987  -30.5030 H   0  0  0  0  0  0  0  0  0  0  0  0
   -0.1496   23.7463  -29.0471 H   0  0  0  0  0  0  0  0  0  0  0  0
   -3.2210   24.3670  -30.3010 H   0  0  0  0  0  0  0  0  0  0  0  0
   -3.4920   26.0520  -29.7460 H   0  0  0  0  0  0  0  0  0  0  0  0
   -8.0187   24.2863  -30.9946 H   0  0  0  0  0  0  0  0  0  0  0  0
   -9.4140   22.0183  -32.0254 H   0  0  0  0  0  0  0  0  0  0  0  0
   -9.0906   19.6387  -32.7788 H   0  0  0  0  0  0  0  0  0  0  0  0
   -6.1488   18.2029  -33.7789 H   0  0  0  0  0  0  0  0  0  0  0  0
   -4.8208   19.9597  -31.9580 H   0  0  0  0  0  0  0  0  0  0  0  0
  1  2  1  0
  2  3  1  0
  2  4  1  0
  4  5  1  0
  5  6  2  0
  5  7  1  0
  7  8  1  0
  8  9  2  0
  8 10  1  0
 10 11  1  0
 11 12  1  0
 12 13  1  0
 12 14  2  0
 11 15  2  0
 15 16  1  0
 16 17  2  0
 17 18  1  0
 18 19  2  0
 19 20  1  0
 20 21  1  0
 20 22  1  0
 19 23  1  0
 23 24  2  0
 24 10  1  0
 24 16  1  0
  1 25  1  0
  1 26  1  0
  1 27  1  0
  3 28  1  0
  3 29  1  0
  3 30  1  0
  4 31  1  0
  4 32  1  0
 13 33  1  0
 13 34  1  0
 15 35  1  0
 17 36  1  0
 18 37  1  0
 20 38  1  0
 23 39  1  0
M  END
>  <UniqueID>  (67) 
66

>  <SMILES>  (67) 
CN(C)CC(=O)OC(=O)n1c(C(N)=O)cc2ccc(C(F)F)cc21

>  <Energy>  (67) 
76.95852384927909

>  <Genealogy>  (67) 
CN(C)CC(=O)OC(=O)n1c(C(N)=O)cc2ccc(C(F)F)cc21 (3D coordinates assigned)
CN(C)CC(=O)OC(=O)n1c(C(N)=O)cc2ccc(C(F)F)cc21 (optimized conformer: 76.95852384927909 kcal/mol)

>  <smiles>  (67) 
CN(C)CC(=O)OC(=O)n1c(C(N)=O)cc2ccc(C(F)F)cc21

>  <score_type>  (67) 
oracle

>  <origin>  (67) 
adg

>  <m_score__min__energy>  (67) 
-8.1799999999999997

>  <m_primary>  (67) 
energy

$$$$
67:0
     RDKit          3D

 41 43  0  0  0  0  0  0  0  0999 V2000
   -1.7000   25.2970  -29.1520 N   0  0  0  0  0  0  0  0  0  0  0  0
   -1.4640   23.8920  -29.0950 C   0  0  0  0  0  0  0  0  0  0  0  0
   -0.6410   23.4410  -28.2550 O   0  0  0  0  0  0  0  0  0  0  0  0
   -2.1430   22.9660  -30.0250 C   0  0  0  0  0  0  0  0  0  0  0  0
   -1.4890   22.2810  -31.0490 C   0  0  0  0  0  0  0  0  0  0  0  0
   -2.4730   21.5780  -31.7070 C   0  0  0  0  0  0  0  0  0  0  0  0
   -2.3870   20.7220  -32.8020 C   0  0  0  0  0  0  0  0  0  0  0  0
   -3.5710   20.1170  -33.2580 C   0  0  0  0  0  0  0  0  0  0  0  0
   -4.8070   20.3660  -32.6090 C   0  0  0  0  0  0  0  0  0  0  0  0
   -6.0720   19.7290  -33.1230 C   0  0  0  0  0  0  0  0  0  0  0  0
   -6.4140   18.4310  -32.3710 C   0  0  0  0  0  0  0  0  0  0  0  0
   -7.7310   18.5050  -31.5840 C   0  0  0  0  0  0  0  0  0  0  0  0
   -8.3140   19.8430  -31.6440 N   0  0  0  0  0  0  0  0  0  0  0  0
   -9.3160   20.2540  -32.4370 C   0  0  0  0  0  0  0  0  0  0  0  0
   -9.5990   21.5550  -32.2270 N   0  0  0  0  0  0  0  0  0  0  0  0
   -8.7100   21.8950  -31.2670 C   0  0  0  0  0  0  0  0  0  0  0  0
   -7.9220   20.8640  -30.9060 N   0  0  0  0  0  0  0  0  0  0  0  0
   -4.8520   21.2350  -31.4970 C   0  0  0  0  0  0  0  0  0  0  0  0
   -3.6630   21.8420  -31.0820 C   0  0  0  0  0  0  0  0  0  0  0  0
   -3.4790   22.6950  -30.0520 N   0  0  0  0  0  0  0  0  0  0  0  0
   -4.4890   23.1610  -29.1460 C   0  0  0  0  0  0  0  0  0  0  0  0
   -4.5520   22.6840  -27.9810 O   0  0  0  0  0  0  0  0  0  0  0  0
   -5.4620   24.2220  -29.5670 C   0  0  0  0  0  0  0  0  0  0  0  0
   -5.0090   24.8570  -30.8410 C   0  0  0  0  0  0  0  0  0  0  0  0
   -5.6330   24.6390  -31.9130 O   0  0  0  0  0  0  0  0  0  0  0  0
   -3.8700   25.6510  -30.8570 O   0  0  0  0  0  0  0  0  0  0  0  0
   -2.6570   25.6750  -29.3230 H   0  0  0  0  0  0  0  0  0  0  0  0
   -0.4140   22.2987  -31.2817 H   0  0  0  0  0  0  0  0  0  0  0  0
   -1.4232   20.5255  -33.2944 H   0  0  0  0  0  0  0  0  0  0  0  0
   -3.5384   19.4435  -34.1271 H   0  0  0  0  0  0  0  0  0  0  0  0
   -6.9024   20.4397  -32.9994 H   0  0  0  0  0  0  0  0  0  0  0  0
   -5.9173   19.4758  -34.1822 H   0  0  0  0  0  0  0  0  0  0  0  0
   -6.4924   17.6147  -33.1041 H   0  0  0  0  0  0  0  0  0  0  0  0
   -5.6103   18.2607  -31.6395 H   0  0  0  0  0  0  0  0  0  0  0  0
   -8.4440   17.7846  -32.0112 H   0  0  0  0  0  0  0  0  0  0  0  0
   -7.5187   18.2671  -30.5312 H   0  0  0  0  0  0  0  0  0  0  0  0
   -9.8377   19.6131  -33.1630 H   0  0  0  0  0  0  0  0  0  0  0  0
   -8.6382   22.9016  -30.8294 H   0  0  0  0  0  0  0  0  0  0  0  0
   -5.7982   21.4294  -30.9708 H   0  0  0  0  0  0  0  0  0  0  0  0
   -6.4524   23.7680  -29.7188 H   0  0  0  0  0  0  0  0  0  0  0  0
   -5.5191   24.9904  -28.7819 H   0  0  0  0  0  0  0  0  0  0  0  0
  1  2  1  0
  2  3  2  0
  2  4  1  0
  4  5  2  0
  5  6  1  0
  6  7  2  0
  7  8  1  0
  8  9  2  0
  9 10  1  0
 10 11  1  0
 11 12  1  0
 12 13  1  0
 13 14  1  0
 14 15  2  0
 15 16  1  0
 16 17  2  0
  9 18  1  0
 18 19  2  0
 19 20  1  0
 20 21  1  0
 21 22  2  0
 21 23  1  0
 23 24  1  0
 24 25  2  0
 24 26  1  0
 20  4  1  0
 19  6  1  0
 17 13  1  0
  1 27  1  0
  5 28  1  0
  7 29  1  0
  8 30  1  0
 10 31  1  0
 10 32  1  0
 11 33  1  0
 11 34  1  0
 12 35  1  0
 12 36  1  0
 14 37  1  0
 16 38  1  0
 18 39  1  0
 23 40  1  0
 23 41  1  0
M  CHG  2   1  -1  26  -1
M  END
>  <UniqueID>  (68) 
67

>  <SMILES>  (68) 
[NH-]C(=O)c1cc2ccc(CCCn3cncn3)cc2n1C(=O)CC(=O)[O-]

>  <Energy>  (68) 
107.32093090297204

>  <Genealogy>  (68) 
[NH-]C(=O)c1cc2ccc(CCCn3cncn3)cc2n1C(=O)CC(=O)[O-] (protonated)
[NH-]C(=O)c1cc2ccc(CCCn3cncn3)cc2n1C(=O)CC(=O)[O-] (3D coordinates assigned)
[NH-]C(=O)c1cc2ccc(CCCn3cncn3)cc2n1C(=O)CC(=O)[O-] (optimized conformer: 107.32093090297204 kcal/mol)

>  <smiles>  (68) 
NC(=O)c1cc2ccc(CCCn3cncn3)cc2n1C(=O)CC(=O)O

>  <score_type>  (68) 
oracle

>  <origin>  (68) 
adg

>  <m_score__min__energy>  (68) 
-11.970000000000001

>  <m_primary>  (68) 
energy

$$$$
68:0
     RDKit          3D

 50 51  0  0  0  0  0  0  0  0999 V2000
   -3.4650   22.3230  -28.9540 C   0  0  0  0  0  0  0  0  0  0  0  0
   -3.4520   21.7710  -30.2650 O   0  0  0  0  0  0  0  0  0  0  0  0
   -4.0290   22.4200  -31.3620 C   0  0  0  0  0  0  0  0  0  0  0  0
   -3.3370   22.6720  -32.3870 O   0  0  0  0  0  0  0  0  0  0  0  0
   -5.4190   22.7790  -31.3280 N   0  0  0  0  0  0  0  0  0  0  0  0
   -5.9660   23.9530  -30.9050 C   0  0  0  0  0  0  0  0  0  0  0  0
   -5.2220   25.1810  -30.5550 C   0  0  0  0  0  0  0  0  0  0  0  0
   -3.8260   25.2930  -30.8140 N   0  0  0  0  0  0  0  0  0  0  0  0
   -5.8390   26.1640  -30.0630 O   0  0  0  0  0  0  0  0  0  0  0  0
   -7.3570   23.8810  -30.9280 C   0  0  0  0  0  0  0  0  0  0  0  0
   -7.6490   22.6170  -31.3880 C   0  0  0  0  0  0  0  0  0  0  0  0
   -8.8800   22.0050  -31.6040 C   0  0  0  0  0  0  0  0  0  0  0  0
   -8.8850   20.6780  -32.0650 C   0  0  0  0  0  0  0  0  0  0  0  0
   -7.6670   19.9860  -32.2810 C   0  0  0  0  0  0  0  0  0  0  0  0
   -7.6820   18.5750  -32.8050 C   0  0  0  0  0  0  0  0  0  0  0  0
   -6.4740   18.3330  -33.7270 C   0  0  0  0  0  0  0  0  0  0  0  0
   -5.3000   17.8100  -32.9920 N   0  0  1  0  0  0  0  0  0  0  0  0
   -4.9230   16.4530  -33.4300 C   0  0  0  0  0  0  0  0  0  0  0  0
   -4.1840   18.7060  -33.1700 C   0  0  0  0  0  0  0  0  0  0  0  0
   -4.3660   19.8660  -33.6390 O   0  0  0  0  0  0  0  0  0  0  0  0
   -2.9010   18.2910  -32.7900 O   0  0  0  0  0  0  0  0  0  0  0  0
   -1.8360   18.0820  -33.7150 C   0  0  0  0  0  0  0  0  0  0  0  0
   -0.7590   19.1670  -33.5820 C   0  0  0  0  0  0  0  0  0  0  0  0
   -1.3460   20.5400  -33.2430 C   0  0  0  0  0  0  0  0  0  0  0  0
   -1.9090   20.5250  -31.9600 O   0  0  0  0  0  0  0  0  0  0  0  0
   -6.4360   20.6430  -32.0600 C   0  0  0  0  0  0  0  0  0  0  0  0
   -6.4630   21.9710  -31.6210 C   0  0  0  0  0  0  0  0  0  0  0  0
   -3.4458   21.5098  -28.2135 H   0  0  0  0  0  0  0  0  0  0  0  0
   -2.5817   22.9642  -28.8174 H   0  0  0  0  0  0  0  0  0  0  0  0
   -4.3775   22.9219  -28.8174 H   0  0  0  0  0  0  0  0  0  0  0  0
   -3.2920   24.4970  -31.2310 H   0  0  0  0  0  0  0  0  0  0  0  0
   -8.0704   24.6672  -30.6398 H   0  0  0  0  0  0  0  0  0  0  0  0
   -9.8209   22.5441  -31.4193 H   0  0  0  0  0  0  0  0  0  0  0  0
   -9.8420   20.1718  -32.2599 H   0  0  0  0  0  0  0  0  0  0  0  0
   -7.6385   17.8735  -31.9588 H   0  0  0  0  0  0  0  0  0  0  0  0
   -8.6068   18.4172  -33.3793 H   0  0  0  0  0  0  0  0  0  0  0  0
   -6.7599   17.6049  -34.5004 H   0  0  0  0  0  0  0  0  0  0  0  0
   -6.1901   19.2994  -34.1692 H   0  0  0  0  0  0  0  0  0  0  0  0
   -5.5210   17.7730  -31.9680 H   0  0  0  0  0  0  0  0  0  0  0  0
   -4.7468   15.8189  -32.5486 H   0  0  0  0  0  0  0  0  0  0  0  0
   -5.7359   16.0236  -34.0340 H   0  0  0  0  0  0  0  0  0  0  0  0
   -4.0051   16.5044  -34.0340 H   0  0  0  0  0  0  0  0  0  0  0  0
   -1.3806   17.0997  -33.5207 H   0  0  0  0  0  0  0  0  0  0  0  0
   -2.2483   18.1260  -34.7339 H   0  0  0  0  0  0  0  0  0  0  0  0
   -0.0613   18.8750  -32.7832 H   0  0  0  0  0  0  0  0  0  0  0  0
   -0.2501   19.2526  -34.5535 H   0  0  0  0  0  0  0  0  0  0  0  0
   -0.5471   21.2953  -33.2799 H   0  0  0  0  0  0  0  0  0  0  0  0
   -2.1300   20.7845  -33.9749 H   0  0  0  0  0  0  0  0  0  0  0  0
   -2.8920   20.4980  -32.0910 H   0  0  0  0  0  0  0  0  0  0  0  0
   -5.4810   20.1238  -32.2287 H   0  0  0  0  0  0  0  0  0  0  0  0
  1  2  1  0
  2  3  1  0
  3  4  2  0
  3  5  1  0
  5  6  1  0
  6  7  1  0
  7  8  1  0
  7  9  2  0
  6 10  2  0
 10 11  1  0
 11 12  2  0
 12 13  1  0
 13 14  2  0
 14 15  1  0
 15 16  1  0
 16 17  1  0
 17 18  1  0
 17 19  1  0
 19 20  2  0
 19 21  1  0
 21 22  1  0
 22 23  1  0
 23 24  1  0
 24 25  1  0
 14 26  1  0
 26 27  2  0
 27  5  1  0
 27 11  1  0
  1 28  1  0
  1 29  1  0
  1 30  1  0
  8 31  1  0
 10 32  1  0
 12 33  1  0
 13 34  1  0
 15 35  1  0
 15 36  1  0
 16 37  1  0
 16 38  1  0
 17 39  1  1
 18 40  1  0
 18 41  1  0
 18 42  1  0
 22 43  1  0
 22 44  1  0
 23 45  1  0
 23 46  1  0
 24 47  1  0
 24 48  1  0
 25 49  1  0
 26 50  1  0
M  CHG  2   8  -1  17   1
M  END
>  <UniqueID>  (69) 
68

>  <SMILES>  (69) 
COC(=O)n1c(C([NH-])=O)cc2ccc(CC[N@@H+](C)C(=O)OCCCO)cc21

>  <Energy>  (69) 
80.70534263246138

>  <Genealogy>  (69) 
COC(=O)n1c(C([NH-])=O)cc2ccc(CC[NH+](C)C(=O)OCCCO)cc21 (protonated)
COC(=O)n1c(C([NH-])=O)cc2ccc(CC[N@@H+](C)C(=O)OCCCO)cc21 (chirality)
COC(=O)n1c(C([NH-])=O)cc2ccc(CC[N@@H+](C)C(=O)OCCCO)cc21 (3D coordinates assigned)
COC(=O)n1c(C([NH-])=O)cc2ccc(CC[N@@H+](C)C(=O)OCCCO)cc21 (optimized conformer: 80.70534263246138 kcal/mol)

>  <smiles>  (69) 
COC(=O)n1c(C(N)=O)cc2ccc(CCN(C)C(=O)OCCCO)cc21

>  <score_type>  (69) 
oracle

>  <origin>  (69) 
adg

>  <m_score__min__energy>  (69) 
-8.8399999999999999

>  <m_primary>  (69) 
energy

$$$$
69:0
     RDKit          3D

 42 44  0  0  0  0  0  0  0  0999 V2000
   -6.7520   23.8210  -31.5740 C   0  0  0  0  0  0  0  0  0  0  0  0
   -6.5390   24.0690  -30.0860 C   0  0  0  0  0  0  0  0  0  0  0  0
   -5.2070   23.7320  -29.7050 O   0  0  0  0  0  0  0  0  0  0  0  0
   -4.0740   24.1500  -30.4110 C   0  0  0  0  0  0  0  0  0  0  0  0
   -3.9980   25.3290  -30.8550 O   0  0  0  0  0  0  0  0  0  0  0  0
   -2.9800   23.2410  -30.6060 N   0  0  0  0  0  0  0  0  0  0  0  0
   -1.7440   23.2830  -30.0320 C   0  0  0  0  0  0  0  0  0  0  0  0
   -1.2080   24.3810  -29.2010 C   0  0  0  0  0  0  0  0  0  0  0  0
   -1.9710   25.5610  -28.9630 N   0  0  0  0  0  0  0  0  0  0  0  0
   -0.0400   24.2980  -28.7350 O   0  0  0  0  0  0  0  0  0  0  0  0
   -0.9960   22.1680  -30.4030 C   0  0  0  0  0  0  0  0  0  0  0  0
   -1.8140   21.4390  -31.2360 C   0  0  0  0  0  0  0  0  0  0  0  0
   -1.5850   20.2270  -31.8800 C   0  0  0  0  0  0  0  0  0  0  0  0
   -2.6260   19.6850  -32.6530 C   0  0  0  0  0  0  0  0  0  0  0  0
   -3.8640   20.3620  -32.7700 C   0  0  0  0  0  0  0  0  0  0  0  0
   -4.9890   19.7460  -33.5550 C   0  0  0  0  0  0  0  0  0  0  0  0
   -6.2560   19.7950  -32.7600 C   0  0  0  0  0  0  0  0  0  0  0  0
   -6.8020   18.7780  -31.9970 C   0  0  0  0  0  0  0  0  0  0  0  0
   -8.0000   19.1860  -31.5430 N   0  0  0  0  0  0  0  0  0  0  0  0
   -8.2280   20.4130  -31.9870 N   0  0  0  0  0  0  0  0  0  0  0  0
   -9.4730   21.1440  -31.7850 C   0  0  0  0  0  0  0  0  0  0  0  0
   -7.1930   20.8110  -32.7520 C   0  0  0  0  0  0  0  0  0  0  0  0
   -4.0650   21.5850  -32.0930 C   0  0  0  0  0  0  0  0  0  0  0  0
   -3.0050   22.1100  -31.3430 C   0  0  0  0  0  0  0  0  0  0  0  0
   -7.4632   22.9929  -31.7096 H   0  0  0  0  0  0  0  0  0  0  0  0
   -7.1546   24.7307  -32.0434 H   0  0  0  0  0  0  0  0  0  0  0  0
   -5.7919   23.5603  -32.0434 H   0  0  0  0  0  0  0  0  0  0  0  0
   -6.7192   25.1319  -29.8676 H   0  0  0  0  0  0  0  0  0  0  0  0
   -7.2396   23.4389  -29.5184 H   0  0  0  0  0  0  0  0  0  0  0  0
   -2.9390   25.6600  -29.3440 H   0  0  0  0  0  0  0  0  0  0  0  0
    0.0311   21.9221  -30.0953 H   0  0  0  0  0  0  0  0  0  0  0  0
   -0.6190   19.7091  -31.7869 H   0  0  0  0  0  0  0  0  0  0  0  0
   -2.4777   18.7264  -33.1717 H   0  0  0  0  0  0  0  0  0  0  0  0
   -5.1261   20.3034  -34.4933 H   0  0  0  0  0  0  0  0  0  0  0  0
   -4.7424   18.6971  -33.7763 H   0  0  0  0  0  0  0  0  0  0  0  0
   -6.3356   17.8022  -31.7961 H   0  0  0  0  0  0  0  0  0  0  0  0
   -8.6620   18.6260  -30.9610 H   0  0  0  0  0  0  0  0  0  0  0  0
   -9.6622   21.2551  -30.7071 H   0  0  0  0  0  0  0  0  0  0  0  0
   -9.3934   22.1388  -32.2477 H   0  0  0  0  0  0  0  0  0  0  0  0
  -10.3029   20.5897  -32.2477 H   0  0  0  0  0  0  0  0  0  0  0  0
   -7.1086   21.7739  -33.2772 H   0  0  0  0  0  0  0  0  0  0  0  0
   -5.0289   22.1115  -32.1531 H   0  0  0  0  0  0  0  0  0  0  0  0
  1  2  1  0
  2  3  1  0
  3  4  1  0
  4  5  2  0
  4  6  1  0
  6  7  1  0
  7  8  1  0
  8  9  1  0
  8 10  2  0
  7 11  2  0
 11 12  1  0
 12 13  2  0
 13 14  1  0
 14 15  2  0
 15 16  1  0
 16 17  1  0
 17 18  1  0
 18 19  2  0
 19 20  1  0
 20 21  1  0
 20 22  1  0
 15 23  1  0
 23 24  2  0
 24  6  1  0
 24 12  1  0
 22 17  2  0
  1 25  1  0
  1 26  1  0
  1 27  1  0
  2 28  1  0
  2 29  1  0
  9 30  1  0
 11 31  1  0
 13 32  1  0
 14 33  1  0
 16 34  1  0
 16 35  1  0
 18 36  1  0
 19 37  1  0
 21 38  1  0
 21 39  1  0
 21 40  1  0
 22 41  1  0
 23 42  1  0
M  CHG  2   9  -1  19   1
M  END
>  <UniqueID>  (70) 
69

>  <SMILES>  (70) 
CCOC(=O)n1c(C([NH-])=O)cc2ccc(Cc3c[nH+]n(C)c3)cc21

>  <Energy>  (70) 
106.38551662414739

>  <Genealogy>  (70) 
CCOC(=O)n1c(C([NH-])=O)cc2ccc(Cc3c[nH+]n(C)c3)cc21 (protonated)
CCOC(=O)n1c(C([NH-])=O)cc2ccc(Cc3c[nH+]n(C)c3)cc21 (3D coordinates assigned)
CCOC(=O)n1c(C([NH-])=O)cc2ccc(Cc3c[nH+]n(C)c3)cc21 (optimized conformer: 106.38551662414739 kcal/mol)

>  <smiles>  (70) 
CCOC(=O)n1c(C(N)=O)cc2ccc(Cc3cnn(C)c3)cc21

>  <score_type>  (70) 
oracle

>  <origin>  (70) 
adg

>  <m_score__min__energy>  (70) 
-10.34

>  <m_primary>  (70) 
energy

$$$$
70:0
     RDKit          3D

 46 48  0  0  0  0  0  0  0  0999 V2000
   -0.8580   26.7720  -27.8800 C   0  0  0  0  0  0  0  0  0  0  0  0
   -1.1390   25.6380  -28.6920 O   0  0  0  0  0  0  0  0  0  0  0  0
   -0.5390   24.3920  -28.4810 C   0  0  0  0  0  0  0  0  0  0  0  0
    0.7180   24.3000  -28.3880 O   0  0  0  0  0  0  0  0  0  0  0  0
   -1.3650   23.2100  -28.3940 N   0  0  1  0  0  0  0  0  0  0  0  0
   -2.7910   23.5810  -28.5760 C   0  0  0  0  0  0  0  0  0  0  0  0
   -3.6340   22.3720  -28.9940 C   0  0  0  0  0  0  0  0  0  0  0  0
   -3.1840   21.8230  -30.3780 C   0  0  1  0  0  0  0  0  0  0  0  0
   -4.0260   22.3390  -31.5340 C   0  0  0  0  0  0  0  0  0  0  0  0
   -3.5560   22.3200  -32.7040 O   0  0  0  0  0  0  0  0  0  0  0  0
   -5.3800   22.7740  -31.3440 N   0  0  0  0  0  0  0  0  0  0  0  0
   -5.8030   24.0120  -30.9690 C   0  0  0  0  0  0  0  0  0  0  0  0
   -4.9270   25.1520  -30.6260 C   0  0  0  0  0  0  0  0  0  0  0  0
   -3.5210   25.0600  -30.8440 N   0  0  0  0  0  0  0  0  0  0  0  0
   -5.4090   26.2140  -30.1480 O   0  0  0  0  0  0  0  0  0  0  0  0
   -7.1960   24.0540  -30.9140 C   0  0  0  0  0  0  0  0  0  0  0  0
   -7.6120   22.7910  -31.2750 C   0  0  0  0  0  0  0  0  0  0  0  0
   -8.8970   22.2690  -31.3940 C   0  0  0  0  0  0  0  0  0  0  0  0
   -9.0290   20.9280  -31.7980 C   0  0  0  0  0  0  0  0  0  0  0  0
   -7.8820   20.1420  -32.0750 C   0  0  0  0  0  0  0  0  0  0  0  0
   -8.0260   18.7130  -32.5130 C   0  0  0  0  0  0  0  0  0  0  0  0
   -9.1700   18.1680  -31.9550 F   0  0  0  0  0  0  0  0  0  0  0  0
   -6.9250   17.9850  -32.1000 F   0  0  0  0  0  0  0  0  0  0  0  0
   -6.5940   20.7080  -31.9450 C   0  0  0  0  0  0  0  0  0  0  0  0
   -6.4960   22.0400  -31.5330 C   0  0  0  0  0  0  0  0  0  0  0  0
   -1.6810   22.1090  -30.6350 C   0  0  0  0  0  0  0  0  0  0  0  0
   -0.8830   22.1490  -29.3230 C   0  0  0  0  0  0  0  0  0  0  0  0
   -0.9279   26.4897  -26.8191 H   0  0  0  0  0  0  0  0  0  0  0  0
    0.1574   27.1355  -28.0965 H   0  0  0  0  0  0  0  0  0  0  0  0
   -1.5862   27.5675  -28.0965 H   0  0  0  0  0  0  0  0  0  0  0  0
   -1.2610   22.8350  -27.4210 H   0  0  0  0  0  0  0  0  0  0  0  0
   -2.8631   24.3542  -29.3551 H   0  0  0  0  0  0  0  0  0  0  0  0
   -3.1762   23.9567  -27.6166 H   0  0  0  0  0  0  0  0  0  0  0  0
   -4.6899   22.6746  -29.0542 H   0  0  0  0  0  0  0  0  0  0  0  0
   -3.4997   21.5782  -28.2444 H   0  0  0  0  0  0  0  0  0  0  0  0
   -3.3400   20.7350  -30.3331 H   0  0  0  0  0  0  0  0  0  0  0  0
   -2.8440   25.3000  -30.0870 H   0  0  0  0  0  0  0  0  0  0  0  0
   -7.8276   24.9121  -30.6408 H   0  0  0  0  0  0  0  0  0  0  0  0
   -9.7818   22.8860  -31.1788 H   0  0  0  0  0  0  0  0  0  0  0  0
  -10.0308   20.4854  -31.8999 H   0  0  0  0  0  0  0  0  0  0  0  0
   -8.0986   18.6780  -33.6100 H   0  0  0  0  0  0  0  0  0  0  0  0
   -5.6925   20.1162  -32.1622 H   0  0  0  0  0  0  0  0  0  0  0  0
   -1.5836   23.0802  -31.1423 H   0  0  0  0  0  0  0  0  0  0  0  0
   -1.2774   21.2986  -31.2598 H   0  0  0  0  0  0  0  0  0  0  0  0
    0.1743   22.3403  -29.5589 H   0  0  0  0  0  0  0  0  0  0  0  0
   -1.0163   21.1794  -28.8210 H   0  0  0  0  0  0  0  0  0  0  0  0
  1  2  1  0
  2  3  1  0
  3  4  2  0
  3  5  1  0
  5  6  1  0
  6  7  1  0
  7  8  1  0
  8  9  1  0
  9 10  2  0
  9 11  1  0
 11 12  1  0
 12 13  1  0
 13 14  1  0
 13 15  2  0
 12 16  2  0
 16 17  1  0
 17 18  2  0
 18 19  1  0
 19 20  2  0
 20 21  1  0
 21 22  1  0
 21 23  1  0
 20 24  1  0
 24 25  2  0
  8 26  1  0
 26 27  1  0
 27  5  1  0
 25 11  1  0
 25 17  1  0
  1 28  1  0
  1 29  1  0
  1 30  1  0
  5 31  1  1
  6 32  1  0
  6 33  1  0
  7 34  1  0
  7 35  1  0
  8 36  1  1
 14 37  1  0
 16 38  1  0
 18 39  1  0
 19 40  1  0
 21 41  1  0
 24 42  1  0
 26 43  1  0
 26 44  1  0
 27 45  1  0
 27 46  1  0
M  CHG  2   5   1  14  -1
M  END
>  <UniqueID>  (71) 
70

>  <SMILES>  (71) 
COC(=O)[NH+]1CCC(C(=O)n2c(C([NH-])=O)cc3ccc(C(F)F)cc32)CC1

>  <Energy>  (71) 
94.9434109349705

>  <Genealogy>  (71) 
COC(=O)[NH+]1CCC(C(=O)n2c(C([NH-])=O)cc3ccc(C(F)F)cc32)CC1 (protonated)
COC(=O)[NH+]1CCC(C(=O)n2c(C([NH-])=O)cc3ccc(C(F)F)cc32)CC1 (3D coordinates assigned)
COC(=O)[NH+]1CCC(C(=O)n2c(C([NH-])=O)cc3ccc(C(F)F)cc32)CC1 (nonaromatic ring conformer: 94.9434109349705 kcal/mol)

>  <smiles>  (71) 
COC(=O)N1CCC(C(=O)n2c(C(N)=O)cc3ccc(C(F)F)cc32)CC1

>  <score_type>  (71) 
oracle

>  <origin>  (71) 
adg

>  <m_score__min__energy>  (71) 
-10.880000000000001

>  <m_primary>  (71) 
energy

$$$$
71:0
     RDKit          3D

 61 63  0  0  0  0  0  0  0  0999 V2000
   -4.6340   16.2620  -34.4750 N   0  0  0  0  0  0  0  0  0  0  0  0
   -5.2660   16.3710  -33.2020 C   0  0  0  0  0  0  0  0  0  0  0  0
   -5.1130   15.4470  -32.3580 O   0  0  0  0  0  0  0  0  0  0  0  0
   -6.0910   17.5540  -32.8850 C   0  0  0  0  0  0  0  0  0  0  0  0
   -7.4530   17.5010  -32.5950 C   0  0  0  0  0  0  0  0  0  0  0  0
   -7.8320   18.8070  -32.3920 C   0  0  0  0  0  0  0  0  0  0  0  0
   -9.0790   19.3430  -32.0870 C   0  0  0  0  0  0  0  0  0  0  0  0
   -9.1770   20.7370  -31.9400 C   0  0  0  0  0  0  0  0  0  0  0  0
   -8.0350   21.5630  -32.0910 C   0  0  0  0  0  0  0  0  0  0  0  0
   -8.1640   23.0560  -31.9540 C   0  0  0  0  0  0  0  0  0  0  0  0
   -6.8710   23.6850  -31.4980 C   0  0  0  0  0  0  0  0  0  0  0  0
   -5.9460   23.8690  -32.3330 O   0  0  0  0  0  0  0  0  0  0  0  0
   -6.6140   23.9940  -30.1210 N   0  0  0  0  0  0  0  0  0  0  0  0
   -6.3220   25.3120  -29.5650 C   0  0  0  0  0  0  0  0  0  0  0  0
   -5.3490   26.0720  -30.4620 C   0  0  0  0  0  0  0  0  0  0  0  0
   -4.2590   25.2640  -30.8000 O   0  0  0  0  0  0  0  0  0  0  0  0
   -6.7880   20.9850  -32.4200 C   0  0  0  0  0  0  0  0  0  0  0  0
   -6.7240   19.5970  -32.5610 C   0  0  0  0  0  0  0  0  0  0  0  0
   -5.6510   18.8410  -32.8620 N   0  0  0  0  0  0  0  0  0  0  0  0
   -4.3310   19.3210  -33.1360 C   0  0  0  0  0  0  0  0  0  0  0  0
   -3.8150   19.1160  -34.2680 O   0  0  0  0  0  0  0  0  0  0  0  0
   -3.5740   20.0930  -32.0980 C   0  0  0  0  0  0  0  0  0  0  0  0
   -3.5910   21.5990  -32.4330 C   0  0  0  0  0  0  0  0  0  0  0  0
   -3.5910   22.4810  -31.2470 N   0  0  0  0  0  0  0  0  0  0  0  0
   -4.4480   21.9880  -30.1450 C   0  0  0  0  0  0  0  0  0  0  0  0
   -4.1880   22.7760  -28.8600 C   0  0  0  0  0  0  0  0  0  0  0  0
   -2.7860   22.6190  -28.4160 N   0  0  0  0  0  0  0  0  0  0  0  0
   -2.3650   23.6100  -27.4010 C   0  0  0  0  0  0  0  0  0  0  0  0
   -1.6780   24.8710  -27.9620 C   0  0  0  0  0  0  0  0  0  0  0  0
   -2.2990   25.2910  -29.1450 O   0  0  0  0  0  0  0  0  0  0  0  0
   -1.8040   22.3600  -29.4950 C   0  0  0  0  0  0  0  0  0  0  0  0
   -2.2530   22.9650  -30.8360 C   0  0  0  0  0  0  0  0  0  0  0  0
   -4.1460   17.0750  -34.9060 H   0  0  0  0  0  0  0  0  0  0  0  0
   -8.0892   16.6053  -32.5402 H   0  0  0  0  0  0  0  0  0  0  0  0
   -9.9603   18.6961  -31.9648 H   0  0  0  0  0  0  0  0  0  0  0  0
  -10.1505   21.1922  -31.7052 H   0  0  0  0  0  0  0  0  0  0  0  0
   -8.4435   23.4812  -32.9292 H   0  0  0  0  0  0  0  0  0  0  0  0
   -8.9349   23.2671  -31.1982 H   0  0  0  0  0  0  0  0  0  0  0  0
   -7.2578   25.8840  -29.4811 H   0  0  0  0  0  0  0  0  0  0  0  0
   -5.8629   25.1840  -28.5736 H   0  0  0  0  0  0  0  0  0  0  0  0
   -5.8694   26.3802  -31.3808 H   0  0  0  0  0  0  0  0  0  0  0  0
   -4.9814   26.9552  -29.9190 H   0  0  0  0  0  0  0  0  0  0  0  0
   -4.6070   24.3360  -30.8400 H   0  0  0  0  0  0  0  0  0  0  0  0
   -5.8939   21.6101  -32.5609 H   0  0  0  0  0  0  0  0  0  0  0  0
   -4.0416   19.9345  -31.1150 H   0  0  0  0  0  0  0  0  0  0  0  0
   -2.5317   19.7420  -32.0802 H   0  0  0  0  0  0  0  0  0  0  0  0
   -2.6994   21.8291  -33.0347 H   0  0  0  0  0  0  0  0  0  0  0  0
   -4.5295   21.7933  -32.9728 H   0  0  0  0  0  0  0  0  0  0  0  0
   -5.5041   22.1024  -30.4307 H   0  0  0  0  0  0  0  0  0  0  0  0
   -4.2131   20.9290  -29.9626 H   0  0  0  0  0  0  0  0  0  0  0  0
   -4.3896   23.8415  -29.0445 H   0  0  0  0  0  0  0  0  0  0  0  0
   -4.8505   22.3891  -28.0717 H   0  0  0  0  0  0  0  0  0  0  0  0
   -3.2589   23.9282  -26.8445 H   0  0  0  0  0  0  0  0  0  0  0  0
   -1.6144   23.1060  -26.7744 H   0  0  0  0  0  0  0  0  0  0  0  0
   -1.7398   25.6773  -27.2163 H   0  0  0  0  0  0  0  0  0  0  0  0
   -0.6269   24.6319  -28.1812 H   0  0  0  0  0  0  0  0  0  0  0  0
   -2.9710   24.5920  -29.3670 H   0  0  0  0  0  0  0  0  0  0  0  0
   -0.8381   22.8028  -29.2107 H   0  0  0  0  0  0  0  0  0  0  0  0
   -1.7182   21.2710  -29.6239 H   0  0  0  0  0  0  0  0  0  0  0  0
   -2.2872   24.0600  -30.7371 H   0  0  0  0  0  0  0  0  0  0  0  0
   -1.5304   22.6554  -31.6054 H   0  0  0  0  0  0  0  0  0  0  0  0
  1  2  1  0
  2  3  2  0
  2  4  1  0
  4  5  2  0
  5  6  1  0
  6  7  2  0
  7  8  1  0
  8  9  2  0
  9 10  1  0
 10 11  1  0
 11 12  2  0
 11 13  1  0
 13 14  1  0
 14 15  1  0
 15 16  1  0
  9 17  1  0
 17 18  2  0
 18 19  1  0
 19 20  1  0
 20 21  2  0
 20 22  1  0
 22 23  1  0
 23 24  1  0
 24 25  1  0
 25 26  1  0
 26 27  1  0
 27 28  1  0
 28 29  1  0
 29 30  1  0
 27 31  1  0
 31 32  1  0
 19  4  1  0
 32 24  1  0
 18  6  1  0
  1 33  1  0
  5 34  1  0
  7 35  1  0
  8 36  1  0
 10 37  1  0
 10 38  1  0
 14 39  1  0
 14 40  1  0
 15 41  1  0
 15 42  1  0
 16 43  1  0
 17 44  1  0
 22 45  1  0
 22 46  1  0
 23 47  1  0
 23 48  1  0
 25 49  1  0
 25 50  1  0
 26 51  1  0
 26 52  1  0
 28 53  1  0
 28 54  1  0
 29 55  1  0
 29 56  1  0
 30 57  1  0
 31 58  1  0
 31 59  1  0
 32 60  1  0
 32 61  1  0
M  CHG  2   1  -1  13  -1
M  END
>  <UniqueID>  (72) 
71

>  <SMILES>  (72) 
[NH-]C(=O)c1cc2ccc(CC(=O)[N-]CCO)cc2n1C(=O)CCN1CCN(CCO)CC1

>  <Energy>  (72) 
114.01959022835776

>  <Genealogy>  (72) 
[NH-]C(=O)c1cc2ccc(CC(=O)[N-]CCO)cc2n1C(=O)CCN1CCN(CCO)CC1 (protonated)
[NH-]C(=O)c1cc2ccc(CC(=O)[N-]CCO)cc2n1C(=O)CCN1CCN(CCO)CC1 (3D coordinates assigned)
[NH-]C(=O)c1cc2ccc(CC(=O)[N-]CCO)cc2n1C(=O)CCN1CCN(CCO)CC1 (nonaromatic ring conformer: 114.01959022835776 kcal/mol)

>  <smiles>  (72) 
NC(=O)c1cc2ccc(CC(=O)NCCO)cc2n1C(=O)CCN1CCN(CCO)CC1

>  <score_type>  (72) 
oracle

>  <origin>  (72) 
adg

>  <m_score__min__energy>  (72) 
-10.27

>  <m_primary>  (72) 
energy

$$$$
72:0
     RDKit          3D

 47 49  0  0  0  0  0  0  0  0999 V2000
   -4.9170   17.6920  -34.7640 C   0  0  0  0  0  0  0  0  0  0  0  0
   -6.2550   18.2270  -34.4470 N   0  0  1  0  0  0  0  0  0  0  0  0
   -6.9090   17.4370  -33.3710 C   0  0  0  0  0  0  0  0  0  0  0  0
   -5.9770   17.0490  -32.2070 C   0  0  0  0  0  0  0  0  0  0  0  0
   -5.7530   18.1540  -31.1490 C   0  0  0  0  0  0  0  0  0  0  0  0
   -5.5700   19.4910  -31.7400 N   0  0  0  0  0  0  0  0  0  0  0  0
   -4.3530   20.2140  -31.4810 C   0  0  0  0  0  0  0  0  0  0  0  0
   -3.1400   19.8090  -32.0940 C   0  0  0  0  0  0  0  0  0  0  0  0
   -1.9430   20.5000  -31.8380 C   0  0  0  0  0  0  0  0  0  0  0  0
   -1.9910   21.5920  -30.9780 C   0  0  0  0  0  0  0  0  0  0  0  0
   -0.9830   22.4220  -30.5400 C   0  0  0  0  0  0  0  0  0  0  0  0
   -1.6010   23.3310  -29.6810 C   0  0  0  0  0  0  0  0  0  0  0  0
   -0.8940   24.4410  -29.0100 C   0  0  0  0  0  0  0  0  0  0  0  0
   -1.5320   25.7090  -28.8730 N   0  0  0  0  0  0  0  0  0  0  0  0
    0.2630   24.2810  -28.5410 O   0  0  0  0  0  0  0  0  0  0  0  0
   -2.9360   23.0730  -29.5960 N   0  0  0  0  0  0  0  0  0  0  0  0
   -3.9130   23.7580  -28.7990 C   0  0  0  0  0  0  0  0  0  0  0  0
   -3.6520   24.0440  -27.6000 O   0  0  0  0  0  0  0  0  0  0  0  0
   -5.2190   24.1860  -29.3950 C   0  0  0  0  0  0  0  0  0  0  0  0
   -4.9730   25.0460  -30.5920 C   0  0  0  0  0  0  0  0  0  0  0  0
   -3.8840   25.6660  -30.7140 O   0  0  0  0  0  0  0  0  0  0  0  0
   -5.9680   25.2040  -31.5500 O   0  0  0  0  0  0  0  0  0  0  0  0
   -3.1580   22.0060  -30.3930 C   0  0  0  0  0  0  0  0  0  0  0  0
   -4.3610   21.3260  -30.6110 C   0  0  0  0  0  0  0  0  0  0  0  0
   -6.5150   20.0460  -32.7260 C   0  0  0  0  0  0  0  0  0  0  0  0
   -6.1660   19.6830  -34.1810 C   0  0  0  0  0  0  0  0  0  0  0  0
   -4.3776   17.4763  -33.8299 H   0  0  0  0  0  0  0  0  0  0  0  0
   -5.0214   16.7665  -35.3492 H   0  0  0  0  0  0  0  0  0  0  0  0
   -4.3545   18.4344  -35.3492 H   0  0  0  0  0  0  0  0  0  0  0  0
   -6.8360   18.1040  -35.3110 H   0  0  0  0  0  0  0  0  0  0  0  0
   -7.7386   18.0330  -32.9629 H   0  0  0  0  0  0  0  0  0  0  0  0
   -7.2421   16.4956  -33.8323 H   0  0  0  0  0  0  0  0  0  0  0  0
   -6.4112   16.1748  -31.6998 H   0  0  0  0  0  0  0  0  0  0  0  0
   -4.9925   16.8512  -32.6561 H   0  0  0  0  0  0  0  0  0  0  0  0
   -6.6273   18.1826  -30.4821 H   0  0  0  0  0  0  0  0  0  0  0  0
   -4.8290   17.9060  -30.6061 H   0  0  0  0  0  0  0  0  0  0  0  0
   -3.1358   18.9461  -32.7762 H   0  0  0  0  0  0  0  0  0  0  0  0
   -0.9970   20.1866  -32.3037 H   0  0  0  0  0  0  0  0  0  0  0  0
    0.0824   22.3776  -30.8100 H   0  0  0  0  0  0  0  0  0  0  0  0
   -2.5700   25.7980  -28.9340 H   0  0  0  0  0  0  0  0  0  0  0  0
   -5.7916   23.2964  -29.6962 H   0  0  0  0  0  0  0  0  0  0  0  0
   -5.7882   24.7586  -28.6479 H   0  0  0  0  0  0  0  0  0  0  0  0
   -5.2893   21.6494  -30.1173 H   0  0  0  0  0  0  0  0  0  0  0  0
   -7.5199   19.6589  -32.5017 H   0  0  0  0  0  0  0  0  0  0  0  0
   -6.4629   21.1417  -32.6438 H   0  0  0  0  0  0  0  0  0  0  0  0
   -6.8643   20.2060  -34.8509 H   0  0  0  0  0  0  0  0  0  0  0  0
   -5.1243   19.9890  -34.3580 H   0  0  0  0  0  0  0  0  0  0  0  0
  1  2  1  0
  2  3  1  0
  3  4  1  0
  4  5  1  0
  5  6  1  0
  6  7  1  0
  7  8  2  0
  8  9  1  0
  9 10  2  0
 10 11  1  0
 11 12  2  0
 12 13  1  0
 13 14  1  0
 13 15  2  0
 12 16  1  0
 16 17  1  0
 17 18  2  0
 17 19  1  0
 19 20  1  0
 20 21  2  0
 20 22  1  0
 16 23  1  0
 23 24  2  0
  6 25  1  0
 25 26  1  0
 26  2  1  0
 24  7  1  0
 23 10  1  0
  1 27  1  0
  1 28  1  0
  1 29  1  0
  2 30  1  6
  3 31  1  0
  3 32  1  0
  4 33  1  0
  4 34  1  0
  5 35  1  0
  5 36  1  0
  8 37  1  0
  9 38  1  0
 11 39  1  0
 14 40  1  0
 19 41  1  0
 19 42  1  0
 24 43  1  0
 25 44  1  0
 25 45  1  0
 26 46  1  0
 26 47  1  0
M  CHG  3   2   1  14  -1  22  -1
M  END
>  <UniqueID>  (73) 
72

>  <SMILES>  (73) 
C[N@H+]1CCCN(c2ccc3cc(C([NH-])=O)n(C(=O)CC(=O)[O-])c3c2)CC1

>  <Energy>  (73) 
101.32822550380855

>  <Genealogy>  (73) 
C[NH+]1CCCN(c2ccc3cc(C([NH-])=O)n(C(=O)CC(=O)[O-])c3c2)CC1 (protonated)
C[N@H+]1CCCN(c2ccc3cc(C([NH-])=O)n(C(=O)CC(=O)[O-])c3c2)CC1 (chirality)
C[N@H+]1CCCN(c2ccc3cc(C([NH-])=O)n(C(=O)CC(=O)[O-])c3c2)CC1 (3D coordinates assigned)
C[N@H+]1CCCN(c2ccc3cc(C([NH-])=O)n(C(=O)CC(=O)[O-])c3c2)CC1 (nonaromatic ring conformer: 101.32822550380855 kcal/mol)

>  <smiles>  (73) 
CN1CCCN(c2ccc3cc(C(N)=O)n(C(=O)CC(=O)O)c3c2)CC1

>  <score_type>  (73) 
oracle

>  <origin>  (73) 
adg

>  <m_score__min__energy>  (73) 
-9.4199999999999999

>  <m_primary>  (73) 
energy

$$$$
73:0
     RDKit          3D

 36 37  0  0  0  0  0  0  0  0999 V2000
   -5.5810   16.7750  -33.8170 C   0  0  0  0  0  0  0  0  0  0  0  0
   -6.4300   18.0300  -34.0580 C   0  0  2  0  0  0  0  0  0  0  0  0
   -6.0790   18.5920  -35.2970 O   0  0  0  0  0  0  0  0  0  0  0  0
   -6.2070   19.0820  -32.9430 C   0  0  1  0  0  0  0  0  0  0  0  0
   -5.7740   18.4570  -31.6080 C   0  0  0  0  0  0  0  0  0  0  0  0
   -5.2940   20.1640  -33.3510 N   0  0  0  0  0  0  0  0  0  0  0  0
   -4.1190   20.6370  -32.6580 C   0  0  0  0  0  0  0  0  0  0  0  0
   -2.8800   19.9430  -32.6880 C   0  0  0  0  0  0  0  0  0  0  0  0
   -1.7580   20.4400  -32.0050 C   0  0  0  0  0  0  0  0  0  0  0  0
   -1.9010   21.6200  -31.2830 C   0  0  0  0  0  0  0  0  0  0  0  0
   -0.9750   22.3300  -30.5560 C   0  0  0  0  0  0  0  0  0  0  0  0
   -1.6630   23.4320  -30.0550 C   0  0  0  0  0  0  0  0  0  0  0  0
   -1.0570   24.4210  -29.1400 C   0  0  0  0  0  0  0  0  0  0  0  0
   -1.6830   25.6780  -28.8980 N   0  0  0  0  0  0  0  0  0  0  0  0
    0.0030   24.1320  -28.5230 O   0  0  0  0  0  0  0  0  0  0  0  0
   -2.9650   23.4090  -30.4660 N   0  0  0  0  0  0  0  0  0  0  0  0
   -3.9790   24.4010  -30.2400 C   0  0  0  0  0  0  0  0  0  0  0  0
   -4.9430   24.1600  -29.4670 O   0  0  0  0  0  0  0  0  0  0  0  0
   -3.8930   25.6450  -30.8520 O   0  0  0  0  0  0  0  0  0  0  0  0
   -3.0920   22.2900  -31.2130 C   0  0  0  0  0  0  0  0  0  0  0  0
   -4.2200   21.8280  -31.9000 C   0  0  0  0  0  0  0  0  0  0  0  0
   -5.4694   16.6100  -32.7352 H   0  0  0  0  0  0  0  0  0  0  0  0
   -6.0764   15.9044  -34.2715 H   0  0  0  0  0  0  0  0  0  0  0  0
   -4.5885   16.9109  -34.2715 H   0  0  0  0  0  0  0  0  0  0  0  0
   -7.4904   17.7377  -34.0524 H   0  0  0  0  0  0  0  0  0  0  0  0
   -6.8350   19.1700  -35.5790 H   0  0  0  0  0  0  0  0  0  0  0  0
   -7.1933   19.5397  -32.7767 H   0  0  0  0  0  0  0  0  0  0  0  0
   -6.1839   19.0486  -30.7761 H   0  0  0  0  0  0  0  0  0  0  0  0
   -6.1523   17.4260  -31.5460 H   0  0  0  0  0  0  0  0  0  0  0  0
   -4.6758   18.4489  -31.5460 H   0  0  0  0  0  0  0  0  0  0  0  0
   -5.4450   20.5320  -34.3190 H   0  0  0  0  0  0  0  0  0  0  0  0
   -2.7982   19.0033  -33.2540 H   0  0  0  0  0  0  0  0  0  0  0  0
   -0.7940   19.9113  -32.0401 H   0  0  0  0  0  0  0  0  0  0  0  0
    0.0852   22.0803  -30.4026 H   0  0  0  0  0  0  0  0  0  0  0  0
   -2.7130   25.8000  -29.0280 H   0  0  0  0  0  0  0  0  0  0  0  0
   -5.1695   22.3812  -31.8518 H   0  0  0  0  0  0  0  0  0  0  0  0
  1  2  1  0
  2  3  1  0
  2  4  1  0
  4  5  1  0
  4  6  1  0
  6  7  1  0
  7  8  2  0
  8  9  1  0
  9 10  2  0
 10 11  1  0
 11 12  2  0
 12 13  1  0
 13 14  1  0
 13 15  2  0
 12 16  1  0
 16 17  1  0
 17 18  2  0
 17 19  1  0
 16 20  1  0
 20 21  2  0
 21  7  1  0
 20 10  1  0
  1 22  1  0
  1 23  1  0
  1 24  1  0
  2 25  1  6
  3 26  1  0
  4 27  1  1
  5 28  1  0
  5 29  1  0
  5 30  1  0
  6 31  1  0
  8 32  1  0
  9 33  1  0
 11 34  1  0
 14 35  1  0
 21 36  1  0
M  CHG  2  14  -1  19  -1
M  END
>  <UniqueID>  (74) 
73

>  <SMILES>  (74) 
C[C@H](O)[C@@H](C)Nc1ccc2cc(C([NH-])=O)n(C(=O)[O-])c2c1

>  <Energy>  (74) 
75.96107750666441

>  <Genealogy>  (74) 
CC(O)C(C)Nc1ccc2cc(C([NH-])=O)n(C(=O)[O-])c2c1 (protonated)
C[C@H](O)[C@@H](C)Nc1ccc2cc(C([NH-])=O)n(C(=O)[O-])c2c1 (chirality)
C[C@H](O)[C@@H](C)Nc1ccc2cc(C([NH-])=O)n(C(=O)[O-])c2c1 (3D coordinates assigned)
C[C@H](O)[C@@H](C)Nc1ccc2cc(C([NH-])=O)n(C(=O)[O-])c2c1 (optimized conformer: 75.96107750666441 kcal/mol)

>  <smiles>  (74) 
CC(O)C(C)Nc1ccc2cc(C(N)=O)n(C(=O)O)c2c1

>  <score_type>  (74) 
oracle

>  <origin>  (74) 
adg

>  <m_score__min__energy>  (74) 
-10.619999999999999

>  <m_primary>  (74) 
energy

$$$$
74:0
     RDKit          3D

 51 52  0  0  0  0  0  0  0  0999 V2000
   -1.8380   18.4780  -32.5990 C   0  0  0  0  0  0  0  0  0  0  0  0
   -2.7510   19.3770  -33.3270 N   0  0  0  0  0  0  0  0  0  0  0  0
   -1.9840   20.1950  -34.2850 C   0  0  0  0  0  0  0  0  0  0  0  0
   -3.8270   18.6080  -34.0200 C   0  0  0  0  0  0  0  0  0  0  0  0
   -4.8060   17.9420  -33.0330 C   0  0  0  0  0  0  0  0  0  0  0  0
   -6.2660   18.3330  -33.3000 C   0  0  0  0  0  0  0  0  0  0  0  0
   -6.5270   19.7340  -32.8200 C   0  0  0  0  0  0  0  0  0  0  0  0
   -7.8490   20.2470  -32.7920 C   0  0  0  0  0  0  0  0  0  0  0  0
   -8.1070   21.5370  -32.2960 C   0  0  0  0  0  0  0  0  0  0  0  0
   -7.0300   22.2830  -31.8280 C   0  0  0  0  0  0  0  0  0  0  0  0
   -6.9970   23.5370  -31.2560 C   0  0  0  0  0  0  0  0  0  0  0  0
   -5.6570   23.7610  -30.9400 C   0  0  0  0  0  0  0  0  0  0  0  0
   -5.1490   25.0170  -30.3500 C   0  0  0  0  0  0  0  0  0  0  0  0
   -3.9470   25.6010  -30.8450 N   0  0  0  0  0  0  0  0  0  0  0  0
   -5.7580   25.5710  -29.3970 O   0  0  0  0  0  0  0  0  0  0  0  0
   -4.8970   22.6900  -31.2980 N   0  0  0  0  0  0  0  0  0  0  0  0
   -3.4970   22.4800  -31.0620 C   0  0  0  0  0  0  0  0  0  0  0  0
   -2.7580   22.0820  -32.0030 O   0  0  0  0  0  0  0  0  0  0  0  0
   -2.9320   22.6180  -29.6810 C   0  0  0  0  0  0  0  0  0  0  0  0
   -1.7400   23.5170  -29.7070 C   0  0  0  0  0  0  0  0  0  0  0  0
   -0.6360   23.0800  -30.1350 O   0  0  0  0  0  0  0  0  0  0  0  0
   -1.8660   24.8400  -29.2700 O   0  0  0  0  0  0  0  0  0  0  0  0
   -1.2370   25.3550  -28.0940 C   0  0  0  0  0  0  0  0  0  0  0  0
   -1.8740   24.7760  -26.8240 C   0  0  0  0  0  0  0  0  0  0  0  0
   -3.6260   24.5370  -27.0340 Cl  0  0  0  0  0  0  0  0  0  0  0  0
   -1.6260   25.9040  -25.4670 Cl  0  0  0  0  0  0  0  0  0  0  0  0
   -1.1210   23.2130  -26.4070 Cl  0  0  0  0  0  0  0  0  0  0  0  0
   -5.7480   21.7970  -31.8450 C   0  0  0  0  0  0  0  0  0  0  0  0
   -5.4600   20.5200  -32.3310 C   0  0  0  0  0  0  0  0  0  0  0  0
   -1.9759   18.6138  -31.5162 H   0  0  0  0  0  0  0  0  0  0  0  0
   -2.0585   17.4346  -32.8687 H   0  0  0  0  0  0  0  0  0  0  0  0
   -0.7982   18.7146  -32.8687 H   0  0  0  0  0  0  0  0  0  0  0  0
   -3.1590   20.0290  -32.6170 H   0  0  0  0  0  0  0  0  0  0  0  0
   -1.3325   20.8898  -33.7347 H   0  0  0  0  0  0  0  0  0  0  0  0
   -1.3685   19.5383  -34.9174 H   0  0  0  0  0  0  0  0  0  0  0  0
   -2.6789   20.7670  -34.9174 H   0  0  0  0  0  0  0  0  0  0  0  0
   -4.3915   19.2958  -34.6667 H   0  0  0  0  0  0  0  0  0  0  0  0
   -3.3447   17.8092  -34.6025 H   0  0  0  0  0  0  0  0  0  0  0  0
   -4.7108   16.8499  -33.1244 H   0  0  0  0  0  0  0  0  0  0  0  0
   -4.5471   18.2870  -32.0211 H   0  0  0  0  0  0  0  0  0  0  0  0
   -6.4651   18.2765  -34.3804 H   0  0  0  0  0  0  0  0  0  0  0  0
   -6.9268   17.6402  -32.7584 H   0  0  0  0  0  0  0  0  0  0  0  0
   -8.6807   19.6294  -33.1620 H   0  0  0  0  0  0  0  0  0  0  0  0
   -9.1288   21.9439  -32.2785 H   0  0  0  0  0  0  0  0  0  0  0  0
   -7.8457   24.2156  -31.0854 H   0  0  0  0  0  0  0  0  0  0  0  0
   -3.0160   25.2910  -30.4910 H   0  0  0  0  0  0  0  0  0  0  0  0
   -3.6964   23.0450  -29.0152 H   0  0  0  0  0  0  0  0  0  0  0  0
   -2.6299   21.6265  -29.3126 H   0  0  0  0  0  0  0  0  0  0  0  0
   -0.1696   25.0898  -28.1128 H   0  0  0  0  0  0  0  0  0  0  0  0
   -1.3656   26.4474  -28.0807 H   0  0  0  0  0  0  0  0  0  0  0  0
   -4.4292   20.1361  -32.3330 H   0  0  0  0  0  0  0  0  0  0  0  0
  1  2  1  0
  2  3  1  0
  2  4  1  0
  4  5  1  0
  5  6  1  0
  6  7  1  0
  7  8  2  0
  8  9  1  0
  9 10  2  0
 10 11  1  0
 11 12  2  0
 12 13  1  0
 13 14  1  0
 13 15  2  0
 12 16  1  0
 16 17  1  0
 17 18  2  0
 17 19  1  0
 19 20  1  0
 20 21  2  0
 20 22  1  0
 22 23  1  0
 23 24  1  0
 24 25  1  0
 24 26  1  0
 24 27  1  0
 16 28  1  0
 28 29  2  0
 29  7  1  0
 28 10  1  0
  1 30  1  0
  1 31  1  0
  1 32  1  0
  2 33  1  0
  3 34  1  0
  3 35  1  0
  3 36  1  0
  4 37  1  0
  4 38  1  0
  5 39  1  0
  5 40  1  0
  6 41  1  0
  6 42  1  0
  8 43  1  0
  9 44  1  0
 11 45  1  0
 14 46  1  0
 19 47  1  0
 19 48  1  0
 23 49  1  0
 23 50  1  0
 29 51  1  0
M  CHG  2   2   1  14  -1
M  END
>  <UniqueID>  (75) 
74

>  <SMILES>  (75) 
C[NH+](C)CCCc1ccc2cc(C([NH-])=O)n(C(=O)CC(=O)OCC(Cl)(Cl)Cl)c2c1

>  <Energy>  (75) 
82.49287489705966

>  <Genealogy>  (75) 
C[NH+](C)CCCc1ccc2cc(C([NH-])=O)n(C(=O)CC(=O)OCC(Cl)(Cl)Cl)c2c1 (protonated)
C[NH+](C)CCCc1ccc2cc(C([NH-])=O)n(C(=O)CC(=O)OCC(Cl)(Cl)Cl)c2c1 (3D coordinates assigned)
C[NH+](C)CCCc1ccc2cc(C([NH-])=O)n(C(=O)CC(=O)OCC(Cl)(Cl)Cl)c2c1 (optimized conformer: 82.49287489705966 kcal/mol)

>  <smiles>  (75) 
CN(C)CCCc1ccc2cc(C(N)=O)n(C(=O)CC(=O)OCC(Cl)(Cl)Cl)c2c1

>  <score_type>  (75) 
oracle

>  <origin>  (75) 
adg

>  <m_score__min__energy>  (75) 
-10.56

>  <m_primary>  (75) 
energy

$$$$
75:0
     RDKit          3D

 49 51  0  0  0  0  0  0  0  0999 V2000
   -0.7680   22.3320  -30.3440 C   0  0  0  0  0  0  0  0  0  0  0  0
   -1.6820   23.1550  -29.4190 C   0  0  0  0  0  0  0  0  0  0  0  0
   -1.9720   22.3840  -28.1180 C   0  0  0  0  0  0  0  0  0  0  0  0
   -2.9430   23.4700  -30.1030 N   0  0  0  0  0  0  0  0  0  0  0  0
   -3.5650   22.7300  -31.1620 C   0  0  0  0  0  0  0  0  0  0  0  0
   -2.8740   22.0230  -31.9430 O   0  0  0  0  0  0  0  0  0  0  0  0
   -4.9930   22.7680  -31.3130 N   0  0  0  0  0  0  0  0  0  0  0  0
   -5.8460   23.7600  -30.9320 C   0  0  0  0  0  0  0  0  0  0  0  0
   -5.4580   25.0980  -30.4400 C   0  0  0  0  0  0  0  0  0  0  0  0
   -4.2210   25.6910  -30.8270 N   0  0  0  0  0  0  0  0  0  0  0  0
   -6.2500   25.7470  -29.7050 O   0  0  0  0  0  0  0  0  0  0  0  0
   -7.1690   23.3760  -31.1470 C   0  0  0  0  0  0  0  0  0  0  0  0
   -7.0970   22.1100  -31.6820 C   0  0  0  0  0  0  0  0  0  0  0  0
   -8.1140   21.2460  -32.0750 C   0  0  0  0  0  0  0  0  0  0  0  0
   -7.7520   19.9820  -32.5670 C   0  0  0  0  0  0  0  0  0  0  0  0
   -6.3880   19.5960  -32.6500 C   0  0  0  0  0  0  0  0  0  0  0  0
   -6.0280   18.2880  -33.1460 N   0  0  0  0  0  0  0  0  0  0  0  0
   -6.8010   17.1020  -32.7390 C   0  0  0  0  0  0  0  0  0  0  0  0
   -6.7680   16.0340  -33.8380 C   0  0  0  0  0  0  0  0  0  0  0  0
   -5.3250   15.6330  -34.2300 C   0  0  0  0  0  0  0  0  0  0  0  0
   -4.9600   14.4190  -33.6220 O   0  0  0  0  0  0  0  0  0  0  0  0
   -4.2740   16.7240  -33.9180 C   0  0  0  0  0  0  0  0  0  0  0  0
   -4.8640   18.1320  -34.0360 C   0  0  0  0  0  0  0  0  0  0  0  0
   -5.3840   20.5060  -32.2400 C   0  0  0  0  0  0  0  0  0  0  0  0
   -5.7750   21.7660  -31.7710 C   0  0  0  0  0  0  0  0  0  0  0  0
   -0.9780   24.4490  -29.0800 C   0  0  0  0  0  0  0  0  0  0  0  0
   -1.5360   25.5600  -29.2900 O   0  0  0  0  0  0  0  0  0  0  0  0
    0.3200   24.4290  -28.5770 O   0  0  0  0  0  0  0  0  0  0  0  0
   -0.0870   21.7188  -29.7355 H   0  0  0  0  0  0  0  0  0  0  0  0
   -1.3828   21.6770  -30.9788 H   0  0  0  0  0  0  0  0  0  0  0  0
   -0.1809   23.0119  -30.9788 H   0  0  0  0  0  0  0  0  0  0  0  0
   -1.7326   23.0205  -27.2534 H   0  0  0  0  0  0  0  0  0  0  0  0
   -3.0359   22.1065  -28.0856 H   0  0  0  0  0  0  0  0  0  0  0  0
   -1.3546   21.4742  -28.0856 H   0  0  0  0  0  0  0  0  0  0  0  0
   -3.3110   25.3040  -30.4940 H   0  0  0  0  0  0  0  0  0  0  0  0
   -8.0765   23.9602  -30.9344 H   0  0  0  0  0  0  0  0  0  0  0  0
   -9.1703   21.5443  -32.0024 H   0  0  0  0  0  0  0  0  0  0  0  0
   -8.5352   19.2815  -32.8925 H   0  0  0  0  0  0  0  0  0  0  0  0
   -6.3671   16.6863  -31.8176 H   0  0  0  0  0  0  0  0  0  0  0  0
   -7.8453   17.4012  -32.5662 H   0  0  0  0  0  0  0  0  0  0  0  0
   -7.2972   15.1397  -33.4772 H   0  0  0  0  0  0  0  0  0  0  0  0
   -7.2521   16.4570  -34.7306 H   0  0  0  0  0  0  0  0  0  0  0  0
   -5.3337   15.5087  -35.3229 H   0  0  0  0  0  0  0  0  0  0  0  0
   -5.4910   13.6990  -34.0510 H   0  0  0  0  0  0  0  0  0  0  0  0
   -3.9029   16.5782  -32.8928 H   0  0  0  0  0  0  0  0  0  0  0  0
   -3.4583   16.6325  -34.6504 H   0  0  0  0  0  0  0  0  0  0  0  0
   -4.0963   18.8691  -33.7582 H   0  0  0  0  0  0  0  0  0  0  0  0
   -5.1902   18.2917  -35.0743 H   0  0  0  0  0  0  0  0  0  0  0  0
   -4.3205   20.2294  -32.2888 H   0  0  0  0  0  0  0  0  0  0  0  0
  1  2  1  0
  2  3  1  0
  2  4  1  0
  4  5  1  0
  5  6  2  0
  5  7  1  0
  7  8  1  0
  8  9  1  0
  9 10  1  0
  9 11  2  0
  8 12  2  0
 12 13  1  0
 13 14  2  0
 14 15  1  0
 15 16  2  0
 16 17  1  0
 17 18  1  0
 18 19  1  0
 19 20  1  0
 20 21  1  0
 20 22  1  0
 22 23  1  0
 16 24  1  0
 24 25  2  0
  2 26  1  0
 26 27  2  0
 26 28  1  0
 25  7  1  0
 25 13  1  0
 23 17  1  0
  1 29  1  0
  1 30  1  0
  1 31  1  0
  3 32  1  0
  3 33  1  0
  3 34  1  0
 10 35  1  0
 12 36  1  0
 14 37  1  0
 15 38  1  0
 18 39  1  0
 18 40  1  0
 19 41  1  0
 19 42  1  0
 20 43  1  0
 21 44  1  0
 22 45  1  0
 22 46  1  0
 23 47  1  0
 23 48  1  0
 24 49  1  0
M  CHG  3   4  -1  10  -1  28  -1
M  END
>  <UniqueID>  (76) 
75

>  <SMILES>  (76) 
CC(C)([N-]C(=O)n1c(C([NH-])=O)cc2ccc(N3CCC(O)CC3)cc21)C(=O)[O-]

>  <Energy>  (76) 
91.97264440646549

>  <Genealogy>  (76) 
CC(C)([N-]C(=O)n1c(C([NH-])=O)cc2ccc(N3CCC(O)CC3)cc21)C(=O)[O-] (protonated)
CC(C)([N-]C(=O)n1c(C([NH-])=O)cc2ccc(N3CCC(O)CC3)cc21)C(=O)[O-] (3D coordinates assigned)
CC(C)([N-]C(=O)n1c(C([NH-])=O)cc2ccc(N3CCC(O)CC3)cc21)C(=O)[O-] (nonaromatic ring conformer: 91.97264440646549 kcal/mol)

>  <smiles>  (76) 
CC(C)(NC(=O)n1c(C(N)=O)cc2ccc(N3CCC(O)CC3)cc21)C(=O)O

>  <score_type>  (76) 
oracle

>  <origin>  (76) 
adg

>  <m_score__min__energy>  (76) 
-14.119999999999999

>  <m_primary>  (76) 
energy

$$$$
76:0
     RDKit          3D

 33 34  0  0  0  0  0  0  0  0999 V2000
   -0.9260   21.7870  -31.8650 N   0  0  0  0  0  0  0  0  0  0  0  0
   -1.6350   21.3370  -33.0210 C   0  0  0  0  0  0  0  0  0  0  0  0
   -1.0700   21.3920  -34.1450 O   0  0  0  0  0  0  0  0  0  0  0  0
   -3.0000   20.7800  -32.9010 C   0  0  0  0  0  0  0  0  0  0  0  0
   -3.3940   19.5620  -33.4530 C   0  0  0  0  0  0  0  0  0  0  0  0
   -4.7440   19.4670  -33.2010 C   0  0  0  0  0  0  0  0  0  0  0  0
   -5.6460   18.4610  -33.5330 C   0  0  0  0  0  0  0  0  0  0  0  0
   -6.9830   18.6160  -33.1310 C   0  0  0  0  0  0  0  0  0  0  0  0
   -7.3900   19.7540  -32.3870 C   0  0  0  0  0  0  0  0  0  0  0  0
   -8.8350   19.9260  -31.9950 C   0  0  0  0  0  0  0  0  0  0  0  0
   -9.1130   21.2560  -31.7270 F   0  0  0  0  0  0  0  0  0  0  0  0
   -9.6420   19.4980  -33.0320 F   0  0  0  0  0  0  0  0  0  0  0  0
   -9.1270   19.1870  -30.8620 F   0  0  0  0  0  0  0  0  0  0  0  0
   -6.4470   20.7660  -32.0920 C   0  0  0  0  0  0  0  0  0  0  0  0
   -5.1250   20.5940  -32.5210 C   0  0  0  0  0  0  0  0  0  0  0  0
   -4.0650   21.4100  -32.3280 N   0  0  0  0  0  0  0  0  0  0  0  0
   -4.0660   22.6570  -31.6150 C   0  0  0  0  0  0  0  0  0  0  0  0
   -3.2630   22.8320  -30.6570 O   0  0  0  0  0  0  0  0  0  0  0  0
   -4.9740   23.6610  -31.9700 O   0  0  0  0  0  0  0  0  0  0  0  0
   -5.8600   24.2900  -31.0450 C   0  0  0  0  0  0  0  0  0  0  0  0
   -5.0910   25.1990  -30.0860 C   0  0  0  0  0  0  0  0  0  0  0  0
   -3.9110   25.6710  -30.6770 O   0  0  0  0  0  0  0  0  0  0  0  0
   -1.3790   21.8100  -30.9250 H   0  0  0  0  0  0  0  0  0  0  0  0
    0.0520   22.1420  -31.9550 H   0  0  0  0  0  0  0  0  0  0  0  0
   -2.7607   18.8320  -33.9783 H   0  0  0  0  0  0  0  0  0  0  0  0
   -5.3220   17.5715  -34.0932 H   0  0  0  0  0  0  0  0  0  0  0  0
   -7.7231   17.8465  -33.3959 H   0  0  0  0  0  0  0  0  0  0  0  0
   -6.7454   21.6682  -31.5379 H   0  0  0  0  0  0  0  0  0  0  0  0
   -6.5938   24.8917  -31.6013 H   0  0  0  0  0  0  0  0  0  0  0  0
   -6.3683   23.5101  -30.4590 H   0  0  0  0  0  0  0  0  0  0  0  0
   -5.7257   26.0560  -29.8163 H   0  0  0  0  0  0  0  0  0  0  0  0
   -4.8257   24.6181  -29.1904 H   0  0  0  0  0  0  0  0  0  0  0  0
   -3.5460   24.9210  -31.2170 H   0  0  0  0  0  0  0  0  0  0  0  0
  1  2  1  0
  2  3  2  0
  2  4  1  0
  4  5  2  0
  5  6  1  0
  6  7  2  0
  7  8  1  0
  8  9  2  0
  9 10  1  0
 10 11  1  0
 10 12  1  0
 10 13  1  0
  9 14  1  0
 14 15  2  0
 15 16  1  0
 16 17  1  0
 17 18  2  0
 17 19  1  0
 19 20  1  0
 20 21  1  0
 21 22  1  0
 16  4  1  0
 15  6  1  0
  1 23  1  0
  1 24  1  0
  5 25  1  0
  7 26  1  0
  8 27  1  0
 14 28  1  0
 20 29  1  0
 20 30  1  0
 21 31  1  0
 21 32  1  0
 22 33  1  0
M  END
>  <UniqueID>  (77) 
76

>  <SMILES>  (77) 
NC(=O)c1cc2ccc(C(F)(F)F)cc2n1C(=O)OCCO

>  <Energy>  (77) 
69.40288182458488

>  <Genealogy>  (77) 
NC(=O)c1cc2ccc(C(F)(F)F)cc2n1C(=O)OCCO (3D coordinates assigned)
NC(=O)c1cc2ccc(C(F)(F)F)cc2n1C(=O)OCCO (optimized conformer: 69.40288182458488 kcal/mol)

>  <smiles>  (77) 
NC(=O)c1cc2ccc(C(F)(F)F)cc2n1C(=O)OCCO

>  <score_type>  (77) 
oracle

>  <origin>  (77) 
adg

>  <m_score__min__energy>  (77) 
-8.3499999999999996

>  <m_primary>  (77) 
energy

$$$$
77:0
     RDKit          3D

 42 44  0  0  0  0  0  0  0  0999 V2000
   -6.8600   16.6750  -33.8200 C   0  0  0  0  0  0  0  0  0  0  0  0
   -6.5570   17.8480  -32.8820 C   0  0  0  0  0  0  0  0  0  0  0  0
   -6.1680   17.3950  -31.4700 C   0  0  0  0  0  0  0  0  0  0  0  0
   -7.6470   18.8360  -32.8760 N   0  0  0  0  0  0  0  0  0  0  0  0
   -7.6260   20.1580  -32.2950 C   0  0  0  0  0  0  0  0  0  0  0  0
   -8.7920   20.7820  -31.7710 C   0  0  0  0  0  0  0  0  0  0  0  0
   -8.7320   22.0720  -31.2160 C   0  0  0  0  0  0  0  0  0  0  0  0
   -7.5040   22.7250  -31.2090 C   0  0  0  0  0  0  0  0  0  0  0  0
   -7.1560   23.9640  -30.7180 C   0  0  0  0  0  0  0  0  0  0  0  0
   -5.7910   24.0910  -30.9730 C   0  0  0  0  0  0  0  0  0  0  0  0
   -5.0010   25.2980  -30.6510 C   0  0  0  0  0  0  0  0  0  0  0  0
   -3.6610   25.1930  -30.1790 N   0  0  0  0  0  0  0  0  0  0  0  0
   -5.5070   26.4390  -30.8210 O   0  0  0  0  0  0  0  0  0  0  0  0
   -5.3200   22.9740  -31.5920 N   0  0  0  0  0  0  0  0  0  0  0  0
   -3.9670   22.6640  -31.9490 C   0  0  0  0  0  0  0  0  0  0  0  0
   -3.0190   23.1210  -31.2570 O   0  0  0  0  0  0  0  0  0  0  0  0
   -3.6740   21.9120  -33.2100 C   0  0  0  0  0  0  0  0  0  0  0  0
   -3.1770   20.5050  -32.8610 C   0  0  0  0  0  0  0  0  0  0  0  0
   -2.1820   19.9070  -33.8430 C   0  0  0  0  0  0  0  0  0  0  0  0
   -3.6150   19.4010  -33.8110 C   0  0  0  0  0  0  0  0  0  0  0  0
   -6.3780   22.1510  -31.7310 C   0  0  0  0  0  0  0  0  0  0  0  0
   -6.4030   20.8660  -32.2790 C   0  0  0  0  0  0  0  0  0  0  0  0
   -7.0913   15.7796  -33.2244 H   0  0  0  0  0  0  0  0  0  0  0  0
   -7.7227   16.9263  -34.4545 H   0  0  0  0  0  0  0  0  0  0  0  0
   -5.9835   16.4770  -34.4545 H   0  0  0  0  0  0  0  0  0  0  0  0
   -5.6683   18.3533  -33.2880 H   0  0  0  0  0  0  0  0  0  0  0  0
   -6.6973   18.0113  -30.7284 H   0  0  0  0  0  0  0  0  0  0  0  0
   -6.4452   16.3392  -31.3342 H   0  0  0  0  0  0  0  0  0  0  0  0
   -5.0824   17.5094  -31.3342 H   0  0  0  0  0  0  0  0  0  0  0  0
   -8.4510   18.6190  -33.5080 H   0  0  0  0  0  0  0  0  0  0  0  0
   -9.7532   20.2480  -31.8005 H   0  0  0  0  0  0  0  0  0  0  0  0
   -9.6302   22.5512  -30.7993 H   0  0  0  0  0  0  0  0  0  0  0  0
   -7.8145   24.6970  -30.2290 H   0  0  0  0  0  0  0  0  0  0  0  0
   -2.8520   25.2900  -30.8320 H   0  0  0  0  0  0  0  0  0  0  0  0
   -4.5902   21.8380  -33.8143 H   0  0  0  0  0  0  0  0  0  0  0  0
   -2.8995   22.4433  -33.7826 H   0  0  0  0  0  0  0  0  0  0  0  0
   -3.2076   20.6512  -31.7712 H   0  0  0  0  0  0  0  0  0  0  0  0
   -1.8278   20.5018  -34.6978 H   0  0  0  0  0  0  0  0  0  0  0  0
   -1.1901   19.4393  -33.7573 H   0  0  0  0  0  0  0  0  0  0  0  0
   -4.2978   19.6298  -34.6426 H   0  0  0  0  0  0  0  0  0  0  0  0
   -4.0895   18.4157  -33.6925 H   0  0  0  0  0  0  0  0  0  0  0  0
   -5.4883   20.4141  -32.6901 H   0  0  0  0  0  0  0  0  0  0  0  0
  1  2  1  0
  2  3  1  0
  2  4  1  0
  4  5  1  0
  5  6  2  0
  6  7  1  0
  7  8  2  0
  8  9  1  0
  9 10  2  0
 10 11  1  0
 11 12  1  0
 11 13  2  0
 10 14  1  0
 14 15  1  0
 15 16  2  0
 15 17  1  0
 17 18  1  0
 18 19  1  0
 19 20  1  0
 14 21  1  0
 21 22  2  0
 22  5  1  0
 21  8  1  0
 20 18  1  0
  1 23  1  0
  1 24  1  0
  1 25  1  0
  2 26  1  0
  3 27  1  0
  3 28  1  0
  3 29  1  0
  4 30  1  0
  6 31  1  0
  7 32  1  0
  9 33  1  0
 12 34  1  0
 17 35  1  0
 17 36  1  0
 18 37  1  0
 19 38  1  0
 19 39  1  0
 20 40  1  0
 20 41  1  0
 22 42  1  0
M  CHG  1  12  -1
M  END
>  <UniqueID>  (78) 
77

>  <SMILES>  (78) 
CC(C)Nc1ccc2cc(C([NH-])=O)n(C(=O)CC3CC3)c2c1

>  <Energy>  (78) 
344.5839885341581

>  <Genealogy>  (78) 
CC(C)Nc1ccc2cc(C([NH-])=O)n(C(=O)CC3CC3)c2c1 (protonated)
CC(C)Nc1ccc2cc(C([NH-])=O)n(C(=O)CC3CC3)c2c1 (3D coordinates assigned)
CC(C)Nc1ccc2cc(C([NH-])=O)n(C(=O)CC3CC3)c2c1 (nonaromatic ring conformer: 344.5839885341581 kcal/mol)

>  <smiles>  (78) 
CC(C)Nc1ccc2cc(C(N)=O)n(C(=O)CC3CC3)c2c1

>  <score_type>  (78) 
oracle

>  <origin>  (78) 
adg

>  <m_score__min__energy>  (78) 
-11.039999999999999

>  <m_primary>  (78) 
energy

$$$$
78:0
     RDKit          3D

 30 32  0  0  0  0  0  0  0  0999 V2000
   -6.0250   25.2970  -29.0180 N   0  0  0  0  0  0  0  0  0  0  0  0
   -6.0190   25.0470  -30.4250 C   0  0  0  0  0  0  0  0  0  0  0  0
   -5.7230   25.9840  -31.2140 O   0  0  0  0  0  0  0  0  0  0  0  0
   -6.3990   23.7300  -30.9750 C   0  0  0  0  0  0  0  0  0  0  0  0
   -7.7180   23.3230  -31.1600 C   0  0  0  0  0  0  0  0  0  0  0  0
   -7.6370   22.0490  -31.6760 C   0  0  0  0  0  0  0  0  0  0  0  0
   -8.6460   21.1750  -32.0670 C   0  0  0  0  0  0  0  0  0  0  0  0
   -8.2700   19.9360  -32.6120 C   0  0  0  0  0  0  0  0  0  0  0  0
   -6.9010   19.6060  -32.7890 C   0  0  0  0  0  0  0  0  0  0  0  0
   -6.5090   18.2610  -33.3460 C   0  0  0  0  0  0  0  0  0  0  0  0
   -7.5890   17.4020  -33.2590 F   0  0  0  0  0  0  0  0  0  0  0  0
   -5.4500   17.7270  -32.6340 F   0  0  0  0  0  0  0  0  0  0  0  0
   -6.1260   18.3730  -34.6710 F   0  0  0  0  0  0  0  0  0  0  0  0
   -5.9050   20.5160  -32.3630 C   0  0  0  0  0  0  0  0  0  0  0  0
   -6.3100   21.7300  -31.7970 C   0  0  0  0  0  0  0  0  0  0  0  0
   -5.5370   22.7500  -31.3610 N   0  0  0  0  0  0  0  0  0  0  0  0
   -4.1060   22.8360  -31.4490 C   0  0  0  0  0  0  0  0  0  0  0  0
   -3.5070   22.2920  -32.4150 O   0  0  0  0  0  0  0  0  0  0  0  0
   -3.3360   23.5820  -30.4420 C   0  0  0  0  0  0  0  0  0  0  0  0
   -2.5330   23.0570  -29.4560 C   0  0  0  0  0  0  0  0  0  0  0  0
   -2.0060   24.0930  -28.7800 N   0  0  0  0  0  0  0  0  0  0  0  0
   -2.4720   25.2000  -29.3440 N   0  0  0  0  0  0  0  0  0  0  0  0
   -3.2790   24.9230  -30.3570 N   0  0  0  0  0  0  0  0  0  0  0  0
   -5.6960   26.2160  -28.6490 H   0  0  0  0  0  0  0  0  0  0  0  0
   -6.4500   24.6170  -28.3500 H   0  0  0  0  0  0  0  0  0  0  0  0
   -8.6303   23.8971  -30.9406 H   0  0  0  0  0  0  0  0  0  0  0  0
   -9.7060   21.4457  -31.9529 H   0  0  0  0  0  0  0  0  0  0  0  0
   -9.0457   19.2132  -32.9050 H   0  0  0  0  0  0  0  0  0  0  0  0
   -4.8375   20.2749  -32.4741 H   0  0  0  0  0  0  0  0  0  0  0  0
   -2.3554   21.9897  -29.2578 H   0  0  0  0  0  0  0  0  0  0  0  0
  1  2  1  0
  2  3  2  0
  2  4  1  0
  4  5  2  0
  5  6  1  0
  6  7  2  0
  7  8  1  0
  8  9  2  0
  9 10  1  0
 10 11  1  0
 10 12  1  0
 10 13  1  0
  9 14  1  0
 14 15  2  0
 15 16  1  0
 16 17  1  0
 17 18  2  0
 17 19  1  0
 19 20  1  0
 20 21  2  0
 21 22  1  0
 22 23  1  0
 16  4  1  0
 23 19  2  0
 15  6  1  0
  1 24  1  0
  1 25  1  0
  5 26  1  0
  7 27  1  0
  8 28  1  0
 14 29  1  0
 20 30  1  0
M  CHG  1  22  -1
M  END
>  <UniqueID>  (79) 
78

>  <SMILES>  (79) 
NC(=O)c1cc2ccc(C(F)(F)F)cc2n1C(=O)c1cn[n-]n1

>  <Energy>  (79) 
107.22364472736814

>  <Genealogy>  (79) 
NC(=O)c1cc2ccc(C(F)(F)F)cc2n1C(=O)c1cn[n-]n1 (protonated)
NC(=O)c1cc2ccc(C(F)(F)F)cc2n1C(=O)c1cn[n-]n1 (3D coordinates assigned)
NC(=O)c1cc2ccc(C(F)(F)F)cc2n1C(=O)c1cn[n-]n1 (optimized conformer: 107.22364472736814 kcal/mol)

>  <smiles>  (79) 
NC(=O)c1cc2ccc(C(F)(F)F)cc2n1C(=O)c1cn[nH]n1

>  <score_type>  (79) 
oracle

>  <origin>  (79) 
adg

>  <m_score__min__energy>  (79) 
-10.02

>  <m_primary>  (79) 
energy

$$$$
79:0
     RDKit          3D

 56 57  0  0  0  0  0  0  0  0999 V2000
   -1.2980   25.6830  -26.2420 C   0  0  0  0  0  0  0  0  0  0  0  0
    0.0760   25.7010  -26.9010 C   0  0  0  0  0  0  0  0  0  0  0  0
    0.0290   25.0790  -28.1840 O   0  0  0  0  0  0  0  0  0  0  0  0
   -0.0710   23.6960  -28.3700 C   0  0  0  0  0  0  0  0  0  0  0  0
   -0.1170   23.2120  -29.5330 O   0  0  0  0  0  0  0  0  0  0  0  0
   -0.1270   22.8680  -27.2410 O   0  0  0  0  0  0  0  0  0  0  0  0
   -1.1700   21.9800  -26.9450 C   0  0  0  0  0  0  0  0  0  0  0  0
   -1.2110   21.3630  -25.8430 O   0  0  0  0  0  0  0  0  0  0  0  0
   -2.2220   21.7250  -27.9770 C   0  0  0  0  0  0  0  0  0  0  0  0
   -1.7520   20.7930  -28.9340 O   0  0  0  0  0  0  0  0  0  0  0  0
   -2.6580   20.6890  -30.0150 C   0  0  0  0  0  0  0  0  0  0  0  0
   -2.8520   22.0390  -30.6370 C   0  0  0  0  0  0  0  0  0  0  0  0
   -1.9080   22.5730  -31.2770 O   0  0  0  0  0  0  0  0  0  0  0  0
   -4.1110   22.7180  -30.5330 N   0  0  0  0  0  0  0  0  0  0  0  0
   -4.4020   23.8170  -29.7820 C   0  0  0  0  0  0  0  0  0  0  0  0
   -3.4800   24.5040  -28.8510 C   0  0  0  0  0  0  0  0  0  0  0  0
   -2.4010   25.2980  -29.3360 N   0  0  0  0  0  0  0  0  0  0  0  0
   -3.6410   24.3800  -27.6070 O   0  0  0  0  0  0  0  0  0  0  0  0
   -5.7330   24.1940  -29.9710 C   0  0  0  0  0  0  0  0  0  0  0  0
   -6.2460   23.2840  -30.8690 C   0  0  0  0  0  0  0  0  0  0  0  0
   -7.5180   23.1920  -31.4230 C   0  0  0  0  0  0  0  0  0  0  0  0
   -7.7630   22.1620  -32.3460 C   0  0  0  0  0  0  0  0  0  0  0  0
   -6.7350   21.2450  -32.7000 C   0  0  0  0  0  0  0  0  0  0  0  0
   -6.9630   20.1770  -33.6390 N   0  0  0  0  0  0  0  0  0  0  0  0
   -6.0520   19.0500  -33.8490 C   0  0  0  0  0  0  0  0  0  0  0  0
   -6.7840   17.7180  -33.5800 C   0  0  0  0  0  0  0  0  0  0  0  0
   -7.2220   17.5340  -32.1790 N   0  0  0  0  0  0  0  0  0  0  0  0
   -6.1550   17.8080  -31.2010 C   0  0  0  0  0  0  0  0  0  0  0  0
   -8.4490   18.2860  -31.8570 C   0  0  0  0  0  0  0  0  0  0  0  0
   -5.4590   21.3710  -32.1080 C   0  0  0  0  0  0  0  0  0  0  0  0
   -5.2470   22.4040  -31.1900 C   0  0  0  0  0  0  0  0  0  0  0  0
   -1.1802   25.6845  -25.1483 H   0  0  0  0  0  0  0  0  0  0  0  0
   -1.8646   26.5738  -26.5510 H   0  0  0  0  0  0  0  0  0  0  0  0
   -1.8410   24.7777  -26.5510 H   0  0  0  0  0  0  0  0  0  0  0  0
    0.4069   26.7436  -27.0172 H   0  0  0  0  0  0  0  0  0  0  0  0
    0.7804   25.1453  -26.2646 H   0  0  0  0  0  0  0  0  0  0  0  0
   -3.1208   21.3216  -27.4878 H   0  0  0  0  0  0  0  0  0  0  0  0
   -2.4634   22.6704  -28.4849 H   0  0  0  0  0  0  0  0  0  0  0  0
   -2.2543   19.9940  -30.7660 H   0  0  0  0  0  0  0  0  0  0  0  0
   -3.6242   20.3124  -29.6482 H   0  0  0  0  0  0  0  0  0  0  0  0
   -1.5330   24.8530  -29.7090 H   0  0  0  0  0  0  0  0  0  0  0  0
   -6.2600   25.0382  -29.5024 H   0  0  0  0  0  0  0  0  0  0  0  0
   -8.3090   23.9047  -31.1466 H   0  0  0  0  0  0  0  0  0  0  0  0
   -8.7602   22.0635  -32.7998 H   0  0  0  0  0  0  0  0  0  0  0  0
   -7.8660   20.1650  -34.1670 H   0  0  0  0  0  0  0  0  0  0  0  0
   -5.6907   19.0631  -34.8879 H   0  0  0  0  0  0  0  0  0  0  0  0
   -5.2027   19.1400  -33.1558 H   0  0  0  0  0  0  0  0  0  0  0  0
   -7.6729   17.6772  -34.2266 H   0  0  0  0  0  0  0  0  0  0  0  0
   -6.0628   16.9149  -33.7917 H   0  0  0  0  0  0  0  0  0  0  0  0
   -6.5563   17.7049  -30.1820 H   0  0  0  0  0  0  0  0  0  0  0  0
   -5.3326   17.0919  -31.3453 H   0  0  0  0  0  0  0  0  0  0  0  0
   -5.7794   18.8317  -31.3453 H   0  0  0  0  0  0  0  0  0  0  0  0
   -8.5610   18.3546  -30.7649 H   0  0  0  0  0  0  0  0  0  0  0  0
   -8.3813   19.2979  -32.2830 H   0  0  0  0  0  0  0  0  0  0  0  0
   -9.3199   17.7664  -32.2830 H   0  0  0  0  0  0  0  0  0  0  0  0
   -4.6494   20.6715  -32.3636 H   0  0  0  0  0  0  0  0  0  0  0  0
  1  2  1  0
  2  3  1  0
  3  4  1  0
  4  5  2  0
  4  6  1  0
  6  7  1  0
  7  8  2  0
  7  9  1  0
  9 10  1  0
 10 11  1  0
 11 12  1  0
 12 13  2  0
 12 14  1  0
 14 15  1  0
 15 16  1  0
 16 17  1  0
 16 18  2  0
 15 19  2  0
 19 20  1  0
 20 21  2  0
 21 22  1  0
 22 23  2  0
 23 24  1  0
 24 25  1  0
 25 26  1  0
 26 27  1  0
 27 28  1  0
 27 29  1  0
 23 30  1  0
 30 31  2  0
 31 14  1  0
 31 20  1  0
  1 32  1  0
  1 33  1  0
  1 34  1  0
  2 35  1  0
  2 36  1  0
  9 37  1  0
  9 38  1  0
 11 39  1  0
 11 40  1  0
 17 41  1  0
 19 42  1  0
 21 43  1  0
 22 44  1  0
 24 45  1  0
 25 46  1  0
 25 47  1  0
 26 48  1  0
 26 49  1  0
 28 50  1  0
 28 51  1  0
 28 52  1  0
 29 53  1  0
 29 54  1  0
 29 55  1  0
 30 56  1  0
M  CHG  1  17  -1
M  END
>  <UniqueID>  (80) 
79

>  <SMILES>  (80) 
CCOC(=O)OC(=O)COCC(=O)n1c(C([NH-])=O)cc2ccc(NCCN(C)C)cc21

>  <Energy>  (80) 
93.95513770369995

>  <Genealogy>  (80) 
CCOC(=O)OC(=O)COCC(=O)n1c(C([NH-])=O)cc2ccc(NCCN(C)C)cc21 (protonated)
CCOC(=O)OC(=O)COCC(=O)n1c(C([NH-])=O)cc2ccc(NCCN(C)C)cc21 (3D coordinates assigned)
CCOC(=O)OC(=O)COCC(=O)n1c(C([NH-])=O)cc2ccc(NCCN(C)C)cc21 (optimized conformer: 93.95513770369995 kcal/mol)

>  <smiles>  (80) 
CCOC(=O)OC(=O)COCC(=O)n1c(C(N)=O)cc2ccc(NCCN(C)C)cc21

>  <score_type>  (80) 
oracle

>  <origin>  (80) 
adg

>  <m_score__min__energy>  (80) 
-10.640000000000001

>  <m_primary>  (80) 
energy

$$$$
80:0
     RDKit          3D

 34 35  0  0  0  0  0  0  0  0999 V2000
   -3.7980   21.8000  -33.4080 C   0  0  0  0  0  0  0  0  0  0  0  0
   -3.2690   21.9090  -32.1900 C   0  0  0  0  0  0  0  0  0  0  0  0
   -4.0350   22.3890  -31.0260 C   0  0  0  0  0  0  0  0  0  0  0  0
   -3.4580   22.4760  -29.9090 O   0  0  0  0  0  0  0  0  0  0  0  0
   -5.4200   22.7550  -31.1330 N   0  0  0  0  0  0  0  0  0  0  0  0
   -5.9900   23.9510  -30.8210 C   0  0  0  0  0  0  0  0  0  0  0  0
   -5.2620   25.1670  -30.3990 C   0  0  0  0  0  0  0  0  0  0  0  0
   -3.8640   25.2820  -30.6500 N   0  0  0  0  0  0  0  0  0  0  0  0
   -5.8610   26.1020  -29.8050 O   0  0  0  0  0  0  0  0  0  0  0  0
   -7.3730   23.8920  -30.9920 C   0  0  0  0  0  0  0  0  0  0  0  0
   -7.6320   22.6070  -31.4140 C   0  0  0  0  0  0  0  0  0  0  0  0
   -8.8420   21.9890  -31.7170 C   0  0  0  0  0  0  0  0  0  0  0  0
   -8.8130   20.6380  -32.1010 C   0  0  0  0  0  0  0  0  0  0  0  0
   -7.5850   19.9320  -32.1710 C   0  0  0  0  0  0  0  0  0  0  0  0
   -7.5650   18.4760  -32.5570 C   0  0  0  0  0  0  0  0  0  0  0  0
   -6.1370   17.9410  -32.7610 C   0  0  0  0  0  0  0  0  0  0  0  0
   -5.5670   18.2230  -34.1570 C   0  0  0  0  0  0  0  0  0  0  0  0
   -5.8220   17.1400  -34.9780 F   0  0  0  0  0  0  0  0  0  0  0  0
   -6.1630   19.3420  -34.7070 F   0  0  0  0  0  0  0  0  0  0  0  0
   -4.1990   18.4180  -34.0900 F   0  0  0  0  0  0  0  0  0  0  0  0
   -6.3770   20.5930  -31.8520 C   0  0  0  0  0  0  0  0  0  0  0  0
   -6.4380   21.9410  -31.4860 C   0  0  0  0  0  0  0  0  0  0  0  0
   -3.1830   21.4360  -34.2442 H   0  0  0  0  0  0  0  0  0  0  0  0
   -4.8498   22.0740  -33.5774 H   0  0  0  0  0  0  0  0  0  0  0  0
   -2.2150   21.6286  -32.0470 H   0  0  0  0  0  0  0  0  0  0  0  0
   -3.4860   26.0490  -31.2490 H   0  0  0  0  0  0  0  0  0  0  0  0
   -8.1012   24.6994  -30.8254 H   0  0  0  0  0  0  0  0  0  0  0  0
   -9.7914   22.5414  -31.6576 H   0  0  0  0  0  0  0  0  0  0  0  0
   -9.7523   20.1225  -32.3499 H   0  0  0  0  0  0  0  0  0  0  0  0
   -8.0498   17.8929  -31.7601 H   0  0  0  0  0  0  0  0  0  0  0  0
   -8.0996   18.3760  -33.5132 H   0  0  0  0  0  0  0  0  0  0  0  0
   -5.4796   18.4125  -32.0156 H   0  0  0  0  0  0  0  0  0  0  0  0
   -6.1837   16.8479  -32.6474 H   0  0  0  0  0  0  0  0  0  0  0  0
   -5.4149   20.0612  -31.8907 H   0  0  0  0  0  0  0  0  0  0  0  0
  1  2  2  0
  2  3  1  0
  3  4  2  0
  3  5  1  0
  5  6  1  0
  6  7  1  0
  7  8  1  0
  7  9  2  0
  6 10  2  0
 10 11  1  0
 11 12  2  0
 12 13  1  0
 13 14  2  0
 14 15  1  0
 15 16  1  0
 16 17  1  0
 17 18  1  0
 17 19  1  0
 17 20  1  0
 14 21  1  0
 21 22  2  0
 22  5  1  0
 22 11  1  0
  1 23  1  0
  1 24  1  0
  2 25  1  0
  8 26  1  0
 10 27  1  0
 12 28  1  0
 13 29  1  0
 15 30  1  0
 15 31  1  0
 16 32  1  0
 16 33  1  0
 21 34  1  0
M  CHG  1   8  -1
M  END
>  <UniqueID>  (81) 
80

>  <SMILES>  (81) 
C=CC(=O)n1c(C([NH-])=O)cc2ccc(CCC(F)(F)F)cc21

>  <Energy>  (81) 
68.51698942025988

>  <Genealogy>  (81) 
C=CC(=O)n1c(C([NH-])=O)cc2ccc(CCC(F)(F)F)cc21 (protonated)
C=CC(=O)n1c(C([NH-])=O)cc2ccc(CCC(F)(F)F)cc21 (3D coordinates assigned)
C=CC(=O)n1c(C([NH-])=O)cc2ccc(CCC(F)(F)F)cc21 (optimized conformer: 68.51698942025988 kcal/mol)

>  <smiles>  (81) 
C=CC(=O)n1c(C(N)=O)cc2ccc(CCC(F)(F)F)cc21

>  <score_type>  (81) 
oracle

>  <origin>  (81) 
adg

>  <m_score__min__energy>  (81) 
-10.07

>  <m_primary>  (81) 
energy

$$$$
81:0
     RDKit          3D

 56 59  0  0  0  0  0  0  0  0999 V2000
   -3.6660   15.9180  -34.6960 C   0  0  0  0  0  0  0  0  0  0  0  0
   -3.7000   17.3760  -34.8990 N   0  0  0  0  0  0  0  0  0  0  0  0
   -3.2010   18.1200  -33.7190 C   0  0  0  0  0  0  0  0  0  0  0  0
   -4.3250   18.6000  -32.7780 C   0  0  0  0  0  0  0  0  0  0  0  0
   -5.4770   17.6880  -32.8620 N   0  0  0  0  0  0  0  0  0  0  0  0
   -6.4660   17.9860  -31.8020 C   0  0  0  0  0  0  0  0  0  0  0  0
   -7.6980   18.7040  -32.3690 C   0  0  0  0  0  0  0  0  0  0  0  0
   -7.6840   20.1740  -32.0330 C   0  0  0  0  0  0  0  0  0  0  0  0
   -8.9000   20.8870  -31.8870 C   0  0  0  0  0  0  0  0  0  0  0  0
   -8.8960   22.2470  -31.5310 C   0  0  0  0  0  0  0  0  0  0  0  0
   -7.6650   22.8620  -31.3230 C   0  0  0  0  0  0  0  0  0  0  0  0
   -7.3680   24.1630  -30.9800 C   0  0  0  0  0  0  0  0  0  0  0  0
   -5.9780   24.2160  -30.9050 C   0  0  0  0  0  0  0  0  0  0  0  0
   -5.2280   25.4150  -30.4730 C   0  0  0  0  0  0  0  0  0  0  0  0
   -3.8700   25.6090  -30.8590 N   0  0  0  0  0  0  0  0  0  0  0  0
   -5.7820   26.2590  -29.7200 O   0  0  0  0  0  0  0  0  0  0  0  0
   -5.4380   23.0010  -31.2010 N   0  0  0  0  0  0  0  0  0  0  0  0
   -4.0500   22.6500  -31.3040 C   0  0  0  0  0  0  0  0  0  0  0  0
   -3.2400   23.0700  -30.4350 O   0  0  0  0  0  0  0  0  0  0  0  0
   -3.5970   21.8290  -32.3930 N   0  0  0  0  0  0  0  0  0  0  0  0
   -2.2450   21.3660  -32.5450 C   0  0  0  0  0  0  0  0  0  0  0  0
   -1.4570   21.0230  -31.4330 C   0  0  0  0  0  0  0  0  0  0  0  0
   -0.1520   20.5520  -31.6100 C   0  0  0  0  0  0  0  0  0  0  0  0
    0.3720   20.4080  -32.8980 C   0  0  0  0  0  0  0  0  0  0  0  0
    1.6370   19.9510  -33.0660 F   0  0  0  0  0  0  0  0  0  0  0  0
   -0.4130   20.7260  -34.0110 C   0  0  0  0  0  0  0  0  0  0  0  0
    0.0890   20.5780  -35.2620 F   0  0  0  0  0  0  0  0  0  0  0  0
   -1.7190   21.1960  -33.8350 C   0  0  0  0  0  0  0  0  0  0  0  0
   -6.4820   22.1830  -31.4490 C   0  0  0  0  0  0  0  0  0  0  0  0
   -6.4530   20.8330  -31.8150 C   0  0  0  0  0  0  0  0  0  0  0  0
   -6.0880   17.7470  -34.2110 C   0  0  0  0  0  0  0  0  0  0  0  0
   -5.0300   17.8450  -35.3320 C   0  0  0  0  0  0  0  0  0  0  0  0
   -3.6609   15.6979  -33.6183 H   0  0  0  0  0  0  0  0  0  0  0  0
   -4.5538   15.4625  -35.1590 H   0  0  0  0  0  0  0  0  0  0  0  0
   -2.7580   15.5044  -35.1590 H   0  0  0  0  0  0  0  0  0  0  0  0
   -2.5277   17.4615  -33.1506 H   0  0  0  0  0  0  0  0  0  0  0  0
   -2.6861   19.0167  -34.0941 H   0  0  0  0  0  0  0  0  0  0  0  0
   -3.9506   18.6193  -31.7439 H   0  0  0  0  0  0  0  0  0  0  0  0
   -4.6414   19.6094  -33.0797 H   0  0  0  0  0  0  0  0  0  0  0  0
   -6.7853   17.0424  -31.3354 H   0  0  0  0  0  0  0  0  0  0  0  0
   -5.9909   18.6471  -31.0623 H   0  0  0  0  0  0  0  0  0  0  0  0
   -7.7079   18.5874  -33.4628 H   0  0  0  0  0  0  0  0  0  0  0  0
   -8.5962   18.2556  -31.9194 H   0  0  0  0  0  0  0  0  0  0  0  0
   -9.8570   20.3709  -32.0540 H   0  0  0  0  0  0  0  0  0  0  0  0
   -9.8361   22.8073  -31.4203 H   0  0  0  0  0  0  0  0  0  0  0  0
   -8.0774   24.9848  -30.8031 H   0  0  0  0  0  0  0  0  0  0  0  0
   -3.0870   25.2530  -30.2660 H   0  0  0  0  0  0  0  0  0  0  0  0
   -4.2730   21.6220  -33.1630 H   0  0  0  0  0  0  0  0  0  0  0  0
   -1.8687   21.1255  -30.4181 H   0  0  0  0  0  0  0  0  0  0  0  0
    0.4627   20.2946  -30.7348 H   0  0  0  0  0  0  0  0  0  0  0  0
   -2.3373   21.4337  -34.7131 H   0  0  0  0  0  0  0  0  0  0  0  0
   -5.4981   20.2991  -31.9299 H   0  0  0  0  0  0  0  0  0  0  0  0
   -6.6861   16.8373  -34.3681 H   0  0  0  0  0  0  0  0  0  0  0  0
   -6.7115   18.6520  -34.2578 H   0  0  0  0  0  0  0  0  0  0  0  0
   -5.3603   17.2311  -36.1829 H   0  0  0  0  0  0  0  0  0  0  0  0
   -4.9355   18.9053  -35.6094 H   0  0  0  0  0  0  0  0  0  0  0  0
  1  2  1  0
  2  3  1  0
  3  4  1  0
  4  5  1  0
  5  6  1  0
  6  7  1  0
  7  8  1  0
  8  9  2  0
  9 10  1  0
 10 11  2  0
 11 12  1  0
 12 13  2  0
 13 14  1  0
 14 15  1  0
 14 16  2  0
 13 17  1  0
 17 18  1  0
 18 19  2  0
 18 20  1  0
 20 21  1  0
 21 22  2  0
 22 23  1  0
 23 24  2  0
 24 25  1  0
 24 26  1  0
 26 27  1  0
 26 28  2  0
 17 29  1  0
 29 30  2  0
  5 31  1  0
 31 32  1  0
 32  2  1  0
 30  8  1  0
 29 11  1  0
 28 21  1  0
  1 33  1  0
  1 34  1  0
  1 35  1  0
  3 36  1  0
  3 37  1  0
  4 38  1  0
  4 39  1  0
  6 40  1  0
  6 41  1  0
  7 42  1  0
  7 43  1  0
  9 44  1  0
 10 45  1  0
 12 46  1  0
 15 47  1  0
 20 48  1  0
 22 49  1  0
 23 50  1  0
 28 51  1  0
 30 52  1  0
 31 53  1  0
 31 54  1  0
 32 55  1  0
 32 56  1  0
M  CHG  1  15  -1
M  END
>  <UniqueID>  (82) 
81

>  <SMILES>  (82) 
CN1CCN(CCc2ccc3cc(C([NH-])=O)n(C(=O)Nc4ccc(F)c(F)c4)c3c2)CC1

>  <Energy>  (82) 
110.17703011124772

>  <Genealogy>  (82) 
CN1CCN(CCc2ccc3cc(C([NH-])=O)n(C(=O)Nc4ccc(F)c(F)c4)c3c2)CC1 (protonated)
CN1CCN(CCc2ccc3cc(C([NH-])=O)n(C(=O)Nc4ccc(F)c(F)c4)c3c2)CC1 (3D coordinates assigned)
CN1CCN(CCc2ccc3cc(C([NH-])=O)n(C(=O)Nc4ccc(F)c(F)c4)c3c2)CC1 (nonaromatic ring conformer: 110.17703011124772 kcal/mol)

>  <smiles>  (82) 
CN1CCN(CCc2ccc3cc(C(N)=O)n(C(=O)Nc4ccc(F)c(F)c4)c3c2)CC1

>  <score_type>  (82) 
oracle

>  <origin>  (82) 
adg

>  <m_score__min__energy>  (82) 
-12.470000000000001

>  <m_primary>  (82) 
energy

$$$$
82:0
     RDKit          3D

 37 39  0  0  0  0  0  0  0  0999 V2000
   -3.8530   25.3460  -30.5550 N   0  0  0  0  0  0  0  0  0  0  0  0
   -5.2490   25.1590  -30.3370 C   0  0  0  0  0  0  0  0  0  0  0  0
   -5.9070   26.0610  -29.7510 O   0  0  0  0  0  0  0  0  0  0  0  0
   -5.9400   23.9420  -30.8140 C   0  0  0  0  0  0  0  0  0  0  0  0
   -7.3260   23.8300  -30.9130 C   0  0  0  0  0  0  0  0  0  0  0  0
   -7.5560   22.5820  -31.4490 C   0  0  0  0  0  0  0  0  0  0  0  0
   -8.7520   21.9490  -31.7690 C   0  0  0  0  0  0  0  0  0  0  0  0
   -8.6870   20.6510  -32.3070 C   0  0  0  0  0  0  0  0  0  0  0  0
   -7.4350   20.0080  -32.4990 C   0  0  0  0  0  0  0  0  0  0  0  0
   -7.3780   18.6850  -33.0740 N   0  0  0  0  0  0  0  0  0  0  0  0
   -6.2130   18.5310  -33.9610 C   0  0  0  0  0  0  0  0  0  0  0  0
   -5.8660   17.0560  -34.2210 C   0  0  0  0  0  0  0  0  0  0  0  0
   -6.7570   16.2210  -33.5350 O   0  0  0  0  0  0  0  0  0  0  0  0
   -6.2440   20.6840  -32.1520 C   0  0  0  0  0  0  0  0  0  0  0  0
   -6.3400   21.9850  -31.6480 C   0  0  0  0  0  0  0  0  0  0  0  0
   -5.3380   22.8080  -31.2700 N   0  0  0  0  0  0  0  0  0  0  0  0
   -3.9350   22.5060  -31.3000 C   0  0  0  0  0  0  0  0  0  0  0  0
   -3.3760   22.2580  -32.4030 O   0  0  0  0  0  0  0  0  0  0  0  0
   -3.1460   22.4910  -30.0550 C   0  0  0  0  0  0  0  0  0  0  0  0
   -3.7380   22.4750  -28.7700 C   0  0  0  0  0  0  0  0  0  0  0  0
   -2.8180   22.4560  -27.7310 C   0  0  0  0  0  0  0  0  0  0  0  0
   -1.3330   22.4660  -28.4840 S   0  0  0  0  0  0  0  0  0  0  0  0
   -1.7870   22.4940  -30.0800 N   0  0  0  0  0  0  0  0  0  0  0  0
   -3.5070   26.0380  -31.2560 H   0  0  0  0  0  0  0  0  0  0  0  0
   -8.0773   24.5798  -30.6241 H   0  0  0  0  0  0  0  0  0  0  0  0
   -9.7188   22.4478  -31.6065 H   0  0  0  0  0  0  0  0  0  0  0  0
   -9.6151   20.1285  -32.5819 H   0  0  0  0  0  0  0  0  0  0  0  0
   -7.3570   17.9570  -32.3230 H   0  0  0  0  0  0  0  0  0  0  0  0
   -8.2480   18.5220  -33.6340 H   0  0  0  0  0  0  0  0  0  0  0  0
   -6.4345   19.0167  -34.9228 H   0  0  0  0  0  0  0  0  0  0  0  0
   -5.3490   18.9965  -33.4642 H   0  0  0  0  0  0  0  0  0  0  0  0
   -5.9338   16.8515  -35.2997 H   0  0  0  0  0  0  0  0  0  0  0  0
   -4.8439   16.8597  -33.8649 H   0  0  0  0  0  0  0  0  0  0  0  0
   -6.5250   15.2900  -33.7850 H   0  0  0  0  0  0  0  0  0  0  0  0
   -5.2646   20.1987  -32.2753 H   0  0  0  0  0  0  0  0  0  0  0  0
   -4.8262   22.4774  -28.6094 H   0  0  0  0  0  0  0  0  0  0  0  0
   -3.0240   22.4383  -26.6506 H   0  0  0  0  0  0  0  0  0  0  0  0
  1  2  1  0
  2  3  2  0
  2  4  1  0
  4  5  2  0
  5  6  1  0
  6  7  2  0
  7  8  1  0
  8  9  2  0
  9 10  1  0
 10 11  1  0
 11 12  1  0
 12 13  1  0
  9 14  1  0
 14 15  2  0
 15 16  1  0
 16 17  1  0
 17 18  2  0
 17 19  1  0
 19 20  1  0
 20 21  2  0
 21 22  1  0
 22 23  1  0
 16  4  1  0
 23 19  2  0
 15  6  1  0
  1 24  1  0
  5 25  1  0
  7 26  1  0
  8 27  1  0
 10 28  1  0
 10 29  1  0
 11 30  1  0
 11 31  1  0
 12 32  1  0
 12 33  1  0
 13 34  1  0
 14 35  1  0
 20 36  1  0
 21 37  1  0
M  CHG  2   1  -1  10   1
M  END
>  <UniqueID>  (83) 
82

>  <SMILES>  (83) 
[NH-]C(=O)c1cc2ccc([NH2+]CCO)cc2n1C(=O)c1ccsn1

>  <Energy>  (83) 
108.32470826274941

>  <Genealogy>  (83) 
[NH-]C(=O)c1cc2ccc([NH2+]CCO)cc2n1C(=O)c1ccsn1 (protonated)
[NH-]C(=O)c1cc2ccc([NH2+]CCO)cc2n1C(=O)c1ccsn1 (3D coordinates assigned)
[NH-]C(=O)c1cc2ccc([NH2+]CCO)cc2n1C(=O)c1ccsn1 (optimized conformer: 108.32470826274941 kcal/mol)

>  <smiles>  (83) 
NC(=O)c1cc2ccc(NCCO)cc2n1C(=O)c1ccsn1

>  <score_type>  (83) 
oracle

>  <origin>  (83) 
adg

>  <m_score__min__energy>  (83) 
-9.8100000000000005

>  <m_primary>  (83) 
energy

$$$$
83:0
     RDKit          3D

 58 61  0  0  0  0  0  0  0  0999 V2000
   -4.0720   25.6250  -30.7970 N   0  0  0  0  0  0  0  0  0  0  0  0
   -5.2550   25.0500  -30.2510 C   0  0  0  0  0  0  0  0  0  0  0  0
   -5.8640   25.6430  -29.3250 O   0  0  0  0  0  0  0  0  0  0  0  0
   -5.7320   23.7410  -30.7380 C   0  0  0  0  0  0  0  0  0  0  0  0
   -7.0670   23.4570  -31.0170 C   0  0  0  0  0  0  0  0  0  0  0  0
   -7.0640   22.1850  -31.5440 C   0  0  0  0  0  0  0  0  0  0  0  0
   -8.1230   21.3950  -31.9830 C   0  0  0  0  0  0  0  0  0  0  0  0
   -7.8290   20.1070  -32.4570 C   0  0  0  0  0  0  0  0  0  0  0  0
   -6.4940   19.6290  -32.4790 C   0  0  0  0  0  0  0  0  0  0  0  0
   -6.2090   18.3120  -32.9800 N   0  0  0  0  0  0  0  0  0  0  0  0
   -6.1100   17.1760  -32.0540 C   0  0  0  0  0  0  0  0  0  0  0  0
   -5.4260   15.9830  -32.7390 C   0  0  0  0  0  0  0  0  0  0  0  0
   -4.3130   16.4400  -33.5830 N   0  0  0  0  0  0  0  0  0  0  0  0
   -4.7590   17.2980  -34.7010 C   0  0  0  0  0  0  0  0  0  0  0  0
   -6.0660   18.0660  -34.4170 C   0  0  0  0  0  0  0  0  0  0  0  0
   -5.4450   20.4610  -32.0240 C   0  0  0  0  0  0  0  0  0  0  0  0
   -5.7670   21.7440  -31.5680 C   0  0  0  0  0  0  0  0  0  0  0  0
   -4.9380   22.6860  -31.0690 N   0  0  0  0  0  0  0  0  0  0  0  0
   -3.5380   22.5400  -30.8060 C   0  0  0  0  0  0  0  0  0  0  0  0
   -2.7270   23.4120  -31.2210 O   0  0  0  0  0  0  0  0  0  0  0  0
   -3.0820   21.4050  -30.1210 O   0  0  0  0  0  0  0  0  0  0  0  0
   -3.4510   21.0800  -28.7790 C   0  0  0  0  0  0  0  0  0  0  0  0
   -2.2940   20.3760  -28.0690 C   0  0  0  0  0  0  0  0  0  0  0  0
   -1.2990   21.3890  -27.4800 C   0  0  0  0  0  0  0  0  0  0  0  0
   -1.5520   22.7470  -28.0100 N   0  0  0  0  0  0  0  0  0  0  0  0
   -0.2910   23.4940  -28.2020 C   0  0  0  0  0  0  0  0  0  0  0  0
   -0.5690   24.9710  -28.5500 C   0  0  0  0  0  0  0  0  0  0  0  0
   -1.9410   25.1890  -28.8050 O   0  0  0  0  0  0  0  0  0  0  0  0
   -2.6870   24.9230  -27.6310 C   0  0  0  0  0  0  0  0  0  0  0  0
   -2.4450   23.4940  -27.1030 C   0  0  0  0  0  0  0  0  0  0  0  0
   -3.1270   25.2970  -30.4960 H   0  0  0  0  0  0  0  0  0  0  0  0
   -7.9372   24.1093  -30.8517 H   0  0  0  0  0  0  0  0  0  0  0  0
   -9.1574   21.7684  -31.9591 H   0  0  0  0  0  0  0  0  0  0  0  0
   -8.6437   19.4607  -32.8156 H   0  0  0  0  0  0  0  0  0  0  0  0
   -5.5206   17.4756  -31.1749 H   0  0  0  0  0  0  0  0  0  0  0  0
   -7.1232   16.8775  -31.7468 H   0  0  0  0  0  0  0  0  0  0  0  0
   -5.0392   15.2978  -31.9703 H   0  0  0  0  0  0  0  0  0  0  0  0
   -6.1629   15.4672  -33.3722 H   0  0  0  0  0  0  0  0  0  0  0  0
   -3.6480   16.9830  -32.9810 H   0  0  0  0  0  0  0  0  0  0  0  0
   -3.9661   18.0304  -34.9131 H   0  0  0  0  0  0  0  0  0  0  0  0
   -4.9587   16.6326  -35.5539 H   0  0  0  0  0  0  0  0  0  0  0  0
   -6.0445   19.0283  -34.9495 H   0  0  0  0  0  0  0  0  0  0  0  0
   -6.9181   17.4627  -34.7633 H   0  0  0  0  0  0  0  0  0  0  0  0
   -4.4030   20.1087  -32.0284 H   0  0  0  0  0  0  0  0  0  0  0  0
   -3.7016   22.0039  -28.2372 H   0  0  0  0  0  0  0  0  0  0  0  0
   -4.3219   20.4084  -28.7988 H   0  0  0  0  0  0  0  0  0  0  0  0
   -2.6976   19.7558  -27.2551 H   0  0  0  0  0  0  0  0  0  0  0  0
   -1.7619   19.7553  -28.8050 H   0  0  0  0  0  0  0  0  0  0  0  0
   -1.4059   21.4040  -26.3853 H   0  0  0  0  0  0  0  0  0  0  0  0
   -0.2801   21.0857  -27.7625 H   0  0  0  0  0  0  0  0  0  0  0  0
    0.2987   23.4481  -27.2746 H   0  0  0  0  0  0  0  0  0  0  0  0
    0.2631   23.0367  -29.0350 H   0  0  0  0  0  0  0  0  0  0  0  0
   -0.2567   25.6029  -27.7055 H   0  0  0  0  0  0  0  0  0  0  0  0
   -0.0025   25.2263  -29.4577 H   0  0  0  0  0  0  0  0  0  0  0  0
   -2.3936   25.6433  -26.8531 H   0  0  0  0  0  0  0  0  0  0  0  0
   -3.7546   25.0171  -27.8786 H   0  0  0  0  0  0  0  0  0  0  0  0
   -1.9823   23.5507  -26.1066 H   0  0  0  0  0  0  0  0  0  0  0  0
   -3.4104   22.9697  -27.0462 H   0  0  0  0  0  0  0  0  0  0  0  0
  1  2  1  0
  2  3  2  0
  2  4  1  0
  4  5  2  0
  5  6  1  0
  6  7  2  0
  7  8  1  0
  8  9  2  0
  9 10  1  0
 10 11  1  0
 11 12  1  0
 12 13  1  0
 13 14  1  0
 14 15  1  0
  9 16  1  0
 16 17  2  0
 17 18  1  0
 18 19  1  0
 19 20  2  0
 19 21  1  0
 21 22  1  0
 22 23  1  0
 23 24  1  0
 24 25  1  0
 25 26  1  0
 26 27  1  0
 27 28  1  0
 28 29  1  0
 29 30  1  0
 18  4  1  0
 30 25  1  0
 17  6  1  0
 15 10  1  0
  1 31  1  0
  5 32  1  0
  7 33  1  0
  8 34  1  0
 11 35  1  0
 11 36  1  0
 12 37  1  0
 12 38  1  0
 13 39  1  0
 14 40  1  0
 14 41  1  0
 15 42  1  0
 15 43  1  0
 16 44  1  0
 22 45  1  0
 22 46  1  0
 23 47  1  0
 23 48  1  0
 24 49  1  0
 24 50  1  0
 26 51  1  0
 26 52  1  0
 27 53  1  0
 27 54  1  0
 29 55  1  0
 29 56  1  0
 30 57  1  0
 30 58  1  0
M  CHG  1   1  -1
M  END
>  <UniqueID>  (84) 
83

>  <SMILES>  (84) 
[NH-]C(=O)c1cc2ccc(N3CCNCC3)cc2n1C(=O)OCCCN1CCOCC1

>  <Energy>  (84) 
113.22291835899719

>  <Genealogy>  (84) 
[NH-]C(=O)c1cc2ccc(N3CCNCC3)cc2n1C(=O)OCCCN1CCOCC1 (protonated)
[NH-]C(=O)c1cc2ccc(N3CCNCC3)cc2n1C(=O)OCCCN1CCOCC1 (3D coordinates assigned)
[NH-]C(=O)c1cc2ccc(N3CCNCC3)cc2n1C(=O)OCCCN1CCOCC1 (nonaromatic ring conformer: 113.22291835899719 kcal/mol)

>  <smiles>  (84) 
NC(=O)c1cc2ccc(N3CCNCC3)cc2n1C(=O)OCCCN1CCOCC1

>  <score_type>  (84) 
oracle

>  <origin>  (84) 
adg

>  <m_score__min__energy>  (84) 
-11.140000000000001

>  <m_primary>  (84) 
energy

$$$$
84:0
     RDKit          3D

 40 41  0  0  0  0  0  0  0  0999 V2000
   -3.5170   24.5570  -26.8850 C   0  0  0  0  0  0  0  0  0  0  0  0
   -3.0610   24.7780  -28.2140 O   0  0  0  0  0  0  0  0  0  0  0  0
   -1.7040   24.8270  -28.5450 C   0  0  0  0  0  0  0  0  0  0  0  0
   -1.2380   25.7900  -29.2130 O   0  0  0  0  0  0  0  0  0  0  0  0
   -0.8080   23.6990  -28.1430 C   0  0  0  0  0  0  0  0  0  0  0  0
   -1.3780   22.3640  -28.6340 C   0  0  0  0  0  0  0  0  0  0  0  0
   -1.6830   22.3950  -30.1310 C   0  0  0  0  0  0  0  0  0  0  0  0
   -2.9140   23.0730  -30.3600 O   0  0  0  0  0  0  0  0  0  0  0  0
   -3.7990   22.7180  -31.3820 C   0  0  0  0  0  0  0  0  0  0  0  0
   -3.3600   22.2350  -32.4620 O   0  0  0  0  0  0  0  0  0  0  0  0
   -5.2090   22.9330  -31.2090 N   0  0  0  0  0  0  0  0  0  0  0  0
   -5.8330   24.0400  -30.7140 C   0  0  0  0  0  0  0  0  0  0  0  0
   -5.1910   25.3340  -30.3980 C   0  0  0  0  0  0  0  0  0  0  0  0
   -3.8690   25.6240  -30.8410 N   0  0  0  0  0  0  0  0  0  0  0  0
   -5.8390   26.2150  -29.7720 O   0  0  0  0  0  0  0  0  0  0  0  0
   -7.2050   23.8270  -30.6210 C   0  0  0  0  0  0  0  0  0  0  0  0
   -7.4100   22.5490  -31.0890 C   0  0  0  0  0  0  0  0  0  0  0  0
   -8.5870   21.8170  -31.2060 C   0  0  0  0  0  0  0  0  0  0  0  0
   -8.5000   20.5040  -31.6970 C   0  0  0  0  0  0  0  0  0  0  0  0
   -7.2480   19.9500  -32.0700 C   0  0  0  0  0  0  0  0  0  0  0  0
   -7.1600   18.5200  -32.5400 C   0  0  0  0  0  0  0  0  0  0  0  0
   -8.3810   17.9020  -32.3490 F   0  0  0  0  0  0  0  0  0  0  0  0
   -6.1920   17.8320  -31.8280 F   0  0  0  0  0  0  0  0  0  0  0  0
   -6.8310   18.4660  -33.8830 F   0  0  0  0  0  0  0  0  0  0  0  0
   -6.0720   20.7180  -31.9110 C   0  0  0  0  0  0  0  0  0  0  0  0
   -6.1890   22.0310  -31.4390 C   0  0  0  0  0  0  0  0  0  0  0  0
   -2.7625   24.9227  -26.1729 H   0  0  0  0  0  0  0  0  0  0  0  0
   -4.4623   25.0969  -26.7271 H   0  0  0  0  0  0  0  0  0  0  0  0
   -3.6789   23.4805  -26.7271 H   0  0  0  0  0  0  0  0  0  0  0  0
    0.1880   23.8522  -28.5841 H   0  0  0  0  0  0  0  0  0  0  0  0
   -0.7353   23.6743  -27.0457 H   0  0  0  0  0  0  0  0  0  0  0  0
   -0.6440   21.5689  -28.4363 H   0  0  0  0  0  0  0  0  0  0  0  0
   -2.3190   22.1750  -28.0966 H   0  0  0  0  0  0  0  0  0  0  0  0
   -0.8732   22.9212  -30.6576 H   0  0  0  0  0  0  0  0  0  0  0  0
   -1.7617   21.3640  -30.5064 H   0  0  0  0  0  0  0  0  0  0  0  0
   -3.0380   25.2810  -30.3100 H   0  0  0  0  0  0  0  0  0  0  0  0
   -7.9650   24.5312  -30.2516 H   0  0  0  0  0  0  0  0  0  0  0  0
   -9.5563   22.2531  -30.9226 H   0  0  0  0  0  0  0  0  0  0  0  0
   -9.4130   19.8981  -31.7935 H   0  0  0  0  0  0  0  0  0  0  0  0
   -5.0865   20.2934  -32.1528 H   0  0  0  0  0  0  0  0  0  0  0  0
  1  2  1  0
  2  3  1  0
  3  4  2  0
  3  5  1  0
  5  6  1  0
  6  7  1  0
  7  8  1  0
  8  9  1  0
  9 10  2  0
  9 11  1  0
 11 12  1  0
 12 13  1  0
 13 14  1  0
 13 15  2  0
 12 16  2  0
 16 17  1  0
 17 18  2  0
 18 19  1  0
 19 20  2  0
 20 21  1  0
 21 22  1  0
 21 23  1  0
 21 24  1  0
 20 25  1  0
 25 26  2  0
 26 11  1  0
 26 17  1  0
  1 27  1  0
  1 28  1  0
  1 29  1  0
  5 30  1  0
  5 31  1  0
  6 32  1  0
  6 33  1  0
  7 34  1  0
  7 35  1  0
 14 36  1  0
 16 37  1  0
 18 38  1  0
 19 39  1  0
 25 40  1  0
M  CHG  1  14  -1
M  END
>  <UniqueID>  (85) 
84

>  <SMILES>  (85) 
COC(=O)CCCOC(=O)n1c(C([NH-])=O)cc2ccc(C(F)(F)F)cc21

>  <Energy>  (85) 
69.76886201816906

>  <Genealogy>  (85) 
COC(=O)CCCOC(=O)n1c(C([NH-])=O)cc2ccc(C(F)(F)F)cc21 (protonated)
COC(=O)CCCOC(=O)n1c(C([NH-])=O)cc2ccc(C(F)(F)F)cc21 (3D coordinates assigned)
COC(=O)CCCOC(=O)n1c(C([NH-])=O)cc2ccc(C(F)(F)F)cc21 (optimized conformer: 69.76886201816906 kcal/mol)

>  <smiles>  (85) 
COC(=O)CCCOC(=O)n1c(C(N)=O)cc2ccc(C(F)(F)F)cc21

>  <score_type>  (85) 
oracle

>  <origin>  (85) 
adg

>  <m_score__min__energy>  (85) 
-10.19

>  <m_primary>  (85) 
energy

$$$$
85:0
     RDKit          3D

 31 33  0  0  0  0  0  0  0  0999 V2000
   -1.5900   26.0540  -28.9410 N   0  0  0  0  0  0  0  0  0  0  0  0
   -0.8210   24.8610  -28.8270 C   0  0  0  0  0  0  0  0  0  0  0  0
    0.2480   24.8770  -28.1590 O   0  0  0  0  0  0  0  0  0  0  0  0
   -1.2250   23.6250  -29.5290 C   0  0  0  0  0  0  0  0  0  0  0  0
   -0.3560   22.5640  -29.7730 C   0  0  0  0  0  0  0  0  0  0  0  0
   -1.0800   21.6640  -30.5200 C   0  0  0  0  0  0  0  0  0  0  0  0
   -0.7110   20.4240  -31.0300 C   0  0  0  0  0  0  0  0  0  0  0  0
   -1.6730   19.6900  -31.7420 C   0  0  0  0  0  0  0  0  0  0  0  0
   -2.9860   20.1990  -31.9270 C   0  0  0  0  0  0  0  0  0  0  0  0
   -3.9990   19.4100  -32.6720 C   0  0  0  0  0  0  0  0  0  0  0  0
   -5.3250   19.3270  -32.2060 C   0  0  0  0  0  0  0  0  0  0  0  0
   -6.2760   18.5820  -32.9100 C   0  0  0  0  0  0  0  0  0  0  0  0
   -5.9190   17.9130  -34.0820 C   0  0  0  0  0  0  0  0  0  0  0  0
   -6.8460   17.1930  -34.7600 F   0  0  0  0  0  0  0  0  0  0  0  0
   -4.6050   17.9870  -34.5540 C   0  0  0  0  0  0  0  0  0  0  0  0
   -4.2530   17.3330  -35.6890 F   0  0  0  0  0  0  0  0  0  0  0  0
   -3.6490   18.7310  -33.8550 C   0  0  0  0  0  0  0  0  0  0  0  0
   -3.3200   21.4660  -31.3910 C   0  0  0  0  0  0  0  0  0  0  0  0
   -2.3350   22.1830  -30.7020 C   0  0  0  0  0  0  0  0  0  0  0  0
   -2.4410   23.3870  -30.0960 N   0  0  0  0  0  0  0  0  0  0  0  0
   -3.6300   24.1880  -29.9930 C   0  0  0  0  0  0  0  0  0  0  0  0
   -3.7230   25.2730  -30.6250 O   0  0  0  0  0  0  0  0  0  0  0  0
   -4.7000   23.7590  -29.2170 O   0  0  0  0  0  0  0  0  0  0  0  0
   -2.6330   26.0180  -28.9820 H   0  0  0  0  0  0  0  0  0  0  0  0
    0.6876   22.4666  -29.4392 H   0  0  0  0  0  0  0  0  0  0  0  0
    0.3049   20.0298  -30.8800 H   0  0  0  0  0  0  0  0  0  0  0  0
   -1.4066   18.7087  -32.1617 H   0  0  0  0  0  0  0  0  0  0  0  0
   -5.6144   19.8510  -31.2832 H   0  0  0  0  0  0  0  0  0  0  0  0
   -7.3098   18.5228  -32.5388 H   0  0  0  0  0  0  0  0  0  0  0  0
   -2.6170   18.7861  -34.2318 H   0  0  0  0  0  0  0  0  0  0  0  0
   -4.3324   21.8783  -31.5134 H   0  0  0  0  0  0  0  0  0  0  0  0
  1  2  1  0
  2  3  2  0
  2  4  1  0
  4  5  2  0
  5  6  1  0
  6  7  2  0
  7  8  1  0
  8  9  2  0
  9 10  1  0
 10 11  2  0
 11 12  1  0
 12 13  2  0
 13 14  1  0
 13 15  1  0
 15 16  1  0
 15 17  2  0
  9 18  1  0
 18 19  2  0
 19 20  1  0
 20 21  1  0
 21 22  2  0
 21 23  1  0
 20  4  1  0
 19  6  1  0
 17 10  1  0
  1 24  1  0
  5 25  1  0
  7 26  1  0
  8 27  1  0
 11 28  1  0
 12 29  1  0
 17 30  1  0
 18 31  1  0
M  CHG  2   1  -1  23  -1
M  END
>  <UniqueID>  (86) 
85

>  <SMILES>  (86) 
[NH-]C(=O)c1cc2ccc(-c3ccc(F)c(F)c3)cc2n1C(=O)[O-]

>  <Energy>  (86) 
79.34784620778508

>  <Genealogy>  (86) 
[NH-]C(=O)c1cc2ccc(-c3ccc(F)c(F)c3)cc2n1C(=O)[O-] (protonated)
[NH-]C(=O)c1cc2ccc(-c3ccc(F)c(F)c3)cc2n1C(=O)[O-] (3D coordinates assigned)
[NH-]C(=O)c1cc2ccc(-c3ccc(F)c(F)c3)cc2n1C(=O)[O-] (optimized conformer: 79.34784620778508 kcal/mol)

>  <smiles>  (86) 
NC(=O)c1cc2ccc(-c3ccc(F)c(F)c3)cc2n1C(=O)O

>  <score_type>  (86) 
oracle

>  <origin>  (86) 
adg

>  <m_score__min__energy>  (86) 
-10.970000000000001

>  <m_primary>  (86) 
energy

$$$$
86:0
     RDKit          3D

 42 44  0  0  0  0  0  0  0  0999 V2000
   -3.6890   25.3000  -30.4670 N   0  0  0  0  0  0  0  0  0  0  0  0
   -5.1060   25.3190  -30.6220 C   0  0  0  0  0  0  0  0  0  0  0  0
   -5.7360   26.3870  -30.3990 O   0  0  0  0  0  0  0  0  0  0  0  0
   -5.8460   24.0960  -30.9960 C   0  0  0  0  0  0  0  0  0  0  0  0
   -7.2370   24.0260  -31.0620 C   0  0  0  0  0  0  0  0  0  0  0  0
   -7.5230   22.7080  -31.3440 C   0  0  0  0  0  0  0  0  0  0  0  0
   -8.7500   22.0720  -31.5170 C   0  0  0  0  0  0  0  0  0  0  0  0
   -8.7430   20.6980  -31.8120 C   0  0  0  0  0  0  0  0  0  0  0  0
   -7.5190   19.9920  -31.9350 C   0  0  0  0  0  0  0  0  0  0  0  0
   -7.5280   18.5140  -32.2310 C   0  0  0  0  0  0  0  0  0  0  0  0
   -6.1300   17.9860  -32.5750 C   0  0  0  0  0  0  0  0  0  0  0  0
   -5.4760   18.7100  -34.0750 S   0  0  0  0  0  0  0  0  0  0  0  0
   -6.4760   19.6680  -34.6580 O   0  0  0  0  0  0  0  0  0  0  0  0
   -4.2120   19.4540  -33.7530 O   0  0  0  0  0  0  0  0  0  0  0  0
   -5.1370   17.5040  -35.1960 O   0  0  0  0  0  0  0  0  0  0  0  0
   -6.2950   20.6710  -31.7530 C   0  0  0  0  0  0  0  0  0  0  0  0
   -6.3340   22.0350  -31.4450 C   0  0  0  0  0  0  0  0  0  0  0  0
   -5.2970   22.8730  -31.2390 N   0  0  0  0  0  0  0  0  0  0  0  0
   -3.9070   22.5290  -31.3300 C   0  0  0  0  0  0  0  0  0  0  0  0
   -3.1130   22.9210  -30.4320 O   0  0  0  0  0  0  0  0  0  0  0  0
   -3.4330   21.7450  -32.4370 N   0  0  0  0  0  0  0  0  0  0  0  0
   -2.0800   21.2830  -32.5770 C   0  0  0  0  0  0  0  0  0  0  0  0
   -1.3260   20.8690  -31.4630 C   0  0  0  0  0  0  0  0  0  0  0  0
   -0.0190   20.4000  -31.6320 C   0  0  0  0  0  0  0  0  0  0  0  0
    0.5390   20.3280  -32.9110 C   0  0  0  0  0  0  0  0  0  0  0  0
   -0.2100   20.7150  -34.0240 C   0  0  0  0  0  0  0  0  0  0  0  0
   -1.5180   21.1830  -33.8590 C   0  0  0  0  0  0  0  0  0  0  0  0
   -3.0710   24.9350  -31.2250 H   0  0  0  0  0  0  0  0  0  0  0  0
   -7.9537   24.8482  -30.9193 H   0  0  0  0  0  0  0  0  0  0  0  0
   -9.6949   22.6278  -31.4256 H   0  0  0  0  0  0  0  0  0  0  0  0
   -9.6956   20.1652  -31.9488 H   0  0  0  0  0  0  0  0  0  0  0  0
   -7.9021   17.9774  -31.3466 H   0  0  0  0  0  0  0  0  0  0  0  0
   -8.1771   18.3472  -33.1032 H   0  0  0  0  0  0  0  0  0  0  0  0
   -5.4493   18.2212  -31.7435 H   0  0  0  0  0  0  0  0  0  0  0  0
   -6.2119   16.9008  -32.7350 H   0  0  0  0  0  0  0  0  0  0  0  0
   -5.3358   20.1416  -31.8508 H   0  0  0  0  0  0  0  0  0  0  0  0
   -4.0940   21.5660  -33.2260 H   0  0  0  0  0  0  0  0  0  0  0  0
   -1.7660   20.9144  -30.4559 H   0  0  0  0  0  0  0  0  0  0  0  0
    0.5701   20.0876  -30.7571 H   0  0  0  0  0  0  0  0  0  0  0  0
    1.5695   19.9660  -33.0412 H   0  0  0  0  0  0  0  0  0  0  0  0
    0.2285   20.6519  -35.0308 H   0  0  0  0  0  0  0  0  0  0  0  0
   -2.1095   21.4744  -34.7395 H   0  0  0  0  0  0  0  0  0  0  0  0
  1  2  1  0
  2  3  2  0
  2  4  1  0
  4  5  2  0
  5  6  1  0
  6  7  2  0
  7  8  1  0
  8  9  2  0
  9 10  1  0
 10 11  1  0
 11 12  1  0
 12 13  2  0
 12 14  2  0
 12 15  1  0
  9 16  1  0
 16 17  2  0
 17 18  1  0
 18 19  1  0
 19 20  2  0
 19 21  1  0
 21 22  1  0
 22 23  2  0
 23 24  1  0
 24 25  2  0
 25 26  1  0
 26 27  2  0
 18  4  1  0
 27 22  1  0
 17  6  1  0
  1 28  1  0
  5 29  1  0
  7 30  1  0
  8 31  1  0
 10 32  1  0
 10 33  1  0
 11 34  1  0
 11 35  1  0
 16 36  1  0
 21 37  1  0
 23 38  1  0
 24 39  1  0
 25 40  1  0
 26 41  1  0
 27 42  1  0
M  CHG  2   1  -1  15  -1
M  END
>  <UniqueID>  (87) 
86

>  <SMILES>  (87) 
[NH-]C(=O)c1cc2ccc(CCS(=O)(=O)[O-])cc2n1C(=O)Nc1ccccc1

>  <Energy>  (87) 
81.26516964210415

>  <Genealogy>  (87) 
[NH-]C(=O)c1cc2ccc(CCS(=O)(=O)[O-])cc2n1C(=O)Nc1ccccc1 (protonated)
[NH-]C(=O)c1cc2ccc(CCS(=O)(=O)[O-])cc2n1C(=O)Nc1ccccc1 (3D coordinates assigned)
[NH-]C(=O)c1cc2ccc(CCS(=O)(=O)[O-])cc2n1C(=O)Nc1ccccc1 (optimized conformer: 81.26516964210415 kcal/mol)

>  <smiles>  (87) 
NC(=O)c1cc2ccc(CCS(=O)(=O)O)cc2n1C(=O)Nc1ccccc1

>  <score_type>  (87) 
oracle

>  <origin>  (87) 
adg

>  <m_score__min__energy>  (87) 
-11.859999999999999

>  <m_primary>  (87) 
energy

$$$$
87:0
     RDKit          3D

 34 36  0  0  0  0  0  0  0  0999 V2000
   -1.4460   25.8730  -28.9760 N   0  0  0  0  0  0  0  0  0  0  0  0
   -0.9160   24.5490  -29.0040 C   0  0  0  0  0  0  0  0  0  0  0  0
    0.0390   24.2520  -28.2400 O   0  0  0  0  0  0  0  0  0  0  0  0
   -1.5220   23.5330  -29.8900 C   0  0  0  0  0  0  0  0  0  0  0  0
   -0.8220   22.4370  -30.3910 C   0  0  0  0  0  0  0  0  0  0  0  0
   -1.7010   21.7960  -31.2320 C   0  0  0  0  0  0  0  0  0  0  0  0
   -1.5330   20.6380  -31.9850 C   0  0  0  0  0  0  0  0  0  0  0  0
   -2.6250   20.1820  -32.7420 C   0  0  0  0  0  0  0  0  0  0  0  0
   -3.8560   20.8860  -32.7320 C   0  0  0  0  0  0  0  0  0  0  0  0
   -5.0320   20.3540  -33.5060 C   0  0  0  0  0  0  0  0  0  0  0  0
   -5.2620   18.9370  -33.1740 N   0  0  0  0  0  0  0  0  0  0  0  0
   -6.1730   18.6280  -32.1990 C   0  0  0  0  0  0  0  0  0  0  0  0
   -6.4470   17.3000  -31.8760 C   0  0  0  0  0  0  0  0  0  0  0  0
   -5.7900   16.2790  -32.5570 C   0  0  0  0  0  0  0  0  0  0  0  0
   -4.8690   16.5930  -33.5560 C   0  0  0  0  0  0  0  0  0  0  0  0
   -3.8890   15.0260  -34.5870 I   0  0  0  0  0  0  0  0  0  0  0  0
   -4.6140   17.9380  -33.8600 C   0  0  0  0  0  0  0  0  0  0  0  0
   -3.7830   18.2180  -34.7670 O   0  0  0  0  0  0  0  0  0  0  0  0
   -3.9900   22.0550  -31.9500 C   0  0  0  0  0  0  0  0  0  0  0  0
   -2.8800   22.4960  -31.2180 C   0  0  0  0  0  0  0  0  0  0  0  0
   -2.7880   23.5650  -30.3950 N   0  0  0  0  0  0  0  0  0  0  0  0
   -3.8420   24.4850  -30.0690 C   0  0  0  0  0  0  0  0  0  0  0  0
   -3.8760   25.6260  -30.6000 O   0  0  0  0  0  0  0  0  0  0  0  0
   -4.8510   24.1160  -29.1880 O   0  0  0  0  0  0  0  0  0  0  0  0
   -2.4770   26.0380  -28.9700 H   0  0  0  0  0  0  0  0  0  0  0  0
    0.2139   22.1464  -30.1622 H   0  0  0  0  0  0  0  0  0  0  0  0
   -0.5754   20.0967  -31.9874 H   0  0  0  0  0  0  0  0  0  0  0  0
   -2.5242   19.2699  -33.3485 H   0  0  0  0  0  0  0  0  0  0  0  0
   -5.9289   20.9371  -33.2502 H   0  0  0  0  0  0  0  0  0  0  0  0
   -4.8215   20.4404  -34.5822 H   0  0  0  0  0  0  0  0  0  0  0  0
   -6.6940   19.4365  -31.6652 H   0  0  0  0  0  0  0  0  0  0  0  0
   -7.1770   17.0606  -31.0888 H   0  0  0  0  0  0  0  0  0  0  0  0
   -5.9967   15.2277  -32.3079 H   0  0  0  0  0  0  0  0  0  0  0  0
   -4.9420   22.6051  -31.9168 H   0  0  0  0  0  0  0  0  0  0  0  0
  1  2  1  0
  2  3  2  0
  2  4  1  0
  4  5  2  0
  5  6  1  0
  6  7  2  0
  7  8  1  0
  8  9  2  0
  9 10  1  0
 10 11  1  0
 11 12  1  0
 12 13  2  0
 13 14  1  0
 14 15  2  0
 15 16  1  0
 15 17  1  0
 17 18  2  0
  9 19  1  0
 19 20  2  0
 20 21  1  0
 21 22  1  0
 22 23  2  0
 22 24  1  0
 21  4  1  0
 20  6  1  0
 17 11  1  0
  1 25  1  0
  5 26  1  0
  7 27  1  0
  8 28  1  0
 10 29  1  0
 10 30  1  0
 12 31  1  0
 13 32  1  0
 14 33  1  0
 19 34  1  0
M  CHG  2   1  -1  24  -1
M  END
>  <UniqueID>  (88) 
87

>  <SMILES>  (88) 
[NH-]C(=O)c1cc2ccc(Cn3cccc(I)c3=O)cc2n1C(=O)[O-]

>  <Energy>  (88) 
77.91225281332687

>  <Genealogy>  (88) 
[NH-]C(=O)c1cc2ccc(Cn3cccc(I)c3=O)cc2n1C(=O)[O-] (protonated)
[NH-]C(=O)c1cc2ccc(Cn3cccc(I)c3=O)cc2n1C(=O)[O-] (3D coordinates assigned)
[NH-]C(=O)c1cc2ccc(Cn3cccc(I)c3=O)cc2n1C(=O)[O-] (optimized conformer: 77.91225281332687 kcal/mol)

>  <smiles>  (88) 
NC(=O)c1cc2ccc(Cn3cccc(I)c3=O)cc2n1C(=O)O

>  <score_type>  (88) 
oracle

>  <origin>  (88) 
adg

>  <m_score__min__energy>  (88) 
-12.82

>  <m_primary>  (88) 
energy

$$$$
88:0
     RDKit          3D

 36 37  0  0  0  0  0  0  0  0999 V2000
   -3.2880   18.9270  -33.7300 C   0  0  0  0  0  0  0  0  0  0  0  0
   -3.6550   17.5360  -34.2300 C   0  0  0  0  0  0  0  0  0  0  0  0
   -5.0620   17.3210  -34.1350 O   0  0  0  0  0  0  0  0  0  0  0  0
   -5.9950   18.3590  -34.0440 C   0  0  0  0  0  0  0  0  0  0  0  0
   -6.1200   19.1930  -34.9830 O   0  0  0  0  0  0  0  0  0  0  0  0
   -6.8920   18.4300  -32.8370 C   0  0  1  0  0  0  0  0  0  0  0  0
   -6.4040   17.5170  -31.7050 C   0  0  0  0  0  0  0  0  0  0  0  0
   -7.0380   19.8620  -32.3660 C   0  0  0  0  0  0  0  0  0  0  0  0
   -8.3310   20.4300  -32.2260 C   0  0  0  0  0  0  0  0  0  0  0  0
   -8.4900   21.7600  -31.8020 C   0  0  0  0  0  0  0  0  0  0  0  0
   -7.3450   22.4970  -31.5190 C   0  0  0  0  0  0  0  0  0  0  0  0
   -7.2130   23.8060  -31.1190 C   0  0  0  0  0  0  0  0  0  0  0  0
   -5.8410   24.0180  -30.9950 C   0  0  0  0  0  0  0  0  0  0  0  0
   -5.2560   25.2800  -30.4970 C   0  0  0  0  0  0  0  0  0  0  0  0
   -3.9290   25.6620  -30.8470 N   0  0  0  0  0  0  0  0  0  0  0  0
   -5.9200   26.0060  -29.7100 O   0  0  0  0  0  0  0  0  0  0  0  0
   -5.1510   22.8850  -31.3140 N   0  0  0  0  0  0  0  0  0  0  0  0
   -3.7270   22.7220  -31.4050 C   0  0  0  0  0  0  0  0  0  0  0  0
   -2.9800   23.1320  -30.4780 O   0  0  0  0  0  0  0  0  0  0  0  0
   -3.1620   22.0850  -32.5040 O   0  0  0  0  0  0  0  0  0  0  0  0
   -6.0870   21.9620  -31.6300 C   0  0  0  0  0  0  0  0  0  0  0  0
   -5.8980   20.6470  -32.0680 C   0  0  0  0  0  0  0  0  0  0  0  0
   -3.2865   18.9327  -32.6300 H   0  0  0  0  0  0  0  0  0  0  0  0
   -2.2878   19.1974  -34.0994 H   0  0  0  0  0  0  0  0  0  0  0  0
   -4.0246   19.6556  -34.0994 H   0  0  0  0  0  0  0  0  0  0  0  0
   -3.3446   17.4364  -35.2806 H   0  0  0  0  0  0  0  0  0  0  0  0
   -3.1403   16.7892  -33.6075 H   0  0  0  0  0  0  0  0  0  0  0  0
   -7.8843   18.0620  -33.1370 H   0  0  0  0  0  0  0  0  0  0  0  0
   -6.6481   17.9737  -30.7345 H   0  0  0  0  0  0  0  0  0  0  0  0
   -6.8991   16.5379  -31.7844 H   0  0  0  0  0  0  0  0  0  0  0  0
   -5.3149   17.3847  -31.7844 H   0  0  0  0  0  0  0  0  0  0  0  0
   -9.2192   19.8218  -32.4521 H   0  0  0  0  0  0  0  0  0  0  0  0
   -9.4904   22.2052  -31.6970 H   0  0  0  0  0  0  0  0  0  0  0  0
   -8.0191   24.5317  -30.9358 H   0  0  0  0  0  0  0  0  0  0  0  0
   -3.1070   25.2870  -30.3260 H   0  0  0  0  0  0  0  0  0  0  0  0
   -4.8854   20.2317  -32.1785 H   0  0  0  0  0  0  0  0  0  0  0  0
  1  2  1  0
  2  3  1  0
  3  4  1  0
  4  5  2  0
  4  6  1  0
  6  7  1  0
  6  8  1  0
  8  9  2  0
  9 10  1  0
 10 11  2  0
 11 12  1  0
 12 13  2  0
 13 14  1  0
 14 15  1  0
 14 16  2  0
 13 17  1  0
 17 18  1  0
 18 19  2  0
 18 20  1  0
 17 21  1  0
 21 22  2  0
 22  8  1  0
 21 11  1  0
  1 23  1  0
  1 24  1  0
  1 25  1  0
  2 26  1  0
  2 27  1  0
  6 28  1  6
  7 29  1  0
  7 30  1  0
  7 31  1  0
  9 32  1  0
 10 33  1  0
 12 34  1  0
 15 35  1  0
 22 36  1  0
M  CHG  2  15  -1  20  -1
M  END
>  <UniqueID>  (89) 
88

>  <SMILES>  (89) 
CCOC(=O)[C@@H](C)c1ccc2cc(C([NH-])=O)n(C(=O)[O-])c2c1

>  <Energy>  (89) 
70.2590517669402

>  <Genealogy>  (89) 
CCOC(=O)C(C)c1ccc2cc(C([NH-])=O)n(C(=O)[O-])c2c1 (protonated)
CCOC(=O)[C@@H](C)c1ccc2cc(C([NH-])=O)n(C(=O)[O-])c2c1 (chirality)
CCOC(=O)[C@@H](C)c1ccc2cc(C([NH-])=O)n(C(=O)[O-])c2c1 (3D coordinates assigned)
CCOC(=O)[C@@H](C)c1ccc2cc(C([NH-])=O)n(C(=O)[O-])c2c1 (optimized conformer: 70.2590517669402 kcal/mol)

>  <smiles>  (89) 
CCOC(=O)C(C)c1ccc2cc(C(N)=O)n(C(=O)O)c2c1

>  <score_type>  (89) 
oracle

>  <origin>  (89) 
adg

>  <m_score__min__energy>  (89) 
-10.859999999999999

>  <m_primary>  (89) 
energy

$$$$
89:0
     RDKit          3D

 41 43  0  0  0  0  0  0  0  0999 V2000
   -5.6930   15.9290  -33.5440 C   0  0  0  0  0  0  0  0  0  0  0  0
   -6.2520   16.9670  -34.3390 O   0  0  0  0  0  0  0  0  0  0  0  0
   -6.4650   18.2580  -33.8460 C   0  0  0  0  0  0  0  0  0  0  0  0
   -6.1190   19.2690  -34.5170 O   0  0  0  0  0  0  0  0  0  0  0  0
   -7.0650   18.4380  -32.4900 C   0  0  0  0  0  0  0  0  0  0  0  0
   -7.1790   19.9010  -32.1680 C   0  0  0  0  0  0  0  0  0  0  0  0
   -8.4410   20.5470  -32.2250 C   0  0  0  0  0  0  0  0  0  0  0  0
   -8.5640   21.9080  -31.8990 C   0  0  0  0  0  0  0  0  0  0  0  0
   -7.4160   22.5910  -31.5090 C   0  0  0  0  0  0  0  0  0  0  0  0
   -7.2420   23.9120  -31.1550 C   0  0  0  0  0  0  0  0  0  0  0  0
   -5.8830   24.0410  -30.8660 C   0  0  0  0  0  0  0  0  0  0  0  0
   -5.2570   25.2970  -30.4040 C   0  0  0  0  0  0  0  0  0  0  0  0
   -3.9540   25.6690  -30.8440 N   0  0  0  0  0  0  0  0  0  0  0  0
   -5.8690   26.0390  -29.5920 O   0  0  0  0  0  0  0  0  0  0  0  0
   -5.2480   22.8500  -31.0410 N   0  0  0  0  0  0  0  0  0  0  0  0
   -3.8480   22.5620  -30.9150 C   0  0  0  0  0  0  0  0  0  0  0  0
   -3.1640   22.3840  -31.9590 O   0  0  0  0  0  0  0  0  0  0  0  0
   -3.1960   22.5210  -29.5480 C   0  0  0  0  0  0  0  0  0  0  0  0
   -3.7940   23.3610  -28.4040 C   0  0  0  0  0  0  0  0  0  0  0  0
   -3.2590   24.6560  -28.4190 O   0  0  0  0  0  0  0  0  0  0  0  0
   -1.6780   22.3540  -29.5150 C   0  0  0  0  0  0  0  0  0  0  0  0
   -2.5830   21.1850  -29.1460 C   0  0  0  0  0  0  0  0  0  0  0  0
   -6.1960   21.9750  -31.4300 C   0  0  0  0  0  0  0  0  0  0  0  0
   -6.0390   20.6250  -31.7560 C   0  0  0  0  0  0  0  0  0  0  0  0
   -5.8238   16.1718  -32.4791 H   0  0  0  0  0  0  0  0  0  0  0  0
   -6.2022   14.9802  -33.7689 H   0  0  0  0  0  0  0  0  0  0  0  0
   -4.6206   15.8319  -33.7689 H   0  0  0  0  0  0  0  0  0  0  0  0
   -8.0658   17.9819  -32.4712 H   0  0  0  0  0  0  0  0  0  0  0  0
   -6.4197   17.9533  -31.7426 H   0  0  0  0  0  0  0  0  0  0  0  0
   -9.3317   19.9767  -32.5274 H   0  0  0  0  0  0  0  0  0  0  0  0
   -9.5374   22.4178  -31.9504 H   0  0  0  0  0  0  0  0  0  0  0  0
   -8.0109   24.6973  -31.1100 H   0  0  0  0  0  0  0  0  0  0  0  0
   -3.1000   25.3010  -30.3680 H   0  0  0  0  0  0  0  0  0  0  0  0
   -4.8855   23.4181  -28.5282 H   0  0  0  0  0  0  0  0  0  0  0  0
   -3.5478   22.8838  -27.4439 H   0  0  0  0  0  0  0  0  0  0  0  0
   -3.9870   25.2590  -28.7180 H   0  0  0  0  0  0  0  0  0  0  0  0
   -1.1063   22.3320  -30.4545 H   0  0  0  0  0  0  0  0  0  0  0  0
   -0.8476   22.8810  -29.0224 H   0  0  0  0  0  0  0  0  0  0  0  0
   -2.6636   20.3187  -29.8190 H   0  0  0  0  0  0  0  0  0  0  0  0
   -2.6752   20.5184  -28.2759 H   0  0  0  0  0  0  0  0  0  0  0  0
   -5.0539   20.1397  -31.6933 H   0  0  0  0  0  0  0  0  0  0  0  0
  1  2  1  0
  2  3  1  0
  3  4  2  0
  3  5  1  0
  5  6  1  0
  6  7  2  0
  7  8  1  0
  8  9  2  0
  9 10  1  0
 10 11  2  0
 11 12  1  0
 12 13  1  0
 12 14  2  0
 11 15  1  0
 15 16  1  0
 16 17  2  0
 16 18  1  0
 18 19  1  0
 19 20  1  0
 18 21  1  0
 21 22  1  0
 15 23  1  0
 23 24  2  0
 24  6  1  0
 23  9  1  0
 22 18  1  0
  1 25  1  0
  1 26  1  0
  1 27  1  0
  5 28  1  0
  5 29  1  0
  7 30  1  0
  8 31  1  0
 10 32  1  0
 13 33  1  0
 19 34  1  0
 19 35  1  0
 20 36  1  0
 21 37  1  0
 21 38  1  0
 22 39  1  0
 22 40  1  0
 24 41  1  0
M  CHG  1  13  -1
M  END
>  <UniqueID>  (90) 
89

>  <SMILES>  (90) 
COC(=O)Cc1ccc2cc(C([NH-])=O)n(C(=O)C3(CO)CC3)c2c1

>  <Energy>  (90) 
344.0999326051958

>  <Genealogy>  (90) 
COC(=O)Cc1ccc2cc(C([NH-])=O)n(C(=O)C3(CO)CC3)c2c1 (protonated)
COC(=O)Cc1ccc2cc(C([NH-])=O)n(C(=O)C3(CO)CC3)c2c1 (3D coordinates assigned)
COC(=O)Cc1ccc2cc(C([NH-])=O)n(C(=O)C3(CO)CC3)c2c1 (nonaromatic ring conformer: 344.0999326051958 kcal/mol)

>  <smiles>  (90) 
COC(=O)Cc1ccc2cc(C(N)=O)n(C(=O)C3(CO)CC3)c2c1

>  <score_type>  (90) 
oracle

>  <origin>  (90) 
adg

>  <m_score__min__energy>  (90) 
-10.75

>  <m_primary>  (90) 
energy

$$$$
90:0
     RDKit          3D

 55 57  0  0  0  0  0  0  0  0999 V2000
   -8.3290   20.5170  -31.9610 C   0  0  0  0  0  0  0  0  0  0  0  0
   -7.7730   19.9900  -33.1600 O   0  0  0  0  0  0  0  0  0  0  0  0
   -6.8310   18.9490  -33.2060 C   0  0  0  0  0  0  0  0  0  0  0  0
   -6.1020   18.7630  -34.3880 C   0  0  0  0  0  0  0  0  0  0  0  0
   -5.1560   17.7380  -34.4860 C   0  0  0  0  0  0  0  0  0  0  0  0
   -4.9350   16.8740  -33.4010 C   0  0  0  0  0  0  0  0  0  0  0  0
   -3.8880   15.8040  -33.4980 C   0  0  0  0  0  0  0  0  0  0  0  0
   -2.6240   16.3690  -33.1770 O   0  0  0  0  0  0  0  0  0  0  0  0
   -1.4400   15.9920  -33.8190 C   0  0  0  0  0  0  0  0  0  0  0  0
   -1.4750   15.5590  -35.0040 O   0  0  0  0  0  0  0  0  0  0  0  0
   -0.1770   16.1120  -33.1330 N   0  0  0  0  0  0  0  0  0  0  0  0
    0.6160   14.9090  -32.8690 C   0  0  0  0  0  0  0  0  0  0  0  0
    0.3540   17.4310  -32.7530 C   0  0  0  0  0  0  0  0  0  0  0  0
   -0.5030   18.5620  -33.3360 C   0  0  0  0  0  0  0  0  0  0  0  0
   -0.6610   19.6660  -32.3850 N   0  0  0  0  0  0  0  0  0  0  0  0
   -1.8520   20.4700  -32.3110 C   0  0  0  0  0  0  0  0  0  0  0  0
   -2.9630   20.1290  -33.1210 C   0  0  0  0  0  0  0  0  0  0  0  0
   -4.1300   20.9080  -33.1060 C   0  0  0  0  0  0  0  0  0  0  0  0
   -4.1640   22.0140  -32.2620 C   0  0  0  0  0  0  0  0  0  0  0  0
   -5.1610   22.9420  -32.0640 C   0  0  0  0  0  0  0  0  0  0  0  0
   -4.6540   23.8250  -31.1190 C   0  0  0  0  0  0  0  0  0  0  0  0
   -5.4210   24.9530  -30.5730 C   0  0  0  0  0  0  0  0  0  0  0  0
   -4.8320   26.2450  -30.4590 N   0  0  0  0  0  0  0  0  0  0  0  0
   -6.6190   24.7790  -30.2340 O   0  0  0  0  0  0  0  0  0  0  0  0
   -3.4050   23.4540  -30.7240 N   0  0  0  0  0  0  0  0  0  0  0  0
   -2.6150   24.0390  -29.6720 C   0  0  0  0  0  0  0  0  0  0  0  0
   -2.6340   25.2830  -29.4740 O   0  0  0  0  0  0  0  0  0  0  0  0
   -1.7800   23.2480  -28.8900 O   0  0  0  0  0  0  0  0  0  0  0  0
   -3.1170   22.3410  -31.4420 C   0  0  0  0  0  0  0  0  0  0  0  0
   -1.9320   21.5930  -31.4540 C   0  0  0  0  0  0  0  0  0  0  0  0
   -5.6480   17.0710  -32.2090 C   0  0  0  0  0  0  0  0  0  0  0  0
   -6.5940   18.0970  -32.1100 C   0  0  0  0  0  0  0  0  0  0  0  0
   -7.8380   20.0516  -31.0936 H   0  0  0  0  0  0  0  0  0  0  0  0
   -8.1716   21.6053  -31.9312 H   0  0  0  0  0  0  0  0  0  0  0  0
   -9.4073   20.3016  -31.9312 H   0  0  0  0  0  0  0  0  0  0  0  0
   -6.2754   19.4290  -35.2461 H   0  0  0  0  0  0  0  0  0  0  0  0
   -4.5830   17.6079  -35.4159 H   0  0  0  0  0  0  0  0  0  0  0  0
   -4.1209   14.9938  -32.7914 H   0  0  0  0  0  0  0  0  0  0  0  0
   -3.8658   15.3945  -34.5187 H   0  0  0  0  0  0  0  0  0  0  0  0
    0.7116   14.7639  -31.7828 H   0  0  0  0  0  0  0  0  0  0  0  0
    0.1161   14.0355  -33.3130 H   0  0  0  0  0  0  0  0  0  0  0  0
    1.6158   15.0242  -33.3130 H   0  0  0  0  0  0  0  0  0  0  0  0
    0.3592   17.5134  -31.6561 H   0  0  0  0  0  0  0  0  0  0  0  0
    1.3743   17.5247  -33.1534 H   0  0  0  0  0  0  0  0  0  0  0  0
   -0.0190   18.9428  -34.2474 H   0  0  0  0  0  0  0  0  0  0  0  0
   -1.5006   18.1564  -33.5603 H   0  0  0  0  0  0  0  0  0  0  0  0
    0.0900   19.8480  -31.6830 H   0  0  0  0  0  0  0  0  0  0  0  0
   -2.9102   19.2424  -33.7699 H   0  0  0  0  0  0  0  0  0  0  0  0
   -4.9909   20.6525  -33.7413 H   0  0  0  0  0  0  0  0  0  0  0  0
   -6.1473   22.9769  -32.5497 H   0  0  0  0  0  0  0  0  0  0  0  0
   -3.8630   26.4210  -30.8120 H   0  0  0  0  0  0  0  0  0  0  0  0
   -5.3740   27.0370  -30.0480 H   0  0  0  0  0  0  0  0  0  0  0  0
   -1.0836   21.8725  -30.8120 H   0  0  0  0  0  0  0  0  0  0  0  0
   -5.4620   16.4143  -31.3463 H   0  0  0  0  0  0  0  0  0  0  0  0
   -7.1540   18.2385  -31.1739 H   0  0  0  0  0  0  0  0  0  0  0  0
  1  2  1  0
  2  3  1  0
  3  4  2  0
  4  5  1  0
  5  6  2  0
  6  7  1  0
  7  8  1  0
  8  9  1  0
  9 10  2  0
  9 11  1  0
 11 12  1  0
 11 13  1  0
 13 14  1  0
 14 15  1  0
 15 16  1  0
 16 17  2  0
 17 18  1  0
 18 19  2  0
 19 20  1  0
 20 21  2  0
 21 22  1  0
 22 23  1  0
 22 24  2  0
 21 25  1  0
 25 26  1  0
 26 27  2  0
 26 28  1  0
 25 29  1  0
 29 30  2  0
  6 31  1  0
 31 32  2  0
 32  3  1  0
 30 16  1  0
 29 19  1  0
  1 33  1  0
  1 34  1  0
  1 35  1  0
  4 36  1  0
  5 37  1  0
  7 38  1  0
  7 39  1  0
 12 40  1  0
 12 41  1  0
 12 42  1  0
 13 43  1  0
 13 44  1  0
 14 45  1  0
 14 46  1  0
 15 47  1  0
 17 48  1  0
 18 49  1  0
 20 50  1  0
 23 51  1  0
 23 52  1  0
 30 53  1  0
 31 54  1  0
 32 55  1  0
M  CHG  1  28  -1
M  END
>  <UniqueID>  (91) 
90

>  <SMILES>  (91) 
COc1ccc(COC(=O)N(C)CCNc2ccc3cc(C(N)=O)n(C(=O)[O-])c3c2)cc1

>  <Energy>  (91) 
91.67579464905863

>  <Genealogy>  (91) 
COc1ccc(COC(=O)N(C)CCNc2ccc3cc(C(N)=O)n(C(=O)[O-])c3c2)cc1 (protonated)
COc1ccc(COC(=O)N(C)CCNc2ccc3cc(C(N)=O)n(C(=O)[O-])c3c2)cc1 (3D coordinates assigned)
COc1ccc(COC(=O)N(C)CCNc2ccc3cc(C(N)=O)n(C(=O)[O-])c3c2)cc1 (optimized conformer: 91.67579464905863 kcal/mol)

>  <smiles>  (91) 
COc1ccc(COC(=O)N(C)CCNc2ccc3cc(C(N)=O)n(C(=O)O)c3c2)cc1

>  <score_type>  (91) 
oracle

>  <origin>  (91) 
adg

>  <m_score__min__energy>  (91) 
-9.5099999999999998

>  <m_primary>  (91) 
energy

$$$$
91:0
     RDKit          3D

 33 35  0  0  0  0  0  0  0  0999 V2000
   -1.6230   25.9660  -28.6580 N   0  0  0  0  0  0  0  0  0  0  0  0
   -0.8810   24.7640  -28.8420 C   0  0  0  0  0  0  0  0  0  0  0  0
    0.3070   24.7010  -28.4250 O   0  0  0  0  0  0  0  0  0  0  0  0
   -1.4640   23.6130  -29.5650 C   0  0  0  0  0  0  0  0  0  0  0  0
   -0.7460   22.4620  -29.8750 C   0  0  0  0  0  0  0  0  0  0  0  0
   -1.6040   21.6860  -30.6190 C   0  0  0  0  0  0  0  0  0  0  0  0
   -1.4130   20.4300  -31.1810 C   0  0  0  0  0  0  0  0  0  0  0  0
   -2.4840   19.8480  -31.8780 C   0  0  0  0  0  0  0  0  0  0  0  0
   -3.7320   20.5210  -31.9970 C   0  0  0  0  0  0  0  0  0  0  0  0
   -4.8330   19.9070  -32.7080 N   0  0  0  0  0  0  0  0  0  0  0  0
   -4.6680   18.9820  -33.8200 C   0  0  0  0  0  0  0  0  0  0  0  0
   -6.0670   18.7270  -34.3630 C   0  0  0  0  0  0  0  0  0  0  0  0
   -7.0240   19.1710  -33.2630 C   0  0  0  0  0  0  0  0  0  0  0  0
   -6.2340   20.1410  -32.3950 C   0  0  0  0  0  0  0  0  0  0  0  0
   -3.8810   21.8010  -31.4060 C   0  0  0  0  0  0  0  0  0  0  0  0
   -2.7890   22.3640  -30.7350 C   0  0  0  0  0  0  0  0  0  0  0  0
   -2.7200   23.5500  -30.0900 N   0  0  0  0  0  0  0  0  0  0  0  0
   -3.7930   24.4900  -29.9150 C   0  0  0  0  0  0  0  0  0  0  0  0
   -4.6670   24.3000  -29.0290 O   0  0  0  0  0  0  0  0  0  0  0  0
   -3.8590   25.6330  -30.7020 O   0  0  0  0  0  0  0  0  0  0  0  0
   -2.6190   26.0350  -28.9610 H   0  0  0  0  0  0  0  0  0  0  0  0
    0.2883   22.2234  -29.5863 H   0  0  0  0  0  0  0  0  0  0  0  0
   -0.4505   19.9065  -31.0828 H   0  0  0  0  0  0  0  0  0  0  0  0
   -2.3564   18.8573  -32.3388 H   0  0  0  0  0  0  0  0  0  0  0  0
   -4.0314   19.4288  -34.5979 H   0  0  0  0  0  0  0  0  0  0  0  0
   -4.1832   18.0481  -33.4994 H   0  0  0  0  0  0  0  0  0  0  0  0
   -6.2360   19.3136  -35.2781 H   0  0  0  0  0  0  0  0  0  0  0  0
   -6.2137   17.6690  -34.6259 H   0  0  0  0  0  0  0  0  0  0  0  0
   -7.9013   19.6725  -33.6975 H   0  0  0  0  0  0  0  0  0  0  0  0
   -7.3965   18.3159  -32.6799 H   0  0  0  0  0  0  0  0  0  0  0  0
   -6.5107   21.1789  -32.6321 H   0  0  0  0  0  0  0  0  0  0  0  0
   -6.4400   19.9854  -31.3257 H   0  0  0  0  0  0  0  0  0  0  0  0
   -4.8366   22.3416  -31.4734 H   0  0  0  0  0  0  0  0  0  0  0  0
  1  2  1  0
  2  3  2  0
  2  4  1  0
  4  5  2  0
  5  6  1  0
  6  7  2  0
  7  8  1  0
  8  9  2  0
  9 10  1  0
 10 11  1  0
 11 12  1  0
 12 13  1  0
 13 14  1  0
  9 15  1  0
 15 16  2  0
 16 17  1  0
 17 18  1  0
 18 19  2  0
 18 20  1  0
 17  4  1  0
 16  6  1  0
 14 10  1  0
  1 21  1  0
  5 22  1  0
  7 23  1  0
  8 24  1  0
 11 25  1  0
 11 26  1  0
 12 27  1  0
 12 28  1  0
 13 29  1  0
 13 30  1  0
 14 31  1  0
 14 32  1  0
 15 33  1  0
M  CHG  2   1  -1  20  -1
M  END
>  <UniqueID>  (92) 
91

>  <SMILES>  (92) 
[NH-]C(=O)c1cc2ccc(N3CCCC3)cc2n1C(=O)[O-]

>  <Energy>  (92) 
75.58262908845263

>  <Genealogy>  (92) 
[NH-]C(=O)c1cc2ccc(N3CCCC3)cc2n1C(=O)[O-] (protonated)
[NH-]C(=O)c1cc2ccc(N3CCCC3)cc2n1C(=O)[O-] (3D coordinates assigned)
[NH-]C(=O)c1cc2ccc(N3CCCC3)cc2n1C(=O)[O-] (nonaromatic ring conformer: 75.58262908845263 kcal/mol)

>  <smiles>  (92) 
NC(=O)c1cc2ccc(N3CCCC3)cc2n1C(=O)O

>  <score_type>  (92) 
oracle

>  <origin>  (92) 
adg

>  <m_score__min__energy>  (92) 
-10.970000000000001

>  <m_primary>  (92) 
energy

$$$$
92:0
     RDKit          3D

 50 52  0  0  0  0  0  0  0  0999 V2000
   -6.8950   14.5530  -34.2230 C   0  0  0  0  0  0  0  0  0  0  0  0
   -5.8630   15.5110  -33.7920 N   0  0  0  0  0  0  0  0  0  0  0  0
   -4.9780   14.8820  -32.7880 C   0  0  0  0  0  0  0  0  0  0  0  0
   -6.4720   16.7530  -33.2610 C   0  0  0  0  0  0  0  0  0  0  0  0
   -5.7370   18.0450  -33.7370 C   0  0  0  0  0  0  0  0  0  0  0  0
   -6.0620   19.3680  -33.0200 C   0  0  0  0  0  0  0  0  0  0  0  0
   -7.4230   19.7810  -32.8820 C   0  0  0  0  0  0  0  0  0  0  0  0
   -7.7600   20.9730  -32.2210 C   0  0  0  0  0  0  0  0  0  0  0  0
   -6.7260   21.7610  -31.7270 C   0  0  0  0  0  0  0  0  0  0  0  0
   -6.7690   22.9690  -31.0640 C   0  0  0  0  0  0  0  0  0  0  0  0
   -5.4350   23.3270  -30.8600 C   0  0  0  0  0  0  0  0  0  0  0  0
   -5.0010   24.6160  -30.2780 C   0  0  0  0  0  0  0  0  0  0  0  0
   -5.6650   25.1610  -29.1350 N   0  0  0  0  0  0  0  0  0  0  0  0
   -4.0500   25.2560  -30.7960 O   0  0  0  0  0  0  0  0  0  0  0  0
   -4.6060   22.3700  -31.3680 N   0  0  0  0  0  0  0  0  0  0  0  0
   -3.1690   22.3780  -31.4210 C   0  0  0  0  0  0  0  0  0  0  0  0
   -2.5860   21.9600  -32.4570 O   0  0  0  0  0  0  0  0  0  0  0  0
   -2.3620   22.8180  -30.2730 C   0  0  0  0  0  0  0  0  0  0  0  0
   -1.1300   23.0440  -30.4160 O   0  0  0  0  0  0  0  0  0  0  0  0
   -2.9960   23.0190  -29.0040 N   0  0  0  0  0  0  0  0  0  0  0  0
   -2.2860   23.4170  -27.7910 C   0  0  0  0  0  0  0  0  0  0  0  0
   -2.1840   24.9410  -27.7080 C   0  0  0  0  0  0  0  0  0  0  0  0
   -2.0000   25.4840  -28.9900 O   0  0  0  0  0  0  0  0  0  0  0  0
   -5.4140   21.4210  -31.8920 C   0  0  0  0  0  0  0  0  0  0  0  0
   -5.0440   20.2300  -32.5220 C   0  0  0  0  0  0  0  0  0  0  0  0
   -5.7360   18.2100  -35.2640 C   0  0  0  0  0  0  0  0  0  0  0  0
   -4.4300   17.8830  -34.5470 C   0  0  0  0  0  0  0  0  0  0  0  0
   -7.3744   14.1080  -33.3386 H   0  0  0  0  0  0  0  0  0  0  0  0
   -7.6518   15.0760  -34.8262 H   0  0  0  0  0  0  0  0  0  0  0  0
   -6.4297   13.7595  -34.8262 H   0  0  0  0  0  0  0  0  0  0  0  0
   -5.3325   15.1339  -31.7776 H   0  0  0  0  0  0  0  0  0  0  0  0
   -4.9919   13.7900  -32.9198 H   0  0  0  0  0  0  0  0  0  0  0  0
   -3.9513   15.2542  -32.9198 H   0  0  0  0  0  0  0  0  0  0  0  0
   -7.5185   16.8014  -33.5965 H   0  0  0  0  0  0  0  0  0  0  0  0
   -6.3934   16.7150  -32.1645 H   0  0  0  0  0  0  0  0  0  0  0  0
   -8.2224   19.1527  -33.3019 H   0  0  0  0  0  0  0  0  0  0  0  0
   -8.8106   21.2746  -32.0975 H   0  0  0  0  0  0  0  0  0  0  0  0
   -7.6642   23.5314  -30.7602 H   0  0  0  0  0  0  0  0  0  0  0  0
   -5.3850   26.0970  -28.7650 H   0  0  0  0  0  0  0  0  0  0  0  0
   -6.4350   24.6440  -28.6580 H   0  0  0  0  0  0  0  0  0  0  0  0
   -2.8313   23.0419  -26.9124 H   0  0  0  0  0  0  0  0  0  0  0  0
   -1.2715   22.9925  -27.8161 H   0  0  0  0  0  0  0  0  0  0  0  0
   -3.1098   25.3442  -27.2718 H   0  0  0  0  0  0  0  0  0  0  0  0
   -1.3242   25.2099  -27.0768 H   0  0  0  0  0  0  0  0  0  0  0  0
   -2.2500   24.7720  -29.6390 H   0  0  0  0  0  0  0  0  0  0  0  0
   -3.9827   19.9624  -32.6316 H   0  0  0  0  0  0  0  0  0  0  0  0
   -6.2183   17.4511  -35.8976 H   0  0  0  0  0  0  0  0  0  0  0  0
   -6.0615   18.9996  -35.9572 H   0  0  0  0  0  0  0  0  0  0  0  0
   -3.9736   16.8887  -34.6616 H   0  0  0  0  0  0  0  0  0  0  0  0
   -3.4292   18.3378  -34.5078 H   0  0  0  0  0  0  0  0  0  0  0  0
  1  2  1  0
  2  3  1  0
  2  4  1  0
  4  5  1  0
  5  6  1  0
  6  7  2  0
  7  8  1  0
  8  9  2  0
  9 10  1  0
 10 11  2  0
 11 12  1  0
 12 13  1  0
 12 14  2  0
 11 15  1  0
 15 16  1  0
 16 17  2  0
 16 18  1  0
 18 19  2  0
 18 20  1  0
 20 21  1  0
 21 22  1  0
 22 23  1  0
 15 24  1  0
 24 25  2  0
  5 26  1  0
 26 27  1  0
 27  5  1  0
 25  6  1  0
 24  9  1  0
  1 28  1  0
  1 29  1  0
  1 30  1  0
  3 31  1  0
  3 32  1  0
  3 33  1  0
  4 34  1  0
  4 35  1  0
  7 36  1  0
  8 37  1  0
 10 38  1  0
 13 39  1  0
 13 40  1  0
 21 41  1  0
 21 42  1  0
 22 43  1  0
 22 44  1  0
 23 45  1  0
 25 46  1  0
 26 47  1  0
 26 48  1  0
 27 49  1  0
 27 50  1  0
M  CHG  1  20  -1
M  END
>  <UniqueID>  (93) 
92

>  <SMILES>  (93) 
CN(C)CC1(c2ccc3cc(C(N)=O)n(C(=O)C(=O)[N-]CCO)c3c2)CC1

>  <Energy>  (93) 
362.37065895243427

>  <Genealogy>  (93) 
CN(C)CC1(c2ccc3cc(C(N)=O)n(C(=O)C(=O)[N-]CCO)c3c2)CC1 (protonated)
CN(C)CC1(c2ccc3cc(C(N)=O)n(C(=O)C(=O)[N-]CCO)c3c2)CC1 (3D coordinates assigned)
CN(C)CC1(c2ccc3cc(C(N)=O)n(C(=O)C(=O)[N-]CCO)c3c2)CC1 (nonaromatic ring conformer: 362.37065895243427 kcal/mol)

>  <smiles>  (93) 
CN(C)CC1(c2ccc3cc(C(N)=O)n(C(=O)C(=O)NCCO)c3c2)CC1

>  <score_type>  (93) 
oracle

>  <origin>  (93) 
adg

>  <m_score__min__energy>  (93) 
-10.66

>  <m_primary>  (93) 
energy

$$$$
93:0
     RDKit          3D

 38 40  0  0  0  0  0  0  0  0999 V2000
   -5.7960   25.2170  -29.0150 N   0  0  0  0  0  0  0  0  0  0  0  0
   -5.2700   24.6650  -30.2230 C   0  0  0  0  0  0  0  0  0  0  0  0
   -4.3730   25.2950  -30.8470 O   0  0  0  0  0  0  0  0  0  0  0  0
   -5.7850   23.3980  -30.7810 C   0  0  0  0  0  0  0  0  0  0  0  0
   -7.1380   23.1390  -30.9850 C   0  0  0  0  0  0  0  0  0  0  0  0
   -7.1880   21.8800  -31.5350 C   0  0  0  0  0  0  0  0  0  0  0  0
   -8.2810   21.1430  -31.9800 C   0  0  0  0  0  0  0  0  0  0  0  0
   -8.0370   19.8930  -32.5720 C   0  0  0  0  0  0  0  0  0  0  0  0
   -6.7120   19.4010  -32.7080 C   0  0  0  0  0  0  0  0  0  0  0  0
   -6.4570   18.0880  -33.4040 C   0  0  0  0  0  0  0  0  0  0  0  0
   -6.1050   18.3320  -34.7190 F   0  0  0  0  0  0  0  0  0  0  0  0
   -5.4300   17.3980  -32.7830 F   0  0  0  0  0  0  0  0  0  0  0  0
   -7.5890   17.2930  -33.3800 F   0  0  0  0  0  0  0  0  0  0  0  0
   -5.6270   20.1960  -32.2710 C   0  0  0  0  0  0  0  0  0  0  0  0
   -5.9020   21.4220  -31.6570 C   0  0  0  0  0  0  0  0  0  0  0  0
   -5.0280   22.3400  -31.1860 N   0  0  0  0  0  0  0  0  0  0  0  0
   -3.5930   22.2830  -31.2640 C   0  0  0  0  0  0  0  0  0  0  0  0
   -3.0420   22.3180  -32.3980 O   0  0  0  0  0  0  0  0  0  0  0  0
   -2.7380   22.1440  -30.0220 C   0  0  2  0  0  0  0  0  0  0  0  0
   -3.3160   22.9010  -28.8080 C   0  0  0  0  0  0  0  0  0  0  0  0
   -2.2280   23.0130  -27.7440 C   0  0  0  0  0  0  0  0  0  0  0  0
   -0.7070   23.0750  -28.6400 S   0  0  0  0  0  0  0  0  0  0  0  0
   -0.1060   24.4520  -28.6160 O   0  0  0  0  0  0  0  0  0  0  0  0
    0.2740   22.0550  -28.1340 O   0  0  0  0  0  0  0  0  0  0  0  0
   -1.3090   22.6570  -30.2470 C   0  0  0  0  0  0  0  0  0  0  0  0
   -5.3690   26.0770  -28.6050 H   0  0  0  0  0  0  0  0  0  0  0  0
   -6.6700   24.8450  -28.5870 H   0  0  0  0  0  0  0  0  0  0  0  0
   -7.9860   23.8008  -30.7551 H   0  0  0  0  0  0  0  0  0  0  0  0
   -9.3057   21.5279  -31.8714 H   0  0  0  0  0  0  0  0  0  0  0  0
   -8.8816   19.2885  -32.9343 H   0  0  0  0  0  0  0  0  0  0  0  0
   -4.5898   19.8575  -32.4110 H   0  0  0  0  0  0  0  0  0  0  0  0
   -2.7283   21.0647  -29.8100 H   0  0  0  0  0  0  0  0  0  0  0  0
   -3.6379   23.9065  -29.1167 H   0  0  0  0  0  0  0  0  0  0  0  0
   -4.1836   22.3587  -28.4041 H   0  0  0  0  0  0  0  0  0  0  0  0
   -2.3629   23.9286  -27.1495 H   0  0  0  0  0  0  0  0  0  0  0  0
   -2.2550   22.1694  -27.0385 H   0  0  0  0  0  0  0  0  0  0  0  0
   -1.3157   23.5431  -30.8987 H   0  0  0  0  0  0  0  0  0  0  0  0
   -0.6756   21.9048  -30.7399 H   0  0  0  0  0  0  0  0  0  0  0  0
  1  2  1  0
  2  3  2  0
  2  4  1  0
  4  5  2  0
  5  6  1  0
  6  7  2  0
  7  8  1  0
  8  9  2  0
  9 10  1  0
 10 11  1  0
 10 12  1  0
 10 13  1  0
  9 14  1  0
 14 15  2  0
 15 16  1  0
 16 17  1  0
 17 18  2  0
 17 19  1  0
 19 20  1  0
 20 21  1  0
 21 22  1  0
 22 23  2  0
 22 24  2  0
 22 25  1  0
 16  4  1  0
 25 19  1  0
 15  6  1  0
  1 26  1  0
  1 27  1  0
  5 28  1  0
  7 29  1  0
  8 30  1  0
 14 31  1  0
 19 32  1  1
 20 33  1  0
 20 34  1  0
 21 35  1  0
 21 36  1  0
 25 37  1  0
 25 38  1  0
M  END
>  <UniqueID>  (94) 
93

>  <SMILES>  (94) 
NC(=O)c1cc2ccc(C(F)(F)F)cc2n1C(=O)[C@@H]1CCS(=O)(=O)C1

>  <Energy>  (94) 
78.14286968802021

>  <Genealogy>  (94) 
NC(=O)c1cc2ccc(C(F)(F)F)cc2n1C(=O)[C@@H]1CCS(=O)(=O)C1 (3D coordinates assigned)
NC(=O)c1cc2ccc(C(F)(F)F)cc2n1C(=O)[C@@H]1CCS(=O)(=O)C1 (nonaromatic ring conformer: 78.14286968802021 kcal/mol)

>  <smiles>  (94) 
NC(=O)c1cc2ccc(C(F)(F)F)cc2n1C(=O)[C@@H]1CCS(=O)(=O)C1

>  <score_type>  (94) 
oracle

>  <origin>  (94) 
adg

>  <m_score__min__energy>  (94) 
-9.3800000000000008

>  <m_primary>  (94) 
energy

$$$$
94:0
     RDKit          3D

 33 34  0  0  0  0  0  0  0  0999 V2000
   -8.8360   19.9450  -31.6590 C   0  0  0  0  0  0  0  0  0  0  0  0
   -9.0000   21.2170  -32.0370 C   0  0  0  0  0  0  0  0  0  0  0  0
   -8.3270   22.3480  -31.3120 C   0  0  0  0  0  0  0  0  0  0  0  0
   -7.2370   22.9380  -32.1570 C   0  0  0  0  0  0  0  0  0  0  0  0
   -7.5260   23.7690  -33.0610 O   0  0  0  0  0  0  0  0  0  0  0  0
   -5.8840   22.4910  -32.0110 N   0  0  0  0  0  0  0  0  0  0  0  0
   -4.8840   23.0630  -31.2830 C   0  0  0  0  0  0  0  0  0  0  0  0
   -4.9610   24.3600  -30.5800 C   0  0  0  0  0  0  0  0  0  0  0  0
   -3.8680   25.2730  -30.6010 N   0  0  0  0  0  0  0  0  0  0  0  0
   -5.9980   24.6550  -29.9270 O   0  0  0  0  0  0  0  0  0  0  0  0
   -3.7330   22.2780  -31.3370 C   0  0  0  0  0  0  0  0  0  0  0  0
   -4.0610   21.2040  -32.1360 C   0  0  0  0  0  0  0  0  0  0  0  0
   -3.2990   20.1070  -32.5250 C   0  0  0  0  0  0  0  0  0  0  0  0
   -3.9100   19.1370  -33.3380 C   0  0  0  0  0  0  0  0  0  0  0  0
   -5.2640   19.2740  -33.7340 C   0  0  0  0  0  0  0  0  0  0  0  0
   -5.8980   18.2450  -34.6280 C   0  0  0  0  0  0  0  0  0  0  0  0
   -6.5310   17.1710  -33.8040 C   0  0  0  0  0  0  0  0  0  0  0  0
   -6.5560   15.9840  -34.2220 O   0  0  0  0  0  0  0  0  0  0  0  0
   -7.0460   17.4690  -32.5490 O   0  0  0  0  0  0  0  0  0  0  0  0
   -6.0040   20.4050  -33.3250 C   0  0  0  0  0  0  0  0  0  0  0  0
   -5.3660   21.3580  -32.5270 C   0  0  0  0  0  0  0  0  0  0  0  0
   -9.3418   19.1381  -32.2095 H   0  0  0  0  0  0  0  0  0  0  0  0
   -8.1953   19.7055  -30.7975 H   0  0  0  0  0  0  0  0  0  0  0  0
   -9.6437   21.4411  -32.9004 H   0  0  0  0  0  0  0  0  0  0  0  0
   -9.0706   23.1261  -31.0851 H   0  0  0  0  0  0  0  0  0  0  0  0
   -7.8864   21.9620  -30.3809 H   0  0  0  0  0  0  0  0  0  0  0  0
   -3.4920   25.6810  -29.7140 H   0  0  0  0  0  0  0  0  0  0  0  0
   -2.7683   22.4742  -30.8462 H   0  0  0  0  0  0  0  0  0  0  0  0
   -2.2514   20.0021  -32.2063 H   0  0  0  0  0  0  0  0  0  0  0  0
   -3.3314   18.2625  -33.6704 H   0  0  0  0  0  0  0  0  0  0  0  0
   -6.6664   18.7271  -35.2502 H   0  0  0  0  0  0  0  0  0  0  0  0
   -5.1240   17.7985  -35.2694 H   0  0  0  0  0  0  0  0  0  0  0  0
   -7.0542   20.5323  -33.6265 H   0  0  0  0  0  0  0  0  0  0  0  0
  1  2  2  0
  2  3  1  0
  3  4  1  0
  4  5  2  0
  4  6  1  0
  6  7  1  0
  7  8  1  0
  8  9  1  0
  8 10  2  0
  7 11  2  0
 11 12  1  0
 12 13  2  0
 13 14  1  0
 14 15  2  0
 15 16  1  0
 16 17  1  0
 17 18  2  0
 17 19  1  0
 15 20  1  0
 20 21  2  0
 21  6  1  0
 21 12  1  0
  1 22  1  0
  1 23  1  0
  2 24  1  0
  3 25  1  0
  3 26  1  0
  9 27  1  0
 11 28  1  0
 13 29  1  0
 14 30  1  0
 16 31  1  0
 16 32  1  0
 20 33  1  0
M  CHG  2   9  -1  19  -1
M  END
>  <UniqueID>  (95) 
94

>  <SMILES>  (95) 
C=CCC(=O)n1c(C([NH-])=O)cc2ccc(CC(=O)[O-])cc21

>  <Energy>  (95) 
67.84089571080501

>  <Genealogy>  (95) 
C=CCC(=O)n1c(C([NH-])=O)cc2ccc(CC(=O)[O-])cc21 (protonated)
C=CCC(=O)n1c(C([NH-])=O)cc2ccc(CC(=O)[O-])cc21 (3D coordinates assigned)
C=CCC(=O)n1c(C([NH-])=O)cc2ccc(CC(=O)[O-])cc21 (optimized conformer: 67.84089571080501 kcal/mol)

>  <smiles>  (95) 
C=CCC(=O)n1c(C(N)=O)cc2ccc(CC(=O)O)cc21

>  <score_type>  (95) 
oracle

>  <origin>  (95) 
adg

>  <m_score__min__energy>  (95) 
-10.09

>  <m_primary>  (95) 
energy

$$$$
95:0
     RDKit          3D

 35 36  0  0  0  0  0  0  0  0999 V2000
   -6.1140   18.1100  -33.8020 C   0  0  0  0  0  0  0  0  0  0  0  0
   -6.5830   18.3050  -32.3640 C   0  0  0  0  0  0  0  0  0  0  0  0
   -6.7970   19.7640  -32.0660 C   0  0  0  0  0  0  0  0  0  0  0  0
   -8.0820   20.3400  -32.2230 C   0  0  0  0  0  0  0  0  0  0  0  0
   -8.2900   21.7050  -31.9650 C   0  0  0  0  0  0  0  0  0  0  0  0
   -7.1950   22.4700  -31.5730 C   0  0  0  0  0  0  0  0  0  0  0  0
   -7.1200   23.8040  -31.2440 C   0  0  0  0  0  0  0  0  0  0  0  0
   -5.7830   24.0290  -30.9240 C   0  0  0  0  0  0  0  0  0  0  0  0
   -5.2400   25.3630  -30.5900 C   0  0  0  0  0  0  0  0  0  0  0  0
   -3.8640   25.6500  -30.8320 N   0  0  0  0  0  0  0  0  0  0  0  0
   -5.9680   26.2420  -30.0580 O   0  0  0  0  0  0  0  0  0  0  0  0
   -5.0610   22.8800  -31.0460 N   0  0  0  0  0  0  0  0  0  0  0  0
   -3.6720   22.6780  -30.7380 C   0  0  0  0  0  0  0  0  0  0  0  0
   -2.8060   22.7650  -31.6510 O   0  0  0  0  0  0  0  0  0  0  0  0
   -3.2890   22.3670  -29.4270 O   0  0  0  0  0  0  0  0  0  0  0  0
   -3.4910   23.2430  -28.3210 C   0  0  0  0  0  0  0  0  0  0  0  0
   -2.2780   24.1540  -28.1290 C   0  0  0  0  0  0  0  0  0  0  0  0
   -1.9230   24.7540  -29.3450 O   0  0  0  0  0  0  0  0  0  0  0  0
   -5.9400   21.9340  -31.4450 C   0  0  0  0  0  0  0  0  0  0  0  0
   -5.7070   20.5730  -31.6770 C   0  0  0  0  0  0  0  0  0  0  0  0
   -5.0983   17.6877  -33.8023 H   0  0  0  0  0  0  0  0  0  0  0  0
   -6.7975   17.4215  -34.3204 H   0  0  0  0  0  0  0  0  0  0  0  0
   -6.1079   19.0801  -34.3204 H   0  0  0  0  0  0  0  0  0  0  0  0
   -7.5294   17.7641  -32.2167 H   0  0  0  0  0  0  0  0  0  0  0  0
   -5.8102   17.9157  -31.6848 H   0  0  0  0  0  0  0  0  0  0  0  0
   -8.9243   19.7126  -32.5499 H   0  0  0  0  0  0  0  0  0  0  0  0
   -9.2879   22.1558  -32.0695 H   0  0  0  0  0  0  0  0  0  0  0  0
   -7.9406   24.5364  -31.2355 H   0  0  0  0  0  0  0  0  0  0  0  0
   -3.1730   24.8810  -30.9780 H   0  0  0  0  0  0  0  0  0  0  0  0
   -4.3817   23.8611  -28.5071 H   0  0  0  0  0  0  0  0  0  0  0  0
   -3.6300   22.6403  -27.4114 H   0  0  0  0  0  0  0  0  0  0  0  0
   -2.5243   24.9367  -27.3964 H   0  0  0  0  0  0  0  0  0  0  0  0
   -1.4319   23.5517  -27.7667 H   0  0  0  0  0  0  0  0  0  0  0  0
   -2.3800   24.2370  -30.0590 H   0  0  0  0  0  0  0  0  0  0  0  0
   -4.7006   20.1449  -31.5592 H   0  0  0  0  0  0  0  0  0  0  0  0
  1  2  1  0
  2  3  1  0
  3  4  2  0
  4  5  1  0
  5  6  2  0
  6  7  1  0
  7  8  2  0
  8  9  1  0
  9 10  1  0
  9 11  2  0
  8 12  1  0
 12 13  1  0
 13 14  2  0
 13 15  1  0
 15 16  1  0
 16 17  1  0
 17 18  1  0
 12 19  1  0
 19 20  2  0
 20  3  1  0
 19  6  1  0
  1 21  1  0
  1 22  1  0
  1 23  1  0
  2 24  1  0
  2 25  1  0
  4 26  1  0
  5 27  1  0
  7 28  1  0
 10 29  1  0
 16 30  1  0
 16 31  1  0
 17 32  1  0
 17 33  1  0
 18 34  1  0
 20 35  1  0
M  CHG  1  10  -1
M  END
>  <UniqueID>  (96) 
95

>  <SMILES>  (96) 
CCc1ccc2cc(C([NH-])=O)n(C(=O)OCCO)c2c1

>  <Energy>  (96) 
66.8154629122084

>  <Genealogy>  (96) 
CCc1ccc2cc(C([NH-])=O)n(C(=O)OCCO)c2c1 (protonated)
CCc1ccc2cc(C([NH-])=O)n(C(=O)OCCO)c2c1 (3D coordinates assigned)
CCc1ccc2cc(C([NH-])=O)n(C(=O)OCCO)c2c1 (optimized conformer: 66.8154629122084 kcal/mol)

>  <smiles>  (96) 
CCc1ccc2cc(C(N)=O)n(C(=O)OCCO)c2c1

>  <score_type>  (96) 
oracle

>  <origin>  (96) 
adg

>  <m_score__min__energy>  (96) 
-10.1

>  <m_primary>  (96) 
energy

$$$$
96:0
     RDKit          3D

 38 39  0  0  0  0  0  0  0  0999 V2000
   -9.0790   20.1330  -32.6880 C   0  0  0  0  0  0  0  0  0  0  0  0
   -7.6510   20.4510  -32.5180 N   0  0  0  0  0  0  0  0  0  0  0  0
   -7.5160   21.7660  -31.8690 C   0  0  0  0  0  0  0  0  0  0  0  0
   -6.9780   19.3900  -31.7360 C   0  0  0  0  0  0  0  0  0  0  0  0
   -5.6160   19.0060  -32.3490 C   0  0  0  0  0  0  0  0  0  0  0  0
   -4.9590   20.1260  -33.0480 N   0  0  0  0  0  0  0  0  0  0  0  0
   -3.8520   20.6650  -32.2920 C   0  0  0  0  0  0  0  0  0  0  0  0
   -2.6170   19.9680  -32.2350 C   0  0  0  0  0  0  0  0  0  0  0  0
   -1.5260   20.4940  -31.5250 C   0  0  0  0  0  0  0  0  0  0  0  0
   -1.6960   21.7170  -30.8840 C   0  0  0  0  0  0  0  0  0  0  0  0
   -0.8140   22.4430  -30.1170 C   0  0  0  0  0  0  0  0  0  0  0  0
   -1.5130   23.5820  -29.7250 C   0  0  0  0  0  0  0  0  0  0  0  0
   -0.9040   24.6840  -28.9510 C   0  0  0  0  0  0  0  0  0  0  0  0
   -1.5530   25.9520  -28.8950 N   0  0  0  0  0  0  0  0  0  0  0  0
    0.1640   24.5080  -28.3080 O   0  0  0  0  0  0  0  0  0  0  0  0
   -2.7830   23.5590  -30.2240 N   0  0  0  0  0  0  0  0  0  0  0  0
   -3.8350   24.5130  -30.0080 C   0  0  0  0  0  0  0  0  0  0  0  0
   -4.7360   24.2870  -29.1600 O   0  0  0  0  0  0  0  0  0  0  0  0
   -3.8810   25.6850  -30.7540 O   0  0  0  0  0  0  0  0  0  0  0  0
   -2.8770   22.4110  -30.9330 C   0  0  0  0  0  0  0  0  0  0  0  0
   -3.9860   21.9000  -31.6150 C   0  0  0  0  0  0  0  0  0  0  0  0
   -9.5513   20.0278  -31.7002 H   0  0  0  0  0  0  0  0  0  0  0  0
   -9.5713   20.9435  -33.2454 H   0  0  0  0  0  0  0  0  0  0  0  0
   -9.1809   19.1902  -33.2454 H   0  0  0  0  0  0  0  0  0  0  0  0
   -7.5291   21.6388  -30.7765 H   0  0  0  0  0  0  0  0  0  0  0  0
   -6.5656   22.2290  -32.1729 H   0  0  0  0  0  0  0  0  0  0  0  0
   -8.3525   22.4125  -32.1729 H   0  0  0  0  0  0  0  0  0  0  0  0
   -6.8177   19.7512  -30.7094 H   0  0  0  0  0  0  0  0  0  0  0  0
   -7.6213   18.4978  -31.7442 H   0  0  0  0  0  0  0  0  0  0  0  0
   -4.9537   18.6607  -31.5415 H   0  0  0  0  0  0  0  0  0  0  0  0
   -5.8024   18.2188  -33.0943 H   0  0  0  0  0  0  0  0  0  0  0  0
   -4.5930   19.7790  -33.9650 H   0  0  0  0  0  0  0  0  0  0  0  0
   -5.6630   20.8720  -33.2620 H   0  0  0  0  0  0  0  0  0  0  0  0
   -2.5133   19.0035  -32.7537 H   0  0  0  0  0  0  0  0  0  0  0  0
   -0.5675   19.9564  -31.4771 H   0  0  0  0  0  0  0  0  0  0  0  0
    0.2241   22.1794  -29.8663 H   0  0  0  0  0  0  0  0  0  0  0  0
   -2.5910   26.0270  -28.9680 H   0  0  0  0  0  0  0  0  0  0  0  0
   -4.9409   22.4460  -31.6248 H   0  0  0  0  0  0  0  0  0  0  0  0
  1  2  1  0
  2  3  1  0
  2  4  1  0
  4  5  1  0
  5  6  1  0
  6  7  1  0
  7  8  2  0
  8  9  1  0
  9 10  2  0
 10 11  1  0
 11 12  2  0
 12 13  1  0
 13 14  1  0
 13 15  2  0
 12 16  1  0
 16 17  1  0
 17 18  2  0
 17 19  1  0
 16 20  1  0
 20 21  2  0
 21  7  1  0
 20 10  1  0
  1 22  1  0
  1 23  1  0
  1 24  1  0
  3 25  1  0
  3 26  1  0
  3 27  1  0
  4 28  1  0
  4 29  1  0
  5 30  1  0
  5 31  1  0
  6 32  1  0
  6 33  1  0
  8 34  1  0
  9 35  1  0
 11 36  1  0
 14 37  1  0
 21 38  1  0
M  CHG  3   6   1  14  -1  19  -1
M  END
>  <UniqueID>  (97) 
96

>  <SMILES>  (97) 
CN(C)CC[NH2+]c1ccc2cc(C([NH-])=O)n(C(=O)[O-])c2c1

>  <Energy>  (97) 
77.36741653087608

>  <Genealogy>  (97) 
CN(C)CC[NH2+]c1ccc2cc(C([NH-])=O)n(C(=O)[O-])c2c1 (protonated)
CN(C)CC[NH2+]c1ccc2cc(C([NH-])=O)n(C(=O)[O-])c2c1 (3D coordinates assigned)
CN(C)CC[NH2+]c1ccc2cc(C([NH-])=O)n(C(=O)[O-])c2c1 (optimized conformer: 77.36741653087608 kcal/mol)

>  <smiles>  (97) 
CN(C)CCNc1ccc2cc(C(N)=O)n(C(=O)O)c2c1

>  <score_type>  (97) 
oracle

>  <origin>  (97) 
adg

>  <m_score__min__energy>  (97) 
-10.08

>  <m_primary>  (97) 
energy

$$$$
97:0
     RDKit          3D

 51 54  0  0  0  0  0  0  0  0999 V2000
   -1.6340   25.3540  -27.9080 N   0  0  0  0  0  0  0  0  0  0  0  0
   -0.7560   24.4240  -28.5430 C   0  0  0  0  0  0  0  0  0  0  0  0
    0.4610   24.4120  -28.2240 O   0  0  0  0  0  0  0  0  0  0  0  0
   -1.2760   23.4480  -29.5230 C   0  0  0  0  0  0  0  0  0  0  0  0
   -0.4980   22.4380  -30.0820 C   0  0  0  0  0  0  0  0  0  0  0  0
   -1.3140   21.8120  -30.9920 C   0  0  0  0  0  0  0  0  0  0  0  0
   -1.0540   20.7260  -31.8220 C   0  0  0  0  0  0  0  0  0  0  0  0
   -2.0930   20.2570  -32.6400 C   0  0  0  0  0  0  0  0  0  0  0  0
   -3.3730   20.8710  -32.6110 C   0  0  0  0  0  0  0  0  0  0  0  0
   -4.4530   20.3930  -33.4330 N   0  0  0  0  0  0  0  0  0  0  0  0
   -5.0230   19.0530  -33.3050 C   0  0  2  0  0  0  0  0  0  0  0  0
   -5.4060   18.4320  -34.6460 C   0  0  0  0  0  0  0  0  0  0  0  0
   -6.4830   18.9500  -33.7110 C   0  0  0  0  0  0  0  0  0  0  0  0
   -7.2220   17.9740  -33.0690 F   0  0  0  0  0  0  0  0  0  0  0  0
   -7.1150   20.1080  -34.1310 F   0  0  0  0  0  0  0  0  0  0  0  0
   -3.5960   21.9720  -31.7540 C   0  0  0  0  0  0  0  0  0  0  0  0
   -2.5360   22.4350  -30.9620 C   0  0  0  0  0  0  0  0  0  0  0  0
   -2.5290   23.4490  -30.0640 N   0  0  0  0  0  0  0  0  0  0  0  0
   -3.6480   24.2740  -29.6820 C   0  0  0  0  0  0  0  0  0  0  0  0
   -4.2650   24.0420  -28.6090 O   0  0  0  0  0  0  0  0  0  0  0  0
   -4.0310   25.3490  -30.4930 O   0  0  0  0  0  0  0  0  0  0  0  0
   -5.3870   25.6510  -30.8260 C   0  0  0  0  0  0  0  0  0  0  0  0
   -6.1160   24.4670  -31.4820 C   0  0  0  0  0  0  0  0  0  0  0  0
   -6.9160   23.5920  -30.5010 C   0  0  0  0  0  0  0  0  0  0  0  0
   -6.9230   22.0960  -30.8530 C   0  0  0  0  0  0  0  0  0  0  0  0
   -7.9670   21.7750  -31.9320 C   0  0  0  0  0  0  0  0  0  0  0  0
   -8.8090   20.5260  -31.7120 C   0  0  0  0  0  0  0  0  0  0  0  0
   -9.4070   21.8990  -31.4580 C   0  0  0  0  0  0  0  0  0  0  0  0
   -2.6400   25.4190  -28.1810 H   0  0  0  0  0  0  0  0  0  0  0  0
   -1.2680   26.0100  -27.1840 H   0  0  0  0  0  0  0  0  0  0  0  0
    0.5480   22.1934  -29.8452 H   0  0  0  0  0  0  0  0  0  0  0  0
   -0.0629   20.2491  -31.8365 H   0  0  0  0  0  0  0  0  0  0  0  0
   -1.9140   19.4041  -33.3113 H   0  0  0  0  0  0  0  0  0  0  0  0
   -4.9230   21.0650  -34.0820 H   0  0  0  0  0  0  0  0  0  0  0  0
   -4.4383   18.7386  -32.4279 H   0  0  0  0  0  0  0  0  0  0  0  0
   -5.1867   18.9659  -35.5824 H   0  0  0  0  0  0  0  0  0  0  0  0
   -5.2042   17.4732  -35.1460 H   0  0  0  0  0  0  0  0  0  0  0  0
   -4.5825   22.4566  -31.7091 H   0  0  0  0  0  0  0  0  0  0  0  0
   -5.9221   25.9270  -29.9054 H   0  0  0  0  0  0  0  0  0  0  0  0
   -5.3741   26.4765  -31.5529 H   0  0  0  0  0  0  0  0  0  0  0  0
   -6.8125   24.8657  -32.2343 H   0  0  0  0  0  0  0  0  0  0  0  0
   -5.3389   23.8215  -31.9173 H   0  0  0  0  0  0  0  0  0  0  0  0
   -6.4780   23.7085  -29.4987 H   0  0  0  0  0  0  0  0  0  0  0  0
   -7.9603   23.9337  -30.5520 H   0  0  0  0  0  0  0  0  0  0  0  0
   -5.9272   21.8117  -31.2238 H   0  0  0  0  0  0  0  0  0  0  0  0
   -7.1802   21.5299  -29.9456 H   0  0  0  0  0  0  0  0  0  0  0  0
   -7.3718   22.1597  -32.7733 H   0  0  0  0  0  0  0  0  0  0  0  0
   -9.1452   19.9306  -32.5737 H   0  0  0  0  0  0  0  0  0  0  0  0
   -8.6953   19.6057  -31.1203 H   0  0  0  0  0  0  0  0  0  0  0  0
  -10.1764   22.2974  -32.1357 H   0  0  0  0  0  0  0  0  0  0  0  0
   -9.9058   22.3840  -30.6059 H   0  0  0  0  0  0  0  0  0  0  0  0
  1  2  1  0
  2  3  2  0
  2  4  1  0
  4  5  2  0
  5  6  1  0
  6  7  2  0
  7  8  1  0
  8  9  2  0
  9 10  1  0
 10 11  1  0
 11 12  1  0
 12 13  1  0
 13 14  1  0
 13 15  1  0
  9 16  1  0
 16 17  2  0
 17 18  1  0
 18 19  1  0
 19 20  2  0
 19 21  1  0
 21 22  1  0
 22 23  1  0
 23 24  1  0
 24 25  1  0
 25 26  1  0
 26 27  1  0
 27 28  1  0
 18  4  1  0
 28 26  1  0
 17  6  1  0
 13 11  1  0
  1 29  1  0
  1 30  1  0
  5 31  1  0
  7 32  1  0
  8 33  1  0
 10 34  1  0
 11 35  1  1
 12 36  1  0
 12 37  1  0
 16 38  1  0
 22 39  1  0
 22 40  1  0
 23 41  1  0
 23 42  1  0
 24 43  1  0
 24 44  1  0
 25 45  1  0
 25 46  1  0
 26 47  1  0
 27 48  1  0
 27 49  1  0
 28 50  1  0
 28 51  1  0
M  END
>  <UniqueID>  (98) 
97

>  <SMILES>  (98) 
NC(=O)c1cc2ccc(N[C@@H]3CC3(F)F)cc2n1C(=O)OCCCCC1CC1

>  <Energy>  (98) 
618.0379062135189

>  <Genealogy>  (98) 
NC(=O)c1cc2ccc(N[C@@H]3CC3(F)F)cc2n1C(=O)OCCCCC1CC1 (chirality)
NC(=O)c1cc2ccc(N[C@@H]3CC3(F)F)cc2n1C(=O)OCCCCC1CC1 (3D coordinates assigned)
NC(=O)c1cc2ccc(N[C@@H]3CC3(F)F)cc2n1C(=O)OCCCCC1CC1 (nonaromatic ring conformer: 618.0379062135189 kcal/mol)

>  <smiles>  (98) 
NC(=O)c1cc2ccc(NC3CC3(F)F)cc2n1C(=O)OCCCCC1CC1

>  <score_type>  (98) 
oracle

>  <origin>  (98) 
adg

>  <m_score__min__energy>  (98) 
-9.6699999999999999

>  <m_primary>  (98) 
energy

$$$$
98:0
     RDKit          3D

110114  0  0  0  0  0  0  0  0999 V2000
   -4.1630   22.5720  -31.5950 C   0  0  0  0  0  0  0  0  0  0  0  0
   -5.6550   22.5660  -31.4680 C   0  0  0  0  0  0  0  0  0  0  0  0
   -6.3070   23.6390  -30.9450 N   0  0  0  0  0  0  0  0  0  0  0  0
   -7.6430   23.4420  -30.8580 C   0  0  0  0  0  0  0  0  0  0  0  0
   -8.0650   21.9180  -31.4240 S   0  0  0  0  0  0  0  0  0  0  0  0
   -6.4810   21.4890  -31.8200 C   0  0  0  0  0  0  0  0  0  0  0  0
   -6.0950   20.2040  -32.4400 C   0  0  0  0  0  0  0  0  0  0  0  0
   -5.7580   19.1100  -31.6270 C   0  0  0  0  0  0  0  0  0  0  0  0
   -5.3950   17.8860  -32.2000 C   0  0  0  0  0  0  0  0  0  0  0  0
   -5.3500   17.7410  -33.6000 C   0  0  0  0  0  0  0  0  0  0  0  0
   -4.9140   16.4370  -34.2470 C   0  0  2  0  0  0  0  0  0  0  0  0
   -4.4010   15.4730  -33.1730 C   0  0  0  0  0  0  0  0  0  0  0  0
   -3.8600   16.6130  -35.3720 C   0  0  0  0  0  0  0  0  0  0  0  0
   -2.4330   16.5220  -34.8790 C   0  0  0  0  0  0  0  0  0  0  0  0
   -1.6690   15.7200  -35.4010 O   0  0  0  0  0  0  0  0  0  0  0  0
   -1.9610   17.3510  -33.6970 C   0  0  2  0  0  0  0  0  0  0  0  0
   -2.5560   18.7570  -33.6980 C   0  0  0  0  0  0  0  0  0  0  0  0
   -1.5700   19.5950  -34.5200 C   0  0  1  0  0  0  0  0  0  0  0  0
   -1.4850   20.9470  -34.1280 O   0  0  0  0  0  0  0  0  0  0  0  0
   -0.2250   18.8920  -34.3490 C   0  0  0  0  0  0  0  0  0  0  0  0
   -0.5230   17.5810  -33.7750 N   0  0  0  0  0  0  0  0  0  0  0  0
    0.4450   16.5560  -33.4520 C   0  0  0  0  0  0  0  0  0  0  0  0
    1.2010   16.1310  -34.3650 O   0  0  0  0  0  0  0  0  0  0  0  0
    0.5900   15.9260  -32.0700 C   0  0  1  0  0  0  0  0  0  0  0  0
   -0.1100   16.7060  -31.0490 N   0  0  0  0  0  0  0  0  0  0  0  0
    0.1710   18.0830  -30.7830 C   0  0  0  0  0  0  0  0  0  0  0  0
   -0.6100   18.9830  -31.2000 O   0  0  0  0  0  0  0  0  0  0  0  0
    1.3400   18.4680  -29.9280 C   0  0  0  0  0  0  0  0  0  0  0  0
    1.1170   19.7250  -29.3160 O   0  0  0  0  0  0  0  0  0  0  0  0
    1.0060   19.5770  -27.9140 C   0  0  0  0  0  0  0  0  0  0  0  0
   -0.4130   19.8870  -27.4660 C   0  0  0  0  0  0  0  0  0  0  0  0
   -1.3290   19.2780  -28.3540 O   0  0  0  0  0  0  0  0  0  0  0  0
   -2.2380   20.2510  -28.8310 C   0  0  0  0  0  0  0  0  0  0  0  0
   -1.9340   21.5950  -28.1630 C   0  0  0  0  0  0  0  0  0  0  0  0
   -1.0730   22.4240  -29.0220 N   0  0  0  0  0  0  0  0  0  0  0  0
   -0.8110   22.0480  -30.4090 C   0  0  0  0  0  0  0  0  0  0  0  0
   -0.4890   23.6300  -28.5050 C   0  0  0  0  0  0  0  0  0  0  0  0
    0.6270   24.0130  -28.9350 O   0  0  0  0  0  0  0  0  0  0  0  0
   -1.1480   24.3780  -27.4750 N   0  0  0  0  0  0  0  0  0  0  0  0
   -2.4400   24.8140  -27.4640 C   0  0  0  0  0  0  0  0  0  0  0  0
   -3.4420   24.5510  -28.5270 C   0  0  0  0  0  0  0  0  0  0  0  0
   -4.6800   23.9020  -28.2280 N   0  0  0  0  0  0  0  0  0  0  0  0
   -3.2200   24.9170  -29.7100 O   0  0  0  0  0  0  0  0  0  0  0  0
   -2.6800   25.5650  -26.3120 C   0  0  0  0  0  0  0  0  0  0  0  0
   -1.4820   25.6000  -25.6360 C   0  0  0  0  0  0  0  0  0  0  0  0
   -1.1410   26.2360  -24.4470 C   0  0  0  0  0  0  0  0  0  0  0  0
    0.1870   26.1310  -23.9990 C   0  0  0  0  0  0  0  0  0  0  0  0
    1.1490   25.4020  -24.7440 C   0  0  0  0  0  0  0  0  0  0  0  0
    2.5670   25.3150  -24.2340 C   0  0  0  0  0  0  0  0  0  0  0  0
    2.8430   26.3060  -23.3100 F   0  0  0  0  0  0  0  0  0  0  0  0
    2.7690   24.0860  -23.6290 F   0  0  0  0  0  0  0  0  0  0  0  0
    3.4410   25.4520  -25.2970 F   0  0  0  0  0  0  0  0  0  0  0  0
    0.7650   24.7790  -25.9570 C   0  0  0  0  0  0  0  0  0  0  0  0
   -0.5710   24.8830  -26.3660 C   0  0  0  0  0  0  0  0  0  0  0  0
    0.1790   14.4150  -32.0150 C   0  0  0  0  0  0  0  0  0  0  0  0
   -1.3340   14.2630  -32.2980 C   0  0  0  0  0  0  0  0  0  0  0  0
    0.9530   13.6390  -33.1070 C   0  0  0  0  0  0  0  0  0  0  0  0
    0.4950   13.7750  -30.6460 C   0  0  0  0  0  0  0  0  0  0  0  0
   -5.7200   18.8250  -34.4050 C   0  0  0  0  0  0  0  0  0  0  0  0
   -6.0980   20.0420  -33.8290 C   0  0  0  0  0  0  0  0  0  0  0  0
   -3.7097   22.5738  -30.5927 H   0  0  0  0  0  0  0  0  0  0  0  0
   -3.8380   21.6752  -32.1428 H   0  0  0  0  0  0  0  0  0  0  0  0
   -3.8452   23.4714  -32.1428 H   0  0  0  0  0  0  0  0  0  0  0  0
   -8.3577   24.1818  -30.4683 H   0  0  0  0  0  0  0  0  0  0  0  0
   -5.7795   19.2158  -30.5323 H   0  0  0  0  0  0  0  0  0  0  0  0
   -5.1434   17.0325  -31.5533 H   0  0  0  0  0  0  0  0  0  0  0  0
   -5.8042   16.0182  -34.7390 H   0  0  0  0  0  0  0  0  0  0  0  0
   -4.6198   15.8842  -32.1765 H   0  0  0  0  0  0  0  0  0  0  0  0
   -4.9002   14.4993  -33.2856 H   0  0  0  0  0  0  0  0  0  0  0  0
   -3.3145   15.3432  -33.2856 H   0  0  0  0  0  0  0  0  0  0  0  0
   -4.0194   15.8271  -36.1249 H   0  0  0  0  0  0  0  0  0  0  0  0
   -3.9955   17.6221  -35.7884 H   0  0  0  0  0  0  0  0  0  0  0  0
   -2.2664   16.7812  -32.8070 H   0  0  0  0  0  0  0  0  0  0  0  0
   -3.5508   18.7571  -34.1674 H   0  0  0  0  0  0  0  0  0  0  0  0
   -2.6919   19.1526  -32.6806 H   0  0  0  0  0  0  0  0  0  0  0  0
   -1.9063   19.6495  -35.5659 H   0  0  0  0  0  0  0  0  0  0  0  0
   -1.9750   21.5220  -34.7740 H   0  0  0  0  0  0  0  0  0  0  0  0
    0.2728   18.7780  -35.3233 H   0  0  0  0  0  0  0  0  0  0  0  0
    0.4511   19.4699  -33.7017 H   0  0  0  0  0  0  0  0  0  0  0  0
    1.6669   15.9496  -31.8472 H   0  0  0  0  0  0  0  0  0  0  0  0
    1.4835   17.7063  -29.1475 H   0  0  0  0  0  0  0  0  0  0  0  0
    2.2361   18.5363  -30.5623 H   0  0  0  0  0  0  0  0  0  0  0  0
    1.2572   18.5427  -27.6365 H   0  0  0  0  0  0  0  0  0  0  0  0
    1.6991   20.2756  -27.4226 H   0  0  0  0  0  0  0  0  0  0  0  0
   -0.5710   19.4956  -26.4502 H   0  0  0  0  0  0  0  0  0  0  0  0
   -0.5691   20.9759  -27.4666 H   0  0  0  0  0  0  0  0  0  0  0  0
   -2.1322   20.3499  -29.9214 H   0  0  0  0  0  0  0  0  0  0  0  0
   -3.2669   19.9440  -28.5919 H   0  0  0  0  0  0  0  0  0  0  0  0
   -2.8786   22.1275  -27.9783 H   0  0  0  0  0  0  0  0  0  0  0  0
   -1.4086   21.4062  -27.2152 H   0  0  0  0  0  0  0  0  0  0  0  0
   -0.1823   21.1457  -30.4318 H   0  0  0  0  0  0  0  0  0  0  0  0
   -1.7636   21.8441  -30.9198 H   0  0  0  0  0  0  0  0  0  0  0  0
   -0.2898   22.8711  -30.9198 H   0  0  0  0  0  0  0  0  0  0  0  0
   -5.3430   23.6650  -29.0000 H   0  0  0  0  0  0  0  0  0  0  0  0
   -5.0200   23.8080  -27.2460 H   0  0  0  0  0  0  0  0  0  0  0  0
   -3.6287   26.0314  -26.0081 H   0  0  0  0  0  0  0  0  0  0  0  0
   -1.8886   26.8044  -23.8742 H   0  0  0  0  0  0  0  0  0  0  0  0
    0.4839   26.6200  -23.0594 H   0  0  0  0  0  0  0  0  0  0  0  0
    1.4982   24.2268  -26.5632 H   0  0  0  0  0  0  0  0  0  0  0  0
   -1.8815   14.2080  -31.3455 H   0  0  0  0  0  0  0  0  0  0  0  0
   -1.6880   15.1301  -32.8749 H   0  0  0  0  0  0  0  0  0  0  0  0
   -1.5085   13.3428  -32.8749 H   0  0  0  0  0  0  0  0  0  0  0  0
    1.6534   12.9368  -32.6311 H   0  0  0  0  0  0  0  0  0  0  0  0
    0.2421   13.0800  -33.7331 H   0  0  0  0  0  0  0  0  0  0  0  0
    1.5139   14.3485  -33.7331 H   0  0  0  0  0  0  0  0  0  0  0  0
    0.1629   14.4476  -29.8414 H   0  0  0  0  0  0  0  0  0  0  0  0
   -0.0317   12.8131  -30.5606 H   0  0  0  0  0  0  0  0  0  0  0  0
    1.5789   13.6083  -30.5606 H   0  0  0  0  0  0  0  0  0  0  0  0
   -5.7133   18.7186  -35.4998 H   0  0  0  0  0  0  0  0  0  0  0  0
   -6.4005   20.8797  -34.4746 H   0  0  0  0  0  0  0  0  0  0  0  0
  1  2  1  0
  2  3  1  0
  3  4  2  0
  4  5  1  0
  5  6  1  0
  6  7  1  0
  7  8  2  0
  8  9  1  0
  9 10  2  0
 10 11  1  0
 11 12  1  0
 11 13  1  0
 13 14  1  0
 14 15  2  0
 14 16  1  0
 16 17  1  0
 17 18  1  0
 18 19  1  0
 18 20  1  0
 20 21  1  0
 21 22  1  0
 22 23  2  0
 22 24  1  0
 24 25  1  0
 25 26  1  0
 26 27  2  0
 26 28  1  0
 28 29  1  0
 29 30  1  0
 30 31  1  0
 31 32  1  0
 32 33  1  0
 33 34  1  0
 34 35  1  0
 35 36  1  0
 35 37  1  0
 37 38  2  0
 37 39  1  0
 39 40  1  0
 40 41  1  0
 41 42  1  0
 41 43  2  0
 40 44  2  0
 44 45  1  0
 45 46  2  0
 46 47  1  0
 47 48  2  0
 48 49  1  0
 49 50  1  0
 49 51  1  0
 49 52  1  0
 48 53  1  0
 53 54  2  0
 24 55  1  0
 55 56  1  0
 55 57  1  0
 55 58  1  0
 10 59  1  0
 59 60  2  0
  6  2  2  0
 60  7  1  0
 21 16  1  0
 54 39  1  0
 54 45  1  0
  1 61  1  0
  1 62  1  0
  1 63  1  0
  4 64  1  0
  8 65  1  0
  9 66  1  0
 11 67  1  6
 12 68  1  0
 12 69  1  0
 12 70  1  0
 13 71  1  0
 13 72  1  0
 16 73  1  1
 17 74  1  0
 17 75  1  0
 18 76  1  6
 19 77  1  0
 20 78  1  0
 20 79  1  0
 24 80  1  1
 28 81  1  0
 28 82  1  0
 30 83  1  0
 30 84  1  0
 31 85  1  0
 31 86  1  0
 33 87  1  0
 33 88  1  0
 34 89  1  0
 34 90  1  0
 36 91  1  0
 36 92  1  0
 36 93  1  0
 42 94  1  0
 42 95  1  0
 44 96  1  0
 46 97  1  0
 47 98  1  0
 53 99  1  0
 56100  1  0
 56101  1  0
 56102  1  0
 57103  1  0
 57104  1  0
 57105  1  0
 58106  1  0
 58107  1  0
 58108  1  0
 59109  1  0
 60110  1  0
M  CHG  1  25  -1
M  END
>  <UniqueID>  (99) 
98

>  <SMILES>  (99) 
Cc1ncsc1-c1ccc([C@H](C)CC(=O)[C@@H]2C[C@@H](O)CN2C(=O)[C@@H]([N-]C(=O)COCCOCCN(C)C(=O)n2c(C(N)=O)cc3ccc(C(F)(F)F)cc32)C(C)(C)C)cc1

>  <Energy>  (99) 
189.2207586233978

>  <Genealogy>  (99) 
Cc1ncsc1-c1ccc([C@H](C)CC(=O)[C@@H]2C[C@@H](O)CN2C(=O)[C@@H]([N-]C(=O)COCCOCCN(C)C(=O)n2c(C(N)=O)cc3ccc(C(F)(F)F)cc32)C(C)(C)C)cc1 (protonated)
Cc1ncsc1-c1ccc([C@H](C)CC(=O)[C@@H]2C[C@@H](O)CN2C(=O)[C@@H]([N-]C(=O)COCCOCCN(C)C(=O)n2c(C(N)=O)cc3ccc(C(F)(F)F)cc32)C(C)(C)C)cc1 (3D coordinates assigned)
Cc1ncsc1-c1ccc([C@H](C)CC(=O)[C@@H]2C[C@@H](O)CN2C(=O)[C@@H]([N-]C(=O)COCCOCCN(C)C(=O)n2c(C(N)=O)cc3ccc(C(F)(F)F)cc32)C(C)(C)C)cc1 (nonaromatic ring conformer: 189.2207586233978 kcal/mol)

>  <smiles>  (99) 
Cc1ncsc1-c1ccc([C@H](C)CC(=O)[C@@H]2C[C@@H](O)CN2C(=O)[C@@H](NC(=O)COCCOCCN(C)C(=O)n2c(C(N)=O)cc3ccc(C(F)(F)F)cc32)C(C)(C)C)cc1

>  <score_type>  (99) 
oracle

>  <origin>  (99) 
adg

>  <m_score__min__energy>  (99) 
-10.09

>  <m_primary>  (99) 
energy

$$$$
99:0
     RDKit          3D

 37 38  0  0  0  0  0  0  0  0999 V2000
   -4.2310   25.6050  -30.7470 N   0  0  0  0  0  0  0  0  0  0  0  0
   -5.5650   25.2140  -30.4210 C   0  0  0  0  0  0  0  0  0  0  0  0
   -6.2650   25.9620  -29.6860 O   0  0  0  0  0  0  0  0  0  0  0  0
   -6.1170   23.9220  -30.8750 C   0  0  0  0  0  0  0  0  0  0  0  0
   -7.4450   23.7480  -31.2560 C   0  0  0  0  0  0  0  0  0  0  0  0
   -7.5630   22.4100  -31.5550 C   0  0  0  0  0  0  0  0  0  0  0  0
   -8.6610   21.6930  -32.0210 C   0  0  0  0  0  0  0  0  0  0  0  0
   -8.4860   20.3280  -32.3010 C   0  0  0  0  0  0  0  0  0  0  0  0
   -7.2260   19.7030  -32.1070 C   0  0  0  0  0  0  0  0  0  0  0  0
   -7.0350   18.2530  -32.4760 C   0  0  0  0  0  0  0  0  0  0  0  0
   -6.5810   18.1720  -33.7790 F   0  0  0  0  0  0  0  0  0  0  0  0
   -6.1100   17.6550  -31.6380 F   0  0  0  0  0  0  0  0  0  0  0  0
   -8.2280   17.5600  -32.3690 F   0  0  0  0  0  0  0  0  0  0  0  0
   -6.1280   20.4730  -31.6580 C   0  0  0  0  0  0  0  0  0  0  0  0
   -6.3370   21.8260  -31.3630 C   0  0  0  0  0  0  0  0  0  0  0  0
   -5.4360   22.7450  -30.9460 N   0  0  0  0  0  0  0  0  0  0  0  0
   -4.0250   22.5440  -30.7660 C   0  0  0  0  0  0  0  0  0  0  0  0
   -3.2050   23.0790  -31.5600 O   0  0  0  0  0  0  0  0  0  0  0  0
   -3.5700   21.7500  -29.7060 O   0  0  0  0  0  0  0  0  0  0  0  0
   -3.3050   22.2510  -28.3960 C   0  0  0  0  0  0  0  0  0  0  0  0
   -1.9970   23.0600  -28.3500 C   0  0  1  0  0  0  0  0  0  0  0  0
   -1.2330   22.8060  -29.5000 O   0  0  0  0  0  0  0  0  0  0  0  0
   -2.2560   24.5720  -28.1950 C   0  0  0  0  0  0  0  0  0  0  0  0
   -2.2800   25.2180  -29.4400 O   0  0  0  0  0  0  0  0  0  0  0  0
   -3.8730   26.5410  -30.4530 H   0  0  0  0  0  0  0  0  0  0  0  0
   -3.5720   24.9410  -31.2090 H   0  0  0  0  0  0  0  0  0  0  0  0
   -8.2312   24.5156  -31.3070 H   0  0  0  0  0  0  0  0  0  0  0  0
   -9.6363   22.1807  -32.1656 H   0  0  0  0  0  0  0  0  0  0  0  0
   -9.3347   19.7364  -32.6748 H   0  0  0  0  0  0  0  0  0  0  0  0
   -5.1324   20.0195  -31.5431 H   0  0  0  0  0  0  0  0  0  0  0  0
   -4.1372   22.9010  -28.0878 H   0  0  0  0  0  0  0  0  0  0  0  0
   -3.2018   21.3932  -27.7152 H   0  0  0  0  0  0  0  0  0  0  0  0
   -1.4349   22.7351  -27.4620 H   0  0  0  0  0  0  0  0  0  0  0  0
   -1.8230   22.9770  -30.2800 H   0  0  0  0  0  0  0  0  0  0  0  0
   -3.2254   24.7197  -27.6965 H   0  0  0  0  0  0  0  0  0  0  0  0
   -1.4396   25.0033  -27.5971 H   0  0  0  0  0  0  0  0  0  0  0  0
   -2.3220   24.5070  -30.1320 H   0  0  0  0  0  0  0  0  0  0  0  0
  1  2  1  0
  2  3  2  0
  2  4  1  0
  4  5  2  0
  5  6  1  0
  6  7  2  0
  7  8  1  0
  8  9  2  0
  9 10  1  0
 10 11  1  0
 10 12  1  0
 10 13  1  0
  9 14  1  0
 14 15  2  0
 15 16  1  0
 16 17  1  0
 17 18  2  0
 17 19  1  0
 19 20  1  0
 20 21  1  0
 21 22  1  0
 21 23  1  0
 23 24  1  0
 16  4  1  0
 15  6  1  0
  1 25  1  0
  1 26  1  0
  5 27  1  0
  7 28  1  0
  8 29  1  0
 14 30  1  0
 20 31  1  0
 20 32  1  0
 21 33  1  1
 22 34  1  0
 23 35  1  0
 23 36  1  0
 24 37  1  0
M  END
>  <UniqueID>  (100) 
99

>  <SMILES>  (100) 
NC(=O)c1cc2ccc(C(F)(F)F)cc2n1C(=O)OC[C@@H](O)CO

>  <Energy>  (100) 
73.20512150048373

>  <Genealogy>  (100) 
NC(=O)c1cc2ccc(C(F)(F)F)cc2n1C(=O)OC[C@@H](O)CO (chirality)
NC(=O)c1cc2ccc(C(F)(F)F)cc2n1C(=O)OC[C@@H](O)CO (3D coordinates assigned)
NC(=O)c1cc2ccc(C(F)(F)F)cc2n1C(=O)OC[C@@H](O)CO (optimized conformer: 73.20512150048373 kcal/mol)

>  <smiles>  (100) 
NC(=O)c1cc2ccc(C(F)(F)F)cc2n1C(=O)OCC(O)CO

>  <score_type>  (100) 
oracle

>  <origin>  (100) 
adg

>  <m_score__min__energy>  (100) 
-8.2799999999999994

>  <m_primary>  (100) 
energy

$$$$
